PDB_DB01204_02
     RDKit          3D

152156  0  0  0  0  0  0  0  0999 V2000
    8.1259   -2.8114   -0.5265 O   0  0  0  0  0  0  0  0  0  0  0  0
    6.8998   -2.7850    0.1389 C   0  0  0  0  0  0  0  0  0  0  0  0
    5.7291   -2.6499   -0.8041 C   0  0  0  0  0  0  0  0  0  0  0  0
    4.4774   -2.6215   -0.1131 N   0  0  0  0  0  0  0  0  0  0  0  0
    4.2707   -1.4037    0.6370 C   0  0  0  0  0  0  0  0  0  0  0  0
    2.9852   -1.4704    1.4417 C   0  0  0  0  0  0  0  0  0  0  0  0
    1.8141   -1.6885    0.7162 N   0  0  0  0  0  0  0  0  0  0  0  0
    1.2941   -0.7335   -0.1766 C   0  0  0  0  0  0  0  0  0  0  0  0
    0.3092   -1.4011   -1.0873 C   0  0  0  0  0  0  0  0  0  0  0  0
   -0.8667   -1.7826   -0.1723 C   0  0  0  0  0  0  0  0  0  0  0  0
    0.7307    0.5190    0.4964 C   0  0  0  0  0  0  0  0  0  0  0  0
    1.5787    1.6623    0.0384 C   0  0  0  0  0  0  0  0  0  0  0  0
    2.5439    2.0308    1.0116 O   0  0  0  0  0  0  0  0  0  0  0  0
    0.9040    2.8920   -0.3989 C   0  0  0  0  0  0  0  0  0  0  0  0
    1.6006    4.1871   -0.1621 C   0  0  0  0  0  0  0  0  0  0  0  0
    2.9548    4.0600    0.1074 O   0  0  0  0  0  0  0  0  0  0  0  0
    0.9362    4.9730    0.9605 C   0  0  0  0  0  0  0  0  0  0  0  0
   -0.4592    5.4414    0.5065 C   0  0  0  0  0  0  0  0  0  0  0  0
   -1.1051    4.3366   -0.3029 C   0  0  0  0  0  0  0  0  0  0  0  0
   -0.6788    4.5080   -1.6343 O   0  0  0  0  0  0  0  0  0  0  0  0
   -0.5144    3.0392    0.1928 C   0  0  0  0  0  0  0  0  0  0  0  0
   -1.2084    1.8405   -0.3925 C   0  0  0  0  0  0  0  0  0  0  0  0
   -2.5568    2.0455   -0.2857 O   0  0  0  0  0  0  0  0  0  0  0  0
   -0.7316    0.6646    0.4926 C   0  0  0  0  0  0  0  0  0  0  0  0
   -1.5575   -0.4845    0.0595 C   0  0  0  0  0  0  0  0  0  0  0  0
   -2.7998   -0.6693    0.7299 N   0  0  0  0  0  0  0  0  0  0  0  0
   -3.9317   -1.1208    0.0846 C   0  0  0  0  0  0  0  0  0  0  0  0
   -4.0703   -2.4601   -0.5225 C   0  0  0  0  0  0  0  0  0  0  0  0
   -5.4439   -2.5215   -1.0670 N   0  0  0  0  0  0  0  0  0  0  0  0
   -6.4725   -2.6746   -0.1176 C   0  0  0  0  0  0  0  0  0  0  0  0
   -6.3985   -4.1217    0.3957 C   0  0  0  0  0  0  0  0  0  0  0  0
   -7.4061   -4.2809    1.3299 O   0  0  0  0  0  0  0  0  0  0  0  0
    8.1259   -2.8114   -0.5265 O   0  0  0  0  0  0  0  0  0  0  0  0
    6.8998   -2.7850    0.1389 C   0  0  0  0  0  0  0  0  0  0  0  0
    5.7291   -2.6499   -0.8041 C   0  0  0  0  0  0  0  0  0  0  0  0
    4.4774   -2.6215   -0.1131 N   0  0  0  0  0  0  0  0  0  0  0  0
    4.2707   -1.4037    0.6370 C   0  0  0  0  0  0  0  0  0  0  0  0
    2.9852   -1.4704    1.4417 C   0  0  0  0  0  0  0  0  0  0  0  0
    1.8141   -1.6885    0.7162 N   0  0  0  0  0  0  0  0  0  0  0  0
    1.2941   -0.7335   -0.1766 C   0  0  0  0  0  0  0  0  0  0  0  0
    0.3092   -1.4011   -1.0873 C   0  0  0  0  0  0  0  0  0  0  0  0
   -0.8667   -1.7826   -0.1723 C   0  0  0  0  0  0  0  0  0  0  0  0
    0.7307    0.5190    0.4964 C   0  0  0  0  0  0  0  0  0  0  0  0
    1.5787    1.6623    0.0384 C   0  0  0  0  0  0  0  0  0  0  0  0
    2.5439    2.0308    1.0116 O   0  0  0  0  0  0  0  0  0  0  0  0
    0.9040    2.8920   -0.3989 C   0  0  0  0  0  0  0  0  0  0  0  0
    1.6006    4.1871   -0.1621 C   0  0  0  0  0  0  0  0  0  0  0  0
    2.9548    4.0600    0.1074 O   0  0  0  0  0  0  0  0  0  0  0  0
    0.9362    4.9730    0.9605 C   0  0  0  0  0  0  0  0  0  0  0  0
   -0.4592    5.4414    0.5065 C   0  0  0  0  0  0  0  0  0  0  0  0
   -1.1051    4.3366   -0.3029 C   0  0  0  0  0  0  0  0  0  0  0  0
   -0.6788    4.5080   -1.6343 O   0  0  0  0  0  0  0  0  0  0  0  0
   -0.5144    3.0392    0.1928 C   0  0  0  0  0  0  0  0  0  0  0  0
   -1.2084    1.8405   -0.3925 C   0  0  0  0  0  0  0  0  0  0  0  0
   -2.5568    2.0455   -0.2857 O   0  0  0  0  0  0  0  0  0  0  0  0
   -0.7316    0.6646    0.4926 C   0  0  0  0  0  0  0  0  0  0  0  0
   -1.5575   -0.4845    0.0595 C   0  0  0  0  0  0  0  0  0  0  0  0
   -2.7998   -0.6693    0.7299 N   0  0  0  0  0  0  0  0  0  0  0  0
   -3.9317   -1.1208    0.0846 C   0  0  0  0  0  0  0  0  0  0  0  0
   -4.0703   -2.4601   -0.5225 C   0  0  0  0  0  0  0  0  0  0  0  0
   -5.4439   -2.5215   -1.0670 N   0  0  0  0  0  0  0  0  0  0  0  0
   -6.4725   -2.6746   -0.1176 C   0  0  0  0  0  0  0  0  0  0  0  0
   -6.3985   -4.1217    0.3957 C   0  0  0  0  0  0  0  0  0  0  0  0
   -7.4061   -4.2809    1.3299 O   0  0  0  0  0  0  0  0  0  0  0  0
    8.5321   -3.7337   -0.5000 H   0  0  0  0  0  0  0  0  0  0  0  0
    6.9354   -1.9083    0.8196 H   0  0  0  0  0  0  0  0  0  0  0  0
    6.8195   -3.7158    0.7514 H   0  0  0  0  0  0  0  0  0  0  0  0
    5.7256   -3.4900   -1.5508 H   0  0  0  0  0  0  0  0  0  0  0  0
    5.9043   -1.7428   -1.4481 H   0  0  0  0  0  0  0  0  0  0  0  0
    4.3777   -3.4399    0.4852 H   0  0  0  0  0  0  0  0  0  0  0  0
    4.3387   -0.4733    0.0181 H   0  0  0  0  0  0  0  0  0  0  0  0
    5.0858   -1.3268    1.3847 H   0  0  0  0  0  0  0  0  0  0  0  0
    2.9685   -0.5264    2.0525 H   0  0  0  0  0  0  0  0  0  0  0  0
    3.1269   -2.2685    2.2026 H   0  0  0  0  0  0  0  0  0  0  0  0
    1.5453   -2.6885    0.5842 H   0  0  0  0  0  0  0  0  0  0  0  0
    2.1549   -0.4517   -0.8642 H   0  0  0  0  0  0  0  0  0  0  0  0
   -0.0753   -0.7668   -1.8775 H   0  0  0  0  0  0  0  0  0  0  0  0
    0.7482   -2.3638   -1.3977 H   0  0  0  0  0  0  0  0  0  0  0  0
   -0.4607   -2.2283    0.7718 H   0  0  0  0  0  0  0  0  0  0  0  0
   -1.4375   -2.5197   -0.6910 H   0  0  0  0  0  0  0  0  0  0  0  0
    1.0249    0.3598    1.5882 H   0  0  0  0  0  0  0  0  0  0  0  0
    2.2356    1.3361   -0.8350 H   0  0  0  0  0  0  0  0  0  0  0  0
    2.0282    2.2389    1.8179 H   0  0  0  0  0  0  0  0  0  0  0  0
    0.7069    2.8316   -1.5149 H   0  0  0  0  0  0  0  0  0  0  0  0
    1.5490    4.8766   -1.0473 H   0  0  0  0  0  0  0  0  0  0  0  0
    3.5157    4.0190   -0.7237 H   0  0  0  0  0  0  0  0  0  0  0  0
    0.8955    4.4088    1.8928 H   0  0  0  0  0  0  0  0  0  0  0  0
    1.5420    5.8912    1.1059 H   0  0  0  0  0  0  0  0  0  0  0  0
   -0.3656    6.3352   -0.1281 H   0  0  0  0  0  0  0  0  0  0  0  0
   -1.0442    5.5969    1.4321 H   0  0  0  0  0  0  0  0  0  0  0  0
   -2.1935    4.3465   -0.2455 H   0  0  0  0  0  0  0  0  0  0  0  0
   -0.7909    5.4804   -1.8475 H   0  0  0  0  0  0  0  0  0  0  0  0
   -0.4932    3.0150    1.2807 H   0  0  0  0  0  0  0  0  0  0  0  0
   -0.8789    1.6527   -1.4386 H   0  0  0  0  0  0  0  0  0  0  0  0
   -2.9728    2.1903   -1.2002 H   0  0  0  0  0  0  0  0  0  0  0  0
   -1.1159    0.9705    1.4879 H   0  0  0  0  0  0  0  0  0  0  0  0
   -1.9263   -0.2333   -1.0379 H   0  0  0  0  0  0  0  0  0  0  0  0
   -2.9517   -0.1367    1.6027 H   0  0  0  0  0  0  0  0  0  0  0  0
   -4.7780   -1.0804    0.8766 H   0  0  0  0  0  0  0  0  0  0  0  0
   -4.3615   -0.3977   -0.6771 H   0  0  0  0  0  0  0  0  0  0  0  0
   -3.4701   -2.4303   -1.5072 H   0  0  0  0  0  0  0  0  0  0  0  0
   -3.8057   -3.3049    0.1004 H   0  0  0  0  0  0  0  0  0  0  0  0
   -5.5574   -1.6131   -1.6141 H   0  0  0  0  0  0  0  0  0  0  0  0
   -7.4621   -2.5686   -0.6662 H   0  0  0  0  0  0  0  0  0  0  0  0
   -6.5239   -1.9912    0.7241 H   0  0  0  0  0  0  0  0  0  0  0  0
   -6.5979   -4.7895   -0.5006 H   0  0  0  0  0  0  0  0  0  0  0  0
   -5.3784   -4.3011    0.7736 H   0  0  0  0  0  0  0  0  0  0  0  0
   -8.0719   -3.5771    1.2306 H   0  0  0  0  0  0  0  0  0  0  0  0
    8.5321   -3.7337   -0.5000 H   0  0  0  0  0  0  0  0  0  0  0  0
    6.9354   -1.9083    0.8196 H   0  0  0  0  0  0  0  0  0  0  0  0
    6.8195   -3.7158    0.7514 H   0  0  0  0  0  0  0  0  0  0  0  0
    5.7256   -3.4900   -1.5508 H   0  0  0  0  0  0  0  0  0  0  0  0
    5.9043   -1.7428   -1.4481 H   0  0  0  0  0  0  0  0  0  0  0  0
    4.3777   -3.4399    0.4852 H   0  0  0  0  0  0  0  0  0  0  0  0
    4.3387   -0.4733    0.0181 H   0  0  0  0  0  0  0  0  0  0  0  0
    5.0858   -1.3268    1.3847 H   0  0  0  0  0  0  0  0  0  0  0  0
    2.9685   -0.5264    2.0525 H   0  0  0  0  0  0  0  0  0  0  0  0
    3.1269   -2.2685    2.2026 H   0  0  0  0  0  0  0  0  0  0  0  0
    1.5453   -2.6885    0.5842 H   0  0  0  0  0  0  0  0  0  0  0  0
    2.1549   -0.4517   -0.8642 H   0  0  0  0  0  0  0  0  0  0  0  0
   -0.0753   -0.7668   -1.8775 H   0  0  0  0  0  0  0  0  0  0  0  0
    0.7482   -2.3638   -1.3977 H   0  0  0  0  0  0  0  0  0  0  0  0
   -0.4607   -2.2283    0.7718 H   0  0  0  0  0  0  0  0  0  0  0  0
   -1.4375   -2.5197   -0.6910 H   0  0  0  0  0  0  0  0  0  0  0  0
    1.0249    0.3598    1.5882 H   0  0  0  0  0  0  0  0  0  0  0  0
    2.2356    1.3361   -0.8350 H   0  0  0  0  0  0  0  0  0  0  0  0
    2.0282    2.2389    1.8179 H   0  0  0  0  0  0  0  0  0  0  0  0
    0.7069    2.8316   -1.5149 H   0  0  0  0  0  0  0  0  0  0  0  0
    1.5490    4.8766   -1.0473 H   0  0  0  0  0  0  0  0  0  0  0  0
    3.5157    4.0190   -0.7237 H   0  0  0  0  0  0  0  0  0  0  0  0
    0.8955    4.4088    1.8928 H   0  0  0  0  0  0  0  0  0  0  0  0
    1.5420    5.8912    1.1059 H   0  0  0  0  0  0  0  0  0  0  0  0
   -0.3656    6.3352   -0.1281 H   0  0  0  0  0  0  0  0  0  0  0  0
   -1.0442    5.5969    1.4321 H   0  0  0  0  0  0  0  0  0  0  0  0
   -2.1935    4.3465   -0.2455 H   0  0  0  0  0  0  0  0  0  0  0  0
   -0.7909    5.4804   -1.8475 H   0  0  0  0  0  0  0  0  0  0  0  0
   -0.4932    3.0150    1.2807 H   0  0  0  0  0  0  0  0  0  0  0  0
   -0.8789    1.6527   -1.4386 H   0  0  0  0  0  0  0  0  0  0  0  0
   -2.9728    2.1903   -1.2002 H   0  0  0  0  0  0  0  0  0  0  0  0
   -1.1159    0.9705    1.4879 H   0  0  0  0  0  0  0  0  0  0  0  0
   -1.9263   -0.2333   -1.0379 H   0  0  0  0  0  0  0  0  0  0  0  0
   -2.9517   -0.1367    1.6027 H   0  0  0  0  0  0  0  0  0  0  0  0
   -4.7780   -1.0804    0.8766 H   0  0  0  0  0  0  0  0  0  0  0  0
   -4.3615   -0.3977   -0.6771 H   0  0  0  0  0  0  0  0  0  0  0  0
   -3.4701   -2.4303   -1.5072 H   0  0  0  0  0  0  0  0  0  0  0  0
   -3.8057   -3.3049    0.1004 H   0  0  0  0  0  0  0  0  0  0  0  0
   -5.5574   -1.6131   -1.6141 H   0  0  0  0  0  0  0  0  0  0  0  0
   -7.4621   -2.5686   -0.6662 H   0  0  0  0  0  0  0  0  0  0  0  0
   -6.5239   -1.9912    0.7241 H   0  0  0  0  0  0  0  0  0  0  0  0
   -6.5979   -4.7895   -0.5006 H   0  0  0  0  0  0  0  0  0  0  0  0
   -5.3784   -4.3011    0.7736 H   0  0  0  0  0  0  0  0  0  0  0  0
   -8.0719   -3.5771    1.2306 H   0  0  0  0  0  0  0  0  0  0  0  0
  1  2  1  0
  2  3  1  0
  3  4  1  0
  4  5  1  0
  5  6  1  0
  6  7  1  0
  7  8  1  0
  8  9  1  0
  9 10  1  0
  8 11  1  0
 11 12  1  0
 12 13  1  0
 12 14  1  0
 14 15  1  0
 15 16  1  0
 15 17  1  0
 17 18  1  0
 18 19  1  0
 19 20  1  0
 14 21  1  0
 19 21  1  0
 21 22  1  0
 22 23  1  0
 11 24  1  0
 22 24  1  0
 10 25  1  0
 24 25  1  0
 25 26  1  0
 26 27  1  0
 27 28  1  0
 28 29  1  0
 29 30  1  0
 30 31  1  0
 31 32  1  0
 33 34  1  0
 34 35  1  0
 35 36  1  0
 36 37  1  0
 37 38  1  0
 38 39  1  0
 39 40  1  0
 40 41  1  0
 41 42  1  0
 40 43  1  0
 43 44  1  0
 44 45  1  0
 44 46  1  0
 46 47  1  0
 47 48  1  0
 47 49  1  0
 49 50  1  0
 50 51  1  0
 51 52  1  0
 46 53  1  0
 51 53  1  0
 53 54  1  0
 54 55  1  0
 43 56  1  0
 54 56  1  0
 42 57  1  0
 56 57  1  0
 57 58  1  0
 58 59  1  0
 59 60  1  0
 60 61  1  0
 61 62  1  0
 62 63  1  0
 63 64  1  0
  1 65  1  0
  2 66  1  0
  2 67  1  0
  3 68  1  0
  3 69  1  0
  4 70  1  0
  5 71  1  0
  5 72  1  0
  6 73  1  0
  6 74  1  0
  7 75  1  0
  8 76  1  0
  9 77  1  0
  9 78  1  0
 10 79  1  0
 10 80  1  0
 11 81  1  0
 12 82  1  0
 13 83  1  0
 14 84  1  0
 15 85  1  0
 16 86  1  0
 17 87  1  0
 17 88  1  0
 18 89  1  0
 18 90  1  0
 19 91  1  0
 20 92  1  0
 21 93  1  0
 22 94  1  0
 23 95  1  0
 24 96  1  0
 25 97  1  0
 26 98  1  0
 27 99  1  0
 27100  1  0
 28101  1  0
 28102  1  0
 29103  1  0
 30104  1  0
 30105  1  0
 31106  1  0
 31107  1  0
 32108  1  0
 33109  1  0
 34110  1  0
 34111  1  0
 35112  1  0
 35113  1  0
 36114  1  0
 37115  1  0
 37116  1  0
 38117  1  0
 38118  1  0
 39119  1  0
 40120  1  0
 41121  1  0
 41122  1  0
 42123  1  0
 42124  1  0
 43125  1  0
 44126  1  0
 45127  1  0
 46128  1  0
 47129  1  0
 48130  1  0
 49131  1  0
 49132  1  0
 50133  1  0
 50134  1  0
 51135  1  0
 52136  1  0
 53137  1  0
 54138  1  0
 55139  1  0
 56140  1  0
 57141  1  0
 58142  1  0
 59143  1  0
 59144  1  0
 60145  1  0
 60146  1  0
 61147  1  0
 62148  1  0
 62149  1  0
 63150  1  0
 63151  1  0
 64152  1  0
M  END
>  <PDBID>  (1) 
4G0V

>  <PDB ID>  (1) 
4G0V

>  <Generic Name>  (1) 
Mitoxantrone

>  <Brand Name>  (1) 
Mitoxantrone#Mitoxantrone Hydrochloride#Mitoxantrone Injection#Mitoxantrone Injection USP#Novantrone#Novantrone Inj 2mg/ml

>  <DrugBank ID>  (1) 
DB01204

>  <ATC Codes>  (1) 
L01DB07

>  <Ligand ID>  (1) 
MIX

>  <Target Name>  (1) 
DNA topoisomerase 2-alpha

>  <UniProt ID>  (1) 
P11388

>  <PDB ID.1>  (1) 
4G0V

>  <Seq. Identity>  (1) 
78%

$$$$
