PDB_DB01536_07
     RDKit          3D

 53 56  0  0  0  0  0  0  0  0999 V2000
    2.1196    1.7089   -0.6298 C   0  0  0  0  0  0  0  0  0  0  0  0
    1.4868    0.3898   -0.2971 C   0  0  1  0  0  0  0  0  0  0  0  0
   -0.6392    1.6459   -0.4149 C   0  0  0  0  0  0  0  0  0  0  0  0
   -2.1052    1.6534   -0.1105 C   0  0  0  0  0  0  0  0  0  0  0  0
   -2.6492    0.2823   -0.2930 C   0  0  1  0  0  0  0  0  0  0  0  0
   -1.9569   -0.6159    0.7422 C   0  0  1  0  0  0  0  0  0  0  0  0
   -2.7847   -1.8532    0.6545 C   0  0  0  0  0  0  0  0  0  0  0  0
   -4.1863   -1.4028    0.2326 C   0  0  0  0  0  0  0  0  0  0  0  0
   -4.0891    0.1256    0.1338 C   0  0  0  0  0  0  0  0  0  0  0  0
   -2.5222   -0.2623   -1.6830 C   0  0  0  0  0  0  0  0  0  0  0  0
    1.4218   -0.4208   -1.5758 C   0  0  0  0  0  0  0  0  0  0  0  0
    3.5732    1.6040   -0.9310 C   0  0  0  0  0  0  0  0  0  0  0  0
    4.3424    0.7644    0.0555 C   0  0  0  0  0  0  0  0  0  0  0  0
    3.7096   -0.5943    0.2639 C   0  0  0  0  0  0  0  0  0  0  0  0
    2.2989   -0.3705    0.7307 C   0  0  0  0  0  0  0  0  0  0  0  0
    1.6722   -1.6680    1.0823 C   0  0  0  0  0  0  0  0  0  0  0  0
    0.2038   -1.6534    1.2704 C   0  0  0  0  0  0  0  0  0  0  0  0
   -0.5420   -0.7598    0.3084 C   0  0  2  0  0  0  0  0  0  0  0  0
    0.1214    0.5876    0.3236 C   0  0  1  0  0  0  0  0  0  0  0  0
    4.4483    1.4402    1.2529 O   0  0  0  0  0  0  0  0  0  0  0  0
   -4.3263    0.6865    1.3807 O   0  0  0  0  0  0  0  0  0  0  0  0
    1.6110    2.0847   -1.5629 H   0  0  0  0  0  0  0  0  0  0  0  0
    1.9174    2.4972    0.1347 H   0  0  0  0  0  0  0  0  0  0  0  0
   -0.2275    2.6364   -0.0742 H   0  0  0  0  0  0  0  0  0  0  0  0
   -0.4844    1.6248   -1.5063 H   0  0  0  0  0  0  0  0  0  0  0  0
   -2.5861    2.3616   -0.8286 H   0  0  0  0  0  0  0  0  0  0  0  0
   -2.3558    2.0056    0.8972 H   0  0  0  0  0  0  0  0  0  0  0  0
   -2.0462   -0.1012    1.7182 H   0  0  0  0  0  0  0  0  0  0  0  0
   -2.8935   -2.2534    1.7019 H   0  0  0  0  0  0  0  0  0  0  0  0
   -2.3734   -2.6141   -0.0209 H   0  0  0  0  0  0  0  0  0  0  0  0
   -4.4289   -1.8324   -0.7695 H   0  0  0  0  0  0  0  0  0  0  0  0
   -4.9531   -1.7185    0.9411 H   0  0  0  0  0  0  0  0  0  0  0  0
   -4.7231    0.5252   -0.6643 H   0  0  0  0  0  0  0  0  0  0  0  0
   -2.3058   -1.3563   -1.6287 H   0  0  0  0  0  0  0  0  0  0  0  0
   -1.7395    0.1998   -2.2831 H   0  0  0  0  0  0  0  0  0  0  0  0
   -3.5019   -0.1758   -2.1956 H   0  0  0  0  0  0  0  0  0  0  0  0
    1.3946   -1.5122   -1.3753 H   0  0  0  0  0  0  0  0  0  0  0  0
    0.6436   -0.0743   -2.2690 H   0  0  0  0  0  0  0  0  0  0  0  0
    2.3985   -0.2549   -2.1175 H   0  0  0  0  0  0  0  0  0  0  0  0
    3.7900    1.2454   -1.9574 H   0  0  0  0  0  0  0  0  0  0  0  0
    4.0119    2.6337   -0.8779 H   0  0  0  0  0  0  0  0  0  0  0  0
    5.3756    0.6422   -0.3466 H   0  0  0  0  0  0  0  0  0  0  0  0
    3.7813   -1.2175   -0.6373 H   0  0  0  0  0  0  0  0  0  0  0  0
    4.2667   -1.0875    1.0875 H   0  0  0  0  0  0  0  0  0  0  0  0
    2.3512    0.2838    1.6327 H   0  0  0  0  0  0  0  0  0  0  0  0
    2.1351   -2.0121    2.0539 H   0  0  0  0  0  0  0  0  0  0  0  0
    2.0006   -2.4367    0.3391 H   0  0  0  0  0  0  0  0  0  0  0  0
   -0.1764   -2.6986    1.0730 H   0  0  0  0  0  0  0  0  0  0  0  0
   -0.1352   -1.4184    2.2987 H   0  0  0  0  0  0  0  0  0  0  0  0
   -0.5044   -1.2454   -0.6798 H   0  0  0  0  0  0  0  0  0  0  0  0
    0.2553    0.8822    1.3847 H   0  0  0  0  0  0  0  0  0  0  0  0
    5.1556    2.1447    1.1571 H   0  0  0  0  0  0  0  0  0  0  0  0
   -5.2505    0.9541    1.5218 H   0  0  0  0  0  0  0  0  0  0  0  0
  1  2  1  0
  3  4  1  0
  4  5  1  0
  5  6  1  0
  6  7  1  0
  7  8  1  0
  5  9  1  0
  8  9  1  0
  5 10  1  6
  2 11  1  6
  1 12  1  0
 12 13  1  0
 13 14  1  0
  2 15  1  0
 14 15  1  0
 15 16  1  0
 16 17  1  0
  6 18  1  0
 17 18  1  0
  2 19  1  0
  3 19  1  0
 18 19  1  0
 13 20  1  0
  9 21  1  0
  1 22  1  0
  1 23  1  0
  3 24  1  0
  3 25  1  0
  4 26  1  0
  4 27  1  0
  6 28  1  1
  7 29  1  0
  7 30  1  0
  8 31  1  0
  8 32  1  0
  9 33  1  0
 10 34  1  0
 10 35  1  0
 10 36  1  0
 11 37  1  0
 11 38  1  0
 11 39  1  0
 12 40  1  0
 12 41  1  0
 13 42  1  0
 14 43  1  0
 14 44  1  0
 15 45  1  0
 16 46  1  0
 16 47  1  0
 17 48  1  0
 17 49  1  0
 18 50  1  6
 19 51  1  1
 20 52  1  0
 21 53  1  0
M  END
>  <PDBID>  (1) 
1QYX

>  <PDB ID>  (1) 
1QYX

>  <Generic Name>  (1) 
4-Androstenedione

>  <Brand Name>  (1) 
nan

>  <DrugBank ID>  (1) 
DB01536

>  <ATC Codes>  (1) 
nan

>  <Ligand ID>  (1) 
ASD

>  <Target Name>  (1) 
Estradiol 17-beta-dehydrogenase 1

>  <UniProt ID>  (1) 
P14061

>  <PDB ID.1>  (1) 
1QYX

>  <Seq. Identity>  (1) 
89%

$$$$
