PDB_DB01263_05
     RDKit          3D

119125  0  0  0  0  0  0  0  0999 V2000
   11.6178    2.7597    0.0473 C   0  0  0  0  0  0  0  0  0  0  0  0
   12.0376   -1.6549    0.4089 C   0  0  0  0  0  0  0  0  0  0  0  0
    8.6141    2.2239   -0.0924 O   0  0  0  0  0  0  0  0  0  0  0  0
   12.4663   -0.7220   -1.7588 O   0  0  0  0  0  0  0  0  0  0  0  0
  -10.8114   -1.3842    0.4608 F   0  0  0  0  0  0  0  0  0  0  0  0
   -9.2571    1.1459    3.5690 F   0  0  0  0  0  0  0  0  0  0  0  0
  -10.9500    0.4082    2.0126 C   0  0  0  0  0  0  0  0  0  0  0  0
   -2.9774   -0.1182    0.2037 C   0  0  0  0  0  0  0  0  0  0  0  0
   -1.8914   -1.4437   -1.5176 C   0  0  0  0  0  0  0  0  0  0  0  0
   -1.5382    0.2097    0.4261 C   0  0  0  0  0  0  0  0  0  0  0  0
   -1.0804   -2.0798   -0.3833 C   0  0  0  0  0  0  0  0  0  0  0  0
    5.2265   -0.7365    1.2382 C   0  0  0  0  0  0  0  0  0  0  0  0
    5.2674    1.1777   -0.4278 C   0  0  0  0  0  0  0  0  0  0  0  0
    6.2818   -1.3658    0.3764 C   0  0  0  0  0  0  0  0  0  0  0  0
    6.4769    0.5566   -1.0015 C   0  0  0  0  0  0  0  0  0  0  0  0
  -10.0620    0.0880    3.1713 C   0  0  0  0  0  0  0  0  0  0  0  0
   -9.9196    3.0708   -2.5538 C   0  0  0  0  0  0  0  0  0  0  0  0
   -8.8370   -0.0978    0.8847 C   0  0  1  0  0  0  0  0  0  0  0  0
   -9.0837    2.9370   -0.4379 C   0  0  0  0  0  0  0  0  0  0  0  0
    8.4504   -0.5655    1.9792 C   0  0  0  0  0  0  0  0  0  0  0  0
   11.9911    1.3469   -0.2639 C   0  0  0  0  0  0  0  0  0  0  0  0
   -6.6591   -0.2091   -0.3200 C   0  0  0  0  0  0  0  0  0  0  0  0
    1.0678    0.0389    1.8404 C   0  0  0  0  0  0  0  0  0  0  0  0
    1.2382   -0.3106   -0.5213 C   0  0  0  0  0  0  0  0  0  0  0  0
    2.5446    0.2879    1.8853 C   0  0  0  0  0  0  0  0  0  0  0  0
    2.7538   -0.4824   -0.3510 C   0  0  0  0  0  0  0  0  0  0  0  0
   -5.2520   -1.3283   -2.0562 C   0  0  0  0  0  0  0  0  0  0  0  0
   -8.5761    0.7401   -1.4500 C   0  0  0  0  0  0  0  0  0  0  0  0
  -10.2885    3.2955   -1.1952 N   0  0  0  0  0  0  0  0  0  0  0  0
   -8.4862    2.7476   -2.5456 N   0  0  0  0  0  0  0  0  0  0  0  0
    9.6197   -0.8708    1.1220 N   0  0  0  0  0  0  0  0  0  0  0  0
   -4.1231   -0.6047   -1.8132 O   0  0  0  0  0  0  0  0  0  0  0  0
   -8.5103   -1.5126   -0.9529 O   0  0  0  0  0  0  0  0  0  0  0  0
  -10.3306   -0.1126    0.7308 C   0  0  0  0  0  0  0  0  0  0  0  0
   -8.5231   -1.3330    1.7700 C   0  0  0  0  0  0  0  0  0  0  0  0
   -3.2416   -1.1062   -0.8944 C   0  0  0  0  0  0  0  0  0  0  0  0
   -0.7302   -1.0220    0.6559 C   0  0  0  0  0  0  0  0  0  0  0  0
    4.6405    0.5250    0.7424 C   0  0  0  0  0  0  0  0  0  0  0  0
    7.2627   -0.3148   -0.0226 C   0  0  0  0  0  0  0  0  0  0  0  0
   -9.3113   -1.2055    3.0385 C   0  0  0  0  0  0  0  0  0  0  0  0
    8.9360    1.2182    0.7939 C   0  0  0  0  0  0  0  0  0  0  0  0
   11.4582   -1.0011   -0.8016 C   0  0  2  0  0  0  0  0  0  0  0  0
   10.8704    0.3982   -0.4891 C   0  0  1  0  0  0  0  0  0  0  0  0
    0.6781   -0.8005    0.7279 N   0  0  0  0  0  0  0  0  0  0  0  0
    3.1704    0.4757    0.6198 N   0  0  0  0  0  0  0  0  0  0  0  0
   -8.3862    2.1001   -1.2930 N   0  0  0  0  0  0  0  0  0  0  0  0
    7.7473    0.3943    1.1176 N   0  0  0  0  0  0  0  0  0  0  0  0
    9.8566    0.2604    0.4100 N   0  0  0  0  0  0  0  0  0  0  0  0
   -8.1665   -0.2536   -0.4333 C   0  0  2  0  0  0  0  0  0  0  0  0
   -7.4063   -2.2418   -1.2223 C   0  0  0  0  0  0  0  0  0  0  0  0
   -6.1618   -1.5091   -0.8671 C   0  0  2  0  0  0  0  0  0  0  0  0
   11.0416    2.8606    0.9865 H   0  0  0  0  0  0  0  0  0  0  0  0
   12.5568    3.3670    0.2207 H   0  0  0  0  0  0  0  0  0  0  0  0
   11.0396    3.2250   -0.7980 H   0  0  0  0  0  0  0  0  0  0  0  0
   13.1271   -1.8712    0.1758 H   0  0  0  0  0  0  0  0  0  0  0  0
   11.5958   -2.6830    0.4892 H   0  0  0  0  0  0  0  0  0  0  0  0
   11.9491   -1.0870    1.3470 H   0  0  0  0  0  0  0  0  0  0  0  0
    8.1134    2.9181    0.4040 H   0  0  0  0  0  0  0  0  0  0  0  0
   12.2678   -1.1935   -2.6207 H   0  0  0  0  0  0  0  0  0  0  0  0
  -11.9271   -0.1456    2.1288 H   0  0  0  0  0  0  0  0  0  0  0  0
  -11.1974    1.4715    1.9725 H   0  0  0  0  0  0  0  0  0  0  0  0
   -3.5694    0.8179    0.0217 H   0  0  0  0  0  0  0  0  0  0  0  0
   -3.4086   -0.5334    1.1532 H   0  0  0  0  0  0  0  0  0  0  0  0
   -1.4149   -0.5382   -1.8977 H   0  0  0  0  0  0  0  0  0  0  0  0
   -1.9606   -2.1911   -2.3087 H   0  0  0  0  0  0  0  0  0  0  0  0
   -1.1318    0.8573   -0.3787 H   0  0  0  0  0  0  0  0  0  0  0  0
   -1.4864    0.8172    1.3681 H   0  0  0  0  0  0  0  0  0  0  0  0
   -1.7550   -2.8661    0.0525 H   0  0  0  0  0  0  0  0  0  0  0  0
   -0.1636   -2.5436   -0.7889 H   0  0  0  0  0  0  0  0  0  0  0  0
    5.6251   -0.6861    2.2823 H   0  0  0  0  0  0  0  0  0  0  0  0
    4.4066   -1.5130    1.3161 H   0  0  0  0  0  0  0  0  0  0  0  0
    5.5069    2.2720   -0.2681 H   0  0  0  0  0  0  0  0  0  0  0  0
    4.4831    1.2271   -1.2423 H   0  0  0  0  0  0  0  0  0  0  0  0
    6.6743   -2.2541    0.8447 H   0  0  0  0  0  0  0  0  0  0  0  0
    5.7898   -1.7214   -0.5790 H   0  0  0  0  0  0  0  0  0  0  0  0
    6.1306   -0.1907   -1.7815 H   0  0  0  0  0  0  0  0  0  0  0  0
    7.0880    1.2638   -1.5531 H   0  0  0  0  0  0  0  0  0  0  0  0
  -10.7583   -0.0657    4.0528 H   0  0  0  0  0  0  0  0  0  0  0  0
  -10.4477    2.2122   -3.0213 H   0  0  0  0  0  0  0  0  0  0  0  0
  -10.0207    4.0121   -3.1216 H   0  0  0  0  0  0  0  0  0  0  0  0
   -8.5296    0.7822    1.4447 H   0  0  0  0  0  0  0  0  0  0  0  0
   -8.5014    3.9120   -0.3584 H   0  0  0  0  0  0  0  0  0  0  0  0
   -9.3305    2.6431    0.5756 H   0  0  0  0  0  0  0  0  0  0  0  0
    8.8775    0.0105    2.8311 H   0  0  0  0  0  0  0  0  0  0  0  0
    7.8892   -1.4416    2.2447 H   0  0  0  0  0  0  0  0  0  0  0  0
   12.7279    1.0192    0.4916 H   0  0  0  0  0  0  0  0  0  0  0  0
   12.5785    1.3823   -1.2298 H   0  0  0  0  0  0  0  0  0  0  0  0
   -6.3025   -0.0820    0.7001 H   0  0  0  0  0  0  0  0  0  0  0  0
   -6.2137    0.6061   -0.9472 H   0  0  0  0  0  0  0  0  0  0  0  0
    0.6812   -0.4378    2.7493 H   0  0  0  0  0  0  0  0  0  0  0  0
    0.5482    1.0095    1.7180 H   0  0  0  0  0  0  0  0  0  0  0  0
    0.9414   -0.9371   -1.3665 H   0  0  0  0  0  0  0  0  0  0  0  0
    1.0507    0.7558   -0.6794 H   0  0  0  0  0  0  0  0  0  0  0  0
    3.0073   -0.5683    2.4109 H   0  0  0  0  0  0  0  0  0  0  0  0
    2.7433    1.1672    2.5586 H   0  0  0  0  0  0  0  0  0  0  0  0
    3.1783   -0.3355   -1.3402 H   0  0  0  0  0  0  0  0  0  0  0  0
    2.8561   -1.5499    0.0071 H   0  0  0  0  0  0  0  0  0  0  0  0
   -5.0643   -2.3300   -2.4952 H   0  0  0  0  0  0  0  0  0  0  0  0
   -5.8421   -0.7669   -2.8223 H   0  0  0  0  0  0  0  0  0  0  0  0
   -9.6513    0.4789   -1.7918 H   0  0  0  0  0  0  0  0  0  0  0  0
   -8.0314    0.4668   -2.4457 H   0  0  0  0  0  0  0  0  0  0  0  0
  -11.1280    2.7996   -0.8674 H   0  0  0  0  0  0  0  0  0  0  0  0
   -8.2321    2.0461   -3.2649 H   0  0  0  0  0  0  0  0  0  0  0  0
    9.4244   -1.7358    0.5654 H   0  0  0  0  0  0  0  0  0  0  0  0
  -10.6292    0.5828   -0.0613 H   0  0  0  0  0  0  0  0  0  0  0  0
   -7.4459   -1.3352    2.0287 H   0  0  0  0  0  0  0  0  0  0  0  0
   -8.8597   -2.2255    1.2289 H   0  0  0  0  0  0  0  0  0  0  0  0
   -3.6036   -2.0850   -0.4697 H   0  0  0  0  0  0  0  0  0  0  0  0
   -1.0369   -1.4458    1.6496 H   0  0  0  0  0  0  0  0  0  0  0  0
    4.7613    1.2696    1.5966 H   0  0  0  0  0  0  0  0  0  0  0  0
    8.1215   -0.7176   -0.5985 H   0  0  0  0  0  0  0  0  0  0  0  0
   -8.6442   -1.2628    3.9485 H   0  0  0  0  0  0  0  0  0  0  0  0
  -10.0413   -2.0306    3.1768 H   0  0  0  0  0  0  0  0  0  0  0  0
    9.1332    1.7131    1.7948 H   0  0  0  0  0  0  0  0  0  0  0  0
   10.6659   -1.5527   -1.3159 H   0  0  0  0  0  0  0  0  0  0  0  0
   10.4334    0.6885   -1.5002 H   0  0  0  0  0  0  0  0  0  0  0  0
   -7.4422   -3.2752   -0.8000 H   0  0  0  0  0  0  0  0  0  0  0  0
   -7.3838   -2.4037   -2.3436 H   0  0  0  0  0  0  0  0  0  0  0  0
   -5.5724   -2.0715   -0.0821 H   0  0  0  0  0  0  0  0  0  0  0  0
  8 10  1  0
  9 11  1  0
 12 14  1  0
 13 15  1  0
  6 16  1  0
  7 16  1  0
  1 21  1  0
 23 25  1  0
 24 26  1  0
 17 29  1  0
 19 29  1  0
 17 30  1  0
 20 31  1  0
 27 32  1  0
  5 34  1  0
  7 34  1  0
 18 34  1  0
 18 35  1  0
  8 36  1  0
  9 36  1  0
 32 36  1  0
 10 37  1  0
 11 37  1  0
 12 38  1  0
 13 38  1  0
 14 39  1  0
 15 39  1  0
 16 40  1  0
 35 40  1  0
  3 41  1  0
  2 42  1  0
  4 42  1  0
 21 43  1  0
 42 43  1  0
 23 44  1  0
 24 44  1  0
 37 44  1  0
 25 45  1  0
 26 45  1  0
 38 45  1  0
 19 46  1  0
 28 46  1  0
 30 46  1  0
 20 47  1  0
 39 47  1  0
 41 47  1  0
 31 48  1  0
 41 48  1  0
 43 48  1  0
 18 49  1  0
 22 49  1  0
 49 28  1  6
 33 49  1  0
 33 50  1  0
 22 51  1  0
 27 51  1  0
 50 51  1  0
  1 52  1  0
  1 53  1  0
  1 54  1  0
  2 55  1  0
  2 56  1  0
  2 57  1  0
  3 58  1  0
  4 59  1  0
  7 60  1  0
  7 61  1  0
  8 62  1  0
  8 63  1  0
  9 64  1  0
  9 65  1  0
 10 66  1  0
 10 67  1  0
 11 68  1  0
 11 69  1  0
 12 70  1  0
 12 71  1  0
 13 72  1  0
 13 73  1  0
 14 74  1  0
 14 75  1  0
 15 76  1  0
 15 77  1  0
 16 78  1  0
 17 79  1  0
 17 80  1  0
 18 81  1  1
 19 82  1  0
 19 83  1  0
 20 84  1  0
 20 85  1  0
 21 86  1  0
 21 87  1  0
 22 88  1  0
 22 89  1  0
 23 90  1  0
 23 91  1  0
 24 92  1  0
 24 93  1  0
 25 94  1  0
 25 95  1  0
 26 96  1  0
 26 97  1  0
 27 98  1  0
 27 99  1  0
 28100  1  0
 28101  1  0
 29102  1  0
 30103  1  0
 31104  1  0
 34105  1  0
 35106  1  0
 35107  1  0
 36108  1  0
 37109  1  0
 38110  1  0
 39111  1  0
 40112  1  0
 40113  1  0
 41114  1  0
 42115  1  6
 43116  1  6
 50117  1  0
 50118  1  0
 51119  1  1
M  END
>  <PDBID>  (1) 
4ZE1

>  <PDB ID>  (1) 
4ZE1

>  <Generic Name>  (1) 
Posaconazole

>  <Brand Name>  (1) 
Noxafil#Posanol

>  <DrugBank ID>  (1) 
DB01263

>  <ATC Codes>  (1) 
J02AC04

>  <Ligand ID>  (1) 
X2N

>  <Target Name>  (1) 
Lanosterol 14-alpha demethylase

>  <UniProt ID>  (1) 
P10613

>  <PDB ID.1>  (1) 
4ZE1

>  <Seq. Identity>  (1) 
65%

$$$$
