PDB_DB00284_00
     RDKit          3D

 89 92  0  0  0  0  0  0  0  0999 V2000
    5.6247    0.0274   -0.2630 C   0  0  2  0  0  0  0  0  0  0  0  0
    5.6426    1.4380    0.1793 C   0  0  1  0  0  0  0  0  0  0  0  0
    6.7666    1.7036    1.1842 C   0  0  2  0  0  0  0  0  0  0  0  0
    8.0993    1.3122    0.6752 C   0  0  1  0  0  0  0  0  0  0  0  0
    8.1249   -0.0599    0.1028 C   0  0  0  0  0  0  0  0  0  0  0  0
    8.3980   -1.1221    1.1483 C   0  0  0  0  0  0  0  0  0  0  0  0
    6.9985   -0.4061   -0.7988 C   0  0  0  0  0  0  0  0  0  0  0  0
    5.9181    2.3000   -0.8882 O   0  0  0  0  0  0  0  0  0  0  0  0
    6.4920    1.2378    2.4437 O   0  0  0  0  0  0  0  0  0  0  0  0
    8.4835    2.2064   -0.3292 O   0  0  0  0  0  0  0  0  0  0  0  0
    7.4637   -1.1624    2.1521 O   0  0  0  0  0  0  0  0  0  0  0  0
    0.6111   -0.1174   -1.3658 C   0  0  2  0  0  0  0  0  0  0  0  0
    1.4120    1.1232   -1.6945 C   0  0  1  0  0  0  0  0  0  0  0  0
    2.6911    0.9815   -0.8112 C   0  0  2  0  0  0  0  0  0  0  0  0
    3.2926   -0.3449   -0.9942 C   0  0  1  0  0  0  0  0  0  0  0  0
    2.5572   -1.2173   -2.0056 C   0  0  1  0  0  0  0  0  0  0  0  0
    3.0436   -2.6711   -1.8606 C   0  0  0  0  0  0  0  0  0  0  0  0
    4.6815   -0.3539   -1.2119 N   0  0  0  0  0  0  0  0  0  0  0  0
    1.7607    1.0841   -3.0290 O   0  0  0  0  0  0  0  0  0  0  0  0
    2.1583    1.0878    0.4949 O   0  0  0  0  0  0  0  0  0  0  0  0
    1.2168   -1.1764   -1.9792 O   0  0  0  0  0  0  0  0  0  0  0  0
   -4.1740   -0.1672    0.5306 C   0  0  2  0  0  0  0  0  0  0  0  0
   -3.1919    0.9313    0.8404 C   0  0  1  0  0  0  0  0  0  0  0  0
   -2.3738    1.1678   -0.4249 C   0  0  2  0  0  0  0  0  0  0  0  0
   -1.5215   -0.0924   -0.6161 C   0  0  1  0  0  0  0  0  0  0  0  0
   -2.5259   -1.2274   -0.7393 C   0  0  1  0  0  0  0  0  0  0  0  0
   -2.1449   -2.3963    0.1379 C   0  0  0  0  0  0  0  0  0  0  0  0
   -3.7737    2.1250    1.2252 O   0  0  0  0  0  0  0  0  0  0  0  0
   -1.5846    2.3009   -0.3125 O   0  0  0  0  0  0  0  0  0  0  0  0
   -0.7220    0.0196   -1.7287 O   0  0  0  0  0  0  0  0  0  0  0  0
   -3.8330   -0.8374   -0.6354 O   0  0  0  0  0  0  0  0  0  0  0  0
   -2.3152   -2.1817    1.4819 O   0  0  0  0  0  0  0  0  0  0  0  0
   -9.0667    0.6912    0.5154 C   0  0  1  0  0  0  0  0  0  0  0  0
   -8.1861    1.7192    1.1971 C   0  0  1  0  0  0  0  0  0  0  0  0
   -7.0287    1.0647    1.9168 C   0  0  2  0  0  0  0  0  0  0  0  0
   -6.4171   -0.0544    1.1517 C   0  0  1  0  0  0  0  0  0  0  0  0
   -7.4533   -0.8966    0.4251 C   0  0  1  0  0  0  0  0  0  0  0  0
   -7.2612   -2.3811    0.6759 C   0  0  0  0  0  0  0  0  0  0  0  0
   -8.9401    0.8818   -0.8588 O   0  0  0  0  0  0  0  0  0  0  0  0
   -7.7112    2.6813    0.3237 O   0  0  0  0  0  0  0  0  0  0  0  0
   -7.5205    0.6433    3.1719 O   0  0  0  0  0  0  0  0  0  0  0  0
   -5.4381    0.4034    0.2740 O   0  0  0  0  0  0  0  0  0  0  0  0
   -8.7214   -0.5936    0.9269 O   0  0  0  0  0  0  0  0  0  0  0  0
   -6.0305   -2.8276    0.2213 O   0  0  0  0  0  0  0  0  0  0  0  0
    5.4132   -0.5835    0.6789 H   0  0  0  0  0  0  0  0  0  0  0  0
    4.7276    1.7226    0.7068 H   0  0  0  0  0  0  0  0  0  0  0  0
    6.7768    2.8352    1.2700 H   0  0  0  0  0  0  0  0  0  0  0  0
    8.8219    1.3256    1.5237 H   0  0  0  0  0  0  0  0  0  0  0  0
    9.0598   -0.0924   -0.5564 H   0  0  0  0  0  0  0  0  0  0  0  0
    9.4174   -0.9641    1.5929 H   0  0  0  0  0  0  0  0  0  0  0  0
    8.4421   -2.1322    0.6850 H   0  0  0  0  0  0  0  0  0  0  0  0
    7.1325    0.0102   -1.8066 H   0  0  0  0  0  0  0  0  0  0  0  0
    6.9301   -1.5262   -0.8487 H   0  0  0  0  0  0  0  0  0  0  0  0
    5.8723    1.7772   -1.7236 H   0  0  0  0  0  0  0  0  0  0  0  0
    5.5460    1.1862    2.6722 H   0  0  0  0  0  0  0  0  0  0  0  0
    9.4789    2.1746   -0.3578 H   0  0  0  0  0  0  0  0  0  0  0  0
    7.4293   -2.0204    2.6183 H   0  0  0  0  0  0  0  0  0  0  0  0
    0.6557   -0.2796   -0.2737 H   0  0  0  0  0  0  0  0  0  0  0  0
    0.9322    2.0608   -1.3866 H   0  0  0  0  0  0  0  0  0  0  0  0
    3.2960    1.8362   -1.1019 H   0  0  0  0  0  0  0  0  0  0  0  0
    3.1147   -0.9220   -0.0116 H   0  0  0  0  0  0  0  0  0  0  0  0
    2.9311   -0.9111   -3.0035 H   0  0  0  0  0  0  0  0  0  0  0  0
    2.5931   -3.2288   -2.6933 H   0  0  0  0  0  0  0  0  0  0  0  0
    4.1491   -2.6668   -2.0613 H   0  0  0  0  0  0  0  0  0  0  0  0
    2.7903   -3.0315   -0.8621 H   0  0  0  0  0  0  0  0  0  0  0  0
    5.0087   -0.4780   -2.1900 H   0  0  0  0  0  0  0  0  0  0  0  0
    1.0756    0.6363   -3.5943 H   0  0  0  0  0  0  0  0  0  0  0  0
    2.6688    0.5677    1.1356 H   0  0  0  0  0  0  0  0  0  0  0  0
   -4.2143   -0.8497    1.3928 H   0  0  0  0  0  0  0  0  0  0  0  0
   -2.5166    0.6348    1.6977 H   0  0  0  0  0  0  0  0  0  0  0  0
   -3.1004    1.2127   -1.2611 H   0  0  0  0  0  0  0  0  0  0  0  0
   -0.9680   -0.2630    0.3275 H   0  0  0  0  0  0  0  0  0  0  0  0
   -2.4070   -1.6094   -1.7979 H   0  0  0  0  0  0  0  0  0  0  0  0
   -2.7509   -3.2938   -0.1428 H   0  0  0  0  0  0  0  0  0  0  0  0
   -1.0903   -2.7010   -0.0200 H   0  0  0  0  0  0  0  0  0  0  0  0
   -3.1828    2.6201    1.8588 H   0  0  0  0  0  0  0  0  0  0  0  0
   -2.2019    3.0724   -0.2792 H   0  0  0  0  0  0  0  0  0  0  0  0
   -1.6327   -1.5852    1.8564 H   0  0  0  0  0  0  0  0  0  0  0  0
  -10.1431    0.8312    0.7512 H   0  0  0  0  0  0  0  0  0  0  0  0
   -8.8097    2.2236    1.9609 H   0  0  0  0  0  0  0  0  0  0  0  0
   -6.3080    1.8696    2.1387 H   0  0  0  0  0  0  0  0  0  0  0  0
   -5.9249   -0.7516    1.8603 H   0  0  0  0  0  0  0  0  0  0  0  0
   -7.4237   -0.7477   -0.6728 H   0  0  0  0  0  0  0  0  0  0  0  0
   -8.0267   -2.8955    0.0240 H   0  0  0  0  0  0  0  0  0  0  0  0
   -7.5001   -2.6696    1.6997 H   0  0  0  0  0  0  0  0  0  0  0  0
   -9.4711    1.7159   -1.0607 H   0  0  0  0  0  0  0  0  0  0  0  0
   -7.3037    2.2992   -0.5022 H   0  0  0  0  0  0  0  0  0  0  0  0
   -6.7206    0.5285    3.7452 H   0  0  0  0  0  0  0  0  0  0  0  0
   -6.0677   -3.7815   -0.0224 H   0  0  0  0  0  0  0  0  0  0  0  0
  1  2  1  0
  2  3  1  0
  3  4  1  0
  4  5  1  0
  5  6  1  0
  1  7  1  0
  5  7  1  0
  2  8  1  0
  3  9  1  0
  4 10  1  0
  6 11  1  0
 12 13  1  0
 13 14  1  0
 14 15  1  0
 15 16  1  0
 16 17  1  0
  1 18  1  0
 15 18  1  0
 13 19  1  0
 14 20  1  0
 12 21  1  0
 16 21  1  0
 22 23  1  0
 23 24  1  0
 24 25  1  0
 25 26  1  0
 26 27  1  0
 23 28  1  0
 24 29  1  0
 12 30  1  0
 25 30  1  0
 22 31  1  0
 26 31  1  0
 27 32  1  0
 33 34  1  0
 34 35  1  0
 35 36  1  0
 36 37  1  0
 37 38  1  0
 33 39  1  0
 34 40  1  0
 35 41  1  0
 22 42  1  0
 36 42  1  0
 33 43  1  0
 37 43  1  0
 38 44  1  0
  1 45  1  1
  2 46  1  1
  3 47  1  1
  4 48  1  1
  5 49  1  0
  6 50  1  0
  6 51  1  0
  7 52  1  0
  7 53  1  0
  8 54  1  0
  9 55  1  0
 10 56  1  0
 11 57  1  0
 12 58  1  1
 13 59  1  6
 14 60  1  6
 15 61  1  1
 16 62  1  6
 17 63  1  0
 17 64  1  0
 17 65  1  0
 18 66  1  0
 19 67  1  0
 20 68  1  0
 22 69  1  1
 23 70  1  1
 24 71  1  6
 25 72  1  1
 26 73  1  6
 27 74  1  0
 27 75  1  0
 28 76  1  0
 29 77  1  0
 32 78  1  0
 33 79  1  1
 34 80  1  1
 35 81  1  1
 36 82  1  1
 37 83  1  6
 38 84  1  0
 38 85  1  0
 39 86  1  0
 40 87  1  0
 41 88  1  0
 44 89  1  0
M  END
>  <PDBID>  (1) 
2QMJ

>  <PDB ID>  (1) 
2QMJ

>  <Generic Name>  (1) 
Acarbose

>  <Brand Name>  (1) 
Acarbose#Glucobay#Precose#Prandase

>  <DrugBank ID>  (1) 
DB00284

>  <ATC Codes>  (1) 
A10BF01#A10BD17

>  <Ligand ID>  (1) 
ACR,QPS

>  <Target Name>  (1) 
Maltase-glucoamylase, intestinal

>  <UniProt ID>  (1) 
O43451

>  <PDB ID.1>  (1) 
2QMJ

>  <Seq. Identity>  (1) 
99%

$$$$
