PDB_DB00869_09
     RDKit          3D

 43 44  0  0  0  0  0  0  0  0999 V2000
    2.3807   -1.3970   -0.3219 S   0  0  0  0  0  0  0  0  0  0  0  0
    2.5687    0.4217   -0.4820 C   0  0  0  0  0  0  0  0  0  0  0  0
    1.2666    0.8242    0.1775 C   0  0  0  0  0  0  0  0  0  0  0  0
    0.1495    0.0496   -0.4205 C   0  0  0  0  0  0  0  0  0  0  0  0
   -1.0651    0.0733    0.4320 C   0  0  2  0  0  0  0  0  0  0  0  0
   -2.2559   -0.6558   -0.1742 C   0  0  0  0  0  0  0  0  0  0  0  0
   -1.9897   -2.0471   -0.5795 C   0  0  1  0  0  0  0  0  0  0  0  0
   -0.3461   -2.4779    0.1522 S   0  0  0  0  0  0  0  0  0  0  0  0
    0.5836   -1.3733   -0.6574 C   0  0  2  0  0  0  0  0  0  0  0  0
    3.9597    1.0741    0.0611 S   0  0  0  0  0  0  0  0  0  0  0  0
    5.1082    0.1998   -1.1341 O   0  0  0  0  0  0  0  0  0  0  0  0
    4.5928    0.8536    1.3250 O   0  0  0  0  0  0  0  0  0  0  0  0
    4.1343    2.6012   -0.6138 N   0  0  0  0  0  0  0  0  0  0  0  0
   -1.5109    1.3468    0.9027 N   0  0  0  0  0  0  0  0  0  0  0  0
   -2.9900   -3.0549   -0.1399 C   0  0  0  0  0  0  0  0  0  0  0  0
   -0.3475   -2.7469    1.8219 O   0  0  0  0  0  0  0  0  0  0  0  0
   -0.0475   -4.2147   -0.5981 O   0  0  0  0  0  0  0  0  0  0  0  0
   -1.9007    2.2705   -0.0969 C   0  0  0  0  0  0  0  0  0  0  0  0
   -2.7462    3.3452    0.5979 C   0  0  0  0  0  0  0  0  0  0  0  0
    2.3885    0.6257   -1.5804 H   0  0  0  0  0  0  0  0  0  0  0  0
    1.1421    1.9048   -0.0245 H   0  0  0  0  0  0  0  0  0  0  0  0
    1.2725    0.6362    1.2726 H   0  0  0  0  0  0  0  0  0  0  0  0
   -0.1303    0.5712   -1.3849 H   0  0  0  0  0  0  0  0  0  0  0  0
   -0.8126   -0.5178    1.3629 H   0  0  0  0  0  0  0  0  0  0  0  0
   -2.6725   -0.1070   -1.0404 H   0  0  0  0  0  0  0  0  0  0  0  0
   -3.0444   -0.6087    0.6109 H   0  0  0  0  0  0  0  0  0  0  0  0
   -1.8691   -2.1409   -1.6895 H   0  0  0  0  0  0  0  0  0  0  0  0
    0.5120   -1.5386   -1.7709 H   0  0  0  0  0  0  0  0  0  0  0  0
    4.8111   -0.7264   -0.9984 H   0  0  0  0  0  0  0  0  0  0  0  0
    4.2202    0.8895    2.2143 H   0  0  0  0  0  0  0  0  0  0  0  0
    3.6035    2.7178   -1.5173 H   0  0  0  0  0  0  0  0  0  0  0  0
    3.7739    3.3052    0.0714 H   0  0  0  0  0  0  0  0  0  0  0  0
   -2.2270    1.2009    1.6371 H   0  0  0  0  0  0  0  0  0  0  0  0
   -2.5293   -4.0629   -0.2462 H   0  0  0  0  0  0  0  0  0  0  0  0
   -3.3556   -2.9275    0.8865 H   0  0  0  0  0  0  0  0  0  0  0  0
   -3.8190   -3.0336   -0.8968 H   0  0  0  0  0  0  0  0  0  0  0  0
    0.5168   -2.5001    2.2036 H   0  0  0  0  0  0  0  0  0  0  0  0
    0.8835   -4.3012   -0.2772 H   0  0  0  0  0  0  0  0  0  0  0  0
   -2.3750    1.9010   -0.9947 H   0  0  0  0  0  0  0  0  0  0  0  0
   -1.0042    2.8686   -0.4747 H   0  0  0  0  0  0  0  0  0  0  0  0
   -3.8016    2.9787    0.6723 H   0  0  0  0  0  0  0  0  0  0  0  0
   -2.6803    4.3147    0.0934 H   0  0  0  0  0  0  0  0  0  0  0  0
   -2.3475    3.4580    1.6188 H   0  0  0  0  0  0  0  0  0  0  0  0
  1  2  1  0
  2  3  1  0
  3  4  1  0
  4  5  1  0
  5  6  1  0
  6  7  1  0
  7  8  1  0
  1  9  1  0
  4  9  1  0
  8  9  1  0
  2 10  1  0
 10 11  1  0
 10 12  1  0
 10 13  1  0
  5 14  1  0
  7 15  1  0
  8 16  1  0
  8 17  1  0
 14 18  1  0
 18 19  1  0
  2 20  1  0
  3 21  1  0
  3 22  1  0
  4 23  1  0
  5 24  1  1
  6 25  1  0
  6 26  1  0
  7 27  1  6
  9 28  1  6
 11 29  1  0
 12 30  1  0
 13 31  1  0
 13 32  1  0
 14 33  1  0
 15 34  1  0
 15 35  1  0
 15 36  1  0
 16 37  1  0
 17 38  1  0
 18 39  1  0
 18 40  1  0
 19 41  1  0
 19 42  1  0
 19 43  1  0
M  END
>  <PDBID>  (1) 
1CIL

>  <PDB ID>  (1) 
1CIL

>  <Generic Name>  (1) 
Dorzolamide

>  <Brand Name>  (1) 
Act Dorzotimolol#Apo-dorzo-timop#Apo-dorzolamide#Cosopt#Cosopt PF#Dorzolamide#Dorzolamide HCl#Dorzolamide HCl /timolol Maleate#Dorzolamide HCl and Timolol Maleate#Dorzolamide Hydrochloride#Dorzolamide Hydrochloride Ophthalmic Solution#Dorzolamide Hydrochloride Ophthalmic Solution 2%, 10ml Ophthalmic Solution 2%, 10ml#Dorzolamide Hydrochloride and Timolol Maleate#Dorzolamide Hydrochloride and Timolol Maleate Ophthalmic Solution#Dorzolamide Hydrochloride-timolol Maleate#Dorzolamide Hydrochloride-timolol Maleate Ophthalmic Solution Sterile Ophthalmic Solution#Jamp-dorzolamide#Jamp-dorzolamide/timolol#Med-dorzolamide#Med-dorzolamide-timolol#Mint-dorzolamide/timolol#Mylan-dorzolamide/timolol#PMS-dorzolamide-timolol#Riva-dorzolamide#Riva-dorzolamide/timolol#Sandoz Dorzolamide#Sandoz Dorzolamide/timolol#Teva-dorzotimol#Trusopt#Van-dorzolamide-timolol

>  <DrugBank ID>  (1) 
DB00869

>  <ATC Codes>  (1) 
S01EC03

>  <Ligand ID>  (1) 
ETS

>  <Target Name>  (1) 
Carbonic anhydrase 2

>  <UniProt ID>  (1) 
P00918

>  <PDB ID.1>  (1) 
1CIL

>  <Seq. Identity>  (1) 
100%

$$$$
