PDB_DB08954_04
     RDKit          3D

126130  0  0  0  0  0  0  0  0999 V2000
    6.1966    1.8590   -0.1317 C   0  0  0  0  0  0  0  0  0  0  0  0
   -0.5526   -1.1254   -0.2587 N   0  0  0  0  0  0  0  0  0  0  0  0
   -3.0376   -1.5801    1.3414 O   0  0  0  0  0  0  0  0  0  0  0  0
   -6.3806    0.1893    0.0454 C   0  0  0  0  0  0  0  0  0  0  0  0
   -6.6849    2.4599   -0.6901 O   0  0  0  0  0  0  0  0  0  0  0  0
   -5.4159    2.1102    1.3362 C   0  0  0  0  0  0  0  0  0  0  0  0
    4.4900   -0.1636   -0.4499 C   0  0  0  0  0  0  0  0  0  0  0  0
    5.9726   -0.5403   -0.7445 C   0  0  0  0  0  0  0  0  0  0  0  0
    6.7514    0.7354   -1.0021 C   0  0  0  0  0  0  0  0  0  0  0  0
    3.6912   -1.3845   -0.5853 C   0  0  0  0  0  0  0  0  0  0  0  0
    2.2396   -1.4075   -0.4192 C   0  0  0  0  0  0  0  0  0  0  0  0
    1.5821   -1.0452    0.8376 C   0  0  0  0  0  0  0  0  0  0  0  0
    5.7786    1.2466    1.1666 C   0  0  0  0  0  0  0  0  0  0  0  0
    4.4872    0.4578    0.9205 C   0  0  0  0  0  0  0  0  0  0  0  0
    0.2429   -0.3063    0.6262 C   0  0  0  0  0  0  0  0  0  0  0  0
    0.1106   -1.2061   -1.5727 C   0  0  0  0  0  0  0  0  0  0  0  0
    1.5116   -0.6388   -1.5294 C   0  0  0  0  0  0  0  0  0  0  0  0
   -1.8572   -0.5620   -0.5227 C   0  0  2  0  0  0  0  0  0  0  0  0
   -2.7136   -0.4075    0.6786 C   0  0  1  0  0  0  0  0  0  0  0  0
   -3.9168    0.4349    0.3823 C   0  0  0  0  0  0  0  0  0  0  0  0
   -4.9807   -0.1643   -0.4522 C   0  0  0  0  0  0  0  0  0  0  0  0
   -6.5124    1.6345    0.4169 C   0  0  0  0  0  0  0  0  0  0  0  0
   -4.5770    0.9028    1.6954 C   0  0  0  0  0  0  0  0  0  0  0  0
   -2.5292   -1.5873   -1.4528 C   0  0  0  0  0  0  0  0  0  0  0  0
    6.1966    1.8590   -0.1317 C   0  0  0  0  0  0  0  0  0  0  0  0
   -0.5526   -1.1254   -0.2587 N   0  0  0  0  0  0  0  0  0  0  0  0
   -3.0376   -1.5801    1.3414 O   0  0  0  0  0  0  0  0  0  0  0  0
   -6.3806    0.1893    0.0454 C   0  0  0  0  0  0  0  0  0  0  0  0
   -6.6849    2.4599   -0.6901 O   0  0  0  0  0  0  0  0  0  0  0  0
   -5.4159    2.1102    1.3362 C   0  0  0  0  0  0  0  0  0  0  0  0
    4.4900   -0.1636   -0.4499 C   0  0  0  0  0  0  0  0  0  0  0  0
    5.9726   -0.5403   -0.7445 C   0  0  0  0  0  0  0  0  0  0  0  0
    6.7514    0.7354   -1.0021 C   0  0  0  0  0  0  0  0  0  0  0  0
    3.6912   -1.3845   -0.5853 C   0  0  0  0  0  0  0  0  0  0  0  0
    2.2396   -1.4075   -0.4192 C   0  0  0  0  0  0  0  0  0  0  0  0
    1.5821   -1.0452    0.8376 C   0  0  0  0  0  0  0  0  0  0  0  0
    5.7786    1.2466    1.1666 C   0  0  0  0  0  0  0  0  0  0  0  0
    4.4872    0.4578    0.9205 C   0  0  0  0  0  0  0  0  0  0  0  0
    0.2429   -0.3063    0.6262 C   0  0  0  0  0  0  0  0  0  0  0  0
    0.1106   -1.2061   -1.5727 C   0  0  0  0  0  0  0  0  0  0  0  0
    1.5116   -0.6388   -1.5294 C   0  0  0  0  0  0  0  0  0  0  0  0
   -1.8572   -0.5620   -0.5227 C   0  0  2  0  0  0  0  0  0  0  0  0
   -2.7136   -0.4075    0.6786 C   0  0  1  0  0  0  0  0  0  0  0  0
   -3.9168    0.4349    0.3823 C   0  0  0  0  0  0  0  0  0  0  0  0
   -4.9807   -0.1643   -0.4522 C   0  0  0  0  0  0  0  0  0  0  0  0
   -6.5124    1.6345    0.4169 C   0  0  0  0  0  0  0  0  0  0  0  0
   -4.5770    0.9028    1.6954 C   0  0  0  0  0  0  0  0  0  0  0  0
   -2.5292   -1.5873   -1.4528 C   0  0  0  0  0  0  0  0  0  0  0  0
    6.9911    2.6183    0.1032 H   0  0  0  0  0  0  0  0  0  0  0  0
    5.3196    2.3008   -0.6348 H   0  0  0  0  0  0  0  0  0  0  0  0
   -2.2594   -2.1795    1.3682 H   0  0  0  0  0  0  0  0  0  0  0  0
   -6.7148   -0.5137    0.8195 H   0  0  0  0  0  0  0  0  0  0  0  0
   -7.0729    0.0195   -0.8306 H   0  0  0  0  0  0  0  0  0  0  0  0
   -5.8222    2.6414   -1.1423 H   0  0  0  0  0  0  0  0  0  0  0  0
   -4.7765    2.8019    0.7421 H   0  0  0  0  0  0  0  0  0  0  0  0
   -5.8114    2.6192    2.2398 H   0  0  0  0  0  0  0  0  0  0  0  0
    4.2755    0.6337   -1.1773 H   0  0  0  0  0  0  0  0  0  0  0  0
    5.9638   -1.1224   -1.6763 H   0  0  0  0  0  0  0  0  0  0  0  0
    6.3738   -1.1444    0.0681 H   0  0  0  0  0  0  0  0  0  0  0  0
    7.7893    0.5590   -0.6748 H   0  0  0  0  0  0  0  0  0  0  0  0
    6.6505    0.9910   -2.0756 H   0  0  0  0  0  0  0  0  0  0  0  0
    4.1167   -2.1917    0.1151 H   0  0  0  0  0  0  0  0  0  0  0  0
    3.9363   -1.8665   -1.5990 H   0  0  0  0  0  0  0  0  0  0  0  0
    1.9197   -2.4919   -0.6413 H   0  0  0  0  0  0  0  0  0  0  0  0
    1.2534   -1.9878    1.4107 H   0  0  0  0  0  0  0  0  0  0  0  0
    2.1990   -0.5206    1.5546 H   0  0  0  0  0  0  0  0  0  0  0  0
    5.5653    1.9981    1.9238 H   0  0  0  0  0  0  0  0  0  0  0  0
    6.5405    0.4964    1.4836 H   0  0  0  0  0  0  0  0  0  0  0  0
    4.4518   -0.3264    1.7246 H   0  0  0  0  0  0  0  0  0  0  0  0
    3.6612    1.1618    1.1004 H   0  0  0  0  0  0  0  0  0  0  0  0
   -0.2254   -0.3150    1.6292 H   0  0  0  0  0  0  0  0  0  0  0  0
    0.3679    0.7282    0.3323 H   0  0  0  0  0  0  0  0  0  0  0  0
   -0.4215   -0.6206   -2.3468 H   0  0  0  0  0  0  0  0  0  0  0  0
    0.2328   -2.2810   -1.8244 H   0  0  0  0  0  0  0  0  0  0  0  0
    1.4456    0.4316   -1.3422 H   0  0  0  0  0  0  0  0  0  0  0  0
    1.9655   -0.8354   -2.5069 H   0  0  0  0  0  0  0  0  0  0  0  0
   -1.7570    0.3673   -1.0818 H   0  0  0  0  0  0  0  0  0  0  0  0
   -2.1752    0.2000    1.4845 H   0  0  0  0  0  0  0  0  0  0  0  0
   -3.5244    1.4077   -0.0540 H   0  0  0  0  0  0  0  0  0  0  0  0
   -4.9327    0.3305   -1.4676 H   0  0  0  0  0  0  0  0  0  0  0  0
   -4.9780   -1.2390   -0.5946 H   0  0  0  0  0  0  0  0  0  0  0  0
   -7.4684    1.7199    1.0051 H   0  0  0  0  0  0  0  0  0  0  0  0
   -3.8040    1.2072    2.4263 H   0  0  0  0  0  0  0  0  0  0  0  0
   -5.2540    0.1252    2.0904 H   0  0  0  0  0  0  0  0  0  0  0  0
   -1.7535   -2.1066   -2.0958 H   0  0  0  0  0  0  0  0  0  0  0  0
   -2.9696   -2.4238   -0.8688 H   0  0  0  0  0  0  0  0  0  0  0  0
   -3.1941   -1.1038   -2.1679 H   0  0  0  0  0  0  0  0  0  0  0  0
    6.9911    2.6183    0.1032 H   0  0  0  0  0  0  0  0  0  0  0  0
    5.3196    2.3008   -0.6348 H   0  0  0  0  0  0  0  0  0  0  0  0
   -2.2594   -2.1795    1.3682 H   0  0  0  0  0  0  0  0  0  0  0  0
   -6.7148   -0.5137    0.8195 H   0  0  0  0  0  0  0  0  0  0  0  0
   -7.0729    0.0195   -0.8306 H   0  0  0  0  0  0  0  0  0  0  0  0
   -5.8222    2.6414   -1.1423 H   0  0  0  0  0  0  0  0  0  0  0  0
   -4.7765    2.8019    0.7421 H   0  0  0  0  0  0  0  0  0  0  0  0
   -5.8114    2.6192    2.2398 H   0  0  0  0  0  0  0  0  0  0  0  0
    4.2755    0.6337   -1.1773 H   0  0  0  0  0  0  0  0  0  0  0  0
    5.9638   -1.1224   -1.6763 H   0  0  0  0  0  0  0  0  0  0  0  0
    6.3738   -1.1444    0.0681 H   0  0  0  0  0  0  0  0  0  0  0  0
    7.7893    0.5590   -0.6748 H   0  0  0  0  0  0  0  0  0  0  0  0
    6.6505    0.9910   -2.0756 H   0  0  0  0  0  0  0  0  0  0  0  0
    4.1167   -2.1917    0.1151 H   0  0  0  0  0  0  0  0  0  0  0  0
    3.9363   -1.8665   -1.5990 H   0  0  0  0  0  0  0  0  0  0  0  0
    1.9197   -2.4919   -0.6413 H   0  0  0  0  0  0  0  0  0  0  0  0
    1.2534   -1.9878    1.4107 H   0  0  0  0  0  0  0  0  0  0  0  0
    2.1990   -0.5206    1.5546 H   0  0  0  0  0  0  0  0  0  0  0  0
    5.5653    1.9981    1.9238 H   0  0  0  0  0  0  0  0  0  0  0  0
    6.5405    0.4964    1.4836 H   0  0  0  0  0  0  0  0  0  0  0  0
    4.4518   -0.3264    1.7246 H   0  0  0  0  0  0  0  0  0  0  0  0
    3.6612    1.1618    1.1004 H   0  0  0  0  0  0  0  0  0  0  0  0
   -0.2254   -0.3150    1.6292 H   0  0  0  0  0  0  0  0  0  0  0  0
    0.3679    0.7282    0.3323 H   0  0  0  0  0  0  0  0  0  0  0  0
   -0.4215   -0.6206   -2.3468 H   0  0  0  0  0  0  0  0  0  0  0  0
    0.2328   -2.2810   -1.8244 H   0  0  0  0  0  0  0  0  0  0  0  0
    1.4456    0.4316   -1.3422 H   0  0  0  0  0  0  0  0  0  0  0  0
    1.9655   -0.8354   -2.5069 H   0  0  0  0  0  0  0  0  0  0  0  0
   -1.7570    0.3673   -1.0818 H   0  0  0  0  0  0  0  0  0  0  0  0
   -2.1752    0.2000    1.4845 H   0  0  0  0  0  0  0  0  0  0  0  0
   -3.5244    1.4077   -0.0540 H   0  0  0  0  0  0  0  0  0  0  0  0
   -4.9327    0.3305   -1.4676 H   0  0  0  0  0  0  0  0  0  0  0  0
   -4.9780   -1.2390   -0.5946 H   0  0  0  0  0  0  0  0  0  0  0  0
   -7.4684    1.7199    1.0051 H   0  0  0  0  0  0  0  0  0  0  0  0
   -3.8040    1.2072    2.4263 H   0  0  0  0  0  0  0  0  0  0  0  0
   -5.2540    0.1252    2.0904 H   0  0  0  0  0  0  0  0  0  0  0  0
   -1.7535   -2.1066   -2.0958 H   0  0  0  0  0  0  0  0  0  0  0  0
   -2.9696   -2.4238   -0.8688 H   0  0  0  0  0  0  0  0  0  0  0  0
   -3.1941   -1.1038   -2.1679 H   0  0  0  0  0  0  0  0  0  0  0  0
  7  8  1  0
  1  9  1  0
  8  9  1  0
  7 10  1  0
 10 11  1  0
 11 12  1  0
  1 13  1  0
  7 14  1  0
 13 14  1  0
  2 15  1  0
 12 15  1  0
  2 16  1  0
 11 17  1  0
 16 17  1  0
  2 18  1  0
  3 19  1  0
 18 19  1  0
 19 20  1  0
  4 21  1  0
 20 21  1  0
  4 22  1  0
  5 22  1  0
  6 22  1  0
  6 23  1  0
 20 23  1  0
 18 24  1  0
 31 32  1  0
 25 33  1  0
 32 33  1  0
 31 34  1  0
 34 35  1  0
 35 36  1  0
 25 37  1  0
 31 38  1  0
 37 38  1  0
 26 39  1  0
 36 39  1  0
 26 40  1  0
 35 41  1  0
 40 41  1  0
 26 42  1  0
 27 43  1  0
 42 43  1  0
 43 44  1  0
 28 45  1  0
 44 45  1  0
 28 46  1  0
 29 46  1  0
 30 46  1  0
 30 47  1  0
 44 47  1  0
 42 48  1  0
  1 49  1  0
  1 50  1  0
  3 51  1  0
  4 52  1  0
  4 53  1  0
  5 54  1  0
  6 55  1  0
  6 56  1  0
  7 57  1  0
  8 58  1  0
  8 59  1  0
  9 60  1  0
  9 61  1  0
 10 62  1  0
 10 63  1  0
 11 64  1  0
 12 65  1  0
 12 66  1  0
 13 67  1  0
 13 68  1  0
 14 69  1  0
 14 70  1  0
 15 71  1  0
 15 72  1  0
 16 73  1  0
 16 74  1  0
 17 75  1  0
 17 76  1  0
 18 77  1  6
 19 78  1  1
 20 79  1  0
 21 80  1  0
 21 81  1  0
 22 82  1  0
 23 83  1  0
 23 84  1  0
 24 85  1  0
 24 86  1  0
 24 87  1  0
 25 88  1  0
 25 89  1  0
 27 90  1  0
 28 91  1  0
 28 92  1  0
 29 93  1  0
 30 94  1  0
 30 95  1  0
 31 96  1  0
 32 97  1  0
 32 98  1  0
 33 99  1  0
 33100  1  0
 34101  1  0
 34102  1  0
 35103  1  0
 36104  1  0
 36105  1  0
 37106  1  0
 37107  1  0
 38108  1  0
 38109  1  0
 39110  1  0
 39111  1  0
 40112  1  0
 40113  1  0
 41114  1  0
 41115  1  0
 42116  1  6
 43117  1  1
 44118  1  0
 45119  1  0
 45120  1  0
 46121  1  0
 47122  1  0
 47123  1  0
 48124  1  0
 48125  1  0
 48126  1  0
M  END
>  <PDBID>  (1) 
4PE5

>  <PDB ID>  (1) 
4PE5

>  <Generic Name>  (1) 
Ifenprodil

>  <Brand Name>  (1) 
Cerocral#Furezanil#Iburonol#Linbulane#Technis#Vadilex#Vasculodil#Youajyl

>  <DrugBank ID>  (1) 
DB08954

>  <ATC Codes>  (1) 
C04AX28

>  <Ligand ID>  (1) 
QEL

>  <Target Name>  (1) 
Glutamate receptor ionotropic, NMDA 1

>  <UniProt ID>  (1) 
Q05586

>  <PDB ID.1>  (1) 
4PE5

>  <Seq. Identity>  (1) 
98%

$$$$
