PDB_DB00212_04
     RDKit          3D

220226  0  0  0  0  0  0  0  0999 V2000
   -3.5059   -2.5705    3.5771 O   0  0  0  0  0  0  0  0  0  0  0  0
   -3.5725   -2.1386    1.7868 S   0  0  0  0  0  0  0  0  0  0  0  0
   -2.8802   -3.2873    1.1054 O   0  0  0  0  0  0  0  0  0  0  0  0
   -5.2628   -2.1083    1.6788 C   0  0  0  0  0  0  0  0  0  0  0  0
   -5.8353   -1.8581    0.3252 C   0  0  0  0  0  0  0  0  0  0  0  0
   -5.8461   -3.4582    2.1715 C   0  0  0  0  0  0  0  0  0  0  0  0
   -5.8040   -1.0967    2.7022 C   0  0  0  0  0  0  0  0  0  0  0  0
   -2.8036   -0.6407    1.8180 C   0  0  0  0  0  0  0  0  0  0  0  0
   -2.5406    0.0661    0.5529 C   0  0  1  0  0  0  0  0  0  0  0  0
   -3.5014    0.5533   -0.3871 C   0  0  0  0  0  0  0  0  0  0  0  0
   -4.5484    1.5500   -0.0859 C   0  0  0  0  0  0  0  0  0  0  0  0
   -5.3285    1.7052   -1.4221 C   0  0  0  0  0  0  0  0  0  0  0  0
   -6.4438    2.6754   -1.2960 C   0  0  0  0  0  0  0  0  0  0  0  0
   -5.9775    4.0583   -0.8909 C   0  0  0  0  0  0  0  0  0  0  0  0
   -5.0232    4.0071    0.2600 C   0  0  0  0  0  0  0  0  0  0  0  0
   -3.9502    2.9439    0.1153 C   0  0  0  0  0  0  0  0  0  0  0  0
   -1.1906    0.8360    0.6576 C   0  0  0  0  0  0  0  0  0  0  0  0
   -1.2426    1.6514    1.7616 O   0  0  0  0  0  0  0  0  0  0  0  0
   -0.0356    0.1350    0.5034 N   0  0  0  0  0  0  0  0  0  0  0  0
    0.5949   -0.2401   -0.7134 C   0  0  1  0  0  0  0  0  0  0  0  0
   -0.1302   -0.9752   -1.7376 C   0  0  0  0  0  0  0  0  0  0  0  0
    0.4172   -1.4212   -2.9947 C   0  0  0  0  0  0  0  0  0  0  0  0
    0.9779   -0.5170   -4.0201 C   0  0  0  0  0  0  0  0  0  0  0  0
    0.9713   -1.5202   -5.1423 N   0  0  0  0  0  0  0  0  0  0  0  0
    1.4903   -2.7074   -4.4807 C   0  0  0  0  0  0  0  0  0  0  0  0
    1.3789   -2.4926   -3.0297 N   0  0  0  0  0  0  0  0  0  0  0  0
    1.3405    0.9650   -1.2141 C   0  0  0  0  0  0  0  0  0  0  0  0
    0.4208    1.9757   -1.4689 O   0  0  0  0  0  0  0  0  0  0  0  0
    2.2090    1.5205   -0.1707 N   0  0  0  0  0  0  0  0  0  0  0  0
    3.2640    0.5935    0.2414 C   0  0  2  0  0  0  0  0  0  0  0  0
    4.0551    1.2403    1.3496 C   0  0  1  0  0  0  0  0  0  0  0  0
    5.0828    0.4486    1.8364 O   0  0  0  0  0  0  0  0  0  0  0  0
    4.4595    2.6521    1.1332 C   0  0  2  0  0  0  0  0  0  0  0  0
    4.7347    3.2989    2.4942 C   0  0  0  0  0  0  0  0  0  0  0  0
    3.6002    3.3604    3.4813 C   0  0  0  0  0  0  0  0  0  0  0  0
    4.8518    2.5303    3.7261 C   0  0  0  0  0  0  0  0  0  0  0  0
    3.3406    3.3313    0.6110 O   0  0  0  0  0  0  0  0  0  0  0  0
    4.0463    0.0945   -0.9018 C   0  0  0  0  0  0  0  0  0  0  0  0
    5.1066   -0.8953   -0.4795 C   0  0  0  0  0  0  0  0  0  0  0  0
    4.5069   -2.1002    0.2108 C   0  0  0  0  0  0  0  0  0  0  0  0
    5.6140   -3.0197    0.6159 C   0  0  0  0  0  0  0  0  0  0  0  0
    6.9334   -2.6981    0.0030 C   0  0  0  0  0  0  0  0  0  0  0  0
    6.8411   -2.3470   -1.4595 C   0  0  0  0  0  0  0  0  0  0  0  0
    5.6734   -1.4991   -1.8014 C   0  0  0  0  0  0  0  0  0  0  0  0
   -3.5059   -2.5705    3.5771 O   0  0  0  0  0  0  0  0  0  0  0  0
   -3.5725   -2.1386    1.7868 S   0  0  0  0  0  0  0  0  0  0  0  0
   -2.8802   -3.2873    1.1054 O   0  0  0  0  0  0  0  0  0  0  0  0
   -5.2628   -2.1083    1.6788 C   0  0  0  0  0  0  0  0  0  0  0  0
   -5.8353   -1.8581    0.3252 C   0  0  0  0  0  0  0  0  0  0  0  0
   -5.8461   -3.4582    2.1715 C   0  0  0  0  0  0  0  0  0  0  0  0
   -5.8040   -1.0967    2.7022 C   0  0  0  0  0  0  0  0  0  0  0  0
   -2.8036   -0.6407    1.8180 C   0  0  0  0  0  0  0  0  0  0  0  0
   -2.5406    0.0661    0.5529 C   0  0  1  0  0  0  0  0  0  0  0  0
   -3.5014    0.5533   -0.3871 C   0  0  0  0  0  0  0  0  0  0  0  0
   -4.5484    1.5500   -0.0859 C   0  0  0  0  0  0  0  0  0  0  0  0
   -5.3285    1.7052   -1.4221 C   0  0  0  0  0  0  0  0  0  0  0  0
   -6.4438    2.6754   -1.2960 C   0  0  0  0  0  0  0  0  0  0  0  0
   -5.9775    4.0583   -0.8909 C   0  0  0  0  0  0  0  0  0  0  0  0
   -5.0232    4.0071    0.2600 C   0  0  0  0  0  0  0  0  0  0  0  0
   -3.9502    2.9439    0.1153 C   0  0  0  0  0  0  0  0  0  0  0  0
   -1.1906    0.8360    0.6576 C   0  0  0  0  0  0  0  0  0  0  0  0
   -1.2426    1.6514    1.7616 O   0  0  0  0  0  0  0  0  0  0  0  0
   -0.0356    0.1350    0.5034 N   0  0  0  0  0  0  0  0  0  0  0  0
    0.5949   -0.2401   -0.7134 C   0  0  1  0  0  0  0  0  0  0  0  0
   -0.1302   -0.9752   -1.7376 C   0  0  0  0  0  0  0  0  0  0  0  0
    0.4172   -1.4212   -2.9947 C   0  0  0  0  0  0  0  0  0  0  0  0
    0.9779   -0.5170   -4.0201 C   0  0  0  0  0  0  0  0  0  0  0  0
    0.9713   -1.5202   -5.1423 N   0  0  0  0  0  0  0  0  0  0  0  0
    1.4903   -2.7074   -4.4807 C   0  0  0  0  0  0  0  0  0  0  0  0
    1.3789   -2.4926   -3.0297 N   0  0  0  0  0  0  0  0  0  0  0  0
    1.3405    0.9650   -1.2141 C   0  0  0  0  0  0  0  0  0  0  0  0
    0.4208    1.9757   -1.4689 O   0  0  0  0  0  0  0  0  0  0  0  0
    2.2090    1.5205   -0.1707 N   0  0  0  0  0  0  0  0  0  0  0  0
    3.2640    0.5935    0.2414 C   0  0  2  0  0  0  0  0  0  0  0  0
    4.0551    1.2403    1.3496 C   0  0  1  0  0  0  0  0  0  0  0  0
    5.0828    0.4486    1.8364 O   0  0  0  0  0  0  0  0  0  0  0  0
    4.4595    2.6521    1.1332 C   0  0  2  0  0  0  0  0  0  0  0  0
    4.7347    3.2989    2.4942 C   0  0  0  0  0  0  0  0  0  0  0  0
    3.6002    3.3604    3.4813 C   0  0  0  0  0  0  0  0  0  0  0  0
    4.8518    2.5303    3.7261 C   0  0  0  0  0  0  0  0  0  0  0  0
    3.3406    3.3313    0.6110 O   0  0  0  0  0  0  0  0  0  0  0  0
    4.0463    0.0945   -0.9018 C   0  0  0  0  0  0  0  0  0  0  0  0
    5.1066   -0.8953   -0.4795 C   0  0  0  0  0  0  0  0  0  0  0  0
    4.5069   -2.1002    0.2108 C   0  0  0  0  0  0  0  0  0  0  0  0
    5.6140   -3.0197    0.6159 C   0  0  0  0  0  0  0  0  0  0  0  0
    6.9334   -2.6981    0.0030 C   0  0  0  0  0  0  0  0  0  0  0  0
    6.8411   -2.3470   -1.4595 C   0  0  0  0  0  0  0  0  0  0  0  0
    5.6734   -1.4991   -1.8014 C   0  0  0  0  0  0  0  0  0  0  0  0
   -3.3615   -3.5286    3.5576 H   0  0  0  0  0  0  0  0  0  0  0  0
   -3.3780   -4.1005    0.8670 H   0  0  0  0  0  0  0  0  0  0  0  0
   -5.1146   -2.2034   -0.4737 H   0  0  0  0  0  0  0  0  0  0  0  0
   -6.1268   -0.8262    0.1601 H   0  0  0  0  0  0  0  0  0  0  0  0
   -6.7454   -2.5089    0.2031 H   0  0  0  0  0  0  0  0  0  0  0  0
   -6.8995   -3.2390    2.4207 H   0  0  0  0  0  0  0  0  0  0  0  0
   -5.3410   -3.7648    3.1053 H   0  0  0  0  0  0  0  0  0  0  0  0
   -5.7495   -4.2272    1.3822 H   0  0  0  0  0  0  0  0  0  0  0  0
   -5.4716   -1.4785    3.6961 H   0  0  0  0  0  0  0  0  0  0  0  0
   -5.3788   -0.1035    2.5211 H   0  0  0  0  0  0  0  0  0  0  0  0
   -6.9125   -1.1242    2.7096 H   0  0  0  0  0  0  0  0  0  0  0  0
   -3.2668    0.0767    2.5989 H   0  0  0  0  0  0  0  0  0  0  0  0
   -1.7700   -0.7773    2.3071 H   0  0  0  0  0  0  0  0  0  0  0  0
   -2.0940   -0.8899   -0.0652 H   0  0  0  0  0  0  0  0  0  0  0  0
   -3.9725   -0.2388   -1.0294 H   0  0  0  0  0  0  0  0  0  0  0  0
   -2.8632    1.0925   -1.2233 H   0  0  0  0  0  0  0  0  0  0  0  0
   -5.3033    1.3152    0.6470 H   0  0  0  0  0  0  0  0  0  0  0  0
   -5.7704    0.7033   -1.6085 H   0  0  0  0  0  0  0  0  0  0  0  0
   -4.6401    1.9177   -2.2589 H   0  0  0  0  0  0  0  0  0  0  0  0
   -7.2553    2.2966   -0.6695 H   0  0  0  0  0  0  0  0  0  0  0  0
   -6.8794    2.8034   -2.3252 H   0  0  0  0  0  0  0  0  0  0  0  0
   -5.5735    4.5970   -1.7652 H   0  0  0  0  0  0  0  0  0  0  0  0
   -6.8677    4.6305   -0.5590 H   0  0  0  0  0  0  0  0  0  0  0  0
   -5.5195    3.8407    1.2301 H   0  0  0  0  0  0  0  0  0  0  0  0
   -4.5061    4.9792    0.3409 H   0  0  0  0  0  0  0  0  0  0  0  0
   -3.2480    3.1225   -0.7018 H   0  0  0  0  0  0  0  0  0  0  0  0
   -3.3997    2.9746    1.0712 H   0  0  0  0  0  0  0  0  0  0  0  0
   -1.3464    1.6019   -0.2277 H   0  0  0  0  0  0  0  0  0  0  0  0
   -0.8666    1.2074    2.5781 H   0  0  0  0  0  0  0  0  0  0  0  0
    0.1737   -0.4678    1.3347 H   0  0  0  0  0  0  0  0  0  0  0  0
    1.3940   -1.0080   -0.3144 H   0  0  0  0  0  0  0  0  0  0  0  0
   -0.5374   -1.9245   -1.2329 H   0  0  0  0  0  0  0  0  0  0  0  0
   -1.0783   -0.3842   -1.9883 H   0  0  0  0  0  0  0  0  0  0  0  0
   -0.4918   -1.9127   -3.5479 H   0  0  0  0  0  0  0  0  0  0  0  0
    2.0970   -0.3447   -3.9504 H   0  0  0  0  0  0  0  0  0  0  0  0
    0.4067    0.3668   -4.2826 H   0  0  0  0  0  0  0  0  0  0  0  0
    1.5748   -1.1855   -5.9025 H   0  0  0  0  0  0  0  0  0  0  0  0
    2.5505   -2.7892   -4.7976 H   0  0  0  0  0  0  0  0  0  0  0  0
    0.9190   -3.5951   -4.7883 H   0  0  0  0  0  0  0  0  0  0  0  0
    2.3192   -2.2806   -2.7035 H   0  0  0  0  0  0  0  0  0  0  0  0
    1.9528    0.8522   -2.0841 H   0  0  0  0  0  0  0  0  0  0  0  0
    0.6207    2.8326   -1.0606 H   0  0  0  0  0  0  0  0  0  0  0  0
    1.6130    1.7856    0.6625 H   0  0  0  0  0  0  0  0  0  0  0  0
    2.7413   -0.2476    0.7313 H   0  0  0  0  0  0  0  0  0  0  0  0
    3.3119    1.2806    2.2250 H   0  0  0  0  0  0  0  0  0  0  0  0
    5.9427    0.9366    1.9180 H   0  0  0  0  0  0  0  0  0  0  0  0
    5.3538    2.8139    0.5360 H   0  0  0  0  0  0  0  0  0  0  0  0
    5.3213    4.2646    2.4672 H   0  0  0  0  0  0  0  0  0  0  0  0
    3.4946    4.2580    4.1272 H   0  0  0  0  0  0  0  0  0  0  0  0
    2.6503    2.8403    3.3154 H   0  0  0  0  0  0  0  0  0  0  0  0
    5.5617    2.9115    4.5209 H   0  0  0  0  0  0  0  0  0  0  0  0
    4.6836    1.4519    3.8526 H   0  0  0  0  0  0  0  0  0  0  0  0
    3.5593    3.8302   -0.2125 H   0  0  0  0  0  0  0  0  0  0  0  0
    3.3977   -0.4788   -1.5963 H   0  0  0  0  0  0  0  0  0  0  0  0
    4.4819    0.9003   -1.5426 H   0  0  0  0  0  0  0  0  0  0  0  0
    5.9721   -0.4894    0.0269 H   0  0  0  0  0  0  0  0  0  0  0  0
    3.8231   -2.5675   -0.5517 H   0  0  0  0  0  0  0  0  0  0  0  0
    3.8721   -1.8711    1.0690 H   0  0  0  0  0  0  0  0  0  0  0  0
    5.2904   -4.0680    0.4284 H   0  0  0  0  0  0  0  0  0  0  0  0
    5.7314   -2.9489    1.7295 H   0  0  0  0  0  0  0  0  0  0  0  0
    7.5569   -3.6386    0.0453 H   0  0  0  0  0  0  0  0  0  0  0  0
    7.5221   -1.9518    0.5531 H   0  0  0  0  0  0  0  0  0  0  0  0
    7.7714   -1.8082   -1.7256 H   0  0  0  0  0  0  0  0  0  0  0  0
    6.8587   -3.2916   -2.0755 H   0  0  0  0  0  0  0  0  0  0  0  0
    5.8711   -0.6845   -2.5191 H   0  0  0  0  0  0  0  0  0  0  0  0
    4.8499   -2.1365   -2.1777 H   0  0  0  0  0  0  0  0  0  0  0  0
   -3.3615   -3.5286    3.5576 H   0  0  0  0  0  0  0  0  0  0  0  0
   -3.3780   -4.1005    0.8670 H   0  0  0  0  0  0  0  0  0  0  0  0
   -5.1146   -2.2034   -0.4737 H   0  0  0  0  0  0  0  0  0  0  0  0
   -6.1268   -0.8262    0.1601 H   0  0  0  0  0  0  0  0  0  0  0  0
   -6.7454   -2.5089    0.2031 H   0  0  0  0  0  0  0  0  0  0  0  0
   -6.8995   -3.2390    2.4207 H   0  0  0  0  0  0  0  0  0  0  0  0
   -5.3410   -3.7648    3.1053 H   0  0  0  0  0  0  0  0  0  0  0  0
   -5.7495   -4.2272    1.3822 H   0  0  0  0  0  0  0  0  0  0  0  0
   -5.4716   -1.4785    3.6961 H   0  0  0  0  0  0  0  0  0  0  0  0
   -5.3788   -0.1035    2.5211 H   0  0  0  0  0  0  0  0  0  0  0  0
   -6.9125   -1.1242    2.7096 H   0  0  0  0  0  0  0  0  0  0  0  0
   -3.2668    0.0767    2.5989 H   0  0  0  0  0  0  0  0  0  0  0  0
   -1.7700   -0.7773    2.3071 H   0  0  0  0  0  0  0  0  0  0  0  0
   -2.0940   -0.8899   -0.0652 H   0  0  0  0  0  0  0  0  0  0  0  0
   -3.9725   -0.2388   -1.0294 H   0  0  0  0  0  0  0  0  0  0  0  0
   -2.8632    1.0925   -1.2233 H   0  0  0  0  0  0  0  0  0  0  0  0
   -5.3033    1.3152    0.6470 H   0  0  0  0  0  0  0  0  0  0  0  0
   -5.7704    0.7033   -1.6085 H   0  0  0  0  0  0  0  0  0  0  0  0
   -4.6401    1.9177   -2.2589 H   0  0  0  0  0  0  0  0  0  0  0  0
   -7.2553    2.2966   -0.6695 H   0  0  0  0  0  0  0  0  0  0  0  0
   -6.8794    2.8034   -2.3252 H   0  0  0  0  0  0  0  0  0  0  0  0
   -5.5735    4.5970   -1.7652 H   0  0  0  0  0  0  0  0  0  0  0  0
   -6.8677    4.6305   -0.5590 H   0  0  0  0  0  0  0  0  0  0  0  0
   -5.5195    3.8407    1.2301 H   0  0  0  0  0  0  0  0  0  0  0  0
   -4.5061    4.9792    0.3409 H   0  0  0  0  0  0  0  0  0  0  0  0
   -3.2480    3.1225   -0.7018 H   0  0  0  0  0  0  0  0  0  0  0  0
   -3.3997    2.9746    1.0712 H   0  0  0  0  0  0  0  0  0  0  0  0
   -1.3464    1.6019   -0.2277 H   0  0  0  0  0  0  0  0  0  0  0  0
   -0.8666    1.2074    2.5781 H   0  0  0  0  0  0  0  0  0  0  0  0
    0.1737   -0.4678    1.3347 H   0  0  0  0  0  0  0  0  0  0  0  0
    1.3940   -1.0080   -0.3144 H   0  0  0  0  0  0  0  0  0  0  0  0
   -0.5374   -1.9245   -1.2329 H   0  0  0  0  0  0  0  0  0  0  0  0
   -1.0783   -0.3842   -1.9883 H   0  0  0  0  0  0  0  0  0  0  0  0
   -0.4918   -1.9127   -3.5479 H   0  0  0  0  0  0  0  0  0  0  0  0
    2.0970   -0.3447   -3.9504 H   0  0  0  0  0  0  0  0  0  0  0  0
    0.4067    0.3668   -4.2826 H   0  0  0  0  0  0  0  0  0  0  0  0
    1.5748   -1.1855   -5.9025 H   0  0  0  0  0  0  0  0  0  0  0  0
    2.5505   -2.7892   -4.7976 H   0  0  0  0  0  0  0  0  0  0  0  0
    0.9190   -3.5951   -4.7883 H   0  0  0  0  0  0  0  0  0  0  0  0
    2.3192   -2.2806   -2.7035 H   0  0  0  0  0  0  0  0  0  0  0  0
    1.9528    0.8522   -2.0841 H   0  0  0  0  0  0  0  0  0  0  0  0
    0.6207    2.8326   -1.0606 H   0  0  0  0  0  0  0  0  0  0  0  0
    1.6130    1.7856    0.6625 H   0  0  0  0  0  0  0  0  0  0  0  0
    2.7413   -0.2476    0.7313 H   0  0  0  0  0  0  0  0  0  0  0  0
    3.3119    1.2806    2.2250 H   0  0  0  0  0  0  0  0  0  0  0  0
    5.9427    0.9366    1.9180 H   0  0  0  0  0  0  0  0  0  0  0  0
    5.3538    2.8139    0.5360 H   0  0  0  0  0  0  0  0  0  0  0  0
    5.3213    4.2646    2.4672 H   0  0  0  0  0  0  0  0  0  0  0  0
    3.4946    4.2580    4.1272 H   0  0  0  0  0  0  0  0  0  0  0  0
    2.6503    2.8403    3.3154 H   0  0  0  0  0  0  0  0  0  0  0  0
    5.5617    2.9115    4.5209 H   0  0  0  0  0  0  0  0  0  0  0  0
    4.6836    1.4519    3.8526 H   0  0  0  0  0  0  0  0  0  0  0  0
    3.5593    3.8302   -0.2125 H   0  0  0  0  0  0  0  0  0  0  0  0
    3.3977   -0.4788   -1.5963 H   0  0  0  0  0  0  0  0  0  0  0  0
    4.4819    0.9003   -1.5426 H   0  0  0  0  0  0  0  0  0  0  0  0
    5.9721   -0.4894    0.0269 H   0  0  0  0  0  0  0  0  0  0  0  0
    3.8231   -2.5675   -0.5517 H   0  0  0  0  0  0  0  0  0  0  0  0
    3.8721   -1.8711    1.0690 H   0  0  0  0  0  0  0  0  0  0  0  0
    5.2904   -4.0680    0.4284 H   0  0  0  0  0  0  0  0  0  0  0  0
    5.7314   -2.9489    1.7295 H   0  0  0  0  0  0  0  0  0  0  0  0
    7.5569   -3.6386    0.0453 H   0  0  0  0  0  0  0  0  0  0  0  0
    7.5221   -1.9518    0.5531 H   0  0  0  0  0  0  0  0  0  0  0  0
    7.7714   -1.8082   -1.7256 H   0  0  0  0  0  0  0  0  0  0  0  0
    6.8587   -3.2916   -2.0755 H   0  0  0  0  0  0  0  0  0  0  0  0
    5.8711   -0.6845   -2.5191 H   0  0  0  0  0  0  0  0  0  0  0  0
    4.8499   -2.1365   -2.1777 H   0  0  0  0  0  0  0  0  0  0  0  0
  2  1  1  0
  2  3  1  0
  2  4  1  0
  4  5  1  0
  4  6  1  0
  4  7  1  0
  2  8  1  0
  8  9  1  0
  9 10  1  0
 10 11  1  0
 11 12  1  0
 12 13  1  0
 13 14  1  0
 14 15  1  0
 11 16  1  0
 15 16  1  0
  9 17  1  0
 17 18  1  0
 17 19  1  0
 19 20  1  0
 20 21  1  0
 21 22  1  0
 22 23  1  0
 23 24  1  0
 24 25  1  0
 22 26  1  0
 25 26  1  0
 20 27  1  0
 27 28  1  0
 27 29  1  0
 29 30  1  0
 30 31  1  0
 31 32  1  0
 31 33  1  0
 33 34  1  0
 34 35  1  0
 34 36  1  0
 35 36  1  0
 33 37  1  0
 30 38  1  0
 38 39  1  0
 39 40  1  0
 40 41  1  0
 41 42  1  0
 42 43  1  0
 39 44  1  0
 43 44  1  0
 46 45  1  0
 46 47  1  0
 46 48  1  0
 48 49  1  0
 48 50  1  0
 48 51  1  0
 46 52  1  0
 52 53  1  0
 53 54  1  0
 54 55  1  0
 55 56  1  0
 56 57  1  0
 57 58  1  0
 58 59  1  0
 55 60  1  0
 59 60  1  0
 53 61  1  0
 61 62  1  0
 61 63  1  0
 63 64  1  0
 64 65  1  0
 65 66  1  0
 66 67  1  0
 67 68  1  0
 68 69  1  0
 66 70  1  0
 69 70  1  0
 64 71  1  0
 71 72  1  0
 71 73  1  0
 73 74  1  0
 74 75  1  0
 75 76  1  0
 75 77  1  0
 77 78  1  0
 78 79  1  0
 78 80  1  0
 79 80  1  0
 77 81  1  0
 74 82  1  0
 82 83  1  0
 83 84  1  0
 84 85  1  0
 85 86  1  0
 86 87  1  0
 83 88  1  0
 87 88  1  0
  1 89  1  0
  3 90  1  0
  5 91  1  0
  5 92  1  0
  5 93  1  0
  6 94  1  0
  6 95  1  0
  6 96  1  0
  7 97  1  0
  7 98  1  0
  7 99  1  0
  8100  1  0
  8101  1  0
  9102  1  6
 10103  1  0
 10104  1  0
 11105  1  0
 12106  1  0
 12107  1  0
 13108  1  0
 13109  1  0
 14110  1  0
 14111  1  0
 15112  1  0
 15113  1  0
 16114  1  0
 16115  1  0
 17116  1  0
 18117  1  0
 19118  1  0
 20119  1  1
 21120  1  0
 21121  1  0
 22122  1  0
 23123  1  0
 23124  1  0
 24125  1  0
 25126  1  0
 25127  1  0
 26128  1  0
 27129  1  0
 28130  1  0
 29131  1  0
 30132  1  1
 31133  1  1
 32134  1  0
 33135  1  6
 34136  1  0
 35137  1  0
 35138  1  0
 36139  1  0
 36140  1  0
 37141  1  0
 38142  1  0
 38143  1  0
 39144  1  0
 40145  1  0
 40146  1  0
 41147  1  0
 41148  1  0
 42149  1  0
 42150  1  0
 43151  1  0
 43152  1  0
 44153  1  0
 44154  1  0
 45155  1  0
 47156  1  0
 49157  1  0
 49158  1  0
 49159  1  0
 50160  1  0
 50161  1  0
 50162  1  0
 51163  1  0
 51164  1  0
 51165  1  0
 52166  1  0
 52167  1  0
 53168  1  6
 54169  1  0
 54170  1  0
 55171  1  0
 56172  1  0
 56173  1  0
 57174  1  0
 57175  1  0
 58176  1  0
 58177  1  0
 59178  1  0
 59179  1  0
 60180  1  0
 60181  1  0
 61182  1  0
 62183  1  0
 63184  1  0
 64185  1  1
 65186  1  0
 65187  1  0
 66188  1  0
 67189  1  0
 67190  1  0
 68191  1  0
 69192  1  0
 69193  1  0
 70194  1  0
 71195  1  0
 72196  1  0
 73197  1  0
 74198  1  1
 75199  1  1
 76200  1  0
 77201  1  6
 78202  1  0
 79203  1  0
 79204  1  0
 80205  1  0
 80206  1  0
 81207  1  0
 82208  1  0
 82209  1  0
 83210  1  0
 84211  1  0
 84212  1  0
 85213  1  0
 85214  1  0
 86215  1  0
 86216  1  0
 87217  1  0
 87218  1  0
 88219  1  0
 88220  1  0
M  END
>  <PDBID>  (1) 
3D91

>  <PDB ID>  (1) 
3D91

>  <Generic Name>  (1) 
Remikiren

>  <Brand Name>  (1) 
nan

>  <DrugBank ID>  (1) 
DB00212

>  <ATC Codes>  (1) 
C09XA01

>  <Ligand ID>  (1) 
REM

>  <Target Name>  (1) 
Renin

>  <UniProt ID>  (1) 
P00797

>  <PDB ID.1>  (1) 
3D91

>  <Seq. Identity>  (1) 
100%

$$$$
