PDB_DB00884_01
     RDKit          3D

 38 38  0  0  0  0  0  0  0  0999 V2000
   -3.7690   -0.3516    0.8242 O   0  0  0  0  0  0  0  0  0  0  0  0
   -2.1747   -0.6646    0.8148 P   0  0  0  0  0  0  0  0  0  0  0  0
   -1.4965   -1.6581    2.0137 O   0  0  0  0  0  0  0  0  0  0  0  0
   -2.4376   -1.9541    0.0142 O   0  0  0  0  0  0  0  0  0  0  0  0
   -1.0649    0.1160   -0.2943 C   0  0  0  0  0  0  0  0  0  0  0  0
   -0.4473   -0.7168   -1.2705 O   0  0  0  0  0  0  0  0  0  0  0  0
   -1.8248    1.3936   -1.1047 P   0  0  0  0  0  0  0  0  0  0  0  0
   -2.1708    2.1179    0.3509 O   0  0  0  0  0  0  0  0  0  0  0  0
   -2.8772    0.3278   -1.7972 O   0  0  0  0  0  0  0  0  0  0  0  0
   -0.5062    1.8984   -1.9130 O   0  0  0  0  0  0  0  0  0  0  0  0
    0.1600    0.6759    0.4062 C   0  0  0  0  0  0  0  0  0  0  0  0
    1.0256   -0.2359    1.1554 C   0  0  1  0  0  0  0  0  0  0  0  0
    1.6630   -1.3661    0.4165 C   0  0  0  0  0  0  0  0  0  0  0  0
    2.7022   -0.9117   -0.5761 C   0  0  0  0  0  0  0  0  0  0  0  0
    3.7726   -0.1859    0.2287 C   0  0  0  0  0  0  0  0  0  0  0  0
    3.1539    0.9478    0.8351 N   0  0  0  0  0  0  0  0  0  0  0  0
    2.1419    0.6378    1.7960 C   0  0  0  0  0  0  0  0  0  0  0  0
   -1.0712   -1.0034   -1.9517 H   0  0  0  0  0  0  0  0  0  0  0  0
   -0.2471    1.4493    1.1065 H   0  0  0  0  0  0  0  0  0  0  0  0
    0.7516    1.3145   -0.3342 H   0  0  0  0  0  0  0  0  0  0  0  0
    2.2262   -2.0342    1.1394 H   0  0  0  0  0  0  0  0  0  0  0  0
    3.1709   -1.8005   -1.0125 H   0  0  0  0  0  0  0  0  0  0  0  0
    4.1166   -0.8753    1.0187 H   0  0  0  0  0  0  0  0  0  0  0  0
    1.6575    1.5398    2.1578 H   0  0  0  0  0  0  0  0  0  0  0  0
    2.9320    1.7247    0.2032 H   0  0  0  0  0  0  0  0  0  0  0  0
   -4.3080   -0.2757    1.5920 H   0  0  0  0  0  0  0  0  0  0  0  0
   -2.0140    0.2577    1.6853 H   0  0  0  0  0  0  0  0  0  0  0  0
   -2.2348   -1.9766    2.5480 H   0  0  0  0  0  0  0  0  0  0  0  0
   -2.6708   -1.8246   -0.9155 H   0  0  0  0  0  0  0  0  0  0  0  0
   -2.4713    2.3168   -1.6770 H   0  0  0  0  0  0  0  0  0  0  0  0
   -3.0832    2.1077    0.6323 H   0  0  0  0  0  0  0  0  0  0  0  0
   -3.7298    0.3530   -1.3679 H   0  0  0  0  0  0  0  0  0  0  0  0
    0.1198    1.2799   -2.2869 H   0  0  0  0  0  0  0  0  0  0  0  0
    0.5234   -0.6380    2.0522 H   0  0  0  0  0  0  0  0  0  0  0  0
    0.9469   -2.0065   -0.0973 H   0  0  0  0  0  0  0  0  0  0  0  0
    2.3101   -0.2076   -1.3198 H   0  0  0  0  0  0  0  0  0  0  0  0
    4.6216    0.1180   -0.3809 H   0  0  0  0  0  0  0  0  0  0  0  0
    2.6035    0.1108    2.6494 H   0  0  0  0  0  0  0  0  0  0  0  0
  1  2  1  0
  2  3  1  0
  2  4  1  0
  2  5  1  0
  5  6  1  0
  5  7  1  0
  7  8  1  0
  7  9  1  0
  7 10  1  0
  5 11  1  0
 11 12  1  0
 12 13  1  0
 13 14  1  0
 14 15  1  0
 15 16  1  0
 12 17  1  0
 16 17  1  0
 18  6  1  0
 11 19  1  0
 11 20  1  0
 13 21  1  0
 14 22  1  0
 15 23  1  0
 17 24  1  0
 25 16  1  0
  1 26  1  0
  2 27  1  0
  3 28  1  0
  4 29  1  0
  7 30  1  0
  8 31  1  0
  9 32  1  0
 10 33  1  0
 12 34  1  1
 13 35  1  0
 14 36  1  0
 15 37  1  0
 17 38  1  0
M  END
>  <PDBID>  (1) 
5CG5

>  <PDB ID>  (1) 
5CG5

>  <Generic Name>  (1) 
Risedronate

>  <Brand Name>  (1) 
Actonel#Actonel Dr#Actonel Plus Calcium#Actonel Sachet Kit#Apo-risedronate#Atelvia#Auro-risedronate#Dom-risedronate#Jamp-risedronate#Mylan-risedronate#Ntp-risedronate#PHL-risedronate#PMS-risedronate#PMS-risedronate Plus Calcium#Pendo-risedronate#Q-risedronate#Ratio-risedronate#Risedronate#Risedronate Sodium#Risedronate-35#Riva-risedronate#Sandoz Risedronate#Teva-risedronate#Benet

>  <DrugBank ID>  (1) 
DB00884

>  <ATC Codes>  (1) 
M05BB02#M05BA07#M05BB04#M05BB07

>  <Ligand ID>  (1) 
RIS

>  <Target Name>  (1) 
Farnesyl pyrophosphate synthase

>  <UniProt ID>  (1) 
P14324

>  <PDB ID.1>  (1) 
5CG5

>  <Seq. Identity>  (1) 
100%

$$$$
