PDB_DB00559_09
     RDKit          3D

 94 97  0  0  0  0  0  0  0  0999 V2000
    4.3186   -0.1762   -1.5777 C   0  0  0  0  0  0  0  0  0  0  0  0
   -0.9516    0.1712    1.0348 C   0  0  0  0  0  0  0  0  0  0  0  0
   -2.9914    0.9156   -0.0229 C   0  0  0  0  0  0  0  0  0  0  0  0
   -1.3048    3.8781    0.9407 C   0  0  0  0  0  0  0  0  0  0  0  0
   -2.6719    6.1210   -0.0723 C   0  0  0  0  0  0  0  0  0  0  0  0
   -4.6889    0.8387   -1.6010 C   0  0  0  0  0  0  0  0  0  0  0  0
    7.8780   -1.4534   -0.9971 C   0  0  0  0  0  0  0  0  0  0  0  0
    6.7964   -0.5127   -1.4833 C   0  0  0  0  0  0  0  0  0  0  0  0
    6.9601   -0.4164   -2.9933 C   0  0  0  0  0  0  0  0  0  0  0  0
    7.0622    0.8424   -0.9146 C   0  0  0  0  0  0  0  0  0  0  0  0
    5.4304   -1.0608   -1.1264 C   0  0  0  0  0  0  0  0  0  0  0  0
    5.3179   -1.3090    0.3429 C   0  0  0  0  0  0  0  0  0  0  0  0
    4.1051   -0.6531    0.9298 C   0  0  0  0  0  0  0  0  0  0  0  0
    2.8146   -1.0283    0.2331 C   0  0  0  0  0  0  0  0  0  0  0  0
    2.9986   -0.8249   -1.2482 C   0  0  0  0  0  0  0  0  0  0  0  0
    1.5553   -0.0898    0.8352 S   0  0  0  0  0  0  0  0  0  0  0  0
    1.6191   -0.6390    2.6174 O   0  0  0  0  0  0  0  0  0  0  0  0
    1.7713    1.3960    0.9394 O   0  0  0  0  0  0  0  0  0  0  0  0
    0.0745   -0.6615    0.4639 N   0  0  0  0  0  0  0  0  0  0  0  0
   -2.3559   -0.2642    0.7326 C   0  0  0  0  0  0  0  0  0  0  0  0
   -2.9327    2.0633    0.9048 N   0  0  0  0  0  0  0  0  0  0  0  0
   -1.5994    2.4122    1.2683 C   0  0  0  0  0  0  0  0  0  0  0  0
   -0.6681    1.5369    0.6196 N   0  0  0  0  0  0  0  0  0  0  0  0
   -1.4943    4.0270   -0.4801 N   0  0  0  0  0  0  0  0  0  0  0  0
   -1.5867    5.4094   -0.8888 C   0  0  0  0  0  0  0  0  0  0  0  0
   -2.1663    6.0783    1.3768 C   0  0  0  0  0  0  0  0  0  0  0  0
   -2.1629    4.6788    1.7514 N   0  0  0  0  0  0  0  0  0  0  0  0
   -4.3326    0.7302   -0.2700 O   0  0  0  0  0  0  0  0  0  0  0  0
   -6.1833    0.6132   -1.7107 C   0  0  0  0  0  0  0  0  0  0  0  0
   -6.8338    1.5931   -0.9414 O   0  0  0  0  0  0  0  0  0  0  0  0
   -2.3567   -1.4292    0.0295 O   0  0  0  0  0  0  0  0  0  0  0  0
   -3.0727   -2.4600    0.5431 C   0  0  0  0  0  0  0  0  0  0  0  0
   -4.3365   -2.7984   -0.2468 C   0  0  0  0  0  0  0  0  0  0  0  0
   -5.1423   -3.7194    0.6873 C   0  0  0  0  0  0  0  0  0  0  0  0
   -4.3638   -5.0152    0.7103 C   0  0  0  0  0  0  0  0  0  0  0  0
   -3.0715   -4.7927    1.4337 C   0  0  0  0  0  0  0  0  0  0  0  0
   -2.2616   -3.6526    0.8224 C   0  0  0  0  0  0  0  0  0  0  0  0
   -1.2570   -3.3903    1.7337 O   0  0  0  0  0  0  0  0  0  0  0  0
   -0.0102   -3.8531    1.2584 C   0  0  0  0  0  0  0  0  0  0  0  0
    4.4072    0.8221   -1.1406 H   0  0  0  0  0  0  0  0  0  0  0  0
    4.3365   -0.0443   -2.6828 H   0  0  0  0  0  0  0  0  0  0  0  0
   -0.7509    0.1755    2.1479 H   0  0  0  0  0  0  0  0  0  0  0  0
   -2.4776    1.1127   -0.9628 H   0  0  0  0  0  0  0  0  0  0  0  0
   -0.2386    4.0939    1.1838 H   0  0  0  0  0  0  0  0  0  0  0  0
   -2.7354    7.1537   -0.4072 H   0  0  0  0  0  0  0  0  0  0  0  0
   -3.6352    5.5554   -0.1400 H   0  0  0  0  0  0  0  0  0  0  0  0
   -4.4333    1.8084   -2.0536 H   0  0  0  0  0  0  0  0  0  0  0  0
   -4.1420    0.0391   -2.1480 H   0  0  0  0  0  0  0  0  0  0  0  0
    8.8051   -1.3061   -1.6132 H   0  0  0  0  0  0  0  0  0  0  0  0
    8.1543   -1.2393    0.0660 H   0  0  0  0  0  0  0  0  0  0  0  0
    7.5704   -2.5022   -1.1024 H   0  0  0  0  0  0  0  0  0  0  0  0
    6.0583   -0.8887   -3.4590 H   0  0  0  0  0  0  0  0  0  0  0  0
    6.9934    0.6461   -3.3276 H   0  0  0  0  0  0  0  0  0  0  0  0
    7.8985   -0.8822   -3.3459 H   0  0  0  0  0  0  0  0  0  0  0  0
    8.1766    0.9386   -0.7838 H   0  0  0  0  0  0  0  0  0  0  0  0
    6.6176    1.0107    0.0756 H   0  0  0  0  0  0  0  0  0  0  0  0
    6.7878    1.6349   -1.6430 H   0  0  0  0  0  0  0  0  0  0  0  0
    5.3516   -2.0526   -1.6380 H   0  0  0  0  0  0  0  0  0  0  0  0
    6.2049   -0.8353    0.8387 H   0  0  0  0  0  0  0  0  0  0  0  0
    5.3875   -2.3860    0.5976 H   0  0  0  0  0  0  0  0  0  0  0  0
    4.2166    0.4462    0.8528 H   0  0  0  0  0  0  0  0  0  0  0  0
    3.9836   -0.8764    2.0101 H   0  0  0  0  0  0  0  0  0  0  0  0
    2.6129   -2.1247    0.3857 H   0  0  0  0  0  0  0  0  0  0  0  0
    2.8695   -1.7727   -1.8214 H   0  0  0  0  0  0  0  0  0  0  0  0
    2.2036   -0.1478   -1.6051 H   0  0  0  0  0  0  0  0  0  0  0  0
    1.0998    0.1048    2.9715 H   0  0  0  0  0  0  0  0  0  0  0  0
    1.8417    1.8184    1.8437 H   0  0  0  0  0  0  0  0  0  0  0  0
   -0.0647   -0.8989   -0.5295 H   0  0  0  0  0  0  0  0  0  0  0  0
   -2.9220   -0.2937    1.6841 H   0  0  0  0  0  0  0  0  0  0  0  0
   -3.5946    1.9112    1.6698 H   0  0  0  0  0  0  0  0  0  0  0  0
   -1.4892    2.2575    2.3734 H   0  0  0  0  0  0  0  0  0  0  0  0
   -0.5915    1.6493   -0.3991 H   0  0  0  0  0  0  0  0  0  0  0  0
   -2.3152    3.5073   -0.8554 H   0  0  0  0  0  0  0  0  0  0  0  0
   -1.9081    5.4279   -1.9400 H   0  0  0  0  0  0  0  0  0  0  0  0
   -0.6487    5.9587   -0.6928 H   0  0  0  0  0  0  0  0  0  0  0  0
   -2.8201    6.6206    2.0544 H   0  0  0  0  0  0  0  0  0  0  0  0
   -1.1191    6.4187    1.3657 H   0  0  0  0  0  0  0  0  0  0  0  0
   -3.1007    4.2609    1.7901 H   0  0  0  0  0  0  0  0  0  0  0  0
   -6.4941   -0.3662   -1.3316 H   0  0  0  0  0  0  0  0  0  0  0  0
   -6.4720    0.7123   -2.7647 H   0  0  0  0  0  0  0  0  0  0  0  0
   -7.8291    1.5343   -1.0981 H   0  0  0  0  0  0  0  0  0  0  0  0
   -3.5013   -2.0779    1.5222 H   0  0  0  0  0  0  0  0  0  0  0  0
   -4.1417   -3.3811   -1.1431 H   0  0  0  0  0  0  0  0  0  0  0  0
   -4.9430   -1.9090   -0.3523 H   0  0  0  0  0  0  0  0  0  0  0  0
   -6.1490   -3.9199    0.2241 H   0  0  0  0  0  0  0  0  0  0  0  0
   -5.2507   -3.2897    1.6831 H   0  0  0  0  0  0  0  0  0  0  0  0
   -4.8991   -5.8290    1.2123 H   0  0  0  0  0  0  0  0  0  0  0  0
   -4.2215   -5.3134   -0.3501 H   0  0  0  0  0  0  0  0  0  0  0  0
   -2.4574   -5.7040    1.3337 H   0  0  0  0  0  0  0  0  0  0  0  0
   -3.2799   -4.6432    2.5059 H   0  0  0  0  0  0  0  0  0  0  0  0
   -1.7785   -4.0783   -0.0862 H   0  0  0  0  0  0  0  0  0  0  0  0
    0.2403   -3.3752    0.2983 H   0  0  0  0  0  0  0  0  0  0  0  0
    0.7599   -3.6215    2.0235 H   0  0  0  0  0  0  0  0  0  0  0  0
   -0.0786   -4.9651    1.0690 H   0  0  0  0  0  0  0  0  0  0  0  0
  8  7  1  0
  8  9  1  0
  8 10  1  0
  1 11  1  0
  8 11  1  0
 11 12  1  0
 12 13  1  0
 13 14  1  0
  1 15  1  0
 14 15  1  0
 14 16  1  0
 16 17  1  0
 16 18  1  0
  2 19  1  0
 16 19  1  0
  2 20  1  0
  3 20  1  0
  3 21  1  0
  4 22  1  0
 21 22  1  0
  2 23  1  0
 22 23  1  0
  4 24  1  0
  5 25  1  0
 24 25  1  0
  5 26  1  0
  4 27  1  0
 26 27  1  0
  3 28  1  0
  6 28  1  0
  6 29  1  0
 29 30  1  0
 20 31  1  0
 31 32  1  0
 32 33  1  0
 33 34  1  0
 34 35  1  0
 35 36  1  0
 32 37  1  0
 36 37  1  0
 37 38  1  0
 38 39  1  0
  1 40  1  0
  1 41  1  0
  2 42  1  0
  3 43  1  0
  4 44  1  0
  5 45  1  0
  5 46  1  0
  6 47  1  0
  6 48  1  0
  7 49  1  0
  7 50  1  0
  7 51  1  0
  9 52  1  0
  9 53  1  0
  9 54  1  0
 10 55  1  0
 10 56  1  0
 10 57  1  0
 11 58  1  0
 12 59  1  0
 12 60  1  0
 13 61  1  0
 13 62  1  0
 14 63  1  0
 15 64  1  0
 15 65  1  0
 17 66  1  0
 18 67  1  0
 19 68  1  0
 20 69  1  0
 21 70  1  0
 22 71  1  0
 23 72  1  0
 24 73  1  0
 25 74  1  0
 25 75  1  0
 26 76  1  0
 26 77  1  0
 27 78  1  0
 29 79  1  0
 29 80  1  0
 30 81  1  0
 32 82  1  0
 33 83  1  0
 33 84  1  0
 34 85  1  0
 34 86  1  0
 35 87  1  0
 35 88  1  0
 36 89  1  0
 36 90  1  0
 37 91  1  0
 39 92  1  0
 39 93  1  0
 39 94  1  0
M  END
>  <PDBID>  (1) 
5XPR

>  <PDB ID>  (1) 
5XPR

>  <Generic Name>  (1) 
Bosentan

>  <Brand Name>  (1) 
Accel-bosentan#Act Bosentan#Apo-bosentan#Bosentan Tablets#Ipg-bosentan#Mar-bosentan#Mylan-bosentan#PMS-bosentan#Sandoz Bosentan#Teva-bosentan#Tracleer

>  <DrugBank ID>  (1) 
DB00559

>  <ATC Codes>  (1) 
C02KX01

>  <Ligand ID>  (1) 
K86

>  <Target Name>  (1) 
Endothelin B receptor

>  <UniProt ID>  (1) 
P24530

>  <PDB ID.1>  (1) 
5XPR

>  <Seq. Identity>  (1) 
85%

$$$$
