PDB_DB00259_05
     RDKit          3D

 27 27  0  0  0  0  0  0  0  0999 V2000
   -2.0364    0.3730    0.0647 C   0  0  0  0  0  0  0  0  0  0  0  0
   -3.4636    0.5382   -0.0499 N   0  0  0  0  0  0  0  0  0  0  0  0
   -1.3503    0.5923   -1.2683 C   0  0  0  0  0  0  0  0  0  0  0  0
    0.1303    0.6694   -0.9936 C   0  0  0  0  0  0  0  0  0  0  0  0
    0.6648   -0.5835   -0.3682 C   0  0  0  0  0  0  0  0  0  0  0  0
   -0.1391   -0.8967    0.8769 C   0  0  0  0  0  0  0  0  0  0  0  0
   -1.6338   -0.9940    0.5454 C   0  0  0  0  0  0  0  0  0  0  0  0
    2.3081   -0.2650    0.1818 S   0  0  0  0  0  0  0  0  0  0  0  0
    2.4258    0.8999    1.1815 N   0  0  0  0  0  0  0  0  0  0  0  0
    3.1592    0.1684   -1.2419 O   0  0  0  0  0  0  0  0  0  0  0  0
    2.9812   -1.6873    0.6131 O   0  0  0  0  0  0  0  0  0  0  0  0
   -1.6118    1.1088    0.7802 H   0  0  0  0  0  0  0  0  0  0  0  0
   -3.6377    1.5584   -0.2298 H   0  0  0  0  0  0  0  0  0  0  0  0
   -3.9326    0.3016    0.8267 H   0  0  0  0  0  0  0  0  0  0  0  0
   -1.6234   -0.2571   -1.9217 H   0  0  0  0  0  0  0  0  0  0  0  0
   -1.6703    1.5641   -1.6871 H   0  0  0  0  0  0  0  0  0  0  0  0
    0.6568    0.9211   -1.9325 H   0  0  0  0  0  0  0  0  0  0  0  0
    0.2858    1.5005   -0.2712 H   0  0  0  0  0  0  0  0  0  0  0  0
    0.6736   -1.4380   -1.0851 H   0  0  0  0  0  0  0  0  0  0  0  0
   -0.0522    0.0068    1.5307 H   0  0  0  0  0  0  0  0  0  0  0  0
    0.2212   -1.8004    1.3753 H   0  0  0  0  0  0  0  0  0  0  0  0
   -1.7902   -1.7817   -0.2378 H   0  0  0  0  0  0  0  0  0  0  0  0
   -2.1315   -1.3196    1.4561 H   0  0  0  0  0  0  0  0  0  0  0  0
    1.6698    1.3123    1.7342 H   0  0  0  0  0  0  0  0  0  0  0  0
    3.0994    1.6782    0.9590 H   0  0  0  0  0  0  0  0  0  0  0  0
    4.0873   -0.1501   -1.0722 H   0  0  0  0  0  0  0  0  0  0  0  0
    2.7096   -2.0194    1.4894 H   0  0  0  0  0  0  0  0  0  0  0  0
  1  2  1  0
  1  3  1  0
  3  4  1  0
  4  5  1  0
  5  6  1  0
  1  7  1  0
  6  7  1  0
  5  8  1  0
  8  9  1  0
  8 10  1  0
  8 11  1  0
  1 12  1  0
  2 13  1  0
  2 14  1  0
  3 15  1  0
  3 16  1  0
  4 17  1  0
  4 18  1  0
  5 19  1  0
  6 20  1  0
  6 21  1  0
  7 22  1  0
  7 23  1  0
  9 24  1  0
  9 25  1  0
 10 26  1  0
 11 27  1  0
M  END
>  <PDBID>  (1) 
1AJ0

>  <PDB ID>  (1) 
1AJ0

>  <Generic Name>  (1) 
Sulfanilamide

>  <Brand Name>  (1) 
AVC Vaginal#Avc#Avc Cream - 15%#Streptocid

>  <DrugBank ID>  (1) 
DB00259

>  <ATC Codes>  (1) 
J01EB06#D06BA05

>  <Ligand ID>  (1) 
SAN

>  <Target Name>  (1) 
Dihydropteroate synthase

>  <UniProt ID>  (1) 
P0AC13

>  <PDB ID.1>  (1) 
1AJ0

>  <Seq. Identity>  (1) 
100%

$$$$
