PDB_DB01016_07
     RDKit          3D

316324  0  0  0  0  0  0  0  0999 V2000
    4.5082    1.7900   -2.0434 O   0  0  0  0  0  0  0  0  0  0  0  0
    3.6105   -1.4055    1.2751 O   0  0  0  0  0  0  0  0  0  0  0  0
    4.2421   -1.4235   -1.2756 O   0  0  0  0  0  0  0  0  0  0  0  0
   -5.0725   -1.5567   -1.6755 O   0  0  0  0  0  0  0  0  0  0  0  0
   -9.5986   -2.4461    0.8851 Cl  0  0  0  0  0  0  0  0  0  0  0  0
    3.4565   -0.3809   -0.2904 S   0  0  0  0  0  0  0  0  0  0  0  0
   -5.7740    1.8070    0.0915 O   0  0  0  0  0  0  0  0  0  0  0  0
    6.3240    0.8900   -1.0222 N   0  0  0  0  0  0  0  0  0  0  0  0
    4.1491    0.9048    0.0817 N   0  0  0  0  0  0  0  0  0  0  0  0
   -4.6166   -0.5226    0.3206 N   0  0  0  0  0  0  0  0  0  0  0  0
    7.2150    0.7062    0.0716 C   0  0  0  0  0  0  0  0  0  0  0  0
    6.5988   -0.1788    1.1165 C   0  0  0  0  0  0  0  0  0  0  0  0
    8.5674    0.1793   -0.3806 C   0  0  0  0  0  0  0  0  0  0  0  0
    7.6535   -0.4166    2.1955 C   0  0  0  0  0  0  0  0  0  0  0  0
    8.8713   -1.1885    0.1749 C   0  0  0  0  0  0  0  0  0  0  0  0
    8.8236   -1.1950    1.6906 C   0  0  0  0  0  0  0  0  0  0  0  0
    5.1048    1.5482   -0.7909 C   0  0  0  0  0  0  0  0  0  0  0  0
    1.7804   -0.4421   -0.5117 C   0  0  0  0  0  0  0  0  0  0  0  0
   -1.0053   -0.2759   -0.7187 C   0  0  0  0  0  0  0  0  0  0  0  0
   -2.4293    0.2192   -0.5419 C   0  0  0  0  0  0  0  0  0  0  0  0
    1.2264    0.3602   -1.6540 C   0  0  0  0  0  0  0  0  0  0  0  0
    1.0108    0.0161    0.7373 C   0  0  0  0  0  0  0  0  0  0  0  0
   -0.1845    0.8239   -1.3650 C   0  0  0  0  0  0  0  0  0  0  0  0
   -0.4228   -0.5006    0.6609 C   0  0  0  0  0  0  0  0  0  0  0  0
   -3.2339   -0.8698    0.0908 C   0  0  0  0  0  0  0  0  0  0  0  0
   -5.2729   -0.3928   -0.9385 C   0  0  0  0  0  0  0  0  0  0  0  0
   -6.7770   -0.1234   -0.7727 C   0  0  0  0  0  0  0  0  0  0  0  0
   -6.9849    1.1096    0.0111 C   0  0  0  0  0  0  0  0  0  0  0  0
   -7.5157   -1.3422   -0.3747 C   0  0  0  0  0  0  0  0  0  0  0  0
   -7.5030    0.9251    1.4050 C   0  0  0  0  0  0  0  0  0  0  0  0
   -8.2213   -1.3240    0.9228 C   0  0  0  0  0  0  0  0  0  0  0  0
   -8.7520    0.0424    1.3000 C   0  0  0  0  0  0  0  0  0  0  0  0
   -5.8528    3.0850   -0.4425 C   0  0  0  0  0  0  0  0  0  0  0  0
    4.5082    1.7900   -2.0434 O   0  0  0  0  0  0  0  0  0  0  0  0
    3.6105   -1.4055    1.2751 O   0  0  0  0  0  0  0  0  0  0  0  0
    4.2421   -1.4235   -1.2756 O   0  0  0  0  0  0  0  0  0  0  0  0
   -5.0725   -1.5567   -1.6755 O   0  0  0  0  0  0  0  0  0  0  0  0
   -9.5986   -2.4461    0.8851 Cl  0  0  0  0  0  0  0  0  0  0  0  0
    3.4565   -0.3809   -0.2904 S   0  0  0  0  0  0  0  0  0  0  0  0
   -5.7740    1.8070    0.0915 O   0  0  0  0  0  0  0  0  0  0  0  0
    6.3240    0.8900   -1.0222 N   0  0  0  0  0  0  0  0  0  0  0  0
    4.1491    0.9048    0.0817 N   0  0  0  0  0  0  0  0  0  0  0  0
   -4.6166   -0.5226    0.3206 N   0  0  0  0  0  0  0  0  0  0  0  0
    7.2150    0.7062    0.0716 C   0  0  0  0  0  0  0  0  0  0  0  0
    6.5988   -0.1788    1.1165 C   0  0  0  0  0  0  0  0  0  0  0  0
    8.5674    0.1793   -0.3806 C   0  0  0  0  0  0  0  0  0  0  0  0
    7.6535   -0.4166    2.1955 C   0  0  0  0  0  0  0  0  0  0  0  0
    8.8713   -1.1885    0.1749 C   0  0  0  0  0  0  0  0  0  0  0  0
    8.8236   -1.1950    1.6906 C   0  0  0  0  0  0  0  0  0  0  0  0
    5.1048    1.5482   -0.7909 C   0  0  0  0  0  0  0  0  0  0  0  0
    1.7804   -0.4421   -0.5117 C   0  0  0  0  0  0  0  0  0  0  0  0
   -1.0053   -0.2759   -0.7187 C   0  0  0  0  0  0  0  0  0  0  0  0
   -2.4293    0.2192   -0.5419 C   0  0  0  0  0  0  0  0  0  0  0  0
    1.2264    0.3602   -1.6540 C   0  0  0  0  0  0  0  0  0  0  0  0
    1.0108    0.0161    0.7373 C   0  0  0  0  0  0  0  0  0  0  0  0
   -0.1845    0.8239   -1.3650 C   0  0  0  0  0  0  0  0  0  0  0  0
   -0.4228   -0.5006    0.6609 C   0  0  0  0  0  0  0  0  0  0  0  0
   -3.2339   -0.8698    0.0908 C   0  0  0  0  0  0  0  0  0  0  0  0
   -5.2729   -0.3928   -0.9385 C   0  0  0  0  0  0  0  0  0  0  0  0
   -6.7770   -0.1234   -0.7727 C   0  0  0  0  0  0  0  0  0  0  0  0
   -6.9849    1.1096    0.0111 C   0  0  0  0  0  0  0  0  0  0  0  0
   -7.5157   -1.3422   -0.3747 C   0  0  0  0  0  0  0  0  0  0  0  0
   -7.5030    0.9251    1.4050 C   0  0  0  0  0  0  0  0  0  0  0  0
   -8.2213   -1.3240    0.9228 C   0  0  0  0  0  0  0  0  0  0  0  0
   -8.7520    0.0424    1.3000 C   0  0  0  0  0  0  0  0  0  0  0  0
   -5.8528    3.0850   -0.4425 C   0  0  0  0  0  0  0  0  0  0  0  0
    4.5082    1.7900   -2.0434 O   0  0  0  0  0  0  0  0  0  0  0  0
    3.6105   -1.4055    1.2751 O   0  0  0  0  0  0  0  0  0  0  0  0
    4.2421   -1.4235   -1.2756 O   0  0  0  0  0  0  0  0  0  0  0  0
   -5.0725   -1.5567   -1.6755 O   0  0  0  0  0  0  0  0  0  0  0  0
   -9.5986   -2.4461    0.8851 Cl  0  0  0  0  0  0  0  0  0  0  0  0
    3.4565   -0.3809   -0.2904 S   0  0  0  0  0  0  0  0  0  0  0  0
   -5.7740    1.8070    0.0915 O   0  0  0  0  0  0  0  0  0  0  0  0
    6.3240    0.8900   -1.0222 N   0  0  0  0  0  0  0  0  0  0  0  0
    4.1491    0.9048    0.0817 N   0  0  0  0  0  0  0  0  0  0  0  0
   -4.6166   -0.5226    0.3206 N   0  0  0  0  0  0  0  0  0  0  0  0
    7.2150    0.7062    0.0716 C   0  0  0  0  0  0  0  0  0  0  0  0
    6.5988   -0.1788    1.1165 C   0  0  0  0  0  0  0  0  0  0  0  0
    8.5674    0.1793   -0.3806 C   0  0  0  0  0  0  0  0  0  0  0  0
    7.6535   -0.4166    2.1955 C   0  0  0  0  0  0  0  0  0  0  0  0
    8.8713   -1.1885    0.1749 C   0  0  0  0  0  0  0  0  0  0  0  0
    8.8236   -1.1950    1.6906 C   0  0  0  0  0  0  0  0  0  0  0  0
    5.1048    1.5482   -0.7909 C   0  0  0  0  0  0  0  0  0  0  0  0
    1.7804   -0.4421   -0.5117 C   0  0  0  0  0  0  0  0  0  0  0  0
   -1.0053   -0.2759   -0.7187 C   0  0  0  0  0  0  0  0  0  0  0  0
   -2.4293    0.2192   -0.5419 C   0  0  0  0  0  0  0  0  0  0  0  0
    1.2264    0.3602   -1.6540 C   0  0  0  0  0  0  0  0  0  0  0  0
    1.0108    0.0161    0.7373 C   0  0  0  0  0  0  0  0  0  0  0  0
   -0.1845    0.8239   -1.3650 C   0  0  0  0  0  0  0  0  0  0  0  0
   -0.4228   -0.5006    0.6609 C   0  0  0  0  0  0  0  0  0  0  0  0
   -3.2339   -0.8698    0.0908 C   0  0  0  0  0  0  0  0  0  0  0  0
   -5.2729   -0.3928   -0.9385 C   0  0  0  0  0  0  0  0  0  0  0  0
   -6.7770   -0.1234   -0.7727 C   0  0  0  0  0  0  0  0  0  0  0  0
   -6.9849    1.1096    0.0111 C   0  0  0  0  0  0  0  0  0  0  0  0
   -7.5157   -1.3422   -0.3747 C   0  0  0  0  0  0  0  0  0  0  0  0
   -7.5030    0.9251    1.4050 C   0  0  0  0  0  0  0  0  0  0  0  0
   -8.2213   -1.3240    0.9228 C   0  0  0  0  0  0  0  0  0  0  0  0
   -8.7520    0.0424    1.3000 C   0  0  0  0  0  0  0  0  0  0  0  0
   -5.8528    3.0850   -0.4425 C   0  0  0  0  0  0  0  0  0  0  0  0
    4.5082    1.7900   -2.0434 O   0  0  0  0  0  0  0  0  0  0  0  0
    3.6105   -1.4055    1.2751 O   0  0  0  0  0  0  0  0  0  0  0  0
    4.2421   -1.4235   -1.2756 O   0  0  0  0  0  0  0  0  0  0  0  0
   -5.0725   -1.5567   -1.6755 O   0  0  0  0  0  0  0  0  0  0  0  0
   -9.5986   -2.4461    0.8851 Cl  0  0  0  0  0  0  0  0  0  0  0  0
    3.4565   -0.3809   -0.2904 S   0  0  0  0  0  0  0  0  0  0  0  0
   -5.7740    1.8070    0.0915 O   0  0  0  0  0  0  0  0  0  0  0  0
    6.3240    0.8900   -1.0222 N   0  0  0  0  0  0  0  0  0  0  0  0
    4.1491    0.9048    0.0817 N   0  0  0  0  0  0  0  0  0  0  0  0
   -4.6166   -0.5226    0.3206 N   0  0  0  0  0  0  0  0  0  0  0  0
    7.2150    0.7062    0.0716 C   0  0  0  0  0  0  0  0  0  0  0  0
    6.5988   -0.1788    1.1165 C   0  0  0  0  0  0  0  0  0  0  0  0
    8.5674    0.1793   -0.3806 C   0  0  0  0  0  0  0  0  0  0  0  0
    7.6535   -0.4166    2.1955 C   0  0  0  0  0  0  0  0  0  0  0  0
    8.8713   -1.1885    0.1749 C   0  0  0  0  0  0  0  0  0  0  0  0
    8.8236   -1.1950    1.6906 C   0  0  0  0  0  0  0  0  0  0  0  0
    5.1048    1.5482   -0.7909 C   0  0  0  0  0  0  0  0  0  0  0  0
    1.7804   -0.4421   -0.5117 C   0  0  0  0  0  0  0  0  0  0  0  0
   -1.0053   -0.2759   -0.7187 C   0  0  0  0  0  0  0  0  0  0  0  0
   -2.4293    0.2192   -0.5419 C   0  0  0  0  0  0  0  0  0  0  0  0
    1.2264    0.3602   -1.6540 C   0  0  0  0  0  0  0  0  0  0  0  0
    1.0108    0.0161    0.7373 C   0  0  0  0  0  0  0  0  0  0  0  0
   -0.1845    0.8239   -1.3650 C   0  0  0  0  0  0  0  0  0  0  0  0
   -0.4228   -0.5006    0.6609 C   0  0  0  0  0  0  0  0  0  0  0  0
   -3.2339   -0.8698    0.0908 C   0  0  0  0  0  0  0  0  0  0  0  0
   -5.2729   -0.3928   -0.9385 C   0  0  0  0  0  0  0  0  0  0  0  0
   -6.7770   -0.1234   -0.7727 C   0  0  0  0  0  0  0  0  0  0  0  0
   -6.9849    1.1096    0.0111 C   0  0  0  0  0  0  0  0  0  0  0  0
   -7.5157   -1.3422   -0.3747 C   0  0  0  0  0  0  0  0  0  0  0  0
   -7.5030    0.9251    1.4050 C   0  0  0  0  0  0  0  0  0  0  0  0
   -8.2213   -1.3240    0.9228 C   0  0  0  0  0  0  0  0  0  0  0  0
   -8.7520    0.0424    1.3000 C   0  0  0  0  0  0  0  0  0  0  0  0
   -5.8528    3.0850   -0.4425 C   0  0  0  0  0  0  0  0  0  0  0  0
    4.4064    0.9367   -2.5487 H   0  0  0  0  0  0  0  0  0  0  0  0
    3.4672   -0.6968    1.9196 H   0  0  0  0  0  0  0  0  0  0  0  0
    4.2546   -2.3594   -1.0194 H   0  0  0  0  0  0  0  0  0  0  0  0
   -4.4736   -1.4293   -2.4531 H   0  0  0  0  0  0  0  0  0  0  0  0
    6.2504    0.0621   -1.6440 H   0  0  0  0  0  0  0  0  0  0  0  0
    3.5483    1.7020    0.4595 H   0  0  0  0  0  0  0  0  0  0  0  0
   -5.0847   -1.1279    0.9990 H   0  0  0  0  0  0  0  0  0  0  0  0
    7.4296    1.7098    0.5414 H   0  0  0  0  0  0  0  0  0  0  0  0
    5.7689    0.3182    1.6240 H   0  0  0  0  0  0  0  0  0  0  0  0
    6.2473   -1.1267    0.6927 H   0  0  0  0  0  0  0  0  0  0  0  0
    8.5358    0.0699   -1.4877 H   0  0  0  0  0  0  0  0  0  0  0  0
    9.3755    0.8770   -0.1476 H   0  0  0  0  0  0  0  0  0  0  0  0
    7.1479   -0.9188    3.0496 H   0  0  0  0  0  0  0  0  0  0  0  0
    7.9978    0.6069    2.4836 H   0  0  0  0  0  0  0  0  0  0  0  0
    8.1163   -1.9189   -0.1628 H   0  0  0  0  0  0  0  0  0  0  0  0
    9.8676   -1.4757   -0.1959 H   0  0  0  0  0  0  0  0  0  0  0  0
    8.8492   -2.2352    2.0608 H   0  0  0  0  0  0  0  0  0  0  0  0
    9.7546   -0.7153    2.0520 H   0  0  0  0  0  0  0  0  0  0  0  0
    5.3334    2.5631   -0.3789 H   0  0  0  0  0  0  0  0  0  0  0  0
    1.4473   -1.5038   -0.6522 H   0  0  0  0  0  0  0  0  0  0  0  0
   -1.0593   -1.1927   -1.3236 H   0  0  0  0  0  0  0  0  0  0  0  0
   -2.8166    0.5631   -1.5088 H   0  0  0  0  0  0  0  0  0  0  0  0
   -2.4073    1.0941    0.1374 H   0  0  0  0  0  0  0  0  0  0  0  0
    1.8341    1.2738   -1.8699 H   0  0  0  0  0  0  0  0  0  0  0  0
    1.1660   -0.2551   -2.5768 H   0  0  0  0  0  0  0  0  0  0  0  0
    1.4722   -0.4398    1.6114 H   0  0  0  0  0  0  0  0  0  0  0  0
    1.0559    1.1156    0.8575 H   0  0  0  0  0  0  0  0  0  0  0  0
   -0.1864    1.6776   -0.6588 H   0  0  0  0  0  0  0  0  0  0  0  0
   -0.7045    1.1490   -2.2805 H   0  0  0  0  0  0  0  0  0  0  0  0
   -1.0047    0.0975    1.3867 H   0  0  0  0  0  0  0  0  0  0  0  0
   -0.4730   -1.5491    0.9614 H   0  0  0  0  0  0  0  0  0  0  0  0
   -2.7579   -1.1654    1.0423 H   0  0  0  0  0  0  0  0  0  0  0  0
   -3.2320   -1.7685   -0.5855 H   0  0  0  0  0  0  0  0  0  0  0  0
   -4.8438    0.4444   -1.5384 H   0  0  0  0  0  0  0  0  0  0  0  0
   -7.1037    0.1129   -1.8350 H   0  0  0  0  0  0  0  0  0  0  0  0
   -7.7034    1.8197   -0.4903 H   0  0  0  0  0  0  0  0  0  0  0  0
   -6.7695   -2.1901   -0.3258 H   0  0  0  0  0  0  0  0  0  0  0  0
   -8.2568   -1.6960   -1.1531 H   0  0  0  0  0  0  0  0  0  0  0  0
   -7.8698    1.9069    1.7683 H   0  0  0  0  0  0  0  0  0  0  0  0
   -6.8082    0.4209    2.0836 H   0  0  0  0  0  0  0  0  0  0  0  0
   -7.5801   -1.6519    1.7884 H   0  0  0  0  0  0  0  0  0  0  0  0
   -9.2555   -0.0620    2.2879 H   0  0  0  0  0  0  0  0  0  0  0  0
   -9.4084    0.4551    0.5158 H   0  0  0  0  0  0  0  0  0  0  0  0
   -4.8324    3.5282   -0.3164 H   0  0  0  0  0  0  0  0  0  0  0  0
   -6.5414    3.7501    0.1042 H   0  0  0  0  0  0  0  0  0  0  0  0
   -6.0788    3.1138   -1.5069 H   0  0  0  0  0  0  0  0  0  0  0  0
    4.4064    0.9367   -2.5487 H   0  0  0  0  0  0  0  0  0  0  0  0
    3.4672   -0.6968    1.9196 H   0  0  0  0  0  0  0  0  0  0  0  0
    4.2546   -2.3594   -1.0194 H   0  0  0  0  0  0  0  0  0  0  0  0
   -4.4736   -1.4293   -2.4531 H   0  0  0  0  0  0  0  0  0  0  0  0
    6.2504    0.0621   -1.6440 H   0  0  0  0  0  0  0  0  0  0  0  0
    3.5483    1.7020    0.4595 H   0  0  0  0  0  0  0  0  0  0  0  0
   -5.0847   -1.1279    0.9990 H   0  0  0  0  0  0  0  0  0  0  0  0
    7.4296    1.7098    0.5414 H   0  0  0  0  0  0  0  0  0  0  0  0
    5.7689    0.3182    1.6240 H   0  0  0  0  0  0  0  0  0  0  0  0
    6.2473   -1.1267    0.6927 H   0  0  0  0  0  0  0  0  0  0  0  0
    8.5358    0.0699   -1.4877 H   0  0  0  0  0  0  0  0  0  0  0  0
    9.3755    0.8770   -0.1476 H   0  0  0  0  0  0  0  0  0  0  0  0
    7.1479   -0.9188    3.0496 H   0  0  0  0  0  0  0  0  0  0  0  0
    7.9978    0.6069    2.4836 H   0  0  0  0  0  0  0  0  0  0  0  0
    8.1163   -1.9189   -0.1628 H   0  0  0  0  0  0  0  0  0  0  0  0
    9.8676   -1.4757   -0.1959 H   0  0  0  0  0  0  0  0  0  0  0  0
    8.8492   -2.2352    2.0608 H   0  0  0  0  0  0  0  0  0  0  0  0
    9.7546   -0.7153    2.0520 H   0  0  0  0  0  0  0  0  0  0  0  0
    5.3334    2.5631   -0.3789 H   0  0  0  0  0  0  0  0  0  0  0  0
    1.4473   -1.5038   -0.6522 H   0  0  0  0  0  0  0  0  0  0  0  0
   -1.0593   -1.1927   -1.3236 H   0  0  0  0  0  0  0  0  0  0  0  0
   -2.8166    0.5631   -1.5088 H   0  0  0  0  0  0  0  0  0  0  0  0
   -2.4073    1.0941    0.1374 H   0  0  0  0  0  0  0  0  0  0  0  0
    1.8341    1.2738   -1.8699 H   0  0  0  0  0  0  0  0  0  0  0  0
    1.1660   -0.2551   -2.5768 H   0  0  0  0  0  0  0  0  0  0  0  0
    1.4722   -0.4398    1.6114 H   0  0  0  0  0  0  0  0  0  0  0  0
    1.0559    1.1156    0.8575 H   0  0  0  0  0  0  0  0  0  0  0  0
   -0.1864    1.6776   -0.6588 H   0  0  0  0  0  0  0  0  0  0  0  0
   -0.7045    1.1490   -2.2805 H   0  0  0  0  0  0  0  0  0  0  0  0
   -1.0047    0.0975    1.3867 H   0  0  0  0  0  0  0  0  0  0  0  0
   -0.4730   -1.5491    0.9614 H   0  0  0  0  0  0  0  0  0  0  0  0
   -2.7579   -1.1654    1.0423 H   0  0  0  0  0  0  0  0  0  0  0  0
   -3.2320   -1.7685   -0.5855 H   0  0  0  0  0  0  0  0  0  0  0  0
   -4.8438    0.4444   -1.5384 H   0  0  0  0  0  0  0  0  0  0  0  0
   -7.1037    0.1129   -1.8350 H   0  0  0  0  0  0  0  0  0  0  0  0
   -7.7034    1.8197   -0.4903 H   0  0  0  0  0  0  0  0  0  0  0  0
   -6.7695   -2.1901   -0.3258 H   0  0  0  0  0  0  0  0  0  0  0  0
   -8.2568   -1.6960   -1.1531 H   0  0  0  0  0  0  0  0  0  0  0  0
   -7.8698    1.9069    1.7683 H   0  0  0  0  0  0  0  0  0  0  0  0
   -6.8082    0.4209    2.0836 H   0  0  0  0  0  0  0  0  0  0  0  0
   -7.5801   -1.6519    1.7884 H   0  0  0  0  0  0  0  0  0  0  0  0
   -9.2555   -0.0620    2.2879 H   0  0  0  0  0  0  0  0  0  0  0  0
   -9.4084    0.4551    0.5158 H   0  0  0  0  0  0  0  0  0  0  0  0
   -4.8324    3.5282   -0.3164 H   0  0  0  0  0  0  0  0  0  0  0  0
   -6.5414    3.7501    0.1042 H   0  0  0  0  0  0  0  0  0  0  0  0
   -6.0788    3.1138   -1.5069 H   0  0  0  0  0  0  0  0  0  0  0  0
    4.4064    0.9367   -2.5487 H   0  0  0  0  0  0  0  0  0  0  0  0
    3.4672   -0.6968    1.9196 H   0  0  0  0  0  0  0  0  0  0  0  0
    4.2546   -2.3594   -1.0194 H   0  0  0  0  0  0  0  0  0  0  0  0
   -4.4736   -1.4293   -2.4531 H   0  0  0  0  0  0  0  0  0  0  0  0
    6.2504    0.0621   -1.6440 H   0  0  0  0  0  0  0  0  0  0  0  0
    3.5483    1.7020    0.4595 H   0  0  0  0  0  0  0  0  0  0  0  0
   -5.0847   -1.1279    0.9990 H   0  0  0  0  0  0  0  0  0  0  0  0
    7.4296    1.7098    0.5414 H   0  0  0  0  0  0  0  0  0  0  0  0
    5.7689    0.3182    1.6240 H   0  0  0  0  0  0  0  0  0  0  0  0
    6.2473   -1.1267    0.6927 H   0  0  0  0  0  0  0  0  0  0  0  0
    8.5358    0.0699   -1.4877 H   0  0  0  0  0  0  0  0  0  0  0  0
    9.3755    0.8770   -0.1476 H   0  0  0  0  0  0  0  0  0  0  0  0
    7.1479   -0.9188    3.0496 H   0  0  0  0  0  0  0  0  0  0  0  0
    7.9978    0.6069    2.4836 H   0  0  0  0  0  0  0  0  0  0  0  0
    8.1163   -1.9189   -0.1628 H   0  0  0  0  0  0  0  0  0  0  0  0
    9.8676   -1.4757   -0.1959 H   0  0  0  0  0  0  0  0  0  0  0  0
    8.8492   -2.2352    2.0608 H   0  0  0  0  0  0  0  0  0  0  0  0
    9.7546   -0.7153    2.0520 H   0  0  0  0  0  0  0  0  0  0  0  0
    5.3334    2.5631   -0.3789 H   0  0  0  0  0  0  0  0  0  0  0  0
    1.4473   -1.5038   -0.6522 H   0  0  0  0  0  0  0  0  0  0  0  0
   -1.0593   -1.1927   -1.3236 H   0  0  0  0  0  0  0  0  0  0  0  0
   -2.8166    0.5631   -1.5088 H   0  0  0  0  0  0  0  0  0  0  0  0
   -2.4073    1.0941    0.1374 H   0  0  0  0  0  0  0  0  0  0  0  0
    1.8341    1.2738   -1.8699 H   0  0  0  0  0  0  0  0  0  0  0  0
    1.1660   -0.2551   -2.5768 H   0  0  0  0  0  0  0  0  0  0  0  0
    1.4722   -0.4398    1.6114 H   0  0  0  0  0  0  0  0  0  0  0  0
    1.0559    1.1156    0.8575 H   0  0  0  0  0  0  0  0  0  0  0  0
   -0.1864    1.6776   -0.6588 H   0  0  0  0  0  0  0  0  0  0  0  0
   -0.7045    1.1490   -2.2805 H   0  0  0  0  0  0  0  0  0  0  0  0
   -1.0047    0.0975    1.3867 H   0  0  0  0  0  0  0  0  0  0  0  0
   -0.4730   -1.5491    0.9614 H   0  0  0  0  0  0  0  0  0  0  0  0
   -2.7579   -1.1654    1.0423 H   0  0  0  0  0  0  0  0  0  0  0  0
   -3.2320   -1.7685   -0.5855 H   0  0  0  0  0  0  0  0  0  0  0  0
   -4.8438    0.4444   -1.5384 H   0  0  0  0  0  0  0  0  0  0  0  0
   -7.1037    0.1129   -1.8350 H   0  0  0  0  0  0  0  0  0  0  0  0
   -7.7034    1.8197   -0.4903 H   0  0  0  0  0  0  0  0  0  0  0  0
   -6.7695   -2.1901   -0.3258 H   0  0  0  0  0  0  0  0  0  0  0  0
   -8.2568   -1.6960   -1.1531 H   0  0  0  0  0  0  0  0  0  0  0  0
   -7.8698    1.9069    1.7683 H   0  0  0  0  0  0  0  0  0  0  0  0
   -6.8082    0.4209    2.0836 H   0  0  0  0  0  0  0  0  0  0  0  0
   -7.5801   -1.6519    1.7884 H   0  0  0  0  0  0  0  0  0  0  0  0
   -9.2555   -0.0620    2.2879 H   0  0  0  0  0  0  0  0  0  0  0  0
   -9.4084    0.4551    0.5158 H   0  0  0  0  0  0  0  0  0  0  0  0
   -4.8324    3.5282   -0.3164 H   0  0  0  0  0  0  0  0  0  0  0  0
   -6.5414    3.7501    0.1042 H   0  0  0  0  0  0  0  0  0  0  0  0
   -6.0788    3.1138   -1.5069 H   0  0  0  0  0  0  0  0  0  0  0  0
    4.4064    0.9367   -2.5487 H   0  0  0  0  0  0  0  0  0  0  0  0
    3.4672   -0.6968    1.9196 H   0  0  0  0  0  0  0  0  0  0  0  0
    4.2546   -2.3594   -1.0194 H   0  0  0  0  0  0  0  0  0  0  0  0
   -4.4736   -1.4293   -2.4531 H   0  0  0  0  0  0  0  0  0  0  0  0
    6.2504    0.0621   -1.6440 H   0  0  0  0  0  0  0  0  0  0  0  0
    3.5483    1.7020    0.4595 H   0  0  0  0  0  0  0  0  0  0  0  0
   -5.0847   -1.1279    0.9990 H   0  0  0  0  0  0  0  0  0  0  0  0
    7.4296    1.7098    0.5414 H   0  0  0  0  0  0  0  0  0  0  0  0
    5.7689    0.3182    1.6240 H   0  0  0  0  0  0  0  0  0  0  0  0
    6.2473   -1.1267    0.6927 H   0  0  0  0  0  0  0  0  0  0  0  0
    8.5358    0.0699   -1.4877 H   0  0  0  0  0  0  0  0  0  0  0  0
    9.3755    0.8770   -0.1476 H   0  0  0  0  0  0  0  0  0  0  0  0
    7.1479   -0.9188    3.0496 H   0  0  0  0  0  0  0  0  0  0  0  0
    7.9978    0.6069    2.4836 H   0  0  0  0  0  0  0  0  0  0  0  0
    8.1163   -1.9189   -0.1628 H   0  0  0  0  0  0  0  0  0  0  0  0
    9.8676   -1.4757   -0.1959 H   0  0  0  0  0  0  0  0  0  0  0  0
    8.8492   -2.2352    2.0608 H   0  0  0  0  0  0  0  0  0  0  0  0
    9.7546   -0.7153    2.0520 H   0  0  0  0  0  0  0  0  0  0  0  0
    5.3334    2.5631   -0.3789 H   0  0  0  0  0  0  0  0  0  0  0  0
    1.4473   -1.5038   -0.6522 H   0  0  0  0  0  0  0  0  0  0  0  0
   -1.0593   -1.1927   -1.3236 H   0  0  0  0  0  0  0  0  0  0  0  0
   -2.8166    0.5631   -1.5088 H   0  0  0  0  0  0  0  0  0  0  0  0
   -2.4073    1.0941    0.1374 H   0  0  0  0  0  0  0  0  0  0  0  0
    1.8341    1.2738   -1.8699 H   0  0  0  0  0  0  0  0  0  0  0  0
    1.1660   -0.2551   -2.5768 H   0  0  0  0  0  0  0  0  0  0  0  0
    1.4722   -0.4398    1.6114 H   0  0  0  0  0  0  0  0  0  0  0  0
    1.0559    1.1156    0.8575 H   0  0  0  0  0  0  0  0  0  0  0  0
   -0.1864    1.6776   -0.6588 H   0  0  0  0  0  0  0  0  0  0  0  0
   -0.7045    1.1490   -2.2805 H   0  0  0  0  0  0  0  0  0  0  0  0
   -1.0047    0.0975    1.3867 H   0  0  0  0  0  0  0  0  0  0  0  0
   -0.4730   -1.5491    0.9614 H   0  0  0  0  0  0  0  0  0  0  0  0
   -2.7579   -1.1654    1.0423 H   0  0  0  0  0  0  0  0  0  0  0  0
   -3.2320   -1.7685   -0.5855 H   0  0  0  0  0  0  0  0  0  0  0  0
   -4.8438    0.4444   -1.5384 H   0  0  0  0  0  0  0  0  0  0  0  0
   -7.1037    0.1129   -1.8350 H   0  0  0  0  0  0  0  0  0  0  0  0
   -7.7034    1.8197   -0.4903 H   0  0  0  0  0  0  0  0  0  0  0  0
   -6.7695   -2.1901   -0.3258 H   0  0  0  0  0  0  0  0  0  0  0  0
   -8.2568   -1.6960   -1.1531 H   0  0  0  0  0  0  0  0  0  0  0  0
   -7.8698    1.9069    1.7683 H   0  0  0  0  0  0  0  0  0  0  0  0
   -6.8082    0.4209    2.0836 H   0  0  0  0  0  0  0  0  0  0  0  0
   -7.5801   -1.6519    1.7884 H   0  0  0  0  0  0  0  0  0  0  0  0
   -9.2555   -0.0620    2.2879 H   0  0  0  0  0  0  0  0  0  0  0  0
   -9.4084    0.4551    0.5158 H   0  0  0  0  0  0  0  0  0  0  0  0
   -4.8324    3.5282   -0.3164 H   0  0  0  0  0  0  0  0  0  0  0  0
   -6.5414    3.7501    0.1042 H   0  0  0  0  0  0  0  0  0  0  0  0
   -6.0788    3.1138   -1.5069 H   0  0  0  0  0  0  0  0  0  0  0  0
  6  2  1  0
  3  6  1  0
  6  9  1  0
  8 11  1  0
 11 12  1  0
 11 13  1  0
 12 14  1  0
 13 15  1  0
 14 16  1  0
 15 16  1  0
  1 17  1  0
  8 17  1  0
  9 17  1  0
  6 18  1  0
 19 20  1  0
 18 21  1  0
 18 22  1  0
 19 23  1  0
 21 23  1  0
 19 24  1  0
 22 24  1  0
 10 25  1  0
 20 25  1  0
  4 26  1  0
 10 26  1  0
 26 27  1  0
  7 28  1  0
 27 28  1  0
 27 29  1  0
 28 30  1  0
  5 31  1  0
 29 31  1  0
 30 32  1  0
 31 32  1  0
  7 33  1  0
 39 35  1  0
 36 39  1  0
 39 42  1  0
 41 44  1  0
 44 45  1  0
 44 46  1  0
 45 47  1  0
 46 48  1  0
 47 49  1  0
 48 49  1  0
 34 50  1  0
 41 50  1  0
 42 50  1  0
 39 51  1  0
 52 53  1  0
 51 54  1  0
 51 55  1  0
 52 56  1  0
 54 56  1  0
 52 57  1  0
 55 57  1  0
 43 58  1  0
 53 58  1  0
 37 59  1  0
 43 59  1  0
 59 60  1  0
 40 61  1  0
 60 61  1  0
 60 62  1  0
 61 63  1  0
 38 64  1  0
 62 64  1  0
 63 65  1  0
 64 65  1  0
 40 66  1  0
 72 68  1  0
 69 72  1  0
 72 75  1  0
 74 77  1  0
 77 78  1  0
 77 79  1  0
 78 80  1  0
 79 81  1  0
 80 82  1  0
 81 82  1  0
 67 83  1  0
 74 83  1  0
 75 83  1  0
 72 84  1  0
 85 86  1  0
 84 87  1  0
 84 88  1  0
 85 89  1  0
 87 89  1  0
 85 90  1  0
 88 90  1  0
 76 91  1  0
 86 91  1  0
 70 92  1  0
 76 92  1  0
 92 93  1  0
 73 94  1  0
 93 94  1  0
 93 95  1  0
 94 96  1  0
 71 97  1  0
 95 97  1  0
 96 98  1  0
 97 98  1  0
 73 99  1  0
105101  1  0
102105  1  0
105108  1  0
107110  1  0
110111  1  0
110112  1  0
111113  1  0
112114  1  0
113115  1  0
114115  1  0
100116  1  0
107116  1  0
108116  1  0
105117  1  0
118119  1  0
117120  1  0
117121  1  0
118122  1  0
120122  1  0
118123  1  0
121123  1  0
109124  1  0
119124  1  0
103125  1  0
109125  1  0
125126  1  0
106127  1  0
126127  1  0
126128  1  0
127129  1  0
104130  1  0
128130  1  0
129131  1  0
130131  1  0
106132  1  0
  1133  1  0
  2134  1  0
  3135  1  0
  4136  1  0
  8137  1  0
  9138  1  0
 10139  1  0
 11140  1  0
 12141  1  0
 12142  1  0
 13143  1  0
 13144  1  0
 14145  1  0
 14146  1  0
 15147  1  0
 15148  1  0
 16149  1  0
 16150  1  0
 17151  1  0
 18152  1  0
 19153  1  0
 20154  1  0
 20155  1  0
 21156  1  0
 21157  1  0
 22158  1  0
 22159  1  0
 23160  1  0
 23161  1  0
 24162  1  0
 24163  1  0
 25164  1  0
 25165  1  0
 26166  1  0
 27167  1  0
 28168  1  0
 29169  1  0
 29170  1  0
 30171  1  0
 30172  1  0
 31173  1  0
 32174  1  0
 32175  1  0
 33176  1  0
 33177  1  0
 33178  1  0
 34179  1  0
 35180  1  0
 36181  1  0
 37182  1  0
 41183  1  0
 42184  1  0
 43185  1  0
 44186  1  0
 45187  1  0
 45188  1  0
 46189  1  0
 46190  1  0
 47191  1  0
 47192  1  0
 48193  1  0
 48194  1  0
 49195  1  0
 49196  1  0
 50197  1  0
 51198  1  0
 52199  1  0
 53200  1  0
 53201  1  0
 54202  1  0
 54203  1  0
 55204  1  0
 55205  1  0
 56206  1  0
 56207  1  0
 57208  1  0
 57209  1  0
 58210  1  0
 58211  1  0
 59212  1  0
 60213  1  0
 61214  1  0
 62215  1  0
 62216  1  0
 63217  1  0
 63218  1  0
 64219  1  0
 65220  1  0
 65221  1  0
 66222  1  0
 66223  1  0
 66224  1  0
 67225  1  0
 68226  1  0
 69227  1  0
 70228  1  0
 74229  1  0
 75230  1  0
 76231  1  0
 77232  1  0
 78233  1  0
 78234  1  0
 79235  1  0
 79236  1  0
 80237  1  0
 80238  1  0
 81239  1  0
 81240  1  0
 82241  1  0
 82242  1  0
 83243  1  0
 84244  1  0
 85245  1  0
 86246  1  0
 86247  1  0
 87248  1  0
 87249  1  0
 88250  1  0
 88251  1  0
 89252  1  0
 89253  1  0
 90254  1  0
 90255  1  0
 91256  1  0
 91257  1  0
 92258  1  0
 93259  1  0
 94260  1  0
 95261  1  0
 95262  1  0
 96263  1  0
 96264  1  0
 97265  1  0
 98266  1  0
 98267  1  0
 99268  1  0
 99269  1  0
 99270  1  0
100271  1  0
101272  1  0
102273  1  0
103274  1  0
107275  1  0
108276  1  0
109277  1  0
110278  1  0
111279  1  0
111280  1  0
112281  1  0
112282  1  0
113283  1  0
113284  1  0
114285  1  0
114286  1  0
115287  1  0
115288  1  0
116289  1  0
117290  1  0
118291  1  0
119292  1  0
119293  1  0
120294  1  0
120295  1  0
121296  1  0
121297  1  0
122298  1  0
122299  1  0
123300  1  0
123301  1  0
124302  1  0
124303  1  0
125304  1  0
126305  1  0
127306  1  0
128307  1  0
128308  1  0
129309  1  0
129310  1  0
130311  1  0
131312  1  0
131313  1  0
132314  1  0
132315  1  0
132316  1  0
M  END
>  <PDBID>  (1) 
6BAA

>  <PDB ID>  (1) 
6BAA

>  <Generic Name>  (1) 
Glyburide

>  <Brand Name>  (1) 
Apo Glyburide Tab 2.5mg#Apo Glyburide Tab 5mg#Ava-glyburide#Diabeta#Diabeta 5mg#Diabeta Tab 2.5mg#Diabeta Tab 5mg#Diabeta Tablets 2.5mg#Dom-glyburide#Euglucon#Glucovance#Glyburide#Glyburide (micronized) and Metformin Hydrochloride#Glyburide Tablets 2.5mg#Glyburide Tablets 5mg#Glyburide and Metformin#Glyburide and Metformin Hydrochloride#Glyburide-2.5 Tab 2.5mg#Glyburide-5 Tab 5mg#Glyburide-metformin Hydrochloride#Glynase#Med Glybe Tab 2.5mg#Med Glybe Tab 5mg#Mylan-glybe#Ntp-glyburide#Nu-glyburide Tab 2.5mg#Nu-glyburide Tab 5mg#PMS-glyburide#Penta-glyburide - 2.5mg#Penta-glyburide - 5mg#Pro-glyburide#Ratio-glyburide#Riva-glyburide#Sandoz Glyburide#Teva-glyburide#Daonil#Delmide#Micronase#Novo-Glyburide#Semi-Daonil

>  <DrugBank ID>  (1) 
DB01016

>  <ATC Codes>  (1) 
A10BB01

>  <Ligand ID>  (1) 
GBM

>  <Target Name>  (1) 
ATP-sensitive inward rectifier potassium channel 11

>  <UniProt ID>  (1) 
Q14654

>  <PDB ID.1>  (1) 
6BAA

>  <Seq. Identity>  (1) 
94%

$$$$
