PDB_DB00710_09
     RDKit          3D

 46 45  0  0  0  0  0  0  0  0999 V2000
   -2.8296   -0.9589    0.6528 P   0  0  0  0  0  0  0  0  0  0  0  0
   -2.3968   -2.3461   -0.1128 O   0  0  0  0  0  0  0  0  0  0  0  0
   -4.2821   -1.3773    0.2824 O   0  0  0  0  0  0  0  0  0  0  0  0
   -1.4473   -0.9682    1.3199 O   0  0  0  0  0  0  0  0  0  0  0  0
   -2.7262    0.5449   -0.2321 C   0  0  0  0  0  0  0  0  0  0  0  0
   -3.9755    1.6452    0.0802 P   0  0  0  0  0  0  0  0  0  0  0  0
   -5.1223    2.6002    0.3761 O   0  0  0  0  0  0  0  0  0  0  0  0
   -5.0760    0.4803   -0.2587 O   0  0  0  0  0  0  0  0  0  0  0  0
   -3.4113    1.7716    1.6288 O   0  0  0  0  0  0  0  0  0  0  0  0
   -2.8193    0.0966   -1.5996 O   0  0  0  0  0  0  0  0  0  0  0  0
   -1.4170    1.2385   -0.1754 C   0  0  0  0  0  0  0  0  0  0  0  0
   -0.1371    0.8359   -0.6633 C   0  0  0  0  0  0  0  0  0  0  0  0
    0.5357   -0.3631   -0.2642 N   0  0  0  0  0  0  0  0  0  0  0  0
    1.9885   -0.0250   -0.4545 C   0  0  0  0  0  0  0  0  0  0  0  0
    2.8427   -1.1840   -0.0692 C   0  0  0  0  0  0  0  0  0  0  0  0
    4.3105   -0.9137   -0.2346 C   0  0  0  0  0  0  0  0  0  0  0  0
    4.7806    0.2508    0.6095 C   0  0  0  0  0  0  0  0  0  0  0  0
    6.2694    0.4124    0.3480 C   0  0  0  0  0  0  0  0  0  0  0  0
    0.3072   -1.4476   -1.2538 C   0  0  0  0  0  0  0  0  0  0  0  0
   -3.2848   -0.8931    1.9760 H   0  0  0  0  0  0  0  0  0  0  0  0
   -2.4545   -3.1182    0.4522 H   0  0  0  0  0  0  0  0  0  0  0  0
   -4.7121   -2.1249    0.6626 H   0  0  0  0  0  0  0  0  0  0  0  0
   -1.0333   -1.6428    1.8755 H   0  0  0  0  0  0  0  0  0  0  0  0
   -3.5032    2.4808   -0.9096 H   0  0  0  0  0  0  0  0  0  0  0  0
   -4.9339    3.5006    0.6643 H   0  0  0  0  0  0  0  0  0  0  0  0
   -5.2492    0.4928   -1.2066 H   0  0  0  0  0  0  0  0  0  0  0  0
   -2.9509    2.6123    1.7172 H   0  0  0  0  0  0  0  0  0  0  0  0
   -3.5329   -0.5564   -1.6856 H   0  0  0  0  0  0  0  0  0  0  0  0
   -1.5936    2.3372   -0.5880 H   0  0  0  0  0  0  0  0  0  0  0  0
   -1.2388    1.5735    0.9404 H   0  0  0  0  0  0  0  0  0  0  0  0
    0.5762    1.7415   -0.4859 H   0  0  0  0  0  0  0  0  0  0  0  0
   -0.1369    0.8726   -1.8274 H   0  0  0  0  0  0  0  0  0  0  0  0
    2.1155    0.3377   -1.4797 H   0  0  0  0  0  0  0  0  0  0  0  0
    2.1542    0.8128    0.2442 H   0  0  0  0  0  0  0  0  0  0  0  0
    2.5990   -2.1145   -0.6221 H   0  0  0  0  0  0  0  0  0  0  0  0
    2.6995   -1.4543    1.0107 H   0  0  0  0  0  0  0  0  0  0  0  0
    4.6073   -0.6924   -1.2758 H   0  0  0  0  0  0  0  0  0  0  0  0
    4.8708   -1.8082    0.1050 H   0  0  0  0  0  0  0  0  0  0  0  0
    4.5863    0.0889    1.6913 H   0  0  0  0  0  0  0  0  0  0  0  0
    4.2859    1.1666    0.2277 H   0  0  0  0  0  0  0  0  0  0  0  0
    6.7718   -0.5578    0.5113 H   0  0  0  0  0  0  0  0  0  0  0  0
    6.7199    1.1937    0.9944 H   0  0  0  0  0  0  0  0  0  0  0  0
    6.3921    0.6873   -0.7200 H   0  0  0  0  0  0  0  0  0  0  0  0
    1.1612   -1.5559   -1.9463 H   0  0  0  0  0  0  0  0  0  0  0  0
    0.2671   -2.3797   -0.6653 H   0  0  0  0  0  0  0  0  0  0  0  0
   -0.5766   -1.2929   -1.8628 H   0  0  0  0  0  0  0  0  0  0  0  0
  1  2  1  0
  1  3  1  0
  1  4  1  0
  1  5  1  0
  5  6  1  0
  6  7  1  0
  6  8  1  0
  6  9  1  0
  5 10  1  0
  5 11  1  0
 11 12  1  0
 12 13  1  0
 13 14  1  0
 14 15  1  0
 15 16  1  0
 16 17  1  0
 17 18  1  0
 13 19  1  0
  1 20  1  0
  2 21  1  0
  3 22  1  0
  4 23  1  0
  6 24  1  0
  7 25  1  0
  8 26  1  0
  9 27  1  0
 10 28  1  0
 11 29  1  0
 11 30  1  0
 12 31  1  0
 12 32  1  0
 14 33  1  0
 14 34  1  0
 15 35  1  0
 15 36  1  0
 16 37  1  0
 16 38  1  0
 17 39  1  0
 17 40  1  0
 18 41  1  0
 18 42  1  0
 18 43  1  0
 19 44  1  0
 19 45  1  0
 19 46  1  0
M  END
>  <PDBID>  (1) 
2F94

>  <PDB ID>  (1) 
2F94

>  <Generic Name>  (1) 
Ibandronate

>  <Brand Name>  (1) 
Bondronat#Boniva#Ibandronate Sodium#ADRONiL#Bonviva

>  <DrugBank ID>  (1) 
DB00710

>  <ATC Codes>  (1) 
M05BA06

>  <Ligand ID>  (1) 
BFQ

>  <Target Name>  (1) 
Farnesyl pyrophosphate synthase

>  <UniProt ID>  (1) 
P14324

>  <PDB ID.1>  (1) 
2F94

>  <Seq. Identity>  (1) 
100%

$$$$
