PDB_DB01577_00
     RDKit          3D

 32 32  0  0  0  0  0  0  0  0999 V2000
   -3.0363    0.8346    0.2194 N   0  0  0  0  0  0  0  0  0  0  0  0
   -1.7086    0.2713    0.4916 C   0  0  1  0  0  0  0  0  0  0  0  0
   -1.8592   -1.2284    0.4712 C   0  0  0  0  0  0  0  0  0  0  0  0
   -0.7874    0.8202   -0.5274 C   0  0  0  0  0  0  0  0  0  0  0  0
    0.6302    0.4291   -0.4872 C   0  0  0  0  0  0  0  0  0  0  0  0
    1.2938    0.8147    0.8424 C   0  0  0  0  0  0  0  0  0  0  0  0
    0.9719   -1.0047   -0.6992 C   0  0  0  0  0  0  0  0  0  0  0  0
    2.7604    0.5310    0.7883 C   0  0  0  0  0  0  0  0  0  0  0  0
    2.4310   -0.9847   -1.1996 C   0  0  0  0  0  0  0  0  0  0  0  0
    3.2633    0.0267   -0.5213 C   0  0  0  0  0  0  0  0  0  0  0  0
   -3.5420    0.4827   -1.0704 C   0  0  0  0  0  0  0  0  0  0  0  0
   -3.7153    0.5912    0.9604 H   0  0  0  0  0  0  0  0  0  0  0  0
   -1.4467    0.6008    1.5218 H   0  0  0  0  0  0  0  0  0  0  0  0
   -1.1314   -1.6440    1.2085 H   0  0  0  0  0  0  0  0  0  0  0  0
   -2.8816   -1.5263    0.8463 H   0  0  0  0  0  0  0  0  0  0  0  0
   -1.7754   -1.6920   -0.5098 H   0  0  0  0  0  0  0  0  0  0  0  0
   -1.2231    0.5616   -1.5403 H   0  0  0  0  0  0  0  0  0  0  0  0
   -0.8178    1.9504   -0.5296 H   0  0  0  0  0  0  0  0  0  0  0  0
    1.1890    1.0797   -1.2378 H   0  0  0  0  0  0  0  0  0  0  0  0
    0.8253    0.1229    1.5902 H   0  0  0  0  0  0  0  0  0  0  0  0
    1.0245    1.8307    1.1339 H   0  0  0  0  0  0  0  0  0  0  0  0
    0.3785   -1.5356   -1.4604 H   0  0  0  0  0  0  0  0  0  0  0  0
    1.0367   -1.5834    0.2585 H   0  0  0  0  0  0  0  0  0  0  0  0
    3.2873    1.5013    0.9981 H   0  0  0  0  0  0  0  0  0  0  0  0
    3.0621   -0.1437    1.6165 H   0  0  0  0  0  0  0  0  0  0  0  0
    2.3323   -0.7079   -2.2919 H   0  0  0  0  0  0  0  0  0  0  0  0
    2.8208   -2.0133   -1.1879 H   0  0  0  0  0  0  0  0  0  0  0  0
    4.2758   -0.4147   -0.3432 H   0  0  0  0  0  0  0  0  0  0  0  0
    3.4603    0.9118   -1.1927 H   0  0  0  0  0  0  0  0  0  0  0  0
   -3.1479    1.1304   -1.8945 H   0  0  0  0  0  0  0  0  0  0  0  0
   -3.3176   -0.5925   -1.2608 H   0  0  0  0  0  0  0  0  0  0  0  0
   -4.6528    0.5804   -1.0678 H   0  0  0  0  0  0  0  0  0  0  0  0
  1  2  1  0
  2  3  1  0
  2  4  1  0
  4  5  1  0
  5  6  1  0
  5  7  1  0
  6  8  1  0
  7  9  1  0
  8 10  1  0
  9 10  1  0
  1 11  1  0
  1 12  1  0
  2 13  1  1
  3 14  1  0
  3 15  1  0
  3 16  1  0
  4 17  1  0
  4 18  1  0
  5 19  1  0
  6 20  1  0
  6 21  1  0
  7 22  1  0
  7 23  1  0
  8 24  1  0
  8 25  1  0
  9 26  1  0
  9 27  1  0
 10 28  1  0
 10 29  1  0
 11 30  1  0
 11 31  1  0
 11 32  1  0
M  END
>  <PDBID>  (1) 
4XP6

>  <PDB ID>  (1) 
4XP6

>  <Generic Name>  (1) 
Methamphetamine

>  <Brand Name>  (1) 
Desoxyn#Methamphetamine Hydrochloride

>  <DrugBank ID>  (1) 
DB01577

>  <ATC Codes>  (1) 
N06BA03

>  <Ligand ID>  (1) 
B40

>  <Target Name>  (1) 
Sodium-dependent noradrenaline transporter

>  <UniProt ID>  (1) 
P23975

>  <PDB ID.1>  (1) 
4XP6

>  <Seq. Identity>  (1) 
59%

$$$$
