PDB_DB00932_05
     RDKit          3D

 99102  0  0  0  0  0  0  0  0999 V2000
   -2.2327   -0.2434    1.2317 O   0  0  0  0  0  0  0  0  0  0  0  0
   -1.0655    0.4061    0.8305 C   0  0  0  0  0  0  0  0  0  0  0  0
   -0.8672    0.5057   -0.6230 C   0  0  0  0  0  0  0  0  0  0  0  0
   -2.2948    0.5365   -1.2145 C   0  0  0  0  0  0  0  0  0  0  0  0
   -3.0975    1.3750   -0.2021 C   0  0  0  0  0  0  0  0  0  0  0  0
   -3.3493    0.5881    1.0335 C   0  0  2  0  0  0  0  0  0  0  0  0
    0.0391    0.0195    1.5801 O   0  0  0  0  0  0  0  0  0  0  0  0
   -2.3294    1.2359   -2.3947 O   0  0  0  0  0  0  0  0  0  0  0  0
   -3.5347    1.3842    2.2849 C   0  0  0  0  0  0  0  0  0  0  0  0
   -3.7752    0.4734    3.4468 C   0  0  0  0  0  0  0  0  0  0  0  0
   -2.6852   -0.4982    3.7398 C   0  0  0  0  0  0  0  0  0  0  0  0
   -4.5888   -0.2528    0.8266 C   0  0  0  0  0  0  0  0  0  0  0  0
   -5.8220    0.5408    0.6273 C   0  0  0  0  0  0  0  0  0  0  0  0
   -7.0545   -0.3436    0.4293 C   0  0  0  0  0  0  0  0  0  0  0  0
   -6.9659   -1.2353   -0.7650 C   0  0  0  0  0  0  0  0  0  0  0  0
   -7.9378   -0.7775   -1.8645 C   0  0  0  0  0  0  0  0  0  0  0  0
   -7.8258    0.7194   -2.0548 C   0  0  0  0  0  0  0  0  0  0  0  0
   -8.2470    1.4239   -0.8146 C   0  0  0  0  0  0  0  0  0  0  0  0
   -8.3016    0.4883    0.3461 C   0  0  0  0  0  0  0  0  0  0  0  0
    0.0059   -0.4392   -1.3432 C   0  0  2  0  0  0  0  0  0  0  0  0
   -0.2669   -1.8656   -1.3432 C   0  0  0  0  0  0  0  0  0  0  0  0
   -0.2923   -2.6660   -0.1061 C   0  0  0  0  0  0  0  0  0  0  0  0
    1.4767   -0.0615   -1.1223 C   0  0  0  0  0  0  0  0  0  0  0  0
    1.6699    1.3367   -1.6625 C   0  0  0  0  0  0  0  0  0  0  0  0
    2.9367    1.4562   -2.5196 C   0  0  0  0  0  0  0  0  0  0  0  0
    4.0598    0.8858   -1.7327 C   0  0  0  0  0  0  0  0  0  0  0  0
    3.8340   -0.5335   -1.3388 C   0  0  0  0  0  0  0  0  0  0  0  0
    4.8369   -1.4389   -1.7684 N   0  0  0  0  0  0  0  0  0  0  0  0
    2.4386   -0.9211   -1.8625 C   0  0  0  0  0  0  0  0  0  0  0  0
    6.3115   -1.1413   -1.2900 S   0  0  0  0  0  0  0  0  0  0  0  0
    7.0538   -2.8236   -1.8994 O   0  0  0  0  0  0  0  0  0  0  0  0
    7.2184   -0.2330   -2.0732 O   0  0  0  0  0  0  0  0  0  0  0  0
    6.6778   -1.4383    0.3351 C   0  0  1  0  0  0  0  0  0  0  0  0
    8.1175   -1.1927    0.5413 N   0  0  0  0  0  0  0  0  0  0  0  0
    8.3657    0.2444    0.6768 C   0  0  0  0  0  0  0  0  0  0  0  0
    7.9009    0.6593    2.0435 C   0  0  2  0  0  0  0  0  0  0  0  0
    6.7907   -0.2286    2.5487 C   0  0  0  0  0  0  0  0  0  0  0  0
    5.9488   -0.6357    1.3524 C   0  0  0  0  0  0  0  0  0  0  0  0
    7.5182    2.1253    2.0254 C   0  0  0  0  0  0  0  0  0  0  0  0
    8.6183    2.8861    1.6645 F   0  0  0  0  0  0  0  0  0  0  0  0
    7.0464    2.5411    3.2499 F   0  0  0  0  0  0  0  0  0  0  0  0
    6.5379    2.3909    1.0904 F   0  0  0  0  0  0  0  0  0  0  0  0
   -1.2405    1.4658    1.2216 H   0  0  0  0  0  0  0  0  0  0  0  0
   -0.5086    1.5595   -0.8490 H   0  0  0  0  0  0  0  0  0  0  0  0
   -2.7215   -0.4635   -1.2370 H   0  0  0  0  0  0  0  0  0  0  0  0
   -3.9971    1.6677   -0.7723 H   0  0  0  0  0  0  0  0  0  0  0  0
   -2.5652    2.3482   -0.0226 H   0  0  0  0  0  0  0  0  0  0  0  0
    0.5802    0.7449    1.9366 H   0  0  0  0  0  0  0  0  0  0  0  0
   -2.0107    0.6597   -3.1361 H   0  0  0  0  0  0  0  0  0  0  0  0
   -2.6527    2.0088    2.5575 H   0  0  0  0  0  0  0  0  0  0  0  0
   -4.3787    2.1051    2.2474 H   0  0  0  0  0  0  0  0  0  0  0  0
   -4.7380   -0.0717    3.4088 H   0  0  0  0  0  0  0  0  0  0  0  0
   -3.8678    1.1415    4.3535 H   0  0  0  0  0  0  0  0  0  0  0  0
   -2.7941   -1.4518    3.1448 H   0  0  0  0  0  0  0  0  0  0  0  0
   -1.6777   -0.0862    3.7182 H   0  0  0  0  0  0  0  0  0  0  0  0
   -2.8463   -0.8472    4.8026 H   0  0  0  0  0  0  0  0  0  0  0  0
   -4.3801   -0.8370   -0.1169 H   0  0  0  0  0  0  0  0  0  0  0  0
   -4.7000   -1.0291    1.6114 H   0  0  0  0  0  0  0  0  0  0  0  0
   -5.8196    1.2285   -0.2097 H   0  0  0  0  0  0  0  0  0  0  0  0
   -6.0201    1.1681    1.5468 H   0  0  0  0  0  0  0  0  0  0  0  0
   -7.1370   -1.0348    1.3190 H   0  0  0  0  0  0  0  0  0  0  0  0
   -5.9845   -1.2717   -1.2310 H   0  0  0  0  0  0  0  0  0  0  0  0
   -7.2783   -2.2969   -0.5505 H   0  0  0  0  0  0  0  0  0  0  0  0
   -8.9654   -1.0726   -1.6604 H   0  0  0  0  0  0  0  0  0  0  0  0
   -7.6043   -1.2597   -2.7976 H   0  0  0  0  0  0  0  0  0  0  0  0
   -6.8200    1.0206   -2.3734 H   0  0  0  0  0  0  0  0  0  0  0  0
   -8.5564    0.9865   -2.8629 H   0  0  0  0  0  0  0  0  0  0  0  0
   -9.2489    1.9224   -0.9381 H   0  0  0  0  0  0  0  0  0  0  0  0
   -7.4922    2.2302   -0.5942 H   0  0  0  0  0  0  0  0  0  0  0  0
   -9.2005   -0.1674    0.3345 H   0  0  0  0  0  0  0  0  0  0  0  0
   -8.3040    1.1374    1.2703 H   0  0  0  0  0  0  0  0  0  0  0  0
   -0.1143   -0.1124   -2.4402 H   0  0  0  0  0  0  0  0  0  0  0  0
   -1.2780   -2.0228   -1.8425 H   0  0  0  0  0  0  0  0  0  0  0  0
    0.4102   -2.4252   -2.0648 H   0  0  0  0  0  0  0  0  0  0  0  0
   -1.2275   -2.6237    0.4858 H   0  0  0  0  0  0  0  0  0  0  0  0
    0.5438   -2.4476    0.6124 H   0  0  0  0  0  0  0  0  0  0  0  0
   -0.2595   -3.7861   -0.3411 H   0  0  0  0  0  0  0  0  0  0  0  0
    1.7080   -0.0093   -0.0374 H   0  0  0  0  0  0  0  0  0  0  0  0
    0.8504    1.5613   -2.3578 H   0  0  0  0  0  0  0  0  0  0  0  0
    1.8006    2.0898   -0.8646 H   0  0  0  0  0  0  0  0  0  0  0  0
    2.8081    1.0915   -3.5329 H   0  0  0  0  0  0  0  0  0  0  0  0
    3.1629    2.5599   -2.6323 H   0  0  0  0  0  0  0  0  0  0  0  0
    4.9930    1.0454   -2.3114 H   0  0  0  0  0  0  0  0  0  0  0  0
    4.1284    1.4944   -0.7823 H   0  0  0  0  0  0  0  0  0  0  0  0
    3.7204   -0.6438   -0.2212 H   0  0  0  0  0  0  0  0  0  0  0  0
    4.4971   -2.4178   -1.6378 H   0  0  0  0  0  0  0  0  0  0  0  0
    2.3560   -1.9985   -1.6577 H   0  0  0  0  0  0  0  0  0  0  0  0
    2.3605   -0.7985   -2.9588 H   0  0  0  0  0  0  0  0  0  0  0  0
    6.7667   -2.7088   -2.8374 H   0  0  0  0  0  0  0  0  0  0  0  0
    7.8956   -0.5712   -2.6920 H   0  0  0  0  0  0  0  0  0  0  0  0
    6.4973   -2.5217    0.5894 H   0  0  0  0  0  0  0  0  0  0  0  0
    8.3359   -1.6090    1.4779 H   0  0  0  0  0  0  0  0  0  0  0  0
    7.9326    0.8391   -0.1351 H   0  0  0  0  0  0  0  0  0  0  0  0
    9.4805    0.3768    0.5896 H   0  0  0  0  0  0  0  0  0  0  0  0
    8.7588    0.5261    2.7380 H   0  0  0  0  0  0  0  0  0  0  0  0
    7.1525   -1.1297    3.0757 H   0  0  0  0  0  0  0  0  0  0  0  0
    6.1121    0.3749    3.2047 H   0  0  0  0  0  0  0  0  0  0  0  0
    5.6238    0.3104    0.8700 H   0  0  0  0  0  0  0  0  0  0  0  0
    5.0448   -1.2009    1.6726 H   0  0  0  0  0  0  0  0  0  0  0  0
  1  2  1  0
  2  3  1  0
  3  4  1  0
  4  5  1  0
  1  6  1  0
  5  6  1  0
  2  7  1  0
  4  8  1  0
  6  9  1  1
  9 10  1  0
 10 11  1  0
  6 12  1  0
 12 13  1  0
 13 14  1  0
 14 15  1  0
 15 16  1  0
 16 17  1  0
 17 18  1  0
 14 19  1  0
 18 19  1  0
  3 20  1  0
 20 21  1  0
 21 22  1  0
 20 23  1  0
 23 24  1  0
 24 25  1  0
 25 26  1  0
 26 27  1  0
 27 28  1  0
 23 29  1  0
 27 29  1  0
 28 30  1  0
 30 31  1  0
 30 32  1  0
 30 33  1  0
 33 34  1  0
 34 35  1  0
 35 36  1  0
 36 37  1  0
 33 38  1  0
 37 38  1  0
 36 39  1  0
 39 40  1  0
 39 41  1  0
 39 42  1  0
  2 43  1  0
  3 44  1  0
  4 45  1  0
  5 46  1  0
  5 47  1  0
  7 48  1  0
  8 49  1  0
  9 50  1  0
  9 51  1  0
 10 52  1  0
 10 53  1  0
 11 54  1  0
 11 55  1  0
 11 56  1  0
 12 57  1  0
 12 58  1  0
 13 59  1  0
 13 60  1  0
 14 61  1  0
 15 62  1  0
 15 63  1  0
 16 64  1  0
 16 65  1  0
 17 66  1  0
 17 67  1  0
 18 68  1  0
 18 69  1  0
 19 70  1  0
 19 71  1  0
 20 72  1  6
 21 73  1  0
 21 74  1  0
 22 75  1  0
 22 76  1  0
 22 77  1  0
 23 78  1  0
 24 79  1  0
 24 80  1  0
 25 81  1  0
 25 82  1  0
 26 83  1  0
 26 84  1  0
 27 85  1  0
 28 86  1  0
 29 87  1  0
 29 88  1  0
 31 89  1  0
 32 90  1  0
 33 91  1  1
 34 92  1  0
 35 93  1  0
 35 94  1  0
 36 95  1  1
 37 96  1  0
 37 97  1  0
 38 98  1  0
 38 99  1  0
M  END
>  <PDBID>  (1) 
2O4P

>  <PDB ID>  (1) 
2O4P

>  <Generic Name>  (1) 
Tipranavir

>  <Brand Name>  (1) 
Aptivus

>  <DrugBank ID>  (1) 
DB00932

>  <ATC Codes>  (1) 
J05AE09

>  <Ligand ID>  (1) 
TPV

>  <Target Name>  (1) 
Pol polyprotein

>  <UniProt ID>  (1) 
Q72874

>  <PDB ID.1>  (1) 
2O4P

>  <Seq. Identity>  (1) 
98%

$$$$
