PDB_DB01204_07
     RDKit          3D

152156  0  0  0  0  0  0  0  0999 V2000
    8.0455   -2.3071   -0.7360 O   0  0  0  0  0  0  0  0  0  0  0  0
    6.8507   -2.0011    0.0024 C   0  0  0  0  0  0  0  0  0  0  0  0
    5.9573   -3.1754   -0.2148 C   0  0  0  0  0  0  0  0  0  0  0  0
    4.7200   -3.2664    0.3381 N   0  0  0  0  0  0  0  0  0  0  0  0
    3.5392   -2.5848    0.0439 C   0  0  0  0  0  0  0  0  0  0  0  0
    3.5696   -1.1317    0.3720 C   0  0  0  0  0  0  0  0  0  0  0  0
    2.4285   -0.3356    0.2458 N   0  0  0  0  0  0  0  0  0  0  0  0
    1.3564   -0.3004    1.1452 C   0  0  0  0  0  0  0  0  0  0  0  0
    0.5320   -1.4944    1.3077 C   0  0  0  0  0  0  0  0  0  0  0  0
   -0.4959   -1.5410    0.1673 C   0  0  0  0  0  0  0  0  0  0  0  0
    0.5732    0.9903    1.0022 C   0  0  0  0  0  0  0  0  0  0  0  0
    1.3564    1.8894    0.0294 C   0  0  0  0  0  0  0  0  0  0  0  0
    2.6472    2.0539    0.5088 O   0  0  0  0  0  0  0  0  0  0  0  0
    0.6440    3.2136    0.1076 C   0  0  0  0  0  0  0  0  0  0  0  0
    1.3804    4.3710   -0.4693 C   0  0  0  0  0  0  0  0  0  0  0  0
    2.2322    4.8781    0.5108 O   0  0  0  0  0  0  0  0  0  0  0  0
    0.3596    5.4479   -0.7924 C   0  0  0  0  0  0  0  0  0  0  0  0
   -0.8511    5.3556    0.1041 C   0  0  0  0  0  0  0  0  0  0  0  0
   -1.5980    4.0498   -0.0092 C   0  0  0  0  0  0  0  0  0  0  0  0
   -2.8358    4.1353   -0.5980 O   0  0  0  0  0  0  0  0  0  0  0  0
   -0.6471    3.0715   -0.6639 C   0  0  0  0  0  0  0  0  0  0  0  0
   -1.1482    1.6621   -0.6942 C   0  0  0  0  0  0  0  0  0  0  0  0
   -0.7417    0.9793   -1.8244 O   0  0  0  0  0  0  0  0  0  0  0  0
   -0.8292    0.9198    0.5962 C   0  0  0  0  0  0  0  0  0  0  0  0
   -1.4496   -0.4295    0.4949 C   0  0  0  0  0  0  0  0  0  0  0  0
   -2.6732   -0.5243   -0.1796 N   0  0  0  0  0  0  0  0  0  0  0  0
   -3.6667   -1.4367    0.1176 C   0  0  0  0  0  0  0  0  0  0  0  0
   -3.5900   -2.8913   -0.0854 C   0  0  0  0  0  0  0  0  0  0  0  0
   -4.8838   -3.4462    0.3820 N   0  0  0  0  0  0  0  0  0  0  0  0
   -6.0062   -3.1322   -0.4136 C   0  0  0  0  0  0  0  0  0  0  0  0
   -7.2277   -3.7438    0.3303 C   0  0  0  0  0  0  0  0  0  0  0  0
   -7.0540   -5.1049    0.4424 O   0  0  0  0  0  0  0  0  0  0  0  0
    8.0455   -2.3071   -0.7360 O   0  0  0  0  0  0  0  0  0  0  0  0
    6.8507   -2.0011    0.0024 C   0  0  0  0  0  0  0  0  0  0  0  0
    5.9573   -3.1754   -0.2148 C   0  0  0  0  0  0  0  0  0  0  0  0
    4.7200   -3.2664    0.3381 N   0  0  0  0  0  0  0  0  0  0  0  0
    3.5392   -2.5848    0.0439 C   0  0  0  0  0  0  0  0  0  0  0  0
    3.5696   -1.1317    0.3720 C   0  0  0  0  0  0  0  0  0  0  0  0
    2.4285   -0.3356    0.2458 N   0  0  0  0  0  0  0  0  0  0  0  0
    1.3564   -0.3004    1.1452 C   0  0  0  0  0  0  0  0  0  0  0  0
    0.5320   -1.4944    1.3077 C   0  0  0  0  0  0  0  0  0  0  0  0
   -0.4959   -1.5410    0.1673 C   0  0  0  0  0  0  0  0  0  0  0  0
    0.5732    0.9903    1.0022 C   0  0  0  0  0  0  0  0  0  0  0  0
    1.3564    1.8894    0.0294 C   0  0  0  0  0  0  0  0  0  0  0  0
    2.6472    2.0539    0.5088 O   0  0  0  0  0  0  0  0  0  0  0  0
    0.6440    3.2136    0.1076 C   0  0  0  0  0  0  0  0  0  0  0  0
    1.3804    4.3710   -0.4693 C   0  0  0  0  0  0  0  0  0  0  0  0
    2.2322    4.8781    0.5108 O   0  0  0  0  0  0  0  0  0  0  0  0
    0.3596    5.4479   -0.7924 C   0  0  0  0  0  0  0  0  0  0  0  0
   -0.8511    5.3556    0.1041 C   0  0  0  0  0  0  0  0  0  0  0  0
   -1.5980    4.0498   -0.0092 C   0  0  0  0  0  0  0  0  0  0  0  0
   -2.8358    4.1353   -0.5980 O   0  0  0  0  0  0  0  0  0  0  0  0
   -0.6471    3.0715   -0.6639 C   0  0  0  0  0  0  0  0  0  0  0  0
   -1.1482    1.6621   -0.6942 C   0  0  0  0  0  0  0  0  0  0  0  0
   -0.7417    0.9793   -1.8244 O   0  0  0  0  0  0  0  0  0  0  0  0
   -0.8292    0.9198    0.5962 C   0  0  0  0  0  0  0  0  0  0  0  0
   -1.4496   -0.4295    0.4949 C   0  0  0  0  0  0  0  0  0  0  0  0
   -2.6732   -0.5243   -0.1796 N   0  0  0  0  0  0  0  0  0  0  0  0
   -3.6667   -1.4367    0.1176 C   0  0  0  0  0  0  0  0  0  0  0  0
   -3.5900   -2.8913   -0.0854 C   0  0  0  0  0  0  0  0  0  0  0  0
   -4.8838   -3.4462    0.3820 N   0  0  0  0  0  0  0  0  0  0  0  0
   -6.0062   -3.1322   -0.4136 C   0  0  0  0  0  0  0  0  0  0  0  0
   -7.2277   -3.7438    0.3303 C   0  0  0  0  0  0  0  0  0  0  0  0
   -7.0540   -5.1049    0.4424 O   0  0  0  0  0  0  0  0  0  0  0  0
    8.8216   -1.9404   -0.2352 H   0  0  0  0  0  0  0  0  0  0  0  0
    7.1982   -1.9823    1.0611 H   0  0  0  0  0  0  0  0  0  0  0  0
    6.5548   -1.0377   -0.3755 H   0  0  0  0  0  0  0  0  0  0  0  0
    5.9126   -3.3635   -1.3436 H   0  0  0  0  0  0  0  0  0  0  0  0
    6.5856   -4.0767    0.1544 H   0  0  0  0  0  0  0  0  0  0  0  0
    4.6945   -3.8502    1.2111 H   0  0  0  0  0  0  0  0  0  0  0  0
    3.4316   -2.6790   -1.1225 H   0  0  0  0  0  0  0  0  0  0  0  0
    2.6171   -3.1257    0.3471 H   0  0  0  0  0  0  0  0  0  0  0  0
    3.9869   -0.9678    1.4149 H   0  0  0  0  0  0  0  0  0  0  0  0
    4.4059   -0.6933   -0.3084 H   0  0  0  0  0  0  0  0  0  0  0  0
    2.1567   -0.3313   -0.7705 H   0  0  0  0  0  0  0  0  0  0  0  0
    1.8857   -0.2099    2.1950 H   0  0  0  0  0  0  0  0  0  0  0  0
    1.0264   -2.4045    1.5229 H   0  0  0  0  0  0  0  0  0  0  0  0
   -0.1180   -1.2820    2.2616 H   0  0  0  0  0  0  0  0  0  0  0  0
   -0.0025   -1.2254   -0.7906 H   0  0  0  0  0  0  0  0  0  0  0  0
   -0.9550   -2.5019    0.1035 H   0  0  0  0  0  0  0  0  0  0  0  0
    0.6575    1.5266    1.9671 H   0  0  0  0  0  0  0  0  0  0  0  0
    1.3442    1.4633   -0.9841 H   0  0  0  0  0  0  0  0  0  0  0  0
    3.1899    2.6689   -0.0337 H   0  0  0  0  0  0  0  0  0  0  0  0
    0.3770    3.3930    1.1752 H   0  0  0  0  0  0  0  0  0  0  0  0
    1.9337    4.1606   -1.4058 H   0  0  0  0  0  0  0  0  0  0  0  0
    2.9673    5.3989    0.1462 H   0  0  0  0  0  0  0  0  0  0  0  0
    0.8291    6.4289   -0.5559 H   0  0  0  0  0  0  0  0  0  0  0  0
    0.0931    5.4784   -1.8618 H   0  0  0  0  0  0  0  0  0  0  0  0
   -1.5670    6.1413   -0.2173 H   0  0  0  0  0  0  0  0  0  0  0  0
   -0.5323    5.5761    1.1256 H   0  0  0  0  0  0  0  0  0  0  0  0
   -1.7315    3.6878    1.0549 H   0  0  0  0  0  0  0  0  0  0  0  0
   -2.7847    4.2124   -1.5798 H   0  0  0  0  0  0  0  0  0  0  0  0
   -0.4620    3.4073   -1.6970 H   0  0  0  0  0  0  0  0  0  0  0  0
   -2.2680    1.7401   -0.7393 H   0  0  0  0  0  0  0  0  0  0  0  0
   -1.2438    1.3898   -2.5979 H   0  0  0  0  0  0  0  0  0  0  0  0
   -1.4655    1.4957    1.3558 H   0  0  0  0  0  0  0  0  0  0  0  0
   -1.6706   -0.6868    1.6460 H   0  0  0  0  0  0  0  0  0  0  0  0
   -2.6612   -0.1613   -1.1684 H   0  0  0  0  0  0  0  0  0  0  0  0
   -4.1094   -1.2552    1.1557 H   0  0  0  0  0  0  0  0  0  0  0  0
   -4.5732   -1.1006   -0.5302 H   0  0  0  0  0  0  0  0  0  0  0  0
   -2.8795   -3.4279    0.6284 H   0  0  0  0  0  0  0  0  0  0  0  0
   -3.4490   -3.2436   -1.1046 H   0  0  0  0  0  0  0  0  0  0  0  0
   -5.0029   -3.0744    1.3503 H   0  0  0  0  0  0  0  0  0  0  0  0
   -5.9370   -3.6351   -1.4043 H   0  0  0  0  0  0  0  0  0  0  0  0
   -6.2589   -2.0711   -0.5634 H   0  0  0  0  0  0  0  0  0  0  0  0
   -8.1020   -3.4955   -0.2801 H   0  0  0  0  0  0  0  0  0  0  0  0
   -7.3197   -3.2430    1.3227 H   0  0  0  0  0  0  0  0  0  0  0  0
   -6.0697   -5.2741    0.5367 H   0  0  0  0  0  0  0  0  0  0  0  0
    8.8216   -1.9404   -0.2352 H   0  0  0  0  0  0  0  0  0  0  0  0
    7.1982   -1.9823    1.0611 H   0  0  0  0  0  0  0  0  0  0  0  0
    6.5548   -1.0377   -0.3755 H   0  0  0  0  0  0  0  0  0  0  0  0
    5.9126   -3.3635   -1.3436 H   0  0  0  0  0  0  0  0  0  0  0  0
    6.5856   -4.0767    0.1544 H   0  0  0  0  0  0  0  0  0  0  0  0
    4.6945   -3.8502    1.2111 H   0  0  0  0  0  0  0  0  0  0  0  0
    3.4316   -2.6790   -1.1225 H   0  0  0  0  0  0  0  0  0  0  0  0
    2.6171   -3.1257    0.3471 H   0  0  0  0  0  0  0  0  0  0  0  0
    3.9869   -0.9678    1.4149 H   0  0  0  0  0  0  0  0  0  0  0  0
    4.4059   -0.6933   -0.3084 H   0  0  0  0  0  0  0  0  0  0  0  0
    2.1567   -0.3313   -0.7705 H   0  0  0  0  0  0  0  0  0  0  0  0
    1.8857   -0.2099    2.1950 H   0  0  0  0  0  0  0  0  0  0  0  0
    1.0264   -2.4045    1.5229 H   0  0  0  0  0  0  0  0  0  0  0  0
   -0.1180   -1.2820    2.2616 H   0  0  0  0  0  0  0  0  0  0  0  0
   -0.0025   -1.2254   -0.7906 H   0  0  0  0  0  0  0  0  0  0  0  0
   -0.9550   -2.5019    0.1035 H   0  0  0  0  0  0  0  0  0  0  0  0
    0.6575    1.5266    1.9671 H   0  0  0  0  0  0  0  0  0  0  0  0
    1.3442    1.4633   -0.9841 H   0  0  0  0  0  0  0  0  0  0  0  0
    3.1899    2.6689   -0.0337 H   0  0  0  0  0  0  0  0  0  0  0  0
    0.3770    3.3930    1.1752 H   0  0  0  0  0  0  0  0  0  0  0  0
    1.9337    4.1606   -1.4058 H   0  0  0  0  0  0  0  0  0  0  0  0
    2.9673    5.3989    0.1462 H   0  0  0  0  0  0  0  0  0  0  0  0
    0.8291    6.4289   -0.5559 H   0  0  0  0  0  0  0  0  0  0  0  0
    0.0931    5.4784   -1.8618 H   0  0  0  0  0  0  0  0  0  0  0  0
   -1.5670    6.1413   -0.2173 H   0  0  0  0  0  0  0  0  0  0  0  0
   -0.5323    5.5761    1.1256 H   0  0  0  0  0  0  0  0  0  0  0  0
   -1.7315    3.6878    1.0549 H   0  0  0  0  0  0  0  0  0  0  0  0
   -2.7847    4.2124   -1.5798 H   0  0  0  0  0  0  0  0  0  0  0  0
   -0.4620    3.4073   -1.6970 H   0  0  0  0  0  0  0  0  0  0  0  0
   -2.2680    1.7401   -0.7393 H   0  0  0  0  0  0  0  0  0  0  0  0
   -1.2438    1.3898   -2.5979 H   0  0  0  0  0  0  0  0  0  0  0  0
   -1.4655    1.4957    1.3558 H   0  0  0  0  0  0  0  0  0  0  0  0
   -1.6706   -0.6868    1.6460 H   0  0  0  0  0  0  0  0  0  0  0  0
   -2.6612   -0.1613   -1.1684 H   0  0  0  0  0  0  0  0  0  0  0  0
   -4.1094   -1.2552    1.1557 H   0  0  0  0  0  0  0  0  0  0  0  0
   -4.5732   -1.1006   -0.5302 H   0  0  0  0  0  0  0  0  0  0  0  0
   -2.8795   -3.4279    0.6284 H   0  0  0  0  0  0  0  0  0  0  0  0
   -3.4490   -3.2436   -1.1046 H   0  0  0  0  0  0  0  0  0  0  0  0
   -5.0029   -3.0744    1.3503 H   0  0  0  0  0  0  0  0  0  0  0  0
   -5.9370   -3.6351   -1.4043 H   0  0  0  0  0  0  0  0  0  0  0  0
   -6.2589   -2.0711   -0.5634 H   0  0  0  0  0  0  0  0  0  0  0  0
   -8.1020   -3.4955   -0.2801 H   0  0  0  0  0  0  0  0  0  0  0  0
   -7.3197   -3.2430    1.3227 H   0  0  0  0  0  0  0  0  0  0  0  0
   -6.0697   -5.2741    0.5367 H   0  0  0  0  0  0  0  0  0  0  0  0
  1  2  1  0
  2  3  1  0
  3  4  1  0
  4  5  1  0
  5  6  1  0
  6  7  1  0
  7  8  1  0
  8  9  1  0
  9 10  1  0
  8 11  1  0
 11 12  1  0
 12 13  1  0
 12 14  1  0
 14 15  1  0
 15 16  1  0
 15 17  1  0
 17 18  1  0
 18 19  1  0
 19 20  1  0
 14 21  1  0
 19 21  1  0
 21 22  1  0
 22 23  1  0
 11 24  1  0
 22 24  1  0
 10 25  1  0
 24 25  1  0
 25 26  1  0
 26 27  1  0
 27 28  1  0
 28 29  1  0
 29 30  1  0
 30 31  1  0
 31 32  1  0
 33 34  1  0
 34 35  1  0
 35 36  1  0
 36 37  1  0
 37 38  1  0
 38 39  1  0
 39 40  1  0
 40 41  1  0
 41 42  1  0
 40 43  1  0
 43 44  1  0
 44 45  1  0
 44 46  1  0
 46 47  1  0
 47 48  1  0
 47 49  1  0
 49 50  1  0
 50 51  1  0
 51 52  1  0
 46 53  1  0
 51 53  1  0
 53 54  1  0
 54 55  1  0
 43 56  1  0
 54 56  1  0
 42 57  1  0
 56 57  1  0
 57 58  1  0
 58 59  1  0
 59 60  1  0
 60 61  1  0
 61 62  1  0
 62 63  1  0
 63 64  1  0
  1 65  1  0
  2 66  1  0
  2 67  1  0
  3 68  1  0
  3 69  1  0
  4 70  1  0
  5 71  1  0
  5 72  1  0
  6 73  1  0
  6 74  1  0
  7 75  1  0
  8 76  1  0
  9 77  1  0
  9 78  1  0
 10 79  1  0
 10 80  1  0
 11 81  1  0
 12 82  1  0
 13 83  1  0
 14 84  1  0
 15 85  1  0
 16 86  1  0
 17 87  1  0
 17 88  1  0
 18 89  1  0
 18 90  1  0
 19 91  1  0
 20 92  1  0
 21 93  1  0
 22 94  1  0
 23 95  1  0
 24 96  1  0
 25 97  1  0
 26 98  1  0
 27 99  1  0
 27100  1  0
 28101  1  0
 28102  1  0
 29103  1  0
 30104  1  0
 30105  1  0
 31106  1  0
 31107  1  0
 32108  1  0
 33109  1  0
 34110  1  0
 34111  1  0
 35112  1  0
 35113  1  0
 36114  1  0
 37115  1  0
 37116  1  0
 38117  1  0
 38118  1  0
 39119  1  0
 40120  1  0
 41121  1  0
 41122  1  0
 42123  1  0
 42124  1  0
 43125  1  0
 44126  1  0
 45127  1  0
 46128  1  0
 47129  1  0
 48130  1  0
 49131  1  0
 49132  1  0
 50133  1  0
 50134  1  0
 51135  1  0
 52136  1  0
 53137  1  0
 54138  1  0
 55139  1  0
 56140  1  0
 57141  1  0
 58142  1  0
 59143  1  0
 59144  1  0
 60145  1  0
 60146  1  0
 61147  1  0
 62148  1  0
 62149  1  0
 63150  1  0
 63151  1  0
 64152  1  0
M  END
>  <PDBID>  (1) 
4G0V

>  <PDB ID>  (1) 
4G0V

>  <Generic Name>  (1) 
Mitoxantrone

>  <Brand Name>  (1) 
Mitoxantrone#Mitoxantrone Hydrochloride#Mitoxantrone Injection#Mitoxantrone Injection USP#Novantrone#Novantrone Inj 2mg/ml

>  <DrugBank ID>  (1) 
DB01204

>  <ATC Codes>  (1) 
L01DB07

>  <Ligand ID>  (1) 
MIX

>  <Target Name>  (1) 
DNA topoisomerase 2-alpha

>  <UniProt ID>  (1) 
P11388

>  <PDB ID.1>  (1) 
4G0V

>  <Seq. Identity>  (1) 
78%

$$$$
