PDB_DB08877_04
     RDKit          3D

114120  0  0  0  0  0  0  0  0999 V2000
   -2.5595   -1.6372    0.8057 C   0  0  0  0  0  0  0  0  0  0  0  0
   -3.6015   -2.7015    0.6380 C   0  0  0  0  0  0  0  0  0  0  0  0
   -4.8399   -1.9971    0.2217 C   0  0  0  0  0  0  0  0  0  0  0  0
   -4.2866   -0.8626   -0.6583 C   0  0  0  0  0  0  0  0  0  0  0  0
   -3.0645   -0.4226    0.1365 C   0  0  0  0  0  0  0  0  0  0  0  0
   -2.1268    0.4013   -0.6530 C   0  0  1  0  0  0  0  0  0  0  0  0
   -2.8315    1.6037   -1.2917 C   0  0  0  0  0  0  0  0  0  0  0  0
   -3.4613    2.5112   -0.2867 C   0  0  0  0  0  0  0  0  0  0  0  0
   -4.1161    3.6532   -0.9415 N   0  0  0  0  0  0  0  0  0  0  0  0
   -0.9861    0.8943    0.0221 N   0  0  0  0  0  0  0  0  0  0  0  0
   -0.0317   -0.0522    0.5178 C   0  0  0  0  0  0  0  0  0  0  0  0
   -0.3231    1.9168   -0.6465 N   0  0  0  0  0  0  0  0  0  0  0  0
    1.1205    1.6650   -0.5165 C   0  0  0  0  0  0  0  0  0  0  0  0
    1.1704    0.8522    0.7398 C   0  0  0  0  0  0  0  0  0  0  0  0
    2.4388    0.1546    1.0087 C   0  0  0  0  0  0  0  0  0  0  0  0
    3.4969    1.1222    1.2012 N   0  0  0  0  0  0  0  0  0  0  0  0
    4.6345    0.4491    1.7385 C   0  0  0  0  0  0  0  0  0  0  0  0
    5.0779   -0.6688    0.9501 N   0  0  0  0  0  0  0  0  0  0  0  0
    4.0394   -1.6323    0.6918 C   0  0  0  0  0  0  0  0  0  0  0  0
    2.8326   -0.9135    0.0641 C   0  0  0  0  0  0  0  0  0  0  0  0
    3.4267   -0.4656   -1.2316 C   0  0  0  0  0  0  0  0  0  0  0  0
    4.6786   -1.3222   -1.4255 C   0  0  0  0  0  0  0  0  0  0  0  0
    4.4784   -2.4056   -0.4787 N   0  0  0  0  0  0  0  0  0  0  0  0
   -2.6694   -1.6231    0.8345 C   0  0  0  0  0  0  0  0  0  0  0  0
   -2.5986   -2.3546   -0.5140 C   0  0  0  0  0  0  0  0  0  0  0  0
   -4.0217   -2.0694   -1.0088 C   0  0  0  0  0  0  0  0  0  0  0  0
   -4.2152   -0.6356   -0.5975 C   0  0  0  0  0  0  0  0  0  0  0  0
   -3.1259   -0.2825    0.3940 C   0  0  0  0  0  0  0  0  0  0  0  0
   -2.1008    0.6260   -0.1828 C   0  0  1  0  0  0  0  0  0  0  0  0
   -2.7463    1.9613   -0.5828 C   0  0  0  0  0  0  0  0  0  0  0  0
   -3.3755    2.6658    0.5826 C   0  0  0  0  0  0  0  0  0  0  0  0
   -3.9747    3.9387    0.1536 N   0  0  0  0  0  0  0  0  0  0  0  0
   -0.9407    0.8968    0.5018 N   0  0  0  0  0  0  0  0  0  0  0  0
    0.0392   -0.0211    0.8284 C   0  0  0  0  0  0  0  0  0  0  0  0
   -0.5014    2.1883    0.6182 N   0  0  0  0  0  0  0  0  0  0  0  0
    0.8254    2.0854   -0.0204 C   0  0  0  0  0  0  0  0  0  0  0  0
    1.3346    0.7749    0.5613 C   0  0  0  0  0  0  0  0  0  0  0  0
    2.1643    0.0741   -0.4701 C   0  0  1  0  0  0  0  0  0  0  0  0
    3.3658    0.8377   -0.7095 N   0  0  0  0  0  0  0  0  0  0  0  0
    4.2306    0.9321    0.4040 C   0  0  0  0  0  0  0  0  0  0  0  0
    4.5031   -0.2503    1.1211 N   0  0  0  0  0  0  0  0  0  0  0  0
    3.6004   -1.3145    1.0605 C   0  0  0  0  0  0  0  0  0  0  0  0
    2.5909   -1.2966   -0.0376 C   0  0  0  0  0  0  0  0  0  0  0  0
    3.3207   -1.9454   -1.2199 C   0  0  0  0  0  0  0  0  0  0  0  0
    4.6806   -2.2840   -0.6550 C   0  0  0  0  0  0  0  0  0  0  0  0
    4.3475   -2.5440    0.7469 N   0  0  0  0  0  0  0  0  0  0  0  0
   -2.4189   -1.4176    1.9084 H   0  0  0  0  0  0  0  0  0  0  0  0
   -1.6160   -2.0662    0.3915 H   0  0  0  0  0  0  0  0  0  0  0  0
   -3.7274   -3.3257    1.5504 H   0  0  0  0  0  0  0  0  0  0  0  0
   -3.2841   -3.3546   -0.2271 H   0  0  0  0  0  0  0  0  0  0  0  0
   -5.5397   -2.6227   -0.3709 H   0  0  0  0  0  0  0  0  0  0  0  0
   -5.3177   -1.5268    1.0931 H   0  0  0  0  0  0  0  0  0  0  0  0
   -4.0368   -1.3100   -1.6211 H   0  0  0  0  0  0  0  0  0  0  0  0
   -5.0831   -0.0934   -0.6839 H   0  0  0  0  0  0  0  0  0  0  0  0
   -3.5040    0.2739    0.9271 H   0  0  0  0  0  0  0  0  0  0  0  0
   -1.7460   -0.1894   -1.5419 H   0  0  0  0  0  0  0  0  0  0  0  0
   -2.0427    2.1694   -1.8262 H   0  0  0  0  0  0  0  0  0  0  0  0
   -3.5846    1.2971   -2.0244 H   0  0  0  0  0  0  0  0  0  0  0  0
   -2.7646    2.8863    0.4851 H   0  0  0  0  0  0  0  0  0  0  0  0
   -4.3202    1.9856    0.2288 H   0  0  0  0  0  0  0  0  0  0  0  0
   -4.2469    4.4454   -0.2545 H   0  0  0  0  0  0  0  0  0  0  0  0
   -3.5257    3.9071   -1.7507 H   0  0  0  0  0  0  0  0  0  0  0  0
   -0.2672   -0.4844    1.5059 H   0  0  0  0  0  0  0  0  0  0  0  0
    0.2339   -0.8082   -0.2600 H   0  0  0  0  0  0  0  0  0  0  0  0
   -0.4818    2.8558   -0.1779 H   0  0  0  0  0  0  0  0  0  0  0  0
    1.4182    1.1331   -1.4199 H   0  0  0  0  0  0  0  0  0  0  0  0
    1.6812    2.6116   -0.4091 H   0  0  0  0  0  0  0  0  0  0  0  0
    0.9190    1.5145    1.5908 H   0  0  0  0  0  0  0  0  0  0  0  0
    2.3281   -0.3437    2.0161 H   0  0  0  0  0  0  0  0  0  0  0  0
    3.6715    1.7240    0.3990 H   0  0  0  0  0  0  0  0  0  0  0  0
    4.4243    0.1751    2.8068 H   0  0  0  0  0  0  0  0  0  0  0  0
    5.4934    1.1614    1.7909 H   0  0  0  0  0  0  0  0  0  0  0  0
    5.8313   -1.1521    1.4774 H   0  0  0  0  0  0  0  0  0  0  0  0
    3.7606   -2.2525    1.5360 H   0  0  0  0  0  0  0  0  0  0  0  0
    2.0598   -1.6811   -0.0344 H   0  0  0  0  0  0  0  0  0  0  0  0
    2.7382   -0.7648   -2.0636 H   0  0  0  0  0  0  0  0  0  0  0  0
    3.7472    0.5688   -1.2787 H   0  0  0  0  0  0  0  0  0  0  0  0
    4.7780   -1.6740   -2.4695 H   0  0  0  0  0  0  0  0  0  0  0  0
    5.5649   -0.7521   -1.0805 H   0  0  0  0  0  0  0  0  0  0  0  0
    3.6917   -3.0323   -0.8191 H   0  0  0  0  0  0  0  0  0  0  0  0
   -3.5397   -2.1240    1.3572 H   0  0  0  0  0  0  0  0  0  0  0  0
   -1.7762   -1.6993    1.4280 H   0  0  0  0  0  0  0  0  0  0  0  0
   -2.4175   -3.4294   -0.3849 H   0  0  0  0  0  0  0  0  0  0  0  0
   -1.8642   -1.8664   -1.1861 H   0  0  0  0  0  0  0  0  0  0  0  0
   -4.1303   -2.2589   -2.0770 H   0  0  0  0  0  0  0  0  0  0  0  0
   -4.6678   -2.7533   -0.3839 H   0  0  0  0  0  0  0  0  0  0  0  0
   -4.1685   -0.0246   -1.5197 H   0  0  0  0  0  0  0  0  0  0  0  0
   -5.2256   -0.5403   -0.1548 H   0  0  0  0  0  0  0  0  0  0  0  0
   -3.6472    0.1838    1.2805 H   0  0  0  0  0  0  0  0  0  0  0  0
   -1.8244    0.1688   -1.1842 H   0  0  0  0  0  0  0  0  0  0  0  0
   -1.8850    2.6198   -0.9040 H   0  0  0  0  0  0  0  0  0  0  0  0
   -3.3897    1.8708   -1.4536 H   0  0  0  0  0  0  0  0  0  0  0  0
   -2.6344    2.9477    1.3556 H   0  0  0  0  0  0  0  0  0  0  0  0
   -4.1916    2.1127    1.0727 H   0  0  0  0  0  0  0  0  0  0  0  0
   -4.6304    3.7980   -0.6367 H   0  0  0  0  0  0  0  0  0  0  0  0
   -3.2258    4.6273   -0.0956 H   0  0  0  0  0  0  0  0  0  0  0  0
    0.1494   -0.3889    1.8440 H   0  0  0  0  0  0  0  0  0  0  0  0
    0.0372   -0.9184    0.1442 H   0  0  0  0  0  0  0  0  0  0  0  0
   -0.3135    2.4299    1.6185 H   0  0  0  0  0  0  0  0  0  0  0  0
    1.4721    2.9367    0.2551 H   0  0  0  0  0  0  0  0  0  0  0  0
    0.6856    1.9546   -1.1132 H   0  0  0  0  0  0  0  0  0  0  0  0
    1.8721    1.0129    1.4771 H   0  0  0  0  0  0  0  0  0  0  0  0
    1.6110    0.0036   -1.4090 H   0  0  0  0  0  0  0  0  0  0  0  0
    3.0854    1.7943   -1.0186 H   0  0  0  0  0  0  0  0  0  0  0  0
    3.8357    1.7123    1.0982 H   0  0  0  0  0  0  0  0  0  0  0  0
    5.2120    1.3497    0.0360 H   0  0  0  0  0  0  0  0  0  0  0  0
    5.5141   -0.5046    1.1906 H   0  0  0  0  0  0  0  0  0  0  0  0
    3.1360   -1.4987    2.0512 H   0  0  0  0  0  0  0  0  0  0  0  0
    1.7747   -1.9729    0.2249 H   0  0  0  0  0  0  0  0  0  0  0  0
    2.7925   -2.8275   -1.5983 H   0  0  0  0  0  0  0  0  0  0  0  0
    3.4379   -1.2327   -2.0574 H   0  0  0  0  0  0  0  0  0  0  0  0
    5.1682   -3.1298   -1.1431 H   0  0  0  0  0  0  0  0  0  0  0  0
    5.2738   -1.3392   -0.6833 H   0  0  0  0  0  0  0  0  0  0  0  0
    3.7413   -3.3736    0.7614 H   0  0  0  0  0  0  0  0  0  0  0  0
  1  2  1  0
  2  3  1  0
  3  4  1  0
  1  5  1  0
  4  5  1  0
  5  6  1  0
  6  7  1  0
  7  8  1  0
  8  9  1  0
  6 10  1  0
 10 11  1  0
 10 12  1  0
 12 13  1  0
 11 14  1  0
 13 14  1  0
 14 15  1  0
 15 16  1  0
 16 17  1  0
 17 18  1  0
 18 19  1  0
 15 20  1  0
 19 20  1  0
 20 21  1  0
 21 22  1  0
 19 23  1  0
 22 23  1  0
 24 25  1  0
 25 26  1  0
 26 27  1  0
 24 28  1  0
 27 28  1  0
 28 29  1  0
 29 30  1  0
 30 31  1  0
 31 32  1  0
 29 33  1  0
 33 34  1  0
 33 35  1  0
 35 36  1  0
 34 37  1  0
 36 37  1  0
 37 38  1  0
 38 39  1  0
 39 40  1  0
 40 41  1  0
 41 42  1  0
 38 43  1  0
 42 43  1  0
 43 44  1  0
 44 45  1  0
 42 46  1  0
 45 46  1  0
  1 47  1  0
  1 48  1  0
  2 49  1  0
  2 50  1  0
  3 51  1  0
  3 52  1  0
  4 53  1  0
  4 54  1  0
  5 55  1  0
  6 56  1  6
  7 57  1  0
  7 58  1  0
  8 59  1  0
  8 60  1  0
  9 61  1  0
  9 62  1  0
 11 63  1  0
 11 64  1  0
 12 65  1  0
 13 66  1  0
 13 67  1  0
 14 68  1  0
 15 69  1  0
 16 70  1  0
 17 71  1  0
 17 72  1  0
 18 73  1  0
 19 74  1  0
 20 75  1  0
 21 76  1  0
 21 77  1  0
 22 78  1  0
 22 79  1  0
 23 80  1  0
 24 81  1  0
 24 82  1  0
 25 83  1  0
 25 84  1  0
 26 85  1  0
 26 86  1  0
 27 87  1  0
 27 88  1  0
 28 89  1  0
 29 90  1  6
 30 91  1  0
 30 92  1  0
 31 93  1  0
 31 94  1  0
 32 95  1  0
 32 96  1  0
 34 97  1  0
 34 98  1  0
 35 99  1  0
 36100  1  0
 36101  1  0
 37102  1  0
 38103  1  6
 39104  1  0
 40105  1  0
 40106  1  0
 41107  1  0
 42108  1  0
 43109  1  0
 44110  1  0
 44111  1  0
 45112  1  0
 45113  1  0
 46114  1  0
M  END
>  <PDBID>  (1) 
4U5J

>  <PDB ID>  (1) 
4U5J

>  <Generic Name>  (1) 
Ruxolitinib

>  <Brand Name>  (1) 
Jakafi#Jakavi

>  <DrugBank ID>  (1) 
DB08877

>  <ATC Codes>  (1) 
L01XE18

>  <Ligand ID>  (1) 
RXT

>  <Target Name>  (1) 
Tyrosine-protein kinase JAK2

>  <UniProt ID>  (1) 
O60674

>  <PDB ID.1>  (1) 
4U5J

>  <Seq. Identity>  (1) 
30%

$$$$
