PDB_DB06401_04
     RDKit          3D

348367  0  0  0  0  0  0  0  0999 V2000
    7.5812   -1.6658    0.0339 C   0  0  1  0  0  0  0  0  0  0  0  0
    8.7552   -1.4328   -0.8327 C   0  0  0  0  0  0  0  0  0  0  0  0
    9.1245   -0.0289   -1.0967 C   0  0  0  0  0  0  0  0  0  0  0  0
    9.0188    0.9036    0.0566 C   0  0  0  0  0  0  0  0  0  0  0  0
    8.1230    0.5355    1.1554 C   0  0  0  0  0  0  0  0  0  0  0  0
    7.2892   -0.6634    1.0620 C   0  0  1  0  0  0  0  0  0  0  0  0
    6.3786   -0.9623    0.0174 N   0  0  0  0  0  0  0  0  0  0  0  0
    5.9064   -0.0356   -0.9312 C   0  0  0  0  0  0  0  0  0  0  0  0
    4.5042    0.4077   -0.4706 C   0  0  0  0  0  0  0  0  0  0  0  0
    3.6849   -0.6946   -0.4141 O   0  0  0  0  0  0  0  0  0  0  0  0
    2.4162   -0.3538   -0.0048 C   0  0  0  0  0  0  0  0  0  0  0  0
    2.0872   -1.0299    1.3291 C   0  0  0  0  0  0  0  0  0  0  0  0
    0.7889   -0.4991    1.8143 C   0  0  0  0  0  0  0  0  0  0  0  0
    1.3326   -0.6896   -0.9822 C   0  0  0  0  0  0  0  0  0  0  0  0
    0.2242   -1.5041   -0.3480 C   0  0  0  0  0  0  0  0  0  0  0  0
   -0.3453   -0.9529    0.8868 C   0  0  0  0  0  0  0  0  0  0  0  0
   -1.4116    0.0829    0.8499 C   0  0  0  0  0  0  0  0  0  0  0  0
   -2.5651   -0.0871    0.0728 N   0  0  0  0  0  0  0  0  0  0  0  0
   -2.4313    0.0961   -1.3560 C   0  0  0  0  0  0  0  0  0  0  0  0
   -2.9734   -1.0635   -2.0664 C   0  0  0  0  0  0  0  0  0  0  0  0
   -4.2432   -0.9356   -2.8147 C   0  0  0  0  0  0  0  0  0  0  0  0
   -4.1252    0.3655   -3.6265 C   0  0  0  0  0  0  0  0  0  0  0  0
   -5.1926    0.5281   -4.4722 O   0  0  0  0  0  0  0  0  0  0  0  0
   -4.2511    1.4304   -2.5169 C   0  0  0  0  0  0  0  0  0  0  0  0
   -3.0800    1.4283   -1.6146 C   0  0  0  0  0  0  0  0  0  0  0  0
   -3.4031    1.9665   -0.2011 C   0  0  0  0  0  0  0  0  0  0  0  0
   -4.4881    2.9582   -0.3535 C   0  0  0  0  0  0  0  0  0  0  0  0
   -3.7365    0.6685    0.4571 C   0  0  2  0  0  0  0  0  0  0  0  0
   -4.0880    0.6085    1.8592 C   0  0  0  0  0  0  0  0  0  0  0  0
   -4.2627   -0.8596    2.2936 C   0  0  0  0  0  0  0  0  0  0  0  0
   -5.4973   -1.4853    1.7306 C   0  0  0  0  0  0  0  0  0  0  0  0
   -6.6869   -0.8147    2.3862 C   0  0  0  0  0  0  0  0  0  0  0  0
   -7.3279   -1.6469    3.2694 O   0  0  0  0  0  0  0  0  0  0  0  0
   -6.2771    0.4390    3.1164 C   0  0  0  0  0  0  0  0  0  0  0  0
   -5.3560    1.3093    2.2729 C   0  0  0  0  0  0  0  0  0  0  0  0
    7.2984   -0.3835   -0.8152 C   0  0  1  0  0  0  0  0  0  0  0  0
    8.5399   -0.4802   -1.6630 C   0  0  0  0  0  0  0  0  0  0  0  0
    9.7036   -1.1193   -0.9272 C   0  0  0  0  0  0  0  0  0  0  0  0
   10.0185   -0.3604    0.3268 C   0  0  0  0  0  0  0  0  0  0  0  0
    9.0483    0.7902    0.5391 C   0  0  0  0  0  0  0  0  0  0  0  0
    7.6164    0.3167    0.4732 C   0  0  1  0  0  0  0  0  0  0  0  0
    6.8166    0.9333   -0.5534 N   0  0  0  0  0  0  0  0  0  0  0  0
    5.4128    1.1937   -0.2804 C   0  0  0  0  0  0  0  0  0  0  0  0
    4.9687    0.6232    1.0211 C   0  0  0  0  0  0  0  0  0  0  0  0
    3.6474    0.9109    1.2532 O   0  0  0  0  0  0  0  0  0  0  0  0
    2.7265    0.4297    0.3574 C   0  0  0  0  0  0  0  0  0  0  0  0
    1.7063   -0.3449    1.1199 C   0  0  0  0  0  0  0  0  0  0  0  0
    0.4129   -0.6183    0.3935 C   0  0  0  0  0  0  0  0  0  0  0  0
    2.0608    1.6237   -0.2984 C   0  0  0  0  0  0  0  0  0  0  0  0
    0.7847    1.3176   -0.9942 C   0  0  0  0  0  0  0  0  0  0  0  0
   -0.2334    0.6587   -0.0223 C   0  0  0  0  0  0  0  0  0  0  0  0
   -1.4856    0.5782   -0.7793 C   0  0  0  0  0  0  0  0  0  0  0  0
   -2.6451   -0.0014   -0.3648 N   0  0  0  0  0  0  0  0  0  0  0  0
   -2.9822   -1.3137   -0.2445 C   0  0  0  0  0  0  0  0  0  0  0  0
   -2.1892   -2.4411   -0.7637 C   0  0  0  0  0  0  0  0  0  0  0  0
   -3.1391   -3.6490   -0.7423 C   0  0  0  0  0  0  0  0  0  0  0  0
   -4.3451   -3.4733    0.0885 C   0  0  0  0  0  0  0  0  0  0  0  0
   -5.4981   -3.1709   -0.6813 O   0  0  0  0  0  0  0  0  0  0  0  0
   -4.2761   -2.6206    1.2956 C   0  0  0  0  0  0  0  0  0  0  0  0
   -3.2241   -1.5749    1.2234 C   0  0  0  0  0  0  0  0  0  0  0  0
   -3.6594   -0.2111    1.7010 C   0  0  1  0  0  0  0  0  0  0  0  0
   -2.7192    0.1659    2.8585 C   0  0  0  0  0  0  0  0  0  0  0  0
   -3.4642    0.7510    0.5565 C   0  0  2  0  0  0  0  0  0  0  0  0
   -4.8004    0.9596   -0.1028 C   0  0  0  0  0  0  0  0  0  0  0  0
   -4.6798    1.7026   -1.4218 C   0  0  0  0  0  0  0  0  0  0  0  0
   -5.9875    2.3612   -1.7893 C   0  0  0  0  0  0  0  0  0  0  0  0
   -7.1954    1.6558   -1.2274 C   0  0  0  0  0  0  0  0  0  0  0  0
   -8.3030    2.4539   -1.5313 O   0  0  0  0  0  0  0  0  0  0  0  0
   -7.1400    1.5187    0.2740 C   0  0  0  0  0  0  0  0  0  0  0  0
   -5.7341    1.7787    0.7750 C   0  0  0  0  0  0  0  0  0  0  0  0
    7.6432   -1.6527    0.0250 C   0  0  0  0  0  0  0  0  0  0  0  0
    8.8935   -0.9375    0.3898 C   0  0  0  0  0  0  0  0  0  0  0  0
    8.9405    0.5018    0.0134 C   0  0  0  0  0  0  0  0  0  0  0  0
    8.7346    0.6797   -1.4523 C   0  0  0  0  0  0  0  0  0  0  0  0
    7.4026    0.1923   -1.8989 C   0  0  0  0  0  0  0  0  0  0  0  0
    6.3385    0.2043   -0.8176 C   0  0  0  0  0  0  0  0  0  0  0  0
    6.4369   -0.9010    0.0626 N   0  0  0  0  0  0  0  0  0  0  0  0
    6.0001   -0.7004    1.4096 C   0  0  0  0  0  0  0  0  0  0  0  0
    4.7229    0.0987    1.5064 C   0  0  0  0  0  0  0  0  0  0  0  0
    3.6675   -0.4986    0.8606 O   0  0  0  0  0  0  0  0  0  0  0  0
    2.4935    0.1597    0.8759 C   0  0  0  0  0  0  0  0  0  0  0  0
    2.0886    0.5398   -0.5288 C   0  0  0  0  0  0  0  0  0  0  0  0
    0.7976   -0.1581   -0.9284 C   0  0  0  0  0  0  0  0  0  0  0  0
    1.3398   -0.4981    1.5881 C   0  0  0  0  0  0  0  0  0  0  0  0
    0.1033    0.3505    1.3862 C   0  0  0  0  0  0  0  0  0  0  0  0
   -0.3611    0.3738   -0.0668 C   0  0  0  0  0  0  0  0  0  0  0  0
   -1.4615   -0.6563   -0.1540 C   0  0  0  0  0  0  0  0  0  0  0  0
   -2.6192   -0.3766    0.5493 N   0  0  0  0  0  0  0  0  0  0  0  0
   -3.4463   -1.5451    0.8654 C   0  0  0  0  0  0  0  0  0  0  0  0
   -3.8246   -2.4121   -0.2593 C   0  0  0  0  0  0  0  0  0  0  0  0
   -4.7933   -3.4695    0.3020 C   0  0  0  0  0  0  0  0  0  0  0  0
   -6.0480   -2.8959    0.8532 C   0  0  0  0  0  0  0  0  0  0  0  0
   -6.2782   -3.2919    2.1836 O   0  0  0  0  0  0  0  0  0  0  0  0
   -5.9442   -1.3958    0.8789 C   0  0  0  0  0  0  0  0  0  0  0  0
   -4.6585   -1.0173    1.5616 C   0  0  0  0  0  0  0  0  0  0  0  0
   -4.4688    0.5074    1.4423 C   0  0  0  0  0  0  0  0  0  0  0  0
   -3.6302    0.9270    2.6003 C   0  0  0  0  0  0  0  0  0  0  0  0
   -3.6160    0.5221    0.1587 C   0  0  1  0  0  0  0  0  0  0  0  0
   -3.4037    1.8603   -0.3751 C   0  0  0  0  0  0  0  0  0  0  0  0
   -4.7009    2.6823   -0.4130 C   0  0  0  0  0  0  0  0  0  0  0  0
   -5.7284    2.0920   -1.3035 C   0  0  0  0  0  0  0  0  0  0  0  0
   -5.1961    1.7623   -2.6822 C   0  0  0  0  0  0  0  0  0  0  0  0
   -6.1013    2.1608   -3.6731 O   0  0  0  0  0  0  0  0  0  0  0  0
   -3.8850    2.4728   -2.7994 C   0  0  0  0  0  0  0  0  0  0  0  0
   -2.9128    1.8662   -1.8207 C   0  0  0  0  0  0  0  0  0  0  0  0
    7.3237    0.5853    0.9494 C   0  0  2  0  0  0  0  0  0  0  0  0
    8.7167   -0.0273    1.0274 C   0  0  0  0  0  0  0  0  0  0  0  0
    9.0549   -0.7005   -0.2833 C   0  0  0  0  0  0  0  0  0  0  0  0
    7.9736   -1.6988   -0.6809 C   0  0  0  0  0  0  0  0  0  0  0  0
    6.9177   -1.7777    0.3945 C   0  0  0  0  0  0  0  0  0  0  0  0
    6.2808   -0.4091    0.5317 C   0  0  2  0  0  0  0  0  0  0  0  0
    6.7255    0.6353   -0.3579 N   0  0  0  0  0  0  0  0  0  0  0  0
    5.8985    1.6995   -0.7865 C   0  0  0  0  0  0  0  0  0  0  0  0
    4.5587    1.8153   -0.1234 C   0  0  0  0  0  0  0  0  0  0  0  0
    3.8530    0.6569   -0.3553 O   0  0  0  0  0  0  0  0  0  0  0  0
    2.5842    0.7710    0.2151 C   0  0  0  0  0  0  0  0  0  0  0  0
    2.3017   -0.2978    1.2466 C   0  0  0  0  0  0  0  0  0  0  0  0
    0.8820   -0.1965    1.6759 C   0  0  0  0  0  0  0  0  0  0  0  0
    1.5148    0.6837   -0.8559 C   0  0  0  0  0  0  0  0  0  0  0  0
    0.7576   -0.6264   -0.7519 C   0  0  0  0  0  0  0  0  0  0  0  0
   -0.0176   -0.7362    0.5030 C   0  0  0  0  0  0  0  0  0  0  0  0
   -1.3275    0.0156    0.5840 C   0  0  0  0  0  0  0  0  0  0  0  0
   -2.3058   -0.2590   -0.2767 N   0  0  0  0  0  0  0  0  0  0  0  0
   -2.3806   -0.0196   -1.6628 C   0  0  0  0  0  0  0  0  0  0  0  0
   -2.3968   -1.3232   -2.3879 C   0  0  0  0  0  0  0  0  0  0  0  0
   -3.5764   -1.6067   -3.2597 C   0  0  0  0  0  0  0  0  0  0  0  0
   -3.9372   -0.2903   -3.9710 C   0  0  0  0  0  0  0  0  0  0  0  0
   -4.7716   -0.5297   -5.0286 O   0  0  0  0  0  0  0  0  0  0  0  0
   -4.5942    0.4821   -2.8477 C   0  0  0  0  0  0  0  0  0  0  0  0
   -3.5856    0.8458   -1.8438 C   0  0  0  0  0  0  0  0  0  0  0  0
   -4.2698    0.8655   -0.4567 C   0  0  0  0  0  0  0  0  0  0  0  0
   -3.9858    2.2049    0.0987 C   0  0  0  0  0  0  0  0  0  0  0  0
   -3.7149   -0.3524    0.1490 C   0  0  2  0  0  0  0  0  0  0  0  0
   -3.9385   -0.6593    1.5674 C   0  0  0  0  0  0  0  0  0  0  0  0
   -5.2267   -1.3982    1.8531 C   0  0  0  0  0  0  0  0  0  0  0  0
   -6.4254   -0.5558    1.8215 C   0  0  0  0  0  0  0  0  0  0  0  0
   -6.3663    0.6226    2.7683 C   0  0  0  0  0  0  0  0  0  0  0  0
   -6.9307    1.7730    2.2241 O   0  0  0  0  0  0  0  0  0  0  0  0
   -5.0285    0.8357    3.3477 C   0  0  0  0  0  0  0  0  0  0  0  0
   -3.8238    0.3916    2.5935 C   0  0  0  0  0  0  0  0  0  0  0  0
    7.4812   -2.7518    0.3433 H   0  0  0  0  0  0  0  0  0  0  0  0
    9.6245   -1.9671   -0.3869 H   0  0  0  0  0  0  0  0  0  0  0  0
    8.5860   -1.9312   -1.8260 H   0  0  0  0  0  0  0  0  0  0  0  0
   10.1983   -0.0229   -1.4555 H   0  0  0  0  0  0  0  0  0  0  0  0
    8.5512    0.3265   -1.9917 H   0  0  0  0  0  0  0  0  0  0  0  0
    8.7430    1.9100   -0.3829 H   0  0  0  0  0  0  0  0  0  0  0  0
   10.0425    1.1111    0.4833 H   0  0  0  0  0  0  0  0  0  0  0  0
    8.7143    0.4708    2.1185 H   0  0  0  0  0  0  0  0  0  0  0  0
    7.4336    1.4123    1.3676 H   0  0  0  0  0  0  0  0  0  0  0  0
    6.9268   -1.0484    2.0640 H   0  0  0  0  0  0  0  0  0  0  0  0
    6.5015    0.9244   -0.9045 H   0  0  0  0  0  0  0  0  0  0  0  0
    5.7512   -0.4103   -1.9626 H   0  0  0  0  0  0  0  0  0  0  0  0
    4.1439    1.1704   -1.1812 H   0  0  0  0  0  0  0  0  0  0  0  0
    4.5994    0.9029    0.5078 H   0  0  0  0  0  0  0  0  0  0  0  0
    2.3907    0.7547    0.1769 H   0  0  0  0  0  0  0  0  0  0  0  0
    2.1583   -2.1191    1.2434 H   0  0  0  0  0  0  0  0  0  0  0  0
    2.8847   -0.7554    2.0848 H   0  0  0  0  0  0  0  0  0  0  0  0
    0.5651   -0.8019    2.8391 H   0  0  0  0  0  0  0  0  0  0  0  0
    0.8343    0.6260    1.7255 H   0  0  0  0  0  0  0  0  0  0  0  0
    1.7947   -1.3807   -1.7465 H   0  0  0  0  0  0  0  0  0  0  0  0
    1.0003    0.1869   -1.5293 H   0  0  0  0  0  0  0  0  0  0  0  0
    0.7439   -2.5155   -0.0965 H   0  0  0  0  0  0  0  0  0  0  0  0
   -0.4607   -1.8282   -1.1430 H   0  0  0  0  0  0  0  0  0  0  0  0
   -0.8031   -1.8487    1.4447 H   0  0  0  0  0  0  0  0  0  0  0  0
   -1.6153    0.4691    1.8922 H   0  0  0  0  0  0  0  0  0  0  0  0
   -0.8561    1.0158    0.4186 H   0  0  0  0  0  0  0  0  0  0  0  0
   -1.3442    0.1925   -1.5677 H   0  0  0  0  0  0  0  0  0  0  0  0
   -2.2148   -1.4575   -2.8151 H   0  0  0  0  0  0  0  0  0  0  0  0
   -3.0928   -1.9455   -1.3662 H   0  0  0  0  0  0  0  0  0  0  0  0
   -4.3329   -1.7696   -3.5354 H   0  0  0  0  0  0  0  0  0  0  0  0
   -5.1572   -0.9384   -2.1953 H   0  0  0  0  0  0  0  0  0  0  0  0
   -3.1409    0.3704   -4.0916 H   0  0  0  0  0  0  0  0  0  0  0  0
   -5.3500    1.4797   -4.6741 H   0  0  0  0  0  0  0  0  0  0  0  0
   -4.3878    2.3846   -3.0615 H   0  0  0  0  0  0  0  0  0  0  0  0
   -5.2245    1.1322   -2.0231 H   0  0  0  0  0  0  0  0  0  0  0  0
   -2.3142    2.1084   -2.0395 H   0  0  0  0  0  0  0  0  0  0  0  0
   -2.4650    2.3586    0.2055 H   0  0  0  0  0  0  0  0  0  0  0  0
   -4.6771    3.5607    0.5867 H   0  0  0  0  0  0  0  0  0  0  0  0
   -5.4530    2.5901   -0.6881 H   0  0  0  0  0  0  0  0  0  0  0  0
   -4.2141    3.7842   -1.0840 H   0  0  0  0  0  0  0  0  0  0  0  0
   -4.5936    0.2348   -0.1472 H   0  0  0  0  0  0  0  0  0  0  0  0
   -3.2943    0.9909    2.5204 H   0  0  0  0  0  0  0  0  0  0  0  0
   -4.2723   -0.9216    3.3865 H   0  0  0  0  0  0  0  0  0  0  0  0
   -3.3539   -1.3977    1.9248 H   0  0  0  0  0  0  0  0  0  0  0  0
   -5.4931   -2.5468    2.0240 H   0  0  0  0  0  0  0  0  0  0  0  0
   -5.5322   -1.4465    0.6303 H   0  0  0  0  0  0  0  0  0  0  0  0
   -7.3886   -0.5278    1.5780 H   0  0  0  0  0  0  0  0  0  0  0  0
   -5.8482    0.1644    4.0807 H   0  0  0  0  0  0  0  0  0  0  0  0
   -7.1932    1.0327    3.3048 H   0  0  0  0  0  0  0  0  0  0  0  0
   -5.9473    1.7301    1.4459 H   0  0  0  0  0  0  0  0  0  0  0  0
   -5.1215    2.1844    2.9369 H   0  0  0  0  0  0  0  0  0  0  0  0
    6.6563   -1.2770   -0.7136 H   0  0  0  0  0  0  0  0  0  0  0  0
    8.8771    0.5168   -1.9989 H   0  0  0  0  0  0  0  0  0  0  0  0
    8.3126   -1.0702   -2.5719 H   0  0  0  0  0  0  0  0  0  0  0  0
    9.5117   -2.1949   -0.7006 H   0  0  0  0  0  0  0  0  0  0  0  0
   10.5593   -1.1085   -1.6481 H   0  0  0  0  0  0  0  0  0  0  0  0
   11.0282    0.0964    0.2832 H   0  0  0  0  0  0  0  0  0  0  0  0
   10.0232   -1.0495    1.2075 H   0  0  0  0  0  0  0  0  0  0  0  0
    9.2659    1.5377   -0.2400 H   0  0  0  0  0  0  0  0  0  0  0  0
    9.2537    1.2345    1.5136 H   0  0  0  0  0  0  0  0  0  0  0  0
    7.1698   -0.0430    1.4078 H   0  0  0  0  0  0  0  0  0  0  0  0
    5.2383    2.2870   -0.2472 H   0  0  0  0  0  0  0  0  0  0  0  0
    4.8533    0.7348   -1.1093 H   0  0  0  0  0  0  0  0  0  0  0  0
    5.1248   -0.4762    1.0925 H   0  0  0  0  0  0  0  0  0  0  0  0
    5.5697    1.1337    1.8333 H   0  0  0  0  0  0  0  0  0  0  0  0
    3.2094   -0.1528   -0.4465 H   0  0  0  0  0  0  0  0  0  0  0  0
    2.1424   -1.3082    1.4239 H   0  0  0  0  0  0  0  0  0  0  0  0
    1.4496    0.2380    2.0323 H   0  0  0  0  0  0  0  0  0  0  0  0
   -0.2359   -1.1163    1.1676 H   0  0  0  0  0  0  0  0  0  0  0  0
    0.5480   -1.2615   -0.4922 H   0  0  0  0  0  0  0  0  0  0  0  0
    2.7823    1.9639   -1.0976 H   0  0  0  0  0  0  0  0  0  0  0  0
    1.9330    2.4839    0.3834 H   0  0  0  0  0  0  0  0  0  0  0  0
    0.9351    0.6271   -1.8495 H   0  0  0  0  0  0  0  0  0  0  0  0
    0.3081    2.2468   -1.3050 H   0  0  0  0  0  0  0  0  0  0  0  0
   -0.2689    1.3949    0.8270 H   0  0  0  0  0  0  0  0  0  0  0  0
   -1.7212    1.6548   -1.1007 H   0  0  0  0  0  0  0  0  0  0  0  0
   -1.2085    0.1297   -1.7957 H   0  0  0  0  0  0  0  0  0  0  0  0
   -4.0177   -1.4156   -0.7820 H   0  0  0  0  0  0  0  0  0  0  0  0
   -1.4029   -2.7252   -0.0347 H   0  0  0  0  0  0  0  0  0  0  0  0
   -1.7736   -2.2834   -1.7637 H   0  0  0  0  0  0  0  0  0  0  0  0
   -3.4703   -3.7704   -1.8080 H   0  0  0  0  0  0  0  0  0  0  0  0
   -2.5984   -4.5718   -0.4830 H   0  0  0  0  0  0  0  0  0  0  0  0
   -4.6037   -4.5198    0.4727 H   0  0  0  0  0  0  0  0  0  0  0  0
   -5.6523   -3.8526   -1.3563 H   0  0  0  0  0  0  0  0  0  0  0  0
   -5.2700   -2.1319    1.4821 H   0  0  0  0  0  0  0  0  0  0  0  0
   -4.1085   -3.2297    2.2317 H   0  0  0  0  0  0  0  0  0  0  0  0
   -2.3412   -1.9511    1.7570 H   0  0  0  0  0  0  0  0  0  0  0  0
   -4.6773   -0.2391    2.1108 H   0  0  0  0  0  0  0  0  0  0  0  0
   -1.8605    0.7532    2.4966 H   0  0  0  0  0  0  0  0  0  0  0  0
   -2.3488   -0.7792    3.3376 H   0  0  0  0  0  0  0  0  0  0  0  0
   -3.2496    0.7932    3.6034 H   0  0  0  0  0  0  0  0  0  0  0  0
   -3.0014    1.7029    0.8714 H   0  0  0  0  0  0  0  0  0  0  0  0
   -5.3141   -0.0061   -0.2561 H   0  0  0  0  0  0  0  0  0  0  0  0
   -3.9455    2.5250   -1.2696 H   0  0  0  0  0  0  0  0  0  0  0  0
   -4.3468    1.0074   -2.2308 H   0  0  0  0  0  0  0  0  0  0  0  0
   -6.0945    2.3036   -2.9093 H   0  0  0  0  0  0  0  0  0  0  0  0
   -5.9788    3.4448   -1.5280 H   0  0  0  0  0  0  0  0  0  0  0  0
   -7.3245    0.6954   -1.7427 H   0  0  0  0  0  0  0  0  0  0  0  0
   -8.5251    3.0599   -0.7766 H   0  0  0  0  0  0  0  0  0  0  0  0
   -7.4633    0.4688    0.5118 H   0  0  0  0  0  0  0  0  0  0  0  0
   -7.8711    2.1756    0.7797 H   0  0  0  0  0  0  0  0  0  0  0  0
   -5.5045    2.8434    0.5504 H   0  0  0  0  0  0  0  0  0  0  0  0
   -5.6335    1.5202    1.8262 H   0  0  0  0  0  0  0  0  0  0  0  0
    7.7541   -2.1703   -0.9616 H   0  0  0  0  0  0  0  0  0  0  0  0
    7.5066   -2.5061    0.7548 H   0  0  0  0  0  0  0  0  0  0  0  0
    9.1472   -1.0449    1.4868 H   0  0  0  0  0  0  0  0  0  0  0  0
    9.7675   -1.4426   -0.1216 H   0  0  0  0  0  0  0  0  0  0  0  0
    9.9902    0.8756    0.2517 H   0  0  0  0  0  0  0  0  0  0  0  0
    8.2091    1.1360    0.5796 H   0  0  0  0  0  0  0  0  0  0  0  0
    8.9193    1.7386   -1.7714 H   0  0  0  0  0  0  0  0  0  0  0  0
    9.5094    0.0892   -1.9971 H   0  0  0  0  0  0  0  0  0  0  0  0
    7.4637   -0.7848   -2.4242 H   0  0  0  0  0  0  0  0  0  0  0  0
    7.0249    0.9132   -2.6766 H   0  0  0  0  0  0  0  0  0  0  0  0
    5.3630    0.1202   -1.3658 H   0  0  0  0  0  0  0  0  0  0  0  0
    6.4141    1.1672   -0.2872 H   0  0  0  0  0  0  0  0  0  0  0  0
    5.8491   -1.6822    1.9196 H   0  0  0  0  0  0  0  0  0  0  0  0
    6.8322   -0.2151    1.9741 H   0  0  0  0  0  0  0  0  0  0  0  0
    4.5458    0.2855    2.5823 H   0  0  0  0  0  0  0  0  0  0  0  0
    4.9022    1.0858    1.0471 H   0  0  0  0  0  0  0  0  0  0  0  0
    2.6633    1.1258    1.4397 H   0  0  0  0  0  0  0  0  0  0  0  0
    2.8866    0.2792   -1.2268 H   0  0  0  0  0  0  0  0  0  0  0  0
    1.9398    1.6356   -0.5605 H   0  0  0  0  0  0  0  0  0  0  0  0
    0.5702    0.1040   -1.9722 H   0  0  0  0  0  0  0  0  0  0  0  0
    0.9303   -1.2344   -0.8342 H   0  0  0  0  0  0  0  0  0  0  0  0
    1.5546   -0.4880    2.6695 H   0  0  0  0  0  0  0  0  0  0  0  0
    1.1440   -1.4843    1.1717 H   0  0  0  0  0  0  0  0  0  0  0  0
    0.2573    1.4176    1.6754 H   0  0  0  0  0  0  0  0  0  0  0  0
   -0.7505    0.0034    1.9963 H   0  0  0  0  0  0  0  0  0  0  0  0
   -0.5673    1.3619   -0.4203 H   0  0  0  0  0  0  0  0  0  0  0  0
   -1.5699   -0.9925   -1.2110 H   0  0  0  0  0  0  0  0  0  0  0  0
   -0.9756   -1.5696    0.3269 H   0  0  0  0  0  0  0  0  0  0  0  0
   -2.8538   -2.1469    1.5865 H   0  0  0  0  0  0  0  0  0  0  0  0
   -2.9664   -3.0624   -0.6279 H   0  0  0  0  0  0  0  0  0  0  0  0
   -4.3221   -1.9182   -1.1119 H   0  0  0  0  0  0  0  0  0  0  0  0
   -4.9629   -4.2721   -0.4453 H   0  0  0  0  0  0  0  0  0  0  0  0
   -4.2312   -3.9623    1.1343 H   0  0  0  0  0  0  0  0  0  0  0  0
   -6.9018   -3.2560    0.2433 H   0  0  0  0  0  0  0  0  0  0  0  0
   -6.8872   -2.6250    2.5795 H   0  0  0  0  0  0  0  0  0  0  0  0
   -6.0425   -1.0237   -0.1372 H   0  0  0  0  0  0  0  0  0  0  0  0
   -6.7812   -0.9680    1.4723 H   0  0  0  0  0  0  0  0  0  0  0  0
   -4.7451   -1.3117    2.6297 H   0  0  0  0  0  0  0  0  0  0  0  0
   -5.4284    0.9987    1.3292 H   0  0  0  0  0  0  0  0  0  0  0  0
   -4.2496    1.5533    3.2800 H   0  0  0  0  0  0  0  0  0  0  0  0
   -3.2978    0.0652    3.2372 H   0  0  0  0  0  0  0  0  0  0  0  0
   -2.6842    1.4420    2.3163 H   0  0  0  0  0  0  0  0  0  0  0  0
   -4.2720   -0.0087   -0.6293 H   0  0  0  0  0  0  0  0  0  0  0  0
   -2.6914    2.4413    0.2182 H   0  0  0  0  0  0  0  0  0  0  0  0
   -4.4153    3.6838   -0.7897 H   0  0  0  0  0  0  0  0  0  0  0  0
   -5.1307    2.8478    0.5794 H   0  0  0  0  0  0  0  0  0  0  0  0
   -6.2759    1.2327   -0.9245 H   0  0  0  0  0  0  0  0  0  0  0  0
   -6.5034    2.8994   -1.4702 H   0  0  0  0  0  0  0  0  0  0  0  0
   -5.0349    0.6751   -2.7546 H   0  0  0  0  0  0  0  0  0  0  0  0
   -6.9242    2.4403   -3.1995 H   0  0  0  0  0  0  0  0  0  0  0  0
   -3.4784    2.1761   -3.8203 H   0  0  0  0  0  0  0  0  0  0  0  0
   -3.9605    3.5775   -2.7404 H   0  0  0  0  0  0  0  0  0  0  0  0
   -1.9572    2.4424   -1.9174 H   0  0  0  0  0  0  0  0  0  0  0  0
   -2.8081    0.8088   -2.1250 H   0  0  0  0  0  0  0  0  0  0  0  0
    7.1052    1.3587    1.6961 H   0  0  0  0  0  0  0  0  0  0  0  0
    8.8428   -0.6950    1.8838 H   0  0  0  0  0  0  0  0  0  0  0  0
    9.4354    0.8172    1.1418 H   0  0  0  0  0  0  0  0  0  0  0  0
   10.0105   -1.2535   -0.1301 H   0  0  0  0  0  0  0  0  0  0  0  0
    9.2394    0.0491   -1.0584 H   0  0  0  0  0  0  0  0  0  0  0  0
    7.4861   -1.2701   -1.5902 H   0  0  0  0  0  0  0  0  0  0  0  0
    8.3901   -2.6951   -0.9122 H   0  0  0  0  0  0  0  0  0  0  0  0
    7.3953   -2.0650    1.3539 H   0  0  0  0  0  0  0  0  0  0  0  0
    6.1348   -2.4961    0.0738 H   0  0  0  0  0  0  0  0  0  0  0  0
    5.3499   -0.3378    1.1046 H   0  0  0  0  0  0  0  0  0  0  0  0
    6.4001    2.6872   -0.6782 H   0  0  0  0  0  0  0  0  0  0  0  0
    5.6860    1.5524   -1.8828 H   0  0  0  0  0  0  0  0  0  0  0  0
    4.0538    2.7100   -0.5804 H   0  0  0  0  0  0  0  0  0  0  0  0
    4.6569    2.0644    0.9534 H   0  0  0  0  0  0  0  0  0  0  0  0
    2.4368    1.7507    0.7165 H   0  0  0  0  0  0  0  0  0  0  0  0
    2.5573   -1.3175    0.9325 H   0  0  0  0  0  0  0  0  0  0  0  0
    2.9200   -0.0993    2.1806 H   0  0  0  0  0  0  0  0  0  0  0  0
    0.6771   -0.7922    2.5890 H   0  0  0  0  0  0  0  0  0  0  0  0
    0.5823    0.8537    1.8745 H   0  0  0  0  0  0  0  0  0  0  0  0
    2.0320    0.6885   -1.8342 H   0  0  0  0  0  0  0  0  0  0  0  0
    0.8151    1.5320   -0.8375 H   0  0  0  0  0  0  0  0  0  0  0  0
    1.5725   -1.4311   -0.7436 H   0  0  0  0  0  0  0  0  0  0  0  0
    0.2303   -0.8056   -1.6583 H   0  0  0  0  0  0  0  0  0  0  0  0
   -0.1488   -1.8054    0.7576 H   0  0  0  0  0  0  0  0  0  0  0  0
   -1.5900   -0.1350    1.7007 H   0  0  0  0  0  0  0  0  0  0  0  0
   -0.9912    1.1174    0.5267 H   0  0  0  0  0  0  0  0  0  0  0  0
   -1.4993    0.5580   -1.9901 H   0  0  0  0  0  0  0  0  0  0  0  0
   -1.5073   -1.4238   -3.0856 H   0  0  0  0  0  0  0  0  0  0  0  0
   -2.2885   -2.1780   -1.6882 H   0  0  0  0  0  0  0  0  0  0  0  0
   -3.3307   -2.3524   -4.0242 H   0  0  0  0  0  0  0  0  0  0  0  0
   -4.4456   -1.9871   -2.6850 H   0  0  0  0  0  0  0  0  0  0  0  0
   -2.9682    0.1600   -4.2373 H   0  0  0  0  0  0  0  0  0  0  0  0
   -5.7247   -0.3111   -4.8686 H   0  0  0  0  0  0  0  0  0  0  0  0
   -5.0476    1.3995   -3.3267 H   0  0  0  0  0  0  0  0  0  0  0  0
   -5.4594   -0.1000   -2.4535 H   0  0  0  0  0  0  0  0  0  0  0  0
   -3.2434    1.8940   -2.1111 H   0  0  0  0  0  0  0  0  0  0  0  0
   -5.3519    0.7571   -0.6167 H   0  0  0  0  0  0  0  0  0  0  0  0
   -2.9444    2.4672    0.2500 H   0  0  0  0  0  0  0  0  0  0  0  0
   -4.6902    2.4720    0.9028 H   0  0  0  0  0  0  0  0  0  0  0  0
   -4.3012    2.9357   -0.7252 H   0  0  0  0  0  0  0  0  0  0  0  0
   -4.0846   -1.1986   -0.4490 H   0  0  0  0  0  0  0  0  0  0  0  0
   -3.1470   -1.4536    1.7890 H   0  0  0  0  0  0  0  0  0  0  0  0
   -5.1685   -1.8972    2.8568 H   0  0  0  0  0  0  0  0  0  0  0  0
   -5.3004   -2.1712    1.0450 H   0  0  0  0  0  0  0  0  0  0  0  0
   -7.2869   -1.2554    2.1341 H   0  0  0  0  0  0  0  0  0  0  0  0
   -6.7779   -0.1948    0.8435 H   0  0  0  0  0  0  0  0  0  0  0  0
   -7.1040    0.3678    3.5964 H   0  0  0  0  0  0  0  0  0  0  0  0
   -5.0591    0.4632    4.4203 H   0  0  0  0  0  0  0  0  0  0  0  0
   -4.9336    1.9527    3.5128 H   0  0  0  0  0  0  0  0  0  0  0  0
   -3.2042    1.2960    2.2920 H   0  0  0  0  0  0  0  0  0  0  0  0
   -3.1509   -0.0321    3.4179 H   0  0  0  0  0  0  0  0  0  0  0  0
  1  2  1  0
  2  3  1  0
  3  4  1  0
  4  5  1  0
  5  6  1  0
  6  1  1  0
  1  7  1  0
  6  7  1  0
  7  8  1  0
  8  9  1  0
  9 10  1  0
 10 11  1  0
 11 12  1  0
 12 13  1  0
 11 14  1  0
 14 15  1  0
 13 16  1  0
 15 16  1  0
 16 17  1  0
 17 18  1  0
 18 19  1  0
 19 20  1  0
 20 21  1  0
 21 22  1  0
 22 23  1  0
 22 24  1  0
 19 25  1  0
 24 25  1  0
 25 26  1  0
 26 27  1  0
 18 28  1  0
 26 28  1  0
 28 29  1  0
 29 30  1  0
 30 31  1  0
 31 32  1  0
 32 33  1  0
 32 34  1  0
 29 35  1  0
 34 35  1  0
 36 37  1  0
 37 38  1  0
 38 39  1  0
 39 40  1  0
 40 41  1  0
 41 36  1  0
 36 42  1  0
 41 42  1  0
 42 43  1  0
 43 44  1  0
 44 45  1  0
 45 46  1  0
 46 47  1  0
 47 48  1  0
 46 49  1  0
 49 50  1  0
 48 51  1  0
 50 51  1  0
 51 52  1  0
 52 53  1  0
 53 54  1  0
 54 55  1  0
 55 56  1  0
 56 57  1  0
 57 58  1  0
 57 59  1  0
 54 60  1  0
 59 60  1  0
 60 61  1  0
 61 62  1  0
 53 63  1  0
 61 63  1  0
 63 64  1  0
 64 65  1  0
 65 66  1  0
 66 67  1  0
 67 68  1  0
 67 69  1  0
 64 70  1  0
 69 70  1  0
 71 72  1  0
 72 73  1  0
 73 74  1  0
 74 75  1  0
 75 76  1  0
 71 77  1  0
 76 77  1  0
 77 78  1  0
 78 79  1  0
 79 80  1  0
 80 81  1  0
 81 82  1  0
 82 83  1  0
 81 84  1  0
 84 85  1  0
 83 86  1  0
 85 86  1  0
 86 87  1  0
 87 88  1  0
 88 89  1  0
 89 90  1  0
 90 91  1  0
 91 92  1  0
 92 93  1  0
 92 94  1  0
 89 95  1  0
 94 95  1  0
 95 96  1  0
 96 97  1  0
 88 98  1  0
 96 98  1  0
 98 99  1  0
 99100  1  0
100101  1  0
101102  1  0
102103  1  0
102104  1  0
 99105  1  0
104105  1  0
106107  1  0
107108  1  0
108109  1  0
109110  1  0
110111  1  0
111106  1  0
106112  1  0
111112  1  0
112113  1  0
113114  1  0
114115  1  0
115116  1  0
116117  1  0
117118  1  0
116119  1  0
119120  1  0
118121  1  0
120121  1  0
121122  1  0
122123  1  0
123124  1  0
124125  1  0
125126  1  0
126127  1  0
127128  1  0
127129  1  0
124130  1  0
129130  1  0
130131  1  0
131132  1  0
123133  1  0
131133  1  0
133134  1  0
134135  1  0
135136  1  0
136137  1  0
137138  1  0
137139  1  0
134140  1  0
139140  1  0
  1141  1  1
  2142  1  0
  2143  1  0
  3144  1  0
  3145  1  0
  4146  1  0
  4147  1  0
  5148  1  0
  5149  1  0
  6150  1  1
  8151  1  0
  8152  1  0
  9153  1  0
  9154  1  0
 11155  1  0
 12156  1  0
 12157  1  0
 13158  1  0
 13159  1  0
 14160  1  0
 14161  1  0
 15162  1  0
 15163  1  0
 16164  1  0
 17165  1  0
 17166  1  0
 19167  1  0
 20168  1  0
 20169  1  0
 21170  1  0
 21171  1  0
 22172  1  0
 23173  1  0
 24174  1  0
 24175  1  0
 25176  1  0
 26177  1  0
 27178  1  0
 27179  1  0
 27180  1  0
 28181  1  6
 29182  1  0
 30183  1  0
 30184  1  0
 31185  1  0
 31186  1  0
 32187  1  0
 34188  1  0
 34189  1  0
 35190  1  0
 35191  1  0
 36192  1  1
 37193  1  0
 37194  1  0
 38195  1  0
 38196  1  0
 39197  1  0
 39198  1  0
 40199  1  0
 40200  1  0
 41201  1  1
 43202  1  0
 43203  1  0
 44204  1  0
 44205  1  0
 46206  1  0
 47207  1  0
 47208  1  0
 48209  1  0
 48210  1  0
 49211  1  0
 49212  1  0
 50213  1  0
 50214  1  0
 51215  1  0
 52216  1  0
 52217  1  0
 54218  1  0
 55219  1  0
 55220  1  0
 56221  1  0
 56222  1  0
 57223  1  0
 58224  1  0
 59225  1  0
 59226  1  0
 60227  1  0
 61228  1  1
 62229  1  0
 62230  1  0
 62231  1  0
 63232  1  1
 64233  1  0
 65234  1  0
 65235  1  0
 66236  1  0
 66237  1  0
 67238  1  0
 68239  1  0
 69240  1  0
 69241  1  0
 70242  1  0
 70243  1  0
 71244  1  0
 71245  1  0
 72246  1  0
 72247  1  0
 73248  1  0
 73249  1  0
 74250  1  0
 74251  1  0
 75252  1  0
 75253  1  0
 76254  1  0
 76255  1  0
 78256  1  0
 78257  1  0
 79258  1  0
 79259  1  0
 81260  1  0
 82261  1  0
 82262  1  0
 83263  1  0
 83264  1  0
 84265  1  0
 84266  1  0
 85267  1  0
 85268  1  0
 86269  1  0
 87270  1  0
 87271  1  0
 89272  1  0
 90273  1  0
 90274  1  0
 91275  1  0
 91276  1  0
 92277  1  0
 93278  1  0
 94279  1  0
 94280  1  0
 95281  1  0
 96282  1  0
 97283  1  0
 97284  1  0
 97285  1  0
 98286  1  6
 99287  1  0
100288  1  0
100289  1  0
101290  1  0
101291  1  0
102292  1  0
103293  1  0
104294  1  0
104295  1  0
105296  1  0
105297  1  0
106298  1  1
107299  1  0
107300  1  0
108301  1  0
108302  1  0
109303  1  0
109304  1  0
110305  1  0
110306  1  0
111307  1  1
113308  1  0
113309  1  0
114310  1  0
114311  1  0
116312  1  0
117313  1  0
117314  1  0
118315  1  0
118316  1  0
119317  1  0
119318  1  0
120319  1  0
120320  1  0
121321  1  0
122322  1  0
122323  1  0
124324  1  0
125325  1  0
125326  1  0
126327  1  0
126328  1  0
127329  1  0
128330  1  0
129331  1  0
129332  1  0
130333  1  0
131334  1  0
132335  1  0
132336  1  0
132337  1  0
133338  1  6
134339  1  0
135340  1  0
135341  1  0
136342  1  0
136343  1  0
137344  1  0
139345  1  0
139346  1  0
140347  1  0
140348  1  0
M  END
>  <PDBID>  (1) 
4XI3

>  <PDB ID>  (1) 
4XI3

>  <Generic Name>  (1) 
Bazedoxifene

>  <Brand Name>  (1) 
Duavee#Duavive#Aprela#Viviant

>  <DrugBank ID>  (1) 
DB06401

>  <ATC Codes>  (1) 
G03CC07#G03XC02

>  <Ligand ID>  (1) 
29S

>  <Target Name>  (1) 
Estrogen receptor

>  <UniProt ID>  (1) 
P03372

>  <PDB ID.1>  (1) 
4XI3

>  <Seq. Identity>  (1) 
92%

$$$$
