PDB_DB00712_01
     RDKit          3D

 90 92  0  0  0  0  0  0  0  0999 V2000
    3.4961    1.6271   -0.5375 C   0  0  0  0  0  0  0  0  0  0  0  0
    2.0794    1.1219   -0.2074 C   0  0  0  0  0  0  0  0  0  0  0  0
    2.1754   -0.3633   -0.3452 C   0  0  0  0  0  0  0  0  0  0  0  0
    3.1960   -1.0126    0.5163 C   0  0  0  0  0  0  0  0  0  0  0  0
    4.3483   -0.2156    0.9410 C   0  0  0  0  0  0  0  0  0  0  0  0
    4.3274    1.2437    0.6630 C   0  0  0  0  0  0  0  0  0  0  0  0
    0.8724   -1.1054   -0.1683 C   0  0  0  0  0  0  0  0  0  0  0  0
    0.2272   -0.8860    1.1504 C   0  0  0  0  0  0  0  0  0  0  0  0
   -0.9081    0.1487    1.1158 C   0  0  0  0  0  0  0  0  0  0  0  0
   -1.8891   -0.1644    0.0323 C   0  0  0  0  0  0  0  0  0  0  0  0
   -1.4529   -1.3899   -0.7743 C   0  0  0  0  0  0  0  0  0  0  0  0
   -0.0666   -1.0171   -1.3265 C   0  0  0  0  0  0  0  0  0  0  0  0
   -3.2875   -0.2677    0.5451 C   0  0  2  0  0  0  0  0  0  0  0  0
   -4.2732   -0.5984   -0.5733 C   0  0  0  0  0  0  0  0  0  0  0  0
   -3.6653    1.0746    1.1564 C   0  0  0  0  0  0  0  0  0  0  0  0
   -3.5670    2.0274    0.1534 O   0  0  0  0  0  0  0  0  0  0  0  0
   -4.9594    1.0334    1.6771 O   0  0  0  0  0  0  0  0  0  0  0  0
   -0.1047    0.1943   -1.9595 F   0  0  0  0  0  0  0  0  0  0  0  0
    3.4961    1.6271   -0.5375 C   0  0  0  0  0  0  0  0  0  0  0  0
    2.0794    1.1219   -0.2074 C   0  0  0  0  0  0  0  0  0  0  0  0
    2.1754   -0.3633   -0.3452 C   0  0  0  0  0  0  0  0  0  0  0  0
    3.1960   -1.0126    0.5163 C   0  0  0  0  0  0  0  0  0  0  0  0
    4.3483   -0.2156    0.9410 C   0  0  0  0  0  0  0  0  0  0  0  0
    4.3274    1.2437    0.6630 C   0  0  0  0  0  0  0  0  0  0  0  0
    0.8724   -1.1054   -0.1683 C   0  0  0  0  0  0  0  0  0  0  0  0
    0.2272   -0.8860    1.1504 C   0  0  0  0  0  0  0  0  0  0  0  0
   -0.9081    0.1487    1.1158 C   0  0  0  0  0  0  0  0  0  0  0  0
   -1.8891   -0.1644    0.0323 C   0  0  0  0  0  0  0  0  0  0  0  0
   -1.4529   -1.3899   -0.7743 C   0  0  0  0  0  0  0  0  0  0  0  0
   -0.0666   -1.0171   -1.3265 C   0  0  0  0  0  0  0  0  0  0  0  0
   -3.2875   -0.2677    0.5451 C   0  0  2  0  0  0  0  0  0  0  0  0
   -4.2732   -0.5984   -0.5733 C   0  0  0  0  0  0  0  0  0  0  0  0
   -3.6653    1.0746    1.1564 C   0  0  0  0  0  0  0  0  0  0  0  0
   -3.5670    2.0274    0.1534 O   0  0  0  0  0  0  0  0  0  0  0  0
   -4.9594    1.0334    1.6771 O   0  0  0  0  0  0  0  0  0  0  0  0
   -0.1047    0.1943   -1.9595 F   0  0  0  0  0  0  0  0  0  0  0  0
    3.4697    2.7144   -0.6198 H   0  0  0  0  0  0  0  0  0  0  0  0
    3.8987    1.1073   -1.4249 H   0  0  0  0  0  0  0  0  0  0  0  0
    1.9021    1.4558    0.8364 H   0  0  0  0  0  0  0  0  0  0  0  0
    1.3949    1.5527   -0.9304 H   0  0  0  0  0  0  0  0  0  0  0  0
    2.4705   -0.5489   -1.4238 H   0  0  0  0  0  0  0  0  0  0  0  0
    2.6779   -1.4118    1.4398 H   0  0  0  0  0  0  0  0  0  0  0  0
    3.5232   -1.9571   -0.0141 H   0  0  0  0  0  0  0  0  0  0  0  0
    5.2820   -0.6303    0.4545 H   0  0  0  0  0  0  0  0  0  0  0  0
    4.5648   -0.3385    2.0448 H   0  0  0  0  0  0  0  0  0  0  0  0
    3.9080    1.8190    1.5262 H   0  0  0  0  0  0  0  0  0  0  0  0
    5.3464    1.6549    0.5047 H   0  0  0  0  0  0  0  0  0  0  0  0
    1.1994   -2.1992   -0.1647 H   0  0  0  0  0  0  0  0  0  0  0  0
   -0.2377   -1.8109    1.5645 H   0  0  0  0  0  0  0  0  0  0  0  0
    0.9153   -0.5206    1.9385 H   0  0  0  0  0  0  0  0  0  0  0  0
   -1.4149    0.0133    2.1048 H   0  0  0  0  0  0  0  0  0  0  0  0
   -0.5213    1.1714    1.0955 H   0  0  0  0  0  0  0  0  0  0  0  0
   -1.8148    0.6857   -0.7089 H   0  0  0  0  0  0  0  0  0  0  0  0
   -1.3049   -2.2651   -0.1100 H   0  0  0  0  0  0  0  0  0  0  0  0
   -2.1608   -1.6323   -1.5626 H   0  0  0  0  0  0  0  0  0  0  0  0
    0.1956   -1.7670   -2.1189 H   0  0  0  0  0  0  0  0  0  0  0  0
   -3.3680   -1.0415    1.3289 H   0  0  0  0  0  0  0  0  0  0  0  0
   -4.1011    0.0839   -1.4196 H   0  0  0  0  0  0  0  0  0  0  0  0
   -4.1114   -1.6543   -0.8769 H   0  0  0  0  0  0  0  0  0  0  0  0
   -5.2904   -0.5323   -0.1511 H   0  0  0  0  0  0  0  0  0  0  0  0
   -2.9543    1.2965    1.9598 H   0  0  0  0  0  0  0  0  0  0  0  0
   -4.4231    2.0869   -0.3034 H   0  0  0  0  0  0  0  0  0  0  0  0
   -5.5943    1.2169    0.9217 H   0  0  0  0  0  0  0  0  0  0  0  0
    3.4697    2.7144   -0.6198 H   0  0  0  0  0  0  0  0  0  0  0  0
    3.8987    1.1073   -1.4249 H   0  0  0  0  0  0  0  0  0  0  0  0
    1.9021    1.4558    0.8364 H   0  0  0  0  0  0  0  0  0  0  0  0
    1.3949    1.5527   -0.9304 H   0  0  0  0  0  0  0  0  0  0  0  0
    2.4705   -0.5489   -1.4238 H   0  0  0  0  0  0  0  0  0  0  0  0
    2.6779   -1.4118    1.4398 H   0  0  0  0  0  0  0  0  0  0  0  0
    3.5232   -1.9571   -0.0141 H   0  0  0  0  0  0  0  0  0  0  0  0
    5.2820   -0.6303    0.4545 H   0  0  0  0  0  0  0  0  0  0  0  0
    4.5648   -0.3385    2.0448 H   0  0  0  0  0  0  0  0  0  0  0  0
    3.9080    1.8190    1.5262 H   0  0  0  0  0  0  0  0  0  0  0  0
    5.3464    1.6549    0.5047 H   0  0  0  0  0  0  0  0  0  0  0  0
    1.1994   -2.1992   -0.1647 H   0  0  0  0  0  0  0  0  0  0  0  0
   -0.2377   -1.8109    1.5645 H   0  0  0  0  0  0  0  0  0  0  0  0
    0.9153   -0.5206    1.9385 H   0  0  0  0  0  0  0  0  0  0  0  0
   -1.4149    0.0133    2.1048 H   0  0  0  0  0  0  0  0  0  0  0  0
   -0.5213    1.1714    1.0955 H   0  0  0  0  0  0  0  0  0  0  0  0
   -1.8148    0.6857   -0.7089 H   0  0  0  0  0  0  0  0  0  0  0  0
   -1.3049   -2.2651   -0.1100 H   0  0  0  0  0  0  0  0  0  0  0  0
   -2.1608   -1.6323   -1.5626 H   0  0  0  0  0  0  0  0  0  0  0  0
    0.1956   -1.7670   -2.1189 H   0  0  0  0  0  0  0  0  0  0  0  0
   -3.3680   -1.0415    1.3289 H   0  0  0  0  0  0  0  0  0  0  0  0
   -4.1011    0.0839   -1.4196 H   0  0  0  0  0  0  0  0  0  0  0  0
   -4.1114   -1.6543   -0.8769 H   0  0  0  0  0  0  0  0  0  0  0  0
   -5.2904   -0.5323   -0.1511 H   0  0  0  0  0  0  0  0  0  0  0  0
   -2.9543    1.2965    1.9598 H   0  0  0  0  0  0  0  0  0  0  0  0
   -4.4231    2.0869   -0.3034 H   0  0  0  0  0  0  0  0  0  0  0  0
   -5.5943    1.2169    0.9217 H   0  0  0  0  0  0  0  0  0  0  0  0
  1  2  1  0
  2  3  1  0
  3  4  1  0
  4  5  1  0
  1  6  1  0
  5  6  1  0
  3  7  1  0
  7  8  1  0
  8  9  1  0
  9 10  1  0
 10 11  1  0
  7 12  1  0
 11 12  1  0
 10 13  1  0
 13 14  1  0
 13 15  1  0
 15 16  1  0
 15 17  1  0
 12 18  1  0
 19 20  1  0
 20 21  1  0
 21 22  1  0
 22 23  1  0
 19 24  1  0
 23 24  1  0
 21 25  1  0
 25 26  1  0
 26 27  1  0
 27 28  1  0
 28 29  1  0
 25 30  1  0
 29 30  1  0
 28 31  1  0
 31 32  1  0
 31 33  1  0
 33 34  1  0
 33 35  1  0
 30 36  1  0
  1 37  1  0
  1 38  1  0
  2 39  1  0
  2 40  1  0
  3 41  1  0
  4 42  1  0
  4 43  1  0
  5 44  1  0
  5 45  1  0
  6 46  1  0
  6 47  1  0
  7 48  1  0
  8 49  1  0
  8 50  1  0
  9 51  1  0
  9 52  1  0
 10 53  1  0
 11 54  1  0
 11 55  1  0
 12 56  1  0
 13 57  1  1
 14 58  1  0
 14 59  1  0
 14 60  1  0
 15 61  1  0
 16 62  1  0
 17 63  1  0
 19 64  1  0
 19 65  1  0
 20 66  1  0
 20 67  1  0
 21 68  1  0
 22 69  1  0
 22 70  1  0
 23 71  1  0
 23 72  1  0
 24 73  1  0
 24 74  1  0
 25 75  1  0
 26 76  1  0
 26 77  1  0
 27 78  1  0
 27 79  1  0
 28 80  1  0
 29 81  1  0
 29 82  1  0
 30 83  1  0
 31 84  1  1
 32 85  1  0
 32 86  1  0
 32 87  1  0
 33 88  1  0
 34 89  1  0
 35 90  1  0
M  END
>  <PDBID>  (1) 
5JVZ

>  <PDB ID>  (1) 
5JVZ

>  <Generic Name>  (1) 
Flurbiprofen

>  <Brand Name>  (1) 
Ansaid Tablets 100 mg#Ansaid Tablets 50 mg#Antiphlamine Pain Relieving#Apo-flurbiprofen Fc Tablets 100mg#Apo-flurbiprofen Fc Tablets 50mg#Flurbiprofen#Flurbiprofen Sodium#Flurbiprofen-100 Tab 100mg#Flurbiprofen-50 Tab 50mg#Froben#Froben SR#Froben Tab 100mg#Froben Tab 50mg#Froben-SR Cap 200mg#Novo-flurprofen SR#Nu-flurbiprofen Tab 100mg#Nu-flurbiprofen Tab 50mg#Ocufen#Ocufen Oph Soln 0.03%#Ratio-flurbiprofen Tablets 100mg#Ratio-flurbiprofen Tablets 50mg#Teva-flurbiprofen#Acustop Cataplasma#Adofeed#Ansaid#Antadys#Cebutid#Flurofen#Ocuflur#Stayban#Strefen#Strepfen#Strepsils#Strepsils Intensive#TransAct#Urbifen#Zepolas

>  <DrugBank ID>  (1) 
DB00712

>  <ATC Codes>  (1) 
M02AA19#R02AX01#M01AE09#S01BC04

>  <Ligand ID>  (1) 
FLP,FLR

>  <Target Name>  (1) 
Prostaglandin G/H synthase 2

>  <UniProt ID>  (1) 
P35354

>  <PDB ID.1>  (1) 
5JVZ

>  <Seq. Identity>  (1) 
85%

$$$$
