PDB_DB01263_04
     RDKit          3D

119125  0  0  0  0  0  0  0  0999 V2000
   11.3574   -2.3226   -1.1337 C   0  0  0  0  0  0  0  0  0  0  0  0
   12.3624    1.3204   -1.3533 C   0  0  0  0  0  0  0  0  0  0  0  0
    9.7440    1.1200    1.6301 O   0  0  0  0  0  0  0  0  0  0  0  0
   12.8533   -0.4918    0.1162 O   0  0  0  0  0  0  0  0  0  0  0  0
   -7.9534   -2.6501   -1.7077 F   0  0  0  0  0  0  0  0  0  0  0  0
  -11.7839   -0.5712   -1.7872 F   0  0  0  0  0  0  0  0  0  0  0  0
  -10.0675   -2.1126   -2.4355 C   0  0  0  0  0  0  0  0  0  0  0  0
   -2.1317    2.0609    0.3352 C   0  0  0  0  0  0  0  0  0  0  0  0
   -2.0660    0.4700    2.1399 C   0  0  0  0  0  0  0  0  0  0  0  0
   -0.8578    1.5121   -0.2550 C   0  0  0  0  0  0  0  0  0  0  0  0
   -0.9398   -0.3205    1.5080 C   0  0  0  0  0  0  0  0  0  0  0  0
    4.6091    0.7681    2.2327 C   0  0  0  0  0  0  0  0  0  0  0  0
    4.9948   -1.3471    0.9017 C   0  0  0  0  0  0  0  0  0  0  0  0
    5.8371    1.2357    1.4703 C   0  0  0  0  0  0  0  0  0  0  0  0
    6.3581   -1.2395    1.5193 C   0  0  0  0  0  0  0  0  0  0  0  0
  -11.0556   -1.0985   -2.8414 C   0  0  0  0  0  0  0  0  0  0  0  0
  -10.2409   -0.4208    2.9650 C   0  0  0  0  0  0  0  0  0  0  0  0
   -8.2936   -0.3349   -2.2046 C   0  0  1  0  0  0  0  0  0  0  0  0
   -8.7638    1.1100    2.0147 C   0  0  0  0  0  0  0  0  0  0  0  0
    7.4952    0.1560   -0.8674 C   0  0  0  0  0  0  0  0  0  0  0  0
   10.4593   -1.1438   -1.4379 C   0  0  0  0  0  0  0  0  0  0  0  0
   -6.5298   -0.7399   -0.4626 C   0  0  0  0  0  0  0  0  0  0  0  0
    1.6125    0.2254   -1.0767 C   0  0  0  0  0  0  0  0  0  0  0  0
    0.9534   -1.6584    0.1483 C   0  0  0  0  0  0  0  0  0  0  0  0
    2.8092    0.4949   -0.1559 C   0  0  0  0  0  0  0  0  0  0  0  0
    2.4217   -1.7023    0.5252 C   0  0  0  0  0  0  0  0  0  0  0  0
   -5.1507    0.5001    1.0786 C   0  0  0  0  0  0  0  0  0  0  0  0
   -8.8313   -0.5224    0.2143 C   0  0  0  0  0  0  0  0  0  0  0  0
  -10.1140    0.9997    2.5942 N   0  0  0  0  0  0  0  0  0  0  0  0
   -9.0291   -1.0713    2.5301 N   0  0  0  0  0  0  0  0  0  0  0  0
    8.7139    0.5189   -1.5805 N   0  0  0  0  0  0  0  0  0  0  0  0
   -4.1405    1.3964    1.4182 O   0  0  0  0  0  0  0  0  0  0  0  0
   -7.6009    1.2978   -0.6719 O   0  0  0  0  0  0  0  0  0  0  0  0
   -8.6157   -1.7380   -2.4976 C   0  0  0  0  0  0  0  0  0  0  0  0
   -9.4064    0.6329   -2.5495 C   0  0  0  0  0  0  0  0  0  0  0  0
   -2.9164    0.9680    0.9440 C   0  0  0  0  0  0  0  0  0  0  0  0
   -0.1510    0.4766    0.5382 C   0  0  0  0  0  0  0  0  0  0  0  0
    4.0359   -0.4895    1.6894 C   0  0  0  0  0  0  0  0  0  0  0  0
    6.8960    0.1734    1.4883 C   0  0  0  0  0  0  0  0  0  0  0  0
  -10.3470    0.0160   -3.5707 C   0  0  0  0  0  0  0  0  0  0  0  0
    8.8499    1.2987    0.5814 C   0  0  0  0  0  0  0  0  0  0  0  0
   11.9137    0.4783   -0.1685 C   0  0  2  0  0  0  0  0  0  0  0  0
   10.5564   -0.1014   -0.3790 C   0  0  1  0  0  0  0  0  0  0  0  0
    0.5485   -0.4071   -0.3616 N   0  0  0  0  0  0  0  0  0  0  0  0
    2.7714   -0.3435    0.9989 N   0  0  0  0  0  0  0  0  0  0  0  0
   -8.5541   -0.2237    1.5690 N   0  0  0  0  0  0  0  0  0  0  0  0
    7.8904    0.2572    0.5106 N   0  0  0  0  0  0  0  0  0  0  0  0
    9.6279    1.0166   -0.6420 N   0  0  0  0  0  0  0  0  0  0  0  0
   -7.8315   -0.0401   -0.7673 C   0  0  2  0  0  0  0  0  0  0  0  0
   -6.2507    1.5200   -0.9250 C   0  0  0  0  0  0  0  0  0  0  0  0
   -5.4550    0.3534   -0.3650 C   0  0  2  0  0  0  0  0  0  0  0  0
   12.3986   -2.0932   -1.4648 H   0  0  0  0  0  0  0  0  0  0  0  0
   11.3496   -2.5235   -0.0524 H   0  0  0  0  0  0  0  0  0  0  0  0
   11.0407   -3.2239   -1.7181 H   0  0  0  0  0  0  0  0  0  0  0  0
   12.9323    2.1863   -1.0074 H   0  0  0  0  0  0  0  0  0  0  0  0
   13.0298    0.6595   -1.9554 H   0  0  0  0  0  0  0  0  0  0  0  0
   11.5062    1.6912   -1.9241 H   0  0  0  0  0  0  0  0  0  0  0  0
    9.2536    1.1102    2.4671 H   0  0  0  0  0  0  0  0  0  0  0  0
   12.9549   -0.5365    1.1069 H   0  0  0  0  0  0  0  0  0  0  0  0
  -10.2533   -3.0400   -3.0569 H   0  0  0  0  0  0  0  0  0  0  0  0
  -10.3752   -2.4724   -1.4048 H   0  0  0  0  0  0  0  0  0  0  0  0
   -1.8798    2.7923    1.1384 H   0  0  0  0  0  0  0  0  0  0  0  0
   -2.6702    2.5451   -0.5066 H   0  0  0  0  0  0  0  0  0  0  0  0
   -1.7036    1.2997    2.7286 H   0  0  0  0  0  0  0  0  0  0  0  0
   -2.6829   -0.2286    2.7226 H   0  0  0  0  0  0  0  0  0  0  0  0
   -0.1941    2.4154   -0.3989 H   0  0  0  0  0  0  0  0  0  0  0  0
   -1.1230    1.0841   -1.2546 H   0  0  0  0  0  0  0  0  0  0  0  0
   -1.3903   -1.1842    0.9664 H   0  0  0  0  0  0  0  0  0  0  0  0
   -0.2913   -0.6584    2.3375 H   0  0  0  0  0  0  0  0  0  0  0  0
    4.9380    0.6745    3.3059 H   0  0  0  0  0  0  0  0  0  0  0  0
    3.8847    1.6036    2.2449 H   0  0  0  0  0  0  0  0  0  0  0  0
    4.9796   -1.1822   -0.1781 H   0  0  0  0  0  0  0  0  0  0  0  0
    4.6936   -2.4301    1.0361 H   0  0  0  0  0  0  0  0  0  0  0  0
    6.2204    2.1165    2.0228 H   0  0  0  0  0  0  0  0  0  0  0  0
    5.5424    1.5910    0.4731 H   0  0  0  0  0  0  0  0  0  0  0  0
    6.3210   -1.6682    2.5434 H   0  0  0  0  0  0  0  0  0  0  0  0
    7.0363   -1.9252    0.9328 H   0  0  0  0  0  0  0  0  0  0  0  0
  -11.7775   -1.5246   -3.5953 H   0  0  0  0  0  0  0  0  0  0  0  0
  -10.3467   -0.5327    4.0609 H   0  0  0  0  0  0  0  0  0  0  0  0
  -11.1302   -0.8794    2.4727 H   0  0  0  0  0  0  0  0  0  0  0  0
   -7.4316   -0.0205   -2.8298 H   0  0  0  0  0  0  0  0  0  0  0  0
   -8.0396    1.3320    2.8352 H   0  0  0  0  0  0  0  0  0  0  0  0
   -8.7227    1.8754    1.2436 H   0  0  0  0  0  0  0  0  0  0  0  0
    6.7193    0.8838   -1.1691 H   0  0  0  0  0  0  0  0  0  0  0  0
    7.2312   -0.8667   -1.1215 H   0  0  0  0  0  0  0  0  0  0  0  0
   10.8163   -0.7623   -2.4391 H   0  0  0  0  0  0  0  0  0  0  0  0
    9.4355   -1.4928   -1.6310 H   0  0  0  0  0  0  0  0  0  0  0  0
   -6.1881   -1.3622   -1.3304 H   0  0  0  0  0  0  0  0  0  0  0  0
   -6.5669   -1.3577    0.4568 H   0  0  0  0  0  0  0  0  0  0  0  0
    1.9592   -0.5091   -1.8593 H   0  0  0  0  0  0  0  0  0  0  0  0
    1.3242    1.1349   -1.6320 H   0  0  0  0  0  0  0  0  0  0  0  0
    0.8545   -2.4075   -0.6997 H   0  0  0  0  0  0  0  0  0  0  0  0
    0.3759   -2.0934    0.9667 H   0  0  0  0  0  0  0  0  0  0  0  0
    3.7277    0.2968   -0.7275 H   0  0  0  0  0  0  0  0  0  0  0  0
    2.7424    1.5790    0.0851 H   0  0  0  0  0  0  0  0  0  0  0  0
    2.5367   -2.4464    1.3396 H   0  0  0  0  0  0  0  0  0  0  0  0
    3.0178   -1.8904   -0.3675 H   0  0  0  0  0  0  0  0  0  0  0  0
   -4.9676   -0.4992    1.5764 H   0  0  0  0  0  0  0  0  0  0  0  0
   -6.0479    0.8925    1.5944 H   0  0  0  0  0  0  0  0  0  0  0  0
   -9.8639   -0.1521    0.0148 H   0  0  0  0  0  0  0  0  0  0  0  0
   -8.8437   -1.6693    0.1835 H   0  0  0  0  0  0  0  0  0  0  0  0
  -10.7583    1.1672    1.7796 H   0  0  0  0  0  0  0  0  0  0  0  0
   -9.2300   -1.9983    2.1385 H   0  0  0  0  0  0  0  0  0  0  0  0
    8.5829    1.1756   -2.3499 H   0  0  0  0  0  0  0  0  0  0  0  0
   -8.3010   -1.9904   -3.5552 H   0  0  0  0  0  0  0  0  0  0  0  0
   -9.0707    1.5900   -2.9491 H   0  0  0  0  0  0  0  0  0  0  0  0
  -10.0277    0.8578   -1.6690 H   0  0  0  0  0  0  0  0  0  0  0  0
   -2.9746    0.0712    0.3031 H   0  0  0  0  0  0  0  0  0  0  0  0
    0.6117    1.0529    1.1754 H   0  0  0  0  0  0  0  0  0  0  0  0
    3.7710   -1.1215    2.5988 H   0  0  0  0  0  0  0  0  0  0  0  0
    7.4185    0.2889    2.4923 H   0  0  0  0  0  0  0  0  0  0  0  0
   -9.7499   -0.4191   -4.3948 H   0  0  0  0  0  0  0  0  0  0  0  0
  -11.0349    0.8225   -3.9033 H   0  0  0  0  0  0  0  0  0  0  0  0
    8.4382    2.3273    0.5400 H   0  0  0  0  0  0  0  0  0  0  0  0
   11.8802    1.1893    0.7066 H   0  0  0  0  0  0  0  0  0  0  0  0
   10.2168   -0.5619    0.5902 H   0  0  0  0  0  0  0  0  0  0  0  0
   -6.1221    1.5556   -2.0239 H   0  0  0  0  0  0  0  0  0  0  0  0
   -5.9686    2.4713   -0.4459 H   0  0  0  0  0  0  0  0  0  0  0  0
   -4.6077    0.1829   -1.0294 H   0  0  0  0  0  0  0  0  0  0  0  0
  8 10  1  0
  9 11  1  0
 12 14  1  0
 13 15  1  0
  6 16  1  0
  7 16  1  0
  1 21  1  0
 23 25  1  0
 24 26  1  0
 17 29  1  0
 19 29  1  0
 17 30  1  0
 20 31  1  0
 27 32  1  0
  5 34  1  0
  7 34  1  0
 18 34  1  0
 18 35  1  0
  8 36  1  0
  9 36  1  0
 32 36  1  0
 10 37  1  0
 11 37  1  0
 12 38  1  0
 13 38  1  0
 14 39  1  0
 15 39  1  0
 16 40  1  0
 35 40  1  0
  3 41  1  0
  2 42  1  0
  4 42  1  0
 21 43  1  0
 42 43  1  0
 23 44  1  0
 24 44  1  0
 37 44  1  0
 25 45  1  0
 26 45  1  0
 38 45  1  0
 19 46  1  0
 28 46  1  0
 30 46  1  0
 20 47  1  0
 39 47  1  0
 41 47  1  0
 31 48  1  0
 41 48  1  0
 43 48  1  0
 18 49  1  0
 22 49  1  0
 49 28  1  1
 33 49  1  0
 33 50  1  0
 22 51  1  0
 27 51  1  0
 50 51  1  0
  1 52  1  0
  1 53  1  0
  1 54  1  0
  2 55  1  0
  2 56  1  0
  2 57  1  0
  3 58  1  0
  4 59  1  0
  7 60  1  0
  7 61  1  0
  8 62  1  0
  8 63  1  0
  9 64  1  0
  9 65  1  0
 10 66  1  0
 10 67  1  0
 11 68  1  0
 11 69  1  0
 12 70  1  0
 12 71  1  0
 13 72  1  0
 13 73  1  0
 14 74  1  0
 14 75  1  0
 15 76  1  0
 15 77  1  0
 16 78  1  0
 17 79  1  0
 17 80  1  0
 18 81  1  6
 19 82  1  0
 19 83  1  0
 20 84  1  0
 20 85  1  0
 21 86  1  0
 21 87  1  0
 22 88  1  0
 22 89  1  0
 23 90  1  0
 23 91  1  0
 24 92  1  0
 24 93  1  0
 25 94  1  0
 25 95  1  0
 26 96  1  0
 26 97  1  0
 27 98  1  0
 27 99  1  0
 28100  1  0
 28101  1  0
 29102  1  0
 30103  1  0
 31104  1  0
 34105  1  0
 35106  1  0
 35107  1  0
 36108  1  0
 37109  1  0
 38110  1  0
 39111  1  0
 40112  1  0
 40113  1  0
 41114  1  0
 42115  1  1
 43116  1  1
 50117  1  0
 50118  1  0
 51119  1  6
M  END
>  <PDBID>  (1) 
4ZE1

>  <PDB ID>  (1) 
4ZE1

>  <Generic Name>  (1) 
Posaconazole

>  <Brand Name>  (1) 
Noxafil#Posanol

>  <DrugBank ID>  (1) 
DB01263

>  <ATC Codes>  (1) 
J02AC04

>  <Ligand ID>  (1) 
X2N

>  <Target Name>  (1) 
Lanosterol 14-alpha demethylase

>  <UniProt ID>  (1) 
P10613

>  <PDB ID.1>  (1) 
4ZE1

>  <Seq. Identity>  (1) 
65%

$$$$
