PDB_DB01132_00
     RDKit          3D

122126  0  0  0  0  0  0  0  0999 V2000
   -5.7511    0.7660    1.6964 O   0  0  0  0  0  0  0  0  0  0  0  0
   -4.7966   -0.1998    1.3596 C   0  0  1  0  0  0  0  0  0  0  0  0
   -4.8562   -1.3367    2.2594 N   0  0  0  0  0  0  0  0  0  0  0  0
   -5.1584   -0.7309   -0.0101 C   0  0  2  0  0  0  0  0  0  0  0  0
   -6.6326   -1.7278    0.4938 S   0  0  0  0  0  0  0  0  0  0  0  0
   -6.2509   -1.7712    2.2934 C   0  0  0  0  0  0  0  0  0  0  0  0
   -6.2820   -3.0836    2.7043 O   0  0  0  0  0  0  0  0  0  0  0  0
   -4.1262   -1.6048   -0.6299 C   0  0  0  0  0  0  0  0  0  0  0  0
    3.4820    0.4269    1.3766 C   0  0  0  0  0  0  0  0  0  0  0  0
   -2.8442   -0.8722   -0.8001 C   0  0  0  0  0  0  0  0  0  0  0  0
   -1.7610   -1.7322   -1.4323 C   0  0  0  0  0  0  0  0  0  0  0  0
   -0.4751   -0.9819   -1.3483 C   0  0  0  0  0  0  0  0  0  0  0  0
   -0.5310    0.4235   -1.8810 C   0  0  0  0  0  0  0  0  0  0  0  0
   -1.7444    1.1920   -1.4337 C   0  0  0  0  0  0  0  0  0  0  0  0
   -2.9815    0.3344   -1.7008 C   0  0  0  0  0  0  0  0  0  0  0  0
    0.5788    1.0866   -1.3575 O   0  0  0  0  0  0  0  0  0  0  0  0
    1.3939    1.5679   -2.3494 C   0  0  0  0  0  0  0  0  0  0  0  0
    2.5849    2.2755   -1.7898 C   0  0  0  0  0  0  0  0  0  0  0  0
    5.2815   -1.4302    2.7994 C   0  0  0  0  0  0  0  0  0  0  0  0
    5.7679   -0.1584    2.1335 C   0  0  0  0  0  0  0  0  0  0  0  0
    4.9122    0.2114    0.9317 C   0  0  0  0  0  0  0  0  0  0  0  0
    5.5046    1.4278    0.3026 C   0  0  0  0  0  0  0  0  0  0  0  0
    4.5545    2.1874   -0.4762 N   0  0  0  0  0  0  0  0  0  0  0  0
    2.6261    0.8322    0.1908 C   0  0  0  0  0  0  0  0  0  0  0  0
    3.4449    1.3771   -0.9378 C   0  0  0  0  0  0  0  0  0  0  0  0
   -5.3560    1.3757    2.0336 O   0  0  0  0  0  0  0  0  0  0  0  0
   -4.7548    0.1791    1.6323 C   0  0  0  0  0  0  0  0  0  0  0  0
   -5.1268   -0.9074    2.5210 N   0  0  0  0  0  0  0  0  0  0  0  0
   -5.1916   -0.2056    0.2579 C   0  0  2  0  0  0  0  0  0  0  0  0
   -6.8426   -0.9235    0.6704 S   0  0  0  0  0  0  0  0  0  0  0  0
   -6.5779   -1.0086    2.4899 C   0  0  0  0  0  0  0  0  0  0  0  0
   -6.9469   -2.2624    2.9682 O   0  0  0  0  0  0  0  0  0  0  0  0
   -4.3503   -1.1851   -0.4644 C   0  0  0  0  0  0  0  0  0  0  0  0
    4.0581   -0.7374    0.5530 C   0  0  0  0  0  0  0  0  0  0  0  0
   -2.9662   -0.6755   -0.6483 C   0  0  0  0  0  0  0  0  0  0  0  0
   -2.0787   -1.6567   -1.3984 C   0  0  0  0  0  0  0  0  0  0  0  0
   -0.6591   -1.1585   -1.2889 C   0  0  0  0  0  0  0  0  0  0  0  0
   -0.4909    0.2613   -1.7646 C   0  0  0  0  0  0  0  0  0  0  0  0
   -1.4730    1.1908   -1.0767 C   0  0  0  0  0  0  0  0  0  0  0  0
   -2.8743    0.6390   -1.3730 C   0  0  0  0  0  0  0  0  0  0  0  0
    0.7811    0.6648   -1.4301 O   0  0  0  0  0  0  0  0  0  0  0  0
    1.4736    1.0667   -2.5607 C   0  0  0  0  0  0  0  0  0  0  0  0
    2.8805    1.5175   -2.2535 C   0  0  0  0  0  0  0  0  0  0  0  0
    5.2767   -0.7294    3.1838 C   0  0  0  0  0  0  0  0  0  0  0  0
    5.2036    0.5510    2.3681 C   0  0  0  0  0  0  0  0  0  0  0  0
    5.2099    0.1409    0.9117 C   0  0  0  0  0  0  0  0  0  0  0  0
    5.2103    1.3834    0.0125 C   0  0  0  0  0  0  0  0  0  0  0  0
    5.0626    0.8840   -1.3406 N   0  0  0  0  0  0  0  0  0  0  0  0
    3.0758   -0.0562   -0.3779 C   0  0  0  0  0  0  0  0  0  0  0  0
    3.7121    0.4457   -1.6305 C   0  0  0  0  0  0  0  0  0  0  0  0
   -5.3464    1.6663    1.6048 H   0  0  0  0  0  0  0  0  0  0  0  0
   -3.8012    0.2230    1.4100 H   0  0  0  0  0  0  0  0  0  0  0  0
   -4.6261   -0.9885    3.2043 H   0  0  0  0  0  0  0  0  0  0  0  0
   -5.4994    0.1167   -0.6281 H   0  0  0  0  0  0  0  0  0  0  0  0
   -6.8914   -1.0986    2.8612 H   0  0  0  0  0  0  0  0  0  0  0  0
   -7.2123   -3.4099    2.5922 H   0  0  0  0  0  0  0  0  0  0  0  0
   -4.4967   -1.8794   -1.6449 H   0  0  0  0  0  0  0  0  0  0  0  0
   -4.0009   -2.5002    0.0004 H   0  0  0  0  0  0  0  0  0  0  0  0
    3.4536    1.2699    2.0966 H   0  0  0  0  0  0  0  0  0  0  0  0
    3.0468   -0.4467    1.8577 H   0  0  0  0  0  0  0  0  0  0  0  0
   -2.4092   -0.5079    0.1611 H   0  0  0  0  0  0  0  0  0  0  0  0
   -1.6621   -2.6576   -0.8447 H   0  0  0  0  0  0  0  0  0  0  0  0
   -2.0111   -1.9436   -2.4902 H   0  0  0  0  0  0  0  0  0  0  0  0
    0.3280   -1.5094   -1.9135 H   0  0  0  0  0  0  0  0  0  0  0  0
   -0.1179   -0.9320   -0.2888 H   0  0  0  0  0  0  0  0  0  0  0  0
   -0.4480    0.4660   -2.9842 H   0  0  0  0  0  0  0  0  0  0  0  0
   -1.8362    2.0838   -2.0768 H   0  0  0  0  0  0  0  0  0  0  0  0
   -1.6975    1.3909   -0.3619 H   0  0  0  0  0  0  0  0  0  0  0  0
   -2.8595   -0.0444   -2.7574 H   0  0  0  0  0  0  0  0  0  0  0  0
   -3.9010    0.9018   -1.5774 H   0  0  0  0  0  0  0  0  0  0  0  0
    0.8031    2.2538   -2.9904 H   0  0  0  0  0  0  0  0  0  0  0  0
    1.7546    0.6854   -2.9349 H   0  0  0  0  0  0  0  0  0  0  0  0
    2.2391    3.1616   -1.2124 H   0  0  0  0  0  0  0  0  0  0  0  0
    3.1693    2.7127   -2.6413 H   0  0  0  0  0  0  0  0  0  0  0  0
    4.3094   -1.2209    3.2565 H   0  0  0  0  0  0  0  0  0  0  0  0
    5.1943   -2.2020    2.0076 H   0  0  0  0  0  0  0  0  0  0  0  0
    6.0585   -1.6936    3.5576 H   0  0  0  0  0  0  0  0  0  0  0  0
    5.7766    0.6823    2.8659 H   0  0  0  0  0  0  0  0  0  0  0  0
    6.8220   -0.3205    1.8497 H   0  0  0  0  0  0  0  0  0  0  0  0
    4.9052   -0.6703    0.2468 H   0  0  0  0  0  0  0  0  0  0  0  0
    6.3134    1.1132   -0.3832 H   0  0  0  0  0  0  0  0  0  0  0  0
    5.8812    2.0819    1.1310 H   0  0  0  0  0  0  0  0  0  0  0  0
    4.9593    2.7811   -1.2022 H   0  0  0  0  0  0  0  0  0  0  0  0
    1.8496    1.5260    0.5159 H   0  0  0  0  0  0  0  0  0  0  0  0
    2.1468   -0.1037   -0.1611 H   0  0  0  0  0  0  0  0  0  0  0  0
    3.8664    0.5338   -1.5161 H   0  0  0  0  0  0  0  0  0  0  0  0
   -4.8250    1.7847    2.7743 H   0  0  0  0  0  0  0  0  0  0  0  0
   -3.6824    0.3014    1.6776 H   0  0  0  0  0  0  0  0  0  0  0  0
   -4.8425   -0.6292    3.4714 H   0  0  0  0  0  0  0  0  0  0  0  0
   -5.4035    0.7188   -0.3169 H   0  0  0  0  0  0  0  0  0  0  0  0
   -7.0549   -0.1769    3.0084 H   0  0  0  0  0  0  0  0  0  0  0  0
   -7.9280   -2.2790    3.0207 H   0  0  0  0  0  0  0  0  0  0  0  0
   -4.7788   -1.3324   -1.4963 H   0  0  0  0  0  0  0  0  0  0  0  0
   -4.3065   -2.1498    0.0809 H   0  0  0  0  0  0  0  0  0  0  0  0
    3.4988   -1.0119    1.4603 H   0  0  0  0  0  0  0  0  0  0  0  0
    4.3614   -1.6832    0.0347 H   0  0  0  0  0  0  0  0  0  0  0  0
   -2.4899   -0.5650    0.3669 H   0  0  0  0  0  0  0  0  0  0  0  0
   -2.1010   -2.6568   -0.9096 H   0  0  0  0  0  0  0  0  0  0  0  0
   -2.3723   -1.7144   -2.4460 H   0  0  0  0  0  0  0  0  0  0  0  0
    0.0068   -1.7976   -1.9194 H   0  0  0  0  0  0  0  0  0  0  0  0
   -0.2979   -1.2101   -0.2312 H   0  0  0  0  0  0  0  0  0  0  0  0
   -0.6352    0.3599   -2.8562 H   0  0  0  0  0  0  0  0  0  0  0  0
   -1.4298    2.1825   -1.5266 H   0  0  0  0  0  0  0  0  0  0  0  0
   -1.2997    1.1752    0.0192 H   0  0  0  0  0  0  0  0  0  0  0  0
   -2.8538    0.3915   -2.4729 H   0  0  0  0  0  0  0  0  0  0  0  0
   -3.6475    1.3665   -1.1139 H   0  0  0  0  0  0  0  0  0  0  0  0
    0.9344    1.9024   -3.0629 H   0  0  0  0  0  0  0  0  0  0  0  0
    1.5771    0.1875   -3.2574 H   0  0  0  0  0  0  0  0  0  0  0  0
    2.7694    2.3948   -1.5505 H   0  0  0  0  0  0  0  0  0  0  0  0
    3.3204    1.9451   -3.1708 H   0  0  0  0  0  0  0  0  0  0  0  0
    4.2624   -1.0995    3.3589 H   0  0  0  0  0  0  0  0  0  0  0  0
    5.9268   -1.4256    2.6183 H   0  0  0  0  0  0  0  0  0  0  0  0
    5.7544   -0.4798    4.1490 H   0  0  0  0  0  0  0  0  0  0  0  0
    4.3064    1.1404    2.5640 H   0  0  0  0  0  0  0  0  0  0  0  0
    6.0982    1.1383    2.6004 H   0  0  0  0  0  0  0  0  0  0  0  0
    6.1530   -0.4098    0.6530 H   0  0  0  0  0  0  0  0  0  0  0  0
    6.2111    1.8266    0.0951 H   0  0  0  0  0  0  0  0  0  0  0  0
    4.4153    2.0628    0.3199 H   0  0  0  0  0  0  0  0  0  0  0  0
    5.4563    1.5119   -2.0526 H   0  0  0  0  0  0  0  0  0  0  0  0
    2.4799    0.6972    0.1603 H   0  0  0  0  0  0  0  0  0  0  0  0
    2.3545   -0.8719   -0.6763 H   0  0  0  0  0  0  0  0  0  0  0  0
    3.8070   -0.3881   -2.3638 H   0  0  0  0  0  0  0  0  0  0  0  0
  1  2  1  0
  2  3  1  0
  2  4  1  0
  4  5  1  0
  3  6  1  0
  5  6  1  0
  6  7  1  0
  4  8  1  0
  8 10  1  0
 10 11  1  0
 11 12  1  0
 12 13  1  0
 13 14  1  0
 10 15  1  0
 14 15  1  0
 13 16  1  0
 16 17  1  0
 17 18  1  0
 19 20  1  0
  9 21  1  0
 20 21  1  0
 21 22  1  0
 22 23  1  0
  9 24  1  0
 18 25  1  0
 23 25  1  0
 24 25  1  0
 26 27  1  0
 27 28  1  0
 27 29  1  0
 29 30  1  0
 28 31  1  0
 30 31  1  0
 31 32  1  0
 29 33  1  0
 33 35  1  0
 35 36  1  0
 36 37  1  0
 37 38  1  0
 38 39  1  0
 35 40  1  0
 39 40  1  0
 38 41  1  0
 41 42  1  0
 42 43  1  0
 44 45  1  0
 34 46  1  0
 45 46  1  0
 46 47  1  0
 47 48  1  0
 34 49  1  0
 43 50  1  0
 48 50  1  0
 49 50  1  0
  1 51  1  0
  2 52  1  6
  3 53  1  0
  4 54  1  6
  6 55  1  0
  7 56  1  0
  8 57  1  0
  8 58  1  0
  9 59  1  0
  9 60  1  0
 10 61  1  0
 11 62  1  0
 11 63  1  0
 12 64  1  0
 12 65  1  0
 13 66  1  0
 14 67  1  0
 14 68  1  0
 15 69  1  0
 15 70  1  0
 17 71  1  0
 17 72  1  0
 18 73  1  0
 18 74  1  0
 19 75  1  0
 19 76  1  0
 19 77  1  0
 20 78  1  0
 20 79  1  0
 21 80  1  0
 22 81  1  0
 22 82  1  0
 23 83  1  0
 24 84  1  0
 24 85  1  0
 25 86  1  0
 26 87  1  0
 27 88  1  0
 28 89  1  0
 29 90  1  6
 31 91  1  0
 32 92  1  0
 33 93  1  0
 33 94  1  0
 34 95  1  0
 34 96  1  0
 35 97  1  0
 36 98  1  0
 36 99  1  0
 37100  1  0
 37101  1  0
 38102  1  0
 39103  1  0
 39104  1  0
 40105  1  0
 40106  1  0
 42107  1  0
 42108  1  0
 43109  1  0
 43110  1  0
 44111  1  0
 44112  1  0
 44113  1  0
 45114  1  0
 45115  1  0
 46116  1  0
 47117  1  0
 47118  1  0
 48119  1  0
 49120  1  0
 49121  1  0
 50122  1  0
M  END
>  <PDBID>  (1) 
2XKW

>  <PDB ID>  (1) 
2XKW

>  <Generic Name>  (1) 
Pioglitazone

>  <Brand Name>  (1) 
Accel Pioglitazone#Ach-pioglitazone#Act Pioglitazone#Actoplus Met#Actoplus Met XR#Actos#Actos (15mg)#Actos (30mg)#Actos (45mg)#Ag-pioglitazone#Alogliptin and Pioglitazone#Apo-pioglitazone#Auro-pioglitazone#Ava-pioglitazone#Dom-pioglitazone#Duetact#Jamp-pioglitazone#Mint-pioglitazone#Mylan-pioglitazone#Oseni#PHL-pioglitazone#PMS-pioglitazone#Pioglitazole and Metformin Hydrochloride#Pioglitazone#Pioglitazone HCl#Pioglitazone HCl and Metformin HCl#Pioglitazone Hydrochloride#Pioglitazone Hydrochloride and Glimepiride#Pioglitazone Hydrochloride and Metformin Hydrochloride#Pioglitazone and Glimepiride#Pioglitazone and Metformin#Pioglitazone and Metformin Hydrochloride#Pioglitazone and Metformin Hydrocholride#Pioglitazonehydrochloride#Pro-pioglitazone#Ran-pioglitazone#Ratio-pioglitazone#Sandoz Pioglitazone#Teva-pioglitazone#Torrent-pioglitazone#Van-pioglitazone#Zym-pioglitazone#Actost#Glustin

>  <DrugBank ID>  (1) 
DB01132

>  <ATC Codes>  (1) 
A10BD12#A10BD09#A10BG03#A10BD06#A10BD05

>  <Ligand ID>  (1) 
8N6,P1B

>  <Target Name>  (1) 
Peroxisome proliferator-activated receptor gamma

>  <UniProt ID>  (1) 
P37231

>  <PDB ID.1>  (1) 
2XKW

>  <Seq. Identity>  (1) 
95%

$$$$
