PDB_DB00154_00
     RDKit          3D

 64 63  0  0  0  0  0  0  0  0999 V2000
   -8.0353    1.6046   -0.7707 C   0  0  0  0  0  0  0  0  0  0  0  0
   -7.4536    0.5322   -1.4189 O   0  0  0  0  0  0  0  0  0  0  0  0
   -9.1612    1.0861   -0.1073 O   0  0  0  0  0  0  0  0  0  0  0  0
   -7.1324    2.2906    0.1921 C   0  0  0  0  0  0  0  0  0  0  0  0
   -6.6395    1.4548    1.3097 C   0  0  0  0  0  0  0  0  0  0  0  0
   -5.8527    0.2661    0.8492 C   0  0  0  0  0  0  0  0  0  0  0  0
   -4.6717    0.6901    0.0432 C   0  0  0  0  0  0  0  0  0  0  0  0
   -3.8259   -0.4624   -0.4558 C   0  0  0  0  0  0  0  0  0  0  0  0
   -3.3055   -1.2438    0.6996 C   0  0  0  0  0  0  0  0  0  0  0  0
   -2.4417   -2.4124    0.2837 C   0  0  0  0  0  0  0  0  0  0  0  0
   -1.2292   -1.9815   -0.5066 C   0  0  0  0  0  0  0  0  0  0  0  0
   -0.3398   -1.0607    0.2548 C   0  0  0  0  0  0  0  0  0  0  0  0
    0.8870   -0.6139   -0.5596 C   0  0  0  0  0  0  0  0  0  0  0  0
    1.7244   -1.7556   -0.9681 C   0  0  0  0  0  0  0  0  0  0  0  0
    2.9466   -1.5136   -1.7514 C   0  0  0  0  0  0  0  0  0  0  0  0
    4.0789   -0.8217   -1.1250 C   0  0  0  0  0  0  0  0  0  0  0  0
    3.8487    0.5351   -0.5795 C   0  0  0  0  0  0  0  0  0  0  0  0
    5.1792    1.1723   -0.1156 C   0  0  0  0  0  0  0  0  0  0  0  0
    5.7803    0.3204    0.9493 C   0  0  0  0  0  0  0  0  0  0  0  0
    7.0841    0.9127    1.4868 C   0  0  0  0  0  0  0  0  0  0  0  0
    8.0502    1.0176    0.3520 C   0  0  0  0  0  0  0  0  0  0  0  0
    9.3379    1.5962    0.9241 C   0  0  0  0  0  0  0  0  0  0  0  0
   -8.3937    2.3840   -1.4937 H   0  0  0  0  0  0  0  0  0  0  0  0
   -8.0706    0.1890   -2.0932 H   0  0  0  0  0  0  0  0  0  0  0  0
   -9.1354    0.1077   -0.0276 H   0  0  0  0  0  0  0  0  0  0  0  0
   -6.3000    2.7503   -0.4104 H   0  0  0  0  0  0  0  0  0  0  0  0
   -7.6405    3.2241    0.6176 H   0  0  0  0  0  0  0  0  0  0  0  0
   -7.5089    1.0335    1.9130 H   0  0  0  0  0  0  0  0  0  0  0  0
   -6.0855    2.0484    2.0818 H   0  0  0  0  0  0  0  0  0  0  0  0
   -5.4485   -0.2609    1.7932 H   0  0  0  0  0  0  0  0  0  0  0  0
   -6.5330   -0.4373    0.3366 H   0  0  0  0  0  0  0  0  0  0  0  0
   -4.9213    1.3728   -0.7867 H   0  0  0  0  0  0  0  0  0  0  0  0
   -4.0061    1.2938    0.7221 H   0  0  0  0  0  0  0  0  0  0  0  0
   -4.4558   -1.0624   -1.1430 H   0  0  0  0  0  0  0  0  0  0  0  0
   -2.9695   -0.0232   -0.9898 H   0  0  0  0  0  0  0  0  0  0  0  0
   -2.7582   -0.5874    1.3762 H   0  0  0  0  0  0  0  0  0  0  0  0
   -4.1360   -1.7114    1.3080 H   0  0  0  0  0  0  0  0  0  0  0  0
   -2.1674   -2.9559    1.2003 H   0  0  0  0  0  0  0  0  0  0  0  0
   -3.0491   -3.0741   -0.3385 H   0  0  0  0  0  0  0  0  0  0  0  0
   -1.5368   -1.6138   -1.4855 H   0  0  0  0  0  0  0  0  0  0  0  0
   -0.6606   -2.9418   -0.6881 H   0  0  0  0  0  0  0  0  0  0  0  0
   -0.9124   -0.1113    0.4463 H   0  0  0  0  0  0  0  0  0  0  0  0
   -0.0241   -1.4321    1.2287 H   0  0  0  0  0  0  0  0  0  0  0  0
    1.3200    0.2088   -0.0087 H   0  0  0  0  0  0  0  0  0  0  0  0
    0.4339   -0.1301   -1.4876 H   0  0  0  0  0  0  0  0  0  0  0  0
    2.0069   -2.4104   -0.0736 H   0  0  0  0  0  0  0  0  0  0  0  0
    1.0663   -2.4550   -1.5674 H   0  0  0  0  0  0  0  0  0  0  0  0
    2.6886   -1.0043   -2.7571 H   0  0  0  0  0  0  0  0  0  0  0  0
    3.3457   -2.5508   -2.0745 H   0  0  0  0  0  0  0  0  0  0  0  0
    4.3966   -1.4932   -0.2436 H   0  0  0  0  0  0  0  0  0  0  0  0
    5.0049   -0.8489   -1.7760 H   0  0  0  0  0  0  0  0  0  0  0  0
    3.3443    0.3877    0.4428 H   0  0  0  0  0  0  0  0  0  0  0  0
    3.2833    1.2039   -1.2034 H   0  0  0  0  0  0  0  0  0  0  0  0
    5.8515    1.1909   -1.0041 H   0  0  0  0  0  0  0  0  0  0  0  0
    4.9840    2.1794    0.2888 H   0  0  0  0  0  0  0  0  0  0  0  0
    5.0578    0.1288    1.7652 H   0  0  0  0  0  0  0  0  0  0  0  0
    6.0130   -0.6809    0.5036 H   0  0  0  0  0  0  0  0  0  0  0  0
    6.8305    1.9343    1.8365 H   0  0  0  0  0  0  0  0  0  0  0  0
    7.4268    0.2807    2.3080 H   0  0  0  0  0  0  0  0  0  0  0  0
    7.6714    1.7606   -0.4045 H   0  0  0  0  0  0  0  0  0  0  0  0
    8.1997    0.0488   -0.1469 H   0  0  0  0  0  0  0  0  0  0  0  0
    9.6447    1.0871    1.8546 H   0  0  0  0  0  0  0  0  0  0  0  0
    9.1798    2.6761    1.0298 H   0  0  0  0  0  0  0  0  0  0  0  0
   10.1349    1.4087    0.1649 H   0  0  0  0  0  0  0  0  0  0  0  0
  1  2  1  0
  1  3  1  0
  1  4  1  0
  4  5  1  0
  5  6  1  0
  6  7  1  0
  7  8  1  0
  8  9  1  0
  9 10  1  0
 10 11  1  0
 11 12  1  0
 12 13  1  0
 13 14  1  0
 14 15  1  0
 15 16  1  0
 16 17  1  0
 17 18  1  0
 18 19  1  0
 19 20  1  0
 20 21  1  0
 21 22  1  0
  1 23  1  0
  2 24  1  0
  3 25  1  0
  4 26  1  0
  4 27  1  0
  5 28  1  0
  5 29  1  0
  6 30  1  0
  6 31  1  0
  7 32  1  0
  7 33  1  0
  8 34  1  0
  8 35  1  0
  9 36  1  0
  9 37  1  0
 10 38  1  0
 10 39  1  0
 11 40  1  0
 11 41  1  0
 12 42  1  0
 12 43  1  0
 13 44  1  0
 13 45  1  0
 14 46  1  0
 14 47  1  0
 15 48  1  0
 15 49  1  0
 16 50  1  0
 16 51  1  0
 17 52  1  0
 17 53  1  0
 18 54  1  0
 18 55  1  0
 19 56  1  0
 19 57  1  0
 20 58  1  0
 20 59  1  0
 21 60  1  0
 21 61  1  0
 22 62  1  0
 22 63  1  0
 22 64  1  0
M  END
>  <PDBID>  (1) 
1FE2

>  <PDB ID>  (1) 
1FE2

>  <Generic Name>  (1) 
Dihomo-gamma-linolenic acid

>  <Brand Name>  (1) 
Star GLA#Tona-lean 1000 CLA

>  <DrugBank ID>  (1) 
DB00154

>  <ATC Codes>  (1) 
nan

>  <Ligand ID>  (1) 
LAX

>  <Target Name>  (1) 
Prostaglandin G/H synthase 1

>  <UniProt ID>  (1) 
P23219

>  <PDB ID.1>  (1) 
1FE2

>  <Seq. Identity>  (1) 
89%

$$$$
