PDB_DB01136_00
     RDKit          3D

148154  0  0  0  0  0  0  0  0999 V2000
   -0.5149    1.1828    1.9549 O   0  0  0  0  0  0  0  0  0  0  0  0
    0.3713    0.0475    1.8956 C   0  0  2  0  0  0  0  0  0  0  0  0
    1.6619    0.6421    1.4666 C   0  0  0  0  0  0  0  0  0  0  0  0
    2.7852   -0.0483    1.3436 O   0  0  0  0  0  0  0  0  0  0  0  0
    2.9318   -0.9951    0.4183 C   0  0  2  0  0  0  0  0  0  0  0  0
    3.2305   -2.3698    1.0567 C   0  0  0  0  0  0  0  0  0  0  0  0
    3.6194   -3.3507   -0.0096 C   0  0  0  0  0  0  0  0  0  0  0  0
    5.0157   -3.0439   -0.5563 C   0  0  0  0  0  0  0  0  0  0  0  0
    5.3104   -1.6287   -0.1373 C   0  0  0  0  0  0  0  0  0  0  0  0
    4.1185   -0.7747   -0.5129 C   0  0  0  0  0  0  0  0  0  0  0  0
    4.7189    0.5808   -0.4623 C   0  0  0  0  0  0  0  0  0  0  0  0
    4.0269    1.6400   -1.2802 C   0  0  0  0  0  0  0  0  0  0  0  0
    5.0953    2.6672   -1.6279 C   0  0  0  0  0  0  0  0  0  0  0  0
    6.2196    2.6597   -0.6080 C   0  0  0  0  0  0  0  0  0  0  0  0
    7.0099    1.3462   -0.6669 C   0  0  0  0  0  0  0  0  0  0  0  0
    6.0444    0.3140   -1.1810 C   0  0  0  0  0  0  0  0  0  0  0  0
    6.3834   -1.0380   -0.9167 N   0  0  0  0  0  0  0  0  0  0  0  0
   -0.3053   -0.9246    1.0186 C   0  0  0  0  0  0  0  0  0  0  0  0
   -1.5846   -1.4023    1.4033 N   0  0  0  0  0  0  0  0  0  0  0  0
   -2.6990   -0.5216    1.3661 C   0  0  0  0  0  0  0  0  0  0  0  0
   -3.0736   -0.1071   -0.0489 C   0  0  0  0  0  0  0  0  0  0  0  0
   -4.1341    0.7284   -0.1473 O   0  0  0  0  0  0  0  0  0  0  0  0
   -5.3285    0.3076    0.3129 C   0  0  0  0  0  0  0  0  0  0  0  0
   -6.0028    1.1324    1.3368 C   0  0  0  0  0  0  0  0  0  0  0  0
   -7.4721    0.8789    1.3926 C   0  0  0  0  0  0  0  0  0  0  0  0
   -7.9366   -0.4357    0.8700 C   0  0  0  0  0  0  0  0  0  0  0  0
   -7.3322   -0.8230   -0.4379 C   0  0  0  0  0  0  0  0  0  0  0  0
   -6.2756    0.1969   -0.8919 C   0  0  0  0  0  0  0  0  0  0  0  0
   -6.8360    1.4506   -1.0889 O   0  0  0  0  0  0  0  0  0  0  0  0
   -6.6347    1.9272   -2.3817 C   0  0  0  0  0  0  0  0  0  0  0  0
   -0.4990    1.1938    0.1300 O   0  0  0  0  0  0  0  0  0  0  0  0
    0.2800    0.0093    0.1873 C   0  0  2  0  0  0  0  0  0  0  0  0
    1.2719    0.1507   -0.9394 C   0  0  0  0  0  0  0  0  0  0  0  0
    2.2137   -0.8309   -1.0475 O   0  0  0  0  0  0  0  0  0  0  0  0
    3.0715   -0.9392    0.0442 C   0  0  1  0  0  0  0  0  0  0  0  0
    3.1292   -2.3649    0.4911 C   0  0  0  0  0  0  0  0  0  0  0  0
    3.8813   -3.2388   -0.5097 C   0  0  0  0  0  0  0  0  0  0  0  0
    5.3494   -2.8686   -0.5492 C   0  0  0  0  0  0  0  0  0  0  0  0
    5.4873   -1.5368    0.0977 C   0  0  0  0  0  0  0  0  0  0  0  0
    4.4540   -0.6055   -0.5107 C   0  0  2  0  0  0  0  0  0  0  0  0
    4.9860    0.7104    0.0306 C   0  0  2  0  0  0  0  0  0  0  0  0
    4.5132    1.9183   -0.6982 C   0  0  0  0  0  0  0  0  0  0  0  0
    5.6455    2.9480   -0.6341 C   0  0  0  0  0  0  0  0  0  0  0  0
    6.4849    2.7626    0.6174 C   0  0  0  0  0  0  0  0  0  0  0  0
    7.2350    1.4236    0.5800 C   0  0  0  0  0  0  0  0  0  0  0  0
    6.4692    0.5299   -0.3321 C   0  0  0  0  0  0  0  0  0  0  0  0
    6.7394   -0.8662   -0.2015 N   0  0  0  0  0  0  0  0  0  0  0  0
   -0.5976   -1.1857   -0.1212 C   0  0  0  0  0  0  0  0  0  0  0  0
   -1.6716   -1.4307    0.7567 N   0  0  0  0  0  0  0  0  0  0  0  0
   -2.7664   -0.5093    0.7709 C   0  0  0  0  0  0  0  0  0  0  0  0
   -3.5579   -0.5318   -0.5260 C   0  0  0  0  0  0  0  0  0  0  0  0
   -4.6016    0.3332   -0.5464 O   0  0  0  0  0  0  0  0  0  0  0  0
   -5.5830    0.2054    0.3670 C   0  0  0  0  0  0  0  0  0  0  0  0
   -5.8232    1.4017    1.2397 C   0  0  0  0  0  0  0  0  0  0  0  0
   -7.2261    1.3787    1.7986 C   0  0  0  0  0  0  0  0  0  0  0  0
   -7.8226    0.0112    1.9004 C   0  0  0  0  0  0  0  0  0  0  0  0
   -7.8118   -0.7483    0.6159 C   0  0  0  0  0  0  0  0  0  0  0  0
   -6.8778   -0.0890   -0.3738 C   0  0  0  0  0  0  0  0  0  0  0  0
   -7.3566    1.1371   -0.8282 O   0  0  0  0  0  0  0  0  0  0  0  0
   -7.4920    1.1423   -2.2309 C   0  0  0  0  0  0  0  0  0  0  0  0
   -0.6844    1.5004    1.0323 H   0  0  0  0  0  0  0  0  0  0  0  0
    0.4479   -0.2789    2.9618 H   0  0  0  0  0  0  0  0  0  0  0  0
    1.3906    1.2054    0.4867 H   0  0  0  0  0  0  0  0  0  0  0  0
    1.8834    1.5497    2.1447 H   0  0  0  0  0  0  0  0  0  0  0  0
    2.0811   -1.1700   -0.2690 H   0  0  0  0  0  0  0  0  0  0  0  0
    3.9892   -2.2802    1.8642 H   0  0  0  0  0  0  0  0  0  0  0  0
    2.3129   -2.7242    1.5128 H   0  0  0  0  0  0  0  0  0  0  0  0
    3.6328   -4.3623    0.4343 H   0  0  0  0  0  0  0  0  0  0  0  0
    2.8647   -3.3521   -0.7985 H   0  0  0  0  0  0  0  0  0  0  0  0
    5.7519   -3.7049   -0.0520 H   0  0  0  0  0  0  0  0  0  0  0  0
    5.0410   -3.1166   -1.6432 H   0  0  0  0  0  0  0  0  0  0  0  0
    5.5285   -1.5096    0.9251 H   0  0  0  0  0  0  0  0  0  0  0  0
    3.8631   -1.0333   -1.5778 H   0  0  0  0  0  0  0  0  0  0  0  0
    4.8860    0.8967    0.5876 H   0  0  0  0  0  0  0  0  0  0  0  0
    3.5787    1.2087   -2.1768 H   0  0  0  0  0  0  0  0  0  0  0  0
    3.2465    2.1046   -0.6490 H   0  0  0  0  0  0  0  0  0  0  0  0
    4.6129    3.6642   -1.5388 H   0  0  0  0  0  0  0  0  0  0  0  0
    5.4582    2.5667   -2.6596 H   0  0  0  0  0  0  0  0  0  0  0  0
    5.7960    2.8546    0.3816 H   0  0  0  0  0  0  0  0  0  0  0  0
    6.9120    3.4647   -0.8698 H   0  0  0  0  0  0  0  0  0  0  0  0
    7.8674    1.4135   -1.3716 H   0  0  0  0  0  0  0  0  0  0  0  0
    7.3609    1.0560    0.3292 H   0  0  0  0  0  0  0  0  0  0  0  0
    5.8756    0.4667   -2.2761 H   0  0  0  0  0  0  0  0  0  0  0  0
    7.2529   -1.0427   -0.3215 H   0  0  0  0  0  0  0  0  0  0  0  0
   -0.3488   -0.5108   -0.0227 H   0  0  0  0  0  0  0  0  0  0  0  0
    0.3283   -1.8577    0.8978 H   0  0  0  0  0  0  0  0  0  0  0  0
   -1.7606   -2.3571    1.0520 H   0  0  0  0  0  0  0  0  0  0  0  0
   -2.5236    0.3394    2.0238 H   0  0  0  0  0  0  0  0  0  0  0  0
   -3.5736   -1.0578    1.8455 H   0  0  0  0  0  0  0  0  0  0  0  0
   -2.1627    0.2096   -0.5505 H   0  0  0  0  0  0  0  0  0  0  0  0
   -3.3722   -1.0791   -0.5452 H   0  0  0  0  0  0  0  0  0  0  0  0
   -5.2091   -0.7357    0.7306 H   0  0  0  0  0  0  0  0  0  0  0  0
   -5.8777    2.2407    1.1504 H   0  0  0  0  0  0  0  0  0  0  0  0
   -5.5891    0.8625    2.3359 H   0  0  0  0  0  0  0  0  0  0  0  0
   -8.0671    1.6839    0.8709 H   0  0  0  0  0  0  0  0  0  0  0  0
   -7.8444    0.9508    2.4599 H   0  0  0  0  0  0  0  0  0  0  0  0
   -9.0513   -0.3375    0.7025 H   0  0  0  0  0  0  0  0  0  0  0  0
   -7.8416   -1.2370    1.6516 H   0  0  0  0  0  0  0  0  0  0  0  0
   -8.0420   -1.0729   -1.2242 H   0  0  0  0  0  0  0  0  0  0  0  0
   -6.7282   -1.7593   -0.2481 H   0  0  0  0  0  0  0  0  0  0  0  0
   -5.7712   -0.1948   -1.7847 H   0  0  0  0  0  0  0  0  0  0  0  0
   -7.1244    2.9356   -2.4072 H   0  0  0  0  0  0  0  0  0  0  0  0
   -5.5774    2.0438   -2.6623 H   0  0  0  0  0  0  0  0  0  0  0  0
   -7.2262    1.3172   -3.1167 H   0  0  0  0  0  0  0  0  0  0  0  0
    0.0858    1.9688   -0.1152 H   0  0  0  0  0  0  0  0  0  0  0  0
    0.7966   -0.0566    1.1510 H   0  0  0  0  0  0  0  0  0  0  0  0
    0.6867    0.1329   -1.9108 H   0  0  0  0  0  0  0  0  0  0  0  0
    1.7232    1.1671   -0.9338 H   0  0  0  0  0  0  0  0  0  0  0  0
    2.8180   -0.2489    0.8719 H   0  0  0  0  0  0  0  0  0  0  0  0
    3.6120   -2.4886    1.4861 H   0  0  0  0  0  0  0  0  0  0  0  0
    2.1182   -2.7794    0.5367 H   0  0  0  0  0  0  0  0  0  0  0  0
    3.8250   -4.2709   -0.1051 H   0  0  0  0  0  0  0  0  0  0  0  0
    3.3985   -3.2399   -1.4849 H   0  0  0  0  0  0  0  0  0  0  0  0
    5.9721   -3.5977    0.0320 H   0  0  0  0  0  0  0  0  0  0  0  0
    5.7539   -2.8947   -1.5815 H   0  0  0  0  0  0  0  0  0  0  0  0
    5.4013   -1.6056    1.1897 H   0  0  0  0  0  0  0  0  0  0  0  0
    4.5075   -0.6439   -1.5974 H   0  0  0  0  0  0  0  0  0  0  0  0
    4.8447    0.7512    1.1184 H   0  0  0  0  0  0  0  0  0  0  0  0
    4.1837    1.7170   -1.7149 H   0  0  0  0  0  0  0  0  0  0  0  0
    3.6412    2.3321   -0.1191 H   0  0  0  0  0  0  0  0  0  0  0  0
    5.1627    3.9345   -0.5395 H   0  0  0  0  0  0  0  0  0  0  0  0
    6.2552    2.9488   -1.5362 H   0  0  0  0  0  0  0  0  0  0  0  0
    5.8337    2.8330    1.5071 H   0  0  0  0  0  0  0  0  0  0  0  0
    7.2369    3.5493    0.6234 H   0  0  0  0  0  0  0  0  0  0  0  0
    8.2567    1.5482    0.1996 H   0  0  0  0  0  0  0  0  0  0  0  0
    7.2300    1.0014    1.6055 H   0  0  0  0  0  0  0  0  0  0  0  0
    6.5750    0.8636   -1.3871 H   0  0  0  0  0  0  0  0  0  0  0  0
    7.4022   -1.0309    0.5817 H   0  0  0  0  0  0  0  0  0  0  0  0
   -0.9161   -1.0307   -1.1890 H   0  0  0  0  0  0  0  0  0  0  0  0
    0.0365   -2.0866   -0.1569 H   0  0  0  0  0  0  0  0  0  0  0  0
   -1.9333   -2.4287    0.7370 H   0  0  0  0  0  0  0  0  0  0  0  0
   -2.3934    0.4862    1.0505 H   0  0  0  0  0  0  0  0  0  0  0  0
   -3.4451   -0.8584    1.6210 H   0  0  0  0  0  0  0  0  0  0  0  0
   -2.8627   -0.4672   -1.3590 H   0  0  0  0  0  0  0  0  0  0  0  0
   -3.9917   -1.5765   -0.5763 H   0  0  0  0  0  0  0  0  0  0  0  0
   -5.3825   -0.6466    1.0400 H   0  0  0  0  0  0  0  0  0  0  0  0
   -5.7115    2.3639    0.7035 H   0  0  0  0  0  0  0  0  0  0  0  0
   -5.1355    1.3189    2.1182 H   0  0  0  0  0  0  0  0  0  0  0  0
   -7.9247    2.0457    1.2439 H   0  0  0  0  0  0  0  0  0  0  0  0
   -7.2333    1.7987    2.8495 H   0  0  0  0  0  0  0  0  0  0  0  0
   -8.9090    0.1706    2.1666 H   0  0  0  0  0  0  0  0  0  0  0  0
   -7.4188   -0.5838    2.7623 H   0  0  0  0  0  0  0  0  0  0  0  0
   -8.8061   -0.9326    0.1932 H   0  0  0  0  0  0  0  0  0  0  0  0
   -7.3572   -1.7523    0.8343 H   0  0  0  0  0  0  0  0  0  0  0  0
   -6.7109   -0.7845   -1.2223 H   0  0  0  0  0  0  0  0  0  0  0  0
   -7.8755    2.1585   -2.4873 H   0  0  0  0  0  0  0  0  0  0  0  0
   -6.5581    0.9739   -2.7628 H   0  0  0  0  0  0  0  0  0  0  0  0
   -8.3155    0.4300   -2.5265 H   0  0  0  0  0  0  0  0  0  0  0  0
  1  2  1  0
  2  3  1  0
  3  4  1  0
  4  5  1  0
  5  6  1  0
  6  7  1  0
  7  8  1  0
  8  9  1  0
  5 10  1  0
  9 10  1  0
 10 11  1  0
 11 12  1  0
 12 13  1  0
 13 14  1  0
 14 15  1  0
 11 16  1  0
 15 16  1  0
  9 17  1  0
 16 17  1  0
  2 18  1  0
 18 19  1  0
 19 20  1  0
 20 21  1  0
 21 22  1  0
 22 23  1  0
 23 24  1  0
 24 25  1  0
 25 26  1  0
 26 27  1  0
 23 28  1  0
 27 28  1  0
 28 29  1  0
 29 30  1  0
 31 32  1  0
 32 33  1  0
 33 34  1  0
 34 35  1  0
 35 36  1  0
 36 37  1  0
 37 38  1  0
 38 39  1  0
 35 40  1  0
 39 40  1  0
 40 41  1  0
 41 42  1  0
 42 43  1  0
 43 44  1  0
 44 45  1  0
 41 46  1  0
 45 46  1  0
 39 47  1  0
 46 47  1  0
 32 48  1  0
 48 49  1  0
 49 50  1  0
 50 51  1  0
 51 52  1  0
 52 53  1  0
 53 54  1  0
 54 55  1  0
 55 56  1  0
 56 57  1  0
 53 58  1  0
 57 58  1  0
 58 59  1  0
 59 60  1  0
  1 61  1  0
  2 62  1  1
  3 63  1  0
  3 64  1  0
  5 65  1  6
  6 66  1  0
  6 67  1  0
  7 68  1  0
  7 69  1  0
  8 70  1  0
  8 71  1  0
  9 72  1  0
 10 73  1  0
 11 74  1  0
 12 75  1  0
 12 76  1  0
 13 77  1  0
 13 78  1  0
 14 79  1  0
 14 80  1  0
 15 81  1  0
 15 82  1  0
 16 83  1  0
 17 84  1  0
 18 85  1  0
 18 86  1  0
 19 87  1  0
 20 88  1  0
 20 89  1  0
 21 90  1  0
 21 91  1  0
 23 92  1  0
 24 93  1  0
 24 94  1  0
 25 95  1  0
 25 96  1  0
 26 97  1  0
 26 98  1  0
 27 99  1  0
 27100  1  0
 28101  1  0
 30102  1  0
 30103  1  0
 30104  1  0
 31105  1  0
 32106  1  1
 33107  1  0
 33108  1  0
 35109  1  1
 36110  1  0
 36111  1  0
 37112  1  0
 37113  1  0
 38114  1  0
 38115  1  0
 39116  1  0
 40117  1  6
 41118  1  1
 42119  1  0
 42120  1  0
 43121  1  0
 43122  1  0
 44123  1  0
 44124  1  0
 45125  1  0
 45126  1  0
 46127  1  0
 47128  1  0
 48129  1  0
 48130  1  0
 49131  1  0
 50132  1  0
 50133  1  0
 51134  1  0
 51135  1  0
 53136  1  0
 54137  1  0
 54138  1  0
 55139  1  0
 55140  1  0
 56141  1  0
 56142  1  0
 57143  1  0
 57144  1  0
 58145  1  0
 60146  1  0
 60147  1  0
 60148  1  0
M  END
>  <PDBID>  (1) 
4AMJ

>  <PDB ID>  (1) 
4AMJ

>  <Generic Name>  (1) 
Carvedilol

>  <Brand Name>  (1) 
Apo-carvedilol#Auro-carvedilol#Ava-carvedilol#Carvedilol#Coreg#Coreg (carvedilol) Tablets, 12.5mg#Coreg (carvedilol) Tablets, 25mg#Coreg (carvedilol) Tablets, 3.125 mg#Coreg (carvedilol) Tablets, 6.25mg#Coreg 12.5mg#Coreg 25mg#Coreg 3.125mg#Coreg 6.25mg#Coreg CR#Coregcr CR#Dilatrend - Tab 25mg#Dilatrend - Tab 50mg#Dom-carvedilol#Hypertenevide-12.5#Jamp-carvedilol#Mylan-carvedilol#Novo-carvedilol Tablets#Ntp-carvedilol#Nu-carvedilol#PMS-carvedilol#Ran-carvedilol#Ratio-carvedilol#Zym-carvedilol#COREGCR

>  <DrugBank ID>  (1) 
DB01136

>  <ATC Codes>  (1) 
C07AG02

>  <Ligand ID>  (1) 
CVD

>  <Target Name>  (1) 
Beta-1 adrenergic receptor

>  <UniProt ID>  (1) 
P08588

>  <PDB ID.1>  (1) 
4AMJ

>  <Seq. Identity>  (1) 
63%

$$$$
