PDB_DB08906_05
     RDKit          3D

160168  0  0  0  0  0  0  0  0999 V2000
   -1.4311   -2.7924    0.7728 C   0  0  0  0  0  0  0  0  0  0  0  0
   -1.5545   -2.2323   -0.6217 C   0  0  2  0  0  0  0  0  0  0  0  0
   -0.1293   -2.3097   -1.2516 C   0  0  0  0  0  0  0  0  0  0  0  0
    0.4258   -1.0900   -0.6880 C   0  0  1  0  0  0  0  0  0  0  0  0
    1.7354   -0.5689   -1.1235 C   0  0  2  0  0  0  0  0  0  0  0  0
    2.8403   -1.6405   -0.9954 C   0  0  0  0  0  0  0  0  0  0  0  0
    4.0949   -0.9754   -1.5152 C   0  0  2  0  0  0  0  0  0  0  0  0
    5.1561   -1.8543   -1.5832 F   0  0  0  0  0  0  0  0  0  0  0  0
    4.5144    0.1935   -0.6836 C   0  0  0  0  0  0  0  0  0  0  0  0
    5.2310   -0.2518    0.5705 C   0  0  0  0  0  0  0  0  0  0  0  0
    6.1204    0.9316    0.9768 C   0  0  0  0  0  0  0  0  0  0  0  0
    7.0613    1.0470   -0.0712 O   0  0  0  0  0  0  0  0  0  0  0  0
    5.2693    2.1788    0.9302 C   0  0  0  0  0  0  0  0  0  0  0  0
    3.8008    1.8874    0.8830 C   0  0  0  0  0  0  0  0  0  0  0  0
    3.4024    1.1701   -0.4199 C   0  0  1  0  0  0  0  0  0  0  0  0
    3.3681    2.1371   -1.5649 C   0  0  0  0  0  0  0  0  0  0  0  0
    2.0918    0.5008   -0.1147 C   0  0  2  0  0  0  0  0  0  0  0  0
    2.3293   -0.2355    1.0675 F   0  0  0  0  0  0  0  0  0  0  0  0
    1.0029    1.4644    0.1821 C   0  0  1  0  0  0  0  0  0  0  0  0
    1.0698    2.6487   -0.5537 O   0  0  0  0  0  0  0  0  0  0  0  0
   -0.3844    0.9658    0.1467 C   0  0  0  0  0  0  0  0  0  0  0  0
   -0.6352   -0.0626   -0.9605 C   0  0  1  0  0  0  0  0  0  0  0  0
   -0.5629    0.6570   -2.2324 C   0  0  0  0  0  0  0  0  0  0  0  0
   -1.9760   -0.8089   -0.7042 C   0  0  2  0  0  0  0  0  0  0  0  0
   -2.4333   -0.2560    0.3941 O   0  0  0  0  0  0  0  0  0  0  0  0
   -3.4700   -0.5268    1.1501 C   0  0  0  0  0  0  0  0  0  0  0  0
   -3.0393   -0.7425    2.4630 O   0  0  0  0  0  0  0  0  0  0  0  0
   -4.4519    0.6537    1.3226 C   0  0  0  0  0  0  0  0  0  0  0  0
   -5.5300    0.3007    2.3291 C   0  0  0  0  0  0  0  0  0  0  0  0
   -5.9880    1.6930    2.7573 C   0  0  0  0  0  0  0  0  0  0  0  0
   -4.9165    2.5880    2.1977 C   0  0  0  0  0  0  0  0  0  0  0  0
   -3.8558    1.7458    1.8988 O   0  0  0  0  0  0  0  0  0  0  0  0
   -2.8511   -0.7179   -1.9289 C   0  0  0  0  0  0  0  0  0  0  0  0
   -2.2074   -1.4574   -2.9507 O   0  0  0  0  0  0  0  0  0  0  0  0
   -4.4853   -1.3271   -1.7703 S   0  0  0  0  0  0  0  0  0  0  0  0
   -4.8255   -3.0312   -1.5780 C   0  0  0  0  0  0  0  0  0  0  0  0
   -4.4899   -3.6376   -0.3903 F   0  0  0  0  0  0  0  0  0  0  0  0
   -1.4311   -2.7924    0.7728 C   0  0  0  0  0  0  0  0  0  0  0  0
   -1.5545   -2.2323   -0.6217 C   0  0  2  0  0  0  0  0  0  0  0  0
   -0.1293   -2.3097   -1.2516 C   0  0  0  0  0  0  0  0  0  0  0  0
    0.4258   -1.0900   -0.6880 C   0  0  1  0  0  0  0  0  0  0  0  0
    1.7354   -0.5689   -1.1235 C   0  0  2  0  0  0  0  0  0  0  0  0
    2.8403   -1.6405   -0.9954 C   0  0  0  0  0  0  0  0  0  0  0  0
    4.0949   -0.9754   -1.5152 C   0  0  2  0  0  0  0  0  0  0  0  0
    5.1561   -1.8543   -1.5832 F   0  0  0  0  0  0  0  0  0  0  0  0
    4.5144    0.1935   -0.6836 C   0  0  0  0  0  0  0  0  0  0  0  0
    5.2310   -0.2518    0.5705 C   0  0  0  0  0  0  0  0  0  0  0  0
    6.1204    0.9316    0.9768 C   0  0  0  0  0  0  0  0  0  0  0  0
    7.0613    1.0470   -0.0712 O   0  0  0  0  0  0  0  0  0  0  0  0
    5.2693    2.1788    0.9302 C   0  0  0  0  0  0  0  0  0  0  0  0
    3.8008    1.8874    0.8830 C   0  0  0  0  0  0  0  0  0  0  0  0
    3.4024    1.1701   -0.4199 C   0  0  1  0  0  0  0  0  0  0  0  0
    3.3681    2.1371   -1.5649 C   0  0  0  0  0  0  0  0  0  0  0  0
    2.0918    0.5008   -0.1147 C   0  0  2  0  0  0  0  0  0  0  0  0
    2.3293   -0.2355    1.0675 F   0  0  0  0  0  0  0  0  0  0  0  0
    1.0029    1.4644    0.1821 C   0  0  1  0  0  0  0  0  0  0  0  0
    1.0698    2.6487   -0.5537 O   0  0  0  0  0  0  0  0  0  0  0  0
   -0.3844    0.9658    0.1467 C   0  0  0  0  0  0  0  0  0  0  0  0
   -0.6352   -0.0626   -0.9605 C   0  0  1  0  0  0  0  0  0  0  0  0
   -0.5629    0.6570   -2.2324 C   0  0  0  0  0  0  0  0  0  0  0  0
   -1.9760   -0.8089   -0.7042 C   0  0  2  0  0  0  0  0  0  0  0  0
   -2.4333   -0.2560    0.3941 O   0  0  0  0  0  0  0  0  0  0  0  0
   -3.4700   -0.5268    1.1501 C   0  0  0  0  0  0  0  0  0  0  0  0
   -3.0393   -0.7425    2.4630 O   0  0  0  0  0  0  0  0  0  0  0  0
   -4.4519    0.6537    1.3226 C   0  0  0  0  0  0  0  0  0  0  0  0
   -5.5300    0.3007    2.3291 C   0  0  0  0  0  0  0  0  0  0  0  0
   -5.9880    1.6930    2.7573 C   0  0  0  0  0  0  0  0  0  0  0  0
   -4.9165    2.5880    2.1977 C   0  0  0  0  0  0  0  0  0  0  0  0
   -3.8558    1.7458    1.8988 O   0  0  0  0  0  0  0  0  0  0  0  0
   -2.8511   -0.7179   -1.9289 C   0  0  0  0  0  0  0  0  0  0  0  0
   -2.2074   -1.4574   -2.9507 O   0  0  0  0  0  0  0  0  0  0  0  0
   -4.4853   -1.3271   -1.7703 S   0  0  0  0  0  0  0  0  0  0  0  0
   -4.8255   -3.0312   -1.5780 C   0  0  0  0  0  0  0  0  0  0  0  0
   -4.4899   -3.6376   -0.3903 F   0  0  0  0  0  0  0  0  0  0  0  0
   -2.4216   -3.0704    1.2056 H   0  0  0  0  0  0  0  0  0  0  0  0
   -0.8634   -3.7629    0.7568 H   0  0  0  0  0  0  0  0  0  0  0  0
   -0.9391   -2.1102    1.4921 H   0  0  0  0  0  0  0  0  0  0  0  0
   -2.2037   -2.9223   -1.2084 H   0  0  0  0  0  0  0  0  0  0  0  0
    0.3719   -3.2028   -0.7880 H   0  0  0  0  0  0  0  0  0  0  0  0
   -0.1742   -2.4160   -2.3304 H   0  0  0  0  0  0  0  0  0  0  0  0
    0.5136   -1.2442    0.4344 H   0  0  0  0  0  0  0  0  0  0  0  0
    1.8422   -0.1895   -2.1277 H   0  0  0  0  0  0  0  0  0  0  0  0
    2.5654   -2.4257   -1.7304 H   0  0  0  0  0  0  0  0  0  0  0  0
    2.9356   -2.0031    0.0273 H   0  0  0  0  0  0  0  0  0  0  0  0
    3.8444   -0.5933   -2.5333 H   0  0  0  0  0  0  0  0  0  0  0  0
    5.2937    0.7429   -1.2839 H   0  0  0  0  0  0  0  0  0  0  0  0
    4.5757   -0.5761    1.3741 H   0  0  0  0  0  0  0  0  0  0  0  0
    5.8635   -1.1225    0.2762 H   0  0  0  0  0  0  0  0  0  0  0  0
    6.6135    0.7653    1.9454 H   0  0  0  0  0  0  0  0  0  0  0  0
    7.8978    0.5948    0.1225 H   0  0  0  0  0  0  0  0  0  0  0  0
    5.5006    2.8178    0.0387 H   0  0  0  0  0  0  0  0  0  0  0  0
    5.4613    2.7685    1.8369 H   0  0  0  0  0  0  0  0  0  0  0  0
    3.5515    1.1868    1.7103 H   0  0  0  0  0  0  0  0  0  0  0  0
    3.2601    2.8363    0.9870 H   0  0  0  0  0  0  0  0  0  0  0  0
    3.2251    3.2013   -1.2114 H   0  0  0  0  0  0  0  0  0  0  0  0
    2.6867    1.9016   -2.3772 H   0  0  0  0  0  0  0  0  0  0  0  0
    4.3893    2.1958   -2.0596 H   0  0  0  0  0  0  0  0  0  0  0  0
    1.1850    1.8149    1.2488 H   0  0  0  0  0  0  0  0  0  0  0  0
    0.7947    3.4355   -0.0280 H   0  0  0  0  0  0  0  0  0  0  0  0
   -0.6911    0.4715    1.0924 H   0  0  0  0  0  0  0  0  0  0  0  0
   -1.1073    1.7796   -0.0418 H   0  0  0  0  0  0  0  0  0  0  0  0
   -0.5913    0.1192   -3.1689 H   0  0  0  0  0  0  0  0  0  0  0  0
   -1.2881    1.4981   -2.2458 H   0  0  0  0  0  0  0  0  0  0  0  0
    0.4324    1.2090   -2.2580 H   0  0  0  0  0  0  0  0  0  0  0  0
   -4.1032   -1.3915    0.8998 H   0  0  0  0  0  0  0  0  0  0  0  0
   -3.5243   -1.4478    2.9251 H   0  0  0  0  0  0  0  0  0  0  0  0
   -4.9877    0.8606    0.3737 H   0  0  0  0  0  0  0  0  0  0  0  0
   -6.3953   -0.1954    1.8515 H   0  0  0  0  0  0  0  0  0  0  0  0
   -5.1326   -0.2252    3.2060 H   0  0  0  0  0  0  0  0  0  0  0  0
   -6.9445    1.9556    2.2781 H   0  0  0  0  0  0  0  0  0  0  0  0
   -5.9887    1.8071    3.8518 H   0  0  0  0  0  0  0  0  0  0  0  0
   -5.2449    3.1167    1.2772 H   0  0  0  0  0  0  0  0  0  0  0  0
   -4.5869    3.3765    2.9053 H   0  0  0  0  0  0  0  0  0  0  0  0
   -2.8407    0.3196   -2.3617 H   0  0  0  0  0  0  0  0  0  0  0  0
   -2.6959   -1.2631   -3.7967 H   0  0  0  0  0  0  0  0  0  0  0  0
   -4.4215   -3.6739   -2.4086 H   0  0  0  0  0  0  0  0  0  0  0  0
   -5.9545   -3.1840   -1.6465 H   0  0  0  0  0  0  0  0  0  0  0  0
   -2.4216   -3.0704    1.2056 H   0  0  0  0  0  0  0  0  0  0  0  0
   -0.8634   -3.7629    0.7568 H   0  0  0  0  0  0  0  0  0  0  0  0
   -0.9391   -2.1102    1.4921 H   0  0  0  0  0  0  0  0  0  0  0  0
   -2.2037   -2.9223   -1.2084 H   0  0  0  0  0  0  0  0  0  0  0  0
    0.3719   -3.2028   -0.7880 H   0  0  0  0  0  0  0  0  0  0  0  0
   -0.1742   -2.4160   -2.3304 H   0  0  0  0  0  0  0  0  0  0  0  0
    0.5136   -1.2442    0.4344 H   0  0  0  0  0  0  0  0  0  0  0  0
    1.8422   -0.1895   -2.1277 H   0  0  0  0  0  0  0  0  0  0  0  0
    2.5654   -2.4257   -1.7304 H   0  0  0  0  0  0  0  0  0  0  0  0
    2.9356   -2.0031    0.0273 H   0  0  0  0  0  0  0  0  0  0  0  0
    3.8444   -0.5933   -2.5333 H   0  0  0  0  0  0  0  0  0  0  0  0
    5.2937    0.7429   -1.2839 H   0  0  0  0  0  0  0  0  0  0  0  0
    4.5757   -0.5761    1.3741 H   0  0  0  0  0  0  0  0  0  0  0  0
    5.8635   -1.1225    0.2762 H   0  0  0  0  0  0  0  0  0  0  0  0
    6.6135    0.7653    1.9454 H   0  0  0  0  0  0  0  0  0  0  0  0
    7.8978    0.5948    0.1225 H   0  0  0  0  0  0  0  0  0  0  0  0
    5.5006    2.8178    0.0387 H   0  0  0  0  0  0  0  0  0  0  0  0
    5.4613    2.7685    1.8369 H   0  0  0  0  0  0  0  0  0  0  0  0
    3.5515    1.1868    1.7103 H   0  0  0  0  0  0  0  0  0  0  0  0
    3.2601    2.8363    0.9870 H   0  0  0  0  0  0  0  0  0  0  0  0
    3.2251    3.2013   -1.2114 H   0  0  0  0  0  0  0  0  0  0  0  0
    2.6867    1.9016   -2.3772 H   0  0  0  0  0  0  0  0  0  0  0  0
    4.3893    2.1958   -2.0596 H   0  0  0  0  0  0  0  0  0  0  0  0
    1.1850    1.8149    1.2488 H   0  0  0  0  0  0  0  0  0  0  0  0
    0.7947    3.4355   -0.0280 H   0  0  0  0  0  0  0  0  0  0  0  0
   -0.6911    0.4715    1.0924 H   0  0  0  0  0  0  0  0  0  0  0  0
   -1.1073    1.7796   -0.0418 H   0  0  0  0  0  0  0  0  0  0  0  0
   -0.5913    0.1192   -3.1689 H   0  0  0  0  0  0  0  0  0  0  0  0
   -1.2881    1.4981   -2.2458 H   0  0  0  0  0  0  0  0  0  0  0  0
    0.4324    1.2090   -2.2580 H   0  0  0  0  0  0  0  0  0  0  0  0
   -4.1032   -1.3915    0.8998 H   0  0  0  0  0  0  0  0  0  0  0  0
   -3.5243   -1.4478    2.9251 H   0  0  0  0  0  0  0  0  0  0  0  0
   -4.9877    0.8606    0.3737 H   0  0  0  0  0  0  0  0  0  0  0  0
   -6.3953   -0.1954    1.8515 H   0  0  0  0  0  0  0  0  0  0  0  0
   -5.1326   -0.2252    3.2060 H   0  0  0  0  0  0  0  0  0  0  0  0
   -6.9445    1.9556    2.2781 H   0  0  0  0  0  0  0  0  0  0  0  0
   -5.9887    1.8071    3.8518 H   0  0  0  0  0  0  0  0  0  0  0  0
   -5.2449    3.1167    1.2772 H   0  0  0  0  0  0  0  0  0  0  0  0
   -4.5869    3.3765    2.9053 H   0  0  0  0  0  0  0  0  0  0  0  0
   -2.8407    0.3196   -2.3617 H   0  0  0  0  0  0  0  0  0  0  0  0
   -2.6959   -1.2631   -3.7967 H   0  0  0  0  0  0  0  0  0  0  0  0
   -4.4215   -3.6739   -2.4086 H   0  0  0  0  0  0  0  0  0  0  0  0
   -5.9545   -3.1840   -1.6465 H   0  0  0  0  0  0  0  0  0  0  0  0
  1  2  1  0
  2  3  1  0
  3  4  1  0
  4  5  1  0
  5  6  1  0
  6  7  1  0
  7  8  1  0
  7  9  1  0
  9 10  1  0
 10 11  1  0
 11 12  1  0
 11 13  1  0
 13 14  1  0
  9 15  1  0
 14 15  1  0
 15 16  1  6
  5 17  1  0
 15 17  1  0
 17 18  1  1
 17 19  1  0
 19 20  1  0
 19 21  1  0
  4 22  1  0
 21 22  1  0
 22 23  1  6
  2 24  1  0
 22 24  1  0
 24 25  1  1
 25 26  1  0
 26 27  1  0
 26 28  1  0
 28 29  1  0
 29 30  1  0
 30 31  1  0
 28 32  1  0
 31 32  1  0
 24 33  1  0
 33 34  1  0
 33 35  1  0
 35 36  1  0
 36 37  1  0
 38 39  1  0
 39 40  1  0
 40 41  1  0
 41 42  1  0
 42 43  1  0
 43 44  1  0
 44 45  1  0
 44 46  1  0
 46 47  1  0
 47 48  1  0
 48 49  1  0
 48 50  1  0
 50 51  1  0
 46 52  1  0
 51 52  1  0
 52 53  1  6
 42 54  1  0
 52 54  1  0
 54 55  1  1
 54 56  1  0
 56 57  1  0
 56 58  1  0
 41 59  1  0
 58 59  1  0
 59 60  1  6
 39 61  1  0
 59 61  1  0
 61 62  1  1
 62 63  1  0
 63 64  1  0
 63 65  1  0
 65 66  1  0
 66 67  1  0
 67 68  1  0
 65 69  1  0
 68 69  1  0
 61 70  1  0
 70 71  1  0
 70 72  1  0
 72 73  1  0
 73 74  1  0
  1 75  1  0
  1 76  1  0
  1 77  1  0
  2 78  1  6
  3 79  1  0
  3 80  1  0
  4 81  1  1
  5 82  1  6
  6 83  1  0
  6 84  1  0
  7 85  1  6
  9 86  1  0
 10 87  1  0
 10 88  1  0
 11 89  1  0
 12 90  1  0
 13 91  1  0
 13 92  1  0
 14 93  1  0
 14 94  1  0
 16 95  1  0
 16 96  1  0
 16 97  1  0
 19 98  1  1
 20 99  1  0
 21100  1  0
 21101  1  0
 23102  1  0
 23103  1  0
 23104  1  0
 26105  1  0
 27106  1  0
 28107  1  0
 29108  1  0
 29109  1  0
 30110  1  0
 30111  1  0
 31112  1  0
 31113  1  0
 33114  1  0
 34115  1  0
 36116  1  0
 36117  1  0
 38118  1  0
 38119  1  0
 38120  1  0
 39121  1  6
 40122  1  0
 40123  1  0
 41124  1  1
 42125  1  6
 43126  1  0
 43127  1  0
 44128  1  6
 46129  1  0
 47130  1  0
 47131  1  0
 48132  1  0
 49133  1  0
 50134  1  0
 50135  1  0
 51136  1  0
 51137  1  0
 53138  1  0
 53139  1  0
 53140  1  0
 56141  1  1
 57142  1  0
 58143  1  0
 58144  1  0
 60145  1  0
 60146  1  0
 60147  1  0
 63148  1  0
 64149  1  0
 65150  1  0
 66151  1  0
 66152  1  0
 67153  1  0
 67154  1  0
 68155  1  0
 68156  1  0
 70157  1  0
 71158  1  0
 73159  1  0
 73160  1  0
M  END
>  <PDBID>  (1) 
3CLD

>  <PDB ID>  (1) 
3CLD

>  <Generic Name>  (1) 
Fluticasone furoate

>  <Brand Name>  (1) 
Arnuity Ellipta#Avamys#Breo Ellipta#Flonase Sensimist Allergy Relief#Veramyst

>  <DrugBank ID>  (1) 
DB08906

>  <ATC Codes>  (1) 
R03AK10#R01AD12#R03BA09

>  <Ligand ID>  (1) 
GW6

>  <Target Name>  (1) 
Glucocorticoid receptor

>  <UniProt ID>  (1) 
P04150

>  <PDB ID.1>  (1) 
3CLD

>  <Seq. Identity>  (1) 
99%

$$$$
