PDB_DB00907_06
     RDKit          3D

 53 55  0  0  0  0  0  0  0  0999 V2000
   -3.2016   -3.1816   -1.5250 C   0  0  0  0  0  0  0  0  0  0  0  0
   -2.8976   -2.8045   -0.2455 O   0  0  0  0  0  0  0  0  0  0  0  0
   -1.7164   -2.0784   -0.1076 C   0  0  0  0  0  0  0  0  0  0  0  0
   -0.7591   -2.8759    0.5728 O   0  0  0  0  0  0  0  0  0  0  0  0
   -1.9405   -0.7929    0.6379 C   0  0  2  0  0  0  0  0  0  0  0  0
   -2.9276    0.0395   -0.0976 C   0  0  2  0  0  0  0  0  0  0  0  0
   -2.2697    1.2442   -0.5575 N   0  0  0  0  0  0  0  0  0  0  0  0
   -3.0428    1.9664   -1.5281 C   0  0  0  0  0  0  0  0  0  0  0  0
   -4.0110    0.6039    0.8065 C   0  0  0  0  0  0  0  0  0  0  0  0
   -3.2823    1.6709    1.5534 C   0  0  0  0  0  0  0  0  0  0  0  0
   -2.0988    1.9602    0.6895 C   0  0  1  0  0  0  0  0  0  0  0  0
   -0.8774    1.3655    1.3642 C   0  0  0  0  0  0  0  0  0  0  0  0
   -0.6672   -0.0803    0.9778 C   0  0  2  0  0  0  0  0  0  0  0  0
    0.2798   -0.0673   -0.0401 O   0  0  0  0  0  0  0  0  0  0  0  0
    1.4663   -0.6400    0.3247 C   0  0  0  0  0  0  0  0  0  0  0  0
    1.8912   -1.7023   -0.4412 O   0  0  0  0  0  0  0  0  0  0  0  0
    2.6165    0.3531    0.3823 C   0  0  0  0  0  0  0  0  0  0  0  0
    3.8238   -0.4615    0.7977 C   0  0  0  0  0  0  0  0  0  0  0  0
    5.0986    0.3400    0.7521 C   0  0  0  0  0  0  0  0  0  0  0  0
    5.3768    0.8717   -0.6212 C   0  0  0  0  0  0  0  0  0  0  0  0
    4.2340    0.5078   -1.5230 C   0  0  0  0  0  0  0  0  0  0  0  0
    2.9023    0.9551   -0.9672 C   0  0  0  0  0  0  0  0  0  0  0  0
   -3.3260   -2.3868   -2.2468 H   0  0  0  0  0  0  0  0  0  0  0  0
   -4.1675   -3.7670   -1.5023 H   0  0  0  0  0  0  0  0  0  0  0  0
   -2.4558   -3.9463   -1.8967 H   0  0  0  0  0  0  0  0  0  0  0  0
   -1.3145   -1.9138   -1.1258 H   0  0  0  0  0  0  0  0  0  0  0  0
   -1.2868   -3.3907    1.2364 H   0  0  0  0  0  0  0  0  0  0  0  0
   -2.4529   -1.1070    1.5996 H   0  0  0  0  0  0  0  0  0  0  0  0
   -3.4385   -0.5038   -0.8869 H   0  0  0  0  0  0  0  0  0  0  0  0
   -2.3475    2.4974   -2.2166 H   0  0  0  0  0  0  0  0  0  0  0  0
   -3.6064    1.2267   -2.1254 H   0  0  0  0  0  0  0  0  0  0  0  0
   -3.7876    2.6388   -1.0621 H   0  0  0  0  0  0  0  0  0  0  0  0
   -4.7824    1.0661    0.1769 H   0  0  0  0  0  0  0  0  0  0  0  0
   -4.4311   -0.1950    1.4814 H   0  0  0  0  0  0  0  0  0  0  0  0
   -2.9884    1.2516    2.5596 H   0  0  0  0  0  0  0  0  0  0  0  0
   -3.8894    2.5735    1.7669 H   0  0  0  0  0  0  0  0  0  0  0  0
   -1.9413    3.0177    0.4873 H   0  0  0  0  0  0  0  0  0  0  0  0
   -1.0241    1.5059    2.4551 H   0  0  0  0  0  0  0  0  0  0  0  0
   -0.0208    2.0116    1.0808 H   0  0  0  0  0  0  0  0  0  0  0  0
   -0.2080   -0.5811    1.8478 H   0  0  0  0  0  0  0  0  0  0  0  0
    1.3817   -1.0078    1.3840 H   0  0  0  0  0  0  0  0  0  0  0  0
    1.6165   -1.6195   -1.3883 H   0  0  0  0  0  0  0  0  0  0  0  0
    2.4183    1.1498    1.1334 H   0  0  0  0  0  0  0  0  0  0  0  0
    3.6422   -0.7924    1.8352 H   0  0  0  0  0  0  0  0  0  0  0  0
    3.8855   -1.3337    0.1227 H   0  0  0  0  0  0  0  0  0  0  0  0
    5.0774    1.1276    1.5276 H   0  0  0  0  0  0  0  0  0  0  0  0
    5.9224   -0.3513    1.0260 H   0  0  0  0  0  0  0  0  0  0  0  0
    5.5302    1.9569   -0.5624 H   0  0  0  0  0  0  0  0  0  0  0  0
    6.2997    0.4356   -1.0737 H   0  0  0  0  0  0  0  0  0  0  0  0
    4.2605   -0.5798   -1.7384 H   0  0  0  0  0  0  0  0  0  0  0  0
    4.3816    1.0509   -2.4828 H   0  0  0  0  0  0  0  0  0  0  0  0
    2.1231    0.7096   -1.7201 H   0  0  0  0  0  0  0  0  0  0  0  0
    2.9328    2.0628   -0.8972 H   0  0  0  0  0  0  0  0  0  0  0  0
  1  2  1  0
  2  3  1  0
  3  4  1  0
  3  5  1  0
  5  6  1  0
  6  7  1  0
  7  8  1  0
  6  9  1  0
  9 10  1  0
  7 11  1  0
 10 11  1  0
 11 12  1  0
  5 13  1  0
 12 13  1  0
 13 14  1  0
 14 15  1  0
 15 16  1  0
 15 17  1  0
 17 18  1  0
 18 19  1  0
 19 20  1  0
 20 21  1  0
 17 22  1  0
 21 22  1  0
  1 23  1  0
  1 24  1  0
  1 25  1  0
  3 26  1  0
  4 27  1  0
  5 28  1  1
  6 29  1  6
  8 30  1  0
  8 31  1  0
  8 32  1  0
  9 33  1  0
  9 34  1  0
 10 35  1  0
 10 36  1  0
 11 37  1  6
 12 38  1  0
 12 39  1  0
 13 40  1  1
 15 41  1  0
 16 42  1  0
 17 43  1  0
 18 44  1  0
 18 45  1  0
 19 46  1  0
 19 47  1  0
 20 48  1  0
 20 49  1  0
 21 50  1  0
 21 51  1  0
 22 52  1  0
 22 53  1  0
M  END
>  <PDBID>  (1) 
4XP4

>  <PDB ID>  (1) 
4XP4

>  <Generic Name>  (1) 
Cocaine

>  <Brand Name>  (1) 
Cocaine Hydrochloride#Cocaine Hydrochloride Top Sol 40mg/ml#Cocaine Hydrochloride Topical Sol 10%#PMS-cocaine Hydrochloride  Topical Sol 4%#PMS-cocaine Hydrochloride Topical Sol 10%

>  <DrugBank ID>  (1) 
DB00907

>  <ATC Codes>  (1) 
S01HA01#N01BC01#R02AD03#S02DA02

>  <Ligand ID>  (1) 
COC

>  <Target Name>  (1) 
Sodium-dependent noradrenaline transporter

>  <UniProt ID>  (1) 
P23975

>  <PDB ID.1>  (1) 
4XP4

>  <Seq. Identity>  (1) 
58%

$$$$
