PDB_DB00127_02
     RDKit          3D

 80 78  0  0  0  0  0  0  0  0999 V2000
   -5.2495    1.2319    1.1470 N   0  0  0  0  0  0  0  0  0  0  0  0
   -5.4717    0.7300   -0.1809 C   0  0  0  0  0  0  0  0  0  0  0  0
   -4.8150   -0.6123   -0.3522 C   0  0  0  0  0  0  0  0  0  0  0  0
   -3.3073   -0.5670   -0.1421 C   0  0  0  0  0  0  0  0  0  0  0  0
   -2.6710    0.3220   -1.0514 N   0  0  0  0  0  0  0  0  0  0  0  0
   -1.2554    0.3138   -0.8798 C   0  0  0  0  0  0  0  0  0  0  0  0
   -0.6497   -0.9801   -1.3309 C   0  0  0  0  0  0  0  0  0  0  0  0
    0.8651   -0.9175   -1.1409 C   0  0  0  0  0  0  0  0  0  0  0  0
    1.2743   -0.7418    0.2780 C   0  0  0  0  0  0  0  0  0  0  0  0
    2.7027   -0.7338    0.3988 N   0  0  0  0  0  0  0  0  0  0  0  0
    3.2731    0.4668   -0.1083 C   0  0  0  0  0  0  0  0  0  0  0  0
    4.8006    0.3490   -0.0877 C   0  0  0  0  0  0  0  0  0  0  0  0
    5.2183    0.1041    1.3401 C   0  0  0  0  0  0  0  0  0  0  0  0
    4.7774    1.2197    2.1438 N   0  0  0  0  0  0  0  0  0  0  0  0
   -5.2495    1.2319    1.1470 N   0  0  0  0  0  0  0  0  0  0  0  0
   -5.4717    0.7300   -0.1809 C   0  0  0  0  0  0  0  0  0  0  0  0
   -4.8150   -0.6123   -0.3522 C   0  0  0  0  0  0  0  0  0  0  0  0
   -3.3073   -0.5670   -0.1421 C   0  0  0  0  0  0  0  0  0  0  0  0
   -2.6710    0.3220   -1.0514 N   0  0  0  0  0  0  0  0  0  0  0  0
   -1.2554    0.3138   -0.8798 C   0  0  0  0  0  0  0  0  0  0  0  0
   -0.6497   -0.9801   -1.3309 C   0  0  0  0  0  0  0  0  0  0  0  0
    0.8651   -0.9175   -1.1409 C   0  0  0  0  0  0  0  0  0  0  0  0
    1.2743   -0.7418    0.2780 C   0  0  0  0  0  0  0  0  0  0  0  0
    2.7027   -0.7338    0.3988 N   0  0  0  0  0  0  0  0  0  0  0  0
    3.2731    0.4668   -0.1083 C   0  0  0  0  0  0  0  0  0  0  0  0
    4.8006    0.3490   -0.0877 C   0  0  0  0  0  0  0  0  0  0  0  0
    5.2183    0.1041    1.3401 C   0  0  0  0  0  0  0  0  0  0  0  0
    4.7774    1.2197    2.1438 N   0  0  0  0  0  0  0  0  0  0  0  0
   -4.9793    0.5068    1.8403 H   0  0  0  0  0  0  0  0  0  0  0  0
   -4.4697    1.9336    1.1002 H   0  0  0  0  0  0  0  0  0  0  0  0
   -6.5647    0.5593   -0.3160 H   0  0  0  0  0  0  0  0  0  0  0  0
   -5.1324    1.4490   -0.9625 H   0  0  0  0  0  0  0  0  0  0  0  0
   -5.2067   -1.2445    0.4924 H   0  0  0  0  0  0  0  0  0  0  0  0
   -5.0828   -1.1441   -1.2612 H   0  0  0  0  0  0  0  0  0  0  0  0
   -3.1373   -0.2629    0.9206 H   0  0  0  0  0  0  0  0  0  0  0  0
   -2.9376   -1.6021   -0.2536 H   0  0  0  0  0  0  0  0  0  0  0  0
   -3.0050    0.3247   -2.0134 H   0  0  0  0  0  0  0  0  0  0  0  0
   -0.7464    1.1674   -1.3782 H   0  0  0  0  0  0  0  0  0  0  0  0
   -1.0145    0.4423    0.2127 H   0  0  0  0  0  0  0  0  0  0  0  0
   -1.0140   -1.8555   -0.7567 H   0  0  0  0  0  0  0  0  0  0  0  0
   -0.8931   -1.1750   -2.4054 H   0  0  0  0  0  0  0  0  0  0  0  0
    1.2671   -1.8647   -1.5867 H   0  0  0  0  0  0  0  0  0  0  0  0
    1.2918   -0.1055   -1.7660 H   0  0  0  0  0  0  0  0  0  0  0  0
    0.7879   -1.5098    0.9284 H   0  0  0  0  0  0  0  0  0  0  0  0
    0.9371    0.2580    0.6741 H   0  0  0  0  0  0  0  0  0  0  0  0
    3.0958   -1.5550   -0.1103 H   0  0  0  0  0  0  0  0  0  0  0  0
    2.9221    0.6749   -1.1142 H   0  0  0  0  0  0  0  0  0  0  0  0
    3.0368    1.2773    0.6265 H   0  0  0  0  0  0  0  0  0  0  0  0
    5.1686   -0.4333   -0.7833 H   0  0  0  0  0  0  0  0  0  0  0  0
    5.1885    1.3374   -0.3997 H   0  0  0  0  0  0  0  0  0  0  0  0
    4.7105   -0.8299    1.6773 H   0  0  0  0  0  0  0  0  0  0  0  0
    6.3240   -0.0136    1.3989 H   0  0  0  0  0  0  0  0  0  0  0  0
    4.5809    0.9264    3.1270 H   0  0  0  0  0  0  0  0  0  0  0  0
    5.3806    2.0494    2.0752 H   0  0  0  0  0  0  0  0  0  0  0  0
   -4.9793    0.5068    1.8403 H   0  0  0  0  0  0  0  0  0  0  0  0
   -4.4697    1.9336    1.1002 H   0  0  0  0  0  0  0  0  0  0  0  0
   -6.5647    0.5593   -0.3160 H   0  0  0  0  0  0  0  0  0  0  0  0
   -5.1324    1.4490   -0.9625 H   0  0  0  0  0  0  0  0  0  0  0  0
   -5.2067   -1.2445    0.4924 H   0  0  0  0  0  0  0  0  0  0  0  0
   -5.0828   -1.1441   -1.2612 H   0  0  0  0  0  0  0  0  0  0  0  0
   -3.1373   -0.2629    0.9206 H   0  0  0  0  0  0  0  0  0  0  0  0
   -2.9376   -1.6021   -0.2536 H   0  0  0  0  0  0  0  0  0  0  0  0
   -3.0050    0.3247   -2.0134 H   0  0  0  0  0  0  0  0  0  0  0  0
   -0.7464    1.1674   -1.3782 H   0  0  0  0  0  0  0  0  0  0  0  0
   -1.0145    0.4423    0.2127 H   0  0  0  0  0  0  0  0  0  0  0  0
   -1.0140   -1.8555   -0.7567 H   0  0  0  0  0  0  0  0  0  0  0  0
   -0.8931   -1.1750   -2.4054 H   0  0  0  0  0  0  0  0  0  0  0  0
    1.2671   -1.8647   -1.5867 H   0  0  0  0  0  0  0  0  0  0  0  0
    1.2918   -0.1055   -1.7660 H   0  0  0  0  0  0  0  0  0  0  0  0
    0.7879   -1.5098    0.9284 H   0  0  0  0  0  0  0  0  0  0  0  0
    0.9371    0.2580    0.6741 H   0  0  0  0  0  0  0  0  0  0  0  0
    3.0958   -1.5550   -0.1103 H   0  0  0  0  0  0  0  0  0  0  0  0
    2.9221    0.6749   -1.1142 H   0  0  0  0  0  0  0  0  0  0  0  0
    3.0368    1.2773    0.6265 H   0  0  0  0  0  0  0  0  0  0  0  0
    5.1686   -0.4333   -0.7833 H   0  0  0  0  0  0  0  0  0  0  0  0
    5.1885    1.3374   -0.3997 H   0  0  0  0  0  0  0  0  0  0  0  0
    4.7105   -0.8299    1.6773 H   0  0  0  0  0  0  0  0  0  0  0  0
    6.3240   -0.0136    1.3989 H   0  0  0  0  0  0  0  0  0  0  0  0
    4.5809    0.9264    3.1270 H   0  0  0  0  0  0  0  0  0  0  0  0
    5.3806    2.0494    2.0752 H   0  0  0  0  0  0  0  0  0  0  0  0
  1  2  1  0
  2  3  1  0
  3  4  1  0
  4  5  1  0
  5  6  1  0
  6  7  1  0
  7  8  1  0
  8  9  1  0
  9 10  1  0
 10 11  1  0
 11 12  1  0
 12 13  1  0
 13 14  1  0
 15 16  1  0
 16 17  1  0
 17 18  1  0
 18 19  1  0
 19 20  1  0
 20 21  1  0
 21 22  1  0
 22 23  1  0
 23 24  1  0
 24 25  1  0
 25 26  1  0
 26 27  1  0
 27 28  1  0
  1 29  1  0
  1 30  1  0
  2 31  1  0
  2 32  1  0
  3 33  1  0
  3 34  1  0
  4 35  1  0
  4 36  1  0
  5 37  1  0
  6 38  1  0
  6 39  1  0
  7 40  1  0
  7 41  1  0
  8 42  1  0
  8 43  1  0
  9 44  1  0
  9 45  1  0
 10 46  1  0
 11 47  1  0
 11 48  1  0
 12 49  1  0
 12 50  1  0
 13 51  1  0
 13 52  1  0
 14 53  1  0
 14 54  1  0
 15 55  1  0
 15 56  1  0
 16 57  1  0
 16 58  1  0
 17 59  1  0
 17 60  1  0
 18 61  1  0
 18 62  1  0
 19 63  1  0
 20 64  1  0
 20 65  1  0
 21 66  1  0
 21 67  1  0
 22 68  1  0
 22 69  1  0
 23 70  1  0
 23 71  1  0
 24 72  1  0
 25 73  1  0
 25 74  1  0
 26 75  1  0
 26 76  1  0
 27 77  1  0
 27 78  1  0
 28 79  1  0
 28 80  1  0
M  END
>  <PDBID>  (1) 
3KU9

>  <PDB ID>  (1) 
3KU9

>  <Generic Name>  (1) 
Spermine

>  <Brand Name>  (1) 
nan

>  <DrugBank ID>  (1) 
DB00127

>  <ATC Codes>  (1) 
nan

>  <Ligand ID>  (1) 
SPM

>  <Target Name>  (1) 
Spermine oxidase

>  <UniProt ID>  (1) 
Q9NWM0

>  <PDB ID.1>  (1) 
3KU9

>  <Seq. Identity>  (1) 
31%

$$$$
