PDB_DB06616_05
     RDKit          3D

170176  0  0  0  0  0  0  0  0999 V2000
    1.7888    3.1087    0.6727 C   0  0  0  0  0  0  0  0  0  0  0  0
   -7.4920    0.4445    1.8678 O   0  0  0  0  0  0  0  0  0  0  0  0
    5.6500    0.8520   -1.0205 C   0  0  0  0  0  0  0  0  0  0  0  0
   -3.9137    1.7000   -3.4192 N   0  0  0  0  0  0  0  0  0  0  0  0
   -8.9815   -1.8274    1.9710 Cl  0  0  0  0  0  0  0  0  0  0  0  0
   -3.9208   -3.6961    1.2683 Cl  0  0  0  0  0  0  0  0  0  0  0  0
   -3.6093    1.4718   -1.9982 C   0  0  0  0  0  0  0  0  0  0  0  0
   -1.6606    0.1444   -2.6030 C   0  0  0  0  0  0  0  0  0  0  0  0
   -6.3791   -2.6045    1.6883 C   0  0  0  0  0  0  0  0  0  0  0  0
   -5.4256   -0.3292    0.9674 C   0  0  0  0  0  0  0  0  0  0  0  0
    0.7892   -1.3691   -0.3663 C   0  0  0  0  0  0  0  0  0  0  0  0
   -0.6997    0.9584    0.4087 C   0  0  0  0  0  0  0  0  0  0  0  0
    4.1755    1.0627   -0.7465 C   0  0  0  0  0  0  0  0  0  0  0  0
    3.3737    0.1670   -1.6292 C   0  0  0  0  0  0  0  0  0  0  0  0
    8.7956    0.9058    1.4979 C   0  0  0  0  0  0  0  0  0  0  0  0
    7.4989   -0.5587   -1.0801 C   0  0  0  0  0  0  0  0  0  0  0  0
    5.8399   -0.9425    0.5631 C   0  0  0  0  0  0  0  0  0  0  0  0
    8.3338   -0.9930    0.0875 C   0  0  0  0  0  0  0  0  0  0  0  0
    6.6459   -0.1630    1.5797 C   0  0  0  0  0  0  0  0  0  0  0  0
   -0.6957   -0.8277   -2.2392 N   0  0  0  0  0  0  0  0  0  0  0  0
   -3.4635   -1.3519    0.1042 N   0  0  0  0  0  0  0  0  0  0  0  0
    1.1716    2.2431   -0.1863 O   0  0  0  0  0  0  0  0  0  0  0  0
    2.0131    0.2483   -1.4914 O   0  0  0  0  0  0  0  0  0  0  0  0
   -6.9354   -0.3655    0.9247 C   0  0  0  0  0  0  0  0  0  0  0  0
   -7.4680   -1.7753    1.0472 C   0  0  0  0  0  0  0  0  0  0  0  0
   -5.2933   -2.7584    0.6336 C   0  0  0  0  0  0  0  0  0  0  0  0
   -2.9287    0.1236   -1.8055 C   0  0  0  0  0  0  0  0  0  0  0  0
   -4.8536   -1.4200    0.0652 C   0  0  0  0  0  0  0  0  0  0  0  0
    0.7694    1.0349    0.3944 C   0  0  0  0  0  0  0  0  0  0  0  0
    1.5280   -0.0716   -0.2257 C   0  0  0  0  0  0  0  0  0  0  0  0
   -2.7750   -0.2088   -0.3616 C   0  0  0  0  0  0  0  0  0  0  0  0
   -0.6201   -1.2039   -0.8837 C   0  0  0  0  0  0  0  0  0  0  0  0
   -1.3358   -0.3472    0.0946 C   0  0  0  0  0  0  0  0  0  0  0  0
    6.0814   -0.5030   -0.7783 N   0  0  0  0  0  0  0  0  0  0  0  0
    8.0538   -0.3041    1.3061 N   0  0  0  0  0  0  0  0  0  0  0  0
   -8.2310    1.5040    1.3647 C   0  0  0  0  0  0  0  0  0  0  0  0
    1.7888    3.1087    0.6727 C   0  0  0  0  0  0  0  0  0  0  0  0
   -7.4920    0.4445    1.8678 O   0  0  0  0  0  0  0  0  0  0  0  0
    5.6500    0.8520   -1.0205 C   0  0  0  0  0  0  0  0  0  0  0  0
   -3.9137    1.7000   -3.4192 N   0  0  0  0  0  0  0  0  0  0  0  0
   -8.9815   -1.8274    1.9710 Cl  0  0  0  0  0  0  0  0  0  0  0  0
   -3.9208   -3.6961    1.2683 Cl  0  0  0  0  0  0  0  0  0  0  0  0
   -3.6093    1.4718   -1.9982 C   0  0  0  0  0  0  0  0  0  0  0  0
   -1.6606    0.1444   -2.6030 C   0  0  0  0  0  0  0  0  0  0  0  0
   -6.3791   -2.6045    1.6883 C   0  0  0  0  0  0  0  0  0  0  0  0
   -5.4256   -0.3292    0.9674 C   0  0  0  0  0  0  0  0  0  0  0  0
    0.7892   -1.3691   -0.3663 C   0  0  0  0  0  0  0  0  0  0  0  0
   -0.6997    0.9584    0.4087 C   0  0  0  0  0  0  0  0  0  0  0  0
    4.1755    1.0627   -0.7465 C   0  0  0  0  0  0  0  0  0  0  0  0
    3.3737    0.1670   -1.6292 C   0  0  0  0  0  0  0  0  0  0  0  0
    8.7956    0.9058    1.4979 C   0  0  0  0  0  0  0  0  0  0  0  0
    7.4989   -0.5587   -1.0801 C   0  0  0  0  0  0  0  0  0  0  0  0
    5.8399   -0.9425    0.5631 C   0  0  0  0  0  0  0  0  0  0  0  0
    8.3338   -0.9930    0.0875 C   0  0  0  0  0  0  0  0  0  0  0  0
    6.6459   -0.1630    1.5797 C   0  0  0  0  0  0  0  0  0  0  0  0
   -0.6957   -0.8277   -2.2392 N   0  0  0  0  0  0  0  0  0  0  0  0
   -3.4635   -1.3519    0.1042 N   0  0  0  0  0  0  0  0  0  0  0  0
    1.1716    2.2431   -0.1863 O   0  0  0  0  0  0  0  0  0  0  0  0
    2.0131    0.2483   -1.4914 O   0  0  0  0  0  0  0  0  0  0  0  0
   -6.9354   -0.3655    0.9247 C   0  0  0  0  0  0  0  0  0  0  0  0
   -7.4680   -1.7753    1.0472 C   0  0  0  0  0  0  0  0  0  0  0  0
   -5.2933   -2.7584    0.6336 C   0  0  0  0  0  0  0  0  0  0  0  0
   -2.9287    0.1236   -1.8055 C   0  0  0  0  0  0  0  0  0  0  0  0
   -4.8536   -1.4200    0.0652 C   0  0  0  0  0  0  0  0  0  0  0  0
    0.7694    1.0349    0.3944 C   0  0  0  0  0  0  0  0  0  0  0  0
    1.5280   -0.0716   -0.2257 C   0  0  0  0  0  0  0  0  0  0  0  0
   -2.7750   -0.2088   -0.3616 C   0  0  0  0  0  0  0  0  0  0  0  0
   -0.6201   -1.2039   -0.8837 C   0  0  0  0  0  0  0  0  0  0  0  0
   -1.3358   -0.3472    0.0946 C   0  0  0  0  0  0  0  0  0  0  0  0
    6.0814   -0.5030   -0.7783 N   0  0  0  0  0  0  0  0  0  0  0  0
    8.0538   -0.3041    1.3061 N   0  0  0  0  0  0  0  0  0  0  0  0
   -8.2310    1.5040    1.3647 C   0  0  0  0  0  0  0  0  0  0  0  0
    1.1644    3.4176    1.5341 H   0  0  0  0  0  0  0  0  0  0  0  0
    1.9640    4.0557    0.0941 H   0  0  0  0  0  0  0  0  0  0  0  0
    2.7538    2.8008    1.0742 H   0  0  0  0  0  0  0  0  0  0  0  0
    6.1897    1.5963   -0.3749 H   0  0  0  0  0  0  0  0  0  0  0  0
    5.8531    1.1564   -2.0566 H   0  0  0  0  0  0  0  0  0  0  0  0
   -4.7590    1.1188   -3.6915 H   0  0  0  0  0  0  0  0  0  0  0  0
   -4.1005    2.7230   -3.5251 H   0  0  0  0  0  0  0  0  0  0  0  0
   -4.6178    1.4913   -1.5022 H   0  0  0  0  0  0  0  0  0  0  0  0
   -2.9840    2.3216   -1.6918 H   0  0  0  0  0  0  0  0  0  0  0  0
   -1.1627    1.1457   -2.6265 H   0  0  0  0  0  0  0  0  0  0  0  0
   -1.9078   -0.0426   -3.6937 H   0  0  0  0  0  0  0  0  0  0  0  0
   -6.0101   -2.1989    2.6335 H   0  0  0  0  0  0  0  0  0  0  0  0
   -6.7565   -3.6336    1.8828 H   0  0  0  0  0  0  0  0  0  0  0  0
   -5.0231   -0.5321    1.9874 H   0  0  0  0  0  0  0  0  0  0  0  0
   -5.1269    0.6795    0.6909 H   0  0  0  0  0  0  0  0  0  0  0  0
    1.3649   -2.0357   -1.0381 H   0  0  0  0  0  0  0  0  0  0  0  0
    0.7187   -1.8860    0.6142 H   0  0  0  0  0  0  0  0  0  0  0  0
   -1.1349    1.2940    1.4015 H   0  0  0  0  0  0  0  0  0  0  0  0
   -1.1280    1.7239   -0.3038 H   0  0  0  0  0  0  0  0  0  0  0  0
    3.9825    2.1399   -1.0331 H   0  0  0  0  0  0  0  0  0  0  0  0
    4.0361    0.9130    0.3396 H   0  0  0  0  0  0  0  0  0  0  0  0
    3.6835    0.3667   -2.6736 H   0  0  0  0  0  0  0  0  0  0  0  0
    3.7156   -0.8911   -1.4233 H   0  0  0  0  0  0  0  0  0  0  0  0
    8.6082    1.6757    0.7279 H   0  0  0  0  0  0  0  0  0  0  0  0
    9.8869    0.6370    1.4918 H   0  0  0  0  0  0  0  0  0  0  0  0
    8.5874    1.2832    2.5176 H   0  0  0  0  0  0  0  0  0  0  0  0
    7.8961    0.4050   -1.4411 H   0  0  0  0  0  0  0  0  0  0  0  0
    7.6227   -1.2984   -1.8990 H   0  0  0  0  0  0  0  0  0  0  0  0
    6.2133   -1.9991    0.6265 H   0  0  0  0  0  0  0  0  0  0  0  0
    4.7844   -0.9134    0.8354 H   0  0  0  0  0  0  0  0  0  0  0  0
    8.3113   -2.1103    0.2291 H   0  0  0  0  0  0  0  0  0  0  0  0
    9.4042   -0.7746   -0.1931 H   0  0  0  0  0  0  0  0  0  0  0  0
    6.4087    0.9191    1.5803 H   0  0  0  0  0  0  0  0  0  0  0  0
    6.4129   -0.5700    2.5816 H   0  0  0  0  0  0  0  0  0  0  0  0
   -0.6800   -1.6529   -2.8908 H   0  0  0  0  0  0  0  0  0  0  0  0
   -2.9653   -1.8879    0.8156 H   0  0  0  0  0  0  0  0  0  0  0  0
   -7.2185    0.0293   -0.0855 H   0  0  0  0  0  0  0  0  0  0  0  0
   -7.6715   -2.2243    0.0528 H   0  0  0  0  0  0  0  0  0  0  0  0
   -5.7614   -3.4214   -0.1537 H   0  0  0  0  0  0  0  0  0  0  0  0
   -3.6129   -0.6019   -2.3397 H   0  0  0  0  0  0  0  0  0  0  0  0
   -5.3158   -1.3764   -0.9471 H   0  0  0  0  0  0  0  0  0  0  0  0
    1.1047    1.1360    1.4731 H   0  0  0  0  0  0  0  0  0  0  0  0
    2.4376   -0.3257    0.3861 H   0  0  0  0  0  0  0  0  0  0  0  0
   -3.1584    0.6729    0.2328 H   0  0  0  0  0  0  0  0  0  0  0  0
   -1.0818   -2.2306   -0.8026 H   0  0  0  0  0  0  0  0  0  0  0  0
   -1.3499   -0.9220    1.0704 H   0  0  0  0  0  0  0  0  0  0  0  0
   -9.0866    1.1871    0.7342 H   0  0  0  0  0  0  0  0  0  0  0  0
   -8.7085    1.9937    2.2649 H   0  0  0  0  0  0  0  0  0  0  0  0
   -7.6089    2.2972    0.9087 H   0  0  0  0  0  0  0  0  0  0  0  0
    1.1644    3.4176    1.5341 H   0  0  0  0  0  0  0  0  0  0  0  0
    1.9640    4.0557    0.0941 H   0  0  0  0  0  0  0  0  0  0  0  0
    2.7538    2.8008    1.0742 H   0  0  0  0  0  0  0  0  0  0  0  0
    6.1897    1.5963   -0.3749 H   0  0  0  0  0  0  0  0  0  0  0  0
    5.8531    1.1564   -2.0566 H   0  0  0  0  0  0  0  0  0  0  0  0
   -4.7590    1.1188   -3.6915 H   0  0  0  0  0  0  0  0  0  0  0  0
   -4.1005    2.7230   -3.5251 H   0  0  0  0  0  0  0  0  0  0  0  0
   -4.6178    1.4913   -1.5022 H   0  0  0  0  0  0  0  0  0  0  0  0
   -2.9840    2.3216   -1.6918 H   0  0  0  0  0  0  0  0  0  0  0  0
   -1.1627    1.1457   -2.6265 H   0  0  0  0  0  0  0  0  0  0  0  0
   -1.9078   -0.0426   -3.6937 H   0  0  0  0  0  0  0  0  0  0  0  0
   -6.0101   -2.1989    2.6335 H   0  0  0  0  0  0  0  0  0  0  0  0
   -6.7565   -3.6336    1.8828 H   0  0  0  0  0  0  0  0  0  0  0  0
   -5.0231   -0.5321    1.9874 H   0  0  0  0  0  0  0  0  0  0  0  0
   -5.1269    0.6795    0.6909 H   0  0  0  0  0  0  0  0  0  0  0  0
    1.3649   -2.0357   -1.0381 H   0  0  0  0  0  0  0  0  0  0  0  0
    0.7187   -1.8860    0.6142 H   0  0  0  0  0  0  0  0  0  0  0  0
   -1.1349    1.2940    1.4015 H   0  0  0  0  0  0  0  0  0  0  0  0
   -1.1280    1.7239   -0.3038 H   0  0  0  0  0  0  0  0  0  0  0  0
    3.9825    2.1399   -1.0331 H   0  0  0  0  0  0  0  0  0  0  0  0
    4.0361    0.9130    0.3396 H   0  0  0  0  0  0  0  0  0  0  0  0
    3.6835    0.3667   -2.6736 H   0  0  0  0  0  0  0  0  0  0  0  0
    3.7156   -0.8911   -1.4233 H   0  0  0  0  0  0  0  0  0  0  0  0
    8.6082    1.6757    0.7279 H   0  0  0  0  0  0  0  0  0  0  0  0
    9.8869    0.6370    1.4918 H   0  0  0  0  0  0  0  0  0  0  0  0
    8.5874    1.2832    2.5176 H   0  0  0  0  0  0  0  0  0  0  0  0
    7.8961    0.4050   -1.4411 H   0  0  0  0  0  0  0  0  0  0  0  0
    7.6227   -1.2984   -1.8990 H   0  0  0  0  0  0  0  0  0  0  0  0
    6.2133   -1.9991    0.6265 H   0  0  0  0  0  0  0  0  0  0  0  0
    4.7844   -0.9134    0.8354 H   0  0  0  0  0  0  0  0  0  0  0  0
    8.3113   -2.1103    0.2291 H   0  0  0  0  0  0  0  0  0  0  0  0
    9.4042   -0.7746   -0.1931 H   0  0  0  0  0  0  0  0  0  0  0  0
    6.4087    0.9191    1.5803 H   0  0  0  0  0  0  0  0  0  0  0  0
    6.4129   -0.5700    2.5816 H   0  0  0  0  0  0  0  0  0  0  0  0
   -0.6800   -1.6529   -2.8908 H   0  0  0  0  0  0  0  0  0  0  0  0
   -2.9653   -1.8879    0.8156 H   0  0  0  0  0  0  0  0  0  0  0  0
   -7.2185    0.0293   -0.0855 H   0  0  0  0  0  0  0  0  0  0  0  0
   -7.6715   -2.2243    0.0528 H   0  0  0  0  0  0  0  0  0  0  0  0
   -5.7614   -3.4214   -0.1537 H   0  0  0  0  0  0  0  0  0  0  0  0
   -3.6129   -0.6019   -2.3397 H   0  0  0  0  0  0  0  0  0  0  0  0
   -5.3158   -1.3764   -0.9471 H   0  0  0  0  0  0  0  0  0  0  0  0
    1.1047    1.1360    1.4731 H   0  0  0  0  0  0  0  0  0  0  0  0
    2.4376   -0.3257    0.3861 H   0  0  0  0  0  0  0  0  0  0  0  0
   -3.1584    0.6729    0.2328 H   0  0  0  0  0  0  0  0  0  0  0  0
   -1.0818   -2.2306   -0.8026 H   0  0  0  0  0  0  0  0  0  0  0  0
   -1.3499   -0.9220    1.0704 H   0  0  0  0  0  0  0  0  0  0  0  0
   -9.0866    1.1871    0.7342 H   0  0  0  0  0  0  0  0  0  0  0  0
   -8.7085    1.9937    2.2649 H   0  0  0  0  0  0  0  0  0  0  0  0
   -7.6089    2.2972    0.9087 H   0  0  0  0  0  0  0  0  0  0  0  0
  4  7  1  0
  3 13  1  0
 13 14  1  0
 16 18  1  0
 17 19  1  0
  8 20  1  0
  1 22  1  0
 14 23  1  0
  2 24  1  0
 10 24  1  0
  5 25  1  0
  9 25  1  0
 24 25  1  0
  6 26  1  0
  9 26  1  0
  7 27  1  0
  8 27  1  0
 10 28  1  0
 21 28  1  0
 26 28  1  0
 12 29  1  0
 22 29  1  0
 11 30  1  0
 23 30  1  0
 29 30  1  0
 21 31  1  0
 27 31  1  0
 11 32  1  0
 20 32  1  0
 12 33  1  0
 31 33  1  0
 32 33  1  0
  3 34  1  0
 16 34  1  0
 17 34  1  0
 15 35  1  0
 18 35  1  0
 19 35  1  0
  2 36  1  0
 40 43  1  0
 39 49  1  0
 49 50  1  0
 52 54  1  0
 53 55  1  0
 44 56  1  0
 37 58  1  0
 50 59  1  0
 38 60  1  0
 46 60  1  0
 41 61  1  0
 45 61  1  0
 60 61  1  0
 42 62  1  0
 45 62  1  0
 43 63  1  0
 44 63  1  0
 46 64  1  0
 57 64  1  0
 62 64  1  0
 48 65  1  0
 58 65  1  0
 47 66  1  0
 59 66  1  0
 65 66  1  0
 57 67  1  0
 63 67  1  0
 47 68  1  0
 56 68  1  0
 48 69  1  0
 67 69  1  0
 68 69  1  0
 39 70  1  0
 52 70  1  0
 53 70  1  0
 51 71  1  0
 54 71  1  0
 55 71  1  0
 38 72  1  0
  1 73  1  0
  1 74  1  0
  1 75  1  0
  3 76  1  0
  3 77  1  0
  4 78  1  0
  4 79  1  0
  7 80  1  0
  7 81  1  0
  8 82  1  0
  8 83  1  0
  9 84  1  0
  9 85  1  0
 10 86  1  0
 10 87  1  0
 11 88  1  0
 11 89  1  0
 12 90  1  0
 12 91  1  0
 13 92  1  0
 13 93  1  0
 14 94  1  0
 14 95  1  0
 15 96  1  0
 15 97  1  0
 15 98  1  0
 16 99  1  0
 16100  1  0
 17101  1  0
 17102  1  0
 18103  1  0
 18104  1  0
 19105  1  0
 19106  1  0
 20107  1  0
 21108  1  0
 24109  1  0
 25110  1  0
 26111  1  0
 27112  1  0
 28113  1  0
 29114  1  0
 30115  1  0
 31116  1  0
 32117  1  0
 33118  1  0
 36119  1  0
 36120  1  0
 36121  1  0
 37122  1  0
 37123  1  0
 37124  1  0
 39125  1  0
 39126  1  0
 40127  1  0
 40128  1  0
 43129  1  0
 43130  1  0
 44131  1  0
 44132  1  0
 45133  1  0
 45134  1  0
 46135  1  0
 46136  1  0
 47137  1  0
 47138  1  0
 48139  1  0
 48140  1  0
 49141  1  0
 49142  1  0
 50143  1  0
 50144  1  0
 51145  1  0
 51146  1  0
 51147  1  0
 52148  1  0
 52149  1  0
 53150  1  0
 53151  1  0
 54152  1  0
 54153  1  0
 55154  1  0
 55155  1  0
 56156  1  0
 57157  1  0
 60158  1  0
 61159  1  0
 62160  1  0
 63161  1  0
 64162  1  0
 65163  1  0
 66164  1  0
 67165  1  0
 68166  1  0
 69167  1  0
 72168  1  0
 72169  1  0
 72170  1  0
M  END
>  <PDBID>  (1) 
3UE4

>  <PDB ID>  (1) 
3UE4

>  <Generic Name>  (1) 
Bosutinib

>  <Brand Name>  (1) 
Bosulif

>  <DrugBank ID>  (1) 
DB06616

>  <ATC Codes>  (1) 
L01XE14

>  <Ligand ID>  (1) 
DB8

>  <Target Name>  (1) 
Tyrosine-protein kinase ABL1

>  <UniProt ID>  (1) 
P00519

>  <PDB ID.1>  (1) 
3UE4

>  <Seq. Identity>  (1) 
95%

$$$$
