PDB_DB00552_03
     RDKit          3D

164172  0  0  0  0  0  0  0  0999 V2000
    2.0315   -2.1277   -0.1097 N   0  0  0  0  0  0  0  0  0  0  0  0
    0.5830   -2.3953   -0.0963 C   0  0  0  0  0  0  0  0  0  0  0  0
    0.0205   -1.1862    0.4543 N   0  0  0  0  0  0  0  0  0  0  0  0
    2.0395   -0.7928   -0.6579 C   0  0  1  0  0  0  0  0  0  0  0  0
    0.9820   -0.1109    0.1604 C   0  0  2  0  0  0  0  0  0  0  0  0
    1.5969    0.2845    1.4168 N   0  0  0  0  0  0  0  0  0  0  0  0
    2.1222    1.6195    1.3169 C   0  0  0  0  0  0  0  0  0  0  0  0
    2.3497    2.0729   -0.0110 N   0  0  0  0  0  0  0  0  0  0  0  0
    3.2936    1.3507   -0.7695 C   0  0  0  0  0  0  0  0  0  0  0  0
    3.3668   -0.1170   -0.4690 C   0  0  1  0  0  0  0  0  0  0  0  0
    3.9070   -0.3185    0.7762 O   0  0  0  0  0  0  0  0  0  0  0  0
   -2.3322   -1.7831    0.0227 C   0  0  0  0  0  0  0  0  0  0  0  0
   -3.5457   -0.8491    0.0079 C   0  0  2  0  0  0  0  0  0  0  0  0
   -4.3318   -1.0564   -1.1235 O   0  0  0  0  0  0  0  0  0  0  0  0
   -3.0353    2.7598    0.6138 O   0  0  0  0  0  0  0  0  0  0  0  0
   -3.7501    1.5652    0.6483 C   0  0  0  0  0  0  0  0  0  0  0  0
   -2.9242    0.5096   -0.0489 C   0  0  1  0  0  0  0  0  0  0  0  0
   -1.6902    0.3176    0.5684 O   0  0  0  0  0  0  0  0  0  0  0  0
   -1.2157   -0.8003   -0.1503 C   0  0  1  0  0  0  0  0  0  0  0  0
    1.9925   -2.1404   -0.8087 N   0  0  0  0  0  0  0  0  0  0  0  0
    0.5815   -2.3852   -0.5821 C   0  0  0  0  0  0  0  0  0  0  0  0
    0.0842   -1.3372    0.2805 N   0  0  0  0  0  0  0  0  0  0  0  0
    2.3365   -1.1419    0.1232 C   0  0  0  0  0  0  0  0  0  0  0  0
    1.0907   -0.2760    0.1597 C   0  0  2  0  0  0  0  0  0  0  0  0
    1.1947    0.5464    1.3032 N   0  0  0  0  0  0  0  0  0  0  0  0
    1.8029    1.8073    1.1220 C   0  0  0  0  0  0  0  0  0  0  0  0
    2.6669    2.0356    0.0780 N   0  0  0  0  0  0  0  0  0  0  0  0
    3.1627    1.0508   -0.7643 C   0  0  0  0  0  0  0  0  0  0  0  0
    3.4921   -0.2787   -0.1510 C   0  0  1  0  0  0  0  0  0  0  0  0
    4.1314    0.0026    1.0790 O   0  0  0  0  0  0  0  0  0  0  0  0
   -2.2813   -1.7648   -0.2550 C   0  0  0  0  0  0  0  0  0  0  0  0
   -3.4918   -0.8640   -0.1047 C   0  0  2  0  0  0  0  0  0  0  0  0
   -4.3236   -0.9365   -1.2246 O   0  0  0  0  0  0  0  0  0  0  0  0
   -2.9803    2.6037    1.0578 O   0  0  0  0  0  0  0  0  0  0  0  0
   -3.7129    1.4286    0.8806 C   0  0  0  0  0  0  0  0  0  0  0  0
   -2.8704    0.4939    0.0463 C   0  0  1  0  0  0  0  0  0  0  0  0
   -1.6582    0.1940    0.6666 O   0  0  0  0  0  0  0  0  0  0  0  0
   -1.1536   -0.7717   -0.2014 C   0  0  1  0  0  0  0  0  0  0  0  0
    2.0315   -2.1277   -0.1097 N   0  0  0  0  0  0  0  0  0  0  0  0
    0.5830   -2.3953   -0.0963 C   0  0  0  0  0  0  0  0  0  0  0  0
    0.0205   -1.1862    0.4543 N   0  0  0  0  0  0  0  0  0  0  0  0
    2.0395   -0.7928   -0.6579 C   0  0  1  0  0  0  0  0  0  0  0  0
    0.9820   -0.1109    0.1604 C   0  0  2  0  0  0  0  0  0  0  0  0
    1.5969    0.2845    1.4168 N   0  0  0  0  0  0  0  0  0  0  0  0
    2.1222    1.6195    1.3169 C   0  0  0  0  0  0  0  0  0  0  0  0
    2.3497    2.0729   -0.0110 N   0  0  0  0  0  0  0  0  0  0  0  0
    3.2936    1.3507   -0.7695 C   0  0  0  0  0  0  0  0  0  0  0  0
    3.3668   -0.1170   -0.4690 C   0  0  1  0  0  0  0  0  0  0  0  0
    3.9070   -0.3185    0.7762 O   0  0  0  0  0  0  0  0  0  0  0  0
   -2.3322   -1.7831    0.0227 C   0  0  0  0  0  0  0  0  0  0  0  0
   -3.5457   -0.8491    0.0079 C   0  0  2  0  0  0  0  0  0  0  0  0
   -4.3318   -1.0564   -1.1235 O   0  0  0  0  0  0  0  0  0  0  0  0
   -3.0353    2.7598    0.6138 O   0  0  0  0  0  0  0  0  0  0  0  0
   -3.7501    1.5652    0.6483 C   0  0  0  0  0  0  0  0  0  0  0  0
   -2.9242    0.5096   -0.0489 C   0  0  1  0  0  0  0  0  0  0  0  0
   -1.6902    0.3176    0.5684 O   0  0  0  0  0  0  0  0  0  0  0  0
   -1.2157   -0.8003   -0.1503 C   0  0  1  0  0  0  0  0  0  0  0  0
    2.0315   -2.1277   -0.1097 N   0  0  0  0  0  0  0  0  0  0  0  0
    0.5830   -2.3953   -0.0963 C   0  0  0  0  0  0  0  0  0  0  0  0
    0.0205   -1.1862    0.4543 N   0  0  0  0  0  0  0  0  0  0  0  0
    2.0395   -0.7928   -0.6579 C   0  0  1  0  0  0  0  0  0  0  0  0
    0.9820   -0.1109    0.1604 C   0  0  2  0  0  0  0  0  0  0  0  0
    1.5969    0.2845    1.4168 N   0  0  0  0  0  0  0  0  0  0  0  0
    2.1222    1.6195    1.3169 C   0  0  0  0  0  0  0  0  0  0  0  0
    2.3497    2.0729   -0.0110 N   0  0  0  0  0  0  0  0  0  0  0  0
    3.2936    1.3507   -0.7695 C   0  0  0  0  0  0  0  0  0  0  0  0
    3.3668   -0.1170   -0.4690 C   0  0  1  0  0  0  0  0  0  0  0  0
    3.9070   -0.3185    0.7762 O   0  0  0  0  0  0  0  0  0  0  0  0
   -2.3322   -1.7831    0.0227 C   0  0  0  0  0  0  0  0  0  0  0  0
   -3.5457   -0.8491    0.0079 C   0  0  2  0  0  0  0  0  0  0  0  0
   -4.3318   -1.0564   -1.1235 O   0  0  0  0  0  0  0  0  0  0  0  0
   -3.0353    2.7598    0.6138 O   0  0  0  0  0  0  0  0  0  0  0  0
   -3.7501    1.5652    0.6483 C   0  0  0  0  0  0  0  0  0  0  0  0
   -2.9242    0.5096   -0.0489 C   0  0  1  0  0  0  0  0  0  0  0  0
   -1.6902    0.3176    0.5684 O   0  0  0  0  0  0  0  0  0  0  0  0
   -1.2157   -0.8003   -0.1503 C   0  0  1  0  0  0  0  0  0  0  0  0
    2.5527   -2.8215   -0.6604 H   0  0  0  0  0  0  0  0  0  0  0  0
    0.2718   -2.5785   -1.1323 H   0  0  0  0  0  0  0  0  0  0  0  0
    0.3768   -3.2488    0.5716 H   0  0  0  0  0  0  0  0  0  0  0  0
    1.7840   -0.8622   -1.7325 H   0  0  0  0  0  0  0  0  0  0  0  0
    0.5152    0.7422   -0.3390 H   0  0  0  0  0  0  0  0  0  0  0  0
    0.8556    0.1961    2.1667 H   0  0  0  0  0  0  0  0  0  0  0  0
    3.0659    1.6819    1.9080 H   0  0  0  0  0  0  0  0  0  0  0  0
    1.3811    2.3048    1.7907 H   0  0  0  0  0  0  0  0  0  0  0  0
    1.5580    2.4875   -0.5023 H   0  0  0  0  0  0  0  0  0  0  0  0
    4.3101    1.7734   -0.5659 H   0  0  0  0  0  0  0  0  0  0  0  0
    3.1045    1.5351   -1.8534 H   0  0  0  0  0  0  0  0  0  0  0  0
    4.0742   -0.5674   -1.2196 H   0  0  0  0  0  0  0  0  0  0  0  0
    4.8075    0.0969    0.7920 H   0  0  0  0  0  0  0  0  0  0  0  0
   -2.2817   -2.3607    0.9537 H   0  0  0  0  0  0  0  0  0  0  0  0
   -2.3962   -2.3918   -0.8936 H   0  0  0  0  0  0  0  0  0  0  0  0
   -4.1029   -0.9704    0.9547 H   0  0  0  0  0  0  0  0  0  0  0  0
   -4.3455   -0.2155   -1.6830 H   0  0  0  0  0  0  0  0  0  0  0  0
   -2.5303    2.8956   -0.2175 H   0  0  0  0  0  0  0  0  0  0  0  0
   -3.9644    1.3064    1.7005 H   0  0  0  0  0  0  0  0  0  0  0  0
   -4.6703    1.7100    0.0416 H   0  0  0  0  0  0  0  0  0  0  0  0
   -2.7142    0.8650   -1.0744 H   0  0  0  0  0  0  0  0  0  0  0  0
   -1.1195   -0.5207   -1.2098 H   0  0  0  0  0  0  0  0  0  0  0  0
    2.2379   -1.9852   -1.7905 H   0  0  0  0  0  0  0  0  0  0  0  0
    0.3948   -3.3591   -0.0853 H   0  0  0  0  0  0  0  0  0  0  0  0
    0.0222   -2.4114   -1.5407 H   0  0  0  0  0  0  0  0  0  0  0  0
    2.4040   -1.6125    1.1397 H   0  0  0  0  0  0  0  0  0  0  0  0
    0.8793    0.2300   -0.7871 H   0  0  0  0  0  0  0  0  0  0  0  0
    0.3202    0.6499    1.8571 H   0  0  0  0  0  0  0  0  0  0  0  0
    2.3305    2.0580    2.0947 H   0  0  0  0  0  0  0  0  0  0  0  0
    0.9709    2.5771    1.0940 H   0  0  0  0  0  0  0  0  0  0  0  0
    2.5854    2.9340   -0.4014 H   0  0  0  0  0  0  0  0  0  0  0  0
    4.1529    1.4297   -1.1733 H   0  0  0  0  0  0  0  0  0  0  0  0
    2.5558    0.9235   -1.7103 H   0  0  0  0  0  0  0  0  0  0  0  0
    4.2434   -0.8202   -0.7521 H   0  0  0  0  0  0  0  0  0  0  0  0
    4.7472    0.7701    0.9768 H   0  0  0  0  0  0  0  0  0  0  0  0
   -2.2262   -2.5301    0.5413 H   0  0  0  0  0  0  0  0  0  0  0  0
   -2.2877   -2.2994   -1.2274 H   0  0  0  0  0  0  0  0  0  0  0  0
   -4.0218   -1.1333    0.8271 H   0  0  0  0  0  0  0  0  0  0  0  0
   -4.3153   -0.0535   -1.7144 H   0  0  0  0  0  0  0  0  0  0  0  0
   -2.8146    3.0595    0.2017 H   0  0  0  0  0  0  0  0  0  0  0  0
   -3.9147    0.9918    1.8733 H   0  0  0  0  0  0  0  0  0  0  0  0
   -4.6447    1.6160    0.3243 H   0  0  0  0  0  0  0  0  0  0  0  0
   -2.6349    0.9874   -0.9127 H   0  0  0  0  0  0  0  0  0  0  0  0
   -1.0489   -0.2885   -1.1940 H   0  0  0  0  0  0  0  0  0  0  0  0
    2.5527   -2.8215   -0.6604 H   0  0  0  0  0  0  0  0  0  0  0  0
    0.2718   -2.5785   -1.1323 H   0  0  0  0  0  0  0  0  0  0  0  0
    0.3768   -3.2488    0.5716 H   0  0  0  0  0  0  0  0  0  0  0  0
    1.7840   -0.8622   -1.7325 H   0  0  0  0  0  0  0  0  0  0  0  0
    0.5152    0.7422   -0.3390 H   0  0  0  0  0  0  0  0  0  0  0  0
    0.8556    0.1961    2.1667 H   0  0  0  0  0  0  0  0  0  0  0  0
    3.0659    1.6819    1.9080 H   0  0  0  0  0  0  0  0  0  0  0  0
    1.3811    2.3048    1.7907 H   0  0  0  0  0  0  0  0  0  0  0  0
    1.5580    2.4875   -0.5023 H   0  0  0  0  0  0  0  0  0  0  0  0
    4.3101    1.7734   -0.5659 H   0  0  0  0  0  0  0  0  0  0  0  0
    3.1045    1.5351   -1.8534 H   0  0  0  0  0  0  0  0  0  0  0  0
    4.0742   -0.5674   -1.2196 H   0  0  0  0  0  0  0  0  0  0  0  0
    4.8075    0.0969    0.7920 H   0  0  0  0  0  0  0  0  0  0  0  0
   -2.2817   -2.3607    0.9537 H   0  0  0  0  0  0  0  0  0  0  0  0
   -2.3962   -2.3918   -0.8936 H   0  0  0  0  0  0  0  0  0  0  0  0
   -4.1029   -0.9704    0.9547 H   0  0  0  0  0  0  0  0  0  0  0  0
   -4.3455   -0.2155   -1.6830 H   0  0  0  0  0  0  0  0  0  0  0  0
   -2.5303    2.8956   -0.2175 H   0  0  0  0  0  0  0  0  0  0  0  0
   -3.9644    1.3064    1.7005 H   0  0  0  0  0  0  0  0  0  0  0  0
   -4.6703    1.7100    0.0416 H   0  0  0  0  0  0  0  0  0  0  0  0
   -2.7142    0.8650   -1.0744 H   0  0  0  0  0  0  0  0  0  0  0  0
   -1.1195   -0.5207   -1.2098 H   0  0  0  0  0  0  0  0  0  0  0  0
    2.5527   -2.8215   -0.6604 H   0  0  0  0  0  0  0  0  0  0  0  0
    0.2718   -2.5785   -1.1323 H   0  0  0  0  0  0  0  0  0  0  0  0
    0.3768   -3.2488    0.5716 H   0  0  0  0  0  0  0  0  0  0  0  0
    1.7840   -0.8622   -1.7325 H   0  0  0  0  0  0  0  0  0  0  0  0
    0.5152    0.7422   -0.3390 H   0  0  0  0  0  0  0  0  0  0  0  0
    0.8556    0.1961    2.1667 H   0  0  0  0  0  0  0  0  0  0  0  0
    3.0659    1.6819    1.9080 H   0  0  0  0  0  0  0  0  0  0  0  0
    1.3811    2.3048    1.7907 H   0  0  0  0  0  0  0  0  0  0  0  0
    1.5580    2.4875   -0.5023 H   0  0  0  0  0  0  0  0  0  0  0  0
    4.3101    1.7734   -0.5659 H   0  0  0  0  0  0  0  0  0  0  0  0
    3.1045    1.5351   -1.8534 H   0  0  0  0  0  0  0  0  0  0  0  0
    4.0742   -0.5674   -1.2196 H   0  0  0  0  0  0  0  0  0  0  0  0
    4.8075    0.0969    0.7920 H   0  0  0  0  0  0  0  0  0  0  0  0
   -2.2817   -2.3607    0.9537 H   0  0  0  0  0  0  0  0  0  0  0  0
   -2.3962   -2.3918   -0.8936 H   0  0  0  0  0  0  0  0  0  0  0  0
   -4.1029   -0.9704    0.9547 H   0  0  0  0  0  0  0  0  0  0  0  0
   -4.3455   -0.2155   -1.6830 H   0  0  0  0  0  0  0  0  0  0  0  0
   -2.5303    2.8956   -0.2175 H   0  0  0  0  0  0  0  0  0  0  0  0
   -3.9644    1.3064    1.7005 H   0  0  0  0  0  0  0  0  0  0  0  0
   -4.6703    1.7100    0.0416 H   0  0  0  0  0  0  0  0  0  0  0  0
   -2.7142    0.8650   -1.0744 H   0  0  0  0  0  0  0  0  0  0  0  0
   -1.1195   -0.5207   -1.2098 H   0  0  0  0  0  0  0  0  0  0  0  0
  1  2  1  0
  2  3  1  0
  1  4  1  0
  3  5  1  0
  4  5  1  0
  5  6  1  0
  6  7  1  0
  7  8  1  0
  8  9  1  0
  4 10  1  0
  9 10  1  0
 10 11  1  0
 12 13  1  0
 13 14  1  0
 15 16  1  0
 13 17  1  0
 16 17  1  0
 17 18  1  0
  3 19  1  0
 12 19  1  0
 18 19  1  0
 20 21  1  0
 21 22  1  0
 20 23  1  0
 22 24  1  0
 23 24  1  0
 24 25  1  0
 25 26  1  0
 26 27  1  0
 27 28  1  0
 23 29  1  0
 28 29  1  0
 29 30  1  0
 31 32  1  0
 32 33  1  0
 34 35  1  0
 32 36  1  0
 35 36  1  0
 36 37  1  0
 22 38  1  0
 31 38  1  0
 37 38  1  0
 39 40  1  0
 40 41  1  0
 39 42  1  0
 41 43  1  0
 42 43  1  0
 43 44  1  0
 44 45  1  0
 45 46  1  0
 46 47  1  0
 42 48  1  0
 47 48  1  0
 48 49  1  0
 50 51  1  0
 51 52  1  0
 53 54  1  0
 51 55  1  0
 54 55  1  0
 55 56  1  0
 41 57  1  0
 50 57  1  0
 56 57  1  0
 58 59  1  0
 59 60  1  0
 58 61  1  0
 60 62  1  0
 61 62  1  0
 62 63  1  0
 63 64  1  0
 64 65  1  0
 65 66  1  0
 61 67  1  0
 66 67  1  0
 67 68  1  0
 69 70  1  0
 70 71  1  0
 72 73  1  0
 70 74  1  0
 73 74  1  0
 74 75  1  0
 60 76  1  0
 69 76  1  0
 75 76  1  0
  1 77  1  0
  2 78  1  0
  2 79  1  0
  4 80  1  6
  5 81  1  6
  6 82  1  0
  7 83  1  0
  7 84  1  0
  8 85  1  0
  9 86  1  0
  9 87  1  0
 10 88  1  6
 11 89  1  0
 12 90  1  0
 12 91  1  0
 13 92  1  1
 14 93  1  0
 15 94  1  0
 16 95  1  0
 16 96  1  0
 17 97  1  6
 19 98  1  6
 20 99  1  0
 21100  1  0
 21101  1  0
 23102  1  0
 24103  1  6
 25104  1  0
 26105  1  0
 26106  1  0
 27107  1  0
 28108  1  0
 28109  1  0
 29110  1  6
 30111  1  0
 31112  1  0
 31113  1  0
 32114  1  1
 33115  1  0
 34116  1  0
 35117  1  0
 35118  1  0
 36119  1  6
 38120  1  6
 39121  1  0
 40122  1  0
 40123  1  0
 42124  1  6
 43125  1  6
 44126  1  0
 45127  1  0
 45128  1  0
 46129  1  0
 47130  1  0
 47131  1  0
 48132  1  6
 49133  1  0
 50134  1  0
 50135  1  0
 51136  1  1
 52137  1  0
 53138  1  0
 54139  1  0
 54140  1  0
 55141  1  6
 57142  1  6
 58143  1  0
 59144  1  0
 59145  1  0
 61146  1  6
 62147  1  6
 63148  1  0
 64149  1  0
 64150  1  0
 65151  1  0
 66152  1  0
 66153  1  0
 67154  1  6
 68155  1  0
 69156  1  0
 69157  1  0
 70158  1  1
 71159  1  0
 72160  1  0
 73161  1  0
 73162  1  0
 74163  1  6
 76164  1  6
M  END
>  <PDBID>  (1) 
1A4L

>  <PDB ID>  (1) 
1A4L

>  <Generic Name>  (1) 
Pentostatin

>  <Brand Name>  (1) 
Nipent#Nipent Pws 10mg/vial

>  <DrugBank ID>  (1) 
DB00552

>  <ATC Codes>  (1) 
L01XX08

>  <Ligand ID>  (1) 
DCF

>  <Target Name>  (1) 
Adenosine deaminase

>  <UniProt ID>  (1) 
P00813

>  <PDB ID.1>  (1) 
1A4L

>  <Seq. Identity>  (1) 
83%

$$$$
