PDB_DB01041_00
     RDKit          3D

172180  0  0  0  0  0  0  0  0999 V2000
    1.9308    1.4684   -1.5022 O   0  0  0  0  0  0  0  0  0  0  0  0
    2.2394    1.2060   -0.1472 C   0  0  0  0  0  0  0  0  0  0  0  0
    3.6572    0.9940   -0.0885 N   0  0  0  0  0  0  0  0  0  0  0  0
    4.0103    0.1163    0.9937 C   0  0  0  0  0  0  0  0  0  0  0  0
    5.3962    0.1550    1.1292 O   0  0  0  0  0  0  0  0  0  0  0  0
    3.5110   -1.2671    0.6804 C   0  0  0  0  0  0  0  0  0  0  0  0
    2.2621   -1.2341   -0.2032 C   0  0  0  0  0  0  0  0  0  0  0  0
    1.4508   -0.0566    0.2178 C   0  0  2  0  0  0  0  0  0  0  0  0
    0.2303   -0.0093   -0.5077 N   0  0  0  0  0  0  0  0  0  0  0  0
   -3.7740    1.0521    0.4843 C   0  0  0  0  0  0  0  0  0  0  0  0
   -3.0381    1.5727   -0.6867 C   0  0  0  0  0  0  0  0  0  0  0  0
   -1.8122    0.8448   -1.0742 C   0  0  0  0  0  0  0  0  0  0  0  0
   -1.9089   -0.6437   -1.0418 C   0  0  0  0  0  0  0  0  0  0  0  0
   -1.1054    1.0320    1.1431 O   0  0  0  0  0  0  0  0  0  0  0  0
   -0.8605   -1.5041    0.9604 O   0  0  0  0  0  0  0  0  0  0  0  0
   -3.1458   -1.1928   -0.4541 C   0  0  0  0  0  0  0  0  0  0  0  0
   -3.7234   -0.4213    0.6806 C   0  0  0  0  0  0  0  0  0  0  0  0
   -0.6358   -1.1308   -0.3401 C   0  0  2  0  0  0  0  0  0  0  0  0
   -0.6268    1.1038   -0.1474 C   0  0  0  0  0  0  0  0  0  0  0  0
    1.9308    1.4684   -1.5022 O   0  0  0  0  0  0  0  0  0  0  0  0
    2.2394    1.2060   -0.1472 C   0  0  0  0  0  0  0  0  0  0  0  0
    3.6572    0.9940   -0.0885 N   0  0  0  0  0  0  0  0  0  0  0  0
    4.0103    0.1163    0.9937 C   0  0  0  0  0  0  0  0  0  0  0  0
    5.3962    0.1550    1.1292 O   0  0  0  0  0  0  0  0  0  0  0  0
    3.5110   -1.2671    0.6804 C   0  0  0  0  0  0  0  0  0  0  0  0
    2.2621   -1.2341   -0.2032 C   0  0  0  0  0  0  0  0  0  0  0  0
    1.4508   -0.0566    0.2178 C   0  0  2  0  0  0  0  0  0  0  0  0
    0.2303   -0.0093   -0.5077 N   0  0  0  0  0  0  0  0  0  0  0  0
   -3.7740    1.0521    0.4843 C   0  0  0  0  0  0  0  0  0  0  0  0
   -3.0381    1.5727   -0.6867 C   0  0  0  0  0  0  0  0  0  0  0  0
   -1.8122    0.8448   -1.0742 C   0  0  0  0  0  0  0  0  0  0  0  0
   -1.9089   -0.6437   -1.0418 C   0  0  0  0  0  0  0  0  0  0  0  0
   -1.1054    1.0320    1.1431 O   0  0  0  0  0  0  0  0  0  0  0  0
   -0.8605   -1.5041    0.9604 O   0  0  0  0  0  0  0  0  0  0  0  0
   -3.1458   -1.1928   -0.4541 C   0  0  0  0  0  0  0  0  0  0  0  0
   -3.7234   -0.4213    0.6806 C   0  0  0  0  0  0  0  0  0  0  0  0
   -0.6358   -1.1308   -0.3401 C   0  0  2  0  0  0  0  0  0  0  0  0
   -0.6268    1.1038   -0.1474 C   0  0  0  0  0  0  0  0  0  0  0  0
    2.1627    0.9628   -1.8082 O   0  0  0  0  0  0  0  0  0  0  0  0
    2.2885    1.1096   -0.4072 C   0  0  0  0  0  0  0  0  0  0  0  0
    3.6561    1.0554   -0.0514 N   0  0  0  0  0  0  0  0  0  0  0  0
    3.9927    0.1854    1.0240 C   0  0  0  0  0  0  0  0  0  0  0  0
    5.3967    0.1490    1.1253 O   0  0  0  0  0  0  0  0  0  0  0  0
    3.5077   -1.2164    0.8591 C   0  0  0  0  0  0  0  0  0  0  0  0
    2.2273   -1.2878    0.0172 C   0  0  0  0  0  0  0  0  0  0  0  0
    1.4495   -0.0279    0.1777 C   0  0  2  0  0  0  0  0  0  0  0  0
    0.2265   -0.0512   -0.5441 N   0  0  0  0  0  0  0  0  0  0  0  0
   -3.7436    1.1121    0.5178 C   0  0  0  0  0  0  0  0  0  0  0  0
   -3.0327    1.5654   -0.7040 C   0  0  0  0  0  0  0  0  0  0  0  0
   -1.8204    0.8067   -1.0623 C   0  0  0  0  0  0  0  0  0  0  0  0
   -1.9375   -0.6795   -0.9518 C   0  0  0  0  0  0  0  0  0  0  0  0
   -1.0289    0.9505    1.1352 O   0  0  0  0  0  0  0  0  0  0  0  0
   -0.3041   -2.3417   -0.8044 O   0  0  0  0  0  0  0  0  0  0  0  0
   -3.1740   -1.1826   -0.3295 C   0  0  0  0  0  0  0  0  0  0  0  0
   -3.7653   -0.3518    0.7453 C   0  0  0  0  0  0  0  0  0  0  0  0
   -0.6684   -1.1311   -0.2112 C   0  0  0  0  0  0  0  0  0  0  0  0
   -0.6148    1.1006   -0.1759 C   0  0  0  0  0  0  0  0  0  0  0  0
    1.9308    1.4684   -1.5022 O   0  0  0  0  0  0  0  0  0  0  0  0
    2.2394    1.2060   -0.1472 C   0  0  0  0  0  0  0  0  0  0  0  0
    3.6572    0.9940   -0.0885 N   0  0  0  0  0  0  0  0  0  0  0  0
    4.0103    0.1163    0.9937 C   0  0  0  0  0  0  0  0  0  0  0  0
    5.3962    0.1550    1.1292 O   0  0  0  0  0  0  0  0  0  0  0  0
    3.5110   -1.2671    0.6804 C   0  0  0  0  0  0  0  0  0  0  0  0
    2.2621   -1.2341   -0.2032 C   0  0  0  0  0  0  0  0  0  0  0  0
    1.4508   -0.0566    0.2178 C   0  0  2  0  0  0  0  0  0  0  0  0
    0.2303   -0.0093   -0.5077 N   0  0  0  0  0  0  0  0  0  0  0  0
   -3.7740    1.0521    0.4843 C   0  0  0  0  0  0  0  0  0  0  0  0
   -3.0381    1.5727   -0.6867 C   0  0  0  0  0  0  0  0  0  0  0  0
   -1.8122    0.8448   -1.0742 C   0  0  0  0  0  0  0  0  0  0  0  0
   -1.9089   -0.6437   -1.0418 C   0  0  0  0  0  0  0  0  0  0  0  0
   -1.1054    1.0320    1.1431 O   0  0  0  0  0  0  0  0  0  0  0  0
   -0.8605   -1.5041    0.9604 O   0  0  0  0  0  0  0  0  0  0  0  0
   -3.1458   -1.1928   -0.4541 C   0  0  0  0  0  0  0  0  0  0  0  0
   -3.7234   -0.4213    0.6806 C   0  0  0  0  0  0  0  0  0  0  0  0
   -0.6358   -1.1308   -0.3401 C   0  0  2  0  0  0  0  0  0  0  0  0
   -0.6268    1.1038   -0.1474 C   0  0  0  0  0  0  0  0  0  0  0  0
    1.6189    0.6476   -1.9671 H   0  0  0  0  0  0  0  0  0  0  0  0
    1.8752    2.0164    0.5125 H   0  0  0  0  0  0  0  0  0  0  0  0
    4.0788    0.7421   -1.0007 H   0  0  0  0  0  0  0  0  0  0  0  0
    3.5726    0.5376    1.9179 H   0  0  0  0  0  0  0  0  0  0  0  0
    5.8392    0.4090    0.2775 H   0  0  0  0  0  0  0  0  0  0  0  0
    4.3191   -1.8569    0.2294 H   0  0  0  0  0  0  0  0  0  0  0  0
    3.2381   -1.7685    1.6341 H   0  0  0  0  0  0  0  0  0  0  0  0
    2.5964   -1.1981   -1.2516 H   0  0  0  0  0  0  0  0  0  0  0  0
    1.7417   -2.1966   -0.0122 H   0  0  0  0  0  0  0  0  0  0  0  0
    1.3405   -0.0932    1.3204 H   0  0  0  0  0  0  0  0  0  0  0  0
   -4.8345    1.4283    0.4196 H   0  0  0  0  0  0  0  0  0  0  0  0
   -3.3742    1.5308    1.4185 H   0  0  0  0  0  0  0  0  0  0  0  0
   -2.7582    2.6442   -0.4930 H   0  0  0  0  0  0  0  0  0  0  0  0
   -3.7171    1.5965   -1.5855 H   0  0  0  0  0  0  0  0  0  0  0  0
   -1.4867    1.2193   -2.0785 H   0  0  0  0  0  0  0  0  0  0  0  0
   -1.8326   -1.0084   -2.1014 H   0  0  0  0  0  0  0  0  0  0  0  0
   -0.4774    0.6945    1.8064 H   0  0  0  0  0  0  0  0  0  0  0  0
   -0.6521   -2.4730    1.0781 H   0  0  0  0  0  0  0  0  0  0  0  0
   -2.9689   -2.2344   -0.1180 H   0  0  0  0  0  0  0  0  0  0  0  0
   -3.9201   -1.2544   -1.2609 H   0  0  0  0  0  0  0  0  0  0  0  0
   -4.7764   -0.7877    0.8299 H   0  0  0  0  0  0  0  0  0  0  0  0
   -3.1935   -0.7100    1.6225 H   0  0  0  0  0  0  0  0  0  0  0  0
   -0.1908   -1.9956   -0.9134 H   0  0  0  0  0  0  0  0  0  0  0  0
   -0.0952    2.0252   -0.3809 H   0  0  0  0  0  0  0  0  0  0  0  0
    1.6189    0.6476   -1.9671 H   0  0  0  0  0  0  0  0  0  0  0  0
    1.8752    2.0164    0.5125 H   0  0  0  0  0  0  0  0  0  0  0  0
    4.0788    0.7421   -1.0007 H   0  0  0  0  0  0  0  0  0  0  0  0
    3.5726    0.5376    1.9179 H   0  0  0  0  0  0  0  0  0  0  0  0
    5.8392    0.4090    0.2775 H   0  0  0  0  0  0  0  0  0  0  0  0
    4.3191   -1.8569    0.2294 H   0  0  0  0  0  0  0  0  0  0  0  0
    3.2381   -1.7685    1.6341 H   0  0  0  0  0  0  0  0  0  0  0  0
    2.5964   -1.1981   -1.2516 H   0  0  0  0  0  0  0  0  0  0  0  0
    1.7417   -2.1966   -0.0122 H   0  0  0  0  0  0  0  0  0  0  0  0
    1.3405   -0.0932    1.3204 H   0  0  0  0  0  0  0  0  0  0  0  0
   -4.8345    1.4283    0.4196 H   0  0  0  0  0  0  0  0  0  0  0  0
   -3.3742    1.5308    1.4185 H   0  0  0  0  0  0  0  0  0  0  0  0
   -2.7582    2.6442   -0.4930 H   0  0  0  0  0  0  0  0  0  0  0  0
   -3.7171    1.5965   -1.5855 H   0  0  0  0  0  0  0  0  0  0  0  0
   -1.4867    1.2193   -2.0785 H   0  0  0  0  0  0  0  0  0  0  0  0
   -1.8326   -1.0084   -2.1014 H   0  0  0  0  0  0  0  0  0  0  0  0
   -0.4774    0.6945    1.8064 H   0  0  0  0  0  0  0  0  0  0  0  0
   -0.6521   -2.4730    1.0781 H   0  0  0  0  0  0  0  0  0  0  0  0
   -2.9689   -2.2344   -0.1180 H   0  0  0  0  0  0  0  0  0  0  0  0
   -3.9201   -1.2544   -1.2609 H   0  0  0  0  0  0  0  0  0  0  0  0
   -4.7764   -0.7877    0.8299 H   0  0  0  0  0  0  0  0  0  0  0  0
   -3.1935   -0.7100    1.6225 H   0  0  0  0  0  0  0  0  0  0  0  0
   -0.1908   -1.9956   -0.9134 H   0  0  0  0  0  0  0  0  0  0  0  0
   -0.0952    2.0252   -0.3809 H   0  0  0  0  0  0  0  0  0  0  0  0
    1.3768    0.4310   -2.0551 H   0  0  0  0  0  0  0  0  0  0  0  0
    1.8788    2.1041   -0.1463 H   0  0  0  0  0  0  0  0  0  0  0  0
    4.3382    1.0791   -0.8335 H   0  0  0  0  0  0  0  0  0  0  0  0
    3.6441    0.6171    1.9935 H   0  0  0  0  0  0  0  0  0  0  0  0
    5.8180    0.4999    0.3081 H   0  0  0  0  0  0  0  0  0  0  0  0
    4.2581   -1.9140    0.4433 H   0  0  0  0  0  0  0  0  0  0  0  0
    3.2702   -1.6042    1.8889 H   0  0  0  0  0  0  0  0  0  0  0  0
    2.5844   -1.4126   -1.0363 H   0  0  0  0  0  0  0  0  0  0  0  0
    1.6975   -2.1892    0.3836 H   0  0  0  0  0  0  0  0  0  0  0  0
    1.3465    0.1679    1.2666 H   0  0  0  0  0  0  0  0  0  0  0  0
   -4.7804    1.5598    0.4903 H   0  0  0  0  0  0  0  0  0  0  0  0
   -3.2576    1.6174    1.3969 H   0  0  0  0  0  0  0  0  0  0  0  0
   -2.7721    2.6341   -0.5831 H   0  0  0  0  0  0  0  0  0  0  0  0
   -3.7247    1.5390   -1.5969 H   0  0  0  0  0  0  0  0  0  0  0  0
   -1.5026    1.1372   -2.0952 H   0  0  0  0  0  0  0  0  0  0  0  0
   -1.8919   -1.0818   -2.0067 H   0  0  0  0  0  0  0  0  0  0  0  0
   -0.3512    1.1616    1.8079 H   0  0  0  0  0  0  0  0  0  0  0  0
   -0.6474   -3.0526   -0.2047 H   0  0  0  0  0  0  0  0  0  0  0  0
   -2.9746   -2.2044    0.0953 H   0  0  0  0  0  0  0  0  0  0  0  0
   -3.9565   -1.3568   -1.1197 H   0  0  0  0  0  0  0  0  0  0  0  0
   -4.8463   -0.6646    0.8540 H   0  0  0  0  0  0  0  0  0  0  0  0
   -3.3078   -0.6296    1.7325 H   0  0  0  0  0  0  0  0  0  0  0  0
   -0.8761   -1.2217    0.8649 H   0  0  0  0  0  0  0  0  0  0  0  0
   -0.1413    2.0559   -0.3996 H   0  0  0  0  0  0  0  0  0  0  0  0
    1.6189    0.6476   -1.9671 H   0  0  0  0  0  0  0  0  0  0  0  0
    1.8752    2.0164    0.5125 H   0  0  0  0  0  0  0  0  0  0  0  0
    4.0788    0.7421   -1.0007 H   0  0  0  0  0  0  0  0  0  0  0  0
    3.5726    0.5376    1.9179 H   0  0  0  0  0  0  0  0  0  0  0  0
    5.8392    0.4090    0.2775 H   0  0  0  0  0  0  0  0  0  0  0  0
    4.3191   -1.8569    0.2294 H   0  0  0  0  0  0  0  0  0  0  0  0
    3.2381   -1.7685    1.6341 H   0  0  0  0  0  0  0  0  0  0  0  0
    2.5964   -1.1981   -1.2516 H   0  0  0  0  0  0  0  0  0  0  0  0
    1.7417   -2.1966   -0.0122 H   0  0  0  0  0  0  0  0  0  0  0  0
    1.3405   -0.0932    1.3204 H   0  0  0  0  0  0  0  0  0  0  0  0
   -4.8345    1.4283    0.4196 H   0  0  0  0  0  0  0  0  0  0  0  0
   -3.3742    1.5308    1.4185 H   0  0  0  0  0  0  0  0  0  0  0  0
   -2.7582    2.6442   -0.4930 H   0  0  0  0  0  0  0  0  0  0  0  0
   -3.7171    1.5965   -1.5855 H   0  0  0  0  0  0  0  0  0  0  0  0
   -1.4867    1.2193   -2.0785 H   0  0  0  0  0  0  0  0  0  0  0  0
   -1.8326   -1.0084   -2.1014 H   0  0  0  0  0  0  0  0  0  0  0  0
   -0.4774    0.6945    1.8064 H   0  0  0  0  0  0  0  0  0  0  0  0
   -0.6521   -2.4730    1.0781 H   0  0  0  0  0  0  0  0  0  0  0  0
   -2.9689   -2.2344   -0.1180 H   0  0  0  0  0  0  0  0  0  0  0  0
   -3.9201   -1.2544   -1.2609 H   0  0  0  0  0  0  0  0  0  0  0  0
   -4.7764   -0.7877    0.8299 H   0  0  0  0  0  0  0  0  0  0  0  0
   -3.1935   -0.7100    1.6225 H   0  0  0  0  0  0  0  0  0  0  0  0
   -0.1908   -1.9956   -0.9134 H   0  0  0  0  0  0  0  0  0  0  0  0
   -0.0952    2.0252   -0.3809 H   0  0  0  0  0  0  0  0  0  0  0  0
  1  2  1  0
  2  3  1  0
  3  4  1  0
  4  5  1  0
  4  6  1  0
  6  7  1  0
  2  8  1  0
  7  8  1  0
  8  9  1  0
 10 11  1  0
 11 12  1  0
 12 13  1  0
 13 16  1  0
 10 17  1  0
 16 17  1  0
  9 18  1  0
 13 18  1  0
 15 18  1  0
  9 19  1  0
 12 19  1  0
 14 19  1  0
 20 21  1  0
 21 22  1  0
 22 23  1  0
 23 24  1  0
 23 25  1  0
 25 26  1  0
 21 27  1  0
 26 27  1  0
 27 28  1  0
 29 30  1  0
 30 31  1  0
 31 32  1  0
 32 35  1  0
 29 36  1  0
 35 36  1  0
 28 37  1  0
 32 37  1  0
 34 37  1  0
 28 38  1  0
 31 38  1  0
 33 38  1  0
 39 40  1  0
 40 41  1  0
 41 42  1  0
 42 43  1  0
 42 44  1  0
 44 45  1  0
 40 46  1  0
 45 46  1  0
 46 47  1  0
 48 49  1  0
 49 50  1  0
 50 51  1  0
 51 54  1  0
 48 55  1  0
 54 55  1  0
 47 56  1  0
 51 56  1  0
 53 56  1  0
 47 57  1  0
 50 57  1  0
 52 57  1  0
 58 59  1  0
 59 60  1  0
 60 61  1  0
 61 62  1  0
 61 63  1  0
 63 64  1  0
 59 65  1  0
 64 65  1  0
 65 66  1  0
 67 68  1  0
 68 69  1  0
 69 70  1  0
 70 73  1  0
 67 74  1  0
 73 74  1  0
 66 75  1  0
 70 75  1  0
 72 75  1  0
 66 76  1  0
 69 76  1  0
 71 76  1  0
  1 77  1  0
  2 78  1  0
  3 79  1  0
  4 80  1  0
  5 81  1  0
  6 82  1  0
  6 83  1  0
  7 84  1  0
  7 85  1  0
  8 86  1  1
 10 87  1  0
 10 88  1  0
 11 89  1  0
 11 90  1  0
 12 91  1  0
 13 92  1  0
 14 93  1  0
 15 94  1  0
 16 95  1  0
 16 96  1  0
 17 97  1  0
 17 98  1  0
 18 99  1  6
 19100  1  0
 20101  1  0
 21102  1  0
 22103  1  0
 23104  1  0
 24105  1  0
 25106  1  0
 25107  1  0
 26108  1  0
 26109  1  0
 27110  1  1
 29111  1  0
 29112  1  0
 30113  1  0
 30114  1  0
 31115  1  0
 32116  1  0
 33117  1  0
 34118  1  0
 35119  1  0
 35120  1  0
 36121  1  0
 36122  1  0
 37123  1  6
 38124  1  0
 39125  1  0
 40126  1  0
 41127  1  0
 42128  1  0
 43129  1  0
 44130  1  0
 44131  1  0
 45132  1  0
 45133  1  0
 46134  1  1
 48135  1  0
 48136  1  0
 49137  1  0
 49138  1  0
 50139  1  0
 51140  1  0
 52141  1  0
 53142  1  0
 54143  1  0
 54144  1  0
 55145  1  0
 55146  1  0
 56147  1  0
 57148  1  0
 58149  1  0
 59150  1  0
 60151  1  0
 61152  1  0
 62153  1  0
 63154  1  0
 63155  1  0
 64156  1  0
 64157  1  0
 65158  1  1
 67159  1  0
 67160  1  0
 68161  1  0
 68162  1  0
 69163  1  0
 70164  1  0
 71165  1  0
 72166  1  0
 73167  1  0
 73168  1  0
 74169  1  0
 74170  1  0
 75171  1  6
 76172  1  0
M  END
>  <PDBID>  (1) 
4TZC

>  <PDB ID>  (1) 
4TZC

>  <Generic Name>  (1) 
Thalidomide

>  <Brand Name>  (1) 
Thalomid#Contergan#Distaval#K-17#Pro-ban M#Sedalis#Softenon#Talimol#Thaled

>  <DrugBank ID>  (1) 
DB01041

>  <ATC Codes>  (1) 
L04AX02

>  <Ligand ID>  (1) 
EF2

>  <Target Name>  (1) 
Protein cereblon

>  <UniProt ID>  (1) 
Q96SW2

>  <PDB ID.1>  (1) 
4TZC

>  <Seq. Identity>  (1) 
97%

$$$$
