PDB_DB09078_00
     RDKit          3D

 69 72  0  0  0  0  0  0  0  0999 V2000
   -7.1547   -0.4190    2.3016 C   0  0  0  0  0  0  0  0  0  0  0  0
   -6.5537   -0.7854    1.0816 O   0  0  0  0  0  0  0  0  0  0  0  0
   -5.3242   -0.1206    1.0140 C   0  0  0  0  0  0  0  0  0  0  0  0
   -5.2969    0.8549   -0.1455 C   0  0  0  0  0  0  0  0  0  0  0  0
   -3.9749    1.6089    0.0048 C   0  0  0  0  0  0  0  0  0  0  0  0
   -3.9046    2.7259   -0.9101 N   0  0  0  0  0  0  0  0  0  0  0  0
   -2.7686    3.5364   -0.5111 C   0  0  0  0  0  0  0  0  0  0  0  0
   -1.7684    2.7507    0.2930 C   0  0  0  0  0  0  0  0  0  0  0  0
   -1.5789    1.3460   -0.2974 C   0  0  2  0  0  0  0  0  0  0  0  0
   -2.8817    0.6190   -0.3430 C   0  0  0  0  0  0  0  0  0  0  0  0
   -2.9074   -0.5948    0.5283 C   0  0  0  0  0  0  0  0  0  0  0  0
   -4.2537   -1.1369    0.8163 C   0  0  2  0  0  0  0  0  0  0  0  0
   -4.7387   -2.1419   -0.2074 C   0  0  2  0  0  0  0  0  0  0  0  0
   -5.9011   -2.7729    0.2331 O   0  0  0  0  0  0  0  0  0  0  0  0
   -3.7441   -3.1481   -0.5193 N   0  0  0  0  0  0  0  0  0  0  0  0
   -0.5604    0.7086    0.3547 O   0  0  0  0  0  0  0  0  0  0  0  0
    0.5770    0.4964   -0.4575 C   0  0  1  0  0  0  0  0  0  0  0  0
    1.7330    1.2834    0.1000 C   0  0  0  0  0  0  0  0  0  0  0  0
    3.0797    0.8196   -0.4139 C   0  0  1  0  0  0  0  0  0  0  0  0
    3.2649   -0.6566   -0.3175 C   0  0  2  0  0  0  0  0  0  0  0  0
    2.0558   -1.3057    0.3283 C   0  0  0  0  0  0  0  0  0  0  0  0
    0.8648   -0.9677   -0.5697 C   0  0  0  0  0  0  0  0  0  0  0  0
    4.4510   -1.1007    0.3400 N   0  0  0  0  0  0  0  0  0  0  0  0
    5.6877   -0.7640   -0.2817 C   0  0  0  0  0  0  0  0  0  0  0  0
    5.8837    0.5973   -0.4402 O   0  0  0  0  0  0  0  0  0  0  0  0
    6.7705   -1.2441    0.5595 N   0  0  0  0  0  0  0  0  0  0  0  0
    8.0626   -0.9631   -0.0040 C   0  0  0  0  0  0  0  0  0  0  0  0
    9.2990   -1.2288    0.8047 C   0  0  0  0  0  0  0  0  0  0  0  0
    8.8876    0.1648    0.4714 C   0  0  0  0  0  0  0  0  0  0  0  0
    3.4175    1.4238   -2.0464 Cl  0  0  0  0  0  0  0  0  0  0  0  0
   -7.3085    0.6872    2.3370 H   0  0  0  0  0  0  0  0  0  0  0  0
   -8.1251   -0.8992    2.4605 H   0  0  0  0  0  0  0  0  0  0  0  0
   -6.5112   -0.6932    3.1604 H   0  0  0  0  0  0  0  0  0  0  0  0
   -5.1492    0.5095    1.9302 H   0  0  0  0  0  0  0  0  0  0  0  0
   -6.1584    1.5524   -0.1159 H   0  0  0  0  0  0  0  0  0  0  0  0
   -5.2457    0.3512   -1.1324 H   0  0  0  0  0  0  0  0  0  0  0  0
   -3.9244    1.9569    1.0384 H   0  0  0  0  0  0  0  0  0  0  0  0
   -3.8629    2.4150   -1.8990 H   0  0  0  0  0  0  0  0  0  0  0  0
   -3.1567    4.3884    0.0851 H   0  0  0  0  0  0  0  0  0  0  0  0
   -2.2588    3.8972   -1.4288 H   0  0  0  0  0  0  0  0  0  0  0  0
   -2.0311    2.6842    1.3683 H   0  0  0  0  0  0  0  0  0  0  0  0
   -0.7884    3.2624    0.2257 H   0  0  0  0  0  0  0  0  0  0  0  0
   -1.2313    1.5428   -1.3512 H   0  0  0  0  0  0  0  0  0  0  0  0
   -3.0898    0.2713   -1.3911 H   0  0  0  0  0  0  0  0  0  0  0  0
   -2.3387   -1.3929   -0.0132 H   0  0  0  0  0  0  0  0  0  0  0  0
   -2.3428   -0.4129    1.4864 H   0  0  0  0  0  0  0  0  0  0  0  0
   -4.1792   -1.7177    1.7826 H   0  0  0  0  0  0  0  0  0  0  0  0
   -5.0044   -1.6693   -1.1828 H   0  0  0  0  0  0  0  0  0  0  0  0
   -5.6821   -3.7047    0.4793 H   0  0  0  0  0  0  0  0  0  0  0  0
   -3.0970   -2.7931   -1.2852 H   0  0  0  0  0  0  0  0  0  0  0  0
   -4.2660   -3.9419   -1.0005 H   0  0  0  0  0  0  0  0  0  0  0  0
    0.3175    0.9156   -1.4467 H   0  0  0  0  0  0  0  0  0  0  0  0
    1.6135    2.3426   -0.2358 H   0  0  0  0  0  0  0  0  0  0  0  0
    1.7808    1.2462    1.2151 H   0  0  0  0  0  0  0  0  0  0  0  0
    3.8249    1.3178    0.2766 H   0  0  0  0  0  0  0  0  0  0  0  0
    3.3354   -1.0625   -1.3755 H   0  0  0  0  0  0  0  0  0  0  0  0
    1.9113   -0.8500    1.3236 H   0  0  0  0  0  0  0  0  0  0  0  0
    2.2227   -2.3847    0.3304 H   0  0  0  0  0  0  0  0  0  0  0  0
    1.1158   -1.2141   -1.6190 H   0  0  0  0  0  0  0  0  0  0  0  0
    0.0287   -1.5861   -0.1985 H   0  0  0  0  0  0  0  0  0  0  0  0
    4.4751   -0.7599    1.3234 H   0  0  0  0  0  0  0  0  0  0  0  0
    5.8267   -1.2311   -1.2812 H   0  0  0  0  0  0  0  0  0  0  0  0
    6.2095    1.0049    0.4071 H   0  0  0  0  0  0  0  0  0  0  0  0
    6.7033   -0.8108    1.5136 H   0  0  0  0  0  0  0  0  0  0  0  0
    8.1709   -1.2251   -1.0810 H   0  0  0  0  0  0  0  0  0  0  0  0
   10.1951   -1.6495    0.3065 H   0  0  0  0  0  0  0  0  0  0  0  0
    9.2138   -1.4967    1.8882 H   0  0  0  0  0  0  0  0  0  0  0  0
    9.5578    0.7054   -0.2441 H   0  0  0  0  0  0  0  0  0  0  0  0
    8.5264    0.8588    1.2701 H   0  0  0  0  0  0  0  0  0  0  0  0
  1  2  1  0
  2  3  1  0
  3  4  1  0
  4  5  1  0
  5  6  1  0
  6  7  1  0
  7  8  1  0
  8  9  1  0
  5 10  1  0
  9 10  1  0
 10 11  1  0
  3 12  1  0
 11 12  1  0
 12 13  1  0
 13 14  1  0
 13 15  1  0
  9 16  1  0
 16 17  1  0
 17 18  1  0
 18 19  1  0
 19 20  1  0
 20 21  1  0
 17 22  1  0
 21 22  1  0
 20 23  1  0
 23 24  1  0
 24 25  1  0
 24 26  1  0
 26 27  1  0
 27 28  1  0
 27 29  1  0
 28 29  1  0
 19 30  1  0
  1 31  1  0
  1 32  1  0
  1 33  1  0
  3 34  1  0
  4 35  1  0
  4 36  1  0
  5 37  1  0
  6 38  1  0
  7 39  1  0
  7 40  1  0
  8 41  1  0
  8 42  1  0
  9 43  1  6
 10 44  1  0
 11 45  1  0
 11 46  1  0
 12 47  1  1
 13 48  1  6
 14 49  1  0
 15 50  1  0
 15 51  1  0
 17 52  1  6
 18 53  1  0
 18 54  1  0
 19 55  1  1
 20 56  1  6
 21 57  1  0
 21 58  1  0
 22 59  1  0
 22 60  1  0
 23 61  1  0
 24 62  1  0
 25 63  1  0
 26 64  1  0
 27 65  1  0
 28 66  1  0
 28 67  1  0
 29 68  1  0
 29 69  1  0
M  END
>  <PDBID>  (1) 
3WZD

>  <PDB ID>  (1) 
3WZD

>  <Generic Name>  (1) 
Lenvatinib

>  <Brand Name>  (1) 
Lenvima

>  <DrugBank ID>  (1) 
DB09078

>  <ATC Codes>  (1) 
L01XE29

>  <Ligand ID>  (1) 
LEV

>  <Target Name>  (1) 
Vascular endothelial growth factor receptor 3

>  <UniProt ID>  (1) 
P35916

>  <PDB ID.1>  (1) 
3WZD

>  <Seq. Identity>  (1) 
67%

$$$$
