PDB_DB00513_06
     RDKit          3D

 25 24  0  0  0  0  0  0  0  0999 V2000
   -3.3600   -0.2423   -0.3543 C   0  0  0  0  0  0  0  0  0  0  0  0
   -3.6168    0.8803    0.4005 O   0  0  0  0  0  0  0  0  0  0  0  0
   -3.2327    0.0924   -1.7003 O   0  0  0  0  0  0  0  0  0  0  0  0
   -2.0908   -0.9548    0.0889 C   0  0  0  0  0  0  0  0  0  0  0  0
   -0.9437   -0.0040   -0.0575 C   0  0  0  0  0  0  0  0  0  0  0  0
    0.3626   -0.6288    0.3614 C   0  0  0  0  0  0  0  0  0  0  0  0
    1.4469    0.4114    0.1746 C   0  0  0  0  0  0  0  0  0  0  0  0
    2.7819   -0.2163    0.5994 C   0  0  0  0  0  0  0  0  0  0  0  0
    3.8193    0.7767    0.4214 N   0  0  0  0  0  0  0  0  0  0  0  0
   -2.1711   -1.2736    1.1361 H   0  0  0  0  0  0  0  0  0  0  0  0
   -1.9110   -1.8262   -0.5376 H   0  0  0  0  0  0  0  0  0  0  0  0
   -0.8263    0.3215   -1.1214 H   0  0  0  0  0  0  0  0  0  0  0  0
   -1.0655    0.9222    0.5514 H   0  0  0  0  0  0  0  0  0  0  0  0
    0.5438   -1.4809   -0.3355 H   0  0  0  0  0  0  0  0  0  0  0  0
    0.2870   -0.9685    1.4084 H   0  0  0  0  0  0  0  0  0  0  0  0
    1.5734    0.6538   -0.9006 H   0  0  0  0  0  0  0  0  0  0  0  0
    1.2207    1.3201    0.7444 H   0  0  0  0  0  0  0  0  0  0  0  0
    2.9509   -1.0491   -0.1207 H   0  0  0  0  0  0  0  0  0  0  0  0
    2.7389   -0.6144    1.6226 H   0  0  0  0  0  0  0  0  0  0  0  0
    4.5536    0.4234   -0.2375 H   0  0  0  0  0  0  0  0  0  0  0  0
    4.2401    1.0691    1.3479 H   0  0  0  0  0  0  0  0  0  0  0  0
    3.4343    1.6462   -0.0113 H   0  0  0  0  0  0  0  0  0  0  0  0
   -4.2116   -0.9417   -0.2280 H   0  0  0  0  0  0  0  0  0  0  0  0
   -3.5616    0.6337    1.3691 H   0  0  0  0  0  0  0  0  0  0  0  0
   -2.9622    1.0497   -1.8150 H   0  0  0  0  0  0  0  0  0  0  0  0
  1  2  1  0
  1  3  1  0
  1  4  1  0
  4  5  1  0
  5  6  1  0
  6  7  1  0
  7  8  1  0
  8  9  1  0
  4 10  1  0
  4 11  1  0
  5 12  1  0
  5 13  1  0
  6 14  1  0
  6 15  1  0
  7 16  1  0
  7 17  1  0
  8 18  1  0
  8 19  1  0
  9 20  1  0
  9 21  1  0
 22  9  1  0
  1 23  1  0
  2 24  1  0
  3 25  1  0
M  CHG  1   9   1
M  END
>  <PDBID>  (1) 
1HPK

>  <PDB ID>  (1) 
1HPK

>  <Generic Name>  (1) 
Aminocaproic Acid

>  <Brand Name>  (1) 
Amicar#Aminocaproic Acid#Exoden White Tooth#Acepramin#Amocap#Caproamin#Caprocat#Caprolisin#E-Capro#Epsicaprom#Hemocid#Inselon#Ipron#Ipsilon#Kai Nai Yin#Minocap#Plaslloid#Resplamin

>  <DrugBank ID>  (1) 
DB00513

>  <ATC Codes>  (1) 
B02AA01

>  <Ligand ID>  (1) 
ACA

>  <Target Name>  (1) 
Plasminogen

>  <UniProt ID>  (1) 
P00747

>  <PDB ID.1>  (1) 
1HPK

>  <Seq. Identity>  (1) 
100%

$$$$
