PDB_DB01132_09
     RDKit          3D

122126  0  0  0  0  0  0  0  0999 V2000
   -6.8977   -2.2632   -0.0321 O   0  0  0  0  0  0  0  0  0  0  0  0
   -5.7068   -1.5013   -0.0052 C   0  0  1  0  0  0  0  0  0  0  0  0
   -5.2776   -1.1258   -1.2836 N   0  0  0  0  0  0  0  0  0  0  0  0
   -5.8271   -0.3143    0.8965 C   0  0  2  0  0  0  0  0  0  0  0  0
   -6.0394    1.0371   -0.2608 S   0  0  0  0  0  0  0  0  0  0  0  0
   -5.9870   -0.0013   -1.7814 C   0  0  0  0  0  0  0  0  0  0  0  0
   -7.3023   -0.2672   -2.1390 O   0  0  0  0  0  0  0  0  0  0  0  0
   -4.7494   -0.1591    1.8886 C   0  0  0  0  0  0  0  0  0  0  0  0
    4.3623   -1.0615   -0.0757 C   0  0  0  0  0  0  0  0  0  0  0  0
   -3.3667   -0.0091    1.3661 C   0  0  0  0  0  0  0  0  0  0  0  0
   -3.2471    1.2036    0.4895 C   0  0  0  0  0  0  0  0  0  0  0  0
   -1.8699    1.8173    0.4876 C   0  0  0  0  0  0  0  0  0  0  0  0
   -0.8643    0.7126    0.7191 C   0  0  0  0  0  0  0  0  0  0  0  0
   -1.0099    0.2874    2.1643 C   0  0  0  0  0  0  0  0  0  0  0  0
   -2.4445    0.1576    2.5810 C   0  0  0  0  0  0  0  0  0  0  0  0
    0.4006    1.2198    0.4775 O   0  0  0  0  0  0  0  0  0  0  0  0
    1.0802    0.5062   -0.5086 C   0  0  0  0  0  0  0  0  0  0  0  0
    2.4258    1.1550   -0.6717 C   0  0  0  0  0  0  0  0  0  0  0  0
    7.1776   -1.9515   -0.4847 C   0  0  0  0  0  0  0  0  0  0  0  0
    6.8072   -0.8147    0.4105 C   0  0  0  0  0  0  0  0  0  0  0  0
    5.5421   -0.1405   -0.0485 C   0  0  0  0  0  0  0  0  0  0  0  0
    5.7069    0.4907   -1.4138 C   0  0  0  0  0  0  0  0  0  0  0  0
    4.5548    1.3041   -1.6963 N   0  0  0  0  0  0  0  0  0  0  0  0
    3.5801   -0.9209   -1.3728 C   0  0  0  0  0  0  0  0  0  0  0  0
    3.3080    0.5246   -1.6982 C   0  0  0  0  0  0  0  0  0  0  0  0
   -6.8476   -2.3189    0.0944 O   0  0  0  0  0  0  0  0  0  0  0  0
   -5.6666   -1.5404    0.0816 C   0  0  0  0  0  0  0  0  0  0  0  0
   -5.2467   -1.2053   -1.2138 N   0  0  0  0  0  0  0  0  0  0  0  0
   -5.7974   -0.3236    0.9384 C   0  0  2  0  0  0  0  0  0  0  0  0
   -6.0367    0.9815   -0.2667 S   0  0  0  0  0  0  0  0  0  0  0  0
   -5.9699   -0.1084   -1.7508 C   0  0  0  0  0  0  0  0  0  0  0  0
   -7.2859   -0.4123   -2.0850 O   0  0  0  0  0  0  0  0  0  0  0  0
   -4.7244   -0.1099    1.9223 C   0  0  0  0  0  0  0  0  0  0  0  0
    4.3415   -1.0563   -0.1258 C   0  0  0  0  0  0  0  0  0  0  0  0
   -3.3428    0.0428    1.3987 C   0  0  0  0  0  0  0  0  0  0  0  0
   -3.2590    1.2267    0.4744 C   0  0  0  0  0  0  0  0  0  0  0  0
   -1.8654    1.8315    0.4437 C   0  0  0  0  0  0  0  0  0  0  0  0
   -0.8577    0.7342    0.7124 C   0  0  0  0  0  0  0  0  0  0  0  0
   -0.9853    0.3830    2.1809 C   0  0  0  0  0  0  0  0  0  0  0  0
   -2.4259    0.2665    2.6065 C   0  0  0  0  0  0  0  0  0  0  0  0
    0.3986    1.2200    0.4299 O   0  0  0  0  0  0  0  0  0  0  0  0
    1.0577    0.4813   -0.5553 C   0  0  0  0  0  0  0  0  0  0  0  0
    2.4032    1.1388   -0.7406 C   0  0  0  0  0  0  0  0  0  0  0  0
    7.1635   -1.9101   -0.4610 C   0  0  0  0  0  0  0  0  0  0  0  0
    6.7600   -0.7654    0.4225 C   0  0  0  0  0  0  0  0  0  0  0  0
    5.4984   -0.0986   -0.0796 C   0  0  0  0  0  0  0  0  0  0  0  0
    5.6754    0.5072   -1.4479 C   0  0  0  0  0  0  0  0  0  0  0  0
    4.5195    1.2833   -1.7934 N   0  0  0  0  0  0  0  0  0  0  0  0
    3.5678   -0.9288   -1.4175 C   0  0  0  0  0  0  0  0  0  0  0  0
    3.2781    0.5043   -1.7658 C   0  0  0  0  0  0  0  0  0  0  0  0
   -7.5175   -1.8967    0.6400 H   0  0  0  0  0  0  0  0  0  0  0  0
   -4.9472   -2.1817    0.4459 H   0  0  0  0  0  0  0  0  0  0  0  0
   -4.2816   -1.1797   -1.5022 H   0  0  0  0  0  0  0  0  0  0  0  0
   -6.7910   -0.4289    1.4568 H   0  0  0  0  0  0  0  0  0  0  0  0
   -5.4155    0.5242   -2.5623 H   0  0  0  0  0  0  0  0  0  0  0  0
   -7.9605    0.0960   -1.4667 H   0  0  0  0  0  0  0  0  0  0  0  0
   -4.9769    0.7431    2.5081 H   0  0  0  0  0  0  0  0  0  0  0  0
   -4.7854   -1.0147    2.5861 H   0  0  0  0  0  0  0  0  0  0  0  0
    3.7064   -0.9060    0.8083 H   0  0  0  0  0  0  0  0  0  0  0  0
    4.7000   -2.1159   -0.0339 H   0  0  0  0  0  0  0  0  0  0  0  0
   -3.0696   -0.9454    0.8246 H   0  0  0  0  0  0  0  0  0  0  0  0
   -3.9527    2.0050    0.8250 H   0  0  0  0  0  0  0  0  0  0  0  0
   -3.5107    0.9619   -0.5509 H   0  0  0  0  0  0  0  0  0  0  0  0
   -1.7538    2.5224    1.3530 H   0  0  0  0  0  0  0  0  0  0  0  0
   -1.7216    2.3260   -0.4726 H   0  0  0  0  0  0  0  0  0  0  0  0
   -1.1006   -0.1606    0.0879 H   0  0  0  0  0  0  0  0  0  0  0  0
   -0.4517   -0.6239    2.3997 H   0  0  0  0  0  0  0  0  0  0  0  0
   -0.5669    1.1107    2.7741 H   0  0  0  0  0  0  0  0  0  0  0  0
   -2.5494   -0.7554    3.1939 H   0  0  0  0  0  0  0  0  0  0  0  0
   -2.8091    1.0054    3.1751 H   0  0  0  0  0  0  0  0  0  0  0  0
    1.1228   -0.5643   -0.3117 H   0  0  0  0  0  0  0  0  0  0  0  0
    0.5540    0.6215   -1.4993 H   0  0  0  0  0  0  0  0  0  0  0  0
    2.9883    1.2219    0.2817 H   0  0  0  0  0  0  0  0  0  0  0  0
    2.2249    2.2207   -0.9764 H   0  0  0  0  0  0  0  0  0  0  0  0
    8.2179   -2.2695   -0.1857 H   0  0  0  0  0  0  0  0  0  0  0  0
    7.2458   -1.5879   -1.5236 H   0  0  0  0  0  0  0  0  0  0  0  0
    6.5636   -2.8539   -0.3751 H   0  0  0  0  0  0  0  0  0  0  0  0
    7.6286   -0.0538    0.3240 H   0  0  0  0  0  0  0  0  0  0  0  0
    6.7144   -1.1027    1.4705 H   0  0  0  0  0  0  0  0  0  0  0  0
    5.2944    0.6829    0.6576 H   0  0  0  0  0  0  0  0  0  0  0  0
    6.5715    1.1841   -1.3525 H   0  0  0  0  0  0  0  0  0  0  0  0
    5.8903   -0.2369   -2.2139 H   0  0  0  0  0  0  0  0  0  0  0  0
    4.6487    1.8310   -2.5767 H   0  0  0  0  0  0  0  0  0  0  0  0
    2.6350   -1.4604   -1.3208 H   0  0  0  0  0  0  0  0  0  0  0  0
    4.2064   -1.3756   -2.1761 H   0  0  0  0  0  0  0  0  0  0  0  0
    2.8933    0.5576   -2.7203 H   0  0  0  0  0  0  0  0  0  0  0  0
   -7.3753   -2.0495    0.8909 H   0  0  0  0  0  0  0  0  0  0  0  0
   -4.8941   -2.1929    0.5503 H   0  0  0  0  0  0  0  0  0  0  0  0
   -4.2533   -1.2626   -1.4382 H   0  0  0  0  0  0  0  0  0  0  0  0
   -6.7607   -0.4272    1.5087 H   0  0  0  0  0  0  0  0  0  0  0  0
   -5.4205    0.3624   -2.5678 H   0  0  0  0  0  0  0  0  0  0  0  0
   -7.9376   -0.0423   -1.4365 H   0  0  0  0  0  0  0  0  0  0  0  0
   -4.9692    0.8037    2.5112 H   0  0  0  0  0  0  0  0  0  0  0  0
   -4.7457   -0.9455    2.6515 H   0  0  0  0  0  0  0  0  0  0  0  0
    3.7130   -0.9424    0.7651 H   0  0  0  0  0  0  0  0  0  0  0  0
    4.7717   -2.0851   -0.1094 H   0  0  0  0  0  0  0  0  0  0  0  0
   -2.9948   -0.8829    0.8992 H   0  0  0  0  0  0  0  0  0  0  0  0
   -3.9587    2.0339    0.7593 H   0  0  0  0  0  0  0  0  0  0  0  0
   -3.5090    0.9137   -0.5614 H   0  0  0  0  0  0  0  0  0  0  0  0
   -1.7561    2.6132    1.2185 H   0  0  0  0  0  0  0  0  0  0  0  0
   -1.7157    2.2829   -0.5506 H   0  0  0  0  0  0  0  0  0  0  0  0
   -1.1329   -0.1546    0.1150 H   0  0  0  0  0  0  0  0  0  0  0  0
   -0.4182   -0.5102    2.4472 H   0  0  0  0  0  0  0  0  0  0  0  0
   -0.5533    1.2374    2.7468 H   0  0  0  0  0  0  0  0  0  0  0  0
   -2.5246   -0.6447    3.2285 H   0  0  0  0  0  0  0  0  0  0  0  0
   -2.7841    1.1082    3.2090 H   0  0  0  0  0  0  0  0  0  0  0  0
    1.1720   -0.5809   -0.2568 H   0  0  0  0  0  0  0  0  0  0  0  0
    0.5185    0.4977   -1.5214 H   0  0  0  0  0  0  0  0  0  0  0  0
    2.9674    1.1865    0.2224 H   0  0  0  0  0  0  0  0  0  0  0  0
    2.1860    2.2020   -1.0255 H   0  0  0  0  0  0  0  0  0  0  0  0
    7.0170   -2.8497    0.1173 H   0  0  0  0  0  0  0  0  0  0  0  0
    8.2211   -1.8096   -0.7721 H   0  0  0  0  0  0  0  0  0  0  0  0
    6.5485   -1.9628   -1.3631 H   0  0  0  0  0  0  0  0  0  0  0  0
    7.5726    0.0060    0.3952 H   0  0  0  0  0  0  0  0  0  0  0  0
    6.5909   -1.0887    1.4581 H   0  0  0  0  0  0  0  0  0  0  0  0
    5.2933    0.7671    0.6124 H   0  0  0  0  0  0  0  0  0  0  0  0
    6.5404    1.2085   -1.4683 H   0  0  0  0  0  0  0  0  0  0  0  0
    5.8852   -0.2448   -2.2363 H   0  0  0  0  0  0  0  0  0  0  0  0
    4.6637    1.7728   -2.6848 H   0  0  0  0  0  0  0  0  0  0  0  0
    2.6161   -1.4775   -1.3335 H   0  0  0  0  0  0  0  0  0  0  0  0
    4.2154   -1.4053   -2.2036 H   0  0  0  0  0  0  0  0  0  0  0  0
    2.8587    0.5261   -2.7803 H   0  0  0  0  0  0  0  0  0  0  0  0
  1  2  1  0
  2  3  1  0
  2  4  1  0
  4  5  1  0
  3  6  1  0
  5  6  1  0
  6  7  1  0
  4  8  1  0
  8 10  1  0
 10 11  1  0
 11 12  1  0
 12 13  1  0
 13 14  1  0
 10 15  1  0
 14 15  1  0
 13 16  1  0
 16 17  1  0
 17 18  1  0
 19 20  1  0
  9 21  1  0
 20 21  1  0
 21 22  1  0
 22 23  1  0
  9 24  1  0
 18 25  1  0
 23 25  1  0
 24 25  1  0
 26 27  1  0
 27 28  1  0
 27 29  1  0
 29 30  1  0
 28 31  1  0
 30 31  1  0
 31 32  1  0
 29 33  1  0
 33 35  1  0
 35 36  1  0
 36 37  1  0
 37 38  1  0
 38 39  1  0
 35 40  1  0
 39 40  1  0
 38 41  1  0
 41 42  1  0
 42 43  1  0
 44 45  1  0
 34 46  1  0
 45 46  1  0
 46 47  1  0
 47 48  1  0
 34 49  1  0
 43 50  1  0
 48 50  1  0
 49 50  1  0
  1 51  1  0
  2 52  1  1
  3 53  1  0
  4 54  1  1
  6 55  1  0
  7 56  1  0
  8 57  1  0
  8 58  1  0
  9 59  1  0
  9 60  1  0
 10 61  1  0
 11 62  1  0
 11 63  1  0
 12 64  1  0
 12 65  1  0
 13 66  1  0
 14 67  1  0
 14 68  1  0
 15 69  1  0
 15 70  1  0
 17 71  1  0
 17 72  1  0
 18 73  1  0
 18 74  1  0
 19 75  1  0
 19 76  1  0
 19 77  1  0
 20 78  1  0
 20 79  1  0
 21 80  1  0
 22 81  1  0
 22 82  1  0
 23 83  1  0
 24 84  1  0
 24 85  1  0
 25 86  1  0
 26 87  1  0
 27 88  1  0
 28 89  1  0
 29 90  1  1
 31 91  1  0
 32 92  1  0
 33 93  1  0
 33 94  1  0
 34 95  1  0
 34 96  1  0
 35 97  1  0
 36 98  1  0
 36 99  1  0
 37100  1  0
 37101  1  0
 38102  1  0
 39103  1  0
 39104  1  0
 40105  1  0
 40106  1  0
 42107  1  0
 42108  1  0
 43109  1  0
 43110  1  0
 44111  1  0
 44112  1  0
 44113  1  0
 45114  1  0
 45115  1  0
 46116  1  0
 47117  1  0
 47118  1  0
 48119  1  0
 49120  1  0
 49121  1  0
 50122  1  0
M  END
>  <PDBID>  (1) 
2XKW

>  <PDB ID>  (1) 
2XKW

>  <Generic Name>  (1) 
Pioglitazone

>  <Brand Name>  (1) 
Accel Pioglitazone#Ach-pioglitazone#Act Pioglitazone#Actoplus Met#Actoplus Met XR#Actos#Actos (15mg)#Actos (30mg)#Actos (45mg)#Ag-pioglitazone#Alogliptin and Pioglitazone#Apo-pioglitazone#Auro-pioglitazone#Ava-pioglitazone#Dom-pioglitazone#Duetact#Jamp-pioglitazone#Mint-pioglitazone#Mylan-pioglitazone#Oseni#PHL-pioglitazone#PMS-pioglitazone#Pioglitazole and Metformin Hydrochloride#Pioglitazone#Pioglitazone HCl#Pioglitazone HCl and Metformin HCl#Pioglitazone Hydrochloride#Pioglitazone Hydrochloride and Glimepiride#Pioglitazone Hydrochloride and Metformin Hydrochloride#Pioglitazone and Glimepiride#Pioglitazone and Metformin#Pioglitazone and Metformin Hydrochloride#Pioglitazone and Metformin Hydrocholride#Pioglitazonehydrochloride#Pro-pioglitazone#Ran-pioglitazone#Ratio-pioglitazone#Sandoz Pioglitazone#Teva-pioglitazone#Torrent-pioglitazone#Van-pioglitazone#Zym-pioglitazone#Actost#Glustin

>  <DrugBank ID>  (1) 
DB01132

>  <ATC Codes>  (1) 
A10BD12#A10BD09#A10BG03#A10BD06#A10BD05

>  <Ligand ID>  (1) 
8N6,P1B

>  <Target Name>  (1) 
Peroxisome proliferator-activated receptor gamma

>  <UniProt ID>  (1) 
P37231

>  <PDB ID.1>  (1) 
2XKW

>  <Seq. Identity>  (1) 
95%

$$$$
