PDB_DB01034_03
     RDKit          3D

 82 82  0  0  0  0  0  0  0  0999 V2000
   -5.6978    0.6700    1.6907 O   0  0  0  0  0  0  0  0  0  0  0  0
   -5.2113    0.1050    0.5042 C   0  0  0  0  0  0  0  0  0  0  0  0
   -6.2230    0.4512   -0.5101 N   0  0  0  0  0  0  0  0  0  0  0  0
   -3.9412    0.8270    0.1676 C   0  0  2  0  0  0  0  0  0  0  0  0
   -3.3275    0.5642   -1.0928 O   0  0  0  0  0  0  0  0  0  0  0  0
   -2.6155    0.2926    0.1654 C   0  0  2  0  0  0  0  0  0  0  0  0
   -2.1861   -1.1315    0.1957 C   0  0  1  0  0  0  0  0  0  0  0  0
   -3.1930   -2.0639    0.1063 O   0  0  0  0  0  0  0  0  0  0  0  0
   -1.2313   -1.4172   -0.9511 C   0  0  0  0  0  0  0  0  0  0  0  0
    0.0198   -0.5595   -0.8980 C   0  0  0  0  0  0  0  0  0  0  0  0
    0.8161   -0.7598    0.3484 C   0  0  0  0  0  0  0  0  0  0  0  0
    2.0369    0.1265    0.3547 C   0  0  0  0  0  0  0  0  0  0  0  0
    2.9354   -0.1698   -0.7895 C   0  0  0  0  0  0  0  0  0  0  0  0
    4.1513    0.7161   -0.7902 C   0  0  0  0  0  0  0  0  0  0  0  0
    4.9502    0.4965    0.4623 C   0  0  0  0  0  0  0  0  0  0  0  0
    6.1908    1.3874    0.4311 C   0  0  0  0  0  0  0  0  0  0  0  0
   -3.0137    2.2131    1.0222 O   0  0  0  0  0  0  0  0  0  0  0  0
   -3.7159    1.1376    0.4201 C   0  0  0  0  0  0  0  0  0  0  0  0
   -5.0760    1.6738    0.2416 N   0  0  0  0  0  0  0  0  0  0  0  0
   -3.0967    0.7597   -0.8698 C   0  0  2  0  0  0  0  0  0  0  0  0
   -3.7776   -0.2403   -1.6122 O   0  0  0  0  0  0  0  0  0  0  0  0
   -2.4245   -0.4917   -1.2243 C   0  0  2  0  0  0  0  0  0  0  0  0
   -2.2036   -1.6889   -0.3910 C   0  0  0  0  0  0  0  0  0  0  0  0
   -2.9091   -1.6408    0.7898 O   0  0  0  0  0  0  0  0  0  0  0  0
   -0.7511   -1.8834    0.0047 C   0  0  0  0  0  0  0  0  0  0  0  0
    0.1715   -2.0412   -1.1549 C   0  0  0  0  0  0  0  0  0  0  0  0
    1.5734   -2.2289   -0.6133 C   0  0  0  0  0  0  0  0  0  0  0  0
    2.0557   -1.0823    0.2132 C   0  0  0  0  0  0  0  0  0  0  0  0
    2.0586    0.1764   -0.6306 C   0  0  0  0  0  0  0  0  0  0  0  0
    2.5427    1.3691    0.1684 C   0  0  0  0  0  0  0  0  0  0  0  0
    3.9439    1.1835    0.6883 C   0  0  0  0  0  0  0  0  0  0  0  0
    4.2891    2.4532    1.4643 C   0  0  0  0  0  0  0  0  0  0  0  0
   -4.9423    0.9509    2.2323 H   0  0  0  0  0  0  0  0  0  0  0  0
   -5.1326   -0.9821    0.5647 H   0  0  0  0  0  0  0  0  0  0  0  0
   -6.8734   -0.3399   -0.6740 H   0  0  0  0  0  0  0  0  0  0  0  0
   -6.7243    1.3217   -0.2667 H   0  0  0  0  0  0  0  0  0  0  0  0
   -4.0335    1.9360    0.3552 H   0  0  0  0  0  0  0  0  0  0  0  0
   -1.7656    1.0195    0.2456 H   0  0  0  0  0  0  0  0  0  0  0  0
   -1.6568   -1.3075    1.1787 H   0  0  0  0  0  0  0  0  0  0  0  0
   -3.3164   -2.5738    0.9417 H   0  0  0  0  0  0  0  0  0  0  0  0
   -0.9256   -2.4811   -0.9238 H   0  0  0  0  0  0  0  0  0  0  0  0
   -1.7379   -1.1899   -1.8930 H   0  0  0  0  0  0  0  0  0  0  0  0
   -0.2781    0.4860   -1.0625 H   0  0  0  0  0  0  0  0  0  0  0  0
    0.6159   -0.8560   -1.7904 H   0  0  0  0  0  0  0  0  0  0  0  0
    0.1950   -0.5364    1.2440 H   0  0  0  0  0  0  0  0  0  0  0  0
    1.1983   -1.8058    0.4415 H   0  0  0  0  0  0  0  0  0  0  0  0
    1.7536    1.2072    0.2795 H   0  0  0  0  0  0  0  0  0  0  0  0
    2.5821    0.0100    1.3180 H   0  0  0  0  0  0  0  0  0  0  0  0
    2.4205   -0.1021   -1.7799 H   0  0  0  0  0  0  0  0  0  0  0  0
    3.3036   -1.2339   -0.6899 H   0  0  0  0  0  0  0  0  0  0  0  0
    3.8781    1.7874   -0.9349 H   0  0  0  0  0  0  0  0  0  0  0  0
    4.7776    0.3900   -1.6525 H   0  0  0  0  0  0  0  0  0  0  0  0
    4.4111    0.5999    1.4007 H   0  0  0  0  0  0  0  0  0  0  0  0
    5.3275   -0.5593    0.4194 H   0  0  0  0  0  0  0  0  0  0  0  0
    7.0024    0.8494    0.9616 H   0  0  0  0  0  0  0  0  0  0  0  0
    6.4719    1.5339   -0.6275 H   0  0  0  0  0  0  0  0  0  0  0  0
    5.9749    2.3411    0.9453 H   0  0  0  0  0  0  0  0  0  0  0  0
   -2.4701    1.8592    1.7758 H   0  0  0  0  0  0  0  0  0  0  0  0
   -3.8279    0.3026    1.1011 H   0  0  0  0  0  0  0  0  0  0  0  0
   -5.7020    0.9975   -0.2107 H   0  0  0  0  0  0  0  0  0  0  0  0
   -5.0631    2.6128   -0.1672 H   0  0  0  0  0  0  0  0  0  0  0  0
   -2.9062    1.6502   -1.5529 H   0  0  0  0  0  0  0  0  0  0  0  0
   -1.7546   -0.3882   -2.1584 H   0  0  0  0  0  0  0  0  0  0  0  0
   -2.5717   -2.6058   -0.9259 H   0  0  0  0  0  0  0  0  0  0  0  0
   -2.5547   -2.2968    1.4294 H   0  0  0  0  0  0  0  0  0  0  0  0
   -0.7102   -2.8030    0.6237 H   0  0  0  0  0  0  0  0  0  0  0  0
   -0.4575   -0.9764    0.5686 H   0  0  0  0  0  0  0  0  0  0  0  0
    0.0935   -1.1604   -1.8126 H   0  0  0  0  0  0  0  0  0  0  0  0
   -0.0822   -2.9191   -1.7881 H   0  0  0  0  0  0  0  0  0  0  0  0
    1.5281   -3.1272    0.0664 H   0  0  0  0  0  0  0  0  0  0  0  0
    2.3034   -2.4840   -1.4050 H   0  0  0  0  0  0  0  0  0  0  0  0
    1.4918   -0.9806    1.1489 H   0  0  0  0  0  0  0  0  0  0  0  0
    3.1238   -1.2963    0.4588 H   0  0  0  0  0  0  0  0  0  0  0  0
    2.7554    0.0098   -1.4700 H   0  0  0  0  0  0  0  0  0  0  0  0
    1.0389    0.4438   -0.9883 H   0  0  0  0  0  0  0  0  0  0  0  0
    1.8359    1.6196    0.9724 H   0  0  0  0  0  0  0  0  0  0  0  0
    2.5808    2.2247   -0.5502 H   0  0  0  0  0  0  0  0  0  0  0  0
    4.0345    0.2943    1.3523 H   0  0  0  0  0  0  0  0  0  0  0  0
    4.6248    1.0958   -0.1876 H   0  0  0  0  0  0  0  0  0  0  0  0
    5.2146    2.3009    2.0439 H   0  0  0  0  0  0  0  0  0  0  0  0
    4.3934    3.2566    0.6894 H   0  0  0  0  0  0  0  0  0  0  0  0
    3.4142    2.7013    2.0978 H   0  0  0  0  0  0  0  0  0  0  0  0
  1  2  1  0
  2  3  1  0
  2  4  1  0
  4  5  1  0
  4  6  1  0
  5  6  1  0
  6  7  1  0
  7  8  1  0
  7  9  1  0
  9 10  1  0
 10 11  1  0
 11 12  1  0
 12 13  1  0
 13 14  1  0
 14 15  1  0
 15 16  1  0
 17 18  1  0
 18 19  1  0
 18 20  1  0
 20 21  1  0
 20 22  1  0
 21 22  1  0
 22 23  1  0
 23 24  1  0
 23 25  1  0
 25 26  1  0
 26 27  1  0
 27 28  1  0
 28 29  1  0
 29 30  1  0
 30 31  1  0
 31 32  1  0
  1 33  1  0
  2 34  1  0
  3 35  1  0
  3 36  1  0
  4 37  1  6
  6 38  1  6
  7 39  1  1
  8 40  1  0
  9 41  1  0
  9 42  1  0
 10 43  1  0
 10 44  1  0
 11 45  1  0
 11 46  1  0
 12 47  1  0
 12 48  1  0
 13 49  1  0
 13 50  1  0
 14 51  1  0
 14 52  1  0
 15 53  1  0
 15 54  1  0
 16 55  1  0
 16 56  1  0
 16 57  1  0
 17 58  1  0
 18 59  1  0
 19 60  1  0
 19 61  1  0
 20 62  1  6
 22 63  1  6
 23 64  1  0
 24 65  1  0
 25 66  1  0
 25 67  1  0
 26 68  1  0
 26 69  1  0
 27 70  1  0
 27 71  1  0
 28 72  1  0
 28 73  1  0
 29 74  1  0
 29 75  1  0
 30 76  1  0
 30 77  1  0
 31 78  1  0
 31 79  1  0
 32 80  1  0
 32 81  1  0
 32 82  1  0
M  END
>  <PDBID>  (1) 
4LS7

>  <PDB ID>  (1) 
4LS7

>  <Generic Name>  (1) 
Cerulenin

>  <Brand Name>  (1) 
Helicocerin

>  <DrugBank ID>  (1) 
DB01034

>  <ATC Codes>  (1) 
nan

>  <Ligand ID>  (1) 
1X9

>  <Target Name>  (1) 
3-oxoacyl-[acyl-carrier-protein] synthase 2

>  <UniProt ID>  (1) 
P0AAI5

>  <PDB ID.1>  (1) 
4LS7

>  <Seq. Identity>  (1) 
51%

$$$$
