PDB_DB01597_06
     RDKit          3D

 82 82  0  0  0  0  0  0  0  0999 V2000
    2.8151    0.4075    0.6894 C   0  0  0  0  0  0  0  0  0  0  0  0
    2.0070    0.1180   -0.5515 C   0  0  1  0  0  0  0  0  0  0  0  0
    3.4653    0.1841   -0.6812 C   0  0  0  0  0  0  0  0  0  0  0  0
    4.4542   -0.8951   -0.6882 C   0  0  0  0  0  0  0  0  0  0  0  0
    4.0557    1.4952   -1.2446 C   0  0  0  0  0  0  0  0  0  0  0  0
    1.2137   -1.1539   -0.5598 C   0  0  0  0  0  0  0  0  0  0  0  0
    0.2761   -1.3190    0.4254 N   0  0  0  0  0  0  0  0  0  0  0  0
   -0.8903   -0.6418    0.6841 C   0  0  0  0  0  0  0  0  0  0  0  0
   -1.9398   -0.7669   -0.4261 C   0  0  0  0  0  0  0  0  0  0  0  0
    2.0398   -2.3030   -0.7069 O   0  0  0  0  0  0  0  0  0  0  0  0
   -0.8935    0.7609    1.1587 C   0  0  0  0  0  0  0  0  0  0  0  0
   -0.1386    0.9836    2.3093 O   0  0  0  0  0  0  0  0  0  0  0  0
   -0.6820    1.7260    0.2176 O   0  0  0  0  0  0  0  0  0  0  0  0
   -3.1452    0.0325   -0.0257 C   0  0  0  0  0  0  0  0  0  0  0  0
   -4.2640   -0.1157   -1.0654 C   0  0  0  0  0  0  0  0  0  0  0  0
   -5.4769    0.6933   -0.6696 C   0  0  0  0  0  0  0  0  0  0  0  0
    2.8151    0.4075    0.6894 C   0  0  0  0  0  0  0  0  0  0  0  0
    2.0070    0.1180   -0.5515 C   0  0  1  0  0  0  0  0  0  0  0  0
    3.4653    0.1841   -0.6812 C   0  0  0  0  0  0  0  0  0  0  0  0
    4.4542   -0.8951   -0.6882 C   0  0  0  0  0  0  0  0  0  0  0  0
    4.0557    1.4952   -1.2446 C   0  0  0  0  0  0  0  0  0  0  0  0
    1.2137   -1.1539   -0.5598 C   0  0  0  0  0  0  0  0  0  0  0  0
    0.2761   -1.3190    0.4254 N   0  0  0  0  0  0  0  0  0  0  0  0
   -0.8903   -0.6418    0.6841 C   0  0  0  0  0  0  0  0  0  0  0  0
   -1.9398   -0.7669   -0.4261 C   0  0  0  0  0  0  0  0  0  0  0  0
    2.0398   -2.3030   -0.7069 O   0  0  0  0  0  0  0  0  0  0  0  0
   -0.8935    0.7609    1.1587 C   0  0  0  0  0  0  0  0  0  0  0  0
   -0.1386    0.9836    2.3093 O   0  0  0  0  0  0  0  0  0  0  0  0
   -0.6820    1.7260    0.2176 O   0  0  0  0  0  0  0  0  0  0  0  0
   -3.1452    0.0325   -0.0257 C   0  0  0  0  0  0  0  0  0  0  0  0
   -4.2640   -0.1157   -1.0654 C   0  0  0  0  0  0  0  0  0  0  0  0
   -5.4769    0.6933   -0.6696 C   0  0  0  0  0  0  0  0  0  0  0  0
    2.8124    1.4226    1.1245 H   0  0  0  0  0  0  0  0  0  0  0  0
    2.8729   -0.4223    1.4300 H   0  0  0  0  0  0  0  0  0  0  0  0
    1.4840    0.9927   -0.9790 H   0  0  0  0  0  0  0  0  0  0  0  0
    4.8825   -1.0716   -1.7191 H   0  0  0  0  0  0  0  0  0  0  0  0
    5.3616   -0.5194   -0.1132 H   0  0  0  0  0  0  0  0  0  0  0  0
    4.2212   -1.8559   -0.2638 H   0  0  0  0  0  0  0  0  0  0  0  0
    3.2652    2.1621   -1.6093 H   0  0  0  0  0  0  0  0  0  0  0  0
    4.8051    1.3013   -2.0165 H   0  0  0  0  0  0  0  0  0  0  0  0
    4.5463    1.9821   -0.3616 H   0  0  0  0  0  0  0  0  0  0  0  0
    0.6529   -1.1946   -1.5682 H   0  0  0  0  0  0  0  0  0  0  0  0
    0.4835   -2.1333    1.0532 H   0  0  0  0  0  0  0  0  0  0  0  0
   -1.4127   -1.2232    1.5421 H   0  0  0  0  0  0  0  0  0  0  0  0
   -1.5707   -0.2945   -1.3819 H   0  0  0  0  0  0  0  0  0  0  0  0
   -2.2102   -1.8310   -0.5882 H   0  0  0  0  0  0  0  0  0  0  0  0
    1.5782   -3.0271   -1.1624 H   0  0  0  0  0  0  0  0  0  0  0  0
   -1.9602    1.0128    1.5637 H   0  0  0  0  0  0  0  0  0  0  0  0
   -0.3041    0.2754    2.9790 H   0  0  0  0  0  0  0  0  0  0  0  0
   -0.2057    2.5336    0.5584 H   0  0  0  0  0  0  0  0  0  0  0  0
   -2.9214    1.1478   -0.0899 H   0  0  0  0  0  0  0  0  0  0  0  0
   -3.4676   -0.1851    0.9864 H   0  0  0  0  0  0  0  0  0  0  0  0
   -3.9096    0.0956   -2.0710 H   0  0  0  0  0  0  0  0  0  0  0  0
   -4.5555   -1.2037   -1.0216 H   0  0  0  0  0  0  0  0  0  0  0  0
   -6.4094    0.2628   -1.0762 H   0  0  0  0  0  0  0  0  0  0  0  0
   -5.3730    1.7349   -1.0926 H   0  0  0  0  0  0  0  0  0  0  0  0
   -5.5623    0.8321    0.4261 H   0  0  0  0  0  0  0  0  0  0  0  0
    2.8124    1.4226    1.1245 H   0  0  0  0  0  0  0  0  0  0  0  0
    2.8729   -0.4223    1.4300 H   0  0  0  0  0  0  0  0  0  0  0  0
    1.4840    0.9927   -0.9790 H   0  0  0  0  0  0  0  0  0  0  0  0
    4.8825   -1.0716   -1.7191 H   0  0  0  0  0  0  0  0  0  0  0  0
    5.3616   -0.5194   -0.1132 H   0  0  0  0  0  0  0  0  0  0  0  0
    4.2212   -1.8559   -0.2638 H   0  0  0  0  0  0  0  0  0  0  0  0
    3.2652    2.1621   -1.6093 H   0  0  0  0  0  0  0  0  0  0  0  0
    4.8051    1.3013   -2.0165 H   0  0  0  0  0  0  0  0  0  0  0  0
    4.5463    1.9821   -0.3616 H   0  0  0  0  0  0  0  0  0  0  0  0
    0.6529   -1.1946   -1.5682 H   0  0  0  0  0  0  0  0  0  0  0  0
    0.4835   -2.1333    1.0532 H   0  0  0  0  0  0  0  0  0  0  0  0
   -1.4127   -1.2232    1.5421 H   0  0  0  0  0  0  0  0  0  0  0  0
   -1.5707   -0.2945   -1.3819 H   0  0  0  0  0  0  0  0  0  0  0  0
   -2.2102   -1.8310   -0.5882 H   0  0  0  0  0  0  0  0  0  0  0  0
    1.5782   -3.0271   -1.1624 H   0  0  0  0  0  0  0  0  0  0  0  0
   -1.9602    1.0128    1.5637 H   0  0  0  0  0  0  0  0  0  0  0  0
   -0.3041    0.2754    2.9790 H   0  0  0  0  0  0  0  0  0  0  0  0
   -0.2057    2.5336    0.5584 H   0  0  0  0  0  0  0  0  0  0  0  0
   -2.9214    1.1478   -0.0899 H   0  0  0  0  0  0  0  0  0  0  0  0
   -3.4676   -0.1851    0.9864 H   0  0  0  0  0  0  0  0  0  0  0  0
   -3.9096    0.0956   -2.0710 H   0  0  0  0  0  0  0  0  0  0  0  0
   -4.5555   -1.2037   -1.0216 H   0  0  0  0  0  0  0  0  0  0  0  0
   -6.4094    0.2628   -1.0762 H   0  0  0  0  0  0  0  0  0  0  0  0
   -5.3730    1.7349   -1.0926 H   0  0  0  0  0  0  0  0  0  0  0  0
   -5.5623    0.8321    0.4261 H   0  0  0  0  0  0  0  0  0  0  0  0
  1  2  1  0
  1  3  1  0
  2  3  1  0
  3  4  1  0
  3  5  1  0
  2  6  1  0
  6  7  1  0
  7  8  1  0
  8  9  1  0
  6 10  1  0
  8 11  1  0
 11 12  1  0
 11 13  1  0
  9 14  1  0
 14 15  1  0
 15 16  1  0
 17 18  1  0
 17 19  1  0
 18 19  1  0
 19 20  1  0
 19 21  1  0
 18 22  1  0
 22 23  1  0
 23 24  1  0
 24 25  1  0
 22 26  1  0
 24 27  1  0
 27 28  1  0
 27 29  1  0
 25 30  1  0
 30 31  1  0
 31 32  1  0
  1 33  1  0
  1 34  1  0
  2 35  1  6
  4 36  1  0
  4 37  1  0
  4 38  1  0
  5 39  1  0
  5 40  1  0
  5 41  1  0
  6 42  1  0
  7 43  1  0
  8 44  1  0
  9 45  1  0
  9 46  1  0
 10 47  1  0
 11 48  1  0
 12 49  1  0
 13 50  1  0
 14 51  1  0
 14 52  1  0
 15 53  1  0
 15 54  1  0
 16 55  1  0
 16 56  1  0
 16 57  1  0
 17 58  1  0
 17 59  1  0
 18 60  1  6
 20 61  1  0
 20 62  1  0
 20 63  1  0
 21 64  1  0
 21 65  1  0
 21 66  1  0
 22 67  1  0
 23 68  1  0
 24 69  1  0
 25 70  1  0
 25 71  1  0
 26 72  1  0
 27 73  1  0
 28 74  1  0
 29 75  1  0
 30 76  1  0
 30 77  1  0
 31 78  1  0
 31 79  1  0
 32 80  1  0
 32 81  1  0
 32 82  1  0
M  END
>  <PDBID>  (1) 
1ITU

>  <PDB ID>  (1) 
1ITU

>  <Generic Name>  (1) 
Cilastatin

>  <Brand Name>  (1) 
Imipenem and Cilastatin#Imipenem and Cilastatin for Injection#Imipenem and Cilastatin for Injection USP#Imipenem and Cilastatin for Injection, USP#Primaxin 250#Primaxin 500#Primaxin IV#Primaxin IV 250/250 Add-vantage Vial#Primaxin IV 500#Ran-imipenem-cilastatin

>  <DrugBank ID>  (1) 
DB01597

>  <ATC Codes>  (1) 
nan

>  <Ligand ID>  (1) 
CIL

>  <Target Name>  (1) 
Dipeptidase 1

>  <UniProt ID>  (1) 
P16444

>  <PDB ID.1>  (1) 
1ITU

>  <Seq. Identity>  (1) 
100%

$$$$
