PDB_DB06626_05
     RDKit          3D

 70 73  0  0  0  0  0  0  0  0999 V2000
   -5.7199   -2.2154    0.2219 O   0  0  0  0  0  0  0  0  0  0  0  0
   -4.7968   -1.3988    0.9509 C   0  0  0  0  0  0  0  0  0  0  0  0
   -5.3186   -1.3491    2.2600 N   0  0  0  0  0  0  0  0  0  0  0  0
   -4.6388   -0.6574    3.2804 C   0  0  0  0  0  0  0  0  0  0  0  0
   -4.6876   -0.1039    0.2041 C   0  0  0  0  0  0  0  0  0  0  0  0
   -6.0723    0.5396    0.1885 C   0  0  0  0  0  0  0  0  0  0  0  0
   -6.1179    1.7698   -0.6891 C   0  0  0  0  0  0  0  0  0  0  0  0
   -4.8661    2.5690   -0.5223 C   0  0  0  0  0  0  0  0  0  0  0  0
   -3.6118    0.8238    0.6152 C   0  0  0  0  0  0  0  0  0  0  0  0
   -4.2455    2.2033    0.8220 C   0  0  0  0  0  0  0  0  0  0  0  0
   -2.3968    1.0745   -0.7404 S   0  0  0  0  0  0  0  0  0  0  0  0
   -1.5114   -0.4806   -1.0586 C   0  0  0  0  0  0  0  0  0  0  0  0
   -0.6819   -0.7781    0.1672 C   0  0  0  0  0  0  0  0  0  0  0  0
    0.7999   -0.6767   -0.1431 C   0  0  0  0  0  0  0  0  0  0  0  0
   -0.6538   -0.2800   -2.2839 C   0  0  0  0  0  0  0  0  0  0  0  0
    0.3907   -1.3584   -2.4624 C   0  0  0  0  0  0  0  0  0  0  0  0
    1.3263   -1.0730   -3.4875 N   0  0  0  0  0  0  0  0  0  0  0  0
    2.5075   -0.6532   -2.8518 N   0  0  0  0  0  0  0  0  0  0  0  0
    2.6020   -1.4115   -1.6571 C   0  0  0  0  0  0  0  0  0  0  0  0
    1.1883   -1.6545   -1.2408 C   0  0  0  0  0  0  0  0  0  0  0  0
    3.4352   -0.7450   -0.5811 C   0  0  0  0  0  0  0  0  0  0  0  0
    4.8130   -0.5576   -1.1267 C   0  0  0  0  0  0  0  0  0  0  0  0
    5.7752    0.1000   -0.1896 C   0  0  0  0  0  0  0  0  0  0  0  0
    5.2814    1.4029    0.1528 N   0  0  0  0  0  0  0  0  0  0  0  0
    6.0700    2.1063    1.1178 C   0  0  0  0  0  0  0  0  0  0  0  0
    6.9637    1.2392    1.9352 C   0  0  0  0  0  0  0  0  0  0  0  0
    6.1697   -0.0264    2.2802 C   0  0  0  0  0  0  0  0  0  0  0  0
    6.0316   -0.7861    0.9753 C   0  0  0  0  0  0  0  0  0  0  0  0
   -6.6379   -2.0565    0.5505 H   0  0  0  0  0  0  0  0  0  0  0  0
   -3.8444   -1.9703    0.9411 H   0  0  0  0  0  0  0  0  0  0  0  0
   -6.3418   -1.2981    2.3653 H   0  0  0  0  0  0  0  0  0  0  0  0
   -4.7401    0.4341    3.1398 H   0  0  0  0  0  0  0  0  0  0  0  0
   -5.1102   -0.8666    4.2966 H   0  0  0  0  0  0  0  0  0  0  0  0
   -3.5527   -0.8946    3.3304 H   0  0  0  0  0  0  0  0  0  0  0  0
   -4.5539   -0.4072   -0.8992 H   0  0  0  0  0  0  0  0  0  0  0  0
   -6.4564    0.7288    1.2080 H   0  0  0  0  0  0  0  0  0  0  0  0
   -6.7676   -0.1985   -0.2798 H   0  0  0  0  0  0  0  0  0  0  0  0
   -6.9911    2.3865   -0.3720 H   0  0  0  0  0  0  0  0  0  0  0  0
   -6.2081    1.4521   -1.7472 H   0  0  0  0  0  0  0  0  0  0  0  0
   -4.1136    2.3122   -1.2923 H   0  0  0  0  0  0  0  0  0  0  0  0
   -5.0433    3.6642   -0.5843 H   0  0  0  0  0  0  0  0  0  0  0  0
   -3.0668    0.4695    1.5014 H   0  0  0  0  0  0  0  0  0  0  0  0
   -3.4073    2.8886    1.0603 H   0  0  0  0  0  0  0  0  0  0  0  0
   -4.9874    2.2211    1.6255 H   0  0  0  0  0  0  0  0  0  0  0  0
   -2.2553   -1.2771   -1.2231 H   0  0  0  0  0  0  0  0  0  0  0  0
   -0.8746   -1.8321    0.4475 H   0  0  0  0  0  0  0  0  0  0  0  0
   -0.9755   -0.1472    1.0161 H   0  0  0  0  0  0  0  0  0  0  0  0
    1.4271   -0.8601    0.7452 H   0  0  0  0  0  0  0  0  0  0  0  0
    0.9914    0.3413   -0.4978 H   0  0  0  0  0  0  0  0  0  0  0  0
   -0.1457    0.7039   -2.2604 H   0  0  0  0  0  0  0  0  0  0  0  0
   -1.3275   -0.3483   -3.1665 H   0  0  0  0  0  0  0  0  0  0  0  0
   -0.1235   -2.3345   -2.7407 H   0  0  0  0  0  0  0  0  0  0  0  0
    1.0045   -0.3023   -4.1048 H   0  0  0  0  0  0  0  0  0  0  0  0
    2.6091    0.3626   -2.7780 H   0  0  0  0  0  0  0  0  0  0  0  0
    3.1142   -2.3868   -1.8541 H   0  0  0  0  0  0  0  0  0  0  0  0
    1.0426   -2.7102   -0.8804 H   0  0  0  0  0  0  0  0  0  0  0  0
    3.4610   -1.4702    0.2692 H   0  0  0  0  0  0  0  0  0  0  0  0
    2.9875    0.1734   -0.1751 H   0  0  0  0  0  0  0  0  0  0  0  0
    5.2072   -1.5857   -1.3738 H   0  0  0  0  0  0  0  0  0  0  0  0
    4.7294   -0.0365   -2.1003 H   0  0  0  0  0  0  0  0  0  0  0  0
    6.7292    0.2478   -0.7646 H   0  0  0  0  0  0  0  0  0  0  0  0
    4.9629    1.9636   -0.6390 H   0  0  0  0  0  0  0  0  0  0  0  0
    5.3734    2.6307    1.8138 H   0  0  0  0  0  0  0  0  0  0  0  0
    6.6638    2.8941    0.5862 H   0  0  0  0  0  0  0  0  0  0  0  0
    7.1983    1.7390    2.9028 H   0  0  0  0  0  0  0  0  0  0  0  0
    7.8772    0.9887    1.3530 H   0  0  0  0  0  0  0  0  0  0  0  0
    6.6636   -0.6382    3.0333 H   0  0  0  0  0  0  0  0  0  0  0  0
    5.1484    0.3076    2.5727 H   0  0  0  0  0  0  0  0  0  0  0  0
    5.2892   -1.5804    1.1499 H   0  0  0  0  0  0  0  0  0  0  0  0
    7.0097   -1.3314    0.8213 H   0  0  0  0  0  0  0  0  0  0  0  0
  1  2  1  0
  2  3  1  0
  3  4  1  0
  2  5  1  0
  5  6  1  0
  6  7  1  0
  7  8  1  0
  5  9  1  0
  8 10  1  0
  9 10  1  0
  9 11  1  0
 11 12  1  0
 12 13  1  0
 13 14  1  0
 12 15  1  0
 15 16  1  0
 16 17  1  0
 17 18  1  0
 18 19  1  0
 14 20  1  0
 16 20  1  0
 19 20  1  0
 19 21  1  0
 21 22  1  0
 22 23  1  0
 23 24  1  0
 24 25  1  0
 25 26  1  0
 26 27  1  0
 23 28  1  0
 27 28  1  0
  1 29  1  0
  2 30  1  0
  3 31  1  0
  4 32  1  0
  4 33  1  0
  4 34  1  0
  5 35  1  0
  6 36  1  0
  6 37  1  0
  7 38  1  0
  7 39  1  0
  8 40  1  0
  8 41  1  0
  9 42  1  0
 10 43  1  0
 10 44  1  0
 12 45  1  0
 13 46  1  0
 13 47  1  0
 14 48  1  0
 14 49  1  0
 15 50  1  0
 15 51  1  0
 16 52  1  0
 17 53  1  0
 18 54  1  0
 19 55  1  0
 20 56  1  0
 21 57  1  0
 21 58  1  0
 22 59  1  0
 22 60  1  0
 23 61  1  0
 24 62  1  0
 25 63  1  0
 25 64  1  0
 26 65  1  0
 26 66  1  0
 27 67  1  0
 27 68  1  0
 28 69  1  0
 28 70  1  0
M  END
>  <PDBID>  (1) 
4AG8

>  <PDB ID>  (1) 
4AG8

>  <Generic Name>  (1) 
Axitinib

>  <Brand Name>  (1) 
Inlyta

>  <DrugBank ID>  (1) 
DB06626

>  <ATC Codes>  (1) 
L01XE17

>  <Ligand ID>  (1) 
AXI

>  <Target Name>  (1) 
Vascular endothelial growth factor receptor 3

>  <UniProt ID>  (1) 
P35916

>  <PDB ID.1>  (1) 
4AG8

>  <Seq. Identity>  (1) 
67%

$$$$
