PDB_DB00701_04
     RDKit          3D

 86 88  0  0  0  0  0  0  0  0999 V2000
   -3.1039   -2.2604    2.6030 C   0  0  0  0  0  0  0  0  0  0  0  0
   -4.3244   -3.1925    0.8493 C   0  0  0  0  0  0  0  0  0  0  0  0
   -3.6758    0.1053    0.1987 C   0  0  2  0  0  0  0  0  0  0  0  0
   -3.9406   -1.8343    1.4215 C   0  0  2  0  0  0  0  0  0  0  0  0
   -1.6376    1.4012   -0.2058 C   0  0  2  0  0  0  0  0  0  0  0  0
   -0.7055    0.2846    0.1142 C   0  0  1  0  0  0  0  0  0  0  0  0
   -1.0849    2.7629    0.1435 C   0  0  0  0  0  0  0  0  0  0  0  0
   -2.0220    3.8950   -0.1913 C   0  0  0  0  0  0  0  0  0  0  0  0
   -3.3466    3.8418    0.5052 C   0  0  0  0  0  0  0  0  0  0  0  0
   -2.2788    4.0193   -1.6749 C   0  0  0  0  0  0  0  0  0  0  0  0
   -3.9556    5.2474    0.3383 C   0  0  0  0  0  0  0  0  0  0  0  0
   -3.6927    4.3998   -2.0039 C   0  0  0  0  0  0  0  0  0  0  0  0
   -4.2546    5.4599   -1.1156 C   0  0  0  0  0  0  0  0  0  0  0  0
    0.6252    0.4260   -0.6248 C   0  0  0  0  0  0  0  0  0  0  0  0
    1.0899   -1.9462   -0.9540 C   0  0  0  0  0  0  0  0  0  0  0  0
    1.0796   -2.1438   -2.4194 C   0  0  0  0  0  0  0  0  0  0  0  0
    3.5916   -1.7972    1.0295 C   0  0  0  0  0  0  0  0  0  0  0  0
    4.3892   -2.3070   -0.1313 C   0  0  0  0  0  0  0  0  0  0  0  0
    5.8609   -2.4740    0.1933 C   0  0  0  0  0  0  0  0  0  0  0  0
    6.4867   -1.1534    0.5927 C   0  0  0  0  0  0  0  0  0  0  0  0
    5.7055   -0.6309    1.7705 C   0  0  0  0  0  0  0  0  0  0  0  0
    4.5746   -1.5213    2.1689 C   0  0  0  0  0  0  0  0  0  0  0  0
    0.1675   -1.2628   -3.2168 C   0  0  0  0  0  0  0  0  0  0  0  0
    2.4596   -2.1371   -3.0461 C   0  0  0  0  0  0  0  0  0  0  0  0
   -4.4626   -3.9908    2.1490 C   0  0  0  0  0  0  0  0  0  0  0  0
   -2.8712    1.2246    0.4964 N   0  0  0  0  0  0  0  0  0  0  0  0
    1.4730   -0.7029   -0.4202 N   0  0  0  0  0  0  0  0  0  0  0  0
    7.8752   -1.4163    0.9180 N   0  0  0  0  0  0  0  0  0  0  0  0
   -3.1448   -1.0986    0.5563 O   0  0  0  0  0  0  0  0  0  0  0  0
   -3.9322    0.0065   -1.1951 O   0  0  0  0  0  0  0  0  0  0  0  0
   -0.4216    0.1608    1.4553 O   0  0  0  0  0  0  0  0  0  0  0  0
    2.1475    0.2774    1.9478 O   0  0  0  0  0  0  0  0  0  0  0  0
    3.7816    0.6310   -0.0611 O   0  0  0  0  0  0  0  0  0  0  0  0
   -3.5571   -3.4844    3.0333 O   0  0  0  0  0  0  0  0  0  0  0  0
    2.5986   -0.5249    0.6298 S   0  0  0  0  0  0  0  0  0  0  0  0
   -2.0646   -2.4194    2.2084 H   0  0  0  0  0  0  0  0  0  0  0  0
   -3.0298   -1.5003    3.3908 H   0  0  0  0  0  0  0  0  0  0  0  0
   -5.2882   -3.0943    0.3206 H   0  0  0  0  0  0  0  0  0  0  0  0
   -3.5240   -3.6691    0.2733 H   0  0  0  0  0  0  0  0  0  0  0  0
   -4.6791    0.2972    0.6705 H   0  0  0  0  0  0  0  0  0  0  0  0
   -4.8789   -1.3332    1.7009 H   0  0  0  0  0  0  0  0  0  0  0  0
   -1.8018    1.3380   -1.3283 H   0  0  0  0  0  0  0  0  0  0  0  0
   -1.1330   -0.6529   -0.2590 H   0  0  0  0  0  0  0  0  0  0  0  0
   -0.8622    2.8352    1.2278 H   0  0  0  0  0  0  0  0  0  0  0  0
   -0.1289    2.9744   -0.3780 H   0  0  0  0  0  0  0  0  0  0  0  0
   -1.5117    4.8506    0.1439 H   0  0  0  0  0  0  0  0  0  0  0  0
   -3.2729    3.6312    1.5967 H   0  0  0  0  0  0  0  0  0  0  0  0
   -4.0705    3.1808   -0.0152 H   0  0  0  0  0  0  0  0  0  0  0  0
   -1.6244    4.8348   -2.0833 H   0  0  0  0  0  0  0  0  0  0  0  0
   -2.0288    3.1257   -2.2543 H   0  0  0  0  0  0  0  0  0  0  0  0
   -4.9004    5.2059    0.9460 H   0  0  0  0  0  0  0  0  0  0  0  0
   -3.3210    6.0089    0.7877 H   0  0  0  0  0  0  0  0  0  0  0  0
   -4.3866    3.5554   -2.0695 H   0  0  0  0  0  0  0  0  0  0  0  0
   -3.6628    4.8350   -3.0462 H   0  0  0  0  0  0  0  0  0  0  0  0
   -5.3767    5.4460   -1.2441 H   0  0  0  0  0  0  0  0  0  0  0  0
   -3.9003    6.4868   -1.3750 H   0  0  0  0  0  0  0  0  0  0  0  0
    1.2013    1.3029   -0.1664 H   0  0  0  0  0  0  0  0  0  0  0  0
    0.4978    0.7481   -1.6714 H   0  0  0  0  0  0  0  0  0  0  0  0
    1.7085   -2.8050   -0.5283 H   0  0  0  0  0  0  0  0  0  0  0  0
    0.0478   -2.2434   -0.5987 H   0  0  0  0  0  0  0  0  0  0  0  0
    0.7006   -3.1995   -2.6033 H   0  0  0  0  0  0  0  0  0  0  0  0
    2.9795   -2.6621    1.4232 H   0  0  0  0  0  0  0  0  0  0  0  0
    4.0564   -3.2540   -0.5528 H   0  0  0  0  0  0  0  0  0  0  0  0
    4.3675   -1.5454   -0.9662 H   0  0  0  0  0  0  0  0  0  0  0  0
    6.0576   -3.2135    0.9766 H   0  0  0  0  0  0  0  0  0  0  0  0
    6.3510   -2.7973   -0.7528 H   0  0  0  0  0  0  0  0  0  0  0  0
    6.4913   -0.4320   -0.2678 H   0  0  0  0  0  0  0  0  0  0  0  0
    5.4310    0.4090    1.5753 H   0  0  0  0  0  0  0  0  0  0  0  0
    6.4049   -0.6028    2.6410 H   0  0  0  0  0  0  0  0  0  0  0  0
    4.0551   -1.0429    3.0274 H   0  0  0  0  0  0  0  0  0  0  0  0
    4.9638   -2.4793    2.5308 H   0  0  0  0  0  0  0  0  0  0  0  0
   -0.2195   -1.8301   -4.1301 H   0  0  0  0  0  0  0  0  0  0  0  0
   -0.7383   -0.9608   -2.6929 H   0  0  0  0  0  0  0  0  0  0  0  0
    0.7427   -0.4289   -3.6845 H   0  0  0  0  0  0  0  0  0  0  0  0
    2.3033   -2.2837   -4.1400 H   0  0  0  0  0  0  0  0  0  0  0  0
    2.9937   -3.0459   -2.6913 H   0  0  0  0  0  0  0  0  0  0  0  0
    3.0047   -1.2053   -2.9089 H   0  0  0  0  0  0  0  0  0  0  0  0
   -5.5184   -3.9171    2.5231 H   0  0  0  0  0  0  0  0  0  0  0  0
   -4.2260   -5.0583    1.9555 H   0  0  0  0  0  0  0  0  0  0  0  0
   -2.7246    1.3250    1.5438 H   0  0  0  0  0  0  0  0  0  0  0  0
    8.0181   -1.8896    1.8146 H   0  0  0  0  0  0  0  0  0  0  0  0
    8.3879   -0.5251    0.7851 H   0  0  0  0  0  0  0  0  0  0  0  0
   -4.4237   -0.7963   -1.4241 H   0  0  0  0  0  0  0  0  0  0  0  0
   -0.3880   -0.7649    1.7766 H   0  0  0  0  0  0  0  0  0  0  0  0
    2.1662   -0.1773    2.8153 H   0  0  0  0  0  0  0  0  0  0  0  0
    3.2603    1.1743   -0.6773 H   0  0  0  0  0  0  0  0  0  0  0  0
  1  4  1  0
  2  4  1  0
  5  6  1  0
  5  7  1  0
  7  8  1  0
  8  9  1  0
  8 10  1  0
  9 11  1  0
 10 12  1  0
 11 13  1  0
 12 13  1  0
  6 14  1  0
 15 16  1  0
 17 18  1  0
 18 19  1  0
 19 20  1  0
 20 21  1  0
 17 22  1  0
 21 22  1  0
 16 23  1  0
 16 24  1  0
  2 25  1  0
  3 26  1  0
  5 26  1  0
 14 27  1  0
 15 27  1  0
 20 28  1  0
  3 29  1  0
  4 29  1  0
  3 30  1  0
  6 31  1  0
  1 34  1  0
 25 34  1  0
 17 35  1  0
 27 35  1  0
 35 32  1  0
 33 35  1  0
  1 36  1  0
  1 37  1  0
  2 38  1  0
  2 39  1  0
  3 40  1  1
  4 41  1  1
  5 42  1  6
  6 43  1  6
  7 44  1  0
  7 45  1  0
  8 46  1  0
  9 47  1  0
  9 48  1  0
 10 49  1  0
 10 50  1  0
 11 51  1  0
 11 52  1  0
 12 53  1  0
 12 54  1  0
 13 55  1  0
 13 56  1  0
 14 57  1  0
 14 58  1  0
 15 59  1  0
 15 60  1  0
 16 61  1  0
 17 62  1  0
 18 63  1  0
 18 64  1  0
 19 65  1  0
 19 66  1  0
 20 67  1  0
 21 68  1  0
 21 69  1  0
 22 70  1  0
 22 71  1  0
 23 72  1  0
 23 73  1  0
 23 74  1  0
 24 75  1  0
 24 76  1  0
 24 77  1  0
 25 78  1  0
 25 79  1  0
 26 80  1  0
 28 81  1  0
 28 82  1  0
 30 83  1  0
 31 84  1  0
 32 85  1  0
 33 86  1  0
M  END
>  <PDBID>  (1) 
1HPV

>  <PDB ID>  (1) 
1HPV

>  <Generic Name>  (1) 
Amprenavir

>  <Brand Name>  (1) 
Agenerase#Agemerase#Prozei

>  <DrugBank ID>  (1) 
DB00701

>  <ATC Codes>  (1) 
J05AE05

>  <Ligand ID>  (1) 
478

>  <Target Name>  (1) 
Pol polyprotein

>  <UniProt ID>  (1) 
Q72874

>  <PDB ID.1>  (1) 
1HPV

>  <Seq. Identity>  (1) 
99%

$$$$
