PDB_DB00715_08
     RDKit          3D

 56 59  0  0  0  0  0  0  0  0999 V2000
    6.3805   -0.2680    2.0284 F   0  0  0  0  0  0  0  0  0  0  0  0
    5.1773   -1.5926    0.4853 C   0  0  0  0  0  0  0  0  0  0  0  0
    5.0469    0.8446    0.3930 C   0  0  0  0  0  0  0  0  0  0  0  0
   -3.0860   -0.8232    1.6928 C   0  0  0  0  0  0  0  0  0  0  0  0
    4.0730   -1.3784   -0.5443 C   0  0  0  0  0  0  0  0  0  0  0  0
    3.6158    0.5589    0.8459 C   0  0  0  0  0  0  0  0  0  0  0  0
   -4.5252   -0.8837    2.0567 C   0  0  0  0  0  0  0  0  0  0  0  0
   -3.7730    0.4892   -0.3755 C   0  0  0  0  0  0  0  0  0  0  0  0
    1.3019    1.1418   -2.8423 C   0  0  0  0  0  0  0  0  0  0  0  0
    2.4346    0.6891   -1.9779 C   0  0  0  0  0  0  0  0  0  0  0  0
    0.5377    1.9190   -0.7036 C   0  0  0  0  0  0  0  0  0  0  0  0
   -7.1521   -0.4614   -0.2546 C   0  0  0  0  0  0  0  0  0  0  0  0
   -0.5154   -0.2213   -0.2460 C   0  0  0  0  0  0  0  0  0  0  0  0
    0.2187    1.7350   -2.1161 N   0  0  0  0  0  0  0  0  0  0  0  0
   -1.5361    0.4096    0.4585 O   0  0  0  0  0  0  0  0  0  0  0  0
   -6.6705   -1.0001    0.9370 O   0  0  0  0  0  0  0  0  0  0  0  0
   -6.1632    0.3783   -0.7700 O   0  0  0  0  0  0  0  0  0  0  0  0
    5.9497   -0.3202    0.7131 C   0  0  0  0  0  0  0  0  0  0  0  0
   -2.7362   -0.2906    0.3551 C   0  0  0  0  0  0  0  0  0  0  0  0
    2.9883   -0.5740    0.1161 C   0  0  0  0  0  0  0  0  0  0  0  0
   -5.3161   -0.9704    0.7768 C   0  0  0  0  0  0  0  0  0  0  0  0
   -5.1513    0.4296    0.1536 C   0  0  0  0  0  0  0  0  0  0  0  0
    0.7877    0.5510   -0.1301 C   0  0  1  0  0  0  0  0  0  0  0  0
    1.9089   -0.1605   -0.8495 C   0  0  1  0  0  0  0  0  0  0  0  0
    4.7558   -1.9088    1.4631 H   0  0  0  0  0  0  0  0  0  0  0  0
    5.8897   -2.3713    0.1618 H   0  0  0  0  0  0  0  0  0  0  0  0
    5.1191    1.0821   -0.6667 H   0  0  0  0  0  0  0  0  0  0  0  0
    5.3546    1.7628    0.9591 H   0  0  0  0  0  0  0  0  0  0  0  0
   -2.6541   -1.8571    1.8469 H   0  0  0  0  0  0  0  0  0  0  0  0
   -2.5656   -0.2165    2.4917 H   0  0  0  0  0  0  0  0  0  0  0  0
    4.5093   -0.8925   -1.4228 H   0  0  0  0  0  0  0  0  0  0  0  0
    3.6781   -2.3884   -0.7930 H   0  0  0  0  0  0  0  0  0  0  0  0
    3.0354    1.5026    0.8010 H   0  0  0  0  0  0  0  0  0  0  0  0
    3.6999    0.3123    1.9315 H   0  0  0  0  0  0  0  0  0  0  0  0
   -4.7142   -1.7160    2.7345 H   0  0  0  0  0  0  0  0  0  0  0  0
   -4.7921    0.0814    2.5803 H   0  0  0  0  0  0  0  0  0  0  0  0
   -3.4447    1.5696   -0.3572 H   0  0  0  0  0  0  0  0  0  0  0  0
   -3.8018    0.2353   -1.4636 H   0  0  0  0  0  0  0  0  0  0  0  0
    1.6850    1.9219   -3.5510 H   0  0  0  0  0  0  0  0  0  0  0  0
    0.9592    0.2897   -3.4767 H   0  0  0  0  0  0  0  0  0  0  0  0
    2.9826    1.5787   -1.6382 H   0  0  0  0  0  0  0  0  0  0  0  0
    3.0845    0.0268   -2.6007 H   0  0  0  0  0  0  0  0  0  0  0  0
   -0.3576    2.3281   -0.2080 H   0  0  0  0  0  0  0  0  0  0  0  0
    1.3939    2.5923   -0.6574 H   0  0  0  0  0  0  0  0  0  0  0  0
   -8.0962    0.1010   -0.0392 H   0  0  0  0  0  0  0  0  0  0  0  0
   -7.3367   -1.3210   -0.9328 H   0  0  0  0  0  0  0  0  0  0  0  0
   -0.7765   -0.3868   -1.3117 H   0  0  0  0  0  0  0  0  0  0  0  0
   -0.3825   -1.2516    0.1880 H   0  0  0  0  0  0  0  0  0  0  0  0
   -0.1298    2.6211   -2.4932 H   0  0  0  0  0  0  0  0  0  0  0  0
    6.8544   -0.3352    0.0867 H   0  0  0  0  0  0  0  0  0  0  0  0
   -2.5039   -1.1868   -0.2941 H   0  0  0  0  0  0  0  0  0  0  0  0
    2.4958   -1.2550    0.8587 H   0  0  0  0  0  0  0  0  0  0  0  0
   -4.9037   -1.7524    0.1306 H   0  0  0  0  0  0  0  0  0  0  0  0
   -5.3556    1.1401    0.9826 H   0  0  0  0  0  0  0  0  0  0  0  0
    1.0338    0.5763    0.9463 H   0  0  0  0  0  0  0  0  0  0  0  0
    1.4877   -1.0846   -1.2962 H   0  0  0  0  0  0  0  0  0  0  0  0
  2  5  1  0
  3  6  1  0
  4  7  1  0
  9 10  1  0
  9 14  1  0
 11 14  1  0
 13 15  1  0
 12 16  1  0
 12 17  1  0
  1 18  1  0
  2 18  1  0
  3 18  1  0
  4 19  1  0
  8 19  1  0
 15 19  1  0
  5 20  1  0
  6 20  1  0
  7 21  1  0
 16 21  1  0
  8 22  1  0
 17 22  1  0
 21 22  1  0
 11 23  1  0
 13 23  1  0
 10 24  1  0
 20 24  1  0
 23 24  1  0
  2 25  1  0
  2 26  1  0
  3 27  1  0
  3 28  1  0
  4 29  1  0
  4 30  1  0
  5 31  1  0
  5 32  1  0
  6 33  1  0
  6 34  1  0
  7 35  1  0
  7 36  1  0
  8 37  1  0
  8 38  1  0
  9 39  1  0
  9 40  1  0
 10 41  1  0
 10 42  1  0
 11 43  1  0
 11 44  1  0
 12 45  1  0
 12 46  1  0
 13 47  1  0
 13 48  1  0
 14 49  1  0
 18 50  1  0
 19 51  1  0
 20 52  1  0
 21 53  1  0
 22 54  1  0
 23 55  1  1
 24 56  1  6
M  END
>  <PDBID>  (1) 
5I6X

>  <PDB ID>  (1) 
5I6X

>  <Generic Name>  (1) 
Paroxetine

>  <Brand Name>  (1) 
Act Paroxetine#Apo-paroxetine#Auro-paroxetine#Bio-paroxetine#Brisdelle#Dom-paroxetine#Ipg-paroxetine#Jamp-paroxetine#Mar-paroxetine#Mint-paroxetine#Mylan-paroxetine#Ntp-paroxetine#Nu-paroxetine#PMS-paroxetine#Paroxetine#Paroxetine Hydrochloride#Paroxetine Hydrochloride Anhydrous#Paroxetine-10#Paroxetine-20#Paroxetine-30#Paxil#Paxil CR#Paxil Tab 10mg#Paxil Tab 20mg#Paxil Tab 30mg#Paxilcr CR#Pexeva#Priva-paroxetine#Q-paroxetine#Ratio-paroxetine#Riva-paroxetine#Sandoz Paroxetine#Sandoz Paroxetine Tablets#Teva-paroxetine#Aropax#PAXILCR#Sereupin#Seroxat#Seroxat CR

>  <DrugBank ID>  (1) 
DB00715

>  <ATC Codes>  (1) 
N06AB05

>  <Ligand ID>  (1) 
8PR

>  <Target Name>  (1) 
Sodium-dependent serotonin transporter

>  <UniProt ID>  (1) 
P31645

>  <PDB ID.1>  (1) 
5I6X

>  <Seq. Identity>  (1) 
99%

$$$$
