PDB_DB00820_03
     RDKit          3D

132142  0  0  0  0  0  0  0  0999 V2000
   -1.8455    4.6326   -0.2669 C   0  0  0  0  0  0  0  0  0  0  0  0
   -2.8646    3.8541    0.5057 C   0  0  0  0  0  0  0  0  0  0  0  0
   -3.2460    2.5554   -0.1400 C   0  0  0  0  0  0  0  0  0  0  0  0
   -2.0975    1.7695   -0.6661 C   0  0  0  0  0  0  0  0  0  0  0  0
   -1.2360    1.1420    0.3866 C   0  0  0  0  0  0  0  0  0  0  0  0
    0.0315    0.8659   -0.3180 C   0  0  0  0  0  0  0  0  0  0  0  0
    0.0076    1.6646   -1.5388 N   0  0  0  0  0  0  0  0  0  0  0  0
   -1.0726    2.6143   -1.3932 C   0  0  0  0  0  0  0  0  0  0  0  0
   -0.6302    3.7970   -0.5821 C   0  0  0  0  0  0  0  0  0  0  0  0
    0.3870   -0.5324   -0.6255 C   0  0  2  0  0  0  0  0  0  0  0  0
   -0.3212   -1.5668    0.0502 N   0  0  0  0  0  0  0  0  0  0  0  0
   -0.1941   -2.8334   -0.6302 C   0  0  0  0  0  0  0  0  0  0  0  0
    0.2584   -2.6797   -1.9469 O   0  0  0  0  0  0  0  0  0  0  0  0
   -1.4807   -3.6009   -0.7403 C   0  0  0  0  0  0  0  0  0  0  0  0
   -2.2229   -3.6732    0.4717 N   0  0  0  0  0  0  0  0  0  0  0  0
   -2.4493   -2.3595    0.9698 C   0  0  0  0  0  0  0  0  0  0  0  0
   -2.0752   -2.2005    2.3027 O   0  0  0  0  0  0  0  0  0  0  0  0
   -1.7076   -1.2696    0.1846 C   0  0  1  0  0  0  0  0  0  0  0  0
   -1.8745   -0.0239    1.0688 C   0  0  0  0  0  0  0  0  0  0  0  0
   -3.4729   -4.3725    0.1837 C   0  0  0  0  0  0  0  0  0  0  0  0
    1.8977   -0.7225   -0.5100 C   0  0  0  0  0  0  0  0  0  0  0  0
    2.6966    0.1286   -1.4288 C   0  0  0  0  0  0  0  0  0  0  0  0
    3.6706    1.0421   -0.6772 C   0  0  0  0  0  0  0  0  0  0  0  0
    4.6458    0.1956    0.0776 C   0  0  0  0  0  0  0  0  0  0  0  0
    5.3248    0.9432    1.0440 O   0  0  0  0  0  0  0  0  0  0  0  0
    5.6050   -0.0255    2.0040 C   0  0  0  0  0  0  0  0  0  0  0  0
    4.4834   -0.8210    2.0885 O   0  0  0  0  0  0  0  0  0  0  0  0
    3.9105   -0.8682    0.8230 C   0  0  0  0  0  0  0  0  0  0  0  0
    2.4053   -0.5694    0.8965 C   0  0  0  0  0  0  0  0  0  0  0  0
   -1.8455    4.6326   -0.2669 C   0  0  0  0  0  0  0  0  0  0  0  0
   -2.8646    3.8541    0.5057 C   0  0  0  0  0  0  0  0  0  0  0  0
   -3.2460    2.5554   -0.1400 C   0  0  0  0  0  0  0  0  0  0  0  0
   -2.0975    1.7695   -0.6661 C   0  0  0  0  0  0  0  0  0  0  0  0
   -1.2360    1.1420    0.3866 C   0  0  0  0  0  0  0  0  0  0  0  0
    0.0315    0.8659   -0.3180 C   0  0  0  0  0  0  0  0  0  0  0  0
    0.0076    1.6646   -1.5388 N   0  0  0  0  0  0  0  0  0  0  0  0
   -1.0726    2.6143   -1.3932 C   0  0  0  0  0  0  0  0  0  0  0  0
   -0.6302    3.7970   -0.5821 C   0  0  0  0  0  0  0  0  0  0  0  0
    0.3870   -0.5324   -0.6255 C   0  0  2  0  0  0  0  0  0  0  0  0
   -0.3212   -1.5668    0.0502 N   0  0  0  0  0  0  0  0  0  0  0  0
   -0.1941   -2.8334   -0.6302 C   0  0  0  0  0  0  0  0  0  0  0  0
    0.2584   -2.6797   -1.9469 O   0  0  0  0  0  0  0  0  0  0  0  0
   -1.4807   -3.6009   -0.7403 C   0  0  0  0  0  0  0  0  0  0  0  0
   -2.2229   -3.6732    0.4717 N   0  0  0  0  0  0  0  0  0  0  0  0
   -2.4493   -2.3595    0.9698 C   0  0  0  0  0  0  0  0  0  0  0  0
   -2.0752   -2.2005    2.3027 O   0  0  0  0  0  0  0  0  0  0  0  0
   -1.7076   -1.2696    0.1846 C   0  0  1  0  0  0  0  0  0  0  0  0
   -1.8745   -0.0239    1.0688 C   0  0  0  0  0  0  0  0  0  0  0  0
   -3.4729   -4.3725    0.1837 C   0  0  0  0  0  0  0  0  0  0  0  0
    1.8977   -0.7225   -0.5100 C   0  0  0  0  0  0  0  0  0  0  0  0
    2.6966    0.1286   -1.4288 C   0  0  0  0  0  0  0  0  0  0  0  0
    3.6706    1.0421   -0.6772 C   0  0  0  0  0  0  0  0  0  0  0  0
    4.6458    0.1956    0.0776 C   0  0  0  0  0  0  0  0  0  0  0  0
    5.3248    0.9432    1.0440 O   0  0  0  0  0  0  0  0  0  0  0  0
    5.6050   -0.0255    2.0040 C   0  0  0  0  0  0  0  0  0  0  0  0
    4.4834   -0.8210    2.0885 O   0  0  0  0  0  0  0  0  0  0  0  0
    3.9105   -0.8682    0.8230 C   0  0  0  0  0  0  0  0  0  0  0  0
    2.4053   -0.5694    0.8965 C   0  0  0  0  0  0  0  0  0  0  0  0
   -2.2275    5.0540   -1.1994 H   0  0  0  0  0  0  0  0  0  0  0  0
   -1.5044    5.4723    0.3927 H   0  0  0  0  0  0  0  0  0  0  0  0
   -2.5008    3.7112    1.5534 H   0  0  0  0  0  0  0  0  0  0  0  0
   -3.7811    4.4766    0.5817 H   0  0  0  0  0  0  0  0  0  0  0  0
   -3.7994    1.9584    0.5973 H   0  0  0  0  0  0  0  0  0  0  0  0
   -3.9432    2.7585   -0.9841 H   0  0  0  0  0  0  0  0  0  0  0  0
   -2.4584    1.0082   -1.3758 H   0  0  0  0  0  0  0  0  0  0  0  0
   -1.1041    1.9340    1.1805 H   0  0  0  0  0  0  0  0  0  0  0  0
    0.8540    1.3560    0.2937 H   0  0  0  0  0  0  0  0  0  0  0  0
   -0.2420    1.0616   -2.3544 H   0  0  0  0  0  0  0  0  0  0  0  0
   -1.4031    2.9590   -2.3743 H   0  0  0  0  0  0  0  0  0  0  0  0
   -0.0751    3.5106    0.3343 H   0  0  0  0  0  0  0  0  0  0  0  0
    0.0472    4.4055   -1.1941 H   0  0  0  0  0  0  0  0  0  0  0  0
    0.1864   -0.6969   -1.7291 H   0  0  0  0  0  0  0  0  0  0  0  0
    0.5139   -3.4546   -0.0308 H   0  0  0  0  0  0  0  0  0  0  0  0
    0.7985   -3.4951   -2.1483 H   0  0  0  0  0  0  0  0  0  0  0  0
   -1.2112   -4.6421   -1.0390 H   0  0  0  0  0  0  0  0  0  0  0  0
   -2.0649   -3.1822   -1.5935 H   0  0  0  0  0  0  0  0  0  0  0  0
   -3.5280   -2.0774    0.9055 H   0  0  0  0  0  0  0  0  0  0  0  0
   -2.4027   -3.0069    2.7809 H   0  0  0  0  0  0  0  0  0  0  0  0
   -2.1508   -1.1264   -0.8069 H   0  0  0  0  0  0  0  0  0  0  0  0
   -2.9427    0.1122    1.2246 H   0  0  0  0  0  0  0  0  0  0  0  0
   -1.3111   -0.2318    1.9939 H   0  0  0  0  0  0  0  0  0  0  0  0
   -4.2040   -4.2770    0.9993 H   0  0  0  0  0  0  0  0  0  0  0  0
   -3.9202   -3.9579   -0.7668 H   0  0  0  0  0  0  0  0  0  0  0  0
   -3.2562   -5.4403   -0.0180 H   0  0  0  0  0  0  0  0  0  0  0  0
    2.0628   -1.8171   -0.7510 H   0  0  0  0  0  0  0  0  0  0  0  0
    3.3859   -0.5358   -2.0355 H   0  0  0  0  0  0  0  0  0  0  0  0
    2.1258    0.7915   -2.1012 H   0  0  0  0  0  0  0  0  0  0  0  0
    4.2353    1.5765   -1.4966 H   0  0  0  0  0  0  0  0  0  0  0  0
    3.1736    1.8143   -0.0997 H   0  0  0  0  0  0  0  0  0  0  0  0
    5.3932   -0.1925   -0.6407 H   0  0  0  0  0  0  0  0  0  0  0  0
    6.5057   -0.5725    1.6446 H   0  0  0  0  0  0  0  0  0  0  0  0
    5.8048    0.4409    2.9853 H   0  0  0  0  0  0  0  0  0  0  0  0
    4.0815   -1.8379    0.3251 H   0  0  0  0  0  0  0  0  0  0  0  0
    2.3275    0.4262    1.3242 H   0  0  0  0  0  0  0  0  0  0  0  0
    2.0015   -1.3689    1.5841 H   0  0  0  0  0  0  0  0  0  0  0  0
   -2.2275    5.0540   -1.1994 H   0  0  0  0  0  0  0  0  0  0  0  0
   -1.5044    5.4723    0.3927 H   0  0  0  0  0  0  0  0  0  0  0  0
   -2.5008    3.7112    1.5534 H   0  0  0  0  0  0  0  0  0  0  0  0
   -3.7811    4.4766    0.5817 H   0  0  0  0  0  0  0  0  0  0  0  0
   -3.7994    1.9584    0.5973 H   0  0  0  0  0  0  0  0  0  0  0  0
   -3.9432    2.7585   -0.9841 H   0  0  0  0  0  0  0  0  0  0  0  0
   -2.4584    1.0082   -1.3758 H   0  0  0  0  0  0  0  0  0  0  0  0
   -1.1041    1.9340    1.1805 H   0  0  0  0  0  0  0  0  0  0  0  0
    0.8540    1.3560    0.2937 H   0  0  0  0  0  0  0  0  0  0  0  0
   -0.2420    1.0616   -2.3544 H   0  0  0  0  0  0  0  0  0  0  0  0
   -1.4031    2.9590   -2.3743 H   0  0  0  0  0  0  0  0  0  0  0  0
   -0.0751    3.5106    0.3343 H   0  0  0  0  0  0  0  0  0  0  0  0
    0.0472    4.4055   -1.1941 H   0  0  0  0  0  0  0  0  0  0  0  0
    0.1864   -0.6969   -1.7291 H   0  0  0  0  0  0  0  0  0  0  0  0
    0.5139   -3.4546   -0.0308 H   0  0  0  0  0  0  0  0  0  0  0  0
    0.7985   -3.4951   -2.1483 H   0  0  0  0  0  0  0  0  0  0  0  0
   -1.2112   -4.6421   -1.0390 H   0  0  0  0  0  0  0  0  0  0  0  0
   -2.0649   -3.1822   -1.5935 H   0  0  0  0  0  0  0  0  0  0  0  0
   -3.5280   -2.0774    0.9055 H   0  0  0  0  0  0  0  0  0  0  0  0
   -2.4027   -3.0069    2.7809 H   0  0  0  0  0  0  0  0  0  0  0  0
   -2.1508   -1.1264   -0.8069 H   0  0  0  0  0  0  0  0  0  0  0  0
   -2.9427    0.1122    1.2246 H   0  0  0  0  0  0  0  0  0  0  0  0
   -1.3111   -0.2318    1.9939 H   0  0  0  0  0  0  0  0  0  0  0  0
   -4.2040   -4.2770    0.9993 H   0  0  0  0  0  0  0  0  0  0  0  0
   -3.9202   -3.9579   -0.7668 H   0  0  0  0  0  0  0  0  0  0  0  0
   -3.2562   -5.4403   -0.0180 H   0  0  0  0  0  0  0  0  0  0  0  0
    2.0628   -1.8171   -0.7510 H   0  0  0  0  0  0  0  0  0  0  0  0
    3.3859   -0.5358   -2.0355 H   0  0  0  0  0  0  0  0  0  0  0  0
    2.1258    0.7915   -2.1012 H   0  0  0  0  0  0  0  0  0  0  0  0
    4.2353    1.5765   -1.4966 H   0  0  0  0  0  0  0  0  0  0  0  0
    3.1736    1.8143   -0.0997 H   0  0  0  0  0  0  0  0  0  0  0  0
    5.3932   -0.1925   -0.6407 H   0  0  0  0  0  0  0  0  0  0  0  0
    6.5057   -0.5725    1.6446 H   0  0  0  0  0  0  0  0  0  0  0  0
    5.8048    0.4409    2.9853 H   0  0  0  0  0  0  0  0  0  0  0  0
    4.0815   -1.8379    0.3251 H   0  0  0  0  0  0  0  0  0  0  0  0
    2.3275    0.4262    1.3242 H   0  0  0  0  0  0  0  0  0  0  0  0
    2.0015   -1.3689    1.5841 H   0  0  0  0  0  0  0  0  0  0  0  0
  1  2  1  0
  2  3  1  0
  3  4  1  0
  4  5  1  0
  5  6  1  0
  6  7  1  0
  4  8  1  0
  7  8  1  0
  1  9  1  0
  8  9  1  0
  6 10  1  0
 10 11  1  0
 11 12  1  0
 12 13  1  0
 12 14  1  0
 14 15  1  0
 15 16  1  0
 16 17  1  0
 11 18  1  0
 16 18  1  0
  5 19  1  0
 18 19  1  0
 15 20  1  0
 10 21  1  0
 21 22  1  0
 22 23  1  0
 23 24  1  0
 24 25  1  0
 25 26  1  0
 26 27  1  0
 24 28  1  0
 27 28  1  0
 21 29  1  0
 28 29  1  0
 30 31  1  0
 31 32  1  0
 32 33  1  0
 33 34  1  0
 34 35  1  0
 35 36  1  0
 33 37  1  0
 36 37  1  0
 30 38  1  0
 37 38  1  0
 35 39  1  0
 39 40  1  0
 40 41  1  0
 41 42  1  0
 41 43  1  0
 43 44  1  0
 44 45  1  0
 45 46  1  0
 40 47  1  0
 45 47  1  0
 34 48  1  0
 47 48  1  0
 44 49  1  0
 39 50  1  0
 50 51  1  0
 51 52  1  0
 52 53  1  0
 53 54  1  0
 54 55  1  0
 55 56  1  0
 53 57  1  0
 56 57  1  0
 50 58  1  0
 57 58  1  0
  1 59  1  0
  1 60  1  0
  2 61  1  0
  2 62  1  0
  3 63  1  0
  3 64  1  0
  4 65  1  0
  5 66  1  0
  6 67  1  0
  7 68  1  0
  8 69  1  0
  9 70  1  0
  9 71  1  0
 10 72  1  6
 12 73  1  0
 13 74  1  0
 14 75  1  0
 14 76  1  0
 16 77  1  0
 17 78  1  0
 18 79  1  6
 19 80  1  0
 19 81  1  0
 20 82  1  0
 20 83  1  0
 20 84  1  0
 21 85  1  0
 22 86  1  0
 22 87  1  0
 23 88  1  0
 23 89  1  0
 24 90  1  0
 26 91  1  0
 26 92  1  0
 28 93  1  0
 29 94  1  0
 29 95  1  0
 30 96  1  0
 30 97  1  0
 31 98  1  0
 31 99  1  0
 32100  1  0
 32101  1  0
 33102  1  0
 34103  1  0
 35104  1  0
 36105  1  0
 37106  1  0
 38107  1  0
 38108  1  0
 39109  1  6
 41110  1  0
 42111  1  0
 43112  1  0
 43113  1  0
 45114  1  0
 46115  1  0
 47116  1  6
 48117  1  0
 48118  1  0
 49119  1  0
 49120  1  0
 49121  1  0
 50122  1  0
 51123  1  0
 51124  1  0
 52125  1  0
 52126  1  0
 53127  1  0
 55128  1  0
 55129  1  0
 57130  1  0
 58131  1  0
 58132  1  0
M  END
>  <PDBID>  (1) 
1UDU

>  <PDB ID>  (1) 
1UDU

>  <Generic Name>  (1) 
Tadalafil

>  <Brand Name>  (1) 
Act Tadalafil#Adcirca#Apo-tadalafil#Apo-tadalafil Pah#Auro-tadalafil#Cialis#Dom-tadalafil#Ipg-tadalafil#Jamp-tadalafil#Mar-tadalafil#Mint-tadalafil#Mylan-tadalafil#PMS-tadalafil#Priva-tadalafil#Ran-tadalafil#Riva-tadalafil#Tadalafil#Teva-tadalafil

>  <DrugBank ID>  (1) 
DB00820

>  <ATC Codes>  (1) 
G04BE08

>  <Ligand ID>  (1) 
CIA

>  <Target Name>  (1) 
cGMP-specific 3',5'-cyclic phosphodiesterase

>  <UniProt ID>  (1) 
O76074

>  <PDB ID.1>  (1) 
1UDU

>  <Seq. Identity>  (1) 
94%

$$$$
