PDB_DB00701_08
     RDKit          3D

 86 88  0  0  0  0  0  0  0  0999 V2000
   -4.6619   -4.0091    1.0631 C   0  0  0  0  0  0  0  0  0  0  0  0
   -3.8853   -5.2457   -0.7551 C   0  0  0  0  0  0  0  0  0  0  0  0
   -2.2748   -2.2079   -0.7148 C   0  0  2  0  0  0  0  0  0  0  0  0
   -3.8480   -3.8154   -0.2134 C   0  0  2  0  0  0  0  0  0  0  0  0
   -1.8027    0.1477   -0.2417 C   0  0  2  0  0  0  0  0  0  0  0  0
   -0.6464    0.5340   -1.1160 C   0  0  1  0  0  0  0  0  0  0  0  0
   -2.2721    1.0843    0.8130 C   0  0  0  0  0  0  0  0  0  0  0  0
   -2.6959    2.4401    0.3277 C   0  0  0  0  0  0  0  0  0  0  0  0
   -3.1398    3.2381    1.5531 C   0  0  0  0  0  0  0  0  0  0  0  0
   -3.8469    2.4348   -0.6178 C   0  0  0  0  0  0  0  0  0  0  0  0
   -3.3494    4.6945    1.1885 C   0  0  0  0  0  0  0  0  0  0  0  0
   -4.1123    3.8881   -1.0265 C   0  0  0  0  0  0  0  0  0  0  0  0
   -4.4306    4.7641    0.1380 C   0  0  0  0  0  0  0  0  0  0  0  0
    0.6855    0.0129   -0.8247 C   0  0  0  0  0  0  0  0  0  0  0  0
    1.4540    0.5714    1.3854 C   0  0  0  0  0  0  0  0  0  0  0  0
    0.9494    1.9507    1.7647 C   0  0  0  0  0  0  0  0  0  0  0  0
    3.8785   -0.8600   -1.0971 C   0  0  0  0  0  0  0  0  0  0  0  0
    5.1786   -0.4672   -1.7719 C   0  0  0  0  0  0  0  0  0  0  0  0
    6.2778   -0.2013   -0.8037 C   0  0  0  0  0  0  0  0  0  0  0  0
    6.4426   -1.2684    0.2373 C   0  0  0  0  0  0  0  0  0  0  0  0
    5.4518   -2.3729    0.1470 C   0  0  0  0  0  0  0  0  0  0  0  0
    4.0277   -1.9454   -0.0957 C   0  0  0  0  0  0  0  0  0  0  0  0
    2.0014    3.0319    1.4497 C   0  0  0  0  0  0  0  0  0  0  0  0
    0.5949    1.9611    3.2038 C   0  0  0  0  0  0  0  0  0  0  0  0
   -5.2610   -5.6814   -0.3089 C   0  0  0  0  0  0  0  0  0  0  0  0
   -1.9619   -1.1673    0.1824 N   0  0  0  0  0  0  0  0  0  0  0  0
    1.6877    0.4801    0.0042 N   0  0  0  0  0  0  0  0  0  0  0  0
    7.7785   -1.8483    0.0558 N   0  0  0  0  0  0  0  0  0  0  0  0
   -2.5711   -3.4053    0.0423 O   0  0  0  0  0  0  0  0  0  0  0  0
   -1.3357   -2.5729   -1.6552 O   0  0  0  0  0  0  0  0  0  0  0  0
   -0.9880   -0.2808   -2.3372 O   0  0  0  0  0  0  0  0  0  0  0  0
    3.4851    1.7172   -1.6384 O   0  0  0  0  0  0  0  0  0  0  0  0
    4.1244    1.0703    0.8317 O   0  0  0  0  0  0  0  0  0  0  0  0
   -5.6034   -4.9652    0.8052 O   0  0  0  0  0  0  0  0  0  0  0  0
    3.1644    0.6062   -0.4575 S   0  0  0  0  0  0  0  0  0  0  0  0
   -5.0744   -3.0624    1.4532 H   0  0  0  0  0  0  0  0  0  0  0  0
   -3.9522   -4.4241    1.8330 H   0  0  0  0  0  0  0  0  0  0  0  0
   -3.1424   -5.8119   -0.1605 H   0  0  0  0  0  0  0  0  0  0  0  0
   -3.7274   -5.3034   -1.8297 H   0  0  0  0  0  0  0  0  0  0  0  0
   -3.2377   -2.0310   -1.2815 H   0  0  0  0  0  0  0  0  0  0  0  0
   -4.4054   -3.1979   -0.9208 H   0  0  0  0  0  0  0  0  0  0  0  0
   -2.7195    0.2537   -1.0251 H   0  0  0  0  0  0  0  0  0  0  0  0
   -0.7379    1.5486   -1.4998 H   0  0  0  0  0  0  0  0  0  0  0  0
   -1.7482    1.1217    1.7500 H   0  0  0  0  0  0  0  0  0  0  0  0
   -3.2970    0.6141    1.1336 H   0  0  0  0  0  0  0  0  0  0  0  0
   -1.8644    3.0096   -0.1267 H   0  0  0  0  0  0  0  0  0  0  0  0
   -2.4379    3.1208    2.3883 H   0  0  0  0  0  0  0  0  0  0  0  0
   -4.1472    2.8386    1.8225 H   0  0  0  0  0  0  0  0  0  0  0  0
   -4.7872    2.0530   -0.1622 H   0  0  0  0  0  0  0  0  0  0  0  0
   -3.7060    1.9010   -1.5561 H   0  0  0  0  0  0  0  0  0  0  0  0
   -3.7344    5.1977    2.0896 H   0  0  0  0  0  0  0  0  0  0  0  0
   -2.4049    5.1356    0.8375 H   0  0  0  0  0  0  0  0  0  0  0  0
   -4.9215    3.9583   -1.7735 H   0  0  0  0  0  0  0  0  0  0  0  0
   -3.1770    4.2753   -1.4970 H   0  0  0  0  0  0  0  0  0  0  0  0
   -5.4077    4.5546    0.5967 H   0  0  0  0  0  0  0  0  0  0  0  0
   -4.4503    5.8082   -0.2400 H   0  0  0  0  0  0  0  0  0  0  0  0
    1.2451   -0.2288   -1.8369 H   0  0  0  0  0  0  0  0  0  0  0  0
    0.5023   -1.0938   -0.5051 H   0  0  0  0  0  0  0  0  0  0  0  0
    0.7549   -0.2003    1.7910 H   0  0  0  0  0  0  0  0  0  0  0  0
    2.4124    0.4012    1.9287 H   0  0  0  0  0  0  0  0  0  0  0  0
    0.1362    2.1844    1.0593 H   0  0  0  0  0  0  0  0  0  0  0  0
    3.2122   -1.1517   -1.9639 H   0  0  0  0  0  0  0  0  0  0  0  0
    4.9662    0.4681   -2.3367 H   0  0  0  0  0  0  0  0  0  0  0  0
    5.4592   -1.2182   -2.5639 H   0  0  0  0  0  0  0  0  0  0  0  0
    7.2216   -0.0551   -1.4120 H   0  0  0  0  0  0  0  0  0  0  0  0
    6.1080    0.8066   -0.3503 H   0  0  0  0  0  0  0  0  0  0  0  0
    6.4738   -0.7853    1.2488 H   0  0  0  0  0  0  0  0  0  0  0  0
    5.4577   -2.9278    1.1138 H   0  0  0  0  0  0  0  0  0  0  0  0
    5.7720   -3.1452   -0.6132 H   0  0  0  0  0  0  0  0  0  0  0  0
    3.5075   -1.7589    0.8585 H   0  0  0  0  0  0  0  0  0  0  0  0
    3.5154   -2.8637   -0.5154 H   0  0  0  0  0  0  0  0  0  0  0  0
    2.2783    3.0532    0.3967 H   0  0  0  0  0  0  0  0  0  0  0  0
    1.4384    3.9995    1.6209 H   0  0  0  0  0  0  0  0  0  0  0  0
    2.8187    3.0341    2.1627 H   0  0  0  0  0  0  0  0  0  0  0  0
    0.4459    0.9283    3.6287 H   0  0  0  0  0  0  0  0  0  0  0  0
   -0.3622    2.4783    3.3693 H   0  0  0  0  0  0  0  0  0  0  0  0
    1.4356    2.4342    3.7853 H   0  0  0  0  0  0  0  0  0  0  0  0
   -5.9807   -5.4205   -1.1134 H   0  0  0  0  0  0  0  0  0  0  0  0
   -5.3430   -6.7763   -0.1661 H   0  0  0  0  0  0  0  0  0  0  0  0
   -1.0852   -1.4729    0.7082 H   0  0  0  0  0  0  0  0  0  0  0  0
    8.0743   -1.6953   -0.9341 H   0  0  0  0  0  0  0  0  0  0  0  0
    7.7648   -2.8792    0.2128 H   0  0  0  0  0  0  0  0  0  0  0  0
   -1.7627   -2.9093   -2.4770 H   0  0  0  0  0  0  0  0  0  0  0  0
   -0.3166    0.1010   -2.9685 H   0  0  0  0  0  0  0  0  0  0  0  0
    4.0583    2.4630   -1.2902 H   0  0  0  0  0  0  0  0  0  0  0  0
    4.3772    0.3578    1.4383 H   0  0  0  0  0  0  0  0  0  0  0  0
  1  4  1  0
  2  4  1  0
  5  6  1  0
  5  7  1  0
  7  8  1  0
  8  9  1  0
  8 10  1  0
  9 11  1  0
 10 12  1  0
 11 13  1  0
 12 13  1  0
  6 14  1  0
 15 16  1  0
 17 18  1  0
 18 19  1  0
 19 20  1  0
 20 21  1  0
 17 22  1  0
 21 22  1  0
 16 23  1  0
 16 24  1  0
  2 25  1  0
  3 26  1  0
  5 26  1  0
 14 27  1  0
 15 27  1  0
 20 28  1  0
  3 29  1  0
  4 29  1  0
  3 30  1  0
  6 31  1  0
  1 34  1  0
 25 34  1  0
 17 35  1  0
 27 35  1  0
 35 32  1  0
 33 35  1  0
  1 36  1  0
  1 37  1  0
  2 38  1  0
  2 39  1  0
  3 40  1  6
  4 41  1  6
  5 42  1  6
  6 43  1  6
  7 44  1  0
  7 45  1  0
  8 46  1  0
  9 47  1  0
  9 48  1  0
 10 49  1  0
 10 50  1  0
 11 51  1  0
 11 52  1  0
 12 53  1  0
 12 54  1  0
 13 55  1  0
 13 56  1  0
 14 57  1  0
 14 58  1  0
 15 59  1  0
 15 60  1  0
 16 61  1  0
 17 62  1  0
 18 63  1  0
 18 64  1  0
 19 65  1  0
 19 66  1  0
 20 67  1  0
 21 68  1  0
 21 69  1  0
 22 70  1  0
 22 71  1  0
 23 72  1  0
 23 73  1  0
 23 74  1  0
 24 75  1  0
 24 76  1  0
 24 77  1  0
 25 78  1  0
 25 79  1  0
 26 80  1  0
 28 81  1  0
 28 82  1  0
 30 83  1  0
 31 84  1  0
 32 85  1  0
 33 86  1  0
M  END
>  <PDBID>  (1) 
1HPV

>  <PDB ID>  (1) 
1HPV

>  <Generic Name>  (1) 
Amprenavir

>  <Brand Name>  (1) 
Agenerase#Agemerase#Prozei

>  <DrugBank ID>  (1) 
DB00701

>  <ATC Codes>  (1) 
J05AE05

>  <Ligand ID>  (1) 
478

>  <Target Name>  (1) 
Pol polyprotein

>  <UniProt ID>  (1) 
Q72874

>  <PDB ID.1>  (1) 
1HPV

>  <Seq. Identity>  (1) 
99%

$$$$
