PDB_DB00317_02
     RDKit          3D

 71 74  0  0  0  0  0  0  0  0999 V2000
    6.2408    2.4392    0.0412 C   0  0  0  0  0  0  0  0  0  0  0  0
    7.6387    2.5735   -0.5734 C   0  0  0  0  0  0  0  0  0  0  0  0
    8.3115    1.3771   -0.3535 O   0  0  0  0  0  0  0  0  0  0  0  0
    7.6058    0.2576   -0.7624 C   0  0  0  0  0  0  0  0  0  0  0  0
    6.3648    0.6260   -1.5533 C   0  0  0  0  0  0  0  0  0  0  0  0
    5.5465    1.4643   -0.7361 N   0  0  0  0  0  0  0  0  0  0  0  0
    4.4429    0.8263   -0.1026 C   0  0  0  0  0  0  0  0  0  0  0  0
    3.2763    1.7588    0.1423 C   0  0  0  0  0  0  0  0  0  0  0  0
    2.1307    1.0265    0.8152 C   0  0  0  0  0  0  0  0  0  0  0  0
    1.7405    0.0025   -0.0316 O   0  0  0  0  0  0  0  0  0  0  0  0
    0.6842   -0.7540    0.4589 C   0  0  0  0  0  0  0  0  0  0  0  0
    0.9612   -2.2223    0.5018 C   0  0  0  0  0  0  0  0  0  0  0  0
   -0.1513   -3.0543   -0.0346 C   0  0  0  0  0  0  0  0  0  0  0  0
    1.4183   -2.6696    1.7425 O   0  0  0  0  0  0  0  0  0  0  0  0
    2.7336   -3.1251    1.7025 C   0  0  0  0  0  0  0  0  0  0  0  0
   -0.5801   -0.5340   -0.3556 C   0  0  0  0  0  0  0  0  0  0  0  0
   -1.7401   -1.1758    0.3931 C   0  0  0  0  0  0  0  0  0  0  0  0
   -1.5271   -2.6359    0.4960 C   0  0  0  0  0  0  0  0  0  0  0  0
   -2.5300   -3.4971   -0.0127 N   0  0  0  0  0  0  0  0  0  0  0  0
   -3.7549   -2.9369   -0.4434 C   0  0  0  0  0  0  0  0  0  0  0  0
   -4.0291   -1.7342    0.3356 N   0  0  0  0  0  0  0  0  0  0  0  0
   -3.0697   -0.7509   -0.1958 C   0  0  0  0  0  0  0  0  0  0  0  0
   -3.3179    0.5783    0.2118 N   0  0  0  0  0  0  0  0  0  0  0  0
   -4.5192    1.2057   -0.1738 C   0  0  0  0  0  0  0  0  0  0  0  0
   -4.6342    1.3436   -1.6605 C   0  0  0  0  0  0  0  0  0  0  0  0
   -5.9650    1.8902   -2.0998 C   0  0  0  0  0  0  0  0  0  0  0  0
   -5.7214    3.0539   -3.4179 Cl  0  0  0  0  0  0  0  0  0  0  0  0
   -6.6309    2.5751   -0.9551 C   0  0  0  0  0  0  0  0  0  0  0  0
   -6.0072    3.7458   -0.5730 F   0  0  0  0  0  0  0  0  0  0  0  0
   -6.8718    1.7137    0.2369 C   0  0  0  0  0  0  0  0  0  0  0  0
   -5.7830    0.6626    0.4502 C   0  0  0  0  0  0  0  0  0  0  0  0
    5.7573    3.4386    0.0260 H   0  0  0  0  0  0  0  0  0  0  0  0
    6.3721    2.0410    1.0661 H   0  0  0  0  0  0  0  0  0  0  0  0
    8.2295    3.3633   -0.0680 H   0  0  0  0  0  0  0  0  0  0  0  0
    7.5416    2.7960   -1.6672 H   0  0  0  0  0  0  0  0  0  0  0  0
    7.3025   -0.2760    0.1808 H   0  0  0  0  0  0  0  0  0  0  0  0
    8.2714   -0.4224   -1.3392 H   0  0  0  0  0  0  0  0  0  0  0  0
    6.7167    1.1061   -2.4901 H   0  0  0  0  0  0  0  0  0  0  0  0
    5.8185   -0.3152   -1.7676 H   0  0  0  0  0  0  0  0  0  0  0  0
    4.7808    0.4065    0.8674 H   0  0  0  0  0  0  0  0  0  0  0  0
    4.1069   -0.0075   -0.7378 H   0  0  0  0  0  0  0  0  0  0  0  0
    3.6176    2.5559    0.8632 H   0  0  0  0  0  0  0  0  0  0  0  0
    2.9681    2.2761   -0.7688 H   0  0  0  0  0  0  0  0  0  0  0  0
    2.3579    0.7112    1.8298 H   0  0  0  0  0  0  0  0  0  0  0  0
    1.2978    1.7760    0.8810 H   0  0  0  0  0  0  0  0  0  0  0  0
    0.4474   -0.3059    1.4704 H   0  0  0  0  0  0  0  0  0  0  0  0
    1.8464   -2.3729   -0.1930 H   0  0  0  0  0  0  0  0  0  0  0  0
   -0.2209   -3.0243   -1.1376 H   0  0  0  0  0  0  0  0  0  0  0  0
   -0.0386   -4.1368    0.2115 H   0  0  0  0  0  0  0  0  0  0  0  0
    2.8561   -3.9737    0.9966 H   0  0  0  0  0  0  0  0  0  0  0  0
    3.0392   -3.4382    2.7037 H   0  0  0  0  0  0  0  0  0  0  0  0
    3.3552   -2.2968    1.3130 H   0  0  0  0  0  0  0  0  0  0  0  0
   -0.7763    0.5640   -0.5088 H   0  0  0  0  0  0  0  0  0  0  0  0
   -0.4485   -1.0455   -1.3192 H   0  0  0  0  0  0  0  0  0  0  0  0
   -1.7086   -0.6760    1.4127 H   0  0  0  0  0  0  0  0  0  0  0  0
   -1.4574   -2.8829    1.6061 H   0  0  0  0  0  0  0  0  0  0  0  0
   -2.6959   -4.3431    0.5787 H   0  0  0  0  0  0  0  0  0  0  0  0
   -3.6879   -2.6359   -1.5095 H   0  0  0  0  0  0  0  0  0  0  0  0
   -4.5701   -3.6730   -0.2856 H   0  0  0  0  0  0  0  0  0  0  0  0
   -3.8238   -1.8984    1.3653 H   0  0  0  0  0  0  0  0  0  0  0  0
   -3.0747   -0.8566   -1.3010 H   0  0  0  0  0  0  0  0  0  0  0  0
   -2.8736    0.8961    1.0829 H   0  0  0  0  0  0  0  0  0  0  0  0
   -4.4551    2.2708    0.2143 H   0  0  0  0  0  0  0  0  0  0  0  0
   -4.4578    0.3584   -2.1515 H   0  0  0  0  0  0  0  0  0  0  0  0
   -3.8489    2.0439   -2.0113 H   0  0  0  0  0  0  0  0  0  0  0  0
   -6.6035    1.0494   -2.4176 H   0  0  0  0  0  0  0  0  0  0  0  0
   -7.6492    2.9056   -1.3228 H   0  0  0  0  0  0  0  0  0  0  0  0
   -6.9250    2.3979    1.1337 H   0  0  0  0  0  0  0  0  0  0  0  0
   -7.8723    1.2421    0.1770 H   0  0  0  0  0  0  0  0  0  0  0  0
   -5.6180    0.6104    1.5403 H   0  0  0  0  0  0  0  0  0  0  0  0
   -6.1399   -0.2587   -0.0110 H   0  0  0  0  0  0  0  0  0  0  0  0
  1  2  1  0
  2  3  1  0
  3  4  1  0
  4  5  1  0
  1  6  1  0
  5  6  1  0
  6  7  1  0
  7  8  1  0
  8  9  1  0
  9 10  1  0
 10 11  1  0
 11 12  1  0
 12 13  1  0
 12 14  1  0
 14 15  1  0
 11 16  1  0
 16 17  1  0
 13 18  1  0
 17 18  1  0
 18 19  1  0
 19 20  1  0
 20 21  1  0
 17 22  1  0
 21 22  1  0
 22 23  1  0
 23 24  1  0
 24 25  1  0
 25 26  1  0
 26 27  1  0
 26 28  1  0
 28 29  1  0
 28 30  1  0
 24 31  1  0
 30 31  1  0
  1 32  1  0
  1 33  1  0
  2 34  1  0
  2 35  1  0
  4 36  1  0
  4 37  1  0
  5 38  1  0
  5 39  1  0
  7 40  1  0
  7 41  1  0
  8 42  1  0
  8 43  1  0
  9 44  1  0
  9 45  1  0
 11 46  1  0
 12 47  1  0
 13 48  1  0
 13 49  1  0
 15 50  1  0
 15 51  1  0
 15 52  1  0
 16 53  1  0
 16 54  1  0
 17 55  1  0
 18 56  1  0
 19 57  1  0
 20 58  1  0
 20 59  1  0
 21 60  1  0
 22 61  1  0
 23 62  1  0
 24 63  1  0
 25 64  1  0
 25 65  1  0
 26 66  1  0
 28 67  1  0
 30 68  1  0
 30 69  1  0
 31 70  1  0
 31 71  1  0
M  END
>  <PDBID>  (1) 
4WKQ

>  <PDB ID>  (1) 
4WKQ

>  <Generic Name>  (1) 
Gefitinib

>  <Brand Name>  (1) 
Iressa

>  <DrugBank ID>  (1) 
DB00317

>  <ATC Codes>  (1) 
L01XE02

>  <Ligand ID>  (1) 
IRE

>  <Target Name>  (1) 
Epidermal growth factor receptor

>  <UniProt ID>  (1) 
P00533

>  <PDB ID.1>  (1) 
4WKQ

>  <Seq. Identity>  (1) 
96%

$$$$
