PDB_DB01024_09
     RDKit          3D

110112  0  0  0  0  0  0  0  0999 V2000
   -3.9998    2.5176    0.5605 C   0  0  0  0  0  0  0  0  0  0  0  0
    1.3044   -0.4650   -0.8835 C   0  0  0  0  0  0  0  0  0  0  0  0
    2.8122   -0.0741   -0.7769 C   0  0  0  0  0  0  0  0  0  0  0  0
    3.1745    0.1664    0.6200 C   0  0  0  0  0  0  0  0  0  0  0  0
    4.5772    0.5814    0.8802 C   0  0  0  0  0  0  0  0  0  0  0  0
    5.6398   -0.3917    0.5011 C   0  0  0  0  0  0  0  0  0  0  0  0
   -3.2438   -1.8232   -1.1948 C   0  0  0  0  0  0  0  0  0  0  0  0
   -0.6052   -2.6072    1.2119 C   0  0  0  0  0  0  0  0  0  0  0  0
    3.5319   -1.1380   -1.5357 C   0  0  0  0  0  0  0  0  0  0  0  0
   -5.1040    0.6082    0.1617 C   0  0  0  0  0  0  0  0  0  0  0  0
   -3.7096    0.4177   -0.3312 C   0  0  0  0  0  0  0  0  0  0  0  0
   -3.1174   -0.9278   -0.0009 C   0  0  0  0  0  0  0  0  0  0  0  0
   -1.5925   -0.7495    0.2675 C   0  0  0  0  0  0  0  0  0  0  0  0
   -1.0602    0.3729   -0.4819 C   0  0  1  0  0  0  0  0  0  0  0  0
   -1.6990    1.7220   -0.0852 C   0  0  0  0  0  0  0  0  0  0  0  0
   -2.9845    1.4064    0.5690 C   0  0  0  0  0  0  0  0  0  0  0  0
    0.4115    0.5899   -0.3826 C   0  0  0  0  0  0  0  0  0  0  0  0
   -3.7108    3.4353    1.5446 O   0  0  0  0  0  0  0  0  0  0  0  0
   -5.1870    1.8370    0.7755 O   0  0  0  0  0  0  0  0  0  0  0  0
   -0.9766   -1.9434    0.0350 O   0  0  0  0  0  0  0  0  0  0  0  0
   -1.9301    2.4021   -1.2742 O   0  0  0  0  0  0  0  0  0  0  0  0
    6.8705    0.2604    0.8925 O   0  0  0  0  0  0  0  0  0  0  0  0
    5.5348   -1.5472    1.2548 O   0  0  0  0  0  0  0  0  0  0  0  0
   -4.1570    2.4412    0.5397 C   0  0  2  0  0  0  0  0  0  0  0  0
    1.2217   -0.3986   -0.8711 C   0  0  0  0  0  0  0  0  0  0  0  0
    2.7353   -0.0421   -0.7554 C   0  0  0  0  0  0  0  0  0  0  0  0
    3.1788    0.0762    0.6353 C   0  0  0  0  0  0  0  0  0  0  0  0
    4.5923    0.4372    0.8539 C   0  0  0  0  0  0  0  0  0  0  0  0
    5.6393   -0.4882    0.3649 C   0  0  0  0  0  0  0  0  0  0  0  0
   -3.1306   -1.7157   -1.4206 C   0  0  0  0  0  0  0  0  0  0  0  0
   -0.5196   -2.4686    1.3992 C   0  0  0  0  0  0  0  0  0  0  0  0
    3.4198   -1.0746   -1.6198 C   0  0  0  0  0  0  0  0  0  0  0  0
   -5.1496    0.4681    0.1533 C   0  0  0  0  0  0  0  0  0  0  0  0
   -3.7170    0.3652   -0.2994 C   0  0  0  0  0  0  0  0  0  0  0  0
   -3.1266   -1.0082   -0.0927 C   0  0  2  0  0  0  0  0  0  0  0  0
   -1.6544   -0.7705    0.3058 C   0  0  2  0  0  0  0  0  0  0  0  0
   -1.1254    0.4191   -0.3593 C   0  0  1  0  0  0  0  0  0  0  0  0
   -1.7793    1.7226    0.1304 C   0  0  2  0  0  0  0  0  0  0  0  0
   -3.1079    1.3690    0.6571 C   0  0  0  0  0  0  0  0  0  0  0  0
    0.3500    0.6149   -0.2599 C   0  0  0  0  0  0  0  0  0  0  0  0
   -4.0798    3.3871    1.5507 O   0  0  0  0  0  0  0  0  0  0  0  0
   -5.3719    1.7738    0.5082 O   0  0  0  0  0  0  0  0  0  0  0  0
   -0.8940   -1.8631    0.2099 O   0  0  0  0  0  0  0  0  0  0  0  0
   -1.9224    2.5291   -0.9945 O   0  0  0  0  0  0  0  0  0  0  0  0
    6.9006    0.0939    0.7290 O   0  0  0  0  0  0  0  0  0  0  0  0
    5.6469   -1.7245    1.0071 O   0  0  0  0  0  0  0  0  0  0  0  0
   -4.0404    2.9728   -0.4465 H   0  0  0  0  0  0  0  0  0  0  0  0
    1.2408   -1.4078   -0.3406 H   0  0  0  0  0  0  0  0  0  0  0  0
    1.1082   -0.6845   -1.9626 H   0  0  0  0  0  0  0  0  0  0  0  0
    2.8574    0.9115   -1.3284 H   0  0  0  0  0  0  0  0  0  0  0  0
    2.8914   -0.7429    1.2383 H   0  0  0  0  0  0  0  0  0  0  0  0
    2.5110    0.9713    1.0704 H   0  0  0  0  0  0  0  0  0  0  0  0
    4.7249    0.8840    1.9578 H   0  0  0  0  0  0  0  0  0  0  0  0
    4.7672    1.5592    0.3322 H   0  0  0  0  0  0  0  0  0  0  0  0
    5.7173   -0.5471   -0.5755 H   0  0  0  0  0  0  0  0  0  0  0  0
   -3.7768   -1.3231   -2.0485 H   0  0  0  0  0  0  0  0  0  0  0  0
   -2.2489   -2.1176   -1.6177 H   0  0  0  0  0  0  0  0  0  0  0  0
   -3.7757   -2.7646   -0.9152 H   0  0  0  0  0  0  0  0  0  0  0  0
   -1.4519   -2.8334    1.8583 H   0  0  0  0  0  0  0  0  0  0  0  0
    0.0926   -1.9546    1.7891 H   0  0  0  0  0  0  0  0  0  0  0  0
   -0.0239   -3.5112    0.9349 H   0  0  0  0  0  0  0  0  0  0  0  0
    4.2314   -0.6857   -2.2663 H   0  0  0  0  0  0  0  0  0  0  0  0
    2.7806   -1.6876   -2.2079 H   0  0  0  0  0  0  0  0  0  0  0  0
    3.9241   -1.9284   -0.9044 H   0  0  0  0  0  0  0  0  0  0  0  0
   -5.8834    0.4762   -0.6241 H   0  0  0  0  0  0  0  0  0  0  0  0
   -5.2862   -0.1883    0.9417 H   0  0  0  0  0  0  0  0  0  0  0  0
   -3.5807    0.6914   -1.3974 H   0  0  0  0  0  0  0  0  0  0  0  0
   -3.5997   -1.2883    0.9170 H   0  0  0  0  0  0  0  0  0  0  0  0
   -1.5361   -0.5529    1.3839 H   0  0  0  0  0  0  0  0  0  0  0  0
   -1.2880    0.2025   -1.5913 H   0  0  0  0  0  0  0  0  0  0  0  0
   -1.0024    2.3241    0.5302 H   0  0  0  0  0  0  0  0  0  0  0  0
   -2.8951    0.9770    1.5821 H   0  0  0  0  0  0  0  0  0  0  0  0
    0.6513    0.8403    0.7086 H   0  0  0  0  0  0  0  0  0  0  0  0
    0.7167    1.5632   -0.8930 H   0  0  0  0  0  0  0  0  0  0  0  0
   -4.4155    4.0998    1.6685 H   0  0  0  0  0  0  0  0  0  0  0  0
   -1.5494    1.9511   -2.0665 H   0  0  0  0  0  0  0  0  0  0  0  0
    6.7867    1.1624    0.4766 H   0  0  0  0  0  0  0  0  0  0  0  0
    6.4160   -2.0190    1.2243 H   0  0  0  0  0  0  0  0  0  0  0  0
   -4.0213    2.9351   -0.4467 H   0  0  0  0  0  0  0  0  0  0  0  0
    1.1656   -1.4227   -0.5139 H   0  0  0  0  0  0  0  0  0  0  0  0
    0.9875   -0.4615   -1.9817 H   0  0  0  0  0  0  0  0  0  0  0  0
    2.8056    0.9707   -1.2505 H   0  0  0  0  0  0  0  0  0  0  0  0
    2.9269   -0.9138    1.1527 H   0  0  0  0  0  0  0  0  0  0  0  0
    2.5048    0.8579    1.1272 H   0  0  0  0  0  0  0  0  0  0  0  0
    4.7596    0.5871    1.9603 H   0  0  0  0  0  0  0  0  0  0  0  0
    4.8025    1.4553    0.4152 H   0  0  0  0  0  0  0  0  0  0  0  0
    5.7169   -0.5925   -0.7228 H   0  0  0  0  0  0  0  0  0  0  0  0
   -3.7213   -1.1417   -2.1941 H   0  0  0  0  0  0  0  0  0  0  0  0
   -2.1038   -1.7789   -1.8519 H   0  0  0  0  0  0  0  0  0  0  0  0
   -3.6155   -2.7117   -1.3762 H   0  0  0  0  0  0  0  0  0  0  0  0
   -1.3406   -2.8107    2.0175 H   0  0  0  0  0  0  0  0  0  0  0  0
    0.0311   -1.6893    1.9896 H   0  0  0  0  0  0  0  0  0  0  0  0
    0.2387   -3.2416    1.1549 H   0  0  0  0  0  0  0  0  0  0  0  0
    4.1102   -0.5788   -2.3114 H   0  0  0  0  0  0  0  0  0  0  0  0
    2.6477   -1.5785   -2.2975 H   0  0  0  0  0  0  0  0  0  0  0  0
    3.8214   -1.8662   -0.9933 H   0  0  0  0  0  0  0  0  0  0  0  0
   -5.8674    0.0733   -0.5918 H   0  0  0  0  0  0  0  0  0  0  0  0
   -5.2491   -0.1589    1.0800 H   0  0  0  0  0  0  0  0  0  0  0  0
   -3.6035    0.7457   -1.3206 H   0  0  0  0  0  0  0  0  0  0  0  0
   -3.6687   -1.4782    0.7113 H   0  0  0  0  0  0  0  0  0  0  0  0
   -1.7629   -0.5548    1.4270 H   0  0  0  0  0  0  0  0  0  0  0  0
   -1.4000    0.3053   -1.4685 H   0  0  0  0  0  0  0  0  0  0  0  0
   -1.1042    2.2389    0.8374 H   0  0  0  0  0  0  0  0  0  0  0  0
   -3.1227    1.0145    1.7046 H   0  0  0  0  0  0  0  0  0  0  0  0
    0.6495    0.7172    0.8294 H   0  0  0  0  0  0  0  0  0  0  0  0
    0.6571    1.6302   -0.6723 H   0  0  0  0  0  0  0  0  0  0  0  0
   -3.4122    4.0740    1.2478 H   0  0  0  0  0  0  0  0  0  0  0  0
   -1.2558    2.2837   -1.6795 H   0  0  0  0  0  0  0  0  0  0  0  0
    6.9066    1.0285    0.3542 H   0  0  0  0  0  0  0  0  0  0  0  0
    6.5681   -2.0812    1.0469 H   0  0  0  0  0  0  0  0  0  0  0  0
  2  3  1  0
  3  4  1  0
  4  5  1  0
  5  6  1  0
  3  9  1  0
 10 11  1  0
  7 12  1  0
 11 12  1  0
 12 13  1  0
 13 14  1  0
 14 15  1  0
  1 16  1  0
 11 16  1  0
 15 16  1  0
  2 17  1  0
 14 17  1  0
  1 18  1  0
  1 19  1  0
 10 19  1  0
  8 20  1  0
 13 20  1  0
 15 21  1  0
  6 22  1  0
  6 23  1  0
 25 26  1  0
 26 27  1  0
 27 28  1  0
 28 29  1  0
 26 32  1  0
 33 34  1  0
 30 35  1  0
 34 35  1  0
 35 36  1  0
 36 37  1  0
 37 38  1  0
 24 39  1  0
 34 39  1  0
 38 39  1  0
 25 40  1  0
 37 40  1  0
 24 41  1  0
 24 42  1  0
 33 42  1  0
 31 43  1  0
 36 43  1  0
 38 44  1  0
 29 45  1  0
 29 46  1  0
  1 47  1  0
  2 48  1  0
  2 49  1  0
  3 50  1  0
  4 51  1  0
  4 52  1  0
  5 53  1  0
  5 54  1  0
  6 55  1  0
  7 56  1  0
  7 57  1  0
  7 58  1  0
  8 59  1  0
  8 60  1  0
  8 61  1  0
  9 62  1  0
  9 63  1  0
  9 64  1  0
 10 65  1  0
 10 66  1  0
 11 67  1  0
 12 68  1  0
 13 69  1  0
 14 70  1  6
 15 71  1  0
 16 72  1  0
 17 73  1  0
 17 74  1  0
 18 75  1  0
 21 76  1  0
 22 77  1  0
 23 78  1  0
 24 79  1  6
 25 80  1  0
 25 81  1  0
 26 82  1  0
 27 83  1  0
 27 84  1  0
 28 85  1  0
 28 86  1  0
 29 87  1  0
 30 88  1  0
 30 89  1  0
 30 90  1  0
 31 91  1  0
 31 92  1  0
 31 93  1  0
 32 94  1  0
 32 95  1  0
 32 96  1  0
 33 97  1  0
 33 98  1  0
 34 99  1  0
 35100  1  1
 36101  1  1
 37102  1  6
 38103  1  1
 39104  1  0
 40105  1  0
 40106  1  0
 41107  1  0
 44108  1  0
 45109  1  0
 46110  1  0
M  END
>  <PDBID>  (1) 
1JR1

>  <PDB ID>  (1) 
1JR1

>  <Generic Name>  (1) 
Mycophenolic acid

>  <Brand Name>  (1) 
Apo-mycophenolic Acid#Mycophenolic Acid#Myfortic#Melbex

>  <DrugBank ID>  (1) 
DB01024

>  <ATC Codes>  (1) 
L04AA06

>  <Ligand ID>  (1) 
MOA

>  <Target Name>  (1) 
Inosine-5'-monophosphate dehydrogenase 2

>  <UniProt ID>  (1) 
P12268

>  <PDB ID.1>  (1) 
1JR1

>  <Seq. Identity>  (1) 
99%

$$$$
