PDB_DB05239_05
     RDKit          3D

 65 68  0  0  0  0  0  0  0  0999 V2000
   -0.5526   -0.9320    1.0587 O   0  0  0  0  0  0  0  0  0  0  0  0
   -0.0389    0.3457    0.8995 C   0  0  0  0  0  0  0  0  0  0  0  0
   -0.9290    1.1968    0.0445 C   0  0  0  0  0  0  0  0  0  0  0  0
   -0.3662    2.5988   -0.1301 C   0  0  0  0  0  0  0  0  0  0  0  0
   -0.4453    3.3902    1.1429 C   0  0  0  0  0  0  0  0  0  0  0  0
   -1.8861    3.4373    1.5965 C   0  0  2  0  0  0  0  0  0  0  0  0
   -2.0234    4.2236    2.7374 F   0  0  0  0  0  0  0  0  0  0  0  0
   -2.3485    2.0269    1.8653 C   0  0  1  0  0  0  0  0  0  0  0  0
   -3.6288    2.1231    2.3962 F   0  0  0  0  0  0  0  0  0  0  0  0
   -2.3491    1.2539    0.5723 C   0  0  2  0  0  0  0  0  0  0  0  0
   -2.8789   -0.0499    0.7217 N   0  0  0  0  0  0  0  0  0  0  0  0
   -3.0803   -0.8257   -0.4698 C   0  0  0  0  0  0  0  0  0  0  0  0
   -4.1217   -0.1901   -1.3809 C   0  0  0  0  0  0  0  0  0  0  0  0
   -5.4751   -0.4266   -0.6991 C   0  0  0  0  0  0  0  0  0  0  0  0
   -5.8381   -1.8620   -0.9499 C   0  0  1  0  0  0  0  0  0  0  0  0
   -6.6188   -2.0750   -2.9444 I   0  0  0  0  0  0  0  0  0  0  0  0
   -3.5130   -2.2034   -0.0284 C   0  0  0  0  0  0  0  0  0  0  0  0
   -3.8274   -2.1968    1.3006 F   0  0  0  0  0  0  0  0  0  0  0  0
   -4.6464   -2.7508   -0.8572 C   0  0  0  0  0  0  0  0  0  0  0  0
    1.3458    0.3539    0.5399 N   0  0  0  0  0  0  0  0  0  0  0  0
    1.7286   -0.1281   -0.7475 C   0  0  0  0  0  0  0  0  0  0  0  0
    2.6306   -1.1966   -0.2001 C   0  0  0  0  0  0  0  0  0  0  0  0
    1.9734   -0.8538    1.1042 C   0  0  0  0  0  0  0  0  0  0  0  0
    2.3070   -2.4924   -0.6706 O   0  0  0  0  0  0  0  0  0  0  0  0
    4.0973   -0.9988   -0.2892 C   0  0  2  0  0  0  0  0  0  0  0  0
    4.6444    0.2322    0.3573 C   0  0  0  0  0  0  0  0  0  0  0  0
    6.1684    0.0177    0.4238 C   0  0  0  0  0  0  0  0  0  0  0  0
    6.7321   -0.2545   -0.9363 C   0  0  0  0  0  0  0  0  0  0  0  0
    5.6502   -0.2800   -1.9655 C   0  0  0  0  0  0  0  0  0  0  0  0
    4.5411   -1.1296   -1.6540 N   0  0  0  0  0  0  0  0  0  0  0  0
   -0.9140   -1.1250    1.9376 H   0  0  0  0  0  0  0  0  0  0  0  0
   -0.0689    0.7975    1.9425 H   0  0  0  0  0  0  0  0  0  0  0  0
   -0.9761    0.7537   -0.9688 H   0  0  0  0  0  0  0  0  0  0  0  0
    0.6355    2.4945   -0.5485 H   0  0  0  0  0  0  0  0  0  0  0  0
   -1.0167    3.1026   -0.8756 H   0  0  0  0  0  0  0  0  0  0  0  0
    0.1865    2.9748    1.9412 H   0  0  0  0  0  0  0  0  0  0  0  0
   -0.1503    4.4416    0.8687 H   0  0  0  0  0  0  0  0  0  0  0  0
   -2.5564    3.8497    0.8231 H   0  0  0  0  0  0  0  0  0  0  0  0
   -1.7255    1.6065    2.6585 H   0  0  0  0  0  0  0  0  0  0  0  0
   -2.9569    1.8710   -0.1463 H   0  0  0  0  0  0  0  0  0  0  0  0
   -3.6176   -0.1594    1.4278 H   0  0  0  0  0  0  0  0  0  0  0  0
   -2.1624   -0.8717   -1.0787 H   0  0  0  0  0  0  0  0  0  0  0  0
   -3.9759    0.8655   -1.5671 H   0  0  0  0  0  0  0  0  0  0  0  0
   -4.1704   -0.7215   -2.3512 H   0  0  0  0  0  0  0  0  0  0  0  0
   -5.4094   -0.2469    0.3948 H   0  0  0  0  0  0  0  0  0  0  0  0
   -6.2426    0.2290   -1.1884 H   0  0  0  0  0  0  0  0  0  0  0  0
   -6.6622   -2.1664   -0.2588 H   0  0  0  0  0  0  0  0  0  0  0  0
   -2.6512   -2.8821   -0.1545 H   0  0  0  0  0  0  0  0  0  0  0  0
   -4.9845   -3.6865   -0.3307 H   0  0  0  0  0  0  0  0  0  0  0  0
   -4.2877   -3.0924   -1.8483 H   0  0  0  0  0  0  0  0  0  0  0  0
    2.3489    0.6311   -1.2810 H   0  0  0  0  0  0  0  0  0  0  0  0
    0.8936   -0.4603   -1.4003 H   0  0  0  0  0  0  0  0  0  0  0  0
    1.2265   -1.6186    1.4675 H   0  0  0  0  0  0  0  0  0  0  0  0
    2.5993   -0.5730    1.9490 H   0  0  0  0  0  0  0  0  0  0  0  0
    2.0301   -3.0849    0.0517 H   0  0  0  0  0  0  0  0  0  0  0  0
    4.5672   -1.8700    0.2560 H   0  0  0  0  0  0  0  0  0  0  0  0
    4.3400    0.3091    1.4130 H   0  0  0  0  0  0  0  0  0  0  0  0
    4.4825    1.1534   -0.2308 H   0  0  0  0  0  0  0  0  0  0  0  0
    6.3033   -0.9306    1.0178 H   0  0  0  0  0  0  0  0  0  0  0  0
    6.6679    0.8117    0.9805 H   0  0  0  0  0  0  0  0  0  0  0  0
    7.4621    0.5355   -1.2089 H   0  0  0  0  0  0  0  0  0  0  0  0
    7.2684   -1.2366   -0.9940 H   0  0  0  0  0  0  0  0  0  0  0  0
    5.3480    0.7581   -2.2644 H   0  0  0  0  0  0  0  0  0  0  0  0
    6.1169   -0.7051   -2.8990 H   0  0  0  0  0  0  0  0  0  0  0  0
    4.8003   -2.1082   -1.8942 H   0  0  0  0  0  0  0  0  0  0  0  0
  1  2  1  0
  2  3  1  0
  3  4  1  0
  4  5  1  0
  5  6  1  0
  6  7  1  0
  6  8  1  0
  8  9  1  0
  3 10  1  0
  8 10  1  0
 10 11  1  0
 11 12  1  0
 12 13  1  0
 13 14  1  0
 14 15  1  0
 15 16  1  0
 12 17  1  0
 17 18  1  0
 15 19  1  0
 17 19  1  0
  2 20  1  0
 20 21  1  0
 21 22  1  0
 20 23  1  0
 22 23  1  0
 22 24  1  0
 22 25  1  0
 25 26  1  0
 26 27  1  0
 27 28  1  0
 28 29  1  0
 25 30  1  0
 29 30  1  0
  1 31  1  0
  2 32  1  0
  3 33  1  0
  4 34  1  0
  4 35  1  0
  5 36  1  0
  5 37  1  0
  6 38  1  6
  8 39  1  1
 10 40  1  6
 11 41  1  0
 12 42  1  0
 13 43  1  0
 13 44  1  0
 14 45  1  0
 14 46  1  0
 15 47  1  1
 17 48  1  0
 19 49  1  0
 19 50  1  0
 21 51  1  0
 21 52  1  0
 23 53  1  0
 23 54  1  0
 24 55  1  0
 25 56  1  1
 26 57  1  0
 26 58  1  0
 27 59  1  0
 27 60  1  0
 28 61  1  0
 28 62  1  0
 29 63  1  0
 29 64  1  0
 30 65  1  0
M  END
>  <PDBID>  (1) 
4LMN

>  <PDB ID>  (1) 
4LMN

>  <Generic Name>  (1) 
Cobimetinib

>  <Brand Name>  (1) 
Cotellic

>  <DrugBank ID>  (1) 
DB05239

>  <ATC Codes>  (1) 
nan

>  <Ligand ID>  (1) 
EUI

>  <Target Name>  (1) 
Dual specificity mitogen-activated protein kinase kinase 1

>  <UniProt ID>  (1) 
Q02750

>  <PDB ID.1>  (1) 
4LMN

>  <Seq. Identity>  (1) 
97%

$$$$
