PDB_DB00148_08
     RDKit          3D

 22 21  0  0  0  0  0  0  0  0999 V2000
    3.0277   -0.8046   -1.0040 O   0  0  0  0  0  0  0  0  0  0  0  0
    2.0143   -0.1661   -0.3405 C   0  0  0  0  0  0  0  0  0  0  0  0
    1.9487   -0.4236    1.0253 O   0  0  0  0  0  0  0  0  0  0  0  0
    0.6354   -0.4072   -0.9699 C   0  0  0  0  0  0  0  0  0  0  0  0
   -0.2838    0.3007   -0.1436 N   0  0  0  0  0  0  0  0  0  0  0  0
   -0.1820    1.7206   -0.2068 C   0  0  0  0  0  0  0  0  0  0  0  0
   -1.5893   -0.2458   -0.0217 C   0  0  0  0  0  0  0  0  0  0  0  0
   -2.3091    0.6000    0.9407 N   0  0  0  0  0  0  0  0  0  0  0  0
   -1.4835   -1.5741    0.5296 N   0  0  0  0  0  0  0  0  0  0  0  0
    3.8832   -0.5334   -0.5883 H   0  0  0  0  0  0  0  0  0  0  0  0
    2.1842    0.9352   -0.4346 H   0  0  0  0  0  0  0  0  0  0  0  0
    2.5539   -1.1217    1.3216 H   0  0  0  0  0  0  0  0  0  0  0  0
    0.7180   -0.0480   -2.0169 H   0  0  0  0  0  0  0  0  0  0  0  0
    0.3973   -1.4844   -1.0191 H   0  0  0  0  0  0  0  0  0  0  0  0
   -1.1634    2.2275   -0.4496 H   0  0  0  0  0  0  0  0  0  0  0  0
    0.6085    2.0905   -0.9151 H   0  0  0  0  0  0  0  0  0  0  0  0
    0.1058    2.1282    0.7856 H   0  0  0  0  0  0  0  0  0  0  0  0
   -2.2010   -0.2217   -0.9457 H   0  0  0  0  0  0  0  0  0  0  0  0
   -3.2872    0.2839    1.0485 H   0  0  0  0  0  0  0  0  0  0  0  0
   -1.7520    0.5622    1.8276 H   0  0  0  0  0  0  0  0  0  0  0  0
   -1.6530   -1.6372    1.5528 H   0  0  0  0  0  0  0  0  0  0  0  0
   -2.1727   -2.1807    0.0240 H   0  0  0  0  0  0  0  0  0  0  0  0
  1  2  1  0
  2  3  1  0
  2  4  1  0
  4  5  1  0
  5  6  1  0
  5  7  1  0
  7  8  1  0
  7  9  1  0
  1 10  1  0
  2 11  1  0
  3 12  1  0
  4 13  1  0
  4 14  1  0
  6 15  1  0
  6 16  1  0
  6 17  1  0
  7 18  1  0
  8 19  1  0
  8 20  1  0
  9 21  1  0
  9 22  1  0
M  END
>  <PDBID>  (1) 
3B6R

>  <PDB ID>  (1) 
3B6R

>  <Generic Name>  (1) 
Creatine

>  <Brand Name>  (1) 
nan

>  <DrugBank ID>  (1) 
DB00148

>  <ATC Codes>  (1) 
nan

>  <Ligand ID>  (1) 
CRN

>  <Target Name>  (1) 
Creatine kinase B-type

>  <UniProt ID>  (1) 
P12277

>  <PDB ID.1>  (1) 
3B6R

>  <Seq. Identity>  (1) 
96%

$$$$
