PDB_DB00551_03
     RDKit          3D

 12 11  0  0  0  0  0  0  0  0999 V2000
   -0.8670   -0.8280   -0.3061 C   0  0  0  0  0  0  0  0  0  0  0  0
   -0.1405    0.4889   -0.0750 C   0  0  0  0  0  0  0  0  0  0  0  0
   -0.8882    1.3689    0.6812 O   0  0  0  0  0  0  0  0  0  0  0  0
    1.0981    0.2675    0.6817 N   0  0  0  0  0  0  0  0  0  0  0  0
    1.8666   -0.5714   -0.0619 O   0  0  0  0  0  0  0  0  0  0  0  0
   -0.8568   -1.4683    0.6074 H   0  0  0  0  0  0  0  0  0  0  0  0
   -1.9204   -0.6128   -0.5382 H   0  0  0  0  0  0  0  0  0  0  0  0
   -0.4062   -1.3775   -1.1352 H   0  0  0  0  0  0  0  0  0  0  0  0
    0.1165    0.8730   -1.0839 H   0  0  0  0  0  0  0  0  0  0  0  0
   -1.4461    1.9864    0.1533 H   0  0  0  0  0  0  0  0  0  0  0  0
    0.9192   -0.1420    1.6013 H   0  0  0  0  0  0  0  0  0  0  0  0
    2.5247    0.0154   -0.5245 H   0  0  0  0  0  0  0  0  0  0  0  0
  1  2  1  0
  2  3  1  0
  2  4  1  0
  5  4  1  0
  1  6  1  0
  1  7  1  0
  1  8  1  0
  2  9  1  0
  3 10  1  0
  4 11  1  0
  5 12  1  0
M  END
>  <PDBID>  (1) 
1FWE

>  <PDB ID>  (1) 
1FWE

>  <Generic Name>  (1) 
Acetohydroxamic Acid

>  <Brand Name>  (1) 
Lithostat

>  <DrugBank ID>  (1) 
DB00551

>  <ATC Codes>  (1) 
G04BX03

>  <Ligand ID>  (1) 
HAE

>  <Target Name>  (1) 
Urease subunit alpha

>  <UniProt ID>  (1) 
P18314

>  <PDB ID.1>  (1) 
1FWE

>  <Seq. Identity>  (1) 
95%

$$$$
