PDB_DB01132_06
     RDKit          3D

122126  0  0  0  0  0  0  0  0999 V2000
    6.7786   -1.7959    0.0252 O   0  0  0  0  0  0  0  0  0  0  0  0
    5.4855   -1.2351    0.0687 C   0  0  1  0  0  0  0  0  0  0  0  0
    5.3197   -0.4467    1.2766 N   0  0  0  0  0  0  0  0  0  0  0  0
    5.3285   -0.2785   -1.0738 C   0  0  2  0  0  0  0  0  0  0  0  0
    6.5590    0.9792   -0.4458 S   0  0  0  0  0  0  0  0  0  0  0  0
    6.4112    0.5015    1.3249 C   0  0  0  0  0  0  0  0  0  0  0  0
    5.9487    1.6310    1.9875 O   0  0  0  0  0  0  0  0  0  0  0  0
    4.0802    0.4400   -1.2401 C   0  0  0  0  0  0  0  0  0  0  0  0
   -4.6685    1.7321   -0.5207 C   0  0  0  0  0  0  0  0  0  0  0  0
    2.7806   -0.2410   -1.4977 C   0  0  0  0  0  0  0  0  0  0  0  0
    1.7701    0.9218   -1.5890 C   0  0  0  0  0  0  0  0  0  0  0  0
    0.3550    0.5096   -1.6275 C   0  0  0  0  0  0  0  0  0  0  0  0
    0.0289   -0.4106   -0.4445 C   0  0  0  0  0  0  0  0  0  0  0  0
    0.8999   -1.6467   -0.7327 C   0  0  0  0  0  0  0  0  0  0  0  0
    2.3667   -1.3201   -0.5894 C   0  0  0  0  0  0  0  0  0  0  0  0
    0.3590    0.1999    0.6908 O   0  0  0  0  0  0  0  0  0  0  0  0
   -0.4542    0.4650    1.7058 C   0  0  0  0  0  0  0  0  0  0  0  0
   -1.5917    1.4007    1.5944 C   0  0  0  0  0  0  0  0  0  0  0  0
   -6.7392   -1.3548    0.3226 C   0  0  0  0  0  0  0  0  0  0  0  0
   -6.2779    0.0729    0.3802 C   0  0  0  0  0  0  0  0  0  0  0  0
   -5.1362    0.3004   -0.5738 C   0  0  0  0  0  0  0  0  0  0  0  0
   -4.0109   -0.6646   -0.2642 C   0  0  0  0  0  0  0  0  0  0  0  0
   -3.2448   -0.2652    0.8967 N   0  0  0  0  0  0  0  0  0  0  0  0
   -3.8249    2.0138    0.6896 C   0  0  0  0  0  0  0  0  0  0  0  0
   -2.6311    1.0077    0.6183 C   0  0  0  0  0  0  0  0  0  0  0  0
    6.4903   -0.5696    1.6274 O   0  0  0  0  0  0  0  0  0  0  0  0
    6.5221   -0.7585    0.2606 C   0  0  0  0  0  0  0  0  0  0  0  0
    7.1441    0.3639   -0.3438 N   0  0  0  0  0  0  0  0  0  0  0  0
    5.1033   -0.8748   -0.2934 C   0  0  2  0  0  0  0  0  0  0  0  0
    5.4365   -0.4133   -2.0429 S   0  0  0  0  0  0  0  0  0  0  0  0
    7.1567    0.1841   -1.7799 C   0  0  0  0  0  0  0  0  0  0  0  0
    7.2482    1.4184   -2.3808 O   0  0  0  0  0  0  0  0  0  0  0  0
    4.1827    0.1112    0.3400 C   0  0  0  0  0  0  0  0  0  0  0  0
   -4.5494    2.0150   -0.2129 C   0  0  0  0  0  0  0  0  0  0  0  0
    2.8077   -0.0454   -0.2396 C   0  0  0  0  0  0  0  0  0  0  0  0
    1.8965    0.9856    0.4344 C   0  0  0  0  0  0  0  0  0  0  0  0
    0.5568    0.9139   -0.2900 C   0  0  0  0  0  0  0  0  0  0  0  0
   -0.1027   -0.4377    0.0456 C   0  0  0  0  0  0  0  0  0  0  0  0
    0.8773   -1.4606   -0.5855 C   0  0  0  0  0  0  0  0  0  0  0  0
    2.2014   -1.3951    0.1113 C   0  0  0  0  0  0  0  0  0  0  0  0
   -0.1787   -0.5464    1.3564 O   0  0  0  0  0  0  0  0  0  0  0  0
   -1.2197   -0.7570    2.1301 C   0  0  0  0  0  0  0  0  0  0  0  0
   -2.2670    0.2883    2.1989 C   0  0  0  0  0  0  0  0  0  0  0  0
   -6.6903   -0.8638   -1.3854 C   0  0  0  0  0  0  0  0  0  0  0  0
   -6.3004    0.3280   -0.5134 C   0  0  0  0  0  0  0  0  0  0  0  0
   -4.9784    0.8327   -1.0461 C   0  0  0  0  0  0  0  0  0  0  0  0
   -3.9886   -0.2849   -1.0114 C   0  0  0  0  0  0  0  0  0  0  0  0
   -3.5971   -0.5979    0.3450 N   0  0  0  0  0  0  0  0  0  0  0  0
   -4.1085    1.5909    1.1691 C   0  0  0  0  0  0  0  0  0  0  0  0
   -2.9472    0.5591    0.9108 C   0  0  0  0  0  0  0  0  0  0  0  0
    6.8417   -2.4338    0.7907 H   0  0  0  0  0  0  0  0  0  0  0  0
    4.7751   -2.0225    0.0479 H   0  0  0  0  0  0  0  0  0  0  0  0
    5.4085   -1.0823    2.0749 H   0  0  0  0  0  0  0  0  0  0  0  0
    5.7523   -0.7254   -2.0083 H   0  0  0  0  0  0  0  0  0  0  0  0
    7.3417    0.0959    1.7139 H   0  0  0  0  0  0  0  0  0  0  0  0
    6.6387    2.1558    2.4234 H   0  0  0  0  0  0  0  0  0  0  0  0
    4.1865    1.1873   -2.1071 H   0  0  0  0  0  0  0  0  0  0  0  0
    3.9240    1.0772   -0.3123 H   0  0  0  0  0  0  0  0  0  0  0  0
   -4.0429    1.9559   -1.4278 H   0  0  0  0  0  0  0  0  0  0  0  0
   -5.5460    2.3820   -0.5830 H   0  0  0  0  0  0  0  0  0  0  0  0
    2.8288   -0.7084   -2.5437 H   0  0  0  0  0  0  0  0  0  0  0  0
    2.0190    1.6009   -0.7321 H   0  0  0  0  0  0  0  0  0  0  0  0
    2.0223    1.4793   -2.5154 H   0  0  0  0  0  0  0  0  0  0  0  0
   -0.2725    1.4015   -1.5150 H   0  0  0  0  0  0  0  0  0  0  0  0
    0.1316    0.0229   -2.5782 H   0  0  0  0  0  0  0  0  0  0  0  0
   -1.0007   -0.7609   -0.5967 H   0  0  0  0  0  0  0  0  0  0  0  0
    0.7051   -1.8907   -1.8023 H   0  0  0  0  0  0  0  0  0  0  0  0
    0.5855   -2.4984   -0.1202 H   0  0  0  0  0  0  0  0  0  0  0  0
    2.6123   -1.1496    0.4814 H   0  0  0  0  0  0  0  0  0  0  0  0
    2.8659   -2.2786   -0.9757 H   0  0  0  0  0  0  0  0  0  0  0  0
   -0.9013   -0.5077    2.1524 H   0  0  0  0  0  0  0  0  0  0  0  0
    0.1834    0.8572    2.5871 H   0  0  0  0  0  0  0  0  0  0  0  0
   -2.1006    1.4256    2.6127 H   0  0  0  0  0  0  0  0  0  0  0  0
   -1.2497    2.4660    1.4437 H   0  0  0  0  0  0  0  0  0  0  0  0
   -7.8564   -1.4056    0.3959 H   0  0  0  0  0  0  0  0  0  0  0  0
   -6.2583   -1.9951    1.0908 H   0  0  0  0  0  0  0  0  0  0  0  0
   -6.4225   -1.7493   -0.6855 H   0  0  0  0  0  0  0  0  0  0  0  0
   -7.0980    0.7894    0.1652 H   0  0  0  0  0  0  0  0  0  0  0  0
   -5.9249    0.3006    1.4020 H   0  0  0  0  0  0  0  0  0  0  0  0
   -5.4486    0.0995   -1.6296 H   0  0  0  0  0  0  0  0  0  0  0  0
   -4.4782   -1.6585   -0.0694 H   0  0  0  0  0  0  0  0  0  0  0  0
   -3.3329   -0.6650   -1.1329 H   0  0  0  0  0  0  0  0  0  0  0  0
   -2.6080   -1.0237    1.1549 H   0  0  0  0  0  0  0  0  0  0  0  0
   -3.4289    3.0284    0.6352 H   0  0  0  0  0  0  0  0  0  0  0  0
   -4.3973    1.8138    1.6224 H   0  0  0  0  0  0  0  0  0  0  0  0
   -2.3470    1.0532   -0.4413 H   0  0  0  0  0  0  0  0  0  0  0  0
    5.7571   -1.0185    2.0807 H   0  0  0  0  0  0  0  0  0  0  0  0
    7.1110   -1.6693    0.0549 H   0  0  0  0  0  0  0  0  0  0  0  0
    6.7868    1.2807   -0.0702 H   0  0  0  0  0  0  0  0  0  0  0  0
    4.7956   -1.9295   -0.2091 H   0  0  0  0  0  0  0  0  0  0  0  0
    7.8843   -0.5540   -2.1120 H   0  0  0  0  0  0  0  0  0  0  0  0
    7.5147    2.1218   -1.7620 H   0  0  0  0  0  0  0  0  0  0  0  0
    4.5372    1.1312    0.0043 H   0  0  0  0  0  0  0  0  0  0  0  0
    4.1719    0.0891    1.4313 H   0  0  0  0  0  0  0  0  0  0  0  0
   -3.6398    2.4531   -0.7064 H   0  0  0  0  0  0  0  0  0  0  0  0
   -5.3650    2.7360   -0.2053 H   0  0  0  0  0  0  0  0  0  0  0  0
    2.7631    0.1389   -1.3145 H   0  0  0  0  0  0  0  0  0  0  0  0
    1.6954    0.6952    1.4901 H   0  0  0  0  0  0  0  0  0  0  0  0
    2.2775    2.0081    0.3214 H   0  0  0  0  0  0  0  0  0  0  0  0
   -0.1227    1.7035    0.0823 H   0  0  0  0  0  0  0  0  0  0  0  0
    0.6822    0.9612   -1.3777 H   0  0  0  0  0  0  0  0  0  0  0  0
   -0.9831   -0.5217   -0.5911 H   0  0  0  0  0  0  0  0  0  0  0  0
    0.9951   -1.1102   -1.6329 H   0  0  0  0  0  0  0  0  0  0  0  0
    0.4408   -2.4597   -0.6142 H   0  0  0  0  0  0  0  0  0  0  0  0
    2.0777   -1.4141    1.2133 H   0  0  0  0  0  0  0  0  0  0  0  0
    2.7980   -2.2504   -0.1987 H   0  0  0  0  0  0  0  0  0  0  0  0
   -1.7900   -1.7198    1.8895 H   0  0  0  0  0  0  0  0  0  0  0  0
   -0.9112   -0.9283    3.2341 H   0  0  0  0  0  0  0  0  0  0  0  0
   -3.0066    0.0918    3.0297 H   0  0  0  0  0  0  0  0  0  0  0  0
   -1.7530    1.2318    2.5680 H   0  0  0  0  0  0  0  0  0  0  0  0
   -7.7958   -0.9377   -1.4186 H   0  0  0  0  0  0  0  0  0  0  0  0
   -6.2916   -1.7948   -0.9019 H   0  0  0  0  0  0  0  0  0  0  0  0
   -6.2762   -0.7092   -2.3913 H   0  0  0  0  0  0  0  0  0  0  0  0
   -7.0872    1.1181   -0.5559 H   0  0  0  0  0  0  0  0  0  0  0  0
   -6.1430   -0.0032    0.5227 H   0  0  0  0  0  0  0  0  0  0  0  0
   -5.0686    1.1955   -2.0909 H   0  0  0  0  0  0  0  0  0  0  0  0
   -4.4448   -1.1537   -1.5285 H   0  0  0  0  0  0  0  0  0  0  0  0
   -3.0769    0.0790   -1.5482 H   0  0  0  0  0  0  0  0  0  0  0  0
   -4.3704   -0.9116    0.9397 H   0  0  0  0  0  0  0  0  0  0  0  0
   -3.5953    2.4314    1.6648 H   0  0  0  0  0  0  0  0  0  0  0  0
   -4.8929    1.1176    1.7594 H   0  0  0  0  0  0  0  0  0  0  0  0
   -2.3701    1.0688    0.1385 H   0  0  0  0  0  0  0  0  0  0  0  0
  1  2  1  0
  2  3  1  0
  2  4  1  0
  4  5  1  0
  3  6  1  0
  5  6  1  0
  6  7  1  0
  4  8  1  0
  8 10  1  0
 10 11  1  0
 11 12  1  0
 12 13  1  0
 13 14  1  0
 10 15  1  0
 14 15  1  0
 13 16  1  0
 16 17  1  0
 17 18  1  0
 19 20  1  0
  9 21  1  0
 20 21  1  0
 21 22  1  0
 22 23  1  0
  9 24  1  0
 18 25  1  0
 23 25  1  0
 24 25  1  0
 26 27  1  0
 27 28  1  0
 27 29  1  0
 29 30  1  0
 28 31  1  0
 30 31  1  0
 31 32  1  0
 29 33  1  0
 33 35  1  0
 35 36  1  0
 36 37  1  0
 37 38  1  0
 38 39  1  0
 35 40  1  0
 39 40  1  0
 38 41  1  0
 41 42  1  0
 42 43  1  0
 44 45  1  0
 34 46  1  0
 45 46  1  0
 46 47  1  0
 47 48  1  0
 34 49  1  0
 43 50  1  0
 48 50  1  0
 49 50  1  0
  1 51  1  0
  2 52  1  6
  3 53  1  0
  4 54  1  6
  6 55  1  0
  7 56  1  0
  8 57  1  0
  8 58  1  0
  9 59  1  0
  9 60  1  0
 10 61  1  0
 11 62  1  0
 11 63  1  0
 12 64  1  0
 12 65  1  0
 13 66  1  0
 14 67  1  0
 14 68  1  0
 15 69  1  0
 15 70  1  0
 17 71  1  0
 17 72  1  0
 18 73  1  0
 18 74  1  0
 19 75  1  0
 19 76  1  0
 19 77  1  0
 20 78  1  0
 20 79  1  0
 21 80  1  0
 22 81  1  0
 22 82  1  0
 23 83  1  0
 24 84  1  0
 24 85  1  0
 25 86  1  0
 26 87  1  0
 27 88  1  0
 28 89  1  0
 29 90  1  6
 31 91  1  0
 32 92  1  0
 33 93  1  0
 33 94  1  0
 34 95  1  0
 34 96  1  0
 35 97  1  0
 36 98  1  0
 36 99  1  0
 37100  1  0
 37101  1  0
 38102  1  0
 39103  1  0
 39104  1  0
 40105  1  0
 40106  1  0
 42107  1  0
 42108  1  0
 43109  1  0
 43110  1  0
 44111  1  0
 44112  1  0
 44113  1  0
 45114  1  0
 45115  1  0
 46116  1  0
 47117  1  0
 47118  1  0
 48119  1  0
 49120  1  0
 49121  1  0
 50122  1  0
M  END
>  <PDBID>  (1) 
2XKW

>  <PDB ID>  (1) 
2XKW

>  <Generic Name>  (1) 
Pioglitazone

>  <Brand Name>  (1) 
Accel Pioglitazone#Ach-pioglitazone#Act Pioglitazone#Actoplus Met#Actoplus Met XR#Actos#Actos (15mg)#Actos (30mg)#Actos (45mg)#Ag-pioglitazone#Alogliptin and Pioglitazone#Apo-pioglitazone#Auro-pioglitazone#Ava-pioglitazone#Dom-pioglitazone#Duetact#Jamp-pioglitazone#Mint-pioglitazone#Mylan-pioglitazone#Oseni#PHL-pioglitazone#PMS-pioglitazone#Pioglitazole and Metformin Hydrochloride#Pioglitazone#Pioglitazone HCl#Pioglitazone HCl and Metformin HCl#Pioglitazone Hydrochloride#Pioglitazone Hydrochloride and Glimepiride#Pioglitazone Hydrochloride and Metformin Hydrochloride#Pioglitazone and Glimepiride#Pioglitazone and Metformin#Pioglitazone and Metformin Hydrochloride#Pioglitazone and Metformin Hydrocholride#Pioglitazonehydrochloride#Pro-pioglitazone#Ran-pioglitazone#Ratio-pioglitazone#Sandoz Pioglitazone#Teva-pioglitazone#Torrent-pioglitazone#Van-pioglitazone#Zym-pioglitazone#Actost#Glustin

>  <DrugBank ID>  (1) 
DB01132

>  <ATC Codes>  (1) 
A10BD12#A10BD09#A10BG03#A10BD06#A10BD05

>  <Ligand ID>  (1) 
8N6,P1B

>  <Target Name>  (1) 
Peroxisome proliferator-activated receptor gamma

>  <UniProt ID>  (1) 
P37231

>  <PDB ID.1>  (1) 
2XKW

>  <Seq. Identity>  (1) 
95%

$$$$
