PDB_DB00320_03
     RDKit          3D

100107  0  0  0  0  0  0  0  0999 V2000
    3.0330    0.8697   -0.2256 C   0  0  0  0  0  0  0  0  0  0  0  0
    4.4132    0.5193    0.1303 C   0  0  2  0  0  0  0  0  0  0  0  0
    5.4580    1.4673   -0.4268 C   0  0  2  0  0  0  0  0  0  0  0  0
    6.7125    1.1076    0.3387 C   0  0  2  0  0  0  0  0  0  0  0  0
    5.1946    2.9051   -0.2955 C   0  0  0  0  0  0  0  0  0  0  0  0
    6.3692    3.6301   -0.9657 C   0  0  0  0  0  0  0  0  0  0  0  0
    7.5140    2.7000   -1.2781 C   0  0  0  0  0  0  0  0  0  0  0  0
    7.8875    1.9565   -0.0204 C   0  0  0  0  0  0  0  0  0  0  0  0
    9.0076    1.0629   -0.1846 N   0  0  0  0  0  0  0  0  0  0  0  0
    8.5320   -0.2802    0.2082 C   0  0  0  0  0  0  0  0  0  0  0  0
    7.1426   -0.2296   -0.2967 C   0  0  0  0  0  0  0  0  0  0  0  0
    6.1838   -1.2376    0.2053 C   0  0  0  0  0  0  0  0  0  0  0  0
    4.8173   -0.8426   -0.3974 C   0  0  1  0  0  0  0  0  0  0  0  0
    3.8206   -1.7989   -0.1681 N   0  0  0  0  0  0  0  0  0  0  0  0
    4.3254   -3.1539    0.0264 C   0  0  0  0  0  0  0  0  0  0  0  0
    2.7716   -1.4811    0.7302 C   0  0  0  0  0  0  0  0  0  0  0  0
    2.0915   -0.2222    0.3550 C   0  0  2  0  0  0  0  0  0  0  0  0
    1.0028   -0.4803   -0.6520 C   0  0  0  0  0  0  0  0  0  0  0  0
    1.5481   -0.8003   -1.8727 O   0  0  0  0  0  0  0  0  0  0  0  0
   -0.2303    0.1428   -0.5896 N   0  0  0  0  0  0  0  0  0  0  0  0
   -1.2495   -0.3676    0.2884 C   0  0  2  0  0  0  0  0  0  0  0  0
   -1.0469   -0.4157    1.7435 C   0  0  0  0  0  0  0  0  0  0  0  0
   -1.5883   -1.6641   -0.1444 O   0  0  0  0  0  0  0  0  0  0  0  0
   -2.5155    0.4575   -0.0465 C   0  0  0  0  0  0  0  0  0  0  0  0
   -2.2848    1.1074   -1.2795 O   0  0  0  0  0  0  0  0  0  0  0  0
   -3.5693   -0.4860   -0.2291 N   0  0  0  0  0  0  0  0  0  0  0  0
   -2.8995   -1.7441   -0.4607 C   0  0  1  0  0  0  0  0  0  0  0  0
   -3.0028   -2.0024   -1.8515 O   0  0  0  0  0  0  0  0  0  0  0  0
   -3.6009   -2.8703    0.2355 C   0  0  2  0  0  0  0  0  0  0  0  0
   -3.4280   -4.1924   -0.5399 C   0  0  0  0  0  0  0  0  0  0  0  0
   -4.5440   -4.9899    0.1385 C   0  0  0  0  0  0  0  0  0  0  0  0
   -5.4743   -3.9590    0.7334 C   0  0  0  0  0  0  0  0  0  0  0  0
   -4.9956   -2.7312    0.1445 N   0  0  0  0  0  0  0  0  0  0  0  0
   -5.5678   -1.5571    0.6560 C   0  0  0  0  0  0  0  0  0  0  0  0
   -6.4288   -1.0572   -0.3599 O   0  0  0  0  0  0  0  0  0  0  0  0
   -4.4397   -0.5223    0.9055 C   0  0  2  0  0  0  0  0  0  0  0  0
   -5.0263    0.7563    1.3436 C   0  0  0  0  0  0  0  0  0  0  0  0
   -5.9298    1.5147    0.4628 C   0  0  0  0  0  0  0  0  0  0  0  0
   -5.3782    1.9176   -0.8539 C   0  0  0  0  0  0  0  0  0  0  0  0
   -6.4972    2.4847   -1.7225 C   0  0  0  0  0  0  0  0  0  0  0  0
   -7.5096    3.1541   -0.8679 C   0  0  0  0  0  0  0  0  0  0  0  0
   -6.9441    3.8168    0.3723 C   0  0  0  0  0  0  0  0  0  0  0  0
   -6.2054    2.8462    1.2297 C   0  0  0  0  0  0  0  0  0  0  0  0
    2.8417    0.9581   -1.3200 H   0  0  0  0  0  0  0  0  0  0  0  0
    2.7396    1.8374    0.2093 H   0  0  0  0  0  0  0  0  0  0  0  0
    4.5138    0.5582    1.2337 H   0  0  0  0  0  0  0  0  0  0  0  0
    5.6109    1.1983   -1.4989 H   0  0  0  0  0  0  0  0  0  0  0  0
    6.5204    1.0001    1.4199 H   0  0  0  0  0  0  0  0  0  0  0  0
    5.2227    3.1988    0.7742 H   0  0  0  0  0  0  0  0  0  0  0  0
    4.2381    3.2370   -0.7765 H   0  0  0  0  0  0  0  0  0  0  0  0
    6.7612    4.4455   -0.3273 H   0  0  0  0  0  0  0  0  0  0  0  0
    5.9920    3.9997   -1.9580 H   0  0  0  0  0  0  0  0  0  0  0  0
    7.3411    2.0592   -2.1412 H   0  0  0  0  0  0  0  0  0  0  0  0
    8.3822    3.3559   -1.5221 H   0  0  0  0  0  0  0  0  0  0  0  0
    8.1580    2.7014    0.7515 H   0  0  0  0  0  0  0  0  0  0  0  0
    9.8404    1.3059    0.3605 H   0  0  0  0  0  0  0  0  0  0  0  0
    8.5321   -0.3872    1.3001 H   0  0  0  0  0  0  0  0  0  0  0  0
    9.1730   -1.0506   -0.3073 H   0  0  0  0  0  0  0  0  0  0  0  0
    7.0895   -0.0887   -1.3923 H   0  0  0  0  0  0  0  0  0  0  0  0
    6.3873   -2.2656   -0.0819 H   0  0  0  0  0  0  0  0  0  0  0  0
    6.0538   -1.0951    1.2985 H   0  0  0  0  0  0  0  0  0  0  0  0
    5.0535   -0.6819   -1.4825 H   0  0  0  0  0  0  0  0  0  0  0  0
    4.7779   -3.4803   -0.9056 H   0  0  0  0  0  0  0  0  0  0  0  0
    4.9306   -3.2640    0.9379 H   0  0  0  0  0  0  0  0  0  0  0  0
    3.4193   -3.7949    0.2004 H   0  0  0  0  0  0  0  0  0  0  0  0
    3.0765   -1.5184    1.8048 H   0  0  0  0  0  0  0  0  0  0  0  0
    2.0087   -2.3027    0.6449 H   0  0  0  0  0  0  0  0  0  0  0  0
    1.7149    0.2370    1.3110 H   0  0  0  0  0  0  0  0  0  0  0  0
    0.6816   -1.6560   -0.3430 H   0  0  0  0  0  0  0  0  0  0  0  0
    1.0582   -1.4640   -2.3856 H   0  0  0  0  0  0  0  0  0  0  0  0
   -0.2147    1.1939   -0.6091 H   0  0  0  0  0  0  0  0  0  0  0  0
   -1.7647    0.2527    2.3125 H   0  0  0  0  0  0  0  0  0  0  0  0
   -0.0894   -0.2462    2.1912 H   0  0  0  0  0  0  0  0  0  0  0  0
   -1.3658   -1.4502    2.1447 H   0  0  0  0  0  0  0  0  0  0  0  0
   -2.6284    1.1924    0.7490 H   0  0  0  0  0  0  0  0  0  0  0  0
   -1.9894    2.0432   -1.1126 H   0  0  0  0  0  0  0  0  0  0  0  0
   -2.2743   -2.5558   -2.1730 H   0  0  0  0  0  0  0  0  0  0  0  0
   -3.1738   -3.0889    1.2375 H   0  0  0  0  0  0  0  0  0  0  0  0
   -3.7661   -4.0306   -1.5845 H   0  0  0  0  0  0  0  0  0  0  0  0
   -2.4428   -4.6312   -0.4250 H   0  0  0  0  0  0  0  0  0  0  0  0
   -4.0677   -5.5298    0.9928 H   0  0  0  0  0  0  0  0  0  0  0  0
   -5.0526   -5.6714   -0.5647 H   0  0  0  0  0  0  0  0  0  0  0  0
   -6.5407   -4.1690    0.5241 H   0  0  0  0  0  0  0  0  0  0  0  0
   -5.3688   -3.9119    1.8475 H   0  0  0  0  0  0  0  0  0  0  0  0
   -6.0693   -1.6878    1.6140 H   0  0  0  0  0  0  0  0  0  0  0  0
   -6.9140   -1.8790   -0.6901 H   0  0  0  0  0  0  0  0  0  0  0  0
   -3.8730   -0.9485    1.7597 H   0  0  0  0  0  0  0  0  0  0  0  0
   -4.2565    1.4221    1.7681 H   0  0  0  0  0  0  0  0  0  0  0  0
   -5.6700    0.5433    2.2967 H   0  0  0  0  0  0  0  0  0  0  0  0
   -6.9617    1.0841    0.3951 H   0  0  0  0  0  0  0  0  0  0  0  0
   -4.9125    1.0543   -1.4070 H   0  0  0  0  0  0  0  0  0  0  0  0
   -4.6036    2.6937   -0.7760 H   0  0  0  0  0  0  0  0  0  0  0  0
   -7.0156    1.6114   -2.2350 H   0  0  0  0  0  0  0  0  0  0  0  0
   -6.0797    3.1107   -2.5346 H   0  0  0  0  0  0  0  0  0  0  0  0
   -7.9764    3.9647   -1.4801 H   0  0  0  0  0  0  0  0  0  0  0  0
   -8.3217    2.4789   -0.5226 H   0  0  0  0  0  0  0  0  0  0  0  0
   -7.8049    4.2104    0.9495 H   0  0  0  0  0  0  0  0  0  0  0  0
   -6.3297    4.7200    0.1321 H   0  0  0  0  0  0  0  0  0  0  0  0
   -5.2565    3.2680    1.5995 H   0  0  0  0  0  0  0  0  0  0  0  0
   -6.8034    2.5828    2.1370 H   0  0  0  0  0  0  0  0  0  0  0  0
  1  2  1  0
  2  3  1  0
  3  4  1  0
  3  5  1  0
  5  6  1  0
  6  7  1  0
  4  8  1  0
  7  8  1  0
  8  9  1  0
  9 10  1  0
  4 11  1  0
 10 11  1  0
 11 12  1  0
  2 13  1  0
 12 13  1  0
 13 14  1  0
 14 15  1  0
 14 16  1  0
  1 17  1  0
 16 17  1  0
 17 18  1  0
 18 19  1  0
 18 20  1  0
 21 20  1  6
 21 22  1  0
 21 23  1  0
 21 24  1  0
 24 25  1  0
 24 26  1  0
 23 27  1  0
 26 27  1  0
 27 28  1  6
 27 29  1  0
 29 30  1  0
 30 31  1  0
 31 32  1  0
 29 33  1  0
 32 33  1  0
 33 34  1  0
 34 35  1  0
 26 36  1  0
 34 36  1  0
 36 37  1  0
 37 38  1  0
 38 39  1  0
 39 40  1  0
 40 41  1  0
 41 42  1  0
 38 43  1  0
 42 43  1  0
  1 44  1  0
  1 45  1  0
  2 46  1  1
  3 47  1  6
  4 48  1  1
  5 49  1  0
  5 50  1  0
  6 51  1  0
  6 52  1  0
  7 53  1  0
  7 54  1  0
  8 55  1  0
  9 56  1  0
 10 57  1  0
 10 58  1  0
 11 59  1  0
 12 60  1  0
 12 61  1  0
 13 62  1  6
 15 63  1  0
 15 64  1  0
 15 65  1  0
 16 66  1  0
 16 67  1  0
 17 68  1  1
 18 69  1  0
 19 70  1  0
 20 71  1  0
 22 72  1  0
 22 73  1  0
 22 74  1  0
 24 75  1  0
 25 76  1  0
 28 77  1  0
 29 78  1  1
 30 79  1  0
 30 80  1  0
 31 81  1  0
 31 82  1  0
 32 83  1  0
 32 84  1  0
 34 85  1  0
 35 86  1  0
 36 87  1  1
 37 88  1  0
 37 89  1  0
 38 90  1  0
 39 91  1  0
 39 92  1  0
 40 93  1  0
 40 94  1  0
 41 95  1  0
 41 96  1  0
 42 97  1  0
 42 98  1  0
 43 99  1  0
 43100  1  0
M  END
>  <PDBID>  (1) 
4IAQ

>  <PDB ID>  (1) 
4IAQ

>  <Generic Name>  (1) 
Dihydroergotamine

>  <Brand Name>  (1) 
D.H.E. 45#Dihydroergotamine (dhe), 1mg/ml#Dihydroergotamine Mesylate#Dihydroergotamine Mesylate Injection USP#Migranal#Migranal Nasal Spray 4mg/ml#PMS-dihydroergotamine#Dihydergot#Ergont#Ergotonin#Ikaran#Orstanorm#Verladyn

>  <DrugBank ID>  (1) 
DB00320

>  <ATC Codes>  (1) 
N02CA01#N02CA51

>  <Ligand ID>  (1) 
2GM

>  <Target Name>  (1) 
5-hydroxytryptamine receptor 1D

>  <UniProt ID>  (1) 
P28221

>  <PDB ID.1>  (1) 
4IAQ

>  <Seq. Identity>  (1) 
55%

$$$$
