PDB_DB04835_06
     RDKit          3D

180188  0  0  0  0  0  0  0  0999 V2000
    7.0353   -2.1577    1.5282 F   0  0  0  0  0  0  0  0  0  0  0  0
    2.9861   -2.2625   -1.8385 O   0  0  0  0  0  0  0  0  0  0  0  0
   -3.8728    0.5207   -0.2635 C   0  0  0  0  0  0  0  0  0  0  0  0
   -5.1349   -0.1076   -0.0623 N   0  0  0  0  0  0  0  0  0  0  0  0
    0.3044    1.3150   -0.1635 C   0  0  0  0  0  0  0  0  0  0  0  0
   -5.9943   -1.3099    1.8257 C   0  0  0  0  0  0  0  0  0  0  0  0
    1.3027    0.3248   -0.7097 C   0  0  0  0  0  0  0  0  0  0  0  0
    2.6863    0.8205   -0.8799 C   0  0  1  0  0  0  0  0  0  0  0  0
   -7.0540    0.7105   -1.3879 C   0  0  0  0  0  0  0  0  0  0  0  0
    3.4544    1.3330    0.2803 C   0  0  0  0  0  0  0  0  0  0  0  0
    3.9044   -1.2369   -1.5732 C   0  0  2  0  0  0  0  0  0  0  0  0
    4.7506   -1.7061   -0.4249 C   0  0  0  0  0  0  0  0  0  0  0  0
    5.9859   -3.0430    1.6259 C   0  0  0  0  0  0  0  0  0  0  0  0
   -6.0023   -2.6513    2.5607 C   0  0  0  0  0  0  0  0  0  0  0  0
    6.2212   -3.9382    2.6502 F   0  0  0  0  0  0  0  0  0  0  0  0
   -1.0377    0.7777   -0.0579 N   0  0  0  0  0  0  0  0  0  0  0  0
   -1.6750    0.5816   -1.3302 C   0  0  1  0  0  0  0  0  0  0  0  0
   -7.4056   -0.8658    1.5290 C   0  0  0  0  0  0  0  0  0  0  0  0
    5.5200   -2.9905   -0.8417 C   0  0  0  0  0  0  0  0  0  0  0  0
    3.8833   -2.2223    0.7321 C   0  0  0  0  0  0  0  0  0  0  0  0
    5.8020   -3.8408    0.3552 C   0  0  0  0  0  0  0  0  0  0  0  0
    4.7221   -2.2903    1.9820 C   0  0  0  0  0  0  0  0  0  0  0  0
    4.8247    1.7482   -0.3192 C   0  0  0  0  0  0  0  0  0  0  0  0
    2.9107    2.5338    0.9781 C   0  0  0  0  0  0  0  0  0  0  0  0
    4.7677    3.1201   -0.9317 C   0  0  0  0  0  0  0  0  0  0  0  0
    4.0977    3.4230    1.3837 C   0  0  0  0  0  0  0  0  0  0  0  0
    4.7215    4.1038    0.2137 C   0  0  0  0  0  0  0  0  0  0  0  0
   -1.9405    1.6732    0.6279 C   0  0  2  0  0  0  0  0  0  0  0  0
   -5.6952   -2.3066   -0.3429 N   0  0  0  0  0  0  0  0  0  0  0  0
   -5.1227   -1.3655    0.6041 C   0  0  1  0  0  0  0  0  0  0  0  0
   -6.4031   -1.5902   -1.2917 N   0  0  0  0  0  0  0  0  0  0  0  0
    3.5146    0.0632   -1.7223 N   0  0  0  0  0  0  0  0  0  0  0  0
   -2.9262   -0.2739   -1.1165 C   0  0  0  0  0  0  0  0  0  0  0  0
   -3.1921    0.8971    1.0034 C   0  0  0  0  0  0  0  0  0  0  0  0
   -5.9007   -0.2293   -1.2804 C   0  0  0  0  0  0  0  0  0  0  0  0
   -2.0753    1.9799   -1.7694 C   0  0  0  0  0  0  0  0  0  0  0  0
   -2.2209    2.7037   -0.4615 C   0  0  0  0  0  0  0  0  0  0  0  0
    6.9990   -2.1831    1.6157 F   0  0  0  0  0  0  0  0  0  0  0  0
    3.1054   -2.2166   -1.9494 O   0  0  0  0  0  0  0  0  0  0  0  0
   -3.9057    0.4072   -0.4122 C   0  0  0  0  0  0  0  0  0  0  0  0
   -5.1701   -0.1941   -0.1627 N   0  0  0  0  0  0  0  0  0  0  0  0
    0.2541    1.2201   -0.2260 C   0  0  0  0  0  0  0  0  0  0  0  0
   -5.8053   -1.1483    1.9371 C   0  0  0  0  0  0  0  0  0  0  0  0
    1.3018    0.2571   -0.7404 C   0  0  0  0  0  0  0  0  0  0  0  0
    2.6727    0.8106   -0.8615 C   0  0  1  0  0  0  0  0  0  0  0  0
   -6.9422    0.8317   -1.5045 C   0  0  0  0  0  0  0  0  0  0  0  0
    3.3842    1.3424    0.3205 C   0  0  0  0  0  0  0  0  0  0  0  0
    3.9737   -1.1935   -1.5610 C   0  0  2  0  0  0  0  0  0  0  0  0
    4.8011   -1.6392   -0.3935 C   0  0  0  0  0  0  0  0  0  0  0  0
    5.9482   -3.0741    1.6951 C   0  0  0  0  0  0  0  0  0  0  0  0
   -5.8387   -2.3899    2.7898 C   0  0  0  0  0  0  0  0  0  0  0  0
    6.1244   -4.0170    2.6833 F   0  0  0  0  0  0  0  0  0  0  0  0
   -1.0719    0.6400   -0.1481 N   0  0  0  0  0  0  0  0  0  0  0  0
   -1.6714    0.3745   -1.4307 C   0  0  1  0  0  0  0  0  0  0  0  0
   -7.2049   -0.5959    1.7854 C   0  0  0  0  0  0  0  0  0  0  0  0
    5.6791   -2.8525   -0.7820 C   0  0  0  0  0  0  0  0  0  0  0  0
    3.9108   -2.2130    0.7099 C   0  0  0  0  0  0  0  0  0  0  0  0
    5.8256   -3.8080    0.3588 C   0  0  0  0  0  0  0  0  0  0  0  0
    4.6850   -2.2869    2.0108 C   0  0  0  0  0  0  0  0  0  0  0  0
    4.7518    1.8215   -0.2368 C   0  0  0  0  0  0  0  0  0  0  0  0
    2.7969    2.5114    1.0273 C   0  0  0  0  0  0  0  0  0  0  0  0
    4.6673    3.2095   -0.8000 C   0  0  0  0  0  0  0  0  0  0  0  0
    3.9581    3.4025    1.5046 C   0  0  0  0  0  0  0  0  0  0  0  0
    4.5687    4.1536    0.3642 C   0  0  0  0  0  0  0  0  0  0  0  0
   -1.9822    1.6164    0.4240 C   0  0  2  0  0  0  0  0  0  0  0  0
   -6.0296   -2.2845   -0.1696 N   0  0  0  0  0  0  0  0  0  0  0  0
   -5.1718   -1.3917    0.5920 C   0  0  0  0  0  0  0  0  0  0  0  0
   -6.8057   -1.5168   -1.0167 N   0  0  0  0  0  0  0  0  0  0  0  0
    3.5470    0.1028   -1.7008 N   0  0  0  0  0  0  0  0  0  0  0  0
   -2.9539   -0.4118   -1.2043 C   0  0  0  0  0  0  0  0  0  0  0  0
   -3.2558    0.8733    0.8486 C   0  0  0  0  0  0  0  0  0  0  0  0
   -6.0081   -0.3406   -1.3136 C   0  0  0  0  0  0  0  0  0  0  0  0
   -2.0283    1.7393   -1.9857 C   0  0  0  0  0  0  0  0  0  0  0  0
   -2.2276    2.5520   -0.7286 C   0  0  0  0  0  0  0  0  0  0  0  0
    2.3873   -2.4157   -1.0602 H   0  0  0  0  0  0  0  0  0  0  0  0
   -4.1030    1.4972   -0.7919 H   0  0  0  0  0  0  0  0  0  0  0  0
    0.5473    1.6331    0.8814 H   0  0  0  0  0  0  0  0  0  0  0  0
    0.2819    2.1663   -0.8754 H   0  0  0  0  0  0  0  0  0  0  0  0
   -5.6016   -0.5634    2.5741 H   0  0  0  0  0  0  0  0  0  0  0  0
    0.9379    0.1394   -1.7794 H   0  0  0  0  0  0  0  0  0  0  0  0
    1.1663   -0.5919   -0.1123 H   0  0  0  0  0  0  0  0  0  0  0  0
    2.5104    1.8018   -1.4989 H   0  0  0  0  0  0  0  0  0  0  0  0
   -8.0502    0.1939   -1.4390 H   0  0  0  0  0  0  0  0  0  0  0  0
   -7.0281    1.4562   -0.5629 H   0  0  0  0  0  0  0  0  0  0  0  0
   -7.0209    1.3296   -2.3339 H   0  0  0  0  0  0  0  0  0  0  0  0
    3.7239    0.6099    1.0586 H   0  0  0  0  0  0  0  0  0  0  0  0
    4.6403   -1.4139   -2.4823 H   0  0  0  0  0  0  0  0  0  0  0  0
    5.5396   -1.0260   -0.0971 H   0  0  0  0  0  0  0  0  0  0  0  0
   -5.9686   -3.4899    1.8333 H   0  0  0  0  0  0  0  0  0  0  0  0
   -5.1561   -2.6546    3.2545 H   0  0  0  0  0  0  0  0  0  0  0  0
   -6.9480   -2.6701    3.1436 H   0  0  0  0  0  0  0  0  0  0  0  0
   -0.9959    0.0959   -2.0199 H   0  0  0  0  0  0  0  0  0  0  0  0
   -8.0698   -1.1104    2.3882 H   0  0  0  0  0  0  0  0  0  0  0  0
   -7.8110   -1.2605    0.5866 H   0  0  0  0  0  0  0  0  0  0  0  0
   -7.4232    0.2533    1.4652 H   0  0  0  0  0  0  0  0  0  0  0  0
    6.4638   -2.7410   -1.3405 H   0  0  0  0  0  0  0  0  0  0  0  0
    4.9091   -3.5869   -1.5488 H   0  0  0  0  0  0  0  0  0  0  0  0
    3.5318   -3.2364    0.4562 H   0  0  0  0  0  0  0  0  0  0  0  0
    3.0053   -1.5900    0.7964 H   0  0  0  0  0  0  0  0  0  0  0  0
    5.0373   -4.6221    0.5378 H   0  0  0  0  0  0  0  0  0  0  0  0
    6.7547   -4.3822    0.1822 H   0  0  0  0  0  0  0  0  0  0  0  0
    4.1125   -2.8183    2.7486 H   0  0  0  0  0  0  0  0  0  0  0  0
    4.8985   -1.2834    2.3656 H   0  0  0  0  0  0  0  0  0  0  0  0
    5.1196    1.0606   -1.1431 H   0  0  0  0  0  0  0  0  0  0  0  0
    5.6257    1.7190    0.4176 H   0  0  0  0  0  0  0  0  0  0  0  0
    2.5018    2.2131    1.9745 H   0  0  0  0  0  0  0  0  0  0  0  0
    2.2585    3.1788    0.3943 H   0  0  0  0  0  0  0  0  0  0  0  0
    5.7012    3.2652   -1.4908 H   0  0  0  0  0  0  0  0  0  0  0  0
    3.9393    3.2514   -1.6519 H   0  0  0  0  0  0  0  0  0  0  0  0
    3.7621    4.1962    2.1095 H   0  0  0  0  0  0  0  0  0  0  0  0
    4.8039    2.7654    1.9221 H   0  0  0  0  0  0  0  0  0  0  0  0
    4.2043    5.0387   -0.0611 H   0  0  0  0  0  0  0  0  0  0  0  0
    5.7651    4.3864    0.4556 H   0  0  0  0  0  0  0  0  0  0  0  0
   -1.5223    2.1261    1.5259 H   0  0  0  0  0  0  0  0  0  0  0  0
   -4.9430   -2.9002   -0.7823 H   0  0  0  0  0  0  0  0  0  0  0  0
   -4.1017   -1.7408    0.8309 H   0  0  0  0  0  0  0  0  0  0  0  0
   -6.2811   -2.0343   -2.2482 H   0  0  0  0  0  0  0  0  0  0  0  0
    3.8068    0.5564   -2.6095 H   0  0  0  0  0  0  0  0  0  0  0  0
   -3.2897   -0.5286   -2.1107 H   0  0  0  0  0  0  0  0  0  0  0  0
   -2.5981   -1.1745   -0.5859 H   0  0  0  0  0  0  0  0  0  0  0  0
   -3.8164    1.5378    1.6291 H   0  0  0  0  0  0  0  0  0  0  0  0
   -2.8563    0.0453    1.6166 H   0  0  0  0  0  0  0  0  0  0  0  0
   -5.2797   -0.1007   -2.1910 H   0  0  0  0  0  0  0  0  0  0  0  0
   -1.2549    2.4557   -2.3784 H   0  0  0  0  0  0  0  0  0  0  0  0
   -2.9737    1.9990   -2.4093 H   0  0  0  0  0  0  0  0  0  0  0  0
   -3.1656    3.2341   -0.3260 H   0  0  0  0  0  0  0  0  0  0  0  0
   -1.4193    3.4888   -0.3291 H   0  0  0  0  0  0  0  0  0  0  0  0
    3.3557   -3.0855   -1.5822 H   0  0  0  0  0  0  0  0  0  0  0  0
   -4.1235    1.3431   -1.0120 H   0  0  0  0  0  0  0  0  0  0  0  0
    0.4570    1.5854    0.8028 H   0  0  0  0  0  0  0  0  0  0  0  0
    0.2026    2.0491   -0.9614 H   0  0  0  0  0  0  0  0  0  0  0  0
   -5.2250   -0.3754    2.4977 H   0  0  0  0  0  0  0  0  0  0  0  0
    0.9719    0.1087   -1.8321 H   0  0  0  0  0  0  0  0  0  0  0  0
    1.1982   -0.7420   -0.3047 H   0  0  0  0  0  0  0  0  0  0  0  0
    2.4702    1.7896   -1.4744 H   0  0  0  0  0  0  0  0  0  0  0  0
   -8.0066    0.5501   -1.4532 H   0  0  0  0  0  0  0  0  0  0  0  0
   -6.7226    1.5804   -0.6942 H   0  0  0  0  0  0  0  0  0  0  0  0
   -6.7365    1.3551   -2.4647 H   0  0  0  0  0  0  0  0  0  0  0  0
    3.6691    0.6220    1.1012 H   0  0  0  0  0  0  0  0  0  0  0  0
    4.7668   -1.3008   -2.4374 H   0  0  0  0  0  0  0  0  0  0  0  0
    5.5121   -0.9126   -0.0048 H   0  0  0  0  0  0  0  0  0  0  0  0
   -5.9723   -3.3138    2.1862 H   0  0  0  0  0  0  0  0  0  0  0  0
   -4.9052   -2.4155    3.3903 H   0  0  0  0  0  0  0  0  0  0  0  0
   -6.6779   -2.2863    3.5228 H   0  0  0  0  0  0  0  0  0  0  0  0
   -0.9660   -0.1574   -2.0616 H   0  0  0  0  0  0  0  0  0  0  0  0
   -7.6697   -0.5076    2.7906 H   0  0  0  0  0  0  0  0  0  0  0  0
   -7.8335   -1.1850    1.0982 H   0  0  0  0  0  0  0  0  0  0  0  0
   -7.1126    0.4358    1.3733 H   0  0  0  0  0  0  0  0  0  0  0  0
    6.7142   -2.4927   -1.0529 H   0  0  0  0  0  0  0  0  0  0  0  0
    5.3179   -3.3753   -1.6605 H   0  0  0  0  0  0  0  0  0  0  0  0
    3.5886   -3.2155    0.3891 H   0  0  0  0  0  0  0  0  0  0  0  0
    3.0194   -1.5901    0.7818 H   0  0  0  0  0  0  0  0  0  0  0  0
    5.0770   -4.6023    0.4057 H   0  0  0  0  0  0  0  0  0  0  0  0
    6.8121   -4.3318    0.2335 H   0  0  0  0  0  0  0  0  0  0  0  0
    4.0409   -2.8061    2.7321 H   0  0  0  0  0  0  0  0  0  0  0  0
    4.8664   -1.2738    2.3630 H   0  0  0  0  0  0  0  0  0  0  0  0
    5.0709    1.1652   -1.0765 H   0  0  0  0  0  0  0  0  0  0  0  0
    5.5409    1.7880    0.5149 H   0  0  0  0  0  0  0  0  0  0  0  0
    2.3578    2.1581    1.9985 H   0  0  0  0  0  0  0  0  0  0  0  0
    2.1645    3.1706    0.4433 H   0  0  0  0  0  0  0  0  0  0  0  0
    5.6085    3.3989   -1.3331 H   0  0  0  0  0  0  0  0  0  0  0  0
    3.8553    3.3306   -1.5447 H   0  0  0  0  0  0  0  0  0  0  0  0
    3.5258    4.1030    2.2713 H   0  0  0  0  0  0  0  0  0  0  0  0
    4.6538    2.7473    2.0537 H   0  0  0  0  0  0  0  0  0  0  0  0
    3.9943    5.0627    0.1099 H   0  0  0  0  0  0  0  0  0  0  0  0
    5.5983    4.4441    0.6542 H   0  0  0  0  0  0  0  0  0  0  0  0
   -1.5522    2.1141    1.3081 H   0  0  0  0  0  0  0  0  0  0  0  0
   -5.4506   -2.9997   -0.6769 H   0  0  0  0  0  0  0  0  0  0  0  0
   -4.1843   -1.8870    0.6770 H   0  0  0  0  0  0  0  0  0  0  0  0
   -6.9642   -2.0903   -1.8916 H   0  0  0  0  0  0  0  0  0  0  0  0
    3.8227    0.6055   -2.5833 H   0  0  0  0  0  0  0  0  0  0  0  0
   -3.3258   -0.6682   -2.2264 H   0  0  0  0  0  0  0  0  0  0  0  0
   -2.7322   -1.3630   -0.7073 H   0  0  0  0  0  0  0  0  0  0  0  0
   -3.9031    1.5868    1.4023 H   0  0  0  0  0  0  0  0  0  0  0  0
   -2.8982    0.0456    1.4937 H   0  0  0  0  0  0  0  0  0  0  0  0
   -5.4554   -0.5511   -2.2479 H   0  0  0  0  0  0  0  0  0  0  0  0
   -1.2059    2.1472   -2.6292 H   0  0  0  0  0  0  0  0  0  0  0  0
   -2.9312    1.7194   -2.6312 H   0  0  0  0  0  0  0  0  0  0  0  0
   -3.1640    3.1043   -0.6799 H   0  0  0  0  0  0  0  0  0  0  0  0
   -1.3957    3.3099   -0.7101 H   0  0  0  0  0  0  0  0  0  0  0  0
  3  4  1  0
  5  7  1  0
  7  8  1  0
  8 10  1  0
  2 11  1  0
 11 12  1  0
 13  1  1  0
  6 14  1  0
 13 15  1  0
  5 16  1  0
 16 17  1  0
  6 18  1  0
 12 19  1  0
 12 20  1  0
 13 21  1  0
 19 21  1  0
 13 22  1  0
 20 22  1  0
 10 23  1  0
 10 24  1  0
 23 25  1  0
 24 26  1  0
 25 27  1  0
 26 27  1  0
 16 28  1  0
  4 30  1  0
  6 30  1  0
 29 30  1  0
 29 31  1  0
  8 32  1  0
 11 32  1  0
  3 33  1  0
 17 33  1  0
  3 34  1  0
 28 34  1  0
  4 35  1  0
  9 35  1  0
 31 35  1  0
 17 36  1  0
 28 37  1  0
 36 37  1  0
 40 41  1  0
 42 44  1  0
 44 45  1  0
 45 47  1  0
 39 48  1  0
 48 49  1  0
 50 38  1  0
 43 51  1  0
 50 52  1  0
 42 53  1  0
 53 54  1  0
 43 55  1  0
 49 56  1  0
 49 57  1  0
 50 58  1  0
 56 58  1  0
 50 59  1  0
 57 59  1  0
 47 60  1  0
 47 61  1  0
 60 62  1  0
 61 63  1  0
 62 64  1  0
 63 64  1  0
 53 65  1  0
 41 67  1  0
 43 67  1  0
 66 67  1  0
 66 68  1  0
 45 69  1  0
 48 69  1  0
 40 70  1  0
 54 70  1  0
 40 71  1  0
 65 71  1  0
 41 72  1  0
 46 72  1  0
 68 72  1  0
 54 73  1  0
 65 74  1  0
 73 74  1  0
  2 75  1  0
  3 76  1  0
  5 77  1  0
  5 78  1  0
  6 79  1  0
  7 80  1  0
  7 81  1  0
  8 82  1  6
  9 83  1  0
  9 84  1  0
  9 85  1  0
 10 86  1  0
 11 87  1  6
 12 88  1  0
 14 89  1  0
 14 90  1  0
 14 91  1  0
 17 92  1  6
 18 93  1  0
 18 94  1  0
 18 95  1  0
 19 96  1  0
 19 97  1  0
 20 98  1  0
 20 99  1  0
 21100  1  0
 21101  1  0
 22102  1  0
 22103  1  0
 23104  1  0
 23105  1  0
 24106  1  0
 24107  1  0
 25108  1  0
 25109  1  0
 26110  1  0
 26111  1  0
 27112  1  0
 27113  1  0
 28114  1  1
 29115  1  0
 30116  1  1
 31117  1  0
 32118  1  0
 33119  1  0
 33120  1  0
 34121  1  0
 34122  1  0
 35123  1  0
 36124  1  0
 36125  1  0
 37126  1  0
 37127  1  0
 39128  1  0
 40129  1  0
 42130  1  0
 42131  1  0
 43132  1  0
 44133  1  0
 44134  1  0
 45135  1  6
 46136  1  0
 46137  1  0
 46138  1  0
 47139  1  0
 48140  1  6
 49141  1  0
 51142  1  0
 51143  1  0
 51144  1  0
 54145  1  6
 55146  1  0
 55147  1  0
 55148  1  0
 56149  1  0
 56150  1  0
 57151  1  0
 57152  1  0
 58153  1  0
 58154  1  0
 59155  1  0
 59156  1  0
 60157  1  0
 60158  1  0
 61159  1  0
 61160  1  0
 62161  1  0
 62162  1  0
 63163  1  0
 63164  1  0
 64165  1  0
 64166  1  0
 65167  1  1
 66168  1  0
 67169  1  0
 68170  1  0
 69171  1  0
 70172  1  0
 70173  1  0
 71174  1  0
 71175  1  0
 72176  1  0
 73177  1  0
 73178  1  0
 74179  1  0
 74180  1  0
M  END
>  <PDBID>  (1) 
4MBS

>  <PDB ID>  (1) 
4MBS

>  <Generic Name>  (1) 
Maraviroc

>  <Brand Name>  (1) 
Celsentri#Selzentry

>  <DrugBank ID>  (1) 
DB04835

>  <ATC Codes>  (1) 
J05AX09

>  <Ligand ID>  (1) 
MRV

>  <Target Name>  (1) 
C-C chemokine receptor type 5

>  <UniProt ID>  (1) 
P51681

>  <PDB ID.1>  (1) 
4MBS

>  <Seq. Identity>  (1) 
74%

$$$$
