PDB_DB01004_05
     RDKit          3D

 78 80  0  0  0  0  0  0  0  0999 V2000
   -3.7415   -0.5462    0.5977 N   0  0  0  0  0  0  0  0  0  0  0  0
   -2.9449    0.4177    1.2932 C   0  0  0  0  0  0  0  0  0  0  0  0
   -0.9759   -0.1091    0.0073 C   0  0  0  0  0  0  0  0  0  0  0  0
   -0.9190    0.0504   -2.3089 C   0  0  0  0  0  0  0  0  0  0  0  0
    4.0693    1.3709   -0.1212 C   0  0  0  0  0  0  0  0  0  0  0  0
    3.8858    2.0971    1.0771 O   0  0  0  0  0  0  0  0  0  0  0  0
    3.4669   -0.7021    1.1092 C   0  0  0  0  0  0  0  0  0  0  0  0
    4.7915   -1.1308    1.0801 O   0  0  0  0  0  0  0  0  0  0  0  0
    3.1468    0.1681   -0.0873 C   0  0  0  0  0  0  0  0  0  0  0  0
    1.8123    0.5521    0.0169 O   0  0  0  0  0  0  0  0  0  0  0  0
    1.1495    0.1150   -1.0982 C   0  0  0  0  0  0  0  0  0  0  0  0
   -0.2523    0.4519   -1.1121 N   0  0  0  0  0  0  0  0  0  0  0  0
   -1.8436    0.9227    0.5233 N   0  0  0  0  0  0  0  0  0  0  0  0
   -3.8075    1.5545    1.6058 N   0  0  0  0  0  0  0  0  0  0  0  0
   -2.9498   -1.6549    0.1180 C   0  0  0  0  0  0  0  0  0  0  0  0
   -2.6329   -2.5119    1.1695 O   0  0  0  0  0  0  0  0  0  0  0  0
   -1.7420   -1.2317   -0.6475 C   0  0  0  0  0  0  0  0  0  0  0  0
   -2.0657   -0.7340   -1.9576 N   0  0  0  0  0  0  0  0  0  0  0  0
   -3.7415   -0.5462    0.5977 N   0  0  0  0  0  0  0  0  0  0  0  0
   -2.9449    0.4177    1.2932 C   0  0  0  0  0  0  0  0  0  0  0  0
   -0.9759   -0.1091    0.0073 C   0  0  0  0  0  0  0  0  0  0  0  0
   -0.9190    0.0504   -2.3089 C   0  0  0  0  0  0  0  0  0  0  0  0
    4.0693    1.3709   -0.1212 C   0  0  0  0  0  0  0  0  0  0  0  0
    3.8858    2.0971    1.0771 O   0  0  0  0  0  0  0  0  0  0  0  0
    3.4669   -0.7021    1.1092 C   0  0  0  0  0  0  0  0  0  0  0  0
    4.7915   -1.1308    1.0801 O   0  0  0  0  0  0  0  0  0  0  0  0
    3.1468    0.1681   -0.0873 C   0  0  0  0  0  0  0  0  0  0  0  0
    1.8123    0.5521    0.0169 O   0  0  0  0  0  0  0  0  0  0  0  0
    1.1495    0.1150   -1.0982 C   0  0  0  0  0  0  0  0  0  0  0  0
   -0.2523    0.4519   -1.1121 N   0  0  0  0  0  0  0  0  0  0  0  0
   -1.8436    0.9227    0.5233 N   0  0  0  0  0  0  0  0  0  0  0  0
   -3.8075    1.5545    1.6058 N   0  0  0  0  0  0  0  0  0  0  0  0
   -2.9498   -1.6549    0.1180 C   0  0  0  0  0  0  0  0  0  0  0  0
   -2.6329   -2.5119    1.1695 O   0  0  0  0  0  0  0  0  0  0  0  0
   -1.7420   -1.2317   -0.6475 C   0  0  0  0  0  0  0  0  0  0  0  0
   -2.0657   -0.7340   -1.9576 N   0  0  0  0  0  0  0  0  0  0  0  0
   -4.3773   -0.1444   -0.1148 H   0  0  0  0  0  0  0  0  0  0  0  0
   -2.6189   -0.0125    2.2707 H   0  0  0  0  0  0  0  0  0  0  0  0
   -0.2816   -0.5171    0.7767 H   0  0  0  0  0  0  0  0  0  0  0  0
   -1.2483    0.9854   -2.8442 H   0  0  0  0  0  0  0  0  0  0  0  0
   -0.2630   -0.4843   -3.0260 H   0  0  0  0  0  0  0  0  0  0  0  0
    5.1291    1.0457   -0.1003 H   0  0  0  0  0  0  0  0  0  0  0  0
    3.9239    1.9855   -1.0117 H   0  0  0  0  0  0  0  0  0  0  0  0
    4.3216    2.9924    0.9951 H   0  0  0  0  0  0  0  0  0  0  0  0
    3.2340   -0.1305    2.0271 H   0  0  0  0  0  0  0  0  0  0  0  0
    2.8127   -1.6137    1.0153 H   0  0  0  0  0  0  0  0  0  0  0  0
    5.1358   -1.3492    1.9773 H   0  0  0  0  0  0  0  0  0  0  0  0
    3.3366   -0.3893   -1.0369 H   0  0  0  0  0  0  0  0  0  0  0  0
    1.2301   -0.9895   -1.2483 H   0  0  0  0  0  0  0  0  0  0  0  0
    1.6084    0.5994   -1.9839 H   0  0  0  0  0  0  0  0  0  0  0  0
   -2.2490    1.4202   -0.3066 H   0  0  0  0  0  0  0  0  0  0  0  0
   -4.6383    1.5600    0.9488 H   0  0  0  0  0  0  0  0  0  0  0  0
   -3.2854    2.4616    1.5462 H   0  0  0  0  0  0  0  0  0  0  0  0
   -3.6054   -2.2432   -0.5780 H   0  0  0  0  0  0  0  0  0  0  0  0
   -2.6319   -2.0430    2.0374 H   0  0  0  0  0  0  0  0  0  0  0  0
   -1.0642   -2.1078   -0.7432 H   0  0  0  0  0  0  0  0  0  0  0  0
   -2.9160   -0.1052   -1.8660 H   0  0  0  0  0  0  0  0  0  0  0  0
   -4.3773   -0.1444   -0.1148 H   0  0  0  0  0  0  0  0  0  0  0  0
   -2.6189   -0.0125    2.2707 H   0  0  0  0  0  0  0  0  0  0  0  0
   -0.2816   -0.5171    0.7767 H   0  0  0  0  0  0  0  0  0  0  0  0
   -1.2483    0.9854   -2.8442 H   0  0  0  0  0  0  0  0  0  0  0  0
   -0.2630   -0.4843   -3.0260 H   0  0  0  0  0  0  0  0  0  0  0  0
    5.1291    1.0457   -0.1003 H   0  0  0  0  0  0  0  0  0  0  0  0
    3.9239    1.9855   -1.0117 H   0  0  0  0  0  0  0  0  0  0  0  0
    4.3216    2.9924    0.9951 H   0  0  0  0  0  0  0  0  0  0  0  0
    3.2340   -0.1305    2.0271 H   0  0  0  0  0  0  0  0  0  0  0  0
    2.8127   -1.6137    1.0153 H   0  0  0  0  0  0  0  0  0  0  0  0
    5.1358   -1.3492    1.9773 H   0  0  0  0  0  0  0  0  0  0  0  0
    3.3366   -0.3893   -1.0369 H   0  0  0  0  0  0  0  0  0  0  0  0
    1.2301   -0.9895   -1.2483 H   0  0  0  0  0  0  0  0  0  0  0  0
    1.6084    0.5994   -1.9839 H   0  0  0  0  0  0  0  0  0  0  0  0
   -2.2490    1.4202   -0.3066 H   0  0  0  0  0  0  0  0  0  0  0  0
   -4.6383    1.5600    0.9488 H   0  0  0  0  0  0  0  0  0  0  0  0
   -3.2854    2.4616    1.5462 H   0  0  0  0  0  0  0  0  0  0  0  0
   -3.6054   -2.2432   -0.5780 H   0  0  0  0  0  0  0  0  0  0  0  0
   -2.6319   -2.0430    2.0374 H   0  0  0  0  0  0  0  0  0  0  0  0
   -1.0642   -2.1078   -0.7432 H   0  0  0  0  0  0  0  0  0  0  0  0
   -2.9160   -0.1052   -1.8660 H   0  0  0  0  0  0  0  0  0  0  0  0
  1  2  1  0
  5  6  1  0
  7  8  1  0
  5  9  1  0
  7  9  1  0
  9 10  1  0
 10 11  1  0
  3 12  1  0
  4 12  1  0
 11 12  1  0
  2 13  1  0
  3 13  1  0
  2 14  1  0
  1 15  1  0
 15 16  1  0
  3 17  1  0
 15 17  1  0
  4 18  1  0
 17 18  1  0
 19 20  1  0
 23 24  1  0
 25 26  1  0
 23 27  1  0
 25 27  1  0
 27 28  1  0
 28 29  1  0
 21 30  1  0
 22 30  1  0
 29 30  1  0
 20 31  1  0
 21 31  1  0
 20 32  1  0
 19 33  1  0
 33 34  1  0
 21 35  1  0
 33 35  1  0
 22 36  1  0
 35 36  1  0
  1 37  1  0
  2 38  1  0
  3 39  1  0
  4 40  1  0
  4 41  1  0
  5 42  1  0
  5 43  1  0
  6 44  1  0
  7 45  1  0
  7 46  1  0
  8 47  1  0
  9 48  1  0
 11 49  1  0
 11 50  1  0
 13 51  1  0
 14 52  1  0
 14 53  1  0
 15 54  1  0
 16 55  1  0
 17 56  1  0
 18 57  1  0
 19 58  1  0
 20 59  1  0
 21 60  1  0
 22 61  1  0
 22 62  1  0
 23 63  1  0
 23 64  1  0
 24 65  1  0
 25 66  1  0
 25 67  1  0
 26 68  1  0
 27 69  1  0
 29 70  1  0
 29 71  1  0
 31 72  1  0
 32 73  1  0
 32 74  1  0
 33 75  1  0
 34 76  1  0
 35 77  1  0
 36 78  1  0
M  END
>  <PDBID>  (1) 
1KI2

>  <PDB ID>  (1) 
1KI2

>  <Generic Name>  (1) 
Ganciclovir

>  <Brand Name>  (1) 
Cytovene - Cap 250mg#Cytovene - Pws 500mg/10m/-vial IV#Cytovene IV#Cytovene Inj 500mg/vial#Cytovene, 500 mg#Ganciclovir#Ganciclovir for Injection#Vitrasert, Intravitreal Implant#Zirgan#Cytovene#Vitrasert

>  <DrugBank ID>  (1) 
DB01004

>  <ATC Codes>  (1) 
J05AB06#S01AD09

>  <Ligand ID>  (1) 
GA2

>  <Target Name>  (1) 
Thymidine kinase

>  <UniProt ID>  (1) 
P03176

>  <PDB ID.1>  (1) 
1KI2

>  <Seq. Identity>  (1) 
100%

$$$$
