PDB_DB06401_08
     RDKit          3D

348367  0  0  0  0  0  0  0  0999 V2000
    7.3641   -1.1038    1.0513 C   0  0  1  0  0  0  0  0  0  0  0  0
    8.3705   -1.9626    0.3460 C   0  0  0  0  0  0  0  0  0  0  0  0
    9.4883   -1.1627   -0.2758 C   0  0  0  0  0  0  0  0  0  0  0  0
    8.8796   -0.1394   -1.1871 C   0  0  0  0  0  0  0  0  0  0  0  0
    8.0868    0.8306   -0.3852 C   0  0  0  0  0  0  0  0  0  0  0  0
    7.2234    0.2514    0.6797 C   0  0  1  0  0  0  0  0  0  0  0  0
    6.2449   -0.7052    0.2688 N   0  0  0  0  0  0  0  0  0  0  0  0
    4.9109   -0.6850    0.7392 C   0  0  0  0  0  0  0  0  0  0  0  0
    4.6293    0.3522    1.7913 C   0  0  0  0  0  0  0  0  0  0  0  0
    3.3425    0.3641    2.2360 O   0  0  0  0  0  0  0  0  0  0  0  0
    2.3723    0.6076    1.3259 C   0  0  0  0  0  0  0  0  0  0  0  0
    1.4157   -0.5862    1.1868 C   0  0  0  0  0  0  0  0  0  0  0  0
    0.5495   -0.3994   -0.0073 C   0  0  0  0  0  0  0  0  0  0  0  0
    1.4729    1.7782    1.6320 C   0  0  0  0  0  0  0  0  0  0  0  0
    0.7184    2.0917    0.3688 C   0  0  0  0  0  0  0  0  0  0  0  0
   -0.0502    0.9424   -0.1999 C   0  0  0  0  0  0  0  0  0  0  0  0
   -1.4889    1.0590    0.2517 C   0  0  0  0  0  0  0  0  0  0  0  0
   -2.4002    0.2247   -0.3677 N   0  0  0  0  0  0  0  0  0  0  0  0
   -2.7547    0.3365   -1.7041 C   0  0  0  0  0  0  0  0  0  0  0  0
   -3.0228    1.7371   -2.2252 C   0  0  0  0  0  0  0  0  0  0  0  0
   -3.9197    1.5457   -3.4508 C   0  0  0  0  0  0  0  0  0  0  0  0
   -3.7116    0.2013   -4.1058 C   0  0  0  0  0  0  0  0  0  0  0  0
   -4.4627    0.2143   -5.2831 O   0  0  0  0  0  0  0  0  0  0  0  0
   -4.2070   -0.9280   -3.1930 C   0  0  0  0  0  0  0  0  0  0  0  0
   -4.0960   -0.3892   -1.7901 C   0  0  0  0  0  0  0  0  0  0  0  0
   -3.9818   -1.4110   -0.7202 C   0  0  0  0  0  0  0  0  0  0  0  0
   -3.1651   -2.5894   -1.2675 C   0  0  0  0  0  0  0  0  0  0  0  0
   -3.1738   -0.7065    0.3358 C   0  0  2  0  0  0  0  0  0  0  0  0
   -3.9572   -0.1280    1.4464 C   0  0  0  0  0  0  0  0  0  0  0  0
   -4.9608    0.9305    1.0866 C   0  0  0  0  0  0  0  0  0  0  0  0
   -5.5477    1.4004    2.4307 C   0  0  0  0  0  0  0  0  0  0  0  0
   -6.4684    0.2790    2.8955 C   0  0  0  0  0  0  0  0  0  0  0  0
   -7.7991    0.5686    2.5192 O   0  0  0  0  0  0  0  0  0  0  0  0
   -6.1313   -1.0424    2.2807 C   0  0  0  0  0  0  0  0  0  0  0  0
   -4.6422   -1.2216    2.2770 C   0  0  0  0  0  0  0  0  0  0  0  0
    6.0204   -0.9030   -0.6948 C   0  0  1  0  0  0  0  0  0  0  0  0
    7.2445   -0.3871   -1.3176 C   0  0  0  0  0  0  0  0  0  0  0  0
    8.1805    0.4071   -0.4965 C   0  0  0  0  0  0  0  0  0  0  0  0
    8.0550    0.3681    0.9682 C   0  0  0  0  0  0  0  0  0  0  0  0
    7.0525   -0.5388    1.5483 C   0  0  0  0  0  0  0  0  0  0  0  0
    5.9004   -0.9410    0.7196 C   0  0  1  0  0  0  0  0  0  0  0  0
    5.0483   -0.0807    0.0014 N   0  0  0  0  0  0  0  0  0  0  0  0
    4.9892    1.3079   -0.0258 C   0  0  0  0  0  0  0  0  0  0  0  0
    4.5480    1.8368   -1.3969 C   0  0  0  0  0  0  0  0  0  0  0  0
    3.3120    1.3973   -1.7785 O   0  0  0  0  0  0  0  0  0  0  0  0
    2.2628    1.7818   -0.9937 C   0  0  0  0  0  0  0  0  0  0  0  0
    1.1844    2.5181   -1.7625 C   0  0  0  0  0  0  0  0  0  0  0  0
   -0.0344    2.6113   -0.8744 C   0  0  0  0  0  0  0  0  0  0  0  0
    1.6068    0.5222   -0.4505 C   0  0  0  0  0  0  0  0  0  0  0  0
    0.3163    0.1780   -1.1145 C   0  0  0  0  0  0  0  0  0  0  0  0
   -0.7421    1.2317   -0.8613 C   0  0  0  0  0  0  0  0  0  0  0  0
   -1.4335    1.0387    0.4508 C   0  0  0  0  0  0  0  0  0  0  0  0
   -2.0926   -0.2028    0.5598 N   0  0  0  0  0  0  0  0  0  0  0  0
   -2.4335   -0.4334    2.0144 C   0  0  0  0  0  0  0  0  0  0  0  0
   -1.2363   -0.5264    2.8709 C   0  0  0  0  0  0  0  0  0  0  0  0
   -1.5463   -1.5184    3.9869 C   0  0  0  0  0  0  0  0  0  0  0  0
   -3.0228   -1.6386    4.2620 C   0  0  0  0  0  0  0  0  0  0  0  0
   -3.5178   -0.4746    4.8031 O   0  0  0  0  0  0  0  0  0  0  0  0
   -3.8142   -2.0954    3.0631 C   0  0  0  0  0  0  0  0  0  0  0  0
   -3.0077   -1.8240    1.8323 C   0  0  0  0  0  0  0  0  0  0  0  0
   -3.8206   -1.6664    0.5638 C   0  0  1  0  0  0  0  0  0  0  0  0
   -5.2448   -2.0156    0.7341 C   0  0  0  0  0  0  0  0  0  0  0  0
   -3.5135   -0.2357    0.1631 C   0  0  2  0  0  0  0  0  0  0  0  0
   -3.8304    0.1007   -1.2147 C   0  0  0  0  0  0  0  0  0  0  0  0
   -5.3501    0.0863   -1.4065 C   0  0  0  0  0  0  0  0  0  0  0  0
   -5.5863    0.8845   -2.7052 C   0  0  0  0  0  0  0  0  0  0  0  0
   -4.9651    0.1359   -3.8342 C   0  0  0  0  0  0  0  0  0  0  0  0
   -5.6694   -1.0127   -4.1236 O   0  0  0  0  0  0  0  0  0  0  0  0
   -3.4943   -0.1529   -3.6109 C   0  0  0  0  0  0  0  0  0  0  0  0
   -3.2670   -0.8130   -2.2659 C   0  0  0  0  0  0  0  0  0  0  0  0
    6.4989    0.1643    1.3313 C   0  0  0  0  0  0  0  0  0  0  0  0
    6.6682   -1.2040    0.6504 C   0  0  0  0  0  0  0  0  0  0  0  0
    6.5049   -1.1203   -0.8352 C   0  0  0  0  0  0  0  0  0  0  0  0
    7.5312   -0.3142   -1.5514 C   0  0  0  0  0  0  0  0  0  0  0  0
    8.6550    0.1986   -0.7082 C   0  0  0  0  0  0  0  0  0  0  0  0
    8.1655    1.3770    0.1412 C   0  0  0  0  0  0  0  0  0  0  0  0
    6.7493    1.1391    0.3362 N   0  0  0  0  0  0  0  0  0  0  0  0
    5.9134    2.2675    0.2388 C   0  0  0  0  0  0  0  0  0  0  0  0
    4.5416    1.9304   -0.2257 C   0  0  0  0  0  0  0  0  0  0  0  0
    3.8226    1.0716    0.5845 O   0  0  0  0  0  0  0  0  0  0  0  0
    2.5850    0.8550    0.0264 C   0  0  0  0  0  0  0  0  0  0  0  0
    1.4640    1.4132    0.8813 C   0  0  0  0  0  0  0  0  0  0  0  0
    0.2663    0.5366    0.8132 C   0  0  0  0  0  0  0  0  0  0  0  0
    2.2899   -0.5975   -0.2243 C   0  0  0  0  0  0  0  0  0  0  0  0
    1.1511   -0.6623   -1.2171 C   0  0  0  0  0  0  0  0  0  0  0  0
   -0.0557   -0.0049   -0.5595 C   0  0  0  0  0  0  0  0  0  0  0  0
   -1.0751   -1.0696   -0.3896 C   0  0  0  0  0  0  0  0  0  0  0  0
   -2.3476   -0.6133    0.2011 N   0  0  0  0  0  0  0  0  0  0  0  0
   -3.0603   -1.8499    0.4503 C   0  0  0  0  0  0  0  0  0  0  0  0
   -3.0331   -2.3217    1.8730 C   0  0  0  0  0  0  0  0  0  0  0  0
   -3.7403   -3.6640    1.8899 C   0  0  0  0  0  0  0  0  0  0  0  0
   -5.0740   -3.6600    1.2390 C   0  0  0  0  0  0  0  0  0  0  0  0
   -6.0806   -3.1134    2.0529 O   0  0  0  0  0  0  0  0  0  0  0  0
   -5.1167   -2.9475   -0.0944 C   0  0  0  0  0  0  0  0  0  0  0  0
   -4.5149   -1.5823    0.1298 C   0  0  0  0  0  0  0  0  0  0  0  0
   -4.3631   -0.7360   -1.0937 C   0  0  0  0  0  0  0  0  0  0  0  0
   -4.1403   -1.6975   -2.2743 C   0  0  0  0  0  0  0  0  0  0  0  0
   -3.1588    0.0658   -0.8272 C   0  0  1  0  0  0  0  0  0  0  0  0
   -3.3397    1.4911   -0.3860 C   0  0  0  0  0  0  0  0  0  0  0  0
   -3.9627    1.6135    0.9775 C   0  0  0  0  0  0  0  0  0  0  0  0
   -5.4227    1.9044    1.0067 C   0  0  0  0  0  0  0  0  0  0  0  0
   -5.6637    3.1444    0.1538 C   0  0  0  0  0  0  0  0  0  0  0  0
   -4.6795    4.0681    0.4994 O   0  0  0  0  0  0  0  0  0  0  0  0
   -5.3960    2.7077   -1.2630 C   0  0  0  0  0  0  0  0  0  0  0  0
   -3.9671    2.3700   -1.4300 C   0  0  0  0  0  0  0  0  0  0  0  0
    6.9038   -1.6804    0.3942 C   0  0  2  0  0  0  0  0  0  0  0  0
    8.3380   -2.1721    0.5710 C   0  0  0  0  0  0  0  0  0  0  0  0
    9.2878   -1.0279    0.6108 C   0  0  0  0  0  0  0  0  0  0  0  0
    9.2159   -0.3457   -0.7489 C   0  0  0  0  0  0  0  0  0  0  0  0
    7.8560    0.1951   -1.0361 C   0  0  0  0  0  0  0  0  0  0  0  0
    6.7326   -0.6528   -0.5555 C   0  0  2  0  0  0  0  0  0  0  0  0
    6.4911   -0.5047    0.9052 N   0  0  0  0  0  0  0  0  0  0  0  0
    6.0853    0.6550    1.4044 C   0  0  0  0  0  0  0  0  0  0  0  0
    4.6968    1.1294    0.9945 C   0  0  0  0  0  0  0  0  0  0  0  0
    3.7640    0.2825    1.5568 O   0  0  0  0  0  0  0  0  0  0  0  0
    2.5123    0.4213    1.0423 C   0  0  0  0  0  0  0  0  0  0  0  0
    1.6796   -0.7754    0.8862 C   0  0  0  0  0  0  0  0  0  0  0  0
    0.4426   -0.4991    0.1290 C   0  0  0  0  0  0  0  0  0  0  0  0
    1.6186    1.4454    1.7748 C   0  0  0  0  0  0  0  0  0  0  0  0
    0.7366    1.9677    0.6462 C   0  0  0  0  0  0  0  0  0  0  0  0
   -0.0649    0.8749    0.0056 C   0  0  0  0  0  0  0  0  0  0  0  0
   -1.5172    1.0646    0.4071 C   0  0  0  0  0  0  0  0  0  0  0  0
   -2.4559    0.3138   -0.2714 N   0  0  0  0  0  0  0  0  0  0  0  0
   -2.7343    0.4643   -1.6171 C   0  0  0  0  0  0  0  0  0  0  0  0
   -2.9240    1.8618   -2.1585 C   0  0  0  0  0  0  0  0  0  0  0  0
   -3.7916    1.7433   -3.4013 C   0  0  0  0  0  0  0  0  0  0  0  0
   -3.6869    0.3952   -4.0524 C   0  0  0  0  0  0  0  0  0  0  0  0
   -4.4718    0.4715   -5.2197 O   0  0  0  0  0  0  0  0  0  0  0  0
   -4.2602   -0.7013   -3.1559 C   0  0  0  0  0  0  0  0  0  0  0  0
   -4.0909   -0.2233   -1.7545 C   0  0  0  0  0  0  0  0  0  0  0  0
   -4.0373   -1.2753   -0.7145 C   0  0  0  0  0  0  0  0  0  0  0  0
   -3.2526   -2.4930   -1.1655 C   0  0  0  0  0  0  0  0  0  0  0  0
   -3.2653   -0.6035    0.4019 C   0  0  2  0  0  0  0  0  0  0  0  0
   -4.1119   -0.0110    1.4494 C   0  0  0  0  0  0  0  0  0  0  0  0
   -5.2240    0.8940    1.0715 C   0  0  0  0  0  0  0  0  0  0  0  0
   -6.0531    1.0569    2.3780 C   0  0  0  0  0  0  0  0  0  0  0  0
   -6.8547   -0.2151    2.5146 C   0  0  0  0  0  0  0  0  0  0  0  0
   -7.6397   -0.3074    1.3488 O   0  0  0  0  0  0  0  0  0  0  0  0
   -5.9393   -1.4226    2.4798 C   0  0  0  0  0  0  0  0  0  0  0  0
   -4.5123   -1.0049    2.5255 C   0  0  0  0  0  0  0  0  0  0  0  0
    7.1785   -1.4126    2.1061 H   0  0  0  0  0  0  0  0  0  0  0  0
    7.8720   -2.5174   -0.4897 H   0  0  0  0  0  0  0  0  0  0  0  0
    8.8245   -2.7428    0.9875 H   0  0  0  0  0  0  0  0  0  0  0  0
   10.0938   -1.8506   -0.8794 H   0  0  0  0  0  0  0  0  0  0  0  0
   10.0702   -0.6467    0.5117 H   0  0  0  0  0  0  0  0  0  0  0  0
    8.3231   -0.6073   -2.0182 H   0  0  0  0  0  0  0  0  0  0  0  0
    9.7278    0.4397   -1.6574 H   0  0  0  0  0  0  0  0  0  0  0  0
    7.4245    1.4661   -1.0439 H   0  0  0  0  0  0  0  0  0  0  0  0
    8.8044    1.5716    0.0667 H   0  0  0  0  0  0  0  0  0  0  0  0
    6.9480    1.0038    1.4777 H   0  0  0  0  0  0  0  0  0  0  0  0
    4.6913   -1.6777    1.2092 H   0  0  0  0  0  0  0  0  0  0  0  0
    4.2304   -0.5738   -0.1299 H   0  0  0  0  0  0  0  0  0  0  0  0
    5.2988    0.1736    2.6598 H   0  0  0  0  0  0  0  0  0  0  0  0
    4.8810    1.3834    1.4258 H   0  0  0  0  0  0  0  0  0  0  0  0
    2.7639    0.7753    0.2899 H   0  0  0  0  0  0  0  0  0  0  0  0
    2.0150   -1.5119    1.0432 H   0  0  0  0  0  0  0  0  0  0  0  0
    0.8663   -0.6798    2.1457 H   0  0  0  0  0  0  0  0  0  0  0  0
   -0.2698   -1.1563    0.0463 H   0  0  0  0  0  0  0  0  0  0  0  0
    1.1547   -0.7302   -0.8990 H   0  0  0  0  0  0  0  0  0  0  0  0
    2.0028    2.6704    1.9520 H   0  0  0  0  0  0  0  0  0  0  0  0
    0.7309    1.4641    2.4211 H   0  0  0  0  0  0  0  0  0  0  0  0
    1.4659    2.4584   -0.3814 H   0  0  0  0  0  0  0  0  0  0  0  0
    0.0424    2.9508    0.5466 H   0  0  0  0  0  0  0  0  0  0  0  0
   -0.0789    1.1142   -1.3201 H   0  0  0  0  0  0  0  0  0  0  0  0
   -1.4588    0.8302    1.3553 H   0  0  0  0  0  0  0  0  0  0  0  0
   -1.8205    2.1160    0.1963 H   0  0  0  0  0  0  0  0  0  0  0  0
   -2.0694   -0.1218   -2.4455 H   0  0  0  0  0  0  0  0  0  0  0  0
   -3.5107    2.3879   -1.4742 H   0  0  0  0  0  0  0  0  0  0  0  0
   -2.0261    2.1641   -2.5406 H   0  0  0  0  0  0  0  0  0  0  0  0
   -4.9679    1.7127   -3.1677 H   0  0  0  0  0  0  0  0  0  0  0  0
   -3.5689    2.3097   -4.1864 H   0  0  0  0  0  0  0  0  0  0  0  0
   -2.6624    0.0795   -4.3868 H   0  0  0  0  0  0  0  0  0  0  0  0
   -5.2595    0.7832   -5.1507 H   0  0  0  0  0  0  0  0  0  0  0  0
   -5.2886   -1.0465   -3.4334 H   0  0  0  0  0  0  0  0  0  0  0  0
   -3.6651   -1.8575   -3.3607 H   0  0  0  0  0  0  0  0  0  0  0  0
   -4.9125    0.3449   -1.6609 H   0  0  0  0  0  0  0  0  0  0  0  0
   -4.9133   -1.8427   -0.3597 H   0  0  0  0  0  0  0  0  0  0  0  0
   -2.2640   -2.2583   -1.7847 H   0  0  0  0  0  0  0  0  0  0  0  0
   -3.7868   -3.2619   -1.8867 H   0  0  0  0  0  0  0  0  0  0  0  0
   -2.8345   -3.1487   -0.3432 H   0  0  0  0  0  0  0  0  0  0  0  0
   -2.5141   -1.5031    0.7908 H   0  0  0  0  0  0  0  0  0  0  0  0
   -3.2495    0.3578    2.1512 H   0  0  0  0  0  0  0  0  0  0  0  0
   -5.8185    0.5921    0.5198 H   0  0  0  0  0  0  0  0  0  0  0  0
   -4.5033    1.8223    0.6321 H   0  0  0  0  0  0  0  0  0  0  0  0
   -6.1890    2.2677    2.2033 H   0  0  0  0  0  0  0  0  0  0  0  0
   -4.7732    1.5778    3.1772 H   0  0  0  0  0  0  0  0  0  0  0  0
   -6.4033    0.2218    4.0034 H   0  0  0  0  0  0  0  0  0  0  0  0
   -6.5469   -1.8522    2.9293 H   0  0  0  0  0  0  0  0  0  0  0  0
   -6.5609   -1.2010    1.2768 H   0  0  0  0  0  0  0  0  0  0  0  0
   -4.3016   -1.2012    3.3299 H   0  0  0  0  0  0  0  0  0  0  0  0
   -4.3198   -2.1918    1.8574 H   0  0  0  0  0  0  0  0  0  0  0  0
    5.5022   -1.7092   -1.2974 H   0  0  0  0  0  0  0  0  0  0  0  0
    7.8289   -1.3104   -1.6550 H   0  0  0  0  0  0  0  0  0  0  0  0
    6.9929    0.0837   -2.2919 H   0  0  0  0  0  0  0  0  0  0  0  0
    8.0844    1.4902   -0.8139 H   0  0  0  0  0  0  0  0  0  0  0  0
    9.2507    0.1896   -0.8076 H   0  0  0  0  0  0  0  0  0  0  0  0
    9.0627    0.0791    1.4100 H   0  0  0  0  0  0  0  0  0  0  0  0
    7.9238    1.3989    1.4199 H   0  0  0  0  0  0  0  0  0  0  0  0
    6.6383   -0.0902    2.5003 H   0  0  0  0  0  0  0  0  0  0  0  0
    7.5475   -1.4838    1.9104 H   0  0  0  0  0  0  0  0  0  0  0  0
    5.3366   -1.8194    1.1709 H   0  0  0  0  0  0  0  0  0  0  0  0
    4.2014    1.6450    0.6905 H   0  0  0  0  0  0  0  0  0  0  0  0
    5.9510    1.8357    0.1589 H   0  0  0  0  0  0  0  0  0  0  0  0
    4.4515    2.9626   -1.2740 H   0  0  0  0  0  0  0  0  0  0  0  0
    5.3143    1.7186   -2.1712 H   0  0  0  0  0  0  0  0  0  0  0  0
    2.5954    2.4404   -0.1674 H   0  0  0  0  0  0  0  0  0  0  0  0
    0.9160    1.8972   -2.6500 H   0  0  0  0  0  0  0  0  0  0  0  0
    1.5301    3.4895   -2.1090 H   0  0  0  0  0  0  0  0  0  0  0  0
   -0.7298    3.3661   -1.2496 H   0  0  0  0  0  0  0  0  0  0  0  0
    0.2943    2.7979    0.1731 H   0  0  0  0  0  0  0  0  0  0  0  0
    2.3121   -0.3394   -0.4582 H   0  0  0  0  0  0  0  0  0  0  0  0
    1.3965    0.7210    0.6192 H   0  0  0  0  0  0  0  0  0  0  0  0
   -0.0415   -0.7687   -0.6586 H   0  0  0  0  0  0  0  0  0  0  0  0
    0.4589   -0.0361   -2.1900 H   0  0  0  0  0  0  0  0  0  0  0  0
   -1.3692    1.2672   -1.7585 H   0  0  0  0  0  0  0  0  0  0  0  0
   -0.6019    1.0394    1.2254 H   0  0  0  0  0  0  0  0  0  0  0  0
   -2.0743    1.9169    0.7166 H   0  0  0  0  0  0  0  0  0  0  0  0
   -3.1622    0.3322    2.2615 H   0  0  0  0  0  0  0  0  0  0  0  0
   -0.9126    0.4541    3.2811 H   0  0  0  0  0  0  0  0  0  0  0  0
   -0.3890   -0.9072    2.2645 H   0  0  0  0  0  0  0  0  0  0  0  0
   -1.0917   -1.0802    4.9149 H   0  0  0  0  0  0  0  0  0  0  0  0
   -1.0659   -2.4896    3.8369 H   0  0  0  0  0  0  0  0  0  0  0  0
   -3.1215   -2.4215    5.0473 H   0  0  0  0  0  0  0  0  0  0  0  0
   -2.8214    0.1619    5.0492 H   0  0  0  0  0  0  0  0  0  0  0  0
   -4.7417   -1.4687    3.0586 H   0  0  0  0  0  0  0  0  0  0  0  0
   -4.0106   -3.1743    3.1280 H   0  0  0  0  0  0  0  0  0  0  0  0
   -2.1750   -2.5267    1.7249 H   0  0  0  0  0  0  0  0  0  0  0  0
   -3.3015   -2.3003   -0.2132 H   0  0  0  0  0  0  0  0  0  0  0  0
   -5.9525   -1.2122    0.9138 H   0  0  0  0  0  0  0  0  0  0  0  0
   -5.2895   -2.7522    1.6060 H   0  0  0  0  0  0  0  0  0  0  0  0
   -5.5358   -2.6948   -0.1266 H   0  0  0  0  0  0  0  0  0  0  0  0
   -4.0557    0.4258    0.8477 H   0  0  0  0  0  0  0  0  0  0  0  0
   -3.5466    1.1384   -1.4514 H   0  0  0  0  0  0  0  0  0  0  0  0
   -5.8466    0.6019   -0.5641 H   0  0  0  0  0  0  0  0  0  0  0  0
   -5.7424   -0.9128   -1.6327 H   0  0  0  0  0  0  0  0  0  0  0  0
   -6.6836    0.8902   -2.8460 H   0  0  0  0  0  0  0  0  0  0  0  0
   -5.1693    1.8934   -2.5782 H   0  0  0  0  0  0  0  0  0  0  0  0
   -5.0181    0.7911   -4.7414 H   0  0  0  0  0  0  0  0  0  0  0  0
   -5.1495   -1.7850   -3.8050 H   0  0  0  0  0  0  0  0  0  0  0  0
   -2.9642    0.8224   -3.5865 H   0  0  0  0  0  0  0  0  0  0  0  0
   -3.1606   -0.7907   -4.4601 H   0  0  0  0  0  0  0  0  0  0  0  0
   -2.1777   -0.9262   -2.1323 H   0  0  0  0  0  0  0  0  0  0  0  0
   -3.7865   -1.7970   -2.2913 H   0  0  0  0  0  0  0  0  0  0  0  0
    5.5329    0.2646    1.8292 H   0  0  0  0  0  0  0  0  0  0  0  0
    7.3320    0.2598    2.0898 H   0  0  0  0  0  0  0  0  0  0  0  0
    5.8919   -1.8763    1.0531 H   0  0  0  0  0  0  0  0  0  0  0  0
    7.6495   -1.6444    0.9297 H   0  0  0  0  0  0  0  0  0  0  0  0
    5.4779   -0.7428   -1.0569 H   0  0  0  0  0  0  0  0  0  0  0  0
    6.5477   -2.1574   -1.2324 H   0  0  0  0  0  0  0  0  0  0  0  0
    7.0196    0.5901   -1.9875 H   0  0  0  0  0  0  0  0  0  0  0  0
    7.9599   -0.8468   -2.4289 H   0  0  0  0  0  0  0  0  0  0  0  0
    9.1084   -0.5889   -0.0734 H   0  0  0  0  0  0  0  0  0  0  0  0
    9.4499    0.5739   -1.3779 H   0  0  0  0  0  0  0  0  0  0  0  0
    8.3124    2.2904   -0.4205 H   0  0  0  0  0  0  0  0  0  0  0  0
    8.7153    1.2918    1.0956 H   0  0  0  0  0  0  0  0  0  0  0  0
    5.9177    2.9209    1.1441 H   0  0  0  0  0  0  0  0  0  0  0  0
    6.3543    2.9389   -0.5618 H   0  0  0  0  0  0  0  0  0  0  0  0
    3.9227    2.8726   -0.3094 H   0  0  0  0  0  0  0  0  0  0  0  0
    4.6161    1.5598   -1.2713 H   0  0  0  0  0  0  0  0  0  0  0  0
    2.5168    1.4068   -0.9365 H   0  0  0  0  0  0  0  0  0  0  0  0
    1.8371    1.3816    1.9484 H   0  0  0  0  0  0  0  0  0  0  0  0
    1.2595    2.4794    0.6776 H   0  0  0  0  0  0  0  0  0  0  0  0
   -0.6020    1.1275    1.1531 H   0  0  0  0  0  0  0  0  0  0  0  0
    0.3195   -0.3204    1.5399 H   0  0  0  0  0  0  0  0  0  0  0  0
    2.0258   -1.0714    0.7560 H   0  0  0  0  0  0  0  0  0  0  0  0
    3.1756   -1.1556   -0.5971 H   0  0  0  0  0  0  0  0  0  0  0  0
    0.9856   -1.7265   -1.4619 H   0  0  0  0  0  0  0  0  0  0  0  0
    1.4720   -0.0722   -2.0968 H   0  0  0  0  0  0  0  0  0  0  0  0
   -0.3799    0.8490   -1.2116 H   0  0  0  0  0  0  0  0  0  0  0  0
   -1.3125   -1.5414   -1.3654 H   0  0  0  0  0  0  0  0  0  0  0  0
   -0.6279   -1.8699    0.2262 H   0  0  0  0  0  0  0  0  0  0  0  0
   -2.6792   -2.6895   -0.1667 H   0  0  0  0  0  0  0  0  0  0  0  0
   -2.0318   -2.4766    2.2818 H   0  0  0  0  0  0  0  0  0  0  0  0
   -3.6558   -1.6310    2.4822 H   0  0  0  0  0  0  0  0  0  0  0  0
   -3.9088   -3.8923    2.9853 H   0  0  0  0  0  0  0  0  0  0  0  0
   -3.0672   -4.3889    1.4231 H   0  0  0  0  0  0  0  0  0  0  0  0
   -5.3781   -4.7101    1.0524 H   0  0  0  0  0  0  0  0  0  0  0  0
   -6.8607   -2.9975    1.4208 H   0  0  0  0  0  0  0  0  0  0  0  0
   -4.6255   -3.5482   -0.8624 H   0  0  0  0  0  0  0  0  0  0  0  0
   -6.1766   -2.8066   -0.3713 H   0  0  0  0  0  0  0  0  0  0  0  0
   -5.0829   -1.1241    0.9463 H   0  0  0  0  0  0  0  0  0  0  0  0
   -5.2677   -0.1973   -1.3541 H   0  0  0  0  0  0  0  0  0  0  0  0
   -5.0993   -2.0517   -2.6505 H   0  0  0  0  0  0  0  0  0  0  0  0
   -3.3994   -2.4686   -2.0661 H   0  0  0  0  0  0  0  0  0  0  0  0
   -3.6867   -1.0379   -3.0738 H   0  0  0  0  0  0  0  0  0  0  0  0
   -2.5417    0.0303   -1.7794 H   0  0  0  0  0  0  0  0  0  0  0  0
   -2.2971    1.8765   -0.2528 H   0  0  0  0  0  0  0  0  0  0  0  0
   -3.7532    0.7322    1.6026 H   0  0  0  0  0  0  0  0  0  0  0  0
   -3.4813    2.4697    1.5502 H   0  0  0  0  0  0  0  0  0  0  0  0
   -5.6887    2.2086    2.0394 H   0  0  0  0  0  0  0  0  0  0  0  0
   -6.0878    1.0812    0.7376 H   0  0  0  0  0  0  0  0  0  0  0  0
   -6.6763    3.5148    0.2994 H   0  0  0  0  0  0  0  0  0  0  0  0
   -4.7866    4.8770   -0.0876 H   0  0  0  0  0  0  0  0  0  0  0  0
   -6.1429    1.9846   -1.5771 H   0  0  0  0  0  0  0  0  0  0  0  0
   -5.5893    3.6259   -1.9019 H   0  0  0  0  0  0  0  0  0  0  0  0
   -3.7185    1.9201   -2.4166 H   0  0  0  0  0  0  0  0  0  0  0  0
   -3.4100    3.3460   -1.4399 H   0  0  0  0  0  0  0  0  0  0  0  0
    6.2286   -2.5879    0.2511 H   0  0  0  0  0  0  0  0  0  0  0  0
    8.6435   -2.7634   -0.3633 H   0  0  0  0  0  0  0  0  0  0  0  0
    8.3956   -2.8862    1.3869 H   0  0  0  0  0  0  0  0  0  0  0  0
   10.3277   -1.4546    0.6595 H   0  0  0  0  0  0  0  0  0  0  0  0
    9.0869   -0.3652    1.4465 H   0  0  0  0  0  0  0  0  0  0  0  0
    9.4373   -1.1044   -1.5130 H   0  0  0  0  0  0  0  0  0  0  0  0
    9.9834    0.4773   -0.7132 H   0  0  0  0  0  0  0  0  0  0  0  0
    7.7976    0.4352   -2.1404 H   0  0  0  0  0  0  0  0  0  0  0  0
    7.7939    1.1963   -0.4977 H   0  0  0  0  0  0  0  0  0  0  0  0
    5.8512   -0.6064   -1.2233 H   0  0  0  0  0  0  0  0  0  0  0  0
    6.0751    0.6669    2.5219 H   0  0  0  0  0  0  0  0  0  0  0  0
    6.7877    1.4958    1.1630 H   0  0  0  0  0  0  0  0  0  0  0  0
    4.5927    1.3736   -0.0603 H   0  0  0  0  0  0  0  0  0  0  0  0
    4.5795    2.1031    1.5785 H   0  0  0  0  0  0  0  0  0  0  0  0
    2.6645    0.9604    0.0581 H   0  0  0  0  0  0  0  0  0  0  0  0
    2.2900   -1.5561    0.3674 H   0  0  0  0  0  0  0  0  0  0  0  0
    1.4430   -1.2386    1.9014 H   0  0  0  0  0  0  0  0  0  0  0  0
   -0.3652   -1.1261    0.5812 H   0  0  0  0  0  0  0  0  0  0  0  0
    0.5754   -0.9832   -0.8905 H   0  0  0  0  0  0  0  0  0  0  0  0
    2.1622    2.2658    2.1970 H   0  0  0  0  0  0  0  0  0  0  0  0
    0.9723    0.8913    2.4696 H   0  0  0  0  0  0  0  0  0  0  0  0
    1.4761    2.3761   -0.1107 H   0  0  0  0  0  0  0  0  0  0  0  0
    0.1056    2.7914    0.9517 H   0  0  0  0  0  0  0  0  0  0  0  0
   -0.0773    1.1123   -1.0945 H   0  0  0  0  0  0  0  0  0  0  0  0
   -1.5399    0.8409    1.4948 H   0  0  0  0  0  0  0  0  0  0  0  0
   -1.7359    2.1548    0.3127 H   0  0  0  0  0  0  0  0  0  0  0  0
   -2.0745   -0.0927   -2.3322 H   0  0  0  0  0  0  0  0  0  0  0  0
   -3.4945    2.4094   -1.3928 H   0  0  0  0  0  0  0  0  0  0  0  0
   -1.9725    2.3887   -2.3600 H   0  0  0  0  0  0  0  0  0  0  0  0
   -4.8469    1.9776   -3.1760 H   0  0  0  0  0  0  0  0  0  0  0  0
   -3.4339    2.4903   -4.1045 H   0  0  0  0  0  0  0  0  0  0  0  0
   -2.6633    0.1529   -4.3915 H   0  0  0  0  0  0  0  0  0  0  0  0
   -5.3408    0.8942   -4.9138 H   0  0  0  0  0  0  0  0  0  0  0  0
   -5.3735   -0.7585   -3.3868 H   0  0  0  0  0  0  0  0  0  0  0  0
   -3.7934   -1.6536   -3.4151 H   0  0  0  0  0  0  0  0  0  0  0  0
   -4.9093    0.5256   -1.5887 H   0  0  0  0  0  0  0  0  0  0  0  0
   -5.0185   -1.6630   -0.3715 H   0  0  0  0  0  0  0  0  0  0  0  0
   -2.5407   -2.2811   -1.9906 H   0  0  0  0  0  0  0  0  0  0  0  0
   -3.8938   -3.3526   -1.3848 H   0  0  0  0  0  0  0  0  0  0  0  0
   -2.5993   -2.8055   -0.2993 H   0  0  0  0  0  0  0  0  0  0  0  0
   -2.6734   -1.4257    0.8605 H   0  0  0  0  0  0  0  0  0  0  0  0
   -3.4107    0.6907    2.0369 H   0  0  0  0  0  0  0  0  0  0  0  0
   -5.9728    0.4500    0.3855 H   0  0  0  0  0  0  0  0  0  0  0  0
   -4.9220    1.8985    0.8001 H   0  0  0  0  0  0  0  0  0  0  0  0
   -6.7475    1.8782    2.1712 H   0  0  0  0  0  0  0  0  0  0  0  0
   -5.3947    1.2238    3.2206 H   0  0  0  0  0  0  0  0  0  0  0  0
   -7.4580   -0.1407    3.4307 H   0  0  0  0  0  0  0  0  0  0  0  0
   -6.1297   -1.9853    3.4128 H   0  0  0  0  0  0  0  0  0  0  0  0
   -6.1796   -2.1273    1.6695 H   0  0  0  0  0  0  0  0  0  0  0  0
   -4.3418   -0.5838    3.5504 H   0  0  0  0  0  0  0  0  0  0  0  0
   -3.8392   -1.8999    2.4879 H   0  0  0  0  0  0  0  0  0  0  0  0
  1  2  1  0
  2  3  1  0
  3  4  1  0
  4  5  1  0
  5  6  1  0
  6  1  1  0
  1  7  1  0
  6  7  1  0
  7  8  1  0
  8  9  1  0
  9 10  1  0
 10 11  1  0
 11 12  1  0
 12 13  1  0
 11 14  1  0
 14 15  1  0
 13 16  1  0
 15 16  1  0
 16 17  1  0
 17 18  1  0
 18 19  1  0
 19 20  1  0
 20 21  1  0
 21 22  1  0
 22 23  1  0
 22 24  1  0
 19 25  1  0
 24 25  1  0
 25 26  1  0
 26 27  1  0
 18 28  1  0
 26 28  1  0
 28 29  1  0
 29 30  1  0
 30 31  1  0
 31 32  1  0
 32 33  1  0
 32 34  1  0
 29 35  1  0
 34 35  1  0
 36 37  1  0
 37 38  1  0
 38 39  1  0
 39 40  1  0
 40 41  1  0
 41 36  1  0
 36 42  1  0
 41 42  1  0
 42 43  1  0
 43 44  1  0
 44 45  1  0
 45 46  1  0
 46 47  1  0
 47 48  1  0
 46 49  1  0
 49 50  1  0
 48 51  1  0
 50 51  1  0
 51 52  1  0
 52 53  1  0
 53 54  1  0
 54 55  1  0
 55 56  1  0
 56 57  1  0
 57 58  1  0
 57 59  1  0
 54 60  1  0
 59 60  1  0
 60 61  1  0
 61 62  1  0
 53 63  1  0
 61 63  1  0
 63 64  1  0
 64 65  1  0
 65 66  1  0
 66 67  1  0
 67 68  1  0
 67 69  1  0
 64 70  1  0
 69 70  1  0
 71 72  1  0
 72 73  1  0
 73 74  1  0
 74 75  1  0
 75 76  1  0
 71 77  1  0
 76 77  1  0
 77 78  1  0
 78 79  1  0
 79 80  1  0
 80 81  1  0
 81 82  1  0
 82 83  1  0
 81 84  1  0
 84 85  1  0
 83 86  1  0
 85 86  1  0
 86 87  1  0
 87 88  1  0
 88 89  1  0
 89 90  1  0
 90 91  1  0
 91 92  1  0
 92 93  1  0
 92 94  1  0
 89 95  1  0
 94 95  1  0
 95 96  1  0
 96 97  1  0
 88 98  1  0
 96 98  1  0
 98 99  1  0
 99100  1  0
100101  1  0
101102  1  0
102103  1  0
102104  1  0
 99105  1  0
104105  1  0
106107  1  0
107108  1  0
108109  1  0
109110  1  0
110111  1  0
111106  1  0
106112  1  0
111112  1  0
112113  1  0
113114  1  0
114115  1  0
115116  1  0
116117  1  0
117118  1  0
116119  1  0
119120  1  0
118121  1  0
120121  1  0
121122  1  0
122123  1  0
123124  1  0
124125  1  0
125126  1  0
126127  1  0
127128  1  0
127129  1  0
124130  1  0
129130  1  0
130131  1  0
131132  1  0
123133  1  0
131133  1  0
133134  1  0
134135  1  0
135136  1  0
136137  1  0
137138  1  0
137139  1  0
134140  1  0
139140  1  0
  1141  1  1
  2142  1  0
  2143  1  0
  3144  1  0
  3145  1  0
  4146  1  0
  4147  1  0
  5148  1  0
  5149  1  0
  6150  1  1
  8151  1  0
  8152  1  0
  9153  1  0
  9154  1  0
 11155  1  0
 12156  1  0
 12157  1  0
 13158  1  0
 13159  1  0
 14160  1  0
 14161  1  0
 15162  1  0
 15163  1  0
 16164  1  0
 17165  1  0
 17166  1  0
 19167  1  0
 20168  1  0
 20169  1  0
 21170  1  0
 21171  1  0
 22172  1  0
 23173  1  0
 24174  1  0
 24175  1  0
 25176  1  0
 26177  1  0
 27178  1  0
 27179  1  0
 27180  1  0
 28181  1  1
 29182  1  0
 30183  1  0
 30184  1  0
 31185  1  0
 31186  1  0
 32187  1  0
 34188  1  0
 34189  1  0
 35190  1  0
 35191  1  0
 36192  1  6
 37193  1  0
 37194  1  0
 38195  1  0
 38196  1  0
 39197  1  0
 39198  1  0
 40199  1  0
 40200  1  0
 41201  1  1
 43202  1  0
 43203  1  0
 44204  1  0
 44205  1  0
 46206  1  0
 47207  1  0
 47208  1  0
 48209  1  0
 48210  1  0
 49211  1  0
 49212  1  0
 50213  1  0
 50214  1  0
 51215  1  0
 52216  1  0
 52217  1  0
 54218  1  0
 55219  1  0
 55220  1  0
 56221  1  0
 56222  1  0
 57223  1  0
 58224  1  0
 59225  1  0
 59226  1  0
 60227  1  0
 61228  1  6
 62229  1  0
 62230  1  0
 62231  1  0
 63232  1  1
 64233  1  0
 65234  1  0
 65235  1  0
 66236  1  0
 66237  1  0
 67238  1  0
 68239  1  0
 69240  1  0
 69241  1  0
 70242  1  0
 70243  1  0
 71244  1  0
 71245  1  0
 72246  1  0
 72247  1  0
 73248  1  0
 73249  1  0
 74250  1  0
 74251  1  0
 75252  1  0
 75253  1  0
 76254  1  0
 76255  1  0
 78256  1  0
 78257  1  0
 79258  1  0
 79259  1  0
 81260  1  0
 82261  1  0
 82262  1  0
 83263  1  0
 83264  1  0
 84265  1  0
 84266  1  0
 85267  1  0
 85268  1  0
 86269  1  0
 87270  1  0
 87271  1  0
 89272  1  0
 90273  1  0
 90274  1  0
 91275  1  0
 91276  1  0
 92277  1  0
 93278  1  0
 94279  1  0
 94280  1  0
 95281  1  0
 96282  1  0
 97283  1  0
 97284  1  0
 97285  1  0
 98286  1  6
 99287  1  0
100288  1  0
100289  1  0
101290  1  0
101291  1  0
102292  1  0
103293  1  0
104294  1  0
104295  1  0
105296  1  0
105297  1  0
106298  1  6
107299  1  0
107300  1  0
108301  1  0
108302  1  0
109303  1  0
109304  1  0
110305  1  0
110306  1  0
111307  1  6
113308  1  0
113309  1  0
114310  1  0
114311  1  0
116312  1  0
117313  1  0
117314  1  0
118315  1  0
118316  1  0
119317  1  0
119318  1  0
120319  1  0
120320  1  0
121321  1  0
122322  1  0
122323  1  0
124324  1  0
125325  1  0
125326  1  0
126327  1  0
126328  1  0
127329  1  0
128330  1  0
129331  1  0
129332  1  0
130333  1  0
131334  1  0
132335  1  0
132336  1  0
132337  1  0
133338  1  1
134339  1  0
135340  1  0
135341  1  0
136342  1  0
136343  1  0
137344  1  0
139345  1  0
139346  1  0
140347  1  0
140348  1  0
M  END
>  <PDBID>  (1) 
4XI3

>  <PDB ID>  (1) 
4XI3

>  <Generic Name>  (1) 
Bazedoxifene

>  <Brand Name>  (1) 
Duavee#Duavive#Aprela#Viviant

>  <DrugBank ID>  (1) 
DB06401

>  <ATC Codes>  (1) 
G03CC07#G03XC02

>  <Ligand ID>  (1) 
29S

>  <Target Name>  (1) 
Estrogen receptor

>  <UniProt ID>  (1) 
P03372

>  <PDB ID.1>  (1) 
4XI3

>  <Seq. Identity>  (1) 
92%

$$$$
