PDB_DB01128_05
     RDKit          3D

 63 64  0  0  0  0  0  0  0  0999 V2000
    5.8021   -0.6222   -1.4451 C   0  0  0  0  0  0  0  0  0  0  0  0
    6.5884   -0.8353   -0.1740 C   0  0  0  0  0  0  0  0  0  0  0  0
    6.9907    0.4284    0.5289 C   0  0  0  0  0  0  0  0  0  0  0  0
    6.7759    0.2591    1.8956 F   0  0  0  0  0  0  0  0  0  0  0  0
    6.1456    1.6139    0.1106 C   0  0  0  0  0  0  0  0  0  0  0  0
    4.7142    1.1395   -0.0431 C   0  0  0  0  0  0  0  0  0  0  0  0
    4.6174    0.2467   -1.2923 C   0  0  0  0  0  0  0  0  0  0  0  0
    3.0795   -0.6543   -1.2723 S   0  0  0  0  0  0  0  0  0  0  0  0
    3.5161   -1.8724    0.0115 O   0  0  0  0  0  0  0  0  0  0  0  0
    2.8086   -1.3432   -2.4670 O   0  0  0  0  0  0  0  0  0  0  0  0
    1.9782    0.3405   -0.4267 C   0  0  0  0  0  0  0  0  0  0  0  0
    0.6014   -0.2696   -0.2941 C   0  0  1  0  0  0  0  0  0  0  0  0
    0.0289   -0.4721   -1.5321 O   0  0  0  0  0  0  0  0  0  0  0  0
    0.7645   -1.7171    0.2593 C   0  0  0  0  0  0  0  0  0  0  0  0
   -0.2809    0.4424    0.6986 C   0  0  1  0  0  0  0  0  0  0  0  0
   -0.4714    1.7774    0.3653 O   0  0  0  0  0  0  0  0  0  0  0  0
   -1.4250   -0.3160    0.9251 N   0  0  0  0  0  0  0  0  0  0  0  0
   -2.7225    0.3005    0.9049 C   0  0  2  0  0  0  0  0  0  0  0  0
   -3.6773   -0.8500    1.1584 C   0  0  0  0  0  0  0  0  0  0  0  0
   -3.0455    1.1165   -0.2712 C   0  0  0  0  0  0  0  0  0  0  0  0
   -4.4657    1.2028   -0.7018 C   0  0  0  0  0  0  0  0  0  0  0  0
   -5.4797    0.3715   -0.0418 C   0  0  0  0  0  0  0  0  0  0  0  0
   -6.1269   -0.6183   -1.0328 C   0  0  0  0  0  0  0  0  0  0  0  0
   -7.1102   -1.4335   -0.3906 N   0  0  0  0  0  0  0  0  0  0  0  0
   -5.0904   -0.4056    1.1604 C   0  0  0  0  0  0  0  0  0  0  0  0
   -5.4823    0.3532    2.4384 C   0  0  0  0  0  0  0  0  0  0  0  0
   -5.3122   -0.4344    3.5313 F   0  0  0  0  0  0  0  0  0  0  0  0
   -6.8615    0.6307    2.3557 F   0  0  0  0  0  0  0  0  0  0  0  0
   -4.8534    1.5567    2.4590 F   0  0  0  0  0  0  0  0  0  0  0  0
    6.4762   -0.3338   -2.2520 H   0  0  0  0  0  0  0  0  0  0  0  0
    5.4197   -1.6546   -1.7148 H   0  0  0  0  0  0  0  0  0  0  0  0
    7.5301   -1.3575   -0.4786 H   0  0  0  0  0  0  0  0  0  0  0  0
    6.0864   -1.5433    0.5256 H   0  0  0  0  0  0  0  0  0  0  0  0
    8.0533    0.7062    0.4139 H   0  0  0  0  0  0  0  0  0  0  0  0
    6.1679    2.3481    0.9378 H   0  0  0  0  0  0  0  0  0  0  0  0
    6.5109    1.9983   -0.8556 H   0  0  0  0  0  0  0  0  0  0  0  0
    4.0762    2.0216   -0.2329 H   0  0  0  0  0  0  0  0  0  0  0  0
    4.3494    0.5884    0.8152 H   0  0  0  0  0  0  0  0  0  0  0  0
    4.5287    0.9395   -2.1753 H   0  0  0  0  0  0  0  0  0  0  0  0
    3.6767   -1.3375    0.8001 H   0  0  0  0  0  0  0  0  0  0  0  0
    2.8078   -2.3216   -2.6527 H   0  0  0  0  0  0  0  0  0  0  0  0
    2.3454    0.5100    0.5993 H   0  0  0  0  0  0  0  0  0  0  0  0
    1.9139    1.3258   -0.9215 H   0  0  0  0  0  0  0  0  0  0  0  0
    0.2034    0.2861   -2.1454 H   0  0  0  0  0  0  0  0  0  0  0  0
    1.2323   -1.7276    1.2413 H   0  0  0  0  0  0  0  0  0  0  0  0
    1.2819   -2.3410   -0.5118 H   0  0  0  0  0  0  0  0  0  0  0  0
   -0.2612   -2.1182    0.3484 H   0  0  0  0  0  0  0  0  0  0  0  0
    0.3177    0.4800    1.6604 H   0  0  0  0  0  0  0  0  0  0  0  0
   -0.0352    1.9951   -0.5091 H   0  0  0  0  0  0  0  0  0  0  0  0
   -1.3483   -0.9949    1.7139 H   0  0  0  0  0  0  0  0  0  0  0  0
   -2.7727    0.9253    1.8485 H   0  0  0  0  0  0  0  0  0  0  0  0
   -3.5443   -1.6359    0.3984 H   0  0  0  0  0  0  0  0  0  0  0  0
   -3.4309   -1.2590    2.1572 H   0  0  0  0  0  0  0  0  0  0  0  0
   -2.6972    2.1746   -0.0553 H   0  0  0  0  0  0  0  0  0  0  0  0
   -2.3641    0.8075   -1.1100 H   0  0  0  0  0  0  0  0  0  0  0  0
   -4.8120    2.2687   -0.7047 H   0  0  0  0  0  0  0  0  0  0  0  0
   -4.4850    0.9479   -1.8088 H   0  0  0  0  0  0  0  0  0  0  0  0
   -6.3619    1.0050    0.2877 H   0  0  0  0  0  0  0  0  0  0  0  0
   -5.3732   -1.1932   -1.5629 H   0  0  0  0  0  0  0  0  0  0  0  0
   -6.6796    0.0504   -1.7500 H   0  0  0  0  0  0  0  0  0  0  0  0
   -8.0736   -1.0670   -0.3950 H   0  0  0  0  0  0  0  0  0  0  0  0
   -7.0107   -2.4405   -0.5406 H   0  0  0  0  0  0  0  0  0  0  0  0
   -5.7340   -1.3379    1.2114 H   0  0  0  0  0  0  0  0  0  0  0  0
  1  2  1  0
  2  3  1  0
  3  4  1  0
  3  5  1  0
  5  6  1  0
  1  7  1  0
  6  7  1  0
  7  8  1  0
  8  9  1  0
  8 10  1  0
  8 11  1  0
 11 12  1  0
 12 13  1  6
 12 14  1  0
 12 15  1  0
 15 16  1  0
 15 17  1  0
 17 18  1  0
 18 19  1  0
 18 20  1  0
 20 21  1  0
 21 22  1  0
 22 23  1  0
 23 24  1  0
 19 25  1  0
 22 25  1  0
 25 26  1  0
 26 27  1  0
 26 28  1  0
 26 29  1  0
  1 30  1  0
  1 31  1  0
  2 32  1  0
  2 33  1  0
  3 34  1  0
  5 35  1  0
  5 36  1  0
  6 37  1  0
  6 38  1  0
  7 39  1  0
  9 40  1  0
 10 41  1  0
 11 42  1  0
 11 43  1  0
 13 44  1  0
 14 45  1  0
 14 46  1  0
 14 47  1  0
 15 48  1  1
 16 49  1  0
 17 50  1  0
 18 51  1  1
 19 52  1  0
 19 53  1  0
 20 54  1  0
 20 55  1  0
 21 56  1  0
 21 57  1  0
 22 58  1  0
 23 59  1  0
 23 60  1  0
 24 61  1  0
 24 62  1  0
 25 63  1  0
M  END
>  <PDBID>  (1) 
1Z95

>  <PDB ID>  (1) 
1Z95

>  <Generic Name>  (1) 
Bicalutamide

>  <Brand Name>  (1) 
Accel-bicalutamide Tablets USP#Ach-bicalutamide#Act Bicalutamide#Ag-bicalutamide#Apo-bicalutamide#Ava-bicalutamide#Bicalutamide#Bicalutamide Tablets#Casodex#Dom-bicalutamide#Jamp-bicalutamide#Med-bicalutamide#Mylan-bicalutamide#Ntp-bicalutamide#Nu-bicalutamide#PHL-bicalutamide#PMS-bicalutamide#Pro-bicalutamide - 50#Ran-bicalutamide#Ratio-bicalutamide#Sandoz Bicalutamide#Teva-bicalutamide#Van-bicalutamide

>  <DrugBank ID>  (1) 
DB01128

>  <ATC Codes>  (1) 
L02BB03

>  <Ligand ID>  (1) 
0U9,198

>  <Target Name>  (1) 
Androgen receptor

>  <UniProt ID>  (1) 
P10275

>  <PDB ID.1>  (1) 
1Z95

>  <Seq. Identity>  (1) 
100%

$$$$
