PDB_DB00841_09
     RDKit          3D

114116  0  0  0  0  0  0  0  0999 V2000
    7.0572    0.3780    0.9724 O   0  0  0  0  0  0  0  0  0  0  0  0
    6.1520   -0.5931    0.5293 C   0  0  0  0  0  0  0  0  0  0  0  0
    5.5963   -0.1259   -0.7756 C   0  0  0  0  0  0  0  0  0  0  0  0
    4.5347   -1.0666   -1.2606 C   0  0  0  0  0  0  0  0  0  0  0  0
    5.0204   -0.6119    1.5309 C   0  0  0  0  0  0  0  0  0  0  0  0
    3.8798   -1.4904    1.1098 C   0  0  0  0  0  0  0  0  0  0  0  0
    3.3858   -1.1961   -0.2734 C   0  0  0  0  0  0  0  0  0  0  0  0
    2.4971    0.0127   -0.3432 C   0  0  0  0  0  0  0  0  0  0  0  0
    1.3480   -0.0366    0.5924 C   0  0  0  0  0  0  0  0  0  0  0  0
    0.4429    1.1709    0.4951 C   0  0  1  0  0  0  0  0  0  0  0  0
    1.2125    2.4580    0.8109 C   0  0  0  0  0  0  0  0  0  0  0  0
   -0.3107    1.2800   -0.6977 N   0  0  0  0  0  0  0  0  0  0  0  0
   -1.2544    0.2100   -0.8841 C   0  0  0  0  0  0  0  0  0  0  0  0
   -2.3708    0.2553    0.1050 C   0  0  0  0  0  0  0  0  0  0  0  0
   -3.3550   -0.8702   -0.1131 C   0  0  0  0  0  0  0  0  0  0  0  0
   -4.4785   -0.8204    0.9009 C   0  0  0  0  0  0  0  0  0  0  0  0
   -5.3441    0.3953    0.7103 C   0  0  0  0  0  0  0  0  0  0  0  0
   -6.3588    0.3524    1.6693 O   0  0  0  0  0  0  0  0  0  0  0  0
   -5.9700    0.3817   -0.6453 C   0  0  0  0  0  0  0  0  0  0  0  0
   -5.5781    1.5542   -1.3278 O   0  0  0  0  0  0  0  0  0  0  0  0
   -5.4940   -0.8329   -1.4237 C   0  0  0  0  0  0  0  0  0  0  0  0
   -3.9727   -0.8014   -1.4875 C   0  0  0  0  0  0  0  0  0  0  0  0
    7.0572    0.3780    0.9724 O   0  0  0  0  0  0  0  0  0  0  0  0
    6.1520   -0.5931    0.5293 C   0  0  0  0  0  0  0  0  0  0  0  0
    5.5963   -0.1259   -0.7756 C   0  0  0  0  0  0  0  0  0  0  0  0
    4.5347   -1.0666   -1.2606 C   0  0  0  0  0  0  0  0  0  0  0  0
    5.0204   -0.6119    1.5309 C   0  0  0  0  0  0  0  0  0  0  0  0
    3.8798   -1.4904    1.1098 C   0  0  0  0  0  0  0  0  0  0  0  0
    3.3858   -1.1961   -0.2734 C   0  0  0  0  0  0  0  0  0  0  0  0
    2.4971    0.0127   -0.3432 C   0  0  0  0  0  0  0  0  0  0  0  0
    1.3480   -0.0366    0.5924 C   0  0  0  0  0  0  0  0  0  0  0  0
    0.4429    1.1709    0.4951 C   0  0  1  0  0  0  0  0  0  0  0  0
    1.2125    2.4580    0.8109 C   0  0  0  0  0  0  0  0  0  0  0  0
   -0.3107    1.2800   -0.6977 N   0  0  0  0  0  0  0  0  0  0  0  0
   -1.2544    0.2100   -0.8841 C   0  0  0  0  0  0  0  0  0  0  0  0
   -2.3708    0.2553    0.1050 C   0  0  0  0  0  0  0  0  0  0  0  0
   -3.3550   -0.8702   -0.1131 C   0  0  0  0  0  0  0  0  0  0  0  0
   -4.4785   -0.8204    0.9009 C   0  0  0  0  0  0  0  0  0  0  0  0
   -5.3441    0.3953    0.7103 C   0  0  0  0  0  0  0  0  0  0  0  0
   -6.3588    0.3524    1.6693 O   0  0  0  0  0  0  0  0  0  0  0  0
   -5.9700    0.3817   -0.6453 C   0  0  0  0  0  0  0  0  0  0  0  0
   -5.5781    1.5542   -1.3278 O   0  0  0  0  0  0  0  0  0  0  0  0
   -5.4940   -0.8329   -1.4237 C   0  0  0  0  0  0  0  0  0  0  0  0
   -3.9727   -0.8014   -1.4875 C   0  0  0  0  0  0  0  0  0  0  0  0
    6.5794    1.1843    1.2939 H   0  0  0  0  0  0  0  0  0  0  0  0
    6.6468   -1.5705    0.4081 H   0  0  0  0  0  0  0  0  0  0  0  0
    5.2821    0.9370   -0.7459 H   0  0  0  0  0  0  0  0  0  0  0  0
    6.4238   -0.1658   -1.5340 H   0  0  0  0  0  0  0  0  0  0  0  0
    5.0020   -2.0400   -1.4899 H   0  0  0  0  0  0  0  0  0  0  0  0
    4.1133   -0.6580   -2.1954 H   0  0  0  0  0  0  0  0  0  0  0  0
    4.7147    0.4131    1.7635 H   0  0  0  0  0  0  0  0  0  0  0  0
    5.4386   -1.0586    2.4783 H   0  0  0  0  0  0  0  0  0  0  0  0
    4.2463   -2.5574    1.1762 H   0  0  0  0  0  0  0  0  0  0  0  0
    3.0705   -1.4054    1.8334 H   0  0  0  0  0  0  0  0  0  0  0  0
    2.7973   -2.0678   -0.6112 H   0  0  0  0  0  0  0  0  0  0  0  0
    3.0702    0.9640   -0.3026 H   0  0  0  0  0  0  0  0  0  0  0  0
    2.0549   -0.0076   -1.3869 H   0  0  0  0  0  0  0  0  0  0  0  0
    1.7416    0.0132    1.6568 H   0  0  0  0  0  0  0  0  0  0  0  0
    0.7776   -0.9624    0.5260 H   0  0  0  0  0  0  0  0  0  0  0  0
   -0.2647    1.0695    1.3632 H   0  0  0  0  0  0  0  0  0  0  0  0
    0.5166    3.2154    1.2550 H   0  0  0  0  0  0  0  0  0  0  0  0
    1.7569    2.8277   -0.0719 H   0  0  0  0  0  0  0  0  0  0  0  0
    1.9377    2.1951    1.5962 H   0  0  0  0  0  0  0  0  0  0  0  0
   -0.7973    2.1913   -0.7123 H   0  0  0  0  0  0  0  0  0  0  0  0
   -0.7362   -0.7877   -0.7932 H   0  0  0  0  0  0  0  0  0  0  0  0
   -1.6816    0.1999   -1.9092 H   0  0  0  0  0  0  0  0  0  0  0  0
   -2.0465    0.1808    1.1593 H   0  0  0  0  0  0  0  0  0  0  0  0
   -2.8925    1.2191   -0.0158 H   0  0  0  0  0  0  0  0  0  0  0  0
   -2.8628   -1.8724    0.0273 H   0  0  0  0  0  0  0  0  0  0  0  0
   -5.0984   -1.7308    0.8491 H   0  0  0  0  0  0  0  0  0  0  0  0
   -4.0799   -0.7909    1.9442 H   0  0  0  0  0  0  0  0  0  0  0  0
   -4.7165    1.3148    0.8749 H   0  0  0  0  0  0  0  0  0  0  0  0
   -6.5068    1.2332    2.0994 H   0  0  0  0  0  0  0  0  0  0  0  0
   -7.0780    0.3673   -0.5656 H   0  0  0  0  0  0  0  0  0  0  0  0
   -4.9925    2.0983   -0.7725 H   0  0  0  0  0  0  0  0  0  0  0  0
   -5.9041   -1.7558   -1.0161 H   0  0  0  0  0  0  0  0  0  0  0  0
   -5.8308   -0.6930   -2.4858 H   0  0  0  0  0  0  0  0  0  0  0  0
   -3.6180   -1.6727   -2.0909 H   0  0  0  0  0  0  0  0  0  0  0  0
   -3.7032    0.1698   -1.9377 H   0  0  0  0  0  0  0  0  0  0  0  0
    6.5794    1.1843    1.2939 H   0  0  0  0  0  0  0  0  0  0  0  0
    6.6468   -1.5705    0.4081 H   0  0  0  0  0  0  0  0  0  0  0  0
    5.2821    0.9370   -0.7459 H   0  0  0  0  0  0  0  0  0  0  0  0
    6.4238   -0.1658   -1.5340 H   0  0  0  0  0  0  0  0  0  0  0  0
    5.0020   -2.0400   -1.4899 H   0  0  0  0  0  0  0  0  0  0  0  0
    4.1133   -0.6580   -2.1954 H   0  0  0  0  0  0  0  0  0  0  0  0
    4.7147    0.4131    1.7635 H   0  0  0  0  0  0  0  0  0  0  0  0
    5.4386   -1.0586    2.4783 H   0  0  0  0  0  0  0  0  0  0  0  0
    4.2463   -2.5574    1.1762 H   0  0  0  0  0  0  0  0  0  0  0  0
    3.0705   -1.4054    1.8334 H   0  0  0  0  0  0  0  0  0  0  0  0
    2.7973   -2.0678   -0.6112 H   0  0  0  0  0  0  0  0  0  0  0  0
    3.0702    0.9640   -0.3026 H   0  0  0  0  0  0  0  0  0  0  0  0
    2.0549   -0.0076   -1.3869 H   0  0  0  0  0  0  0  0  0  0  0  0
    1.7416    0.0132    1.6568 H   0  0  0  0  0  0  0  0  0  0  0  0
    0.7776   -0.9624    0.5260 H   0  0  0  0  0  0  0  0  0  0  0  0
   -0.2647    1.0695    1.3632 H   0  0  0  0  0  0  0  0  0  0  0  0
    0.5166    3.2154    1.2550 H   0  0  0  0  0  0  0  0  0  0  0  0
    1.7569    2.8277   -0.0719 H   0  0  0  0  0  0  0  0  0  0  0  0
    1.9377    2.1951    1.5962 H   0  0  0  0  0  0  0  0  0  0  0  0
   -0.7973    2.1913   -0.7123 H   0  0  0  0  0  0  0  0  0  0  0  0
   -0.7362   -0.7877   -0.7932 H   0  0  0  0  0  0  0  0  0  0  0  0
   -1.6816    0.1999   -1.9092 H   0  0  0  0  0  0  0  0  0  0  0  0
   -2.0465    0.1808    1.1593 H   0  0  0  0  0  0  0  0  0  0  0  0
   -2.8925    1.2191   -0.0158 H   0  0  0  0  0  0  0  0  0  0  0  0
   -2.8628   -1.8724    0.0273 H   0  0  0  0  0  0  0  0  0  0  0  0
   -5.0984   -1.7308    0.8491 H   0  0  0  0  0  0  0  0  0  0  0  0
   -4.0799   -0.7909    1.9442 H   0  0  0  0  0  0  0  0  0  0  0  0
   -4.7165    1.3148    0.8749 H   0  0  0  0  0  0  0  0  0  0  0  0
   -6.5068    1.2332    2.0994 H   0  0  0  0  0  0  0  0  0  0  0  0
   -7.0780    0.3673   -0.5656 H   0  0  0  0  0  0  0  0  0  0  0  0
   -4.9925    2.0983   -0.7725 H   0  0  0  0  0  0  0  0  0  0  0  0
   -5.9041   -1.7558   -1.0161 H   0  0  0  0  0  0  0  0  0  0  0  0
   -5.8308   -0.6930   -2.4858 H   0  0  0  0  0  0  0  0  0  0  0  0
   -3.6180   -1.6727   -2.0909 H   0  0  0  0  0  0  0  0  0  0  0  0
   -3.7032    0.1698   -1.9377 H   0  0  0  0  0  0  0  0  0  0  0  0
  1  2  1  0
  2  3  1  0
  3  4  1  0
  2  5  1  0
  5  6  1  0
  4  7  1  0
  6  7  1  0
  7  8  1  0
  8  9  1  0
  9 10  1  0
 10 11  1  0
 10 12  1  0
 12 13  1  0
 13 14  1  0
 14 15  1  0
 15 16  1  0
 16 17  1  0
 17 18  1  0
 17 19  1  0
 19 20  1  0
 19 21  1  0
 15 22  1  0
 21 22  1  0
 23 24  1  0
 24 25  1  0
 25 26  1  0
 24 27  1  0
 27 28  1  0
 26 29  1  0
 28 29  1  0
 29 30  1  0
 30 31  1  0
 31 32  1  0
 32 33  1  0
 32 34  1  0
 34 35  1  0
 35 36  1  0
 36 37  1  0
 37 38  1  0
 38 39  1  0
 39 40  1  0
 39 41  1  0
 41 42  1  0
 41 43  1  0
 37 44  1  0
 43 44  1  0
  1 45  1  0
  2 46  1  0
  3 47  1  0
  3 48  1  0
  4 49  1  0
  4 50  1  0
  5 51  1  0
  5 52  1  0
  6 53  1  0
  6 54  1  0
  7 55  1  0
  8 56  1  0
  8 57  1  0
  9 58  1  0
  9 59  1  0
 10 60  1  1
 11 61  1  0
 11 62  1  0
 11 63  1  0
 12 64  1  0
 13 65  1  0
 13 66  1  0
 14 67  1  0
 14 68  1  0
 15 69  1  0
 16 70  1  0
 16 71  1  0
 17 72  1  0
 18 73  1  0
 19 74  1  0
 20 75  1  0
 21 76  1  0
 21 77  1  0
 22 78  1  0
 22 79  1  0
 23 80  1  0
 24 81  1  0
 25 82  1  0
 25 83  1  0
 26 84  1  0
 26 85  1  0
 27 86  1  0
 27 87  1  0
 28 88  1  0
 28 89  1  0
 29 90  1  0
 30 91  1  0
 30 92  1  0
 31 93  1  0
 31 94  1  0
 32 95  1  1
 33 96  1  0
 33 97  1  0
 33 98  1  0
 34 99  1  0
 35100  1  0
 35101  1  0
 36102  1  0
 36103  1  0
 37104  1  0
 38105  1  0
 38106  1  0
 39107  1  0
 40108  1  0
 41109  1  0
 42110  1  0
 43111  1  0
 43112  1  0
 44113  1  0
 44114  1  0
M  END
>  <PDBID>  (1) 
2Y00

>  <PDB ID>  (1) 
2Y00

>  <Generic Name>  (1) 
Dobutamine

>  <Brand Name>  (1) 
Dobutamine#Dobutamine 12.5mg/ml#Dobutamine Hydrochloride#Dobutamine Hydrochloride In Dextrose#Dobutamine Hydrochloride Injection USP#Dobutamine Hydrochloride Injection-12.5mg/ml#Dobutamine Injection Sdz#Dobutamine Injection USP#Dobutrex#Dobuject#Dobusafe#Dobutamin#Dobutan#Dobutel#Dobutil#Dopmin#Inotrex

>  <DrugBank ID>  (1) 
DB00841

>  <ATC Codes>  (1) 
C01CA07

>  <Ligand ID>  (1) 
Y00

>  <Target Name>  (1) 
Beta-1 adrenergic receptor

>  <UniProt ID>  (1) 
P08588

>  <PDB ID.1>  (1) 
2Y00

>  <Seq. Identity>  (1) 
63%

$$$$
