PDB_DB06401_07
     RDKit          3D

348367  0  0  0  0  0  0  0  0999 V2000
    8.0203    1.0088   -0.5675 C   0  0  1  0  0  0  0  0  0  0  0  0
    9.0613    0.6668    0.4465 C   0  0  0  0  0  0  0  0  0  0  0  0
    8.7790   -0.5288    1.2778 C   0  0  0  0  0  0  0  0  0  0  0  0
    7.4387   -1.1533    1.0921 C   0  0  0  0  0  0  0  0  0  0  0  0
    7.1946   -1.3450   -0.3846 C   0  0  0  0  0  0  0  0  0  0  0  0
    7.1073    0.0223   -1.0199 C   0  0  1  0  0  0  0  0  0  0  0  0
    6.6281    1.1155   -0.1734 N   0  0  0  0  0  0  0  0  0  0  0  0
    5.8170    2.1091   -0.8172 C   0  0  0  0  0  0  0  0  0  0  0  0
    4.4055    2.1663   -0.3484 C   0  0  0  0  0  0  0  0  0  0  0  0
    3.7475    0.9580   -0.5605 O   0  0  0  0  0  0  0  0  0  0  0  0
    2.4224    1.0219   -0.1343 C   0  0  0  0  0  0  0  0  0  0  0  0
    2.1501   -0.0353    0.8783 C   0  0  0  0  0  0  0  0  0  0  0  0
    0.6557   -0.4076    0.8458 C   0  0  0  0  0  0  0  0  0  0  0  0
    1.5347    0.9267   -1.3503 C   0  0  0  0  0  0  0  0  0  0  0  0
    0.0679    1.0471   -0.9852 C   0  0  0  0  0  0  0  0  0  0  0  0
   -0.1229    0.8298    0.5152 C   0  0  0  0  0  0  0  0  0  0  0  0
   -1.5641    0.8496    0.9346 C   0  0  0  0  0  0  0  0  0  0  0  0
   -2.3740   -0.0853    0.4082 N   0  0  0  0  0  0  0  0  0  0  0  0
   -2.3802   -1.4507    0.6309 C   0  0  0  0  0  0  0  0  0  0  0  0
   -3.2806   -1.9291    1.7516 C   0  0  0  0  0  0  0  0  0  0  0  0
   -3.2040   -3.4504    1.8265 C   0  0  0  0  0  0  0  0  0  0  0  0
   -3.1787   -4.0658    0.4521 C   0  0  0  0  0  0  0  0  0  0  0  0
   -3.9234   -5.2195    0.4032 O   0  0  0  0  0  0  0  0  0  0  0  0
   -3.8651   -3.0360   -0.4707 C   0  0  0  0  0  0  0  0  0  0  0  0
   -2.8321   -1.9965   -0.7240 C   0  0  0  0  0  0  0  0  0  0  0  0
   -3.3684   -0.7742   -1.5075 C   0  0  0  0  0  0  0  0  0  0  0  0
   -4.6189   -1.3140   -2.1548 C   0  0  0  0  0  0  0  0  0  0  0  0
   -3.5333    0.1848   -0.4094 C   0  0  2  0  0  0  0  0  0  0  0  0
   -3.8964    1.5897   -0.5957 C   0  0  0  0  0  0  0  0  0  0  0  0
   -4.8634    2.0049   -1.6305 C   0  0  0  0  0  0  0  0  0  0  0  0
   -6.3067    2.0520   -1.3102 C   0  0  0  0  0  0  0  0  0  0  0  0
   -6.6158    2.5788    0.0689 C   0  0  0  0  0  0  0  0  0  0  0  0
   -6.3202    3.9204    0.2271 O   0  0  0  0  0  0  0  0  0  0  0  0
   -5.8501    1.7121    1.0214 C   0  0  0  0  0  0  0  0  0  0  0  0
   -4.3839    2.0588    0.8109 C   0  0  0  0  0  0  0  0  0  0  0  0
    7.7752    0.4992    1.2684 C   0  0  1  0  0  0  0  0  0  0  0  0
    8.0196   -0.9577    1.4733 C   0  0  0  0  0  0  0  0  0  0  0  0
    9.3417   -1.2610    0.7486 C   0  0  0  0  0  0  0  0  0  0  0  0
    9.0149   -1.2696   -0.7183 C   0  0  0  0  0  0  0  0  0  0  0  0
    7.7203   -0.5279   -1.0116 C   0  0  0  0  0  0  0  0  0  0  0  0
    7.6293    0.7567   -0.2365 C   0  0  1  0  0  0  0  0  0  0  0  0
    6.6059    1.0469    0.6888 N   0  0  0  0  0  0  0  0  0  0  0  0
    5.3073    0.4813    0.7080 C   0  0  0  0  0  0  0  0  0  0  0  0
    4.3869    1.4180   -0.0300 C   0  0  0  0  0  0  0  0  0  0  0  0
    3.0981    1.0543   -0.1232 O   0  0  0  0  0  0  0  0  0  0  0  0
    2.3697    0.8910    1.0438 C   0  0  0  0  0  0  0  0  0  0  0  0
    1.4243    2.0572    1.1203 C   0  0  0  0  0  0  0  0  0  0  0  0
    0.0191    1.8067    0.7320 C   0  0  0  0  0  0  0  0  0  0  0  0
    1.7838   -0.4472    1.1065 C   0  0  0  0  0  0  0  0  0  0  0  0
    0.3131   -0.5672    0.7507 C   0  0  0  0  0  0  0  0  0  0  0  0
   -0.0151    0.5729   -0.1467 C   0  0  0  0  0  0  0  0  0  0  0  0
   -1.1986    0.5036   -1.0231 C   0  0  0  0  0  0  0  0  0  0  0  0
   -2.4908    0.5056   -0.4974 N   0  0  0  0  0  0  0  0  0  0  0  0
   -3.5535    0.7027   -1.4367 C   0  0  0  0  0  0  0  0  0  0  0  0
   -3.1593    1.3100   -2.7477 C   0  0  0  0  0  0  0  0  0  0  0  0
   -4.4274    1.5449   -3.5428 C   0  0  0  0  0  0  0  0  0  0  0  0
   -5.1660    0.2422   -3.7659 C   0  0  0  0  0  0  0  0  0  0  0  0
   -6.4727    0.2998   -3.3192 O   0  0  0  0  0  0  0  0  0  0  0  0
   -4.4196   -0.9352   -3.1178 C   0  0  0  0  0  0  0  0  0  0  0  0
   -4.2998   -0.5597   -1.6598 C   0  0  0  0  0  0  0  0  0  0  0  0
   -3.6380   -1.5669   -0.7928 C   0  0  1  0  0  0  0  0  0  0  0  0
   -2.7502   -2.5367   -1.4676 C   0  0  0  0  0  0  0  0  0  0  0  0
   -2.9050   -0.6692    0.2255 C   0  0  2  0  0  0  0  0  0  0  0  0
   -3.9400   -0.3229    1.2855 C   0  0  0  0  0  0  0  0  0  0  0  0
   -3.4048    0.7394    2.2410 C   0  0  0  0  0  0  0  0  0  0  0  0
   -4.2719    0.6587    3.4805 C   0  0  0  0  0  0  0  0  0  0  0  0
   -5.6423    0.0950    3.2073 C   0  0  0  0  0  0  0  0  0  0  0  0
   -6.3656    0.9267    2.3579 O   0  0  0  0  0  0  0  0  0  0  0  0
   -5.5996   -1.3383    2.7192 C   0  0  0  0  0  0  0  0  0  0  0  0
   -4.2007   -1.5324    2.1394 C   0  0  0  0  0  0  0  0  0  0  0  0
    7.1601    0.0350    1.3271 C   0  0  0  0  0  0  0  0  0  0  0  0
    7.0961    1.2626    0.4782 C   0  0  0  0  0  0  0  0  0  0  0  0
    8.2003    1.3745   -0.5303 C   0  0  0  0  0  0  0  0  0  0  0  0
    8.1737    0.3326   -1.6111 C   0  0  0  0  0  0  0  0  0  0  0  0
    6.9261   -0.5037   -1.5720 C   0  0  0  0  0  0  0  0  0  0  0  0
    7.0502   -1.5306   -0.4740 C   0  0  0  0  0  0  0  0  0  0  0  0
    6.4619   -1.1117    0.7533 N   0  0  0  0  0  0  0  0  0  0  0  0
    5.0513   -0.9621    0.7852 C   0  0  0  0  0  0  0  0  0  0  0  0
    4.3744   -2.1667    0.1882 C   0  0  0  0  0  0  0  0  0  0  0  0
    2.9765   -2.0449    0.2293 O   0  0  0  0  0  0  0  0  0  0  0  0
    2.4804   -0.9932   -0.4886 C   0  0  0  0  0  0  0  0  0  0  0  0
    1.8617    0.0049    0.5079 C   0  0  0  0  0  0  0  0  0  0  0  0
    1.1138    0.9918   -0.3781 C   0  0  0  0  0  0  0  0  0  0  0  0
    1.4528   -1.3302   -1.5229 C   0  0  0  0  0  0  0  0  0  0  0  0
    0.0298   -1.0815   -0.9893 C   0  0  0  0  0  0  0  0  0  0  0  0
   -0.2537    0.3675   -0.7461 C   0  0  0  0  0  0  0  0  0  0  0  0
   -1.1916    0.5761    0.3829 C   0  0  0  0  0  0  0  0  0  0  0  0
   -2.5118    0.1250    0.3178 N   0  0  0  0  0  0  0  0  0  0  0  0
   -2.8338   -1.2333    0.3595 C   0  0  0  0  0  0  0  0  0  0  0  0
   -2.7613   -1.8502    1.7475 C   0  0  0  0  0  0  0  0  0  0  0  0
   -3.2944   -3.2394    1.7013 C   0  0  0  0  0  0  0  0  0  0  0  0
   -3.9571   -3.6528    0.4413 C   0  0  0  0  0  0  0  0  0  0  0  0
   -3.0607   -4.2685   -0.4622 O   0  0  0  0  0  0  0  0  0  0  0  0
   -4.7519   -2.5977   -0.2526 C   0  0  0  0  0  0  0  0  0  0  0  0
   -4.3453   -1.2038    0.0402 C   0  0  0  0  0  0  0  0  0  0  0  0
   -4.3185   -0.2744   -1.1487 C   0  0  0  0  0  0  0  0  0  0  0  0
   -3.6886   -0.8307   -2.3747 C   0  0  0  0  0  0  0  0  0  0  0  0
   -3.3654    0.8110   -0.5970 C   0  0  1  0  0  0  0  0  0  0  0  0
   -4.2801    1.8392    0.0074 C   0  0  0  0  0  0  0  0  0  0  0  0
   -4.9716    2.6098   -1.0922 C   0  0  0  0  0  0  0  0  0  0  0  0
   -6.1545    3.3312   -0.4363 C   0  0  0  0  0  0  0  0  0  0  0  0
   -5.6018    4.2595    0.6333 C   0  0  0  0  0  0  0  0  0  0  0  0
   -6.6899    4.9114    1.2109 O   0  0  0  0  0  0  0  0  0  0  0  0
   -4.8347    3.5178    1.6758 C   0  0  0  0  0  0  0  0  0  0  0  0
   -3.6764    2.7785    0.9780 C   0  0  0  0  0  0  0  0  0  0  0  0
    6.8797   -0.5584    1.1710 C   0  0  2  0  0  0  0  0  0  0  0  0
    7.4574    0.7071    1.6793 C   0  0  0  0  0  0  0  0  0  0  0  0
    8.9657    0.7859    1.5562 C   0  0  0  0  0  0  0  0  0  0  0  0
    9.4482    0.4180    0.1838 C   0  0  0  0  0  0  0  0  0  0  0  0
    8.8939   -0.8489   -0.3486 C   0  0  0  0  0  0  0  0  0  0  0  0
    7.6280   -1.3253    0.2360 C   0  0  2  0  0  0  0  0  0  0  0  0
    6.3665   -0.7818   -0.1250 N   0  0  0  0  0  0  0  0  0  0  0  0
    6.0586    0.1244   -1.1247 C   0  0  0  0  0  0  0  0  0  0  0  0
    4.8394    0.9495   -0.7856 C   0  0  0  0  0  0  0  0  0  0  0  0
    3.7668    0.0763   -0.6202 O   0  0  0  0  0  0  0  0  0  0  0  0
    2.5879    0.7575   -0.3152 C   0  0  0  0  0  0  0  0  0  0  0  0
    2.0847    0.2025    0.9874 C   0  0  0  0  0  0  0  0  0  0  0  0
    0.6023   -0.2213    0.8473 C   0  0  0  0  0  0  0  0  0  0  0  0
    1.6448    0.5250   -1.4593 C   0  0  0  0  0  0  0  0  0  0  0  0
    0.2497    0.9980   -1.2229 C   0  0  0  0  0  0  0  0  0  0  0  0
   -0.0844    0.9393    0.2167 C   0  0  0  0  0  0  0  0  0  0  0  0
   -1.5738    1.0487    0.5253 C   0  0  0  0  0  0  0  0  0  0  0  0
   -2.4253    0.0768    0.1807 N   0  0  0  0  0  0  0  0  0  0  0  0
   -2.4548   -1.2169    0.7181 C   0  0  0  0  0  0  0  0  0  0  0  0
   -3.2908   -1.2287    1.9494 C   0  0  0  0  0  0  0  0  0  0  0  0
   -3.7447   -2.5958    2.3808 C   0  0  0  0  0  0  0  0  0  0  0  0
   -4.2230   -3.4261    1.2576 C   0  0  0  0  0  0  0  0  0  0  0  0
   -5.5111   -3.8973    1.5391 O   0  0  0  0  0  0  0  0  0  0  0  0
   -4.2902   -2.7418   -0.0798 C   0  0  0  0  0  0  0  0  0  0  0  0
   -3.0373   -2.0263   -0.4467 C   0  0  0  0  0  0  0  0  0  0  0  0
   -3.3076   -0.9610   -1.5415 C   0  0  0  0  0  0  0  0  0  0  0  0
   -4.4099   -1.5058   -2.3649 C   0  0  0  0  0  0  0  0  0  0  0  0
   -3.5695    0.1857   -0.6659 C   0  0  2  0  0  0  0  0  0  0  0  0
   -3.9575    1.5007   -1.0864 C   0  0  0  0  0  0  0  0  0  0  0  0
   -5.0059    1.7168   -2.0934 C   0  0  0  0  0  0  0  0  0  0  0  0
   -6.4223    1.4925   -1.7316 C   0  0  0  0  0  0  0  0  0  0  0  0
   -6.7297    2.5014   -0.6030 C   0  0  0  0  0  0  0  0  0  0  0  0
   -8.0510    2.3248   -0.2630 O   0  0  0  0  0  0  0  0  0  0  0  0
   -5.8623    1.9891    0.5258 C   0  0  0  0  0  0  0  0  0  0  0  0
   -4.4101    2.2621    0.1824 C   0  0  0  0  0  0  0  0  0  0  0  0
    8.3412    1.8113   -1.2699 H   0  0  0  0  0  0  0  0  0  0  0  0
    9.3251    1.5537    1.0890 H   0  0  0  0  0  0  0  0  0  0  0  0
   10.0148    0.4636   -0.1240 H   0  0  0  0  0  0  0  0  0  0  0  0
    8.8621   -0.2464    2.3639 H   0  0  0  0  0  0  0  0  0  0  0  0
    9.5625   -1.3294    1.1590 H   0  0  0  0  0  0  0  0  0  0  0  0
    7.5051   -2.1923    1.5235 H   0  0  0  0  0  0  0  0  0  0  0  0
    6.6000   -0.5833    1.5344 H   0  0  0  0  0  0  0  0  0  0  0  0
    8.0569   -1.8665   -0.8475 H   0  0  0  0  0  0  0  0  0  0  0  0
    6.3144   -1.9671   -0.5428 H   0  0  0  0  0  0  0  0  0  0  0  0
    6.7741    0.0005   -2.0795 H   0  0  0  0  0  0  0  0  0  0  0  0
    6.2959    3.1205   -0.6566 H   0  0  0  0  0  0  0  0  0  0  0  0
    5.8747    1.9529   -1.9229 H   0  0  0  0  0  0  0  0  0  0  0  0
    3.8373    2.9306   -0.9331 H   0  0  0  0  0  0  0  0  0  0  0  0
    4.3307    2.4404    0.7236 H   0  0  0  0  0  0  0  0  0  0  0  0
    2.2655    2.0534    0.2704 H   0  0  0  0  0  0  0  0  0  0  0  0
    2.7065   -0.9615    0.6440 H   0  0  0  0  0  0  0  0  0  0  0  0
    2.4032    0.2500    1.9130 H   0  0  0  0  0  0  0  0  0  0  0  0
    0.5719   -1.1208    0.0137 H   0  0  0  0  0  0  0  0  0  0  0  0
    0.3794   -0.8579    1.7990 H   0  0  0  0  0  0  0  0  0  0  0  0
    1.7002   -0.0199   -1.9052 H   0  0  0  0  0  0  0  0  0  0  0  0
    1.7979    1.7632   -2.0249 H   0  0  0  0  0  0  0  0  0  0  0  0
   -0.5351    0.3126   -1.5111 H   0  0  0  0  0  0  0  0  0  0  0  0
   -0.2970    2.0601   -1.2468 H   0  0  0  0  0  0  0  0  0  0  0  0
    0.4279    1.6800    1.0373 H   0  0  0  0  0  0  0  0  0  0  0  0
   -1.4783    0.8244    2.0937 H   0  0  0  0  0  0  0  0  0  0  0  0
   -1.8546    1.9394    0.8220 H   0  0  0  0  0  0  0  0  0  0  0  0
   -1.3956   -1.9245    0.8495 H   0  0  0  0  0  0  0  0  0  0  0  0
   -2.7855   -1.5969    2.7118 H   0  0  0  0  0  0  0  0  0  0  0  0
   -4.2857   -1.5376    1.7575 H   0  0  0  0  0  0  0  0  0  0  0  0
   -4.1600   -3.7795    2.3147 H   0  0  0  0  0  0  0  0  0  0  0  0
   -2.3801   -3.8027    2.4570 H   0  0  0  0  0  0  0  0  0  0  0  0
   -2.1527   -4.2381    0.0932 H   0  0  0  0  0  0  0  0  0  0  0  0
   -4.6736   -5.1815   -0.2288 H   0  0  0  0  0  0  0  0  0  0  0  0
   -4.7391   -2.6833    0.1376 H   0  0  0  0  0  0  0  0  0  0  0  0
   -4.1829   -3.6383   -1.3269 H   0  0  0  0  0  0  0  0  0  0  0  0
   -1.9913   -2.4724   -1.2361 H   0  0  0  0  0  0  0  0  0  0  0  0
   -2.5850   -0.5674   -2.2527 H   0  0  0  0  0  0  0  0  0  0  0  0
   -5.0701   -0.7149   -2.9336 H   0  0  0  0  0  0  0  0  0  0  0  0
   -4.2591   -2.2352   -2.7183 H   0  0  0  0  0  0  0  0  0  0  0  0
   -5.3679   -1.5284   -1.3988 H   0  0  0  0  0  0  0  0  0  0  0  0
   -4.3784   -0.3128    0.2352 H   0  0  0  0  0  0  0  0  0  0  0  0
   -2.9779    2.1847   -0.7469 H   0  0  0  0  0  0  0  0  0  0  0  0
   -4.6300    3.1003   -1.9168 H   0  0  0  0  0  0  0  0  0  0  0  0
   -4.7180    1.5138   -2.6049 H   0  0  0  0  0  0  0  0  0  0  0  0
   -6.8677    2.7067   -2.0149 H   0  0  0  0  0  0  0  0  0  0  0  0
   -6.7706    1.0482   -1.3881 H   0  0  0  0  0  0  0  0  0  0  0  0
   -7.6977    2.4231    0.2480 H   0  0  0  0  0  0  0  0  0  0  0  0
   -6.0539    0.6566    0.7903 H   0  0  0  0  0  0  0  0  0  0  0  0
   -6.0601    1.9289    2.0865 H   0  0  0  0  0  0  0  0  0  0  0  0
   -3.8678    1.4638    1.5980 H   0  0  0  0  0  0  0  0  0  0  0  0
   -4.2796    3.1438    0.9135 H   0  0  0  0  0  0  0  0  0  0  0  0
    8.4924    1.1543    1.8234 H   0  0  0  0  0  0  0  0  0  0  0  0
    7.2727   -1.6350    1.0682 H   0  0  0  0  0  0  0  0  0  0  0  0
    8.1922   -1.1566    2.5660 H   0  0  0  0  0  0  0  0  0  0  0  0
   10.0730   -0.4453    0.9555 H   0  0  0  0  0  0  0  0  0  0  0  0
    9.7814   -2.2001    1.1262 H   0  0  0  0  0  0  0  0  0  0  0  0
    9.8719   -0.8051   -1.2691 H   0  0  0  0  0  0  0  0  0  0  0  0
    8.9167   -2.3058   -1.0803 H   0  0  0  0  0  0  0  0  0  0  0  0
    7.7493   -0.2604   -2.0889 H   0  0  0  0  0  0  0  0  0  0  0  0
    6.8842   -1.2065   -0.8671 H   0  0  0  0  0  0  0  0  0  0  0  0
    8.2898    1.5741   -0.6128 H   0  0  0  0  0  0  0  0  0  0  0  0
    5.2448   -0.5571    0.3311 H   0  0  0  0  0  0  0  0  0  0  0  0
    4.9750    0.4369    1.7639 H   0  0  0  0  0  0  0  0  0  0  0  0
    4.5254    2.4610    0.3869 H   0  0  0  0  0  0  0  0  0  0  0  0
    4.8029    1.4825   -1.0875 H   0  0  0  0  0  0  0  0  0  0  0  0
    3.0787    1.0487    1.8954 H   0  0  0  0  0  0  0  0  0  0  0  0
    1.4100    2.4985    2.1618 H   0  0  0  0  0  0  0  0  0  0  0  0
    1.8016    2.9134    0.5006 H   0  0  0  0  0  0  0  0  0  0  0  0
   -0.5560    1.5571    1.6547 H   0  0  0  0  0  0  0  0  0  0  0  0
   -0.4214    2.6895    0.2795 H   0  0  0  0  0  0  0  0  0  0  0  0
    1.9051   -0.9508    2.0886 H   0  0  0  0  0  0  0  0  0  0  0  0
    2.3120   -1.1472    0.3897 H   0  0  0  0  0  0  0  0  0  0  0  0
    0.1511   -1.5687    0.3325 H   0  0  0  0  0  0  0  0  0  0  0  0
   -0.2227   -0.4237    1.7344 H   0  0  0  0  0  0  0  0  0  0  0  0
    0.9307    0.6901   -0.8062 H   0  0  0  0  0  0  0  0  0  0  0  0
   -1.0828   -0.4843   -1.5907 H   0  0  0  0  0  0  0  0  0  0  0  0
   -1.0292    1.2433   -1.8483 H   0  0  0  0  0  0  0  0  0  0  0  0
   -4.2611    1.4437   -0.9533 H   0  0  0  0  0  0  0  0  0  0  0  0
   -2.7047    2.3033   -2.5366 H   0  0  0  0  0  0  0  0  0  0  0  0
   -2.4898    0.7162   -3.3587 H   0  0  0  0  0  0  0  0  0  0  0  0
   -4.2104    2.0734   -4.4978 H   0  0  0  0  0  0  0  0  0  0  0  0
   -5.0957    2.1801   -2.8931 H   0  0  0  0  0  0  0  0  0  0  0  0
   -5.1424    0.0479   -4.8729 H   0  0  0  0  0  0  0  0  0  0  0  0
   -6.6989    1.2526   -3.1411 H   0  0  0  0  0  0  0  0  0  0  0  0
   -5.1025   -1.7885   -3.1945 H   0  0  0  0  0  0  0  0  0  0  0  0
   -3.4820   -1.0329   -3.6546 H   0  0  0  0  0  0  0  0  0  0  0  0
   -5.3762   -0.4811   -1.3089 H   0  0  0  0  0  0  0  0  0  0  0  0
   -4.3902   -2.1607   -0.1993 H   0  0  0  0  0  0  0  0  0  0  0  0
   -2.4045   -2.2713   -2.4624 H   0  0  0  0  0  0  0  0  0  0  0  0
   -3.2180   -3.5655   -1.4664 H   0  0  0  0  0  0  0  0  0  0  0  0
   -1.8368   -2.6799   -0.8254 H   0  0  0  0  0  0  0  0  0  0  0  0
   -2.1066   -1.2723    0.6579 H   0  0  0  0  0  0  0  0  0  0  0  0
   -4.8338    0.0997    0.8014 H   0  0  0  0  0  0  0  0  0  0  0  0
   -2.4072    0.3684    2.5484 H   0  0  0  0  0  0  0  0  0  0  0  0
   -3.3592    1.7402    1.7976 H   0  0  0  0  0  0  0  0  0  0  0  0
   -4.3997    1.6987    3.8343 H   0  0  0  0  0  0  0  0  0  0  0  0
   -3.7959    0.0837    4.3035 H   0  0  0  0  0  0  0  0  0  0  0  0
   -6.1755    0.0769    4.1741 H   0  0  0  0  0  0  0  0  0  0  0  0
   -7.0166    0.4154    1.8014 H   0  0  0  0  0  0  0  0  0  0  0  0
   -6.2985   -1.3844    1.8471 H   0  0  0  0  0  0  0  0  0  0  0  0
   -5.8723   -2.0799    3.4687 H   0  0  0  0  0  0  0  0  0  0  0  0
   -3.5287   -1.5087    3.0539 H   0  0  0  0  0  0  0  0  0  0  0  0
   -4.0299   -2.4989    1.6907 H   0  0  0  0  0  0  0  0  0  0  0  0
    8.2376   -0.2700    1.3772 H   0  0  0  0  0  0  0  0  0  0  0  0
    6.7555    0.1750    2.3482 H   0  0  0  0  0  0  0  0  0  0  0  0
    7.2554    2.1345    1.1914 H   0  0  0  0  0  0  0  0  0  0  0  0
    6.1157    1.4400    0.0111 H   0  0  0  0  0  0  0  0  0  0  0  0
    8.1255    2.4087   -0.9668 H   0  0  0  0  0  0  0  0  0  0  0  0
    9.1958    1.3609   -0.0234 H   0  0  0  0  0  0  0  0  0  0  0  0
    9.0652   -0.3406   -1.5171 H   0  0  0  0  0  0  0  0  0  0  0  0
    8.2231    0.8592   -2.6010 H   0  0  0  0  0  0  0  0  0  0  0  0
    6.0062    0.0887   -1.5037 H   0  0  0  0  0  0  0  0  0  0  0  0
    6.8638   -1.0700   -2.5392 H   0  0  0  0  0  0  0  0  0  0  0  0
    6.5854   -2.4664   -0.8153 H   0  0  0  0  0  0  0  0  0  0  0  0
    8.1483   -1.6710   -0.2928 H   0  0  0  0  0  0  0  0  0  0  0  0
    4.7405   -0.9134    1.8595 H   0  0  0  0  0  0  0  0  0  0  0  0
    4.7784   -0.0207    0.2545 H   0  0  0  0  0  0  0  0  0  0  0  0
    4.6483   -2.2666   -0.9076 H   0  0  0  0  0  0  0  0  0  0  0  0
    4.6828   -3.0769    0.7223 H   0  0  0  0  0  0  0  0  0  0  0  0
    3.3265   -0.4599   -1.0104 H   0  0  0  0  0  0  0  0  0  0  0  0
    1.1156   -0.5211    1.1296 H   0  0  0  0  0  0  0  0  0  0  0  0
    2.6111    0.5718    1.0603 H   0  0  0  0  0  0  0  0  0  0  0  0
    0.9338    1.8948    0.2379 H   0  0  0  0  0  0  0  0  0  0  0  0
    1.6677    1.2364   -1.2919 H   0  0  0  0  0  0  0  0  0  0  0  0
    1.4658   -2.4415   -1.7330 H   0  0  0  0  0  0  0  0  0  0  0  0
    1.5756   -0.7876   -2.4632 H   0  0  0  0  0  0  0  0  0  0  0  0
   -0.6736   -1.5214   -1.7478 H   0  0  0  0  0  0  0  0  0  0  0  0
   -0.0437   -1.6858   -0.0715 H   0  0  0  0  0  0  0  0  0  0  0  0
   -0.5431    0.9073   -1.6722 H   0  0  0  0  0  0  0  0  0  0  0  0
   -0.7531    0.1876    1.3605 H   0  0  0  0  0  0  0  0  0  0  0  0
   -1.2048    1.6877    0.5673 H   0  0  0  0  0  0  0  0  0  0  0  0
   -2.3859   -1.9314   -0.3346 H   0  0  0  0  0  0  0  0  0  0  0  0
   -3.4090   -1.2429    2.4173 H   0  0  0  0  0  0  0  0  0  0  0  0
   -1.7324   -1.7808    2.1441 H   0  0  0  0  0  0  0  0  0  0  0  0
   -3.9373   -3.4556    2.6040 H   0  0  0  0  0  0  0  0  0  0  0  0
   -2.4089   -3.9243    1.8577 H   0  0  0  0  0  0  0  0  0  0  0  0
   -4.6811   -4.4813    0.7059 H   0  0  0  0  0  0  0  0  0  0  0  0
   -3.6125   -4.7408   -1.1541 H   0  0  0  0  0  0  0  0  0  0  0  0
   -5.8535   -2.7042   -0.0337 H   0  0  0  0  0  0  0  0  0  0  0  0
   -4.6475   -2.7666   -1.3645 H   0  0  0  0  0  0  0  0  0  0  0  0
   -4.9149   -0.7317    0.8411 H   0  0  0  0  0  0  0  0  0  0  0  0
   -5.3372    0.0877   -1.2895 H   0  0  0  0  0  0  0  0  0  0  0  0
   -4.4982   -1.0464   -3.1186 H   0  0  0  0  0  0  0  0  0  0  0  0
   -3.0814   -0.0181   -2.8751 H   0  0  0  0  0  0  0  0  0  0  0  0
   -3.0164   -1.6778   -2.2381 H   0  0  0  0  0  0  0  0  0  0  0  0
   -2.7585    1.2664   -1.3925 H   0  0  0  0  0  0  0  0  0  0  0  0
   -5.1310    1.3227    0.5620 H   0  0  0  0  0  0  0  0  0  0  0  0
   -5.3098    1.9491   -1.8818 H   0  0  0  0  0  0  0  0  0  0  0  0
   -4.3227    3.4419   -1.4661 H   0  0  0  0  0  0  0  0  0  0  0  0
   -6.6382    3.9237   -1.2078 H   0  0  0  0  0  0  0  0  0  0  0  0
   -6.8606    2.5966   -0.0042 H   0  0  0  0  0  0  0  0  0  0  0  0
   -4.9992    5.0265    0.1167 H   0  0  0  0  0  0  0  0  0  0  0  0
   -7.2270    4.2935    1.7796 H   0  0  0  0  0  0  0  0  0  0  0  0
   -5.5112    2.8152    2.1777 H   0  0  0  0  0  0  0  0  0  0  0  0
   -4.3521    4.2518    2.3436 H   0  0  0  0  0  0  0  0  0  0  0  0
   -3.0955    2.2565    1.7835 H   0  0  0  0  0  0  0  0  0  0  0  0
   -3.0495    3.5779    0.5357 H   0  0  0  0  0  0  0  0  0  0  0  0
    6.2922   -1.1214    1.9629 H   0  0  0  0  0  0  0  0  0  0  0  0
    6.9871    1.5987    1.2236 H   0  0  0  0  0  0  0  0  0  0  0  0
    7.2635    0.8536    2.7881 H   0  0  0  0  0  0  0  0  0  0  0  0
    9.2341    1.8653    1.7034 H   0  0  0  0  0  0  0  0  0  0  0  0
    9.4689    0.2286    2.3668 H   0  0  0  0  0  0  0  0  0  0  0  0
    9.2283    1.2893   -0.4975 H   0  0  0  0  0  0  0  0  0  0  0  0
   10.5585    0.3747    0.2299 H   0  0  0  0  0  0  0  0  0  0  0  0
    8.7198   -0.6873   -1.4560 H   0  0  0  0  0  0  0  0  0  0  0  0
    9.6910   -1.6323   -0.3201 H   0  0  0  0  0  0  0  0  0  0  0  0
    7.5821   -2.4557    0.3387 H   0  0  0  0  0  0  0  0  0  0  0  0
    6.8514    0.8690   -1.3754 H   0  0  0  0  0  0  0  0  0  0  0  0
    5.8860   -0.4049   -2.1090 H   0  0  0  0  0  0  0  0  0  0  0  0
    4.6110    1.5955   -1.6779 H   0  0  0  0  0  0  0  0  0  0  0  0
    4.9535    1.5794    0.0869 H   0  0  0  0  0  0  0  0  0  0  0  0
    2.8287    1.8299   -0.2857 H   0  0  0  0  0  0  0  0  0  0  0  0
    2.6571   -0.6552    1.3625 H   0  0  0  0  0  0  0  0  0  0  0  0
    2.1599    1.0134    1.7420 H   0  0  0  0  0  0  0  0  0  0  0  0
    0.6693   -1.1189    0.2009 H   0  0  0  0  0  0  0  0  0  0  0  0
    0.2547   -0.4237    1.8811 H   0  0  0  0  0  0  0  0  0  0  0  0
    1.7074   -0.5505   -1.7438 H   0  0  0  0  0  0  0  0  0  0  0  0
    2.0446    1.0955   -2.3378 H   0  0  0  0  0  0  0  0  0  0  0  0
   -0.4185    0.3137   -1.7848 H   0  0  0  0  0  0  0  0  0  0  0  0
    0.0844    2.0348   -1.6207 H   0  0  0  0  0  0  0  0  0  0  0  0
    0.3752    1.8714    0.6828 H   0  0  0  0  0  0  0  0  0  0  0  0
   -1.5769    1.1926    1.6511 H   0  0  0  0  0  0  0  0  0  0  0  0
   -1.8193    2.0757    0.1574 H   0  0  0  0  0  0  0  0  0  0  0  0
   -1.4950   -1.7012    0.9716 H   0  0  0  0  0  0  0  0  0  0  0  0
   -2.5943   -0.8854    2.7786 H   0  0  0  0  0  0  0  0  0  0  0  0
   -4.1053   -0.4757    1.9785 H   0  0  0  0  0  0  0  0  0  0  0  0
   -4.5349   -2.4388    3.1619 H   0  0  0  0  0  0  0  0  0  0  0  0
   -2.9034   -3.1119    2.9107 H   0  0  0  0  0  0  0  0  0  0  0  0
   -3.5886   -4.3500    1.1601 H   0  0  0  0  0  0  0  0  0  0  0  0
   -6.0927   -3.8970    0.7280 H   0  0  0  0  0  0  0  0  0  0  0  0
   -5.1995   -2.1458   -0.1014 H   0  0  0  0  0  0  0  0  0  0  0  0
   -4.4318   -3.5881   -0.8166 H   0  0  0  0  0  0  0  0  0  0  0  0
   -2.3101   -2.7504   -0.8388 H   0  0  0  0  0  0  0  0  0  0  0  0
   -2.3979   -0.9224   -2.1440 H   0  0  0  0  0  0  0  0  0  0  0  0
   -4.4470   -1.0743   -3.4094 H   0  0  0  0  0  0  0  0  0  0  0  0
   -4.1815   -2.5871   -2.5647 H   0  0  0  0  0  0  0  0  0  0  0  0
   -5.4195   -1.3755   -1.9650 H   0  0  0  0  0  0  0  0  0  0  0  0
   -4.4294   -0.1819    0.0148 H   0  0  0  0  0  0  0  0  0  0  0  0
   -3.0552    2.0789   -1.4386 H   0  0  0  0  0  0  0  0  0  0  0  0
   -4.9616    2.8299   -2.3483 H   0  0  0  0  0  0  0  0  0  0  0  0
   -4.7322    1.2797   -3.1029 H   0  0  0  0  0  0  0  0  0  0  0  0
   -7.0493    1.7424   -2.6018 H   0  0  0  0  0  0  0  0  0  0  0  0
   -6.7054    0.5308   -1.3280 H   0  0  0  0  0  0  0  0  0  0  0  0
   -6.4657    3.5317   -0.9098 H   0  0  0  0  0  0  0  0  0  0  0  0
   -6.0749    0.9022    0.6111 H   0  0  0  0  0  0  0  0  0  0  0  0
   -6.0689    2.5244    1.4557 H   0  0  0  0  0  0  0  0  0  0  0  0
   -3.8757    1.8462    1.0942 H   0  0  0  0  0  0  0  0  0  0  0  0
   -4.2869    3.3420    0.0705 H   0  0  0  0  0  0  0  0  0  0  0  0
  1  2  1  0
  2  3  1  0
  3  4  1  0
  4  5  1  0
  5  6  1  0
  6  1  1  0
  1  7  1  0
  6  7  1  0
  7  8  1  0
  8  9  1  0
  9 10  1  0
 10 11  1  0
 11 12  1  0
 12 13  1  0
 11 14  1  0
 14 15  1  0
 13 16  1  0
 15 16  1  0
 16 17  1  0
 17 18  1  0
 18 19  1  0
 19 20  1  0
 20 21  1  0
 21 22  1  0
 22 23  1  0
 22 24  1  0
 19 25  1  0
 24 25  1  0
 25 26  1  0
 26 27  1  0
 18 28  1  0
 26 28  1  0
 28 29  1  0
 29 30  1  0
 30 31  1  0
 31 32  1  0
 32 33  1  0
 32 34  1  0
 29 35  1  0
 34 35  1  0
 36 37  1  0
 37 38  1  0
 38 39  1  0
 39 40  1  0
 40 41  1  0
 41 36  1  0
 36 42  1  0
 41 42  1  0
 42 43  1  0
 43 44  1  0
 44 45  1  0
 45 46  1  0
 46 47  1  0
 47 48  1  0
 46 49  1  0
 49 50  1  0
 48 51  1  0
 50 51  1  0
 51 52  1  0
 52 53  1  0
 53 54  1  0
 54 55  1  0
 55 56  1  0
 56 57  1  0
 57 58  1  0
 57 59  1  0
 54 60  1  0
 59 60  1  0
 60 61  1  0
 61 62  1  0
 53 63  1  0
 61 63  1  0
 63 64  1  0
 64 65  1  0
 65 66  1  0
 66 67  1  0
 67 68  1  0
 67 69  1  0
 64 70  1  0
 69 70  1  0
 71 72  1  0
 72 73  1  0
 73 74  1  0
 74 75  1  0
 75 76  1  0
 71 77  1  0
 76 77  1  0
 77 78  1  0
 78 79  1  0
 79 80  1  0
 80 81  1  0
 81 82  1  0
 82 83  1  0
 81 84  1  0
 84 85  1  0
 83 86  1  0
 85 86  1  0
 86 87  1  0
 87 88  1  0
 88 89  1  0
 89 90  1  0
 90 91  1  0
 91 92  1  0
 92 93  1  0
 92 94  1  0
 89 95  1  0
 94 95  1  0
 95 96  1  0
 96 97  1  0
 88 98  1  0
 96 98  1  0
 98 99  1  0
 99100  1  0
100101  1  0
101102  1  0
102103  1  0
102104  1  0
 99105  1  0
104105  1  0
106107  1  0
107108  1  0
108109  1  0
109110  1  0
110111  1  0
111106  1  0
106112  1  0
111112  1  0
112113  1  0
113114  1  0
114115  1  0
115116  1  0
116117  1  0
117118  1  0
116119  1  0
119120  1  0
118121  1  0
120121  1  0
121122  1  0
122123  1  0
123124  1  0
124125  1  0
125126  1  0
126127  1  0
127128  1  0
127129  1  0
124130  1  0
129130  1  0
130131  1  0
131132  1  0
123133  1  0
131133  1  0
133134  1  0
134135  1  0
135136  1  0
136137  1  0
137138  1  0
137139  1  0
134140  1  0
139140  1  0
  1141  1  6
  2142  1  0
  2143  1  0
  3144  1  0
  3145  1  0
  4146  1  0
  4147  1  0
  5148  1  0
  5149  1  0
  6150  1  6
  8151  1  0
  8152  1  0
  9153  1  0
  9154  1  0
 11155  1  0
 12156  1  0
 12157  1  0
 13158  1  0
 13159  1  0
 14160  1  0
 14161  1  0
 15162  1  0
 15163  1  0
 16164  1  0
 17165  1  0
 17166  1  0
 19167  1  0
 20168  1  0
 20169  1  0
 21170  1  0
 21171  1  0
 22172  1  0
 23173  1  0
 24174  1  0
 24175  1  0
 25176  1  0
 26177  1  0
 27178  1  0
 27179  1  0
 27180  1  0
 28181  1  1
 29182  1  0
 30183  1  0
 30184  1  0
 31185  1  0
 31186  1  0
 32187  1  0
 34188  1  0
 34189  1  0
 35190  1  0
 35191  1  0
 36192  1  1
 37193  1  0
 37194  1  0
 38195  1  0
 38196  1  0
 39197  1  0
 39198  1  0
 40199  1  0
 40200  1  0
 41201  1  6
 43202  1  0
 43203  1  0
 44204  1  0
 44205  1  0
 46206  1  0
 47207  1  0
 47208  1  0
 48209  1  0
 48210  1  0
 49211  1  0
 49212  1  0
 50213  1  0
 50214  1  0
 51215  1  0
 52216  1  0
 52217  1  0
 54218  1  0
 55219  1  0
 55220  1  0
 56221  1  0
 56222  1  0
 57223  1  0
 58224  1  0
 59225  1  0
 59226  1  0
 60227  1  0
 61228  1  1
 62229  1  0
 62230  1  0
 62231  1  0
 63232  1  1
 64233  1  0
 65234  1  0
 65235  1  0
 66236  1  0
 66237  1  0
 67238  1  0
 68239  1  0
 69240  1  0
 69241  1  0
 70242  1  0
 70243  1  0
 71244  1  0
 71245  1  0
 72246  1  0
 72247  1  0
 73248  1  0
 73249  1  0
 74250  1  0
 74251  1  0
 75252  1  0
 75253  1  0
 76254  1  0
 76255  1  0
 78256  1  0
 78257  1  0
 79258  1  0
 79259  1  0
 81260  1  0
 82261  1  0
 82262  1  0
 83263  1  0
 83264  1  0
 84265  1  0
 84266  1  0
 85267  1  0
 85268  1  0
 86269  1  0
 87270  1  0
 87271  1  0
 89272  1  0
 90273  1  0
 90274  1  0
 91275  1  0
 91276  1  0
 92277  1  0
 93278  1  0
 94279  1  0
 94280  1  0
 95281  1  0
 96282  1  0
 97283  1  0
 97284  1  0
 97285  1  0
 98286  1  6
 99287  1  0
100288  1  0
100289  1  0
101290  1  0
101291  1  0
102292  1  0
103293  1  0
104294  1  0
104295  1  0
105296  1  0
105297  1  0
106298  1  1
107299  1  0
107300  1  0
108301  1  0
108302  1  0
109303  1  0
109304  1  0
110305  1  0
110306  1  0
111307  1  1
113308  1  0
113309  1  0
114310  1  0
114311  1  0
116312  1  0
117313  1  0
117314  1  0
118315  1  0
118316  1  0
119317  1  0
119318  1  0
120319  1  0
120320  1  0
121321  1  0
122322  1  0
122323  1  0
124324  1  0
125325  1  0
125326  1  0
126327  1  0
126328  1  0
127329  1  0
128330  1  0
129331  1  0
129332  1  0
130333  1  0
131334  1  0
132335  1  0
132336  1  0
132337  1  0
133338  1  1
134339  1  0
135340  1  0
135341  1  0
136342  1  0
136343  1  0
137344  1  0
139345  1  0
139346  1  0
140347  1  0
140348  1  0
M  END
>  <PDBID>  (1) 
4XI3

>  <PDB ID>  (1) 
4XI3

>  <Generic Name>  (1) 
Bazedoxifene

>  <Brand Name>  (1) 
Duavee#Duavive#Aprela#Viviant

>  <DrugBank ID>  (1) 
DB06401

>  <ATC Codes>  (1) 
G03CC07#G03XC02

>  <Ligand ID>  (1) 
29S

>  <Target Name>  (1) 
Estrogen receptor

>  <UniProt ID>  (1) 
P03372

>  <PDB ID.1>  (1) 
4XI3

>  <Seq. Identity>  (1) 
92%

$$$$
