PDB_DB00220_02
     RDKit          3D

101104  0  0  0  0  0  0  0  0999 V2000
    3.0114    0.7426    2.8649 C   0  0  2  0  0  0  0  0  0  0  0  0
    4.2586   -0.1104    2.7746 C   0  0  1  0  0  0  0  0  0  0  0  0
    4.3225   -1.1460    3.8606 C   0  0  0  0  0  0  0  0  0  0  0  0
    4.0788   -0.5644    5.2318 C   0  0  0  0  0  0  0  0  0  0  0  0
    2.6929    0.0371    5.2174 C   0  0  0  0  0  0  0  0  0  0  0  0
    2.7219    1.1992    4.2523 C   0  0  0  0  0  0  0  0  0  0  0  0
    1.9471   -0.0535    0.7800 N   0  0  0  0  0  0  0  0  0  0  0  0
    3.3617   -0.0177    0.4451 C   0  0  1  0  0  0  0  0  0  0  0  0
    4.1714   -0.8208    1.4536 C   0  0  0  0  0  0  0  0  0  0  0  0
    1.9088   -0.0800    2.2461 C   0  0  0  0  0  0  0  0  0  0  0  0
    3.6234   -0.7145   -0.8868 C   0  0  1  0  0  0  0  0  0  0  0  0
    5.0231   -0.6310   -1.1601 N   0  0  0  0  0  0  0  0  0  0  0  0
    5.3258   -0.1523   -2.4960 C   0  0  0  0  0  0  0  0  0  0  0  0
    4.8366   -1.0581   -3.5700 C   0  0  0  0  0  0  0  0  0  0  0  0
    4.8342    1.2593   -2.6848 C   0  0  0  0  0  0  0  0  0  0  0  0
    6.8580   -0.1059   -2.5792 C   0  0  0  0  0  0  0  0  0  0  0  0
    3.2538   -2.0467   -0.7373 O   0  0  0  0  0  0  0  0  0  0  0  0
    1.3632    1.1813    0.2974 C   0  0  0  0  0  0  0  0  0  0  0  0
   -0.1240    1.2420    0.3787 C   0  0  2  0  0  0  0  0  0  0  0  0
   -0.7887    0.3807   -0.7303 C   0  0  1  0  0  0  0  0  0  0  0  0
   -0.4836    2.5554   -0.0187 O   0  0  0  0  0  0  0  0  0  0  0  0
   -0.6066   -0.9717   -0.6456 N   0  0  0  0  0  0  0  0  0  0  0  0
   -2.1705    0.9337   -1.0105 C   0  0  0  0  0  0  0  0  0  0  0  0
   -1.0777   -1.8842    0.2714 C   0  0  0  0  0  0  0  0  0  0  0  0
   -0.7195   -1.7226    1.6112 O   0  0  0  0  0  0  0  0  0  0  0  0
   -2.5802   -2.0724    0.1519 C   0  0  0  0  0  0  0  0  0  0  0  0
   -3.1225   -3.0806    1.1463 C   0  0  0  0  0  0  0  0  0  0  0  0
   -4.6475   -2.9690    1.0843 C   0  0  0  0  0  0  0  0  0  0  0  0
   -5.2010   -3.1060   -0.2925 C   0  0  0  0  0  0  0  0  0  0  0  0
   -4.4661   -2.3488   -1.3543 C   0  0  1  0  0  0  0  0  0  0  0  0
   -2.9548   -2.5731   -1.2252 C   0  0  2  0  0  0  0  0  0  0  0  0
   -4.8372   -2.7587   -2.6081 O   0  0  0  0  0  0  0  0  0  0  0  0
   -2.6400   -4.0352   -1.4320 C   0  0  0  0  0  0  0  0  0  0  0  0
   -2.0496    2.6574   -1.6433 S   0  0  0  0  0  0  0  0  0  0  0  0
   -3.6864    3.4230   -1.6902 C   0  0  0  0  0  0  0  0  0  0  0  0
   -4.2254    3.6415   -0.2799 C   0  0  0  0  0  0  0  0  0  0  0  0
   -5.1526    4.8372   -0.3620 C   0  0  0  0  0  0  0  0  0  0  0  0
   -5.9491    4.6899   -1.6557 C   0  0  0  0  0  0  0  0  0  0  0  0
   -6.0919    3.2298   -2.0641 C   0  0  0  0  0  0  0  0  0  0  0  0
   -4.7248    2.6309   -2.4228 C   0  0  0  0  0  0  0  0  0  0  0  0
    5.4220    0.1467   -0.5379 H   0  0  0  0  0  0  0  0  0  0  0  0
    0.2412    2.8727   -0.6096 H   0  0  0  0  0  0  0  0  0  0  0  0
   -0.1516   -1.4269   -1.4976 H   0  0  0  0  0  0  0  0  0  0  0  0
   -4.9229   -3.7315   -2.6580 H   0  0  0  0  0  0  0  0  0  0  0  0
    3.1726    1.6280    2.2327 H   0  0  0  0  0  0  0  0  0  0  0  0
    5.1602    0.5146    2.8303 H   0  0  0  0  0  0  0  0  0  0  0  0
    3.5851   -1.9252    3.6688 H   0  0  0  0  0  0  0  0  0  0  0  0
    5.3216   -1.6232    3.8392 H   0  0  0  0  0  0  0  0  0  0  0  0
    4.0358   -1.4349    5.9422 H   0  0  0  0  0  0  0  0  0  0  0  0
    4.8581    0.1400    5.5140 H   0  0  0  0  0  0  0  0  0  0  0  0
    2.3533    0.3549    6.2114 H   0  0  0  0  0  0  0  0  0  0  0  0
    2.0282   -0.7300    4.7359 H   0  0  0  0  0  0  0  0  0  0  0  0
    3.5498    1.8740    4.5609 H   0  0  0  0  0  0  0  0  0  0  0  0
    1.7463    1.6911    4.2733 H   0  0  0  0  0  0  0  0  0  0  0  0
    3.7867    0.9840    0.3909 H   0  0  0  0  0  0  0  0  0  0  0  0
    5.1859   -0.9378    1.0532 H   0  0  0  0  0  0  0  0  0  0  0  0
    3.7657   -1.8712    1.5379 H   0  0  0  0  0  0  0  0  0  0  0  0
    2.0931   -1.1399    2.5196 H   0  0  0  0  0  0  0  0  0  0  0  0
    0.9205    0.1853    2.6570 H   0  0  0  0  0  0  0  0  0  0  0  0
    3.0086   -0.2258   -1.6950 H   0  0  0  0  0  0  0  0  0  0  0  0
    4.8937   -0.4973   -4.5407 H   0  0  0  0  0  0  0  0  0  0  0  0
    3.7780   -1.3641   -3.4729 H   0  0  0  0  0  0  0  0  0  0  0  0
    5.5467   -1.9144   -3.6787 H   0  0  0  0  0  0  0  0  0  0  0  0
    5.5165    1.8571   -3.3606 H   0  0  0  0  0  0  0  0  0  0  0  0
    3.8708    1.2111   -3.2369 H   0  0  0  0  0  0  0  0  0  0  0  0
    4.7497    1.8276   -1.7518 H   0  0  0  0  0  0  0  0  0  0  0  0
    7.3093   -1.0864   -2.3692 H   0  0  0  0  0  0  0  0  0  0  0  0
    7.2182    0.3717   -3.4948 H   0  0  0  0  0  0  0  0  0  0  0  0
    7.2253    0.5533   -1.7348 H   0  0  0  0  0  0  0  0  0  0  0  0
    2.4096   -2.1072   -0.2493 H   0  0  0  0  0  0  0  0  0  0  0  0
    1.7930    2.0759    0.7908 H   0  0  0  0  0  0  0  0  0  0  0  0
    1.6363    1.2669   -0.7736 H   0  0  0  0  0  0  0  0  0  0  0  0
   -0.6020    1.0366    1.3093 H   0  0  0  0  0  0  0  0  0  0  0  0
   -0.1873    0.7393   -1.6453 H   0  0  0  0  0  0  0  0  0  0  0  0
   -2.7836    1.0626   -0.0770 H   0  0  0  0  0  0  0  0  0  0  0  0
   -2.6789    0.3812   -1.8113 H   0  0  0  0  0  0  0  0  0  0  0  0
   -0.6513   -2.9049    0.0039 H   0  0  0  0  0  0  0  0  0  0  0  0
   -0.7851   -2.5825    2.0544 H   0  0  0  0  0  0  0  0  0  0  0  0
   -3.1316   -1.1394    0.3516 H   0  0  0  0  0  0  0  0  0  0  0  0
   -2.8104   -2.7674    2.1427 H   0  0  0  0  0  0  0  0  0  0  0  0
   -2.8571   -4.1069    0.8812 H   0  0  0  0  0  0  0  0  0  0  0  0
   -5.0550   -3.7961    1.7108 H   0  0  0  0  0  0  0  0  0  0  0  0
   -4.9769   -1.9934    1.5197 H   0  0  0  0  0  0  0  0  0  0  0  0
   -6.2404   -2.6606   -0.2713 H   0  0  0  0  0  0  0  0  0  0  0  0
   -5.3633   -4.1505   -0.6178 H   0  0  0  0  0  0  0  0  0  0  0  0
   -4.6095   -1.2444   -1.2990 H   0  0  0  0  0  0  0  0  0  0  0  0
   -2.4466   -1.9428   -1.9554 H   0  0  0  0  0  0  0  0  0  0  0  0
   -2.5181   -4.2446   -2.5333 H   0  0  0  0  0  0  0  0  0  0  0  0
   -1.7222   -4.3404   -0.9145 H   0  0  0  0  0  0  0  0  0  0  0  0
   -3.4672   -4.6928   -1.1045 H   0  0  0  0  0  0  0  0  0  0  0  0
   -3.5867    4.4048   -2.1578 H   0  0  0  0  0  0  0  0  0  0  0  0
   -3.3527    3.8115    0.3881 H   0  0  0  0  0  0  0  0  0  0  0  0
   -4.8475    2.7741    0.0212 H   0  0  0  0  0  0  0  0  0  0  0  0
   -5.8345    4.8880    0.5146 H   0  0  0  0  0  0  0  0  0  0  0  0
   -4.5397    5.7486   -0.4409 H   0  0  0  0  0  0  0  0  0  0  0  0
   -5.5683    5.3216   -2.4692 H   0  0  0  0  0  0  0  0  0  0  0  0
   -6.9867    5.0491   -1.4191 H   0  0  0  0  0  0  0  0  0  0  0  0
   -6.7852    3.2169   -2.9360 H   0  0  0  0  0  0  0  0  0  0  0  0
   -6.5821    2.7067   -1.2362 H   0  0  0  0  0  0  0  0  0  0  0  0
   -4.6312    2.7010   -3.5173 H   0  0  0  0  0  0  0  0  0  0  0  0
   -4.7997    1.5685   -2.1066 H   0  0  0  0  0  0  0  0  0  0  0  0
  1  2  1  0
  2  3  1  0
  3  4  1  0
  4  5  1  0
  1  6  1  0
  5  6  1  0
  7  8  1  0
  2  9  1  0
  8  9  1  0
  1 10  1  0
  7 10  1  0
  8 11  1  0
 11 12  1  0
 13 12  1  0
 13 14  1  0
 13 15  1  0
 13 16  1  0
 11 17  1  0
  7 18  1  0
 18 19  1  0
 19 20  1  0
 19 21  1  0
 20 22  1  0
 20 23  1  0
 22 24  1  0
 24 25  1  0
 24 26  1  0
 26 27  1  0
 27 28  1  0
 28 29  1  0
 29 30  1  0
 26 31  1  0
 30 31  1  0
 30 32  1  0
 31 33  1  0
 23 34  1  0
 34 35  1  0
 35 36  1  0
 36 37  1  0
 37 38  1  0
 38 39  1  0
 35 40  1  0
 39 40  1  0
 12 41  1  0
 21 42  1  0
 22 43  1  0
 32 44  1  0
  1 45  1  6
  2 46  1  6
  3 47  1  0
  3 48  1  0
  4 49  1  0
  4 50  1  0
  5 51  1  0
  5 52  1  0
  6 53  1  0
  6 54  1  0
  8 55  1  6
  9 56  1  0
  9 57  1  0
 10 58  1  0
 10 59  1  0
 11 60  1  6
 14 61  1  0
 14 62  1  0
 14 63  1  0
 15 64  1  0
 15 65  1  0
 15 66  1  0
 16 67  1  0
 16 68  1  0
 16 69  1  0
 17 70  1  0
 18 71  1  0
 18 72  1  0
 19 73  1  1
 20 74  1  6
 23 75  1  0
 23 76  1  0
 24 77  1  0
 25 78  1  0
 26 79  1  0
 27 80  1  0
 27 81  1  0
 28 82  1  0
 28 83  1  0
 29 84  1  0
 29 85  1  0
 30 86  1  6
 31 87  1  6
 33 88  1  0
 33 89  1  0
 33 90  1  0
 35 91  1  0
 36 92  1  0
 36 93  1  0
 37 94  1  0
 37 95  1  0
 38 96  1  0
 38 97  1  0
 39 98  1  0
 39 99  1  0
 40100  1  0
 40101  1  0
M  END
>  <PDBID>  (1) 
1OHR

>  <PDB ID>  (1) 
1OHR

>  <Generic Name>  (1) 
Nelfinavir

>  <Brand Name>  (1) 
Viracept#Viracept -250mg#Viracept -50mg

>  <DrugBank ID>  (1) 
DB00220

>  <ATC Codes>  (1) 
J05AE04

>  <Ligand ID>  (1) 
1UN

>  <Target Name>  (1) 
HIV-1 protease

>  <UniProt ID>  (1) 
O90777

>  <PDB ID.1>  (1) 
1OHR

>  <Seq. Identity>  (1) 
93%

$$$$
