PDB_DB01076_04
     RDKit          3D

408420  0  0  0  0  0  0  0  0999 V2000
   -2.0411   -0.0303    2.1568 C   0  0  0  0  0  0  0  0  0  0  0  0
   -1.1469   -0.9184    1.3218 C   0  0  0  0  0  0  0  0  0  0  0  0
   -1.7695   -2.3078    1.5569 C   0  0  0  0  0  0  0  0  0  0  0  0
   -1.3299   -2.7410    2.9251 C   0  0  0  0  0  0  0  0  0  0  0  0
   -2.0780   -1.8536    3.9104 C   0  0  0  0  0  0  0  0  0  0  0  0
   -1.8482   -0.4055    3.6089 C   0  0  0  0  0  0  0  0  0  0  0  0
   -1.1946   -3.4200   -3.6654 C   0  0  0  0  0  0  0  0  0  0  0  0
   -1.0018   -2.0959   -2.9320 C   0  0  0  0  0  0  0  0  0  0  0  0
   -0.2029   -2.3143   -1.7050 C   0  0  0  0  0  0  0  0  0  0  0  0
    1.1061   -2.9996   -2.1744 C   0  0  0  0  0  0  0  0  0  0  0  0
    0.7913   -4.4272   -2.5333 C   0  0  0  0  0  0  0  0  0  0  0  0
   -0.6344   -4.6024   -2.9552 C   0  0  0  0  0  0  0  0  0  0  0  0
   -1.4553   -5.1247   -1.9691 F   0  0  0  0  0  0  0  0  0  0  0  0
    0.0719   -1.2268   -0.7845 C   0  0  0  0  0  0  0  0  0  0  0  0
   -4.0718    2.1132    0.3827 C   0  0  0  0  0  0  0  0  0  0  0  0
   -3.9685    3.6067   -0.0307 C   0  0  0  0  0  0  0  0  0  0  0  0
   -4.9617    3.9276   -1.1068 C   0  0  0  0  0  0  0  0  0  0  0  0
   -6.3027    4.0928   -0.4069 C   0  0  0  0  0  0  0  0  0  0  0  0
   -6.3250    3.1389    0.7702 C   0  0  0  0  0  0  0  0  0  0  0  0
   -5.5894    1.8694    0.4981 C   0  0  0  0  0  0  0  0  0  0  0  0
    8.5170    0.3304    2.3874 O   0  0  0  0  0  0  0  0  0  0  0  0
    8.3168   -1.9447    2.4024 O   0  0  0  0  0  0  0  0  0  0  0  0
    6.6483    0.4239    0.4141 O   0  0  0  0  0  0  0  0  0  0  0  0
    7.8076   -0.7515    2.8904 C   0  0  0  0  0  0  0  0  0  0  0  0
    6.3338   -0.6617    2.5494 C   0  0  0  0  0  0  0  0  0  0  0  0
    6.0844   -0.6309    1.0840 C   0  0  1  0  0  0  0  0  0  0  0  0
    4.6222   -0.7409    0.7206 C   0  0  0  0  0  0  0  0  0  0  0  0
    3.8242    0.4826    1.0635 C   0  0  1  0  0  0  0  0  0  0  0  0
    2.3832    0.2694    0.6704 C   0  0  0  0  0  0  0  0  0  0  0  0
    2.1553    0.0253   -0.7971 C   0  0  0  0  0  0  0  0  0  0  0  0
    0.8357   -0.1193   -1.1919 N   0  0  0  0  0  0  0  0  0  0  0  0
   -1.1150   -0.5936   -0.1436 C   0  0  0  0  0  0  0  0  0  0  0  0
   -1.1319    0.8406   -0.5198 C   0  0  0  0  0  0  0  0  0  0  0  0
   -2.3385    1.3562   -1.2031 C   0  0  0  0  0  0  0  0  0  0  0  0
   -3.6095    1.3551   -0.6833 N   0  0  0  0  0  0  0  0  0  0  0  0
   -2.3841    0.7977   -2.4939 O   0  0  0  0  0  0  0  0  0  0  0  0
   -0.0019    0.9221   -1.5425 C   0  0  0  0  0  0  0  0  0  0  0  0
    0.4652    2.2869   -1.7573 C   0  0  0  0  0  0  0  0  0  0  0  0
    1.5059    2.3855   -2.8938 C   0  0  0  0  0  0  0  0  0  0  0  0
    0.9179    3.1082   -0.6085 C   0  0  0  0  0  0  0  0  0  0  0  0
    3.7969    0.7053    2.4530 O   0  0  0  0  0  0  0  0  0  0  0  0
   -2.0411   -0.0303    2.1568 C   0  0  0  0  0  0  0  0  0  0  0  0
   -1.1469   -0.9184    1.3218 C   0  0  0  0  0  0  0  0  0  0  0  0
   -1.7695   -2.3078    1.5569 C   0  0  0  0  0  0  0  0  0  0  0  0
   -1.3299   -2.7410    2.9251 C   0  0  0  0  0  0  0  0  0  0  0  0
   -2.0780   -1.8536    3.9104 C   0  0  0  0  0  0  0  0  0  0  0  0
   -1.8482   -0.4055    3.6089 C   0  0  0  0  0  0  0  0  0  0  0  0
   -1.1946   -3.4200   -3.6654 C   0  0  0  0  0  0  0  0  0  0  0  0
   -1.0018   -2.0959   -2.9320 C   0  0  0  0  0  0  0  0  0  0  0  0
   -0.2029   -2.3143   -1.7050 C   0  0  0  0  0  0  0  0  0  0  0  0
    1.1061   -2.9996   -2.1744 C   0  0  0  0  0  0  0  0  0  0  0  0
    0.7913   -4.4272   -2.5333 C   0  0  0  0  0  0  0  0  0  0  0  0
   -0.6344   -4.6024   -2.9552 C   0  0  0  0  0  0  0  0  0  0  0  0
   -1.4553   -5.1247   -1.9691 F   0  0  0  0  0  0  0  0  0  0  0  0
    0.0719   -1.2268   -0.7845 C   0  0  0  0  0  0  0  0  0  0  0  0
   -4.0718    2.1132    0.3827 C   0  0  0  0  0  0  0  0  0  0  0  0
   -3.9685    3.6067   -0.0307 C   0  0  0  0  0  0  0  0  0  0  0  0
   -4.9617    3.9276   -1.1068 C   0  0  0  0  0  0  0  0  0  0  0  0
   -6.3027    4.0928   -0.4069 C   0  0  0  0  0  0  0  0  0  0  0  0
   -6.3250    3.1389    0.7702 C   0  0  0  0  0  0  0  0  0  0  0  0
   -5.5894    1.8694    0.4981 C   0  0  0  0  0  0  0  0  0  0  0  0
    8.5170    0.3304    2.3874 O   0  0  0  0  0  0  0  0  0  0  0  0
    8.3168   -1.9447    2.4024 O   0  0  0  0  0  0  0  0  0  0  0  0
    6.6483    0.4239    0.4141 O   0  0  0  0  0  0  0  0  0  0  0  0
    7.8076   -0.7515    2.8904 C   0  0  0  0  0  0  0  0  0  0  0  0
    6.3338   -0.6617    2.5494 C   0  0  0  0  0  0  0  0  0  0  0  0
    6.0844   -0.6309    1.0840 C   0  0  1  0  0  0  0  0  0  0  0  0
    4.6222   -0.7409    0.7206 C   0  0  0  0  0  0  0  0  0  0  0  0
    3.8242    0.4826    1.0635 C   0  0  1  0  0  0  0  0  0  0  0  0
    2.3832    0.2694    0.6704 C   0  0  0  0  0  0  0  0  0  0  0  0
    2.1553    0.0253   -0.7971 C   0  0  0  0  0  0  0  0  0  0  0  0
    0.8357   -0.1193   -1.1919 N   0  0  0  0  0  0  0  0  0  0  0  0
   -1.1150   -0.5936   -0.1436 C   0  0  0  0  0  0  0  0  0  0  0  0
   -1.1319    0.8406   -0.5198 C   0  0  0  0  0  0  0  0  0  0  0  0
   -2.3385    1.3562   -1.2031 C   0  0  0  0  0  0  0  0  0  0  0  0
   -3.6095    1.3551   -0.6833 N   0  0  0  0  0  0  0  0  0  0  0  0
   -2.3841    0.7977   -2.4939 O   0  0  0  0  0  0  0  0  0  0  0  0
   -0.0019    0.9221   -1.5425 C   0  0  0  0  0  0  0  0  0  0  0  0
    0.4652    2.2869   -1.7573 C   0  0  0  0  0  0  0  0  0  0  0  0
    1.5059    2.3855   -2.8938 C   0  0  0  0  0  0  0  0  0  0  0  0
    0.9179    3.1082   -0.6085 C   0  0  0  0  0  0  0  0  0  0  0  0
    3.7969    0.7053    2.4530 O   0  0  0  0  0  0  0  0  0  0  0  0
   -2.0411   -0.0303    2.1568 C   0  0  0  0  0  0  0  0  0  0  0  0
   -1.1469   -0.9184    1.3218 C   0  0  0  0  0  0  0  0  0  0  0  0
   -1.7695   -2.3078    1.5569 C   0  0  0  0  0  0  0  0  0  0  0  0
   -1.3299   -2.7410    2.9251 C   0  0  0  0  0  0  0  0  0  0  0  0
   -2.0780   -1.8536    3.9104 C   0  0  0  0  0  0  0  0  0  0  0  0
   -1.8482   -0.4055    3.6089 C   0  0  0  0  0  0  0  0  0  0  0  0
   -1.1946   -3.4200   -3.6654 C   0  0  0  0  0  0  0  0  0  0  0  0
   -1.0018   -2.0959   -2.9320 C   0  0  0  0  0  0  0  0  0  0  0  0
   -0.2029   -2.3143   -1.7050 C   0  0  0  0  0  0  0  0  0  0  0  0
    1.1061   -2.9996   -2.1744 C   0  0  0  0  0  0  0  0  0  0  0  0
    0.7913   -4.4272   -2.5333 C   0  0  0  0  0  0  0  0  0  0  0  0
   -0.6344   -4.6024   -2.9552 C   0  0  0  0  0  0  0  0  0  0  0  0
   -1.4553   -5.1247   -1.9691 F   0  0  0  0  0  0  0  0  0  0  0  0
    0.0719   -1.2268   -0.7845 C   0  0  0  0  0  0  0  0  0  0  0  0
   -4.0718    2.1132    0.3827 C   0  0  0  0  0  0  0  0  0  0  0  0
   -3.9685    3.6067   -0.0307 C   0  0  0  0  0  0  0  0  0  0  0  0
   -4.9617    3.9276   -1.1068 C   0  0  0  0  0  0  0  0  0  0  0  0
   -6.3027    4.0928   -0.4069 C   0  0  0  0  0  0  0  0  0  0  0  0
   -6.3250    3.1389    0.7702 C   0  0  0  0  0  0  0  0  0  0  0  0
   -5.5894    1.8694    0.4981 C   0  0  0  0  0  0  0  0  0  0  0  0
    8.5170    0.3304    2.3874 O   0  0  0  0  0  0  0  0  0  0  0  0
    8.3168   -1.9447    2.4024 O   0  0  0  0  0  0  0  0  0  0  0  0
    6.6483    0.4239    0.4141 O   0  0  0  0  0  0  0  0  0  0  0  0
    7.8076   -0.7515    2.8904 C   0  0  0  0  0  0  0  0  0  0  0  0
    6.3338   -0.6617    2.5494 C   0  0  0  0  0  0  0  0  0  0  0  0
    6.0844   -0.6309    1.0840 C   0  0  1  0  0  0  0  0  0  0  0  0
    4.6222   -0.7409    0.7206 C   0  0  0  0  0  0  0  0  0  0  0  0
    3.8242    0.4826    1.0635 C   0  0  1  0  0  0  0  0  0  0  0  0
    2.3832    0.2694    0.6704 C   0  0  0  0  0  0  0  0  0  0  0  0
    2.1553    0.0253   -0.7971 C   0  0  0  0  0  0  0  0  0  0  0  0
    0.8357   -0.1193   -1.1919 N   0  0  0  0  0  0  0  0  0  0  0  0
   -1.1150   -0.5936   -0.1436 C   0  0  0  0  0  0  0  0  0  0  0  0
   -1.1319    0.8406   -0.5198 C   0  0  0  0  0  0  0  0  0  0  0  0
   -2.3385    1.3562   -1.2031 C   0  0  0  0  0  0  0  0  0  0  0  0
   -3.6095    1.3551   -0.6833 N   0  0  0  0  0  0  0  0  0  0  0  0
   -2.3841    0.7977   -2.4939 O   0  0  0  0  0  0  0  0  0  0  0  0
   -0.0019    0.9221   -1.5425 C   0  0  0  0  0  0  0  0  0  0  0  0
    0.4652    2.2869   -1.7573 C   0  0  0  0  0  0  0  0  0  0  0  0
    1.5059    2.3855   -2.8938 C   0  0  0  0  0  0  0  0  0  0  0  0
    0.9179    3.1082   -0.6085 C   0  0  0  0  0  0  0  0  0  0  0  0
    3.7969    0.7053    2.4530 O   0  0  0  0  0  0  0  0  0  0  0  0
   -2.0411   -0.0303    2.1568 C   0  0  0  0  0  0  0  0  0  0  0  0
   -1.1469   -0.9184    1.3218 C   0  0  0  0  0  0  0  0  0  0  0  0
   -1.7695   -2.3078    1.5569 C   0  0  0  0  0  0  0  0  0  0  0  0
   -1.3299   -2.7410    2.9251 C   0  0  0  0  0  0  0  0  0  0  0  0
   -2.0780   -1.8536    3.9104 C   0  0  0  0  0  0  0  0  0  0  0  0
   -1.8482   -0.4055    3.6089 C   0  0  0  0  0  0  0  0  0  0  0  0
   -1.1946   -3.4200   -3.6654 C   0  0  0  0  0  0  0  0  0  0  0  0
   -1.0018   -2.0959   -2.9320 C   0  0  0  0  0  0  0  0  0  0  0  0
   -0.2029   -2.3143   -1.7050 C   0  0  0  0  0  0  0  0  0  0  0  0
    1.1061   -2.9996   -2.1744 C   0  0  0  0  0  0  0  0  0  0  0  0
    0.7913   -4.4272   -2.5333 C   0  0  0  0  0  0  0  0  0  0  0  0
   -0.6344   -4.6024   -2.9552 C   0  0  0  0  0  0  0  0  0  0  0  0
   -1.4553   -5.1247   -1.9691 F   0  0  0  0  0  0  0  0  0  0  0  0
    0.0719   -1.2268   -0.7845 C   0  0  0  0  0  0  0  0  0  0  0  0
   -4.0718    2.1132    0.3827 C   0  0  0  0  0  0  0  0  0  0  0  0
   -3.9685    3.6067   -0.0307 C   0  0  0  0  0  0  0  0  0  0  0  0
   -4.9617    3.9276   -1.1068 C   0  0  0  0  0  0  0  0  0  0  0  0
   -6.3027    4.0928   -0.4069 C   0  0  0  0  0  0  0  0  0  0  0  0
   -6.3250    3.1389    0.7702 C   0  0  0  0  0  0  0  0  0  0  0  0
   -5.5894    1.8694    0.4981 C   0  0  0  0  0  0  0  0  0  0  0  0
    8.5170    0.3304    2.3874 O   0  0  0  0  0  0  0  0  0  0  0  0
    8.3168   -1.9447    2.4024 O   0  0  0  0  0  0  0  0  0  0  0  0
    6.6483    0.4239    0.4141 O   0  0  0  0  0  0  0  0  0  0  0  0
    7.8076   -0.7515    2.8904 C   0  0  0  0  0  0  0  0  0  0  0  0
    6.3338   -0.6617    2.5494 C   0  0  0  0  0  0  0  0  0  0  0  0
    6.0844   -0.6309    1.0840 C   0  0  1  0  0  0  0  0  0  0  0  0
    4.6222   -0.7409    0.7206 C   0  0  0  0  0  0  0  0  0  0  0  0
    3.8242    0.4826    1.0635 C   0  0  1  0  0  0  0  0  0  0  0  0
    2.3832    0.2694    0.6704 C   0  0  0  0  0  0  0  0  0  0  0  0
    2.1553    0.0253   -0.7971 C   0  0  0  0  0  0  0  0  0  0  0  0
    0.8357   -0.1193   -1.1919 N   0  0  0  0  0  0  0  0  0  0  0  0
   -1.1150   -0.5936   -0.1436 C   0  0  0  0  0  0  0  0  0  0  0  0
   -1.1319    0.8406   -0.5198 C   0  0  0  0  0  0  0  0  0  0  0  0
   -2.3385    1.3562   -1.2031 C   0  0  0  0  0  0  0  0  0  0  0  0
   -3.6095    1.3551   -0.6833 N   0  0  0  0  0  0  0  0  0  0  0  0
   -2.3841    0.7977   -2.4939 O   0  0  0  0  0  0  0  0  0  0  0  0
   -0.0019    0.9221   -1.5425 C   0  0  0  0  0  0  0  0  0  0  0  0
    0.4652    2.2869   -1.7573 C   0  0  0  0  0  0  0  0  0  0  0  0
    1.5059    2.3855   -2.8938 C   0  0  0  0  0  0  0  0  0  0  0  0
    0.9179    3.1082   -0.6085 C   0  0  0  0  0  0  0  0  0  0  0  0
    3.7969    0.7053    2.4530 O   0  0  0  0  0  0  0  0  0  0  0  0
   -1.7002    1.0356    2.0918 H   0  0  0  0  0  0  0  0  0  0  0  0
   -3.0727   -0.2104    1.8846 H   0  0  0  0  0  0  0  0  0  0  0  0
   -0.1494   -0.8686    1.7538 H   0  0  0  0  0  0  0  0  0  0  0  0
   -1.6063   -3.0279    0.7864 H   0  0  0  0  0  0  0  0  0  0  0  0
   -2.8935   -2.1648    1.6223 H   0  0  0  0  0  0  0  0  0  0  0  0
   -1.5866   -3.7970    3.1449 H   0  0  0  0  0  0  0  0  0  0  0  0
   -0.2510   -2.5189    3.0304 H   0  0  0  0  0  0  0  0  0  0  0  0
   -3.1575   -2.1028    3.8797 H   0  0  0  0  0  0  0  0  0  0  0  0
   -1.6659   -2.0845    4.8980 H   0  0  0  0  0  0  0  0  0  0  0  0
   -0.8747   -0.0630    4.0265 H   0  0  0  0  0  0  0  0  0  0  0  0
   -2.6399    0.1717    4.1713 H   0  0  0  0  0  0  0  0  0  0  0  0
   -0.7072   -3.3870   -4.6837 H   0  0  0  0  0  0  0  0  0  0  0  0
   -2.2558   -3.6408   -3.8834 H   0  0  0  0  0  0  0  0  0  0  0  0
   -0.6191   -1.4036   -3.6756 H   0  0  0  0  0  0  0  0  0  0  0  0
   -2.0657   -1.7836   -2.7029 H   0  0  0  0  0  0  0  0  0  0  0  0
   -0.6939   -3.1445   -1.1698 H   0  0  0  0  0  0  0  0  0  0  0  0
    1.5280   -2.5034   -3.0421 H   0  0  0  0  0  0  0  0  0  0  0  0
    1.8384   -2.9879   -1.3229 H   0  0  0  0  0  0  0  0  0  0  0  0
    1.0964   -5.0844   -1.7115 H   0  0  0  0  0  0  0  0  0  0  0  0
    1.4734   -4.7200   -3.3928 H   0  0  0  0  0  0  0  0  0  0  0  0
   -0.6075   -5.4282   -3.7341 H   0  0  0  0  0  0  0  0  0  0  0  0
    0.6743   -1.6941    0.0768 H   0  0  0  0  0  0  0  0  0  0  0  0
   -3.6012    2.0907    1.3531 H   0  0  0  0  0  0  0  0  0  0  0  0
   -4.2815    4.1653    0.8912 H   0  0  0  0  0  0  0  0  0  0  0  0
   -2.9352    3.8870   -0.2622 H   0  0  0  0  0  0  0  0  0  0  0  0
   -5.0263    3.1550   -1.8986 H   0  0  0  0  0  0  0  0  0  0  0  0
   -4.6925    4.8876   -1.5587 H   0  0  0  0  0  0  0  0  0  0  0  0
   -6.4336    5.1213    0.0119 H   0  0  0  0  0  0  0  0  0  0  0  0
   -7.0872    3.8585   -1.1591 H   0  0  0  0  0  0  0  0  0  0  0  0
   -6.0453    3.6262    1.7292 H   0  0  0  0  0  0  0  0  0  0  0  0
   -7.4108    2.8538    0.9055 H   0  0  0  0  0  0  0  0  0  0  0  0
   -5.8234    1.1508    1.3164 H   0  0  0  0  0  0  0  0  0  0  0  0
   -5.9952    1.4148   -0.4261 H   0  0  0  0  0  0  0  0  0  0  0  0
    8.0590    1.1860    2.4534 H   0  0  0  0  0  0  0  0  0  0  0  0
    8.5556   -1.9249    1.4619 H   0  0  0  0  0  0  0  0  0  0  0  0
    6.0331    0.8536   -0.2365 H   0  0  0  0  0  0  0  0  0  0  0  0
    7.9174   -0.7753    3.9933 H   0  0  0  0  0  0  0  0  0  0  0  0
    5.8038   -1.4895    3.0515 H   0  0  0  0  0  0  0  0  0  0  0  0
    5.9526    0.2870    3.0349 H   0  0  0  0  0  0  0  0  0  0  0  0
    6.5642   -1.5636    0.6423 H   0  0  0  0  0  0  0  0  0  0  0  0
    4.1571   -1.6578    1.1158 H   0  0  0  0  0  0  0  0  0  0  0  0
    4.6304   -0.8656   -0.4045 H   0  0  0  0  0  0  0  0  0  0  0  0
    4.2425    1.3822    0.5643 H   0  0  0  0  0  0  0  0  0  0  0  0
    2.1208   -0.6886    1.2559 H   0  0  0  0  0  0  0  0  0  0  0  0
    1.6989    1.0066    1.1291 H   0  0  0  0  0  0  0  0  0  0  0  0
    2.6427    0.8438   -1.3533 H   0  0  0  0  0  0  0  0  0  0  0  0
    2.8075   -0.8678   -1.0493 H   0  0  0  0  0  0  0  0  0  0  0  0
   -2.0852   -1.0215   -0.5516 H   0  0  0  0  0  0  0  0  0  0  0  0
   -0.7890    1.4509    0.3361 H   0  0  0  0  0  0  0  0  0  0  0  0
   -2.1410    2.4816   -1.4693 H   0  0  0  0  0  0  0  0  0  0  0  0
   -4.3402    1.0801   -1.3507 H   0  0  0  0  0  0  0  0  0  0  0  0
   -3.2644    0.3936   -2.6935 H   0  0  0  0  0  0  0  0  0  0  0  0
   -0.4946    0.6112   -2.5418 H   0  0  0  0  0  0  0  0  0  0  0  0
   -0.4138    2.8620   -2.1975 H   0  0  0  0  0  0  0  0  0  0  0  0
    1.6391    1.4280   -3.4176 H   0  0  0  0  0  0  0  0  0  0  0  0
    2.4423    2.8668   -2.5452 H   0  0  0  0  0  0  0  0  0  0  0  0
    1.1440    3.0892   -3.7047 H   0  0  0  0  0  0  0  0  0  0  0  0
    2.0327    2.9578   -0.4781 H   0  0  0  0  0  0  0  0  0  0  0  0
    0.8684    4.2174   -0.8636 H   0  0  0  0  0  0  0  0  0  0  0  0
    0.3783    3.0220    0.3263 H   0  0  0  0  0  0  0  0  0  0  0  0
    3.4253   -0.0949    2.8741 H   0  0  0  0  0  0  0  0  0  0  0  0
   -1.7002    1.0356    2.0918 H   0  0  0  0  0  0  0  0  0  0  0  0
   -3.0727   -0.2104    1.8846 H   0  0  0  0  0  0  0  0  0  0  0  0
   -0.1494   -0.8686    1.7538 H   0  0  0  0  0  0  0  0  0  0  0  0
   -1.6063   -3.0279    0.7864 H   0  0  0  0  0  0  0  0  0  0  0  0
   -2.8935   -2.1648    1.6223 H   0  0  0  0  0  0  0  0  0  0  0  0
   -1.5866   -3.7970    3.1449 H   0  0  0  0  0  0  0  0  0  0  0  0
   -0.2510   -2.5189    3.0304 H   0  0  0  0  0  0  0  0  0  0  0  0
   -3.1575   -2.1028    3.8797 H   0  0  0  0  0  0  0  0  0  0  0  0
   -1.6659   -2.0845    4.8980 H   0  0  0  0  0  0  0  0  0  0  0  0
   -0.8747   -0.0630    4.0265 H   0  0  0  0  0  0  0  0  0  0  0  0
   -2.6399    0.1717    4.1713 H   0  0  0  0  0  0  0  0  0  0  0  0
   -0.7072   -3.3870   -4.6837 H   0  0  0  0  0  0  0  0  0  0  0  0
   -2.2558   -3.6408   -3.8834 H   0  0  0  0  0  0  0  0  0  0  0  0
   -0.6191   -1.4036   -3.6756 H   0  0  0  0  0  0  0  0  0  0  0  0
   -2.0657   -1.7836   -2.7029 H   0  0  0  0  0  0  0  0  0  0  0  0
   -0.6939   -3.1445   -1.1698 H   0  0  0  0  0  0  0  0  0  0  0  0
    1.5280   -2.5034   -3.0421 H   0  0  0  0  0  0  0  0  0  0  0  0
    1.8384   -2.9879   -1.3229 H   0  0  0  0  0  0  0  0  0  0  0  0
    1.0964   -5.0844   -1.7115 H   0  0  0  0  0  0  0  0  0  0  0  0
    1.4734   -4.7200   -3.3928 H   0  0  0  0  0  0  0  0  0  0  0  0
   -0.6075   -5.4282   -3.7341 H   0  0  0  0  0  0  0  0  0  0  0  0
    0.6743   -1.6941    0.0768 H   0  0  0  0  0  0  0  0  0  0  0  0
   -3.6012    2.0907    1.3531 H   0  0  0  0  0  0  0  0  0  0  0  0
   -4.2815    4.1653    0.8912 H   0  0  0  0  0  0  0  0  0  0  0  0
   -2.9352    3.8870   -0.2622 H   0  0  0  0  0  0  0  0  0  0  0  0
   -5.0263    3.1550   -1.8986 H   0  0  0  0  0  0  0  0  0  0  0  0
   -4.6925    4.8876   -1.5587 H   0  0  0  0  0  0  0  0  0  0  0  0
   -6.4336    5.1213    0.0119 H   0  0  0  0  0  0  0  0  0  0  0  0
   -7.0872    3.8585   -1.1591 H   0  0  0  0  0  0  0  0  0  0  0  0
   -6.0453    3.6262    1.7292 H   0  0  0  0  0  0  0  0  0  0  0  0
   -7.4108    2.8538    0.9055 H   0  0  0  0  0  0  0  0  0  0  0  0
   -5.8234    1.1508    1.3164 H   0  0  0  0  0  0  0  0  0  0  0  0
   -5.9952    1.4148   -0.4261 H   0  0  0  0  0  0  0  0  0  0  0  0
    8.0590    1.1860    2.4534 H   0  0  0  0  0  0  0  0  0  0  0  0
    8.5556   -1.9249    1.4619 H   0  0  0  0  0  0  0  0  0  0  0  0
    6.0331    0.8536   -0.2365 H   0  0  0  0  0  0  0  0  0  0  0  0
    7.9174   -0.7753    3.9933 H   0  0  0  0  0  0  0  0  0  0  0  0
    5.8038   -1.4895    3.0515 H   0  0  0  0  0  0  0  0  0  0  0  0
    5.9526    0.2870    3.0349 H   0  0  0  0  0  0  0  0  0  0  0  0
    6.5642   -1.5636    0.6423 H   0  0  0  0  0  0  0  0  0  0  0  0
    4.1571   -1.6578    1.1158 H   0  0  0  0  0  0  0  0  0  0  0  0
    4.6304   -0.8656   -0.4045 H   0  0  0  0  0  0  0  0  0  0  0  0
    4.2425    1.3822    0.5643 H   0  0  0  0  0  0  0  0  0  0  0  0
    2.1208   -0.6886    1.2559 H   0  0  0  0  0  0  0  0  0  0  0  0
    1.6989    1.0066    1.1291 H   0  0  0  0  0  0  0  0  0  0  0  0
    2.6427    0.8438   -1.3533 H   0  0  0  0  0  0  0  0  0  0  0  0
    2.8075   -0.8678   -1.0493 H   0  0  0  0  0  0  0  0  0  0  0  0
   -2.0852   -1.0215   -0.5516 H   0  0  0  0  0  0  0  0  0  0  0  0
   -0.7890    1.4509    0.3361 H   0  0  0  0  0  0  0  0  0  0  0  0
   -2.1410    2.4816   -1.4693 H   0  0  0  0  0  0  0  0  0  0  0  0
   -4.3402    1.0801   -1.3507 H   0  0  0  0  0  0  0  0  0  0  0  0
   -3.2644    0.3936   -2.6935 H   0  0  0  0  0  0  0  0  0  0  0  0
   -0.4946    0.6112   -2.5418 H   0  0  0  0  0  0  0  0  0  0  0  0
   -0.4138    2.8620   -2.1975 H   0  0  0  0  0  0  0  0  0  0  0  0
    1.6391    1.4280   -3.4176 H   0  0  0  0  0  0  0  0  0  0  0  0
    2.4423    2.8668   -2.5452 H   0  0  0  0  0  0  0  0  0  0  0  0
    1.1440    3.0892   -3.7047 H   0  0  0  0  0  0  0  0  0  0  0  0
    2.0327    2.9578   -0.4781 H   0  0  0  0  0  0  0  0  0  0  0  0
    0.8684    4.2174   -0.8636 H   0  0  0  0  0  0  0  0  0  0  0  0
    0.3783    3.0220    0.3263 H   0  0  0  0  0  0  0  0  0  0  0  0
    3.4253   -0.0949    2.8741 H   0  0  0  0  0  0  0  0  0  0  0  0
   -1.7002    1.0356    2.0918 H   0  0  0  0  0  0  0  0  0  0  0  0
   -3.0727   -0.2104    1.8846 H   0  0  0  0  0  0  0  0  0  0  0  0
   -0.1494   -0.8686    1.7538 H   0  0  0  0  0  0  0  0  0  0  0  0
   -1.6063   -3.0279    0.7864 H   0  0  0  0  0  0  0  0  0  0  0  0
   -2.8935   -2.1648    1.6223 H   0  0  0  0  0  0  0  0  0  0  0  0
   -1.5866   -3.7970    3.1449 H   0  0  0  0  0  0  0  0  0  0  0  0
   -0.2510   -2.5189    3.0304 H   0  0  0  0  0  0  0  0  0  0  0  0
   -3.1575   -2.1028    3.8797 H   0  0  0  0  0  0  0  0  0  0  0  0
   -1.6659   -2.0845    4.8980 H   0  0  0  0  0  0  0  0  0  0  0  0
   -0.8747   -0.0630    4.0265 H   0  0  0  0  0  0  0  0  0  0  0  0
   -2.6399    0.1717    4.1713 H   0  0  0  0  0  0  0  0  0  0  0  0
   -0.7072   -3.3870   -4.6837 H   0  0  0  0  0  0  0  0  0  0  0  0
   -2.2558   -3.6408   -3.8834 H   0  0  0  0  0  0  0  0  0  0  0  0
   -0.6191   -1.4036   -3.6756 H   0  0  0  0  0  0  0  0  0  0  0  0
   -2.0657   -1.7836   -2.7029 H   0  0  0  0  0  0  0  0  0  0  0  0
   -0.6939   -3.1445   -1.1698 H   0  0  0  0  0  0  0  0  0  0  0  0
    1.5280   -2.5034   -3.0421 H   0  0  0  0  0  0  0  0  0  0  0  0
    1.8384   -2.9879   -1.3229 H   0  0  0  0  0  0  0  0  0  0  0  0
    1.0964   -5.0844   -1.7115 H   0  0  0  0  0  0  0  0  0  0  0  0
    1.4734   -4.7200   -3.3928 H   0  0  0  0  0  0  0  0  0  0  0  0
   -0.6075   -5.4282   -3.7341 H   0  0  0  0  0  0  0  0  0  0  0  0
    0.6743   -1.6941    0.0768 H   0  0  0  0  0  0  0  0  0  0  0  0
   -3.6012    2.0907    1.3531 H   0  0  0  0  0  0  0  0  0  0  0  0
   -4.2815    4.1653    0.8912 H   0  0  0  0  0  0  0  0  0  0  0  0
   -2.9352    3.8870   -0.2622 H   0  0  0  0  0  0  0  0  0  0  0  0
   -5.0263    3.1550   -1.8986 H   0  0  0  0  0  0  0  0  0  0  0  0
   -4.6925    4.8876   -1.5587 H   0  0  0  0  0  0  0  0  0  0  0  0
   -6.4336    5.1213    0.0119 H   0  0  0  0  0  0  0  0  0  0  0  0
   -7.0872    3.8585   -1.1591 H   0  0  0  0  0  0  0  0  0  0  0  0
   -6.0453    3.6262    1.7292 H   0  0  0  0  0  0  0  0  0  0  0  0
   -7.4108    2.8538    0.9055 H   0  0  0  0  0  0  0  0  0  0  0  0
   -5.8234    1.1508    1.3164 H   0  0  0  0  0  0  0  0  0  0  0  0
   -5.9952    1.4148   -0.4261 H   0  0  0  0  0  0  0  0  0  0  0  0
    8.0590    1.1860    2.4534 H   0  0  0  0  0  0  0  0  0  0  0  0
    8.5556   -1.9249    1.4619 H   0  0  0  0  0  0  0  0  0  0  0  0
    6.0331    0.8536   -0.2365 H   0  0  0  0  0  0  0  0  0  0  0  0
    7.9174   -0.7753    3.9933 H   0  0  0  0  0  0  0  0  0  0  0  0
    5.8038   -1.4895    3.0515 H   0  0  0  0  0  0  0  0  0  0  0  0
    5.9526    0.2870    3.0349 H   0  0  0  0  0  0  0  0  0  0  0  0
    6.5642   -1.5636    0.6423 H   0  0  0  0  0  0  0  0  0  0  0  0
    4.1571   -1.6578    1.1158 H   0  0  0  0  0  0  0  0  0  0  0  0
    4.6304   -0.8656   -0.4045 H   0  0  0  0  0  0  0  0  0  0  0  0
    4.2425    1.3822    0.5643 H   0  0  0  0  0  0  0  0  0  0  0  0
    2.1208   -0.6886    1.2559 H   0  0  0  0  0  0  0  0  0  0  0  0
    1.6989    1.0066    1.1291 H   0  0  0  0  0  0  0  0  0  0  0  0
    2.6427    0.8438   -1.3533 H   0  0  0  0  0  0  0  0  0  0  0  0
    2.8075   -0.8678   -1.0493 H   0  0  0  0  0  0  0  0  0  0  0  0
   -2.0852   -1.0215   -0.5516 H   0  0  0  0  0  0  0  0  0  0  0  0
   -0.7890    1.4509    0.3361 H   0  0  0  0  0  0  0  0  0  0  0  0
   -2.1410    2.4816   -1.4693 H   0  0  0  0  0  0  0  0  0  0  0  0
   -4.3402    1.0801   -1.3507 H   0  0  0  0  0  0  0  0  0  0  0  0
   -3.2644    0.3936   -2.6935 H   0  0  0  0  0  0  0  0  0  0  0  0
   -0.4946    0.6112   -2.5418 H   0  0  0  0  0  0  0  0  0  0  0  0
   -0.4138    2.8620   -2.1975 H   0  0  0  0  0  0  0  0  0  0  0  0
    1.6391    1.4280   -3.4176 H   0  0  0  0  0  0  0  0  0  0  0  0
    2.4423    2.8668   -2.5452 H   0  0  0  0  0  0  0  0  0  0  0  0
    1.1440    3.0892   -3.7047 H   0  0  0  0  0  0  0  0  0  0  0  0
    2.0327    2.9578   -0.4781 H   0  0  0  0  0  0  0  0  0  0  0  0
    0.8684    4.2174   -0.8636 H   0  0  0  0  0  0  0  0  0  0  0  0
    0.3783    3.0220    0.3263 H   0  0  0  0  0  0  0  0  0  0  0  0
    3.4253   -0.0949    2.8741 H   0  0  0  0  0  0  0  0  0  0  0  0
   -1.7002    1.0356    2.0918 H   0  0  0  0  0  0  0  0  0  0  0  0
   -3.0727   -0.2104    1.8846 H   0  0  0  0  0  0  0  0  0  0  0  0
   -0.1494   -0.8686    1.7538 H   0  0  0  0  0  0  0  0  0  0  0  0
   -1.6063   -3.0279    0.7864 H   0  0  0  0  0  0  0  0  0  0  0  0
   -2.8935   -2.1648    1.6223 H   0  0  0  0  0  0  0  0  0  0  0  0
   -1.5866   -3.7970    3.1449 H   0  0  0  0  0  0  0  0  0  0  0  0
   -0.2510   -2.5189    3.0304 H   0  0  0  0  0  0  0  0  0  0  0  0
   -3.1575   -2.1028    3.8797 H   0  0  0  0  0  0  0  0  0  0  0  0
   -1.6659   -2.0845    4.8980 H   0  0  0  0  0  0  0  0  0  0  0  0
   -0.8747   -0.0630    4.0265 H   0  0  0  0  0  0  0  0  0  0  0  0
   -2.6399    0.1717    4.1713 H   0  0  0  0  0  0  0  0  0  0  0  0
   -0.7072   -3.3870   -4.6837 H   0  0  0  0  0  0  0  0  0  0  0  0
   -2.2558   -3.6408   -3.8834 H   0  0  0  0  0  0  0  0  0  0  0  0
   -0.6191   -1.4036   -3.6756 H   0  0  0  0  0  0  0  0  0  0  0  0
   -2.0657   -1.7836   -2.7029 H   0  0  0  0  0  0  0  0  0  0  0  0
   -0.6939   -3.1445   -1.1698 H   0  0  0  0  0  0  0  0  0  0  0  0
    1.5280   -2.5034   -3.0421 H   0  0  0  0  0  0  0  0  0  0  0  0
    1.8384   -2.9879   -1.3229 H   0  0  0  0  0  0  0  0  0  0  0  0
    1.0964   -5.0844   -1.7115 H   0  0  0  0  0  0  0  0  0  0  0  0
    1.4734   -4.7200   -3.3928 H   0  0  0  0  0  0  0  0  0  0  0  0
   -0.6075   -5.4282   -3.7341 H   0  0  0  0  0  0  0  0  0  0  0  0
    0.6743   -1.6941    0.0768 H   0  0  0  0  0  0  0  0  0  0  0  0
   -3.6012    2.0907    1.3531 H   0  0  0  0  0  0  0  0  0  0  0  0
   -4.2815    4.1653    0.8912 H   0  0  0  0  0  0  0  0  0  0  0  0
   -2.9352    3.8870   -0.2622 H   0  0  0  0  0  0  0  0  0  0  0  0
   -5.0263    3.1550   -1.8986 H   0  0  0  0  0  0  0  0  0  0  0  0
   -4.6925    4.8876   -1.5587 H   0  0  0  0  0  0  0  0  0  0  0  0
   -6.4336    5.1213    0.0119 H   0  0  0  0  0  0  0  0  0  0  0  0
   -7.0872    3.8585   -1.1591 H   0  0  0  0  0  0  0  0  0  0  0  0
   -6.0453    3.6262    1.7292 H   0  0  0  0  0  0  0  0  0  0  0  0
   -7.4108    2.8538    0.9055 H   0  0  0  0  0  0  0  0  0  0  0  0
   -5.8234    1.1508    1.3164 H   0  0  0  0  0  0  0  0  0  0  0  0
   -5.9952    1.4148   -0.4261 H   0  0  0  0  0  0  0  0  0  0  0  0
    8.0590    1.1860    2.4534 H   0  0  0  0  0  0  0  0  0  0  0  0
    8.5556   -1.9249    1.4619 H   0  0  0  0  0  0  0  0  0  0  0  0
    6.0331    0.8536   -0.2365 H   0  0  0  0  0  0  0  0  0  0  0  0
    7.9174   -0.7753    3.9933 H   0  0  0  0  0  0  0  0  0  0  0  0
    5.8038   -1.4895    3.0515 H   0  0  0  0  0  0  0  0  0  0  0  0
    5.9526    0.2870    3.0349 H   0  0  0  0  0  0  0  0  0  0  0  0
    6.5642   -1.5636    0.6423 H   0  0  0  0  0  0  0  0  0  0  0  0
    4.1571   -1.6578    1.1158 H   0  0  0  0  0  0  0  0  0  0  0  0
    4.6304   -0.8656   -0.4045 H   0  0  0  0  0  0  0  0  0  0  0  0
    4.2425    1.3822    0.5643 H   0  0  0  0  0  0  0  0  0  0  0  0
    2.1208   -0.6886    1.2559 H   0  0  0  0  0  0  0  0  0  0  0  0
    1.6989    1.0066    1.1291 H   0  0  0  0  0  0  0  0  0  0  0  0
    2.6427    0.8438   -1.3533 H   0  0  0  0  0  0  0  0  0  0  0  0
    2.8075   -0.8678   -1.0493 H   0  0  0  0  0  0  0  0  0  0  0  0
   -2.0852   -1.0215   -0.5516 H   0  0  0  0  0  0  0  0  0  0  0  0
   -0.7890    1.4509    0.3361 H   0  0  0  0  0  0  0  0  0  0  0  0
   -2.1410    2.4816   -1.4693 H   0  0  0  0  0  0  0  0  0  0  0  0
   -4.3402    1.0801   -1.3507 H   0  0  0  0  0  0  0  0  0  0  0  0
   -3.2644    0.3936   -2.6935 H   0  0  0  0  0  0  0  0  0  0  0  0
   -0.4946    0.6112   -2.5418 H   0  0  0  0  0  0  0  0  0  0  0  0
   -0.4138    2.8620   -2.1975 H   0  0  0  0  0  0  0  0  0  0  0  0
    1.6391    1.4280   -3.4176 H   0  0  0  0  0  0  0  0  0  0  0  0
    2.4423    2.8668   -2.5452 H   0  0  0  0  0  0  0  0  0  0  0  0
    1.1440    3.0892   -3.7047 H   0  0  0  0  0  0  0  0  0  0  0  0
    2.0327    2.9578   -0.4781 H   0  0  0  0  0  0  0  0  0  0  0  0
    0.8684    4.2174   -0.8636 H   0  0  0  0  0  0  0  0  0  0  0  0
    0.3783    3.0220    0.3263 H   0  0  0  0  0  0  0  0  0  0  0  0
    3.4253   -0.0949    2.8741 H   0  0  0  0  0  0  0  0  0  0  0  0
  1  2  1  0
  2  3  1  0
  3  4  1  0
  4  5  1  0
  1  6  1  0
  5  6  1  0
  7  8  1  0
  8  9  1  0
  9 10  1  0
 10 11  1  0
  7 12  1  0
 11 12  1  0
 12 13  1  0
  9 14  1  0
 15 16  1  0
 16 17  1  0
 17 18  1  0
 18 19  1  0
 15 20  1  0
 19 20  1  0
 21 24  1  0
 22 24  1  0
 24 25  1  0
 23 26  1  0
 25 26  1  0
 26 27  1  0
 27 28  1  0
 28 29  1  0
 29 30  1  0
 14 31  1  0
 30 31  1  0
  2 32  1  0
 14 32  1  0
 32 33  1  0
 33 34  1  0
 15 35  1  0
 34 35  1  0
 34 36  1  0
 31 37  1  0
 33 37  1  0
 37 38  1  0
 38 39  1  0
 38 40  1  0
 28 41  1  0
 42 43  1  0
 43 44  1  0
 44 45  1  0
 45 46  1  0
 42 47  1  0
 46 47  1  0
 48 49  1  0
 49 50  1  0
 50 51  1  0
 51 52  1  0
 48 53  1  0
 52 53  1  0
 53 54  1  0
 50 55  1  0
 56 57  1  0
 57 58  1  0
 58 59  1  0
 59 60  1  0
 56 61  1  0
 60 61  1  0
 62 65  1  0
 63 65  1  0
 65 66  1  0
 64 67  1  0
 66 67  1  0
 67 68  1  0
 68 69  1  0
 69 70  1  0
 70 71  1  0
 55 72  1  0
 71 72  1  0
 43 73  1  0
 55 73  1  0
 73 74  1  0
 74 75  1  0
 56 76  1  0
 75 76  1  0
 75 77  1  0
 72 78  1  0
 74 78  1  0
 78 79  1  0
 79 80  1  0
 79 81  1  0
 69 82  1  0
 83 84  1  0
 84 85  1  0
 85 86  1  0
 86 87  1  0
 83 88  1  0
 87 88  1  0
 89 90  1  0
 90 91  1  0
 91 92  1  0
 92 93  1  0
 89 94  1  0
 93 94  1  0
 94 95  1  0
 91 96  1  0
 97 98  1  0
 98 99  1  0
 99100  1  0
100101  1  0
 97102  1  0
101102  1  0
103106  1  0
104106  1  0
106107  1  0
105108  1  0
107108  1  0
108109  1  0
109110  1  0
110111  1  0
111112  1  0
 96113  1  0
112113  1  0
 84114  1  0
 96114  1  0
114115  1  0
115116  1  0
 97117  1  0
116117  1  0
116118  1  0
113119  1  0
115119  1  0
119120  1  0
120121  1  0
120122  1  0
110123  1  0
124125  1  0
125126  1  0
126127  1  0
127128  1  0
124129  1  0
128129  1  0
130131  1  0
131132  1  0
132133  1  0
133134  1  0
130135  1  0
134135  1  0
135136  1  0
132137  1  0
138139  1  0
139140  1  0
140141  1  0
141142  1  0
138143  1  0
142143  1  0
144147  1  0
145147  1  0
147148  1  0
146149  1  0
148149  1  0
149150  1  0
150151  1  0
151152  1  0
152153  1  0
137154  1  0
153154  1  0
125155  1  0
137155  1  0
155156  1  0
156157  1  0
138158  1  0
157158  1  0
157159  1  0
154160  1  0
156160  1  0
160161  1  0
161162  1  0
161163  1  0
151164  1  0
  1165  1  0
  1166  1  0
  2167  1  0
  3168  1  0
  3169  1  0
  4170  1  0
  4171  1  0
  5172  1  0
  5173  1  0
  6174  1  0
  6175  1  0
  7176  1  0
  7177  1  0
  8178  1  0
  8179  1  0
  9180  1  0
 10181  1  0
 10182  1  0
 11183  1  0
 11184  1  0
 12185  1  0
 14186  1  0
 15187  1  0
 16188  1  0
 16189  1  0
 17190  1  0
 17191  1  0
 18192  1  0
 18193  1  0
 19194  1  0
 19195  1  0
 20196  1  0
 20197  1  0
 21198  1  0
 22199  1  0
 23200  1  0
 24201  1  0
 25202  1  0
 25203  1  0
 26204  1  6
 27205  1  0
 27206  1  0
 28207  1  6
 29208  1  0
 29209  1  0
 30210  1  0
 30211  1  0
 32212  1  0
 33213  1  0
 34214  1  0
 35215  1  0
 36216  1  0
 37217  1  0
 38218  1  0
 39219  1  0
 39220  1  0
 39221  1  0
 40222  1  0
 40223  1  0
 40224  1  0
 41225  1  0
 42226  1  0
 42227  1  0
 43228  1  0
 44229  1  0
 44230  1  0
 45231  1  0
 45232  1  0
 46233  1  0
 46234  1  0
 47235  1  0
 47236  1  0
 48237  1  0
 48238  1  0
 49239  1  0
 49240  1  0
 50241  1  0
 51242  1  0
 51243  1  0
 52244  1  0
 52245  1  0
 53246  1  0
 55247  1  0
 56248  1  0
 57249  1  0
 57250  1  0
 58251  1  0
 58252  1  0
 59253  1  0
 59254  1  0
 60255  1  0
 60256  1  0
 61257  1  0
 61258  1  0
 62259  1  0
 63260  1  0
 64261  1  0
 65262  1  0
 66263  1  0
 66264  1  0
 67265  1  6
 68266  1  0
 68267  1  0
 69268  1  6
 70269  1  0
 70270  1  0
 71271  1  0
 71272  1  0
 73273  1  0
 74274  1  0
 75275  1  0
 76276  1  0
 77277  1  0
 78278  1  0
 79279  1  0
 80280  1  0
 80281  1  0
 80282  1  0
 81283  1  0
 81284  1  0
 81285  1  0
 82286  1  0
 83287  1  0
 83288  1  0
 84289  1  0
 85290  1  0
 85291  1  0
 86292  1  0
 86293  1  0
 87294  1  0
 87295  1  0
 88296  1  0
 88297  1  0
 89298  1  0
 89299  1  0
 90300  1  0
 90301  1  0
 91302  1  0
 92303  1  0
 92304  1  0
 93305  1  0
 93306  1  0
 94307  1  0
 96308  1  0
 97309  1  0
 98310  1  0
 98311  1  0
 99312  1  0
 99313  1  0
100314  1  0
100315  1  0
101316  1  0
101317  1  0
102318  1  0
102319  1  0
103320  1  0
104321  1  0
105322  1  0
106323  1  0
107324  1  0
107325  1  0
108326  1  6
109327  1  0
109328  1  0
110329  1  6
111330  1  0
111331  1  0
112332  1  0
112333  1  0
114334  1  0
115335  1  0
116336  1  0
117337  1  0
118338  1  0
119339  1  0
120340  1  0
121341  1  0
121342  1  0
121343  1  0
122344  1  0
122345  1  0
122346  1  0
123347  1  0
124348  1  0
124349  1  0
125350  1  0
126351  1  0
126352  1  0
127353  1  0
127354  1  0
128355  1  0
128356  1  0
129357  1  0
129358  1  0
130359  1  0
130360  1  0
131361  1  0
131362  1  0
132363  1  0
133364  1  0
133365  1  0
134366  1  0
134367  1  0
135368  1  0
137369  1  0
138370  1  0
139371  1  0
139372  1  0
140373  1  0
140374  1  0
141375  1  0
141376  1  0
142377  1  0
142378  1  0
143379  1  0
143380  1  0
144381  1  0
145382  1  0
146383  1  0
147384  1  0
148385  1  0
148386  1  0
149387  1  6
150388  1  0
150389  1  0
151390  1  6
152391  1  0
152392  1  0
153393  1  0
153394  1  0
155395  1  0
156396  1  0
157397  1  0
158398  1  0
159399  1  0
160400  1  0
161401  1  0
162402  1  0
162403  1  0
162404  1  0
163405  1  0
163406  1  0
163407  1  0
164408  1  0
M  END
>  <PDBID>  (1) 
1HWK

>  <PDB ID>  (1) 
1HWK

>  <Generic Name>  (1) 
Atorvastatin

>  <Brand Name>  (1) 
Ach-atorvastatin Calcium#Act Atorvastatin#Amlodipine Besylate and Atorvastatin Calcium#Amlodipine Besylate/atorvastatin Calcium#Apo-amlodipine-atorvastatin#Apo-atorvastatin#Atorvastatin#Atorvastatin Calcium#Atorvastatin-10#Atorvastatin-20#Atorvastatin-40#Atorvastatin-80#Auro-atorvastatin#Ava-atorvastatin#Caduet#Dom-atorvastatin#Gd-amlodipine/atorvastatin#Gd-atorvastatin#Jamp-atorvastatin#Lipitor#Liptruzet#Mar-atorvastatin#Mylan-amlodipine/atorvastatin#Mylan-atorvastatin#Novo-atorvastatin#Ntp-atorvastatin#PMS-amlodipine-atorvastatin#PMS-atorvastatin#Pendo-amlodipine-atorvastatin#Q-gen Atorvastatin#Ran-atorvastatin#Ratio-atorvastatin#Rbx-atorvastatin#Reddy-atorvastatin#Riva-atorvastatin#Sandoz Atorvastatin#Atogal#Cardyl#Faboxim#Hipolixan#Lipotropic#Liprimar#Lowden#Normalip#Sincol#Sortis#Torvacard#Torvast#Totalip#Tulip#Vastina#Xanator#Xarator#Zurinel

>  <DrugBank ID>  (1) 
DB01076

>  <ATC Codes>  (1) 
C10AA05#C10BA05#C10BX06#C10BX11#C10BX03#C10BX08

>  <Ligand ID>  (1) 
117

>  <Target Name>  (1) 
3-hydroxy-3-methylglutaryl-coenzyme A reductase

>  <UniProt ID>  (1) 
P04035

>  <PDB ID.1>  (1) 
1HWK

>  <Seq. Identity>  (1) 
97%

$$$$
