PDB_DB00939_02
     RDKit          3D

 88 90  0  0  0  0  0  0  0  0999 V2000
   -3.8521   -1.6561    1.6671 O   0  0  0  0  0  0  0  0  0  0  0  0
   -2.7261   -0.7968    1.5972 C   0  0  0  0  0  0  0  0  0  0  0  0
   -3.1283    0.4234    2.0765 O   0  0  0  0  0  0  0  0  0  0  0  0
   -2.3136   -0.8020    0.1464 C   0  0  0  0  0  0  0  0  0  0  0  0
   -3.5026   -0.2908   -0.6294 C   0  0  0  0  0  0  0  0  0  0  0  0
   -3.1046    0.2517   -1.9826 C   0  0  0  0  0  0  0  0  0  0  0  0
   -2.2300    1.4463   -1.7991 C   0  0  0  0  0  0  0  0  0  0  0  0
   -1.6099    1.4759   -0.3855 C   0  0  0  0  0  0  0  0  0  0  0  0
   -1.0856    0.0921   -0.1015 C   0  0  0  0  0  0  0  0  0  0  0  0
   -0.1220   -0.0259    0.9175 N   0  0  0  0  0  0  0  0  0  0  0  0
    1.2538    0.1191    0.5931 C   0  0  0  0  0  0  0  0  0  0  0  0
    1.7706   -0.8805   -0.4015 C   0  0  0  0  0  0  0  0  0  0  0  0
    1.3624   -2.5067    0.2086 Cl  0  0  0  0  0  0  0  0  0  0  0  0
    3.2707   -0.7153   -0.5460 C   0  0  0  0  0  0  0  0  0  0  0  0
    3.9745   -2.0457   -0.5850 C   0  0  0  0  0  0  0  0  0  0  0  0
    3.8497    0.1430    0.5388 C   0  0  0  0  0  0  0  0  0  0  0  0
    3.2546    1.5036    0.5885 C   0  0  0  0  0  0  0  0  0  0  0  0
    1.7426    1.5251    0.3816 C   0  0  0  0  0  0  0  0  0  0  0  0
    1.1085    2.4965    1.7607 Cl  0  0  0  0  0  0  0  0  0  0  0  0
   -3.9608    0.5349   -0.0467 H   0  0  0  0  0  0  0  0  0  0  0  0
   -4.0542    0.5983   -2.4726 H   0  0  0  0  0  0  0  0  0  0  0  0
   -1.4026    1.4286   -2.5668 H   0  0  0  0  0  0  0  0  0  0  0  0
   -2.4023    1.8010    0.3141 H   0  0  0  0  0  0  0  0  0  0  0  0
   -0.2213   -0.9860    1.3626 H   0  0  0  0  0  0  0  0  0  0  0  0
    3.2304   -2.8867   -0.6991 H   0  0  0  0  0  0  0  0  0  0  0  0
    4.6512   -2.1621   -1.4620 H   0  0  0  0  0  0  0  0  0  0  0  0
    4.5293   -2.2175    0.3562 H   0  0  0  0  0  0  0  0  0  0  0  0
    3.8179   -0.4162    1.4911 H   0  0  0  0  0  0  0  0  0  0  0  0
    3.5651    1.9707    1.5453 H   0  0  0  0  0  0  0  0  0  0  0  0
   -3.8521   -1.6561    1.6671 O   0  0  0  0  0  0  0  0  0  0  0  0
   -2.7261   -0.7968    1.5972 C   0  0  0  0  0  0  0  0  0  0  0  0
   -3.1283    0.4234    2.0765 O   0  0  0  0  0  0  0  0  0  0  0  0
   -2.3136   -0.8020    0.1464 C   0  0  0  0  0  0  0  0  0  0  0  0
   -3.5026   -0.2908   -0.6294 C   0  0  0  0  0  0  0  0  0  0  0  0
   -3.1046    0.2517   -1.9826 C   0  0  0  0  0  0  0  0  0  0  0  0
   -2.2300    1.4463   -1.7991 C   0  0  0  0  0  0  0  0  0  0  0  0
   -1.6099    1.4759   -0.3855 C   0  0  0  0  0  0  0  0  0  0  0  0
   -1.0856    0.0921   -0.1015 C   0  0  0  0  0  0  0  0  0  0  0  0
   -0.1220   -0.0259    0.9175 N   0  0  0  0  0  0  0  0  0  0  0  0
    1.2538    0.1191    0.5931 C   0  0  0  0  0  0  0  0  0  0  0  0
    1.7706   -0.8805   -0.4015 C   0  0  0  0  0  0  0  0  0  0  0  0
    1.3624   -2.5067    0.2086 Cl  0  0  0  0  0  0  0  0  0  0  0  0
    3.2707   -0.7153   -0.5460 C   0  0  0  0  0  0  0  0  0  0  0  0
    3.9745   -2.0457   -0.5850 C   0  0  0  0  0  0  0  0  0  0  0  0
    3.8497    0.1430    0.5388 C   0  0  0  0  0  0  0  0  0  0  0  0
    3.2546    1.5036    0.5885 C   0  0  0  0  0  0  0  0  0  0  0  0
    1.7426    1.5251    0.3816 C   0  0  0  0  0  0  0  0  0  0  0  0
    1.1085    2.4965    1.7607 Cl  0  0  0  0  0  0  0  0  0  0  0  0
   -3.9608    0.5349   -0.0467 H   0  0  0  0  0  0  0  0  0  0  0  0
   -4.0542    0.5983   -2.4726 H   0  0  0  0  0  0  0  0  0  0  0  0
   -1.4026    1.4286   -2.5668 H   0  0  0  0  0  0  0  0  0  0  0  0
   -2.4023    1.8010    0.3141 H   0  0  0  0  0  0  0  0  0  0  0  0
   -0.2213   -0.9860    1.3626 H   0  0  0  0  0  0  0  0  0  0  0  0
    3.2304   -2.8867   -0.6991 H   0  0  0  0  0  0  0  0  0  0  0  0
    4.6512   -2.1621   -1.4620 H   0  0  0  0  0  0  0  0  0  0  0  0
    4.5293   -2.2175    0.3562 H   0  0  0  0  0  0  0  0  0  0  0  0
    3.8179   -0.4162    1.4911 H   0  0  0  0  0  0  0  0  0  0  0  0
    3.5651    1.9707    1.5453 H   0  0  0  0  0  0  0  0  0  0  0  0
   -4.6828   -1.1294    1.7761 H   0  0  0  0  0  0  0  0  0  0  0  0
   -1.9866   -1.3072    2.2717 H   0  0  0  0  0  0  0  0  0  0  0  0
   -2.4824    0.8548    2.6859 H   0  0  0  0  0  0  0  0  0  0  0  0
   -2.0669   -1.8456   -0.1197 H   0  0  0  0  0  0  0  0  0  0  0  0
   -4.2532   -1.0880   -0.6964 H   0  0  0  0  0  0  0  0  0  0  0  0
   -2.6944   -0.5202   -2.6505 H   0  0  0  0  0  0  0  0  0  0  0  0
   -2.7507    2.4122   -1.9425 H   0  0  0  0  0  0  0  0  0  0  0  0
   -0.8617    2.2634   -0.4345 H   0  0  0  0  0  0  0  0  0  0  0  0
   -0.7195   -0.2878   -1.1088 H   0  0  0  0  0  0  0  0  0  0  0  0
    1.7874   -0.1828    1.5585 H   0  0  0  0  0  0  0  0  0  0  0  0
    1.3490   -0.7397   -1.4194 H   0  0  0  0  0  0  0  0  0  0  0  0
    3.5329   -0.1989   -1.5192 H   0  0  0  0  0  0  0  0  0  0  0  0
    4.9392    0.2626    0.3007 H   0  0  0  0  0  0  0  0  0  0  0  0
    3.7202    2.1201   -0.2059 H   0  0  0  0  0  0  0  0  0  0  0  0
    1.5042    1.9647   -0.5844 H   0  0  0  0  0  0  0  0  0  0  0  0
   -4.6828   -1.1294    1.7761 H   0  0  0  0  0  0  0  0  0  0  0  0
   -1.9866   -1.3072    2.2717 H   0  0  0  0  0  0  0  0  0  0  0  0
   -2.4824    0.8548    2.6859 H   0  0  0  0  0  0  0  0  0  0  0  0
   -2.0669   -1.8456   -0.1197 H   0  0  0  0  0  0  0  0  0  0  0  0
   -4.2532   -1.0880   -0.6964 H   0  0  0  0  0  0  0  0  0  0  0  0
   -2.6944   -0.5202   -2.6505 H   0  0  0  0  0  0  0  0  0  0  0  0
   -2.7507    2.4122   -1.9425 H   0  0  0  0  0  0  0  0  0  0  0  0
   -0.8617    2.2634   -0.4345 H   0  0  0  0  0  0  0  0  0  0  0  0
   -0.7195   -0.2878   -1.1088 H   0  0  0  0  0  0  0  0  0  0  0  0
    1.7874   -0.1828    1.5585 H   0  0  0  0  0  0  0  0  0  0  0  0
    1.3490   -0.7397   -1.4194 H   0  0  0  0  0  0  0  0  0  0  0  0
    3.5329   -0.1989   -1.5192 H   0  0  0  0  0  0  0  0  0  0  0  0
    4.9392    0.2626    0.3007 H   0  0  0  0  0  0  0  0  0  0  0  0
    3.7202    2.1201   -0.2059 H   0  0  0  0  0  0  0  0  0  0  0  0
    1.5042    1.9647   -0.5844 H   0  0  0  0  0  0  0  0  0  0  0  0
  1  2  1  0
  2  3  1  0
  2  4  1  0
  4  5  1  0
  5  6  1  0
  6  7  1  0
  7  8  1  0
  4  9  1  0
  8  9  1  0
  9 10  1  0
 10 11  1  0
 11 12  1  0
 12 13  1  0
 12 14  1  0
 14 15  1  0
 14 16  1  0
 16 17  1  0
 11 18  1  0
 17 18  1  0
 18 19  1  0
  5 20  1  0
  6 21  1  0
  7 22  1  0
  8 23  1  0
 10 24  1  0
 15 25  1  0
 15 26  1  0
 15 27  1  0
 16 28  1  0
 17 29  1  0
 30 31  1  0
 31 32  1  0
 31 33  1  0
 33 34  1  0
 34 35  1  0
 35 36  1  0
 36 37  1  0
 33 38  1  0
 37 38  1  0
 38 39  1  0
 39 40  1  0
 40 41  1  0
 41 42  1  0
 41 43  1  0
 43 44  1  0
 43 45  1  0
 45 46  1  0
 40 47  1  0
 46 47  1  0
 47 48  1  0
 34 49  1  0
 35 50  1  0
 36 51  1  0
 37 52  1  0
 39 53  1  0
 44 54  1  0
 44 55  1  0
 44 56  1  0
 45 57  1  0
 46 58  1  0
  1 59  1  0
  2 60  1  0
  3 61  1  0
  4 62  1  0
  5 63  1  0
  6 64  1  0
  7 65  1  0
  8 66  1  0
  9 67  1  0
 11 68  1  0
 12 69  1  0
 14 70  1  0
 16 71  1  0
 17 72  1  0
 18 73  1  0
 30 74  1  0
 31 75  1  0
 32 76  1  0
 33 77  1  0
 34 78  1  0
 35 79  1  0
 36 80  1  0
 37 81  1  0
 38 82  1  0
 40 83  1  0
 41 84  1  0
 43 85  1  0
 45 86  1  0
 46 87  1  0
 47 88  1  0
M  END
>  <PDBID>  (1) 
5IKQ

>  <PDB ID>  (1) 
5IKQ

>  <Generic Name>  (1) 
Meclofenamic acid

>  <Brand Name>  (1) 
Meclofenamate Sodium#Ethos#Eucome#Meclomen

>  <DrugBank ID>  (1) 
DB00939

>  <ATC Codes>  (1) 
M01AG04#M02AA18

>  <Ligand ID>  (1) 
JMS

>  <Target Name>  (1) 
Prostaglandin G/H synthase 1

>  <UniProt ID>  (1) 
P23219

>  <PDB ID.1>  (1) 
5IKQ

>  <Seq. Identity>  (1) 
61%

$$$$
