PDB_DB01394_02
     RDKit          3D

 70 72  0  0  0  0  0  0  0  0999 V2000
   -4.6368   -3.5989   -0.0743 O   0  0  0  0  0  0  0  0  0  0  0  0
   -3.2561   -3.4301    0.2068 C   0  0  0  0  0  0  0  0  0  0  0  0
   -3.1141   -3.8029    1.6646 C   0  0  0  0  0  0  0  0  0  0  0  0
   -2.9698   -2.0702   -0.0669 N   0  0  0  0  0  0  0  0  0  0  0  0
   -1.6166   -1.6336    0.2201 C   0  0  2  0  0  0  0  0  0  0  0  0
   -1.5373   -0.1832   -0.0942 C   0  0  0  0  0  0  0  0  0  0  0  0
   -2.5419    0.1225   -1.2180 C   0  0  0  0  0  0  0  0  0  0  0  0
   -0.5857   -2.4809   -0.4281 C   0  0  0  0  0  0  0  0  0  0  0  0
    0.6306   -2.4279    0.5103 C   0  0  0  0  0  0  0  0  0  0  0  0
    1.4938   -1.3458    0.0243 C   0  0  2  0  0  0  0  0  0  0  0  0
    2.7717   -1.3788    0.8840 C   0  0  0  0  0  0  0  0  0  0  0  0
    3.8276   -0.4540    0.3690 C   0  0  0  0  0  0  0  0  0  0  0  0
    3.2631    0.9598    0.1585 C   0  0  0  0  0  0  0  0  0  0  0  0
    2.0873    0.7739   -0.7786 C   0  0  0  0  0  0  0  0  0  0  0  0
    2.5662   -0.0658   -1.8125 O   0  0  0  0  0  0  0  0  0  0  0  0
    2.4393    0.5206   -3.0551 C   0  0  0  0  0  0  0  0  0  0  0  0
    2.7696    1.3627    1.3836 O   0  0  0  0  0  0  0  0  0  0  0  0
    3.3535    2.5010    1.8841 C   0  0  0  0  0  0  0  0  0  0  0  0
    4.8431   -0.3947    1.2933 O   0  0  0  0  0  0  0  0  0  0  0  0
    6.0677   -0.8123    0.7723 C   0  0  0  0  0  0  0  0  0  0  0  0
    1.0132    0.0372    0.0533 C   0  0  1  0  0  0  0  0  0  0  0  0
   -0.2771    0.4390   -0.4491 C   0  0  0  0  0  0  0  0  0  0  0  0
   -0.4267    1.9326   -0.0652 C   0  0  0  0  0  0  0  0  0  0  0  0
   -1.3274    2.6373   -1.0344 C   0  0  0  0  0  0  0  0  0  0  0  0
   -2.7549    2.5452   -0.5540 C   0  0  1  0  0  0  0  0  0  0  0  0
   -3.4374    1.2671   -0.8909 C   0  0  0  0  0  0  0  0  0  0  0  0
   -4.3361    1.4037   -1.9509 O   0  0  0  0  0  0  0  0  0  0  0  0
   -2.7216    2.6933    0.8361 O   0  0  0  0  0  0  0  0  0  0  0  0
   -3.3346    3.8642    1.2507 C   0  0  0  0  0  0  0  0  0  0  0  0
   -5.1202   -3.2330    0.7326 H   0  0  0  0  0  0  0  0  0  0  0  0
   -2.7621   -4.1769   -0.4449 H   0  0  0  0  0  0  0  0  0  0  0  0
   -3.4489   -4.8791    1.7387 H   0  0  0  0  0  0  0  0  0  0  0  0
   -3.7787   -3.1994    2.2843 H   0  0  0  0  0  0  0  0  0  0  0  0
   -2.0711   -3.7957    2.0131 H   0  0  0  0  0  0  0  0  0  0  0  0
   -3.6079   -1.4797    0.5091 H   0  0  0  0  0  0  0  0  0  0  0  0
   -1.5260   -1.7862    1.3404 H   0  0  0  0  0  0  0  0  0  0  0  0
   -1.9939    0.3378    0.8049 H   0  0  0  0  0  0  0  0  0  0  0  0
   -1.9847    0.4073   -2.1599 H   0  0  0  0  0  0  0  0  0  0  0  0
   -3.1470   -0.7396   -1.4856 H   0  0  0  0  0  0  0  0  0  0  0  0
   -0.8657   -3.5065   -0.6556 H   0  0  0  0  0  0  0  0  0  0  0  0
   -0.3293   -2.0063   -1.4184 H   0  0  0  0  0  0  0  0  0  0  0  0
    0.3208   -2.2476    1.5508 H   0  0  0  0  0  0  0  0  0  0  0  0
    1.1566   -3.3815    0.4578 H   0  0  0  0  0  0  0  0  0  0  0  0
    1.8625   -1.6525   -1.0003 H   0  0  0  0  0  0  0  0  0  0  0  0
    3.1888   -2.3864    0.9390 H   0  0  0  0  0  0  0  0  0  0  0  0
    2.4478   -0.9882    1.8810 H   0  0  0  0  0  0  0  0  0  0  0  0
    4.2087   -0.8268   -0.6096 H   0  0  0  0  0  0  0  0  0  0  0  0
    4.0512    1.5978   -0.2501 H   0  0  0  0  0  0  0  0  0  0  0  0
    1.7404    1.6699   -1.2613 H   0  0  0  0  0  0  0  0  0  0  0  0
    3.0074    1.4723   -3.1194 H   0  0  0  0  0  0  0  0  0  0  0  0
    1.3916    0.5988   -3.3670 H   0  0  0  0  0  0  0  0  0  0  0  0
    2.9218   -0.1921   -3.7775 H   0  0  0  0  0  0  0  0  0  0  0  0
    2.8495    2.6979    2.8755 H   0  0  0  0  0  0  0  0  0  0  0  0
    4.4114    2.3055    2.1462 H   0  0  0  0  0  0  0  0  0  0  0  0
    3.1961    3.4068    1.2888 H   0  0  0  0  0  0  0  0  0  0  0  0
    6.8658   -0.7536    1.5379 H   0  0  0  0  0  0  0  0  0  0  0  0
    6.3195   -0.1775   -0.1133 H   0  0  0  0  0  0  0  0  0  0  0  0
    5.9572   -1.8828    0.5030 H   0  0  0  0  0  0  0  0  0  0  0  0
    1.1188    0.4162    1.1156 H   0  0  0  0  0  0  0  0  0  0  0  0
   -0.1986    0.4927   -1.5803 H   0  0  0  0  0  0  0  0  0  0  0  0
    0.5162    2.4199    0.1511 H   0  0  0  0  0  0  0  0  0  0  0  0
   -0.9614    1.9044    0.9329 H   0  0  0  0  0  0  0  0  0  0  0  0
   -1.0466    3.7129   -1.0287 H   0  0  0  0  0  0  0  0  0  0  0  0
   -1.2022    2.2902   -2.0784 H   0  0  0  0  0  0  0  0  0  0  0  0
   -3.2831    3.4374   -0.9764 H   0  0  0  0  0  0  0  0  0  0  0  0
   -4.0717    0.9476   -0.0124 H   0  0  0  0  0  0  0  0  0  0  0  0
   -3.9290    1.6999   -2.7803 H   0  0  0  0  0  0  0  0  0  0  0  0
   -2.8685    4.7782    0.8368 H   0  0  0  0  0  0  0  0  0  0  0  0
   -3.1799    3.9226    2.3572 H   0  0  0  0  0  0  0  0  0  0  0  0
   -4.4081    3.7941    1.0845 H   0  0  0  0  0  0  0  0  0  0  0  0
  1  2  1  0
  2  3  1  0
  2  4  1  0
  4  5  1  0
  5  6  1  0
  6  7  1  0
  5  8  1  0
  8  9  1  0
  9 10  1  0
 10 11  1  0
 11 12  1  0
 12 13  1  0
 13 14  1  0
 14 15  1  0
 15 16  1  0
 13 17  1  0
 17 18  1  0
 12 19  1  0
 19 20  1  0
 10 21  1  0
 14 21  1  0
  6 22  1  0
 21 22  1  0
 22 23  1  0
 23 24  1  0
 24 25  1  0
  7 26  1  0
 25 26  1  0
 26 27  1  0
 25 28  1  0
 28 29  1  0
  1 30  1  0
  2 31  1  0
  3 32  1  0
  3 33  1  0
  3 34  1  0
  4 35  1  0
  5 36  1  1
  6 37  1  0
  7 38  1  0
  7 39  1  0
  8 40  1  0
  8 41  1  0
  9 42  1  0
  9 43  1  0
 10 44  1  6
 11 45  1  0
 11 46  1  0
 12 47  1  0
 13 48  1  0
 14 49  1  0
 16 50  1  0
 16 51  1  0
 16 52  1  0
 18 53  1  0
 18 54  1  0
 18 55  1  0
 20 56  1  0
 20 57  1  0
 20 58  1  0
 21 59  1  1
 22 60  1  0
 23 61  1  0
 23 62  1  0
 24 63  1  0
 24 64  1  0
 25 65  1  6
 26 66  1  0
 27 67  1  0
 29 68  1  0
 29 69  1  0
 29 70  1  0
M  END
>  <PDBID>  (1) 
5EYP

>  <PDB ID>  (1) 
5EYP

>  <Generic Name>  (1) 
Colchicine

>  <Brand Name>  (1) 
Colchicine#Colchicine Tab 0.6mg#Colchicine Tab 1mg#Colcrys#Euro-colchicine#Jamp-colchicine#Mitigare#PMS-colchicine#Probenecid and Colchicine#Verban Ont

>  <DrugBank ID>  (1) 
DB01394

>  <ATC Codes>  (1) 
M04AC01

>  <Ligand ID>  (1) 
LOC

>  <Target Name>  (1) 
Tubulin beta-1 chain

>  <UniProt ID>  (1) 
Q9H4B7

>  <PDB ID.1>  (1) 
5EYP

>  <Seq. Identity>  (1) 
78%

$$$$
