PDB_DB00476_07
     RDKit          3D

 54 56  0  0  0  0  0  0  0  0999 V2000
   -4.3930   -1.2190   -2.8494 C   0  0  0  0  0  0  0  0  0  0  0  0
   -3.0634   -1.7504   -3.0426 N   0  0  0  0  0  0  0  0  0  0  0  0
   -2.1019   -0.9678   -2.2875 C   0  0  0  0  0  0  0  0  0  0  0  0
   -2.3794   -1.2239   -0.8258 C   0  0  0  0  0  0  0  0  0  0  0  0
   -1.4782   -0.4944    0.1209 C   0  0  1  0  0  0  0  0  0  0  0  0
   -1.8997   -0.8847    1.5180 C   0  0  0  0  0  0  0  0  0  0  0  0
   -0.8998   -0.0779    2.7980 S   0  0  0  0  0  0  0  0  0  0  0  0
   -2.1942    0.9495    3.5552 C   0  0  0  0  0  0  0  0  0  0  0  0
   -3.1942    0.9554    2.4314 C   0  0  0  0  0  0  0  0  0  0  0  0
   -3.2701   -0.4559    1.8868 C   0  0  0  0  0  0  0  0  0  0  0  0
   -0.1417   -0.6460   -0.1418 O   0  0  0  0  0  0  0  0  0  0  0  0
    0.6429    0.4318   -0.3074 C   0  0  0  0  0  0  0  0  0  0  0  0
    1.9127    0.5140    0.4672 C   0  0  0  0  0  0  0  0  0  0  0  0
    2.1735   -0.6322    1.3906 C   0  0  0  0  0  0  0  0  0  0  0  0
    3.4826   -1.3044    1.1936 C   0  0  0  0  0  0  0  0  0  0  0  0
    4.6271   -0.3281    1.3551 C   0  0  0  0  0  0  0  0  0  0  0  0
    4.3020    0.9197    0.5636 C   0  0  0  0  0  0  0  0  0  0  0  0
    3.1398    0.6361   -0.4079 C   0  0  0  0  0  0  0  0  0  0  0  0
    3.1157    1.7754   -1.3726 C   0  0  0  0  0  0  0  0  0  0  0  0
    1.7737    1.9143   -1.9785 C   0  0  0  0  0  0  0  0  0  0  0  0
    1.0370    0.5817   -1.7879 C   0  0  0  0  0  0  0  0  0  0  0  0
   -4.8729   -1.6379   -1.9345 H   0  0  0  0  0  0  0  0  0  0  0  0
   -5.0281   -1.3788   -3.7569 H   0  0  0  0  0  0  0  0  0  0  0  0
   -4.2774   -0.1030   -2.7661 H   0  0  0  0  0  0  0  0  0  0  0  0
   -2.8230   -1.8157   -4.0584 H   0  0  0  0  0  0  0  0  0  0  0  0
   -2.1721    0.1061   -2.4826 H   0  0  0  0  0  0  0  0  0  0  0  0
   -1.0995   -1.3979   -2.5332 H   0  0  0  0  0  0  0  0  0  0  0  0
   -3.4434   -0.8628   -0.6939 H   0  0  0  0  0  0  0  0  0  0  0  0
   -2.4505   -2.3125   -0.6033 H   0  0  0  0  0  0  0  0  0  0  0  0
   -1.7038    0.5908    0.0629 H   0  0  0  0  0  0  0  0  0  0  0  0
   -1.7984   -1.9837    1.6101 H   0  0  0  0  0  0  0  0  0  0  0  0
   -2.5797    0.4685    4.4679 H   0  0  0  0  0  0  0  0  0  0  0  0
   -1.8438    1.9885    3.7208 H   0  0  0  0  0  0  0  0  0  0  0  0
   -4.2092    1.2064    2.7990 H   0  0  0  0  0  0  0  0  0  0  0  0
   -2.8486    1.6512    1.6396 H   0  0  0  0  0  0  0  0  0  0  0  0
   -3.7002   -1.1009    2.6995 H   0  0  0  0  0  0  0  0  0  0  0  0
   -4.0294   -0.4341    1.0948 H   0  0  0  0  0  0  0  0  0  0  0  0
    0.0331    1.3559   -0.1184 H   0  0  0  0  0  0  0  0  0  0  0  0
    1.8951    1.4440    1.0839 H   0  0  0  0  0  0  0  0  0  0  0  0
    2.0513   -0.3130    2.4694 H   0  0  0  0  0  0  0  0  0  0  0  0
    1.3709   -1.3992    1.1879 H   0  0  0  0  0  0  0  0  0  0  0  0
    3.5553   -1.9432    0.3107 H   0  0  0  0  0  0  0  0  0  0  0  0
    3.6010   -2.0194    2.0680 H   0  0  0  0  0  0  0  0  0  0  0  0
    4.7755   -0.1312    2.4248 H   0  0  0  0  0  0  0  0  0  0  0  0
    5.5231   -0.7897    0.8835 H   0  0  0  0  0  0  0  0  0  0  0  0
    5.1892    1.3031    0.0220 H   0  0  0  0  0  0  0  0  0  0  0  0
    3.9517    1.6839    1.2878 H   0  0  0  0  0  0  0  0  0  0  0  0
    3.4062   -0.3308   -0.8873 H   0  0  0  0  0  0  0  0  0  0  0  0
    3.5058    2.7226   -0.9252 H   0  0  0  0  0  0  0  0  0  0  0  0
    3.8376    1.4883   -2.1984 H   0  0  0  0  0  0  0  0  0  0  0  0
    1.8539    2.0500   -3.0680 H   0  0  0  0  0  0  0  0  0  0  0  0
    1.1725    2.7552   -1.5841 H   0  0  0  0  0  0  0  0  0  0  0  0
    0.1854    0.6353   -2.4584 H   0  0  0  0  0  0  0  0  0  0  0  0
    1.7808   -0.1891   -2.0428 H   0  0  0  0  0  0  0  0  0  0  0  0
  1  2  1  0
  2  3  1  0
  3  4  1  0
  4  5  1  0
  5  6  1  0
  6  7  1  0
  7  8  1  0
  8  9  1  0
  6 10  1  0
  9 10  1  0
  5 11  1  0
 11 12  1  0
 12 13  1  0
 13 14  1  0
 14 15  1  0
 15 16  1  0
 16 17  1  0
 13 18  1  0
 17 18  1  0
 18 19  1  0
 19 20  1  0
 12 21  1  0
 20 21  1  0
  1 22  1  0
  1 23  1  0
  1 24  1  0
  2 25  1  0
  3 26  1  0
  3 27  1  0
  4 28  1  0
  4 29  1  0
  5 30  1  1
  6 31  1  0
  8 32  1  0
  8 33  1  0
  9 34  1  0
  9 35  1  0
 10 36  1  0
 10 37  1  0
 12 38  1  0
 13 39  1  0
 14 40  1  0
 14 41  1  0
 15 42  1  0
 15 43  1  0
 16 44  1  0
 16 45  1  0
 17 46  1  0
 17 47  1  0
 18 48  1  0
 19 49  1  0
 19 50  1  0
 20 51  1  0
 20 52  1  0
 21 53  1  0
 21 54  1  0
M  END
>  <PDBID>  (1) 
4MM6

>  <PDB ID>  (1) 
4MM6

>  <Generic Name>  (1) 
Duloxetine

>  <Brand Name>  (1) 
Act Duloxetine#Apo-duloxetine#Auro-duloxetine#Cymbalta#Dom-duloxetine#Duloxetine#Duloxetine Delayed-release#Duloxetine Dr#Duloxetine Hydrochloride#Duloxetine Hydrochloride 20 mg#Duloxetine Hydrochloride 30 mg#Duloxetine Hydrochloride 60 mg#Ipg-duloxetine#Irenka#Jamp-duloxetine#Mar-duloxetine#Mint-duloxetine#Mylan-duloxetine#PMS-duloxetine#Ran-duloxetine#Riva-duloxetine#Sandoz Duloxetine#Taro-duloxetine#Teva-duloxetine Dr#Torrent-duloxetine#Ariclaim#Dulane#Duzela#Xeristar#Yentreve

>  <DrugBank ID>  (1) 
DB00476

>  <ATC Codes>  (1) 
N06AX21

>  <Ligand ID>  (1) 
29E

>  <Target Name>  (1) 
Sodium-dependent noradrenaline transporter

>  <UniProt ID>  (1) 
P23975

>  <PDB ID.1>  (1) 
4MM6

>  <Seq. Identity>  (1) 
30%

$$$$
