PDB_DB01259_00
     RDKit          3D

 94 98  0  0  0  0  0  0  0  0999 V2000
  -10.8058    3.0185    0.4074 C   0  0  0  0  0  0  0  0  0  0  0  0
   -9.4112    2.2523   -0.3737 S   0  0  0  0  0  0  0  0  0  0  0  0
   -8.5926    2.9644   -1.2372 O   0  0  0  0  0  0  0  0  0  0  0  0
   -8.5373    1.8821    1.2344 O   0  0  0  0  0  0  0  0  0  0  0  0
   -9.8967    0.6699   -0.7827 C   0  0  0  0  0  0  0  0  0  0  0  0
   -8.8123   -0.1282   -1.4691 C   0  0  0  0  0  0  0  0  0  0  0  0
   -7.6423   -0.2628   -0.6401 N   0  0  0  0  0  0  0  0  0  0  0  0
   -6.5936   -1.0132   -1.3002 C   0  0  0  0  0  0  0  0  0  0  0  0
   -5.3811   -1.1050   -0.3632 C   0  0  0  0  0  0  0  0  0  0  0  0
   -4.8831    0.2874   -0.1433 C   0  0  0  0  0  0  0  0  0  0  0  0
   -3.4238    0.1863   -0.5289 C   0  0  0  0  0  0  0  0  0  0  0  0
   -3.1687   -1.2793   -0.5357 C   0  0  0  0  0  0  0  0  0  0  0  0
   -4.3944   -1.8136   -0.9992 O   0  0  0  0  0  0  0  0  0  0  0  0
   -2.9436   -1.8542    0.8302 C   0  0  0  0  0  0  0  0  0  0  0  0
   -2.6786   -3.3081    0.7705 C   0  0  0  0  0  0  0  0  0  0  0  0
   -1.2617   -3.7447    0.9090 C   0  0  0  0  0  0  0  0  0  0  0  0
   -0.2073   -2.7326    0.5797 C   0  0  0  0  0  0  0  0  0  0  0  0
    1.0186   -3.2299    1.2006 N   0  0  0  0  0  0  0  0  0  0  0  0
    1.1261   -2.7830    2.5711 C   0  0  0  0  0  0  0  0  0  0  0  0
    1.2432   -1.3733    2.6895 N   0  0  0  0  0  0  0  0  0  0  0  0
    0.5365   -0.5868    1.7174 C   0  0  0  0  0  0  0  0  0  0  0  0
    1.3530    0.2380    0.9097 N   0  0  0  0  0  0  0  0  0  0  0  0
    2.1711   -0.3426   -0.0827 C   0  0  0  0  0  0  0  0  0  0  0  0
    2.3672    0.6752   -1.1868 C   0  0  0  0  0  0  0  0  0  0  0  0
    3.5163    1.6008   -0.9714 C   0  0  0  0  0  0  0  0  0  0  0  0
    4.8354    0.7692   -0.9185 C   0  0  0  0  0  0  0  0  0  0  0  0
    5.6338    1.3305    0.0466 O   0  0  0  0  0  0  0  0  0  0  0  0
    6.7159    2.0383   -0.3707 C   0  0  0  0  0  0  0  0  0  0  0  0
    7.8162    1.2918   -1.0658 C   0  0  0  0  0  0  0  0  0  0  0  0
    8.4200    0.2850   -0.1437 C   0  0  0  0  0  0  0  0  0  0  0  0
    9.6156    0.7271    0.6291 C   0  0  0  0  0  0  0  0  0  0  0  0
   10.5810    1.6005   -0.0940 C   0  0  0  0  0  0  0  0  0  0  0  0
    9.8530    2.7561   -0.7662 C   0  0  0  0  0  0  0  0  0  0  0  0
    9.3444    3.5932    0.1948 F   0  0  0  0  0  0  0  0  0  0  0  0
    8.7806    2.2523   -1.6876 C   0  0  0  0  0  0  0  0  0  0  0  0
    4.4839   -0.6676   -0.7889 C   0  0  0  0  0  0  0  0  0  0  0  0
    5.7932   -1.8139   -0.7166 Cl  0  0  0  0  0  0  0  0  0  0  0  0
    3.5131   -0.7898    0.3918 C   0  0  0  0  0  0  0  0  0  0  0  0
   -0.5184   -1.3358    0.9398 C   0  0  0  0  0  0  0  0  0  0  0  0
   -1.8788   -1.1864    1.6175 C   0  0  0  0  0  0  0  0  0  0  0  0
  -11.3523    2.2993    1.0461 H   0  0  0  0  0  0  0  0  0  0  0  0
  -11.4707    3.4511   -0.3675 H   0  0  0  0  0  0  0  0  0  0  0  0
  -10.4097    3.8202    1.0762 H   0  0  0  0  0  0  0  0  0  0  0  0
   -7.8675    3.6211   -1.0863 H   0  0  0  0  0  0  0  0  0  0  0  0
   -8.2866    2.8205    1.4646 H   0  0  0  0  0  0  0  0  0  0  0  0
  -10.7687    0.7164   -1.4640 H   0  0  0  0  0  0  0  0  0  0  0  0
  -10.2244    0.0812    0.0987 H   0  0  0  0  0  0  0  0  0  0  0  0
   -8.6061    0.3749   -2.4405 H   0  0  0  0  0  0  0  0  0  0  0  0
   -9.2117   -1.1345   -1.7328 H   0  0  0  0  0  0  0  0  0  0  0  0
   -7.3069    0.6638   -0.3227 H   0  0  0  0  0  0  0  0  0  0  0  0
   -6.9823   -2.0128   -1.5556 H   0  0  0  0  0  0  0  0  0  0  0  0
   -6.2963   -0.4817   -2.2108 H   0  0  0  0  0  0  0  0  0  0  0  0
   -5.7541   -1.6053    0.5546 H   0  0  0  0  0  0  0  0  0  0  0  0
   -5.3663    1.0514   -0.7830 H   0  0  0  0  0  0  0  0  0  0  0  0
   -4.9501    0.5231    0.9422 H   0  0  0  0  0  0  0  0  0  0  0  0
   -2.7723    0.7666    0.1397 H   0  0  0  0  0  0  0  0  0  0  0  0
   -3.3070    0.5451   -1.5925 H   0  0  0  0  0  0  0  0  0  0  0  0
   -2.4179   -1.5163   -1.2804 H   0  0  0  0  0  0  0  0  0  0  0  0
   -3.9087   -1.6879    1.3925 H   0  0  0  0  0  0  0  0  0  0  0  0
   -3.2972   -3.8157    1.5405 H   0  0  0  0  0  0  0  0  0  0  0  0
   -3.1212   -3.6756   -0.2043 H   0  0  0  0  0  0  0  0  0  0  0  0
   -1.0899   -4.1409    1.9422 H   0  0  0  0  0  0  0  0  0  0  0  0
   -1.1225   -4.6365    0.2451 H   0  0  0  0  0  0  0  0  0  0  0  0
   -0.0146   -2.8337   -0.5170 H   0  0  0  0  0  0  0  0  0  0  0  0
    1.0349   -4.2528    1.1794 H   0  0  0  0  0  0  0  0  0  0  0  0
    0.2722   -3.1074    3.1938 H   0  0  0  0  0  0  0  0  0  0  0  0
    2.0305   -3.2632    2.9962 H   0  0  0  0  0  0  0  0  0  0  0  0
    1.2456   -1.0049    3.6434 H   0  0  0  0  0  0  0  0  0  0  0  0
   -0.0584    0.1489    2.3579 H   0  0  0  0  0  0  0  0  0  0  0  0
    1.6287    1.1525    1.2514 H   0  0  0  0  0  0  0  0  0  0  0  0
    1.7116   -1.2189   -0.5980 H   0  0  0  0  0  0  0  0  0  0  0  0
    1.4423    1.3358   -1.1915 H   0  0  0  0  0  0  0  0  0  0  0  0
    2.3625    0.2294   -2.2044 H   0  0  0  0  0  0  0  0  0  0  0  0
    3.4328    2.2150   -0.0670 H   0  0  0  0  0  0  0  0  0  0  0  0
    3.6185    2.2776   -1.8280 H   0  0  0  0  0  0  0  0  0  0  0  0
    5.2994    0.9504   -1.9050 H   0  0  0  0  0  0  0  0  0  0  0  0
    7.1945    2.4693    0.5633 H   0  0  0  0  0  0  0  0  0  0  0  0
    6.4694    2.9052   -1.0247 H   0  0  0  0  0  0  0  0  0  0  0  0
    7.3901    0.6966   -1.9366 H   0  0  0  0  0  0  0  0  0  0  0  0
    8.7022   -0.6459   -0.7116 H   0  0  0  0  0  0  0  0  0  0  0  0
    7.6405    0.0289    0.6172 H   0  0  0  0  0  0  0  0  0  0  0  0
    9.3518    1.2094    1.6006 H   0  0  0  0  0  0  0  0  0  0  0  0
   10.1772   -0.2088    0.9256 H   0  0  0  0  0  0  0  0  0  0  0  0
   11.1744    1.0841   -0.8614 H   0  0  0  0  0  0  0  0  0  0  0  0
   11.2641    2.0543    0.6546 H   0  0  0  0  0  0  0  0  0  0  0  0
   10.6003    3.2981   -1.3657 H   0  0  0  0  0  0  0  0  0  0  0  0
    8.2047    3.1347   -2.0433 H   0  0  0  0  0  0  0  0  0  0  0  0
    9.2717    1.7836   -2.5772 H   0  0  0  0  0  0  0  0  0  0  0  0
    3.8377   -1.0061   -1.6695 H   0  0  0  0  0  0  0  0  0  0  0  0
    3.9433   -0.1650    1.2033 H   0  0  0  0  0  0  0  0  0  0  0  0
    3.5196   -1.8260    0.7902 H   0  0  0  0  0  0  0  0  0  0  0  0
   -0.6423   -0.7374   -0.0169 H   0  0  0  0  0  0  0  0  0  0  0  0
   -1.8487   -1.6864    2.6235 H   0  0  0  0  0  0  0  0  0  0  0  0
   -2.0528   -0.1131    1.8292 H   0  0  0  0  0  0  0  0  0  0  0  0
  1  2  1  0
  2  3  1  0
  2  4  1  0
  2  5  1  0
  5  6  1  0
  6  7  1  0
  7  8  1  0
  8  9  1  0
  9 10  1  0
 10 11  1  0
 11 12  1  0
  9 13  1  0
 12 13  1  0
 12 14  1  0
 14 15  1  0
 15 16  1  0
 16 17  1  0
 17 18  1  0
 18 19  1  0
 19 20  1  0
 20 21  1  0
 21 22  1  0
 22 23  1  0
 23 24  1  0
 24 25  1  0
 25 26  1  0
 26 27  1  0
 27 28  1  0
 28 29  1  0
 29 30  1  0
 30 31  1  0
 31 32  1  0
 32 33  1  0
 33 34  1  0
 29 35  1  0
 33 35  1  0
 26 36  1  0
 36 37  1  0
 23 38  1  0
 36 38  1  0
 17 39  1  0
 21 39  1  0
 14 40  1  0
 39 40  1  0
  1 41  1  0
  1 42  1  0
  1 43  1  0
  3 44  1  0
  4 45  1  0
  5 46  1  0
  5 47  1  0
  6 48  1  0
  6 49  1  0
  7 50  1  0
  8 51  1  0
  8 52  1  0
  9 53  1  0
 10 54  1  0
 10 55  1  0
 11 56  1  0
 11 57  1  0
 12 58  1  0
 14 59  1  0
 15 60  1  0
 15 61  1  0
 16 62  1  0
 16 63  1  0
 17 64  1  0
 18 65  1  0
 19 66  1  0
 19 67  1  0
 20 68  1  0
 21 69  1  0
 22 70  1  0
 23 71  1  0
 24 72  1  0
 24 73  1  0
 25 74  1  0
 25 75  1  0
 26 76  1  0
 28 77  1  0
 28 78  1  0
 29 79  1  0
 30 80  1  0
 30 81  1  0
 31 82  1  0
 31 83  1  0
 32 84  1  0
 32 85  1  0
 33 86  1  0
 35 87  1  0
 35 88  1  0
 36 89  1  0
 38 90  1  0
 38 91  1  0
 39 92  1  0
 40 93  1  0
 40 94  1  0
M  END
>  <PDBID>  (1) 
1XKK

>  <PDB ID>  (1) 
1XKK

>  <Generic Name>  (1) 
Lapatinib

>  <Brand Name>  (1) 
Tykerb#Tycerb

>  <DrugBank ID>  (1) 
DB01259

>  <ATC Codes>  (1) 
L01XE07

>  <Ligand ID>  (1) 
FMM

>  <Target Name>  (1) 
Receptor tyrosine-protein kinase erbB-2

>  <UniProt ID>  (1) 
P04626

>  <PDB ID.1>  (1) 
1XKK

>  <Seq. Identity>  (1) 
78%

$$$$
