PDB_DB00421_01
     RDKit          3D

138146  0  0  0  0  0  0  0  0999 V2000
    3.4262    1.2252   -0.6680 C   0  0  0  0  0  0  0  0  0  0  0  0
    1.6817   -1.6263    0.9088 C   0  0  0  0  0  0  0  0  0  0  0  0
    2.0938   -0.6145   -0.1108 C   0  0  1  0  0  0  0  0  0  0  0  0
   -1.9876   -1.2558   -0.0773 C   0  0  1  0  0  0  0  0  0  0  0  0
    1.2515    0.6294    0.1506 C   0  0  1  0  0  0  0  0  0  0  0  0
   -2.4658   -2.4663    0.7170 C   0  0  0  0  0  0  0  0  0  0  0  0
    0.2423   -2.0182    0.5923 C   0  0  0  0  0  0  0  0  0  0  0  0
    1.9607    1.6436   -0.6878 C   0  0  0  0  0  0  0  0  0  0  0  0
    3.4890   -0.0929    0.0552 C   0  0  2  0  0  0  0  0  0  0  0  0
    1.9811   -1.0955   -1.5300 C   0  0  0  0  0  0  0  0  0  0  0  0
   -1.9960   -1.6401   -1.5197 C   0  0  0  0  0  0  0  0  0  0  0  0
   -3.7833   -2.9024    0.1466 C   0  0  0  0  0  0  0  0  0  0  0  0
    3.9394    0.0488    1.4724 C   0  0  0  0  0  0  0  0  0  0  0  0
    5.4432   -0.1537    1.3205 C   0  0  0  0  0  0  0  0  0  0  0  0
    5.5598   -0.9577    0.0626 C   0  0  0  0  0  0  0  0  0  0  0  0
   -1.5332    4.1600    0.5824 C   0  0  0  0  0  0  0  0  0  0  0  0
   -1.0678    5.1952   -0.4288 C   0  0  0  0  0  0  0  0  0  0  0  0
   -4.7996   -1.8188    0.0242 C   0  0  0  0  0  0  0  0  0  0  0  0
   -4.2795   -0.4686   -0.3218 C   0  0  0  0  0  0  0  0  0  0  0  0
   -2.9310   -0.1424    0.2711 C   0  0  2  0  0  0  0  0  0  0  0  0
   -2.4933    1.2129   -0.1442 C   0  0  0  0  0  0  0  0  0  0  0  0
   -1.0618    1.4452   -0.4046 C   0  0  2  0  0  0  0  0  0  0  0  0
   -0.1395    0.2841   -0.3697 C   0  0  2  0  0  0  0  0  0  0  0  0
   -0.6546   -0.8421    0.4584 C   0  0  1  0  0  0  0  0  0  0  0  0
    5.9070   -2.2950    0.3123 O   0  0  0  0  0  0  0  0  0  0  0  0
    4.3463   -0.9682   -0.5782 O   0  0  0  0  0  0  0  0  0  0  0  0
   -1.7201    4.7694    1.8327 O   0  0  0  0  0  0  0  0  0  0  0  0
   -5.6771   -2.1921   -1.0078 O   0  0  0  0  0  0  0  0  0  0  0  0
   -0.4118    2.7546    0.6959 S   0  0  0  0  0  0  0  0  0  0  0  0
    3.4262    1.2252   -0.6680 C   0  0  0  0  0  0  0  0  0  0  0  0
    1.6817   -1.6263    0.9088 C   0  0  0  0  0  0  0  0  0  0  0  0
    2.0938   -0.6145   -0.1108 C   0  0  1  0  0  0  0  0  0  0  0  0
   -1.9876   -1.2558   -0.0773 C   0  0  1  0  0  0  0  0  0  0  0  0
    1.2515    0.6294    0.1506 C   0  0  1  0  0  0  0  0  0  0  0  0
   -2.4658   -2.4663    0.7170 C   0  0  0  0  0  0  0  0  0  0  0  0
    0.2423   -2.0182    0.5923 C   0  0  0  0  0  0  0  0  0  0  0  0
    1.9607    1.6436   -0.6878 C   0  0  0  0  0  0  0  0  0  0  0  0
    3.4890   -0.0929    0.0552 C   0  0  2  0  0  0  0  0  0  0  0  0
    1.9811   -1.0955   -1.5300 C   0  0  0  0  0  0  0  0  0  0  0  0
   -1.9960   -1.6401   -1.5197 C   0  0  0  0  0  0  0  0  0  0  0  0
   -3.7833   -2.9024    0.1466 C   0  0  0  0  0  0  0  0  0  0  0  0
    3.9394    0.0488    1.4724 C   0  0  0  0  0  0  0  0  0  0  0  0
    5.4432   -0.1537    1.3205 C   0  0  0  0  0  0  0  0  0  0  0  0
    5.5598   -0.9577    0.0626 C   0  0  0  0  0  0  0  0  0  0  0  0
   -1.5332    4.1600    0.5824 C   0  0  0  0  0  0  0  0  0  0  0  0
   -1.0678    5.1952   -0.4288 C   0  0  0  0  0  0  0  0  0  0  0  0
   -4.7996   -1.8188    0.0242 C   0  0  0  0  0  0  0  0  0  0  0  0
   -4.2795   -0.4686   -0.3218 C   0  0  0  0  0  0  0  0  0  0  0  0
   -2.9310   -0.1424    0.2711 C   0  0  2  0  0  0  0  0  0  0  0  0
   -2.4933    1.2129   -0.1442 C   0  0  0  0  0  0  0  0  0  0  0  0
   -1.0618    1.4452   -0.4046 C   0  0  2  0  0  0  0  0  0  0  0  0
   -0.1395    0.2841   -0.3697 C   0  0  2  0  0  0  0  0  0  0  0  0
   -0.6546   -0.8421    0.4584 C   0  0  1  0  0  0  0  0  0  0  0  0
    5.9070   -2.2950    0.3123 O   0  0  0  0  0  0  0  0  0  0  0  0
    4.3463   -0.9682   -0.5782 O   0  0  0  0  0  0  0  0  0  0  0  0
   -1.7201    4.7694    1.8327 O   0  0  0  0  0  0  0  0  0  0  0  0
   -5.6771   -2.1921   -1.0078 O   0  0  0  0  0  0  0  0  0  0  0  0
   -0.4118    2.7546    0.6959 S   0  0  0  0  0  0  0  0  0  0  0  0
    4.0744    1.9746   -0.1930 H   0  0  0  0  0  0  0  0  0  0  0  0
    3.8226    1.0632   -1.6941 H   0  0  0  0  0  0  0  0  0  0  0  0
    2.3083   -2.5263    0.9466 H   0  0  0  0  0  0  0  0  0  0  0  0
    1.6133   -1.0929    1.8910 H   0  0  0  0  0  0  0  0  0  0  0  0
    1.2629    0.8301    1.2292 H   0  0  0  0  0  0  0  0  0  0  0  0
   -2.6437   -2.1944    1.7833 H   0  0  0  0  0  0  0  0  0  0  0  0
   -1.7634   -3.3191    0.6043 H   0  0  0  0  0  0  0  0  0  0  0  0
   -0.0937   -2.5761    1.5054 H   0  0  0  0  0  0  0  0  0  0  0  0
    0.1776   -2.7551   -0.2275 H   0  0  0  0  0  0  0  0  0  0  0  0
    1.9346    2.6705   -0.2825 H   0  0  0  0  0  0  0  0  0  0  0  0
    1.5490    1.6918   -1.7070 H   0  0  0  0  0  0  0  0  0  0  0  0
    2.9045   -1.6973   -1.7299 H   0  0  0  0  0  0  0  0  0  0  0  0
    1.1403   -1.7729   -1.7195 H   0  0  0  0  0  0  0  0  0  0  0  0
    2.0082   -0.2297   -2.2069 H   0  0  0  0  0  0  0  0  0  0  0  0
   -1.4980   -2.6151   -1.6214 H   0  0  0  0  0  0  0  0  0  0  0  0
   -1.6415   -0.8655   -2.2124 H   0  0  0  0  0  0  0  0  0  0  0  0
   -3.0666   -1.8145   -1.7987 H   0  0  0  0  0  0  0  0  0  0  0  0
   -3.6327   -3.4882   -0.7961 H   0  0  0  0  0  0  0  0  0  0  0  0
   -4.1995   -3.6547    0.8656 H   0  0  0  0  0  0  0  0  0  0  0  0
    3.5973   -0.7427    2.1508 H   0  0  0  0  0  0  0  0  0  0  0  0
    3.7534    1.0737    1.8235 H   0  0  0  0  0  0  0  0  0  0  0  0
    5.9894    0.7967    1.2419 H   0  0  0  0  0  0  0  0  0  0  0  0
    5.8612   -0.7625    2.1468 H   0  0  0  0  0  0  0  0  0  0  0  0
    6.3756   -0.5290   -0.5431 H   0  0  0  0  0  0  0  0  0  0  0  0
   -2.5606    3.8721    0.2441 H   0  0  0  0  0  0  0  0  0  0  0  0
   -1.1365    4.7026   -1.4260 H   0  0  0  0  0  0  0  0  0  0  0  0
   -1.8665    5.9792   -0.4360 H   0  0  0  0  0  0  0  0  0  0  0  0
   -0.0715    5.5977   -0.2028 H   0  0  0  0  0  0  0  0  0  0  0  0
   -5.4336   -1.7706    0.9454 H   0  0  0  0  0  0  0  0  0  0  0  0
   -4.3033   -0.2423   -1.4183 H   0  0  0  0  0  0  0  0  0  0  0  0
   -4.9863    0.2785    0.1240 H   0  0  0  0  0  0  0  0  0  0  0  0
   -3.0713   -0.2072    1.3815 H   0  0  0  0  0  0  0  0  0  0  0  0
   -2.8212    1.9063    0.6743 H   0  0  0  0  0  0  0  0  0  0  0  0
   -3.1297    1.5234   -1.0136 H   0  0  0  0  0  0  0  0  0  0  0  0
   -0.9663    1.9060   -1.4234 H   0  0  0  0  0  0  0  0  0  0  0  0
    0.0493   -0.0898   -1.4084 H   0  0  0  0  0  0  0  0  0  0  0  0
   -0.8324   -0.4397    1.4882 H   0  0  0  0  0  0  0  0  0  0  0  0
    5.4548   -2.9106   -0.3333 H   0  0  0  0  0  0  0  0  0  0  0  0
   -2.2556    5.5855    1.6463 H   0  0  0  0  0  0  0  0  0  0  0  0
   -6.2229   -2.9730   -0.7802 H   0  0  0  0  0  0  0  0  0  0  0  0
    4.0744    1.9746   -0.1930 H   0  0  0  0  0  0  0  0  0  0  0  0
    3.8226    1.0632   -1.6941 H   0  0  0  0  0  0  0  0  0  0  0  0
    2.3083   -2.5263    0.9466 H   0  0  0  0  0  0  0  0  0  0  0  0
    1.6133   -1.0929    1.8910 H   0  0  0  0  0  0  0  0  0  0  0  0
    1.2629    0.8301    1.2292 H   0  0  0  0  0  0  0  0  0  0  0  0
   -2.6437   -2.1944    1.7833 H   0  0  0  0  0  0  0  0  0  0  0  0
   -1.7634   -3.3191    0.6043 H   0  0  0  0  0  0  0  0  0  0  0  0
   -0.0937   -2.5761    1.5054 H   0  0  0  0  0  0  0  0  0  0  0  0
    0.1776   -2.7551   -0.2275 H   0  0  0  0  0  0  0  0  0  0  0  0
    1.9346    2.6705   -0.2825 H   0  0  0  0  0  0  0  0  0  0  0  0
    1.5490    1.6918   -1.7070 H   0  0  0  0  0  0  0  0  0  0  0  0
    2.9045   -1.6973   -1.7299 H   0  0  0  0  0  0  0  0  0  0  0  0
    1.1403   -1.7729   -1.7195 H   0  0  0  0  0  0  0  0  0  0  0  0
    2.0082   -0.2297   -2.2069 H   0  0  0  0  0  0  0  0  0  0  0  0
   -1.4980   -2.6151   -1.6214 H   0  0  0  0  0  0  0  0  0  0  0  0
   -1.6415   -0.8655   -2.2124 H   0  0  0  0  0  0  0  0  0  0  0  0
   -3.0666   -1.8145   -1.7987 H   0  0  0  0  0  0  0  0  0  0  0  0
   -3.6327   -3.4882   -0.7961 H   0  0  0  0  0  0  0  0  0  0  0  0
   -4.1995   -3.6547    0.8656 H   0  0  0  0  0  0  0  0  0  0  0  0
    3.5973   -0.7427    2.1508 H   0  0  0  0  0  0  0  0  0  0  0  0
    3.7534    1.0737    1.8235 H   0  0  0  0  0  0  0  0  0  0  0  0
    5.9894    0.7967    1.2419 H   0  0  0  0  0  0  0  0  0  0  0  0
    5.8612   -0.7625    2.1468 H   0  0  0  0  0  0  0  0  0  0  0  0
    6.3756   -0.5290   -0.5431 H   0  0  0  0  0  0  0  0  0  0  0  0
   -2.5606    3.8721    0.2441 H   0  0  0  0  0  0  0  0  0  0  0  0
   -1.1365    4.7026   -1.4260 H   0  0  0  0  0  0  0  0  0  0  0  0
   -1.8665    5.9792   -0.4360 H   0  0  0  0  0  0  0  0  0  0  0  0
   -0.0715    5.5977   -0.2028 H   0  0  0  0  0  0  0  0  0  0  0  0
   -5.4336   -1.7706    0.9454 H   0  0  0  0  0  0  0  0  0  0  0  0
   -4.3033   -0.2423   -1.4183 H   0  0  0  0  0  0  0  0  0  0  0  0
   -4.9863    0.2785    0.1240 H   0  0  0  0  0  0  0  0  0  0  0  0
   -3.0713   -0.2072    1.3815 H   0  0  0  0  0  0  0  0  0  0  0  0
   -2.8212    1.9063    0.6743 H   0  0  0  0  0  0  0  0  0  0  0  0
   -3.1297    1.5234   -1.0136 H   0  0  0  0  0  0  0  0  0  0  0  0
   -0.9663    1.9060   -1.4234 H   0  0  0  0  0  0  0  0  0  0  0  0
    0.0493   -0.0898   -1.4084 H   0  0  0  0  0  0  0  0  0  0  0  0
   -0.8324   -0.4397    1.4882 H   0  0  0  0  0  0  0  0  0  0  0  0
    5.4548   -2.9106   -0.3333 H   0  0  0  0  0  0  0  0  0  0  0  0
   -2.2556    5.5855    1.6463 H   0  0  0  0  0  0  0  0  0  0  0  0
   -6.2229   -2.9730   -0.7802 H   0  0  0  0  0  0  0  0  0  0  0  0
  2  3  1  0
  3  5  1  0
  4  6  1  0
  2  7  1  0
  1  8  1  0
  5  8  1  0
  1  9  1  0
  3  9  1  0
  3 10  1  6
  4 11  1  6
  6 12  1  0
  9 13  1  0
 13 14  1  0
 14 15  1  0
 16 17  1  0
 12 18  1  0
 18 19  1  0
  4 20  1  0
 19 20  1  0
 20 21  1  0
 21 22  1  0
  5 23  1  0
 22 23  1  0
  4 24  1  0
  7 24  1  0
 23 24  1  0
 15 25  1  0
  9 26  1  6
 15 26  1  0
 16 27  1  0
 18 28  1  0
 16 29  1  0
 22 29  1  0
 31 32  1  0
 32 34  1  0
 33 35  1  0
 31 36  1  0
 30 37  1  0
 34 37  1  0
 30 38  1  0
 32 38  1  0
 32 39  1  6
 33 40  1  6
 35 41  1  0
 38 42  1  0
 42 43  1  0
 43 44  1  0
 45 46  1  0
 41 47  1  0
 47 48  1  0
 33 49  1  0
 48 49  1  0
 49 50  1  0
 50 51  1  0
 34 52  1  0
 51 52  1  0
 33 53  1  0
 36 53  1  0
 52 53  1  0
 44 54  1  0
 38 55  1  6
 44 55  1  0
 45 56  1  0
 47 57  1  0
 45 58  1  0
 51 58  1  0
  1 59  1  0
  1 60  1  0
  2 61  1  0
  2 62  1  0
  5 63  1  1
  6 64  1  0
  6 65  1  0
  7 66  1  0
  7 67  1  0
  8 68  1  0
  8 69  1  0
 10 70  1  0
 10 71  1  0
 10 72  1  0
 11 73  1  0
 11 74  1  0
 11 75  1  0
 12 76  1  0
 12 77  1  0
 13 78  1  0
 13 79  1  0
 14 80  1  0
 14 81  1  0
 15 82  1  0
 16 83  1  0
 17 84  1  0
 17 85  1  0
 17 86  1  0
 18 87  1  0
 19 88  1  0
 19 89  1  0
 20 90  1  1
 21 91  1  0
 21 92  1  0
 22 93  1  6
 23 94  1  6
 24 95  1  1
 25 96  1  0
 27 97  1  0
 28 98  1  0
 30 99  1  0
 30100  1  0
 31101  1  0
 31102  1  0
 34103  1  1
 35104  1  0
 35105  1  0
 36106  1  0
 36107  1  0
 37108  1  0
 37109  1  0
 39110  1  0
 39111  1  0
 39112  1  0
 40113  1  0
 40114  1  0
 40115  1  0
 41116  1  0
 41117  1  0
 42118  1  0
 42119  1  0
 43120  1  0
 43121  1  0
 44122  1  0
 45123  1  0
 46124  1  0
 46125  1  0
 46126  1  0
 47127  1  0
 48128  1  0
 48129  1  0
 49130  1  1
 50131  1  0
 50132  1  0
 51133  1  6
 52134  1  6
 53135  1  1
 54136  1  0
 56137  1  0
 57138  1  0
M  END
>  <PDBID>  (1) 
2AB2

>  <PDB ID>  (1) 
2AB2

>  <Generic Name>  (1) 
Spironolactone

>  <Brand Name>  (1) 
Aldactazide#Aldactazide 25#Aldactazide 50#Aldactone#Aldactone 100 mg#Aldactone 25 mg#Apo-spirozide Tab#Ntp-spironolactone#Spironolactone#Spironolactone and Hydrochlorothiazide#Teva-spironolactone#Teva-spironolactone/hctz#Osyrol#Spiresis#Spiretic#Spiroctan#Uractone#Verospiron#Xenalon

>  <DrugBank ID>  (1) 
DB00421

>  <ATC Codes>  (1) 
C03DA01

>  <Ligand ID>  (1) 
SNL

>  <Target Name>  (1) 
Mineralocorticoid receptor

>  <UniProt ID>  (1) 
P08235

>  <PDB ID.1>  (1) 
2AB2

>  <Seq. Identity>  (1) 
99%

$$$$
