PDB_DB00398_04
     RDKit          3D

 70 72  0  0  0  0  0  0  0  0999 V2000
    5.8869   -0.8105   -0.7827 C   0  0  0  0  0  0  0  0  0  0  0  0
    4.4860   -0.4638   -1.2102 C   0  0  2  0  0  0  0  0  0  0  0  0
    4.1797    1.0079   -1.0408 C   0  0  0  0  0  0  0  0  0  0  0  0
    5.4712    1.7473   -1.3488 C   0  0  0  0  0  0  0  0  0  0  0  0
    3.2044   -1.5474    0.5806 C   0  0  0  0  0  0  0  0  0  0  0  0
    1.2371   -0.2054    1.0199 C   0  0  0  0  0  0  0  0  0  0  0  0
    0.9650    0.2934   -0.3467 C   0  0  0  0  0  0  0  0  0  0  0  0
   -0.5243    0.3898   -0.5611 C   0  0  0  0  0  0  0  0  0  0  0  0
   -1.3254    0.0628    0.6725 C   0  0  0  0  0  0  0  0  0  0  0  0
   -0.8469    0.8010    1.8896 C   0  0  0  0  0  0  0  0  0  0  0  0
    0.6461    0.7807    2.0342 C   0  0  0  0  0  0  0  0  0  0  0  0
   -2.6776    0.3754    0.4866 O   0  0  0  0  0  0  0  0  0  0  0  0
   -4.5302   -0.3652    1.6905 C   0  0  0  0  0  0  0  0  0  0  0  0
   -5.9113   -0.8798    1.4212 C   0  0  0  0  0  0  0  0  0  0  0  0
   -5.3765    0.0608   -0.7010 C   0  0  0  0  0  0  0  0  0  0  0  0
   -4.2236   -0.9137   -0.7078 C   0  0  0  0  0  0  0  0  0  0  0  0
   -6.8659    1.4326   -1.9987 N   0  0  0  0  0  0  0  0  0  0  0  0
   -8.0045    1.0429   -1.2035 C   0  0  0  0  0  0  0  0  0  0  0  0
    6.3551    1.5762   -0.1464 C   0  0  0  0  0  0  0  0  0  0  0  0
    6.5060    0.1306    0.1800 C   0  0  0  0  0  0  0  0  0  0  0  0
    8.0147   -0.1577    0.2222 C   0  0  0  0  0  0  0  0  0  0  0  0
    8.2591   -1.4547    0.6264 F   0  0  0  0  0  0  0  0  0  0  0  0
    8.6554    0.7593    1.0345 F   0  0  0  0  0  0  0  0  0  0  0  0
    8.4735    0.0461   -1.0560 F   0  0  0  0  0  0  0  0  0  0  0  0
    7.8953    2.4166   -0.3854 Cl  0  0  0  0  0  0  0  0  0  0  0  0
    3.4863   -1.3558   -0.7724 N   0  0  0  0  0  0  0  0  0  0  0  0
    2.6112   -0.5057    1.3380 N   0  0  0  0  0  0  0  0  0  0  0  0
    4.2870   -2.1082    1.3059 O   0  0  0  0  0  0  0  0  0  0  0  0
   -3.5169   -0.7247    0.6392 C   0  0  0  0  0  0  0  0  0  0  0  0
   -6.4240   -0.5249    0.1087 N   0  0  0  0  0  0  0  0  0  0  0  0
   -5.9068    0.3705   -2.0771 C   0  0  0  0  0  0  0  0  0  0  0  0
   -6.3846   -0.7645   -2.7063 O   0  0  0  0  0  0  0  0  0  0  0  0
    6.6061   -0.8878   -1.6532 H   0  0  0  0  0  0  0  0  0  0  0  0
    5.8913   -1.8314   -0.3524 H   0  0  0  0  0  0  0  0  0  0  0  0
    4.5062   -0.5885   -2.3428 H   0  0  0  0  0  0  0  0  0  0  0  0
    3.7899    1.2787   -0.0669 H   0  0  0  0  0  0  0  0  0  0  0  0
    3.4288    1.3550   -1.8039 H   0  0  0  0  0  0  0  0  0  0  0  0
    5.1846    2.8104   -1.5227 H   0  0  0  0  0  0  0  0  0  0  0  0
    5.9502    1.2960   -2.2269 H   0  0  0  0  0  0  0  0  0  0  0  0
    2.4417   -2.3950    0.6161 H   0  0  0  0  0  0  0  0  0  0  0  0
    0.6852   -1.1686    1.1548 H   0  0  0  0  0  0  0  0  0  0  0  0
    1.3919   -0.3488   -1.1365 H   0  0  0  0  0  0  0  0  0  0  0  0
    1.3716    1.3282   -0.5136 H   0  0  0  0  0  0  0  0  0  0  0  0
   -0.8317    1.3851   -0.9442 H   0  0  0  0  0  0  0  0  0  0  0  0
   -0.8261   -0.3584   -1.3426 H   0  0  0  0  0  0  0  0  0  0  0  0
   -1.3106   -1.0367    0.9028 H   0  0  0  0  0  0  0  0  0  0  0  0
   -1.2358    1.8493    1.8231 H   0  0  0  0  0  0  0  0  0  0  0  0
   -1.2851    0.2894    2.7817 H   0  0  0  0  0  0  0  0  0  0  0  0
    1.0741    1.7852    1.8262 H   0  0  0  0  0  0  0  0  0  0  0  0
    0.9435    0.4439    3.0379 H   0  0  0  0  0  0  0  0  0  0  0  0
   -4.5993    0.7311    1.8153 H   0  0  0  0  0  0  0  0  0  0  0  0
   -4.1983   -0.8240    2.6494 H   0  0  0  0  0  0  0  0  0  0  0  0
   -6.5879   -0.3716    2.1566 H   0  0  0  0  0  0  0  0  0  0  0  0
   -6.0060   -1.9703    1.6308 H   0  0  0  0  0  0  0  0  0  0  0  0
   -5.0089    0.9790   -0.1869 H   0  0  0  0  0  0  0  0  0  0  0  0
   -4.6197   -1.9562   -0.7711 H   0  0  0  0  0  0  0  0  0  0  0  0
   -3.5169   -0.7221   -1.5167 H   0  0  0  0  0  0  0  0  0  0  0  0
   -6.4183    2.2620   -1.5900 H   0  0  0  0  0  0  0  0  0  0  0  0
   -8.8745    1.6424   -1.6052 H   0  0  0  0  0  0  0  0  0  0  0  0
   -7.8733    1.3241   -0.1358 H   0  0  0  0  0  0  0  0  0  0  0  0
   -8.3045   -0.0072   -1.3185 H   0  0  0  0  0  0  0  0  0  0  0  0
    5.8178    2.0687    0.7071 H   0  0  0  0  0  0  0  0  0  0  0  0
    6.1525   -0.1000    1.2069 H   0  0  0  0  0  0  0  0  0  0  0  0
    3.6082   -2.2738   -1.2498 H   0  0  0  0  0  0  0  0  0  0  0  0
    2.6295   -0.7810    2.3465 H   0  0  0  0  0  0  0  0  0  0  0  0
    3.9706   -2.6875    2.0258 H   0  0  0  0  0  0  0  0  0  0  0  0
   -2.9966   -1.6531    0.8751 H   0  0  0  0  0  0  0  0  0  0  0  0
   -6.6719   -1.4508   -0.3633 H   0  0  0  0  0  0  0  0  0  0  0  0
   -5.0424    0.7714   -2.6944 H   0  0  0  0  0  0  0  0  0  0  0  0
   -7.3370   -0.6987   -2.9706 H   0  0  0  0  0  0  0  0  0  0  0  0
  1  2  1  0
  2  3  1  0
  3  4  1  0
  6  7  1  0
  7  8  1  0
  8  9  1  0
  9 10  1  0
  6 11  1  0
 10 11  1  0
  9 12  1  0
 13 14  1  0
 15 16  1  0
 17 18  1  0
  4 19  1  0
  1 20  1  0
 19 20  1  0
 20 21  1  0
 21 22  1  0
 21 23  1  0
 21 24  1  0
 19 25  1  0
  2 26  1  0
  5 26  1  0
  5 27  1  0
  6 27  1  0
  5 28  1  0
 12 29  1  0
 13 29  1  0
 16 29  1  0
 14 30  1  0
 15 30  1  0
 15 31  1  0
 17 31  1  0
 31 32  1  0
  1 33  1  0
  1 34  1  0
  2 35  1  6
  3 36  1  0
  3 37  1  0
  4 38  1  0
  4 39  1  0
  5 40  1  0
  6 41  1  0
  7 42  1  0
  7 43  1  0
  8 44  1  0
  8 45  1  0
  9 46  1  0
 10 47  1  0
 10 48  1  0
 11 49  1  0
 11 50  1  0
 13 51  1  0
 13 52  1  0
 14 53  1  0
 14 54  1  0
 15 55  1  0
 16 56  1  0
 16 57  1  0
 17 58  1  0
 18 59  1  0
 18 60  1  0
 18 61  1  0
 19 62  1  0
 20 63  1  0
 26 64  1  0
 27 65  1  0
 28 66  1  0
 29 67  1  0
 30 68  1  0
 31 69  1  0
 32 70  1  0
M  END
>  <PDBID>  (1) 
3WZE

>  <PDB ID>  (1) 
3WZE

>  <Generic Name>  (1) 
Sorafenib

>  <Brand Name>  (1) 
Nexavar

>  <DrugBank ID>  (1) 
DB00398

>  <ATC Codes>  (1) 
L01XE05

>  <Ligand ID>  (1) 
BAX

>  <Target Name>  (1) 
Vascular endothelial growth factor receptor 3

>  <UniProt ID>  (1) 
P35916

>  <PDB ID.1>  (1) 
3WZE

>  <Seq. Identity>  (1) 
67%

$$$$
