PDB_DB01204_09
     RDKit          3D

152156  0  0  0  0  0  0  0  0999 V2000
   -8.0700    3.5667    0.3166 O   0  0  0  0  0  0  0  0  0  0  0  0
   -7.0556    3.2137    1.1672 C   0  0  0  0  0  0  0  0  0  0  0  0
   -6.2862    1.9690    0.7157 C   0  0  0  0  0  0  0  0  0  0  0  0
   -5.7035    2.1824   -0.5587 N   0  0  0  0  0  0  0  0  0  0  0  0
   -4.8146    1.1385   -0.9477 C   0  0  0  0  0  0  0  0  0  0  0  0
   -3.5445    1.1924   -0.0712 C   0  0  0  0  0  0  0  0  0  0  0  0
   -2.5730    0.1990   -0.4674 N   0  0  0  0  0  0  0  0  0  0  0  0
   -1.2842    0.3642    0.2394 C   0  0  0  0  0  0  0  0  0  0  0  0
   -0.7166    1.6402   -0.2163 C   0  0  0  0  0  0  0  0  0  0  0  0
    0.7122    1.7871    0.3717 C   0  0  0  0  0  0  0  0  0  0  0  0
   -0.4288   -0.8454    0.1455 C   0  0  0  0  0  0  0  0  0  0  0  0
   -1.0132   -1.7683   -0.8838 C   0  0  0  0  0  0  0  0  0  0  0  0
   -2.2504   -2.1971   -0.3756 O   0  0  0  0  0  0  0  0  0  0  0  0
   -0.2101   -2.9889   -1.2242 C   0  0  0  0  0  0  0  0  0  0  0  0
   -0.9559   -4.2728   -0.8651 C   0  0  0  0  0  0  0  0  0  0  0  0
   -0.8578   -5.2244   -1.8751 O   0  0  0  0  0  0  0  0  0  0  0  0
   -0.5258   -4.8864    0.4089 C   0  0  0  0  0  0  0  0  0  0  0  0
    0.9477   -5.1202    0.3836 C   0  0  0  0  0  0  0  0  0  0  0  0
    1.6331   -3.7926    0.3249 C   0  0  0  0  0  0  0  0  0  0  0  0
    1.5176   -3.1868    1.5506 O   0  0  0  0  0  0  0  0  0  0  0  0
    1.2201   -2.9899   -0.8607 C   0  0  0  0  0  0  0  0  0  0  0  0
    1.7539   -1.5782   -0.8458 C   0  0  0  0  0  0  0  0  0  0  0  0
    1.8211   -1.1150   -2.1569 O   0  0  0  0  0  0  0  0  0  0  0  0
    1.0208   -0.6599    0.0873 C   0  0  0  0  0  0  0  0  0  0  0  0
    1.4996    0.7545   -0.3185 C   0  0  0  0  0  0  0  0  0  0  0  0
    2.8801    0.7376   -0.3240 N   0  0  0  0  0  0  0  0  0  0  0  0
    3.7537    1.6598   -0.8525 C   0  0  0  0  0  0  0  0  0  0  0  0
    3.9122    2.9359   -0.0864 C   0  0  0  0  0  0  0  0  0  0  0  0
    4.3816    2.6862    1.2441 N   0  0  0  0  0  0  0  0  0  0  0  0
    5.7243    2.2673    1.3260 C   0  0  0  0  0  0  0  0  0  0  0  0
    6.6613    3.4203    0.9764 C   0  0  0  0  0  0  0  0  0  0  0  0
    6.4906    4.4946    1.8451 O   0  0  0  0  0  0  0  0  0  0  0  0
   -8.0700    3.5667    0.3166 O   0  0  0  0  0  0  0  0  0  0  0  0
   -7.0556    3.2137    1.1672 C   0  0  0  0  0  0  0  0  0  0  0  0
   -6.2862    1.9690    0.7157 C   0  0  0  0  0  0  0  0  0  0  0  0
   -5.7035    2.1824   -0.5587 N   0  0  0  0  0  0  0  0  0  0  0  0
   -4.8146    1.1385   -0.9477 C   0  0  0  0  0  0  0  0  0  0  0  0
   -3.5445    1.1924   -0.0712 C   0  0  0  0  0  0  0  0  0  0  0  0
   -2.5730    0.1990   -0.4674 N   0  0  0  0  0  0  0  0  0  0  0  0
   -1.2842    0.3642    0.2394 C   0  0  0  0  0  0  0  0  0  0  0  0
   -0.7166    1.6402   -0.2163 C   0  0  0  0  0  0  0  0  0  0  0  0
    0.7122    1.7871    0.3717 C   0  0  0  0  0  0  0  0  0  0  0  0
   -0.4288   -0.8454    0.1455 C   0  0  0  0  0  0  0  0  0  0  0  0
   -1.0132   -1.7683   -0.8838 C   0  0  0  0  0  0  0  0  0  0  0  0
   -2.2504   -2.1971   -0.3756 O   0  0  0  0  0  0  0  0  0  0  0  0
   -0.2101   -2.9889   -1.2242 C   0  0  0  0  0  0  0  0  0  0  0  0
   -0.9559   -4.2728   -0.8651 C   0  0  0  0  0  0  0  0  0  0  0  0
   -0.8578   -5.2244   -1.8751 O   0  0  0  0  0  0  0  0  0  0  0  0
   -0.5258   -4.8864    0.4089 C   0  0  0  0  0  0  0  0  0  0  0  0
    0.9477   -5.1202    0.3836 C   0  0  0  0  0  0  0  0  0  0  0  0
    1.6331   -3.7926    0.3249 C   0  0  0  0  0  0  0  0  0  0  0  0
    1.5176   -3.1868    1.5506 O   0  0  0  0  0  0  0  0  0  0  0  0
    1.2201   -2.9899   -0.8607 C   0  0  0  0  0  0  0  0  0  0  0  0
    1.7539   -1.5782   -0.8458 C   0  0  0  0  0  0  0  0  0  0  0  0
    1.8211   -1.1150   -2.1569 O   0  0  0  0  0  0  0  0  0  0  0  0
    1.0208   -0.6599    0.0873 C   0  0  0  0  0  0  0  0  0  0  0  0
    1.4996    0.7545   -0.3185 C   0  0  0  0  0  0  0  0  0  0  0  0
    2.8801    0.7376   -0.3240 N   0  0  0  0  0  0  0  0  0  0  0  0
    3.7537    1.6598   -0.8525 C   0  0  0  0  0  0  0  0  0  0  0  0
    3.9122    2.9359   -0.0864 C   0  0  0  0  0  0  0  0  0  0  0  0
    4.3816    2.6862    1.2441 N   0  0  0  0  0  0  0  0  0  0  0  0
    5.7243    2.2673    1.3260 C   0  0  0  0  0  0  0  0  0  0  0  0
    6.6613    3.4203    0.9764 C   0  0  0  0  0  0  0  0  0  0  0  0
    6.4906    4.4946    1.8451 O   0  0  0  0  0  0  0  0  0  0  0  0
   -8.1559    2.9844   -0.4726 H   0  0  0  0  0  0  0  0  0  0  0  0
   -6.3349    4.0411    1.3568 H   0  0  0  0  0  0  0  0  0  0  0  0
   -7.4913    2.9756    2.1760 H   0  0  0  0  0  0  0  0  0  0  0  0
   -7.0660    1.1644    0.6749 H   0  0  0  0  0  0  0  0  0  0  0  0
   -5.5569    1.7298    1.4897 H   0  0  0  0  0  0  0  0  0  0  0  0
   -6.4077    2.3753   -1.2984 H   0  0  0  0  0  0  0  0  0  0  0  0
   -4.5493    1.2581   -2.0072 H   0  0  0  0  0  0  0  0  0  0  0  0
   -5.2356    0.1110   -0.8585 H   0  0  0  0  0  0  0  0  0  0  0  0
   -3.0985    2.1684   -0.0283 H   0  0  0  0  0  0  0  0  0  0  0  0
   -3.8993    0.8218    0.9553 H   0  0  0  0  0  0  0  0  0  0  0  0
   -2.4098    0.4045   -1.5111 H   0  0  0  0  0  0  0  0  0  0  0  0
   -1.6325    0.5538    1.3117 H   0  0  0  0  0  0  0  0  0  0  0  0
   -1.2519    2.4916    0.2177 H   0  0  0  0  0  0  0  0  0  0  0  0
   -0.5992    1.7286   -1.3206 H   0  0  0  0  0  0  0  0  0  0  0  0
    1.0591    2.8009    0.1192 H   0  0  0  0  0  0  0  0  0  0  0  0
    0.6819    1.6036    1.4562 H   0  0  0  0  0  0  0  0  0  0  0  0
   -0.6357   -1.4050    1.1211 H   0  0  0  0  0  0  0  0  0  0  0  0
   -1.2635   -1.1546   -1.7730 H   0  0  0  0  0  0  0  0  0  0  0  0
   -2.1414   -2.3496    0.5862 H   0  0  0  0  0  0  0  0  0  0  0  0
   -0.2527   -3.0162   -2.3686 H   0  0  0  0  0  0  0  0  0  0  0  0
   -2.0523   -4.0364   -0.7712 H   0  0  0  0  0  0  0  0  0  0  0  0
   -0.5473   -4.7136   -2.6885 H   0  0  0  0  0  0  0  0  0  0  0  0
   -1.0091   -5.8956    0.4465 H   0  0  0  0  0  0  0  0  0  0  0  0
   -0.8509   -4.3579    1.3166 H   0  0  0  0  0  0  0  0  0  0  0  0
    1.2479   -5.8038   -0.4339 H   0  0  0  0  0  0  0  0  0  0  0  0
    1.2408   -5.6263    1.3241 H   0  0  0  0  0  0  0  0  0  0  0  0
    2.7360   -4.0362    0.2121 H   0  0  0  0  0  0  0  0  0  0  0  0
    1.7151   -3.8719    2.2277 H   0  0  0  0  0  0  0  0  0  0  0  0
    1.7961   -3.4724   -1.7213 H   0  0  0  0  0  0  0  0  0  0  0  0
    2.8372   -1.6841   -0.5344 H   0  0  0  0  0  0  0  0  0  0  0  0
    0.9948   -1.1671   -2.6542 H   0  0  0  0  0  0  0  0  0  0  0  0
    1.5209   -0.7814    1.0937 H   0  0  0  0  0  0  0  0  0  0  0  0
    1.1614    0.7883   -1.4216 H   0  0  0  0  0  0  0  0  0  0  0  0
    3.3025    0.0396    0.3541 H   0  0  0  0  0  0  0  0  0  0  0  0
    3.5416    1.9148   -1.9466 H   0  0  0  0  0  0  0  0  0  0  0  0
    4.8035    1.1958   -0.9277 H   0  0  0  0  0  0  0  0  0  0  0  0
    4.7307    3.5078   -0.6663 H   0  0  0  0  0  0  0  0  0  0  0  0
    3.0099    3.5515   -0.0885 H   0  0  0  0  0  0  0  0  0  0  0  0
    4.0578    3.3496    1.9666 H   0  0  0  0  0  0  0  0  0  0  0  0
    5.9154    1.4122    0.6597 H   0  0  0  0  0  0  0  0  0  0  0  0
    5.9290    1.9501    2.3981 H   0  0  0  0  0  0  0  0  0  0  0  0
    6.5846    3.6918   -0.0831 H   0  0  0  0  0  0  0  0  0  0  0  0
    7.6906    2.9970    1.1775 H   0  0  0  0  0  0  0  0  0  0  0  0
    6.2450    4.1773    2.7611 H   0  0  0  0  0  0  0  0  0  0  0  0
   -8.1559    2.9844   -0.4726 H   0  0  0  0  0  0  0  0  0  0  0  0
   -6.3349    4.0411    1.3568 H   0  0  0  0  0  0  0  0  0  0  0  0
   -7.4913    2.9756    2.1760 H   0  0  0  0  0  0  0  0  0  0  0  0
   -7.0660    1.1644    0.6749 H   0  0  0  0  0  0  0  0  0  0  0  0
   -5.5569    1.7298    1.4897 H   0  0  0  0  0  0  0  0  0  0  0  0
   -6.4077    2.3753   -1.2984 H   0  0  0  0  0  0  0  0  0  0  0  0
   -4.5493    1.2581   -2.0072 H   0  0  0  0  0  0  0  0  0  0  0  0
   -5.2356    0.1110   -0.8585 H   0  0  0  0  0  0  0  0  0  0  0  0
   -3.0985    2.1684   -0.0283 H   0  0  0  0  0  0  0  0  0  0  0  0
   -3.8993    0.8218    0.9553 H   0  0  0  0  0  0  0  0  0  0  0  0
   -2.4098    0.4045   -1.5111 H   0  0  0  0  0  0  0  0  0  0  0  0
   -1.6325    0.5538    1.3117 H   0  0  0  0  0  0  0  0  0  0  0  0
   -1.2519    2.4916    0.2177 H   0  0  0  0  0  0  0  0  0  0  0  0
   -0.5992    1.7286   -1.3206 H   0  0  0  0  0  0  0  0  0  0  0  0
    1.0591    2.8009    0.1192 H   0  0  0  0  0  0  0  0  0  0  0  0
    0.6819    1.6036    1.4562 H   0  0  0  0  0  0  0  0  0  0  0  0
   -0.6357   -1.4050    1.1211 H   0  0  0  0  0  0  0  0  0  0  0  0
   -1.2635   -1.1546   -1.7730 H   0  0  0  0  0  0  0  0  0  0  0  0
   -2.1414   -2.3496    0.5862 H   0  0  0  0  0  0  0  0  0  0  0  0
   -0.2527   -3.0162   -2.3686 H   0  0  0  0  0  0  0  0  0  0  0  0
   -2.0523   -4.0364   -0.7712 H   0  0  0  0  0  0  0  0  0  0  0  0
   -0.5473   -4.7136   -2.6885 H   0  0  0  0  0  0  0  0  0  0  0  0
   -1.0091   -5.8956    0.4465 H   0  0  0  0  0  0  0  0  0  0  0  0
   -0.8509   -4.3579    1.3166 H   0  0  0  0  0  0  0  0  0  0  0  0
    1.2479   -5.8038   -0.4339 H   0  0  0  0  0  0  0  0  0  0  0  0
    1.2408   -5.6263    1.3241 H   0  0  0  0  0  0  0  0  0  0  0  0
    2.7360   -4.0362    0.2121 H   0  0  0  0  0  0  0  0  0  0  0  0
    1.7151   -3.8719    2.2277 H   0  0  0  0  0  0  0  0  0  0  0  0
    1.7961   -3.4724   -1.7213 H   0  0  0  0  0  0  0  0  0  0  0  0
    2.8372   -1.6841   -0.5344 H   0  0  0  0  0  0  0  0  0  0  0  0
    0.9948   -1.1671   -2.6542 H   0  0  0  0  0  0  0  0  0  0  0  0
    1.5209   -0.7814    1.0937 H   0  0  0  0  0  0  0  0  0  0  0  0
    1.1614    0.7883   -1.4216 H   0  0  0  0  0  0  0  0  0  0  0  0
    3.3025    0.0396    0.3541 H   0  0  0  0  0  0  0  0  0  0  0  0
    3.5416    1.9148   -1.9466 H   0  0  0  0  0  0  0  0  0  0  0  0
    4.8035    1.1958   -0.9277 H   0  0  0  0  0  0  0  0  0  0  0  0
    4.7307    3.5078   -0.6663 H   0  0  0  0  0  0  0  0  0  0  0  0
    3.0099    3.5515   -0.0885 H   0  0  0  0  0  0  0  0  0  0  0  0
    4.0578    3.3496    1.9666 H   0  0  0  0  0  0  0  0  0  0  0  0
    5.9154    1.4122    0.6597 H   0  0  0  0  0  0  0  0  0  0  0  0
    5.9290    1.9501    2.3981 H   0  0  0  0  0  0  0  0  0  0  0  0
    6.5846    3.6918   -0.0831 H   0  0  0  0  0  0  0  0  0  0  0  0
    7.6906    2.9970    1.1775 H   0  0  0  0  0  0  0  0  0  0  0  0
    6.2450    4.1773    2.7611 H   0  0  0  0  0  0  0  0  0  0  0  0
  1  2  1  0
  2  3  1  0
  3  4  1  0
  4  5  1  0
  5  6  1  0
  6  7  1  0
  7  8  1  0
  8  9  1  0
  9 10  1  0
  8 11  1  0
 11 12  1  0
 12 13  1  0
 12 14  1  0
 14 15  1  0
 15 16  1  0
 15 17  1  0
 17 18  1  0
 18 19  1  0
 19 20  1  0
 14 21  1  0
 19 21  1  0
 21 22  1  0
 22 23  1  0
 11 24  1  0
 22 24  1  0
 10 25  1  0
 24 25  1  0
 25 26  1  0
 26 27  1  0
 27 28  1  0
 28 29  1  0
 29 30  1  0
 30 31  1  0
 31 32  1  0
 33 34  1  0
 34 35  1  0
 35 36  1  0
 36 37  1  0
 37 38  1  0
 38 39  1  0
 39 40  1  0
 40 41  1  0
 41 42  1  0
 40 43  1  0
 43 44  1  0
 44 45  1  0
 44 46  1  0
 46 47  1  0
 47 48  1  0
 47 49  1  0
 49 50  1  0
 50 51  1  0
 51 52  1  0
 46 53  1  0
 51 53  1  0
 53 54  1  0
 54 55  1  0
 43 56  1  0
 54 56  1  0
 42 57  1  0
 56 57  1  0
 57 58  1  0
 58 59  1  0
 59 60  1  0
 60 61  1  0
 61 62  1  0
 62 63  1  0
 63 64  1  0
  1 65  1  0
  2 66  1  0
  2 67  1  0
  3 68  1  0
  3 69  1  0
  4 70  1  0
  5 71  1  0
  5 72  1  0
  6 73  1  0
  6 74  1  0
  7 75  1  0
  8 76  1  0
  9 77  1  0
  9 78  1  0
 10 79  1  0
 10 80  1  0
 11 81  1  0
 12 82  1  0
 13 83  1  0
 14 84  1  0
 15 85  1  0
 16 86  1  0
 17 87  1  0
 17 88  1  0
 18 89  1  0
 18 90  1  0
 19 91  1  0
 20 92  1  0
 21 93  1  0
 22 94  1  0
 23 95  1  0
 24 96  1  0
 25 97  1  0
 26 98  1  0
 27 99  1  0
 27100  1  0
 28101  1  0
 28102  1  0
 29103  1  0
 30104  1  0
 30105  1  0
 31106  1  0
 31107  1  0
 32108  1  0
 33109  1  0
 34110  1  0
 34111  1  0
 35112  1  0
 35113  1  0
 36114  1  0
 37115  1  0
 37116  1  0
 38117  1  0
 38118  1  0
 39119  1  0
 40120  1  0
 41121  1  0
 41122  1  0
 42123  1  0
 42124  1  0
 43125  1  0
 44126  1  0
 45127  1  0
 46128  1  0
 47129  1  0
 48130  1  0
 49131  1  0
 49132  1  0
 50133  1  0
 50134  1  0
 51135  1  0
 52136  1  0
 53137  1  0
 54138  1  0
 55139  1  0
 56140  1  0
 57141  1  0
 58142  1  0
 59143  1  0
 59144  1  0
 60145  1  0
 60146  1  0
 61147  1  0
 62148  1  0
 62149  1  0
 63150  1  0
 63151  1  0
 64152  1  0
M  END
>  <PDBID>  (1) 
4G0V

>  <PDB ID>  (1) 
4G0V

>  <Generic Name>  (1) 
Mitoxantrone

>  <Brand Name>  (1) 
Mitoxantrone#Mitoxantrone Hydrochloride#Mitoxantrone Injection#Mitoxantrone Injection USP#Novantrone#Novantrone Inj 2mg/ml

>  <DrugBank ID>  (1) 
DB01204

>  <ATC Codes>  (1) 
L01DB07

>  <Ligand ID>  (1) 
MIX

>  <Target Name>  (1) 
DNA topoisomerase 2-alpha

>  <UniProt ID>  (1) 
P11388

>  <PDB ID.1>  (1) 
4G0V

>  <Seq. Identity>  (1) 
78%

$$$$
