PDB_DB01044_09
     RDKit          3D

122128  0  0  0  0  0  0  0  0999 V2000
    5.7940   -1.1029    0.5286 C   0  0  0  0  0  0  0  0  0  0  0  0
    4.6655   -0.1282    0.2720 C   0  0  1  0  0  0  0  0  0  0  0  0
    3.3131   -0.8344    0.4176 C   0  0  0  0  0  0  0  0  0  0  0  0
    2.4004    0.0416    1.0037 N   0  0  0  0  0  0  0  0  0  0  0  0
    2.7174    0.6090    2.2682 C   0  0  0  0  0  0  0  0  0  0  0  0
    4.2184    0.7449    2.4793 C   0  0  0  0  0  0  0  0  0  0  0  0
    4.8073    0.9731    1.1895 N   0  0  0  0  0  0  0  0  0  0  0  0
    1.1612    0.3320    0.4777 C   0  0  0  0  0  0  0  0  0  0  0  0
    1.3119    0.9803   -0.8804 C   0  0  0  0  0  0  0  0  0  0  0  0
    0.0087    1.7247   -1.1353 C   0  0  0  0  0  0  0  0  0  0  0  0
   -1.1160    0.7290   -1.2211 C   0  0  0  0  0  0  0  0  0  0  0  0
   -1.1581   -0.0996    0.0392 C   0  0  0  0  0  0  0  0  0  0  0  0
    0.1339   -0.7737    0.3228 C   0  0  0  0  0  0  0  0  0  0  0  0
    0.0927   -1.5839    1.4371 O   0  0  0  0  0  0  0  0  0  0  0  0
    0.4237   -2.8824    1.3407 C   0  0  0  0  0  0  0  0  0  0  0  0
   -2.3717   -0.8437    0.1308 N   0  0  0  0  0  0  0  0  0  0  0  0
   -3.4373    0.1394    0.4379 C   0  0  0  0  0  0  0  0  0  0  0  0
   -3.1389    1.5277   -0.0228 C   0  0  0  0  0  0  0  0  0  0  0  0
   -2.4168    1.5180   -1.3414 C   0  0  0  0  0  0  0  0  0  0  0  0
   -2.1398    2.8353   -1.7453 O   0  0  0  0  0  0  0  0  0  0  0  0
   -4.5187    2.2017   -0.2563 C   0  0  0  0  0  0  0  0  0  0  0  0
   -5.2099    1.4901   -1.2132 O   0  0  0  0  0  0  0  0  0  0  0  0
   -4.3106    3.4987   -0.7244 O   0  0  0  0  0  0  0  0  0  0  0  0
   -2.7873   -1.6025   -0.9958 C   0  0  0  0  0  0  0  0  0  0  0  0
   -1.9725   -2.7245   -1.5199 C   0  0  0  0  0  0  0  0  0  0  0  0
   -3.1345   -3.0631   -0.6041 C   0  0  0  0  0  0  0  0  0  0  0  0
    1.3964   -0.0296   -1.8402 F   0  0  0  0  0  0  0  0  0  0  0  0
    6.7454   -0.5735    0.4526 H   0  0  0  0  0  0  0  0  0  0  0  0
    5.7518   -1.9855   -0.1546 H   0  0  0  0  0  0  0  0  0  0  0  0
    5.7154   -1.5133    1.5766 H   0  0  0  0  0  0  0  0  0  0  0  0
    4.8096    0.2424   -0.7706 H   0  0  0  0  0  0  0  0  0  0  0  0
    3.0054   -1.0846   -0.6055 H   0  0  0  0  0  0  0  0  0  0  0  0
    3.5428   -1.7512    1.0251 H   0  0  0  0  0  0  0  0  0  0  0  0
    2.2632    0.0542    3.1295 H   0  0  0  0  0  0  0  0  0  0  0  0
    2.2938    1.6314    2.3111 H   0  0  0  0  0  0  0  0  0  0  0  0
    4.3979    1.6508    3.0920 H   0  0  0  0  0  0  0  0  0  0  0  0
    4.6429   -0.1388    2.9955 H   0  0  0  0  0  0  0  0  0  0  0  0
    4.4155    1.8639    0.8163 H   0  0  0  0  0  0  0  0  0  0  0  0
    0.0809    2.3250   -2.0687 H   0  0  0  0  0  0  0  0  0  0  0  0
    1.4786   -2.9684    0.9452 H   0  0  0  0  0  0  0  0  0  0  0  0
   -0.2779   -3.5919    0.9178 H   0  0  0  0  0  0  0  0  0  0  0  0
    0.5774   -3.2488    2.4227 H   0  0  0  0  0  0  0  0  0  0  0  0
   -4.3623   -0.2070   -0.0637 H   0  0  0  0  0  0  0  0  0  0  0  0
   -3.5613   -1.1799   -1.6915 H   0  0  0  0  0  0  0  0  0  0  0  0
   -2.1831   -3.0941   -2.5680 H   0  0  0  0  0  0  0  0  0  0  0  0
   -0.9695   -2.9903   -1.2010 H   0  0  0  0  0  0  0  0  0  0  0  0
   -2.8253   -3.4280    0.3821 H   0  0  0  0  0  0  0  0  0  0  0  0
   -4.0651   -3.4701   -0.9966 H   0  0  0  0  0  0  0  0  0  0  0  0
    5.7940   -1.1029    0.5286 C   0  0  0  0  0  0  0  0  0  0  0  0
    4.6655   -0.1282    0.2720 C   0  0  1  0  0  0  0  0  0  0  0  0
    3.3131   -0.8344    0.4176 C   0  0  0  0  0  0  0  0  0  0  0  0
    2.4004    0.0416    1.0037 N   0  0  0  0  0  0  0  0  0  0  0  0
    2.7174    0.6090    2.2682 C   0  0  0  0  0  0  0  0  0  0  0  0
    4.2184    0.7449    2.4793 C   0  0  0  0  0  0  0  0  0  0  0  0
    4.8073    0.9731    1.1895 N   0  0  0  0  0  0  0  0  0  0  0  0
    1.1612    0.3320    0.4777 C   0  0  0  0  0  0  0  0  0  0  0  0
    1.3119    0.9803   -0.8804 C   0  0  0  0  0  0  0  0  0  0  0  0
    0.0087    1.7247   -1.1353 C   0  0  0  0  0  0  0  0  0  0  0  0
   -1.1160    0.7290   -1.2211 C   0  0  0  0  0  0  0  0  0  0  0  0
   -1.1581   -0.0996    0.0392 C   0  0  0  0  0  0  0  0  0  0  0  0
    0.1339   -0.7737    0.3228 C   0  0  0  0  0  0  0  0  0  0  0  0
    0.0927   -1.5839    1.4371 O   0  0  0  0  0  0  0  0  0  0  0  0
    0.4237   -2.8824    1.3407 C   0  0  0  0  0  0  0  0  0  0  0  0
   -2.3717   -0.8437    0.1308 N   0  0  0  0  0  0  0  0  0  0  0  0
   -3.4373    0.1394    0.4379 C   0  0  0  0  0  0  0  0  0  0  0  0
   -3.1389    1.5277   -0.0228 C   0  0  0  0  0  0  0  0  0  0  0  0
   -2.4168    1.5180   -1.3414 C   0  0  0  0  0  0  0  0  0  0  0  0
   -2.1398    2.8353   -1.7453 O   0  0  0  0  0  0  0  0  0  0  0  0
   -4.5187    2.2017   -0.2563 C   0  0  0  0  0  0  0  0  0  0  0  0
   -5.2099    1.4901   -1.2132 O   0  0  0  0  0  0  0  0  0  0  0  0
   -4.3106    3.4987   -0.7244 O   0  0  0  0  0  0  0  0  0  0  0  0
   -2.7873   -1.6025   -0.9958 C   0  0  0  0  0  0  0  0  0  0  0  0
   -1.9725   -2.7245   -1.5199 C   0  0  0  0  0  0  0  0  0  0  0  0
   -3.1345   -3.0631   -0.6041 C   0  0  0  0  0  0  0  0  0  0  0  0
    1.3964   -0.0296   -1.8402 F   0  0  0  0  0  0  0  0  0  0  0  0
    6.7454   -0.5735    0.4526 H   0  0  0  0  0  0  0  0  0  0  0  0
    5.7518   -1.9855   -0.1546 H   0  0  0  0  0  0  0  0  0  0  0  0
    5.7154   -1.5133    1.5766 H   0  0  0  0  0  0  0  0  0  0  0  0
    4.8096    0.2424   -0.7706 H   0  0  0  0  0  0  0  0  0  0  0  0
    3.0054   -1.0846   -0.6055 H   0  0  0  0  0  0  0  0  0  0  0  0
    3.5428   -1.7512    1.0251 H   0  0  0  0  0  0  0  0  0  0  0  0
    2.2632    0.0542    3.1295 H   0  0  0  0  0  0  0  0  0  0  0  0
    2.2938    1.6314    2.3111 H   0  0  0  0  0  0  0  0  0  0  0  0
    4.3979    1.6508    3.0920 H   0  0  0  0  0  0  0  0  0  0  0  0
    4.6429   -0.1388    2.9955 H   0  0  0  0  0  0  0  0  0  0  0  0
    4.4155    1.8639    0.8163 H   0  0  0  0  0  0  0  0  0  0  0  0
    0.0809    2.3250   -2.0687 H   0  0  0  0  0  0  0  0  0  0  0  0
    1.4786   -2.9684    0.9452 H   0  0  0  0  0  0  0  0  0  0  0  0
   -0.2779   -3.5919    0.9178 H   0  0  0  0  0  0  0  0  0  0  0  0
    0.5774   -3.2488    2.4227 H   0  0  0  0  0  0  0  0  0  0  0  0
   -4.3623   -0.2070   -0.0637 H   0  0  0  0  0  0  0  0  0  0  0  0
   -3.5613   -1.1799   -1.6915 H   0  0  0  0  0  0  0  0  0  0  0  0
   -2.1831   -3.0941   -2.5680 H   0  0  0  0  0  0  0  0  0  0  0  0
   -0.9695   -2.9903   -1.2010 H   0  0  0  0  0  0  0  0  0  0  0  0
   -2.8253   -3.4280    0.3821 H   0  0  0  0  0  0  0  0  0  0  0  0
   -4.0651   -3.4701   -0.9966 H   0  0  0  0  0  0  0  0  0  0  0  0
    0.6310    1.1121    1.1082 H   0  0  0  0  0  0  0  0  0  0  0  0
    2.1586    1.6734   -0.9455 H   0  0  0  0  0  0  0  0  0  0  0  0
   -0.1361    2.4021   -0.2642 H   0  0  0  0  0  0  0  0  0  0  0  0
   -0.9782    0.0977   -2.1166 H   0  0  0  0  0  0  0  0  0  0  0  0
   -1.2389    0.7021    0.8713 H   0  0  0  0  0  0  0  0  0  0  0  0
    0.4645   -1.3550   -0.5428 H   0  0  0  0  0  0  0  0  0  0  0  0
   -3.5644    0.1633    1.5504 H   0  0  0  0  0  0  0  0  0  0  0  0
   -2.5867    2.1465    0.7288 H   0  0  0  0  0  0  0  0  0  0  0  0
   -3.0725    1.0594   -2.0967 H   0  0  0  0  0  0  0  0  0  0  0  0
   -1.9854    3.3640   -0.9329 H   0  0  0  0  0  0  0  0  0  0  0  0
   -5.0941    2.2401    0.6777 H   0  0  0  0  0  0  0  0  0  0  0  0
   -5.7637    2.0741   -1.7854 H   0  0  0  0  0  0  0  0  0  0  0  0
   -5.0430    4.1005   -0.4179 H   0  0  0  0  0  0  0  0  0  0  0  0
    0.6310    1.1121    1.1082 H   0  0  0  0  0  0  0  0  0  0  0  0
    2.1586    1.6734   -0.9455 H   0  0  0  0  0  0  0  0  0  0  0  0
   -0.1361    2.4021   -0.2642 H   0  0  0  0  0  0  0  0  0  0  0  0
   -0.9782    0.0977   -2.1166 H   0  0  0  0  0  0  0  0  0  0  0  0
   -1.2389    0.7021    0.8713 H   0  0  0  0  0  0  0  0  0  0  0  0
    0.4645   -1.3550   -0.5428 H   0  0  0  0  0  0  0  0  0  0  0  0
   -3.5644    0.1633    1.5504 H   0  0  0  0  0  0  0  0  0  0  0  0
   -2.5867    2.1465    0.7288 H   0  0  0  0  0  0  0  0  0  0  0  0
   -3.0725    1.0594   -2.0967 H   0  0  0  0  0  0  0  0  0  0  0  0
   -1.9854    3.3640   -0.9329 H   0  0  0  0  0  0  0  0  0  0  0  0
   -5.0941    2.2401    0.6777 H   0  0  0  0  0  0  0  0  0  0  0  0
   -5.7637    2.0741   -1.7854 H   0  0  0  0  0  0  0  0  0  0  0  0
   -5.0430    4.1005   -0.4179 H   0  0  0  0  0  0  0  0  0  0  0  0
  1  2  1  0
  2  3  1  0
  3  4  1  0
  4  5  1  0
  5  6  1  0
  2  7  1  0
  6  7  1  0
  4  8  1  0
  8  9  1  0
  9 10  1  0
 10 11  1  0
 11 12  1  0
  8 13  1  0
 12 13  1  0
 13 14  1  0
 14 15  1  0
 12 16  1  0
 16 17  1  0
 17 18  1  0
 11 19  1  0
 18 19  1  0
 19 20  1  0
 18 21  1  0
 21 22  1  0
 21 23  1  0
 16 24  1  0
 24 25  1  0
 24 26  1  0
 25 26  1  0
  9 27  1  0
  1 28  1  0
  1 29  1  0
  1 30  1  0
  2 31  1  6
  3 32  1  0
  3 33  1  0
  5 34  1  0
  5 35  1  0
  6 36  1  0
  6 37  1  0
  7 38  1  0
 10 39  1  0
 15 40  1  0
 15 41  1  0
 15 42  1  0
 17 43  1  0
 24 44  1  0
 25 45  1  0
 25 46  1  0
 26 47  1  0
 26 48  1  0
 49 50  1  0
 50 51  1  0
 51 52  1  0
 52 53  1  0
 53 54  1  0
 50 55  1  0
 54 55  1  0
 52 56  1  0
 56 57  1  0
 57 58  1  0
 58 59  1  0
 59 60  1  0
 56 61  1  0
 60 61  1  0
 61 62  1  0
 62 63  1  0
 60 64  1  0
 64 65  1  0
 65 66  1  0
 59 67  1  0
 66 67  1  0
 67 68  1  0
 66 69  1  0
 69 70  1  0
 69 71  1  0
 64 72  1  0
 72 73  1  0
 72 74  1  0
 73 74  1  0
 57 75  1  0
 49 76  1  0
 49 77  1  0
 49 78  1  0
 50 79  1  6
 51 80  1  0
 51 81  1  0
 53 82  1  0
 53 83  1  0
 54 84  1  0
 54 85  1  0
 55 86  1  0
 58 87  1  0
 63 88  1  0
 63 89  1  0
 63 90  1  0
 65 91  1  0
 72 92  1  0
 73 93  1  0
 73 94  1  0
 74 95  1  0
 74 96  1  0
  8 97  1  0
  9 98  1  0
 10 99  1  0
 11100  1  0
 12101  1  0
 13102  1  0
 17103  1  0
 18104  1  0
 19105  1  0
 20106  1  0
 21107  1  0
 22108  1  0
 23109  1  0
 56110  1  0
 57111  1  0
 58112  1  0
 59113  1  0
 60114  1  0
 61115  1  0
 65116  1  0
 66117  1  0
 67118  1  0
 68119  1  0
 69120  1  0
 70121  1  0
 71122  1  0
M  END
>  <PDBID>  (1) 
5BTF

>  <PDB ID>  (1) 
5BTF

>  <Generic Name>  (1) 
Gatifloxacin

>  <Brand Name>  (1) 
Apo-gatifloxacin#Gatifloxacin#Tequin#Tequin IV#Zymar#Zymaxid

>  <DrugBank ID>  (1) 
DB01044

>  <ATC Codes>  (1) 
S01AE06#J01MA16

>  <Ligand ID>  (1) 
GFN

>  <Target Name>  (1) 
DNA gyrase subunit A

>  <UniProt ID>  (1) 
P72524

>  <PDB ID.1>  (1) 
5BTF

>  <Seq. Identity>  (1) 
53%

$$$$
