PDB_DB00293_09
     RDKit          3D

296304  0  0  0  0  0  0  0  0999 V2000
    6.3549    0.5673    1.5358 N   0  0  0  0  0  0  0  0  0  0  0  0
    7.1340   -0.5933    1.2387 C   0  0  0  0  0  0  0  0  0  0  0  0
    8.0573   -0.2891    0.0722 C   0  0  0  0  0  0  0  0  0  0  0  0
    6.4013   -1.7941    1.0389 N   0  0  0  0  0  0  0  0  0  0  0  0
    5.3294   -1.7166    0.0865 C   0  0  0  0  0  0  0  0  0  0  0  0
    5.8562   -2.1285   -1.1624 O   0  0  0  0  0  0  0  0  0  0  0  0
    4.7250   -0.3554    0.0162 C   0  0  0  0  0  0  0  0  0  0  0  0
    3.2896   -0.4302   -0.3665 C   0  0  0  0  0  0  0  0  0  0  0  0
    2.3114   -0.4664    0.7554 C   0  0  0  0  0  0  0  0  0  0  0  0
    2.9620   -0.7384    2.1001 C   0  0  0  0  0  0  0  0  0  0  0  0
    4.1026    0.2019    2.4046 C   0  0  0  0  0  0  0  0  0  0  0  0
    4.9736    0.5100    1.2271 C   0  0  0  0  0  0  0  0  0  0  0  0
    1.5117    0.8364    0.8627 C   0  0  0  0  0  0  0  0  0  0  0  0
    0.7741    1.1464   -0.2752 N   0  0  0  0  0  0  0  0  0  0  0  0
   -2.7662    1.3892   -1.4404 C   0  0  0  0  0  0  0  0  0  0  0  0
   -1.9070    0.9970    0.0884 S   0  0  0  0  0  0  0  0  0  0  0  0
   -0.3371    0.3867   -0.6708 C   0  0  0  0  0  0  0  0  0  0  0  0
   -0.6489    0.6318   -2.1464 C   0  0  0  0  0  0  0  0  0  0  0  0
   -2.1138    0.3512   -2.3539 C   0  0  0  0  0  0  0  0  0  0  0  0
   -4.2651    1.2175   -1.4184 C   0  0  0  0  0  0  0  0  0  0  0  0
   -4.6760    1.6187   -2.7270 O   0  0  0  0  0  0  0  0  0  0  0  0
   -4.7331   -0.0769   -1.2418 N   0  0  0  0  0  0  0  0  0  0  0  0
   -4.6640   -0.8590   -0.1200 C   0  0  1  0  0  0  0  0  0  0  0  0
   -5.5077   -0.8365    1.0575 C   0  0  0  0  0  0  0  0  0  0  0  0
   -5.7883    0.2708    1.9501 C   0  0  0  0  0  0  0  0  0  0  0  0
   -6.6430    1.3964    1.4197 C   0  0  0  0  0  0  0  0  0  0  0  0
   -6.8233    2.4128    2.3677 O   0  0  0  0  0  0  0  0  0  0  0  0
   -7.9832    0.8812    1.2286 O   0  0  0  0  0  0  0  0  0  0  0  0
   -4.7029   -2.3625   -0.6156 C   0  0  0  0  0  0  0  0  0  0  0  0
   -5.8954   -2.5260   -1.3033 O   0  0  0  0  0  0  0  0  0  0  0  0
   -4.6997   -3.1904    0.4800 O   0  0  0  0  0  0  0  0  0  0  0  0
    1.1239    2.3029   -0.9935 C   0  0  0  0  0  0  0  0  0  0  0  0
    6.3549    0.5673    1.5358 N   0  0  0  0  0  0  0  0  0  0  0  0
    7.1340   -0.5933    1.2387 C   0  0  0  0  0  0  0  0  0  0  0  0
    8.0573   -0.2891    0.0722 C   0  0  0  0  0  0  0  0  0  0  0  0
    6.4013   -1.7941    1.0389 N   0  0  0  0  0  0  0  0  0  0  0  0
    5.3294   -1.7166    0.0865 C   0  0  0  0  0  0  0  0  0  0  0  0
    5.8562   -2.1285   -1.1624 O   0  0  0  0  0  0  0  0  0  0  0  0
    4.7250   -0.3554    0.0162 C   0  0  0  0  0  0  0  0  0  0  0  0
    3.2896   -0.4302   -0.3665 C   0  0  0  0  0  0  0  0  0  0  0  0
    2.3114   -0.4664    0.7554 C   0  0  0  0  0  0  0  0  0  0  0  0
    2.9620   -0.7384    2.1001 C   0  0  0  0  0  0  0  0  0  0  0  0
    4.1026    0.2019    2.4046 C   0  0  0  0  0  0  0  0  0  0  0  0
    4.9736    0.5100    1.2271 C   0  0  0  0  0  0  0  0  0  0  0  0
    1.5117    0.8364    0.8627 C   0  0  0  0  0  0  0  0  0  0  0  0
    0.7741    1.1464   -0.2752 N   0  0  0  0  0  0  0  0  0  0  0  0
   -2.7662    1.3892   -1.4404 C   0  0  0  0  0  0  0  0  0  0  0  0
   -1.9070    0.9970    0.0884 S   0  0  0  0  0  0  0  0  0  0  0  0
   -0.3371    0.3867   -0.6708 C   0  0  0  0  0  0  0  0  0  0  0  0
   -0.6489    0.6318   -2.1464 C   0  0  0  0  0  0  0  0  0  0  0  0
   -2.1138    0.3512   -2.3539 C   0  0  0  0  0  0  0  0  0  0  0  0
   -4.2651    1.2175   -1.4184 C   0  0  0  0  0  0  0  0  0  0  0  0
   -4.6760    1.6187   -2.7270 O   0  0  0  0  0  0  0  0  0  0  0  0
   -4.7331   -0.0769   -1.2418 N   0  0  0  0  0  0  0  0  0  0  0  0
   -4.6640   -0.8590   -0.1200 C   0  0  1  0  0  0  0  0  0  0  0  0
   -5.5077   -0.8365    1.0575 C   0  0  0  0  0  0  0  0  0  0  0  0
   -5.7883    0.2708    1.9501 C   0  0  0  0  0  0  0  0  0  0  0  0
   -6.6430    1.3964    1.4197 C   0  0  0  0  0  0  0  0  0  0  0  0
   -6.8233    2.4128    2.3677 O   0  0  0  0  0  0  0  0  0  0  0  0
   -7.9832    0.8812    1.2286 O   0  0  0  0  0  0  0  0  0  0  0  0
   -4.7029   -2.3625   -0.6156 C   0  0  0  0  0  0  0  0  0  0  0  0
   -5.8954   -2.5260   -1.3033 O   0  0  0  0  0  0  0  0  0  0  0  0
   -4.6997   -3.1904    0.4800 O   0  0  0  0  0  0  0  0  0  0  0  0
    1.1239    2.3029   -0.9935 C   0  0  0  0  0  0  0  0  0  0  0  0
    6.3549    0.5673    1.5358 N   0  0  0  0  0  0  0  0  0  0  0  0
    7.1340   -0.5933    1.2387 C   0  0  0  0  0  0  0  0  0  0  0  0
    8.0573   -0.2891    0.0722 C   0  0  0  0  0  0  0  0  0  0  0  0
    6.4013   -1.7941    1.0389 N   0  0  0  0  0  0  0  0  0  0  0  0
    5.3294   -1.7166    0.0865 C   0  0  0  0  0  0  0  0  0  0  0  0
    5.8562   -2.1285   -1.1624 O   0  0  0  0  0  0  0  0  0  0  0  0
    4.7250   -0.3554    0.0162 C   0  0  0  0  0  0  0  0  0  0  0  0
    3.2896   -0.4302   -0.3665 C   0  0  0  0  0  0  0  0  0  0  0  0
    2.3114   -0.4664    0.7554 C   0  0  0  0  0  0  0  0  0  0  0  0
    2.9620   -0.7384    2.1001 C   0  0  0  0  0  0  0  0  0  0  0  0
    4.1026    0.2019    2.4046 C   0  0  0  0  0  0  0  0  0  0  0  0
    4.9736    0.5100    1.2271 C   0  0  0  0  0  0  0  0  0  0  0  0
    1.5117    0.8364    0.8627 C   0  0  0  0  0  0  0  0  0  0  0  0
    0.7741    1.1464   -0.2752 N   0  0  0  0  0  0  0  0  0  0  0  0
   -2.7662    1.3892   -1.4404 C   0  0  0  0  0  0  0  0  0  0  0  0
   -1.9070    0.9970    0.0884 S   0  0  0  0  0  0  0  0  0  0  0  0
   -0.3371    0.3867   -0.6708 C   0  0  0  0  0  0  0  0  0  0  0  0
   -0.6489    0.6318   -2.1464 C   0  0  0  0  0  0  0  0  0  0  0  0
   -2.1138    0.3512   -2.3539 C   0  0  0  0  0  0  0  0  0  0  0  0
   -4.2651    1.2175   -1.4184 C   0  0  0  0  0  0  0  0  0  0  0  0
   -4.6760    1.6187   -2.7270 O   0  0  0  0  0  0  0  0  0  0  0  0
   -4.7331   -0.0769   -1.2418 N   0  0  0  0  0  0  0  0  0  0  0  0
   -4.6640   -0.8590   -0.1200 C   0  0  1  0  0  0  0  0  0  0  0  0
   -5.5077   -0.8365    1.0575 C   0  0  0  0  0  0  0  0  0  0  0  0
   -5.7883    0.2708    1.9501 C   0  0  0  0  0  0  0  0  0  0  0  0
   -6.6430    1.3964    1.4197 C   0  0  0  0  0  0  0  0  0  0  0  0
   -6.8233    2.4128    2.3677 O   0  0  0  0  0  0  0  0  0  0  0  0
   -7.9832    0.8812    1.2286 O   0  0  0  0  0  0  0  0  0  0  0  0
   -4.7029   -2.3625   -0.6156 C   0  0  0  0  0  0  0  0  0  0  0  0
   -5.8954   -2.5260   -1.3033 O   0  0  0  0  0  0  0  0  0  0  0  0
   -4.6997   -3.1904    0.4800 O   0  0  0  0  0  0  0  0  0  0  0  0
    1.1239    2.3029   -0.9935 C   0  0  0  0  0  0  0  0  0  0  0  0
    6.3549    0.5673    1.5358 N   0  0  0  0  0  0  0  0  0  0  0  0
    7.1340   -0.5933    1.2387 C   0  0  0  0  0  0  0  0  0  0  0  0
    8.0573   -0.2891    0.0722 C   0  0  0  0  0  0  0  0  0  0  0  0
    6.4013   -1.7941    1.0389 N   0  0  0  0  0  0  0  0  0  0  0  0
    5.3294   -1.7166    0.0865 C   0  0  0  0  0  0  0  0  0  0  0  0
    5.8562   -2.1285   -1.1624 O   0  0  0  0  0  0  0  0  0  0  0  0
    4.7250   -0.3554    0.0162 C   0  0  0  0  0  0  0  0  0  0  0  0
    3.2896   -0.4302   -0.3665 C   0  0  0  0  0  0  0  0  0  0  0  0
    2.3114   -0.4664    0.7554 C   0  0  0  0  0  0  0  0  0  0  0  0
    2.9620   -0.7384    2.1001 C   0  0  0  0  0  0  0  0  0  0  0  0
    4.1026    0.2019    2.4046 C   0  0  0  0  0  0  0  0  0  0  0  0
    4.9736    0.5100    1.2271 C   0  0  0  0  0  0  0  0  0  0  0  0
    1.5117    0.8364    0.8627 C   0  0  0  0  0  0  0  0  0  0  0  0
    0.7741    1.1464   -0.2752 N   0  0  0  0  0  0  0  0  0  0  0  0
   -2.7662    1.3892   -1.4404 C   0  0  0  0  0  0  0  0  0  0  0  0
   -1.9070    0.9970    0.0884 S   0  0  0  0  0  0  0  0  0  0  0  0
   -0.3371    0.3867   -0.6708 C   0  0  0  0  0  0  0  0  0  0  0  0
   -0.6489    0.6318   -2.1464 C   0  0  0  0  0  0  0  0  0  0  0  0
   -2.1138    0.3512   -2.3539 C   0  0  0  0  0  0  0  0  0  0  0  0
   -4.2651    1.2175   -1.4184 C   0  0  0  0  0  0  0  0  0  0  0  0
   -4.6760    1.6187   -2.7270 O   0  0  0  0  0  0  0  0  0  0  0  0
   -4.7331   -0.0769   -1.2418 N   0  0  0  0  0  0  0  0  0  0  0  0
   -4.6640   -0.8590   -0.1200 C   0  0  1  0  0  0  0  0  0  0  0  0
   -5.5077   -0.8365    1.0575 C   0  0  0  0  0  0  0  0  0  0  0  0
   -5.7883    0.2708    1.9501 C   0  0  0  0  0  0  0  0  0  0  0  0
   -6.6430    1.3964    1.4197 C   0  0  0  0  0  0  0  0  0  0  0  0
   -6.8233    2.4128    2.3677 O   0  0  0  0  0  0  0  0  0  0  0  0
   -7.9832    0.8812    1.2286 O   0  0  0  0  0  0  0  0  0  0  0  0
   -4.7029   -2.3625   -0.6156 C   0  0  0  0  0  0  0  0  0  0  0  0
   -5.8954   -2.5260   -1.3033 O   0  0  0  0  0  0  0  0  0  0  0  0
   -4.6997   -3.1904    0.4800 O   0  0  0  0  0  0  0  0  0  0  0  0
    1.1239    2.3029   -0.9935 C   0  0  0  0  0  0  0  0  0  0  0  0
    6.5496    0.9980    2.4663 H   0  0  0  0  0  0  0  0  0  0  0  0
    7.8117   -0.7756    2.1238 H   0  0  0  0  0  0  0  0  0  0  0  0
    7.5620   -0.4225   -0.8959 H   0  0  0  0  0  0  0  0  0  0  0  0
    9.0010   -0.8720    0.1259 H   0  0  0  0  0  0  0  0  0  0  0  0
    8.3272    0.7787    0.1749 H   0  0  0  0  0  0  0  0  0  0  0  0
    6.1509   -2.3226    1.8981 H   0  0  0  0  0  0  0  0  0  0  0  0
    4.5658   -2.4986    0.3492 H   0  0  0  0  0  0  0  0  0  0  0  0
    6.6757   -2.6959   -0.9931 H   0  0  0  0  0  0  0  0  0  0  0  0
    5.2446    0.1755   -0.8371 H   0  0  0  0  0  0  0  0  0  0  0  0
    3.1665   -1.3399   -1.0251 H   0  0  0  0  0  0  0  0  0  0  0  0
    3.0264    0.4237   -1.0619 H   0  0  0  0  0  0  0  0  0  0  0  0
    1.5645   -1.2661    0.5991 H   0  0  0  0  0  0  0  0  0  0  0  0
    3.2402   -1.7962    2.2410 H   0  0  0  0  0  0  0  0  0  0  0  0
    2.1527   -0.5441    2.8662 H   0  0  0  0  0  0  0  0  0  0  0  0
    4.6750   -0.2581    3.2478 H   0  0  0  0  0  0  0  0  0  0  0  0
    3.6449    1.1332    2.8530 H   0  0  0  0  0  0  0  0  0  0  0  0
    4.6925    1.5621    0.8881 H   0  0  0  0  0  0  0  0  0  0  0  0
    2.2759    1.6420    1.0435 H   0  0  0  0  0  0  0  0  0  0  0  0
    0.8788    0.8386    1.7616 H   0  0  0  0  0  0  0  0  0  0  0  0
   -2.4947    2.3768   -1.7909 H   0  0  0  0  0  0  0  0  0  0  0  0
   -0.2424   -0.7076   -0.5222 H   0  0  0  0  0  0  0  0  0  0  0  0
   -0.0033    0.0261   -2.8193 H   0  0  0  0  0  0  0  0  0  0  0  0
   -0.5113    1.7277   -2.3870 H   0  0  0  0  0  0  0  0  0  0  0  0
   -2.3483    0.6060   -3.3926 H   0  0  0  0  0  0  0  0  0  0  0  0
   -2.3094   -0.6757   -2.0474 H   0  0  0  0  0  0  0  0  0  0  0  0
   -4.6648    1.9591   -0.7234 H   0  0  0  0  0  0  0  0  0  0  0  0
   -4.6580    0.8076   -3.3105 H   0  0  0  0  0  0  0  0  0  0  0  0
   -5.4203   -0.4058   -1.9865 H   0  0  0  0  0  0  0  0  0  0  0  0
   -3.5622   -0.8141    0.2614 H   0  0  0  0  0  0  0  0  0  0  0  0
   -5.1604   -1.7072    1.7629 H   0  0  0  0  0  0  0  0  0  0  0  0
   -6.5703   -1.2803    0.8013 H   0  0  0  0  0  0  0  0  0  0  0  0
   -4.8999    0.6720    2.5114 H   0  0  0  0  0  0  0  0  0  0  0  0
   -6.4178   -0.1524    2.8112 H   0  0  0  0  0  0  0  0  0  0  0  0
   -6.3705    1.7236    0.4323 H   0  0  0  0  0  0  0  0  0  0  0  0
   -7.2829    3.1594    1.8986 H   0  0  0  0  0  0  0  0  0  0  0  0
   -8.5904    1.6602    1.1332 H   0  0  0  0  0  0  0  0  0  0  0  0
   -3.8011   -2.5378   -1.2102 H   0  0  0  0  0  0  0  0  0  0  0  0
   -6.5932   -2.7898   -0.6431 H   0  0  0  0  0  0  0  0  0  0  0  0
   -3.8485   -3.1815    0.9942 H   0  0  0  0  0  0  0  0  0  0  0  0
    0.3238    3.1040   -0.9471 H   0  0  0  0  0  0  0  0  0  0  0  0
    2.0071    2.7900   -0.5011 H   0  0  0  0  0  0  0  0  0  0  0  0
    1.4603    2.1246   -2.0377 H   0  0  0  0  0  0  0  0  0  0  0  0
    6.5496    0.9980    2.4663 H   0  0  0  0  0  0  0  0  0  0  0  0
    7.8117   -0.7756    2.1238 H   0  0  0  0  0  0  0  0  0  0  0  0
    7.5620   -0.4225   -0.8959 H   0  0  0  0  0  0  0  0  0  0  0  0
    9.0010   -0.8720    0.1259 H   0  0  0  0  0  0  0  0  0  0  0  0
    8.3272    0.7787    0.1749 H   0  0  0  0  0  0  0  0  0  0  0  0
    6.1509   -2.3226    1.8981 H   0  0  0  0  0  0  0  0  0  0  0  0
    4.5658   -2.4986    0.3492 H   0  0  0  0  0  0  0  0  0  0  0  0
    6.6757   -2.6959   -0.9931 H   0  0  0  0  0  0  0  0  0  0  0  0
    5.2446    0.1755   -0.8371 H   0  0  0  0  0  0  0  0  0  0  0  0
    3.1665   -1.3399   -1.0251 H   0  0  0  0  0  0  0  0  0  0  0  0
    3.0264    0.4237   -1.0619 H   0  0  0  0  0  0  0  0  0  0  0  0
    1.5645   -1.2661    0.5991 H   0  0  0  0  0  0  0  0  0  0  0  0
    3.2402   -1.7962    2.2410 H   0  0  0  0  0  0  0  0  0  0  0  0
    2.1527   -0.5441    2.8662 H   0  0  0  0  0  0  0  0  0  0  0  0
    4.6750   -0.2581    3.2478 H   0  0  0  0  0  0  0  0  0  0  0  0
    3.6449    1.1332    2.8530 H   0  0  0  0  0  0  0  0  0  0  0  0
    4.6925    1.5621    0.8881 H   0  0  0  0  0  0  0  0  0  0  0  0
    2.2759    1.6420    1.0435 H   0  0  0  0  0  0  0  0  0  0  0  0
    0.8788    0.8386    1.7616 H   0  0  0  0  0  0  0  0  0  0  0  0
   -2.4947    2.3768   -1.7909 H   0  0  0  0  0  0  0  0  0  0  0  0
   -0.2424   -0.7076   -0.5222 H   0  0  0  0  0  0  0  0  0  0  0  0
   -0.0033    0.0261   -2.8193 H   0  0  0  0  0  0  0  0  0  0  0  0
   -0.5113    1.7277   -2.3870 H   0  0  0  0  0  0  0  0  0  0  0  0
   -2.3483    0.6060   -3.3926 H   0  0  0  0  0  0  0  0  0  0  0  0
   -2.3094   -0.6757   -2.0474 H   0  0  0  0  0  0  0  0  0  0  0  0
   -4.6648    1.9591   -0.7234 H   0  0  0  0  0  0  0  0  0  0  0  0
   -4.6580    0.8076   -3.3105 H   0  0  0  0  0  0  0  0  0  0  0  0
   -5.4203   -0.4058   -1.9865 H   0  0  0  0  0  0  0  0  0  0  0  0
   -3.5622   -0.8141    0.2614 H   0  0  0  0  0  0  0  0  0  0  0  0
   -5.1604   -1.7072    1.7629 H   0  0  0  0  0  0  0  0  0  0  0  0
   -6.5703   -1.2803    0.8013 H   0  0  0  0  0  0  0  0  0  0  0  0
   -4.8999    0.6720    2.5114 H   0  0  0  0  0  0  0  0  0  0  0  0
   -6.4178   -0.1524    2.8112 H   0  0  0  0  0  0  0  0  0  0  0  0
   -6.3705    1.7236    0.4323 H   0  0  0  0  0  0  0  0  0  0  0  0
   -7.2829    3.1594    1.8986 H   0  0  0  0  0  0  0  0  0  0  0  0
   -8.5904    1.6602    1.1332 H   0  0  0  0  0  0  0  0  0  0  0  0
   -3.8011   -2.5378   -1.2102 H   0  0  0  0  0  0  0  0  0  0  0  0
   -6.5932   -2.7898   -0.6431 H   0  0  0  0  0  0  0  0  0  0  0  0
   -3.8485   -3.1815    0.9942 H   0  0  0  0  0  0  0  0  0  0  0  0
    0.3238    3.1040   -0.9471 H   0  0  0  0  0  0  0  0  0  0  0  0
    2.0071    2.7900   -0.5011 H   0  0  0  0  0  0  0  0  0  0  0  0
    1.4603    2.1246   -2.0377 H   0  0  0  0  0  0  0  0  0  0  0  0
    6.5496    0.9980    2.4663 H   0  0  0  0  0  0  0  0  0  0  0  0
    7.8117   -0.7756    2.1238 H   0  0  0  0  0  0  0  0  0  0  0  0
    7.5620   -0.4225   -0.8959 H   0  0  0  0  0  0  0  0  0  0  0  0
    9.0010   -0.8720    0.1259 H   0  0  0  0  0  0  0  0  0  0  0  0
    8.3272    0.7787    0.1749 H   0  0  0  0  0  0  0  0  0  0  0  0
    6.1509   -2.3226    1.8981 H   0  0  0  0  0  0  0  0  0  0  0  0
    4.5658   -2.4986    0.3492 H   0  0  0  0  0  0  0  0  0  0  0  0
    6.6757   -2.6959   -0.9931 H   0  0  0  0  0  0  0  0  0  0  0  0
    5.2446    0.1755   -0.8371 H   0  0  0  0  0  0  0  0  0  0  0  0
    3.1665   -1.3399   -1.0251 H   0  0  0  0  0  0  0  0  0  0  0  0
    3.0264    0.4237   -1.0619 H   0  0  0  0  0  0  0  0  0  0  0  0
    1.5645   -1.2661    0.5991 H   0  0  0  0  0  0  0  0  0  0  0  0
    3.2402   -1.7962    2.2410 H   0  0  0  0  0  0  0  0  0  0  0  0
    2.1527   -0.5441    2.8662 H   0  0  0  0  0  0  0  0  0  0  0  0
    4.6750   -0.2581    3.2478 H   0  0  0  0  0  0  0  0  0  0  0  0
    3.6449    1.1332    2.8530 H   0  0  0  0  0  0  0  0  0  0  0  0
    4.6925    1.5621    0.8881 H   0  0  0  0  0  0  0  0  0  0  0  0
    2.2759    1.6420    1.0435 H   0  0  0  0  0  0  0  0  0  0  0  0
    0.8788    0.8386    1.7616 H   0  0  0  0  0  0  0  0  0  0  0  0
   -2.4947    2.3768   -1.7909 H   0  0  0  0  0  0  0  0  0  0  0  0
   -0.2424   -0.7076   -0.5222 H   0  0  0  0  0  0  0  0  0  0  0  0
   -0.0033    0.0261   -2.8193 H   0  0  0  0  0  0  0  0  0  0  0  0
   -0.5113    1.7277   -2.3870 H   0  0  0  0  0  0  0  0  0  0  0  0
   -2.3483    0.6060   -3.3926 H   0  0  0  0  0  0  0  0  0  0  0  0
   -2.3094   -0.6757   -2.0474 H   0  0  0  0  0  0  0  0  0  0  0  0
   -4.6648    1.9591   -0.7234 H   0  0  0  0  0  0  0  0  0  0  0  0
   -4.6580    0.8076   -3.3105 H   0  0  0  0  0  0  0  0  0  0  0  0
   -5.4203   -0.4058   -1.9865 H   0  0  0  0  0  0  0  0  0  0  0  0
   -3.5622   -0.8141    0.2614 H   0  0  0  0  0  0  0  0  0  0  0  0
   -5.1604   -1.7072    1.7629 H   0  0  0  0  0  0  0  0  0  0  0  0
   -6.5703   -1.2803    0.8013 H   0  0  0  0  0  0  0  0  0  0  0  0
   -4.8999    0.6720    2.5114 H   0  0  0  0  0  0  0  0  0  0  0  0
   -6.4178   -0.1524    2.8112 H   0  0  0  0  0  0  0  0  0  0  0  0
   -6.3705    1.7236    0.4323 H   0  0  0  0  0  0  0  0  0  0  0  0
   -7.2829    3.1594    1.8986 H   0  0  0  0  0  0  0  0  0  0  0  0
   -8.5904    1.6602    1.1332 H   0  0  0  0  0  0  0  0  0  0  0  0
   -3.8011   -2.5378   -1.2102 H   0  0  0  0  0  0  0  0  0  0  0  0
   -6.5932   -2.7898   -0.6431 H   0  0  0  0  0  0  0  0  0  0  0  0
   -3.8485   -3.1815    0.9942 H   0  0  0  0  0  0  0  0  0  0  0  0
    0.3238    3.1040   -0.9471 H   0  0  0  0  0  0  0  0  0  0  0  0
    2.0071    2.7900   -0.5011 H   0  0  0  0  0  0  0  0  0  0  0  0
    1.4603    2.1246   -2.0377 H   0  0  0  0  0  0  0  0  0  0  0  0
    6.5496    0.9980    2.4663 H   0  0  0  0  0  0  0  0  0  0  0  0
    7.8117   -0.7756    2.1238 H   0  0  0  0  0  0  0  0  0  0  0  0
    7.5620   -0.4225   -0.8959 H   0  0  0  0  0  0  0  0  0  0  0  0
    9.0010   -0.8720    0.1259 H   0  0  0  0  0  0  0  0  0  0  0  0
    8.3272    0.7787    0.1749 H   0  0  0  0  0  0  0  0  0  0  0  0
    6.1509   -2.3226    1.8981 H   0  0  0  0  0  0  0  0  0  0  0  0
    4.5658   -2.4986    0.3492 H   0  0  0  0  0  0  0  0  0  0  0  0
    6.6757   -2.6959   -0.9931 H   0  0  0  0  0  0  0  0  0  0  0  0
    5.2446    0.1755   -0.8371 H   0  0  0  0  0  0  0  0  0  0  0  0
    3.1665   -1.3399   -1.0251 H   0  0  0  0  0  0  0  0  0  0  0  0
    3.0264    0.4237   -1.0619 H   0  0  0  0  0  0  0  0  0  0  0  0
    1.5645   -1.2661    0.5991 H   0  0  0  0  0  0  0  0  0  0  0  0
    3.2402   -1.7962    2.2410 H   0  0  0  0  0  0  0  0  0  0  0  0
    2.1527   -0.5441    2.8662 H   0  0  0  0  0  0  0  0  0  0  0  0
    4.6750   -0.2581    3.2478 H   0  0  0  0  0  0  0  0  0  0  0  0
    3.6449    1.1332    2.8530 H   0  0  0  0  0  0  0  0  0  0  0  0
    4.6925    1.5621    0.8881 H   0  0  0  0  0  0  0  0  0  0  0  0
    2.2759    1.6420    1.0435 H   0  0  0  0  0  0  0  0  0  0  0  0
    0.8788    0.8386    1.7616 H   0  0  0  0  0  0  0  0  0  0  0  0
   -2.4947    2.3768   -1.7909 H   0  0  0  0  0  0  0  0  0  0  0  0
   -0.2424   -0.7076   -0.5222 H   0  0  0  0  0  0  0  0  0  0  0  0
   -0.0033    0.0261   -2.8193 H   0  0  0  0  0  0  0  0  0  0  0  0
   -0.5113    1.7277   -2.3870 H   0  0  0  0  0  0  0  0  0  0  0  0
   -2.3483    0.6060   -3.3926 H   0  0  0  0  0  0  0  0  0  0  0  0
   -2.3094   -0.6757   -2.0474 H   0  0  0  0  0  0  0  0  0  0  0  0
   -4.6648    1.9591   -0.7234 H   0  0  0  0  0  0  0  0  0  0  0  0
   -4.6580    0.8076   -3.3105 H   0  0  0  0  0  0  0  0  0  0  0  0
   -5.4203   -0.4058   -1.9865 H   0  0  0  0  0  0  0  0  0  0  0  0
   -3.5622   -0.8141    0.2614 H   0  0  0  0  0  0  0  0  0  0  0  0
   -5.1604   -1.7072    1.7629 H   0  0  0  0  0  0  0  0  0  0  0  0
   -6.5703   -1.2803    0.8013 H   0  0  0  0  0  0  0  0  0  0  0  0
   -4.8999    0.6720    2.5114 H   0  0  0  0  0  0  0  0  0  0  0  0
   -6.4178   -0.1524    2.8112 H   0  0  0  0  0  0  0  0  0  0  0  0
   -6.3705    1.7236    0.4323 H   0  0  0  0  0  0  0  0  0  0  0  0
   -7.2829    3.1594    1.8986 H   0  0  0  0  0  0  0  0  0  0  0  0
   -8.5904    1.6602    1.1332 H   0  0  0  0  0  0  0  0  0  0  0  0
   -3.8011   -2.5378   -1.2102 H   0  0  0  0  0  0  0  0  0  0  0  0
   -6.5932   -2.7898   -0.6431 H   0  0  0  0  0  0  0  0  0  0  0  0
   -3.8485   -3.1815    0.9942 H   0  0  0  0  0  0  0  0  0  0  0  0
    0.3238    3.1040   -0.9471 H   0  0  0  0  0  0  0  0  0  0  0  0
    2.0071    2.7900   -0.5011 H   0  0  0  0  0  0  0  0  0  0  0  0
    1.4603    2.1246   -2.0377 H   0  0  0  0  0  0  0  0  0  0  0  0
  1  2  1  0
  2  3  1  0
  2  4  1  0
  4  5  1  0
  5  6  1  0
  5  7  1  0
  7  8  1  0
  8  9  1  0
  9 10  1  0
 10 11  1  0
  1 12  1  0
  7 12  1  0
 11 12  1  0
  9 13  1  0
 13 14  1  0
 15 16  1  0
 14 17  1  0
 16 17  1  0
 17 18  1  0
 15 19  1  0
 18 19  1  0
 15 20  1  0
 20 21  1  0
 20 22  1  0
 22 23  1  0
 23 24  1  0
 24 25  1  0
 25 26  1  0
 26 27  1  0
 26 28  1  0
 23 29  1  0
 29 30  1  0
 29 31  1  0
 14 32  1  0
 33 34  1  0
 34 35  1  0
 34 36  1  0
 36 37  1  0
 37 38  1  0
 37 39  1  0
 39 40  1  0
 40 41  1  0
 41 42  1  0
 42 43  1  0
 33 44  1  0
 39 44  1  0
 43 44  1  0
 41 45  1  0
 45 46  1  0
 47 48  1  0
 46 49  1  0
 48 49  1  0
 49 50  1  0
 47 51  1  0
 50 51  1  0
 47 52  1  0
 52 53  1  0
 52 54  1  0
 54 55  1  0
 55 56  1  0
 56 57  1  0
 57 58  1  0
 58 59  1  0
 58 60  1  0
 55 61  1  0
 61 62  1  0
 61 63  1  0
 46 64  1  0
 65 66  1  0
 66 67  1  0
 66 68  1  0
 68 69  1  0
 69 70  1  0
 69 71  1  0
 71 72  1  0
 72 73  1  0
 73 74  1  0
 74 75  1  0
 65 76  1  0
 71 76  1  0
 75 76  1  0
 73 77  1  0
 77 78  1  0
 79 80  1  0
 78 81  1  0
 80 81  1  0
 81 82  1  0
 79 83  1  0
 82 83  1  0
 79 84  1  0
 84 85  1  0
 84 86  1  0
 86 87  1  0
 87 88  1  0
 88 89  1  0
 89 90  1  0
 90 91  1  0
 90 92  1  0
 87 93  1  0
 93 94  1  0
 93 95  1  0
 78 96  1  0
 97 98  1  0
 98 99  1  0
 98100  1  0
100101  1  0
101102  1  0
101103  1  0
103104  1  0
104105  1  0
105106  1  0
106107  1  0
 97108  1  0
103108  1  0
107108  1  0
105109  1  0
109110  1  0
111112  1  0
110113  1  0
112113  1  0
113114  1  0
111115  1  0
114115  1  0
111116  1  0
116117  1  0
116118  1  0
118119  1  0
119120  1  0
120121  1  0
121122  1  0
122123  1  0
122124  1  0
119125  1  0
125126  1  0
125127  1  0
110128  1  0
  1129  1  0
  2130  1  0
  3131  1  0
  3132  1  0
  3133  1  0
  4134  1  0
  5135  1  0
  6136  1  0
  7137  1  0
  8138  1  0
  8139  1  0
  9140  1  0
 10141  1  0
 10142  1  0
 11143  1  0
 11144  1  0
 12145  1  0
 13146  1  0
 13147  1  0
 15148  1  0
 17149  1  0
 18150  1  0
 18151  1  0
 19152  1  0
 19153  1  0
 20154  1  0
 21155  1  0
 22156  1  0
 23157  1  1
 24158  1  0
 24159  1  0
 25160  1  0
 25161  1  0
 26162  1  0
 27163  1  0
 28164  1  0
 29165  1  0
 30166  1  0
 31167  1  0
 32168  1  0
 32169  1  0
 32170  1  0
 33171  1  0
 34172  1  0
 35173  1  0
 35174  1  0
 35175  1  0
 36176  1  0
 37177  1  0
 38178  1  0
 39179  1  0
 40180  1  0
 40181  1  0
 41182  1  0
 42183  1  0
 42184  1  0
 43185  1  0
 43186  1  0
 44187  1  0
 45188  1  0
 45189  1  0
 47190  1  0
 49191  1  0
 50192  1  0
 50193  1  0
 51194  1  0
 51195  1  0
 52196  1  0
 53197  1  0
 54198  1  0
 55199  1  1
 56200  1  0
 56201  1  0
 57202  1  0
 57203  1  0
 58204  1  0
 59205  1  0
 60206  1  0
 61207  1  0
 62208  1  0
 63209  1  0
 64210  1  0
 64211  1  0
 64212  1  0
 65213  1  0
 66214  1  0
 67215  1  0
 67216  1  0
 67217  1  0
 68218  1  0
 69219  1  0
 70220  1  0
 71221  1  0
 72222  1  0
 72223  1  0
 73224  1  0
 74225  1  0
 74226  1  0
 75227  1  0
 75228  1  0
 76229  1  0
 77230  1  0
 77231  1  0
 79232  1  0
 81233  1  0
 82234  1  0
 82235  1  0
 83236  1  0
 83237  1  0
 84238  1  0
 85239  1  0
 86240  1  0
 87241  1  1
 88242  1  0
 88243  1  0
 89244  1  0
 89245  1  0
 90246  1  0
 91247  1  0
 92248  1  0
 93249  1  0
 94250  1  0
 95251  1  0
 96252  1  0
 96253  1  0
 96254  1  0
 97255  1  0
 98256  1  0
 99257  1  0
 99258  1  0
 99259  1  0
100260  1  0
101261  1  0
102262  1  0
103263  1  0
104264  1  0
104265  1  0
105266  1  0
106267  1  0
106268  1  0
107269  1  0
107270  1  0
108271  1  0
109272  1  0
109273  1  0
111274  1  0
113275  1  0
114276  1  0
114277  1  0
115278  1  0
115279  1  0
116280  1  0
117281  1  0
118282  1  0
119283  1  1
120284  1  0
120285  1  0
121286  1  0
121287  1  0
122288  1  0
123289  1  0
124290  1  0
125291  1  0
126292  1  0
127293  1  0
128294  1  0
128295  1  0
128296  1  0
M  END
>  <PDBID>  (1) 
1HVY

>  <PDB ID>  (1) 
1HVY

>  <Generic Name>  (1) 
Raltitrexed

>  <Brand Name>  (1) 
Tomudex

>  <DrugBank ID>  (1) 
DB00293

>  <ATC Codes>  (1) 
L01BA03

>  <Ligand ID>  (1) 
D16

>  <Target Name>  (1) 
Thymidylate synthase

>  <UniProt ID>  (1) 
P04818

>  <PDB ID.1>  (1) 
1HVY

>  <Seq. Identity>  (1) 
100%

$$$$
