PDB_DB00806_07
     RDKit          3D

 96 98  0  0  0  0  0  0  0  0999 V2000
    5.8570    0.8471    1.0314 C   0  0  0  0  0  0  0  0  0  0  0  0
    5.5559   -0.3928    0.2460 C   0  0  0  0  0  0  0  0  0  0  0  0
    6.3601   -1.4384    0.7336 O   0  0  0  0  0  0  0  0  0  0  0  0
    4.1358   -0.8516    0.3478 C   0  0  0  0  0  0  0  0  0  0  0  0
    3.1492    0.1818   -0.1489 C   0  0  0  0  0  0  0  0  0  0  0  0
    1.7221   -0.3126   -0.0391 C   0  0  0  0  0  0  0  0  0  0  0  0
    0.7900    0.7514   -0.5508 C   0  0  0  0  0  0  0  0  0  0  0  0
   -0.5842    0.4516   -0.5264 N   0  0  0  0  0  0  0  0  0  0  0  0
   -1.2340    0.3350    0.7246 C   0  0  0  0  0  0  0  0  0  0  0  0
   -1.6026    1.6421    1.1249 O   0  0  0  0  0  0  0  0  0  0  0  0
   -2.4313   -0.5356    0.5487 C   0  0  0  0  0  0  0  0  0  0  0  0
   -3.3638   -0.6304    1.5844 N   0  0  0  0  0  0  0  0  0  0  0  0
   -3.6054    0.4940    2.4079 C   0  0  0  0  0  0  0  0  0  0  0  0
   -4.5845   -1.0528    0.9316 C   0  0  0  0  0  0  0  0  0  0  0  0
   -4.4678   -0.6848   -0.4798 N   0  0  0  0  0  0  0  0  0  0  0  0
   -3.2389    0.0593   -0.6138 C   0  0  0  0  0  0  0  0  0  0  0  0
   -2.4953   -0.2456   -1.7952 N   0  0  0  0  0  0  0  0  0  0  0  0
   -2.8470    0.6066   -2.9172 C   0  0  0  0  0  0  0  0  0  0  0  0
   -1.0749   -0.3320   -1.5998 C   0  0  0  0  0  0  0  0  0  0  0  0
   -0.6329   -1.6731   -1.5663 O   0  0  0  0  0  0  0  0  0  0  0  0
    5.8570    0.8471    1.0314 C   0  0  0  0  0  0  0  0  0  0  0  0
    5.5559   -0.3928    0.2460 C   0  0  0  0  0  0  0  0  0  0  0  0
    6.3601   -1.4384    0.7336 O   0  0  0  0  0  0  0  0  0  0  0  0
    4.1358   -0.8516    0.3478 C   0  0  0  0  0  0  0  0  0  0  0  0
    3.1492    0.1818   -0.1489 C   0  0  0  0  0  0  0  0  0  0  0  0
    1.7221   -0.3126   -0.0391 C   0  0  0  0  0  0  0  0  0  0  0  0
    0.7900    0.7514   -0.5508 C   0  0  0  0  0  0  0  0  0  0  0  0
   -0.5842    0.4516   -0.5264 N   0  0  0  0  0  0  0  0  0  0  0  0
   -1.2340    0.3350    0.7246 C   0  0  0  0  0  0  0  0  0  0  0  0
   -1.6026    1.6421    1.1249 O   0  0  0  0  0  0  0  0  0  0  0  0
   -2.4313   -0.5356    0.5487 C   0  0  0  0  0  0  0  0  0  0  0  0
   -3.3638   -0.6304    1.5844 N   0  0  0  0  0  0  0  0  0  0  0  0
   -3.6054    0.4940    2.4079 C   0  0  0  0  0  0  0  0  0  0  0  0
   -4.5845   -1.0528    0.9316 C   0  0  0  0  0  0  0  0  0  0  0  0
   -4.4678   -0.6848   -0.4798 N   0  0  0  0  0  0  0  0  0  0  0  0
   -3.2389    0.0593   -0.6138 C   0  0  0  0  0  0  0  0  0  0  0  0
   -2.4953   -0.2456   -1.7952 N   0  0  0  0  0  0  0  0  0  0  0  0
   -2.8470    0.6066   -2.9172 C   0  0  0  0  0  0  0  0  0  0  0  0
   -1.0749   -0.3320   -1.5998 C   0  0  0  0  0  0  0  0  0  0  0  0
   -0.6329   -1.6731   -1.5663 O   0  0  0  0  0  0  0  0  0  0  0  0
    5.0095    1.0708    1.6869 H   0  0  0  0  0  0  0  0  0  0  0  0
    6.1368    1.6875    0.3466 H   0  0  0  0  0  0  0  0  0  0  0  0
    6.7497    0.6829    1.6979 H   0  0  0  0  0  0  0  0  0  0  0  0
    5.8187   -0.2875   -0.8238 H   0  0  0  0  0  0  0  0  0  0  0  0
    6.0421   -1.7447    1.6142 H   0  0  0  0  0  0  0  0  0  0  0  0
    4.0243   -1.7493   -0.3046 H   0  0  0  0  0  0  0  0  0  0  0  0
    3.9294   -1.1579    1.3817 H   0  0  0  0  0  0  0  0  0  0  0  0
    3.3848    0.4806   -1.1871 H   0  0  0  0  0  0  0  0  0  0  0  0
    3.2421    1.1020    0.4648 H   0  0  0  0  0  0  0  0  0  0  0  0
    1.5677   -1.2881   -0.4897 H   0  0  0  0  0  0  0  0  0  0  0  0
    1.5126   -0.4286    1.0616 H   0  0  0  0  0  0  0  0  0  0  0  0
    1.0685    0.9442   -1.6300 H   0  0  0  0  0  0  0  0  0  0  0  0
    0.9702    1.7332   -0.0532 H   0  0  0  0  0  0  0  0  0  0  0  0
   -0.5459   -0.0217    1.5093 H   0  0  0  0  0  0  0  0  0  0  0  0
   -1.8678    2.1829    0.3415 H   0  0  0  0  0  0  0  0  0  0  0  0
   -2.0883   -1.5422    0.2498 H   0  0  0  0  0  0  0  0  0  0  0  0
   -3.9201    1.4157    1.8545 H   0  0  0  0  0  0  0  0  0  0  0  0
   -2.8005    0.7014    3.1411 H   0  0  0  0  0  0  0  0  0  0  0  0
   -4.5123    0.2510    3.0394 H   0  0  0  0  0  0  0  0  0  0  0  0
   -5.4713   -0.6265    1.4047 H   0  0  0  0  0  0  0  0  0  0  0  0
   -4.5788   -2.1668    0.9427 H   0  0  0  0  0  0  0  0  0  0  0  0
   -5.2776   -0.0593   -0.6953 H   0  0  0  0  0  0  0  0  0  0  0  0
   -3.4264    1.1401   -0.4674 H   0  0  0  0  0  0  0  0  0  0  0  0
   -3.5068    0.0081   -3.5704 H   0  0  0  0  0  0  0  0  0  0  0  0
   -3.4123    1.4693   -2.5392 H   0  0  0  0  0  0  0  0  0  0  0  0
   -1.9545    0.9888   -3.4406 H   0  0  0  0  0  0  0  0  0  0  0  0
   -0.6100    0.0825   -2.5454 H   0  0  0  0  0  0  0  0  0  0  0  0
   -0.8915   -2.0878   -2.4339 H   0  0  0  0  0  0  0  0  0  0  0  0
    5.0095    1.0708    1.6869 H   0  0  0  0  0  0  0  0  0  0  0  0
    6.1368    1.6875    0.3466 H   0  0  0  0  0  0  0  0  0  0  0  0
    6.7497    0.6829    1.6979 H   0  0  0  0  0  0  0  0  0  0  0  0
    5.8187   -0.2875   -0.8238 H   0  0  0  0  0  0  0  0  0  0  0  0
    6.0421   -1.7447    1.6142 H   0  0  0  0  0  0  0  0  0  0  0  0
    4.0243   -1.7493   -0.3046 H   0  0  0  0  0  0  0  0  0  0  0  0
    3.9294   -1.1579    1.3817 H   0  0  0  0  0  0  0  0  0  0  0  0
    3.3848    0.4806   -1.1871 H   0  0  0  0  0  0  0  0  0  0  0  0
    3.2421    1.1020    0.4648 H   0  0  0  0  0  0  0  0  0  0  0  0
    1.5677   -1.2881   -0.4897 H   0  0  0  0  0  0  0  0  0  0  0  0
    1.5126   -0.4286    1.0616 H   0  0  0  0  0  0  0  0  0  0  0  0
    1.0685    0.9442   -1.6300 H   0  0  0  0  0  0  0  0  0  0  0  0
    0.9702    1.7332   -0.0532 H   0  0  0  0  0  0  0  0  0  0  0  0
   -0.5459   -0.0217    1.5093 H   0  0  0  0  0  0  0  0  0  0  0  0
   -1.8678    2.1829    0.3415 H   0  0  0  0  0  0  0  0  0  0  0  0
   -2.0883   -1.5422    0.2498 H   0  0  0  0  0  0  0  0  0  0  0  0
   -3.9201    1.4157    1.8545 H   0  0  0  0  0  0  0  0  0  0  0  0
   -2.8005    0.7014    3.1411 H   0  0  0  0  0  0  0  0  0  0  0  0
   -4.5123    0.2510    3.0394 H   0  0  0  0  0  0  0  0  0  0  0  0
   -5.4713   -0.6265    1.4047 H   0  0  0  0  0  0  0  0  0  0  0  0
   -4.5788   -2.1668    0.9427 H   0  0  0  0  0  0  0  0  0  0  0  0
   -5.2776   -0.0593   -0.6953 H   0  0  0  0  0  0  0  0  0  0  0  0
   -3.4264    1.1401   -0.4674 H   0  0  0  0  0  0  0  0  0  0  0  0
   -3.5068    0.0081   -3.5704 H   0  0  0  0  0  0  0  0  0  0  0  0
   -3.4123    1.4693   -2.5392 H   0  0  0  0  0  0  0  0  0  0  0  0
   -1.9545    0.9888   -3.4406 H   0  0  0  0  0  0  0  0  0  0  0  0
   -0.6100    0.0825   -2.5454 H   0  0  0  0  0  0  0  0  0  0  0  0
   -0.8915   -2.0878   -2.4339 H   0  0  0  0  0  0  0  0  0  0  0  0
  1  2  1  0
  2  3  1  0
  2  4  1  0
  4  5  1  0
  5  6  1  0
  6  7  1  0
  7  8  1  0
  8  9  1  0
  9 10  1  0
  9 11  1  0
 11 12  1  0
 12 13  1  0
 12 14  1  0
 14 15  1  0
 11 16  1  0
 15 16  1  0
 16 17  1  0
 17 18  1  0
  8 19  1  0
 17 19  1  0
 19 20  1  0
 21 22  1  0
 22 23  1  0
 22 24  1  0
 24 25  1  0
 25 26  1  0
 26 27  1  0
 27 28  1  0
 28 29  1  0
 29 30  1  0
 29 31  1  0
 31 32  1  0
 32 33  1  0
 32 34  1  0
 34 35  1  0
 31 36  1  0
 35 36  1  0
 36 37  1  0
 37 38  1  0
 28 39  1  0
 37 39  1  0
 39 40  1  0
  1 41  1  0
  1 42  1  0
  1 43  1  0
  2 44  1  0
  3 45  1  0
  4 46  1  0
  4 47  1  0
  5 48  1  0
  5 49  1  0
  6 50  1  0
  6 51  1  0
  7 52  1  0
  7 53  1  0
  9 54  1  0
 10 55  1  0
 11 56  1  0
 13 57  1  0
 13 58  1  0
 13 59  1  0
 14 60  1  0
 14 61  1  0
 15 62  1  0
 16 63  1  0
 18 64  1  0
 18 65  1  0
 18 66  1  0
 19 67  1  0
 20 68  1  0
 21 69  1  0
 21 70  1  0
 21 71  1  0
 22 72  1  0
 23 73  1  0
 24 74  1  0
 24 75  1  0
 25 76  1  0
 25 77  1  0
 26 78  1  0
 26 79  1  0
 27 80  1  0
 27 81  1  0
 29 82  1  0
 30 83  1  0
 31 84  1  0
 33 85  1  0
 33 86  1  0
 33 87  1  0
 34 88  1  0
 34 89  1  0
 35 90  1  0
 36 91  1  0
 38 92  1  0
 38 93  1  0
 38 94  1  0
 39 95  1  0
 40 96  1  0
M  END
>  <PDBID>  (1) 
3TVX

>  <PDB ID>  (1) 
3TVX

>  <Generic Name>  (1) 
Pentoxifylline

>  <Brand Name>  (1) 
Gapeam Budibac#Nu-pentoxifylline-SR 400 mg#Pentoxifylline#Pentoxifylline SR#Ratio-pentoxifylline#Trental#Trental Srt 400mg#Trental Tab 400mg#Agapurin#Agapurin SR#An Ruo Ning#Angiopent#Ao Le Ni#Ao Nuo Hong#Aotong#Azupentat#Behrifil#Bo Shu Te#Claudicat#Durapental#Elorgan#Endopentoksas#Pentilin#Pentilin Retard#Pentoflux#Pentofyllin#Pentoksifilin#Pentolab#Pentomer#Pentoxil#Rentylin#Torental#Trentilin Retard

>  <DrugBank ID>  (1) 
DB00806

>  <ATC Codes>  (1) 
C04AD03

>  <Ligand ID>  (1) 
PNX

>  <Target Name>  (1) 
cAMP-specific 3',5'-cyclic phosphodiesterase 4B

>  <UniProt ID>  (1) 
Q07343

>  <PDB ID.1>  (1) 
3TVX

>  <Seq. Identity>  (1) 
84%

$$$$
