PDB_DB00685_01
     RDKit          3D

124132  0  0  0  0  0  0  0  0999 V2000
   -3.8905   -1.0045   -0.3461 C   0  0  0  0  0  0  0  0  0  0  0  0
   -3.8431   -2.2261   -1.2602 C   0  0  0  0  0  0  0  0  0  0  0  0
   -3.5249   -3.4327   -0.3968 C   0  0  0  0  0  0  0  0  0  0  0  0
   -4.6633   -4.1461   -0.0678 F   0  0  0  0  0  0  0  0  0  0  0  0
   -2.7286   -3.0444    0.8389 C   0  0  0  0  0  0  0  0  0  0  0  0
   -1.7780   -1.9418    0.3775 C   0  0  0  0  0  0  0  0  0  0  0  0
   -1.2738   -2.3603   -0.8394 F   0  0  0  0  0  0  0  0  0  0  0  0
   -2.5660   -0.6338    0.1799 C   0  0  0  0  0  0  0  0  0  0  0  0
   -1.7278    0.2106   -0.5805 N   0  0  0  0  0  0  0  0  0  0  0  0
   -0.5498    0.5146    0.1343 C   0  0  0  0  0  0  0  0  0  0  0  0
    0.5390   -0.3356   -0.3774 N   0  0  0  0  0  0  0  0  0  0  0  0
    1.6804   -0.2396    0.5285 C   0  0  0  0  0  0  0  0  0  0  0  0
    2.5975   -1.2603    0.2208 N   0  0  0  0  0  0  0  0  0  0  0  0
    3.6676   -1.4178    1.1846 C   0  0  0  0  0  0  0  0  0  0  0  0
    4.8480   -0.6392    0.6895 C   0  0  1  0  0  0  0  0  0  0  0  0
    5.7497   -1.2865   -0.2965 C   0  0  0  0  0  0  0  0  0  0  0  0
    7.0310   -0.7133   -0.5517 N   0  0  0  0  0  0  0  0  0  0  0  0
    4.5595   -0.4366   -0.7472 C   0  0  1  0  0  0  0  0  0  0  0  0
    3.2845   -1.1569   -1.0251 C   0  0  0  0  0  0  0  0  0  0  0  0
    2.1900    1.1540    0.5797 C   0  0  0  0  0  0  0  0  0  0  0  0
    1.0435    2.0259    1.1149 C   0  0  0  0  0  0  0  0  0  0  0  0
   -0.0400    1.9119    0.0389 C   0  0  0  0  0  0  0  0  0  0  0  0
   -1.0567    2.9893    0.1059 C   0  0  0  0  0  0  0  0  0  0  0  0
   -2.3342    2.6067   -0.5592 C   0  0  0  0  0  0  0  0  0  0  0  0
   -2.2837    1.2873   -1.2884 C   0  0  0  0  0  0  0  0  0  0  0  0
   -3.4460    2.6970    0.4559 C   0  0  0  0  0  0  0  0  0  0  0  0
   -3.4588    4.0444    0.8856 O   0  0  0  0  0  0  0  0  0  0  0  0
   -4.6995    2.4476   -0.0760 O   0  0  0  0  0  0  0  0  0  0  0  0
   -1.2832    3.4258    1.4340 O   0  0  0  0  0  0  0  0  0  0  0  0
    2.4296    1.6740   -0.7011 F   0  0  0  0  0  0  0  0  0  0  0  0
   -4.5089   -1.3595    0.5361 H   0  0  0  0  0  0  0  0  0  0  0  0
   -4.8653   -2.3593   -1.7205 H   0  0  0  0  0  0  0  0  0  0  0  0
   -2.0750   -3.8979    1.1417 H   0  0  0  0  0  0  0  0  0  0  0  0
    3.9182   -2.5073    1.2079 H   0  0  0  0  0  0  0  0  0  0  0  0
    3.3702   -1.1599    2.2141 H   0  0  0  0  0  0  0  0  0  0  0  0
    5.2168    0.1845    1.3167 H   0  0  0  0  0  0  0  0  0  0  0  0
    5.6242   -2.3821   -0.4893 H   0  0  0  0  0  0  0  0  0  0  0  0
    6.9083    0.2217   -0.9921 H   0  0  0  0  0  0  0  0  0  0  0  0
    7.6434   -0.6992    0.2852 H   0  0  0  0  0  0  0  0  0  0  0  0
    4.7905    0.5139   -1.2708 H   0  0  0  0  0  0  0  0  0  0  0  0
    2.6933   -0.7562   -1.8499 H   0  0  0  0  0  0  0  0  0  0  0  0
    3.5639   -2.2096   -1.3270 H   0  0  0  0  0  0  0  0  0  0  0  0
    1.3590    3.0590    1.2932 H   0  0  0  0  0  0  0  0  0  0  0  0
   -1.6176    1.4742   -2.1873 H   0  0  0  0  0  0  0  0  0  0  0  0
   -3.7820   -1.1478    0.3387 C   0  0  0  0  0  0  0  0  0  0  0  0
   -3.8781   -2.2720   -0.6836 C   0  0  0  0  0  0  0  0  0  0  0  0
   -3.3559   -3.5209    0.0406 C   0  0  0  0  0  0  0  0  0  0  0  0
   -4.3917   -4.2588    0.5859 F   0  0  0  0  0  0  0  0  0  0  0  0
   -2.3289   -3.1409    1.1022 C   0  0  0  0  0  0  0  0  0  0  0  0
   -1.5245   -1.9978    0.5198 C   0  0  0  0  0  0  0  0  0  0  0  0
   -1.1937   -2.3257   -0.7800 F   0  0  0  0  0  0  0  0  0  0  0  0
   -2.3663   -0.7097    0.5211 C   0  0  0  0  0  0  0  0  0  0  0  0
   -1.8275    0.1542   -0.4181 N   0  0  0  0  0  0  0  0  0  0  0  0
   -0.5421    0.6274   -0.0417 C   0  0  0  0  0  0  0  0  0  0  0  0
    0.4536   -0.2489   -0.6839 N   0  0  0  0  0  0  0  0  0  0  0  0
    1.7695    0.0409   -0.2422 C   0  0  0  0  0  0  0  0  0  0  0  0
    2.6803   -0.9869   -0.6357 N   0  0  0  0  0  0  0  0  0  0  0  0
    3.1953   -1.7680    0.4722 C   0  0  0  0  0  0  0  0  0  0  0  0
    4.5003   -1.2091    0.8992 C   0  0  1  0  0  0  0  0  0  0  0  0
    5.6900   -1.6144    0.1228 C   0  0  0  0  0  0  0  0  0  0  0  0
    7.0196   -1.4055    0.6174 N   0  0  0  0  0  0  0  0  0  0  0  0
    4.9167   -0.3350   -0.1932 C   0  0  1  0  0  0  0  0  0  0  0  0
    3.8814   -0.4848   -1.2639 C   0  0  0  0  0  0  0  0  0  0  0  0
    2.1635    1.4437   -0.5242 C   0  0  0  0  0  0  0  0  0  0  0  0
    1.1428    2.3529    0.1837 C   0  0  0  0  0  0  0  0  0  0  0  0
   -0.1932    2.0185   -0.4537 C   0  0  0  0  0  0  0  0  0  0  0  0
   -1.2601    3.0461   -0.1430 C   0  0  0  0  0  0  0  0  0  0  0  0
   -2.6056    2.4798   -0.4303 C   0  0  0  0  0  0  0  0  0  0  0  0
   -2.6188    1.1201   -1.0577 C   0  0  0  0  0  0  0  0  0  0  0  0
   -3.6141    2.6653    0.6918 C   0  0  0  0  0  0  0  0  0  0  0  0
   -3.2205    2.1071    1.8907 O   0  0  0  0  0  0  0  0  0  0  0  0
   -3.8835    4.0142    0.9051 O   0  0  0  0  0  0  0  0  0  0  0  0
   -1.1864    3.4893    1.1999 O   0  0  0  0  0  0  0  0  0  0  0  0
    1.9365    1.7753   -1.8869 F   0  0  0  0  0  0  0  0  0  0  0  0
   -4.1239   -1.5969    1.2937 H   0  0  0  0  0  0  0  0  0  0  0  0
   -4.9395   -2.4320   -0.9853 H   0  0  0  0  0  0  0  0  0  0  0  0
   -1.6245   -3.9726    1.2819 H   0  0  0  0  0  0  0  0  0  0  0  0
    3.2901   -2.8092    0.0796 H   0  0  0  0  0  0  0  0  0  0  0  0
    2.4669   -1.7977    1.3149 H   0  0  0  0  0  0  0  0  0  0  0  0
    4.6511   -0.9743    1.9806 H   0  0  0  0  0  0  0  0  0  0  0  0
    5.6156   -2.4582   -0.6025 H   0  0  0  0  0  0  0  0  0  0  0  0
    7.3962   -0.5159    0.2332 H   0  0  0  0  0  0  0  0  0  0  0  0
    7.0151   -1.4583    1.6586 H   0  0  0  0  0  0  0  0  0  0  0  0
    5.4150    0.6416   -0.0346 H   0  0  0  0  0  0  0  0  0  0  0  0
    3.7421    0.4093   -1.8702 H   0  0  0  0  0  0  0  0  0  0  0  0
    4.2191   -1.2851   -1.9527 H   0  0  0  0  0  0  0  0  0  0  0  0
    1.3944    3.4263    0.0407 H   0  0  0  0  0  0  0  0  0  0  0  0
   -2.1554    1.2690   -2.0867 H   0  0  0  0  0  0  0  0  0  0  0  0
   -4.5029   -0.1984   -0.7825 H   0  0  0  0  0  0  0  0  0  0  0  0
   -3.1615   -2.0961   -2.1081 H   0  0  0  0  0  0  0  0  0  0  0  0
   -2.8716   -4.1462   -0.9803 H   0  0  0  0  0  0  0  0  0  0  0  0
   -3.3467   -2.7322    1.6791 H   0  0  0  0  0  0  0  0  0  0  0  0
   -0.9610   -1.7916    1.1024 H   0  0  0  0  0  0  0  0  0  0  0  0
   -2.6901   -0.2301    1.2275 H   0  0  0  0  0  0  0  0  0  0  0  0
   -0.5987    0.2549    1.2256 H   0  0  0  0  0  0  0  0  0  0  0  0
    0.8067   -0.0089   -1.3397 H   0  0  0  0  0  0  0  0  0  0  0  0
    1.2484   -0.4632    1.5447 H   0  0  0  0  0  0  0  0  0  0  0  0
    3.0668    1.2428    1.2329 H   0  0  0  0  0  0  0  0  0  0  0  0
    0.6542    1.5106    2.0190 H   0  0  0  0  0  0  0  0  0  0  0  0
    0.5106    2.0215   -0.9244 H   0  0  0  0  0  0  0  0  0  0  0  0
   -0.6148    3.8997   -0.4024 H   0  0  0  0  0  0  0  0  0  0  0  0
   -2.5876    3.3748   -1.3502 H   0  0  0  0  0  0  0  0  0  0  0  0
   -3.2720    1.1128   -1.7111 H   0  0  0  0  0  0  0  0  0  0  0  0
   -3.2357    2.1047    1.3711 H   0  0  0  0  0  0  0  0  0  0  0  0
   -3.6142    4.6666    0.1405 H   0  0  0  0  0  0  0  0  0  0  0  0
   -1.3235    2.6426    2.0319 H   0  0  0  0  0  0  0  0  0  0  0  0
   -4.4941   -0.3264    0.1453 H   0  0  0  0  0  0  0  0  0  0  0  0
   -3.3153   -2.0921   -1.5992 H   0  0  0  0  0  0  0  0  0  0  0  0
   -2.8135   -4.1235   -0.7058 H   0  0  0  0  0  0  0  0  0  0  0  0
   -2.7872   -2.9063    2.0762 H   0  0  0  0  0  0  0  0  0  0  0  0
   -0.6098   -1.7982    1.1181 H   0  0  0  0  0  0  0  0  0  0  0  0
   -2.2777   -0.3680    1.5948 H   0  0  0  0  0  0  0  0  0  0  0  0
   -0.3748    0.4963    1.0648 H   0  0  0  0  0  0  0  0  0  0  0  0
    0.3312   -0.1398   -1.6944 H   0  0  0  0  0  0  0  0  0  0  0  0
    1.7215   -0.0233    0.8955 H   0  0  0  0  0  0  0  0  0  0  0  0
    3.1783    1.7039   -0.2122 H   0  0  0  0  0  0  0  0  0  0  0  0
    1.0642    2.0910    1.2545 H   0  0  0  0  0  0  0  0  0  0  0  0
   -0.0327    2.0335   -1.5561 H   0  0  0  0  0  0  0  0  0  0  0  0
   -1.0081    3.9428   -0.7488 H   0  0  0  0  0  0  0  0  0  0  0  0
   -3.0420    3.1556   -1.2459 H   0  0  0  0  0  0  0  0  0  0  0  0
   -3.6465    0.8406   -1.2592 H   0  0  0  0  0  0  0  0  0  0  0  0
   -4.5853    2.2052    0.3521 H   0  0  0  0  0  0  0  0  0  0  0  0
   -3.9631    4.4890    0.0207 H   0  0  0  0  0  0  0  0  0  0  0  0
   -1.2838    4.4651    1.2844 H   0  0  0  0  0  0  0  0  0  0  0  0
  1  2  1  0
  2  3  1  0
  3  4  1  0
  3  5  1  0
  5  6  1  0
  6  7  1  0
  1  8  1  0
  6  8  1  0
  8  9  1  0
  9 10  1  0
 10 11  1  0
 11 12  1  0
 12 13  1  0
 13 14  1  0
 14 15  1  0
 15 16  1  0
 16 17  1  0
 15 18  1  0
 16 18  1  0
 13 19  1  0
 18 19  1  0
 12 20  1  0
 20 21  1  0
 10 22  1  0
 21 22  1  0
 22 23  1  0
 23 24  1  0
  9 25  1  0
 24 25  1  0
 24 26  1  0
 26 27  1  0
 26 28  1  0
 23 29  1  0
 20 30  1  0
  1 31  1  0
  2 32  1  0
  5 33  1  0
 14 34  1  0
 14 35  1  0
 15 36  1  1
 16 37  1  0
 17 38  1  0
 17 39  1  0
 18 40  1  6
 19 41  1  0
 19 42  1  0
 21 43  1  0
 25 44  1  0
 45 46  1  0
 46 47  1  0
 47 48  1  0
 47 49  1  0
 49 50  1  0
 50 51  1  0
 45 52  1  0
 50 52  1  0
 52 53  1  0
 53 54  1  0
 54 55  1  0
 55 56  1  0
 56 57  1  0
 57 58  1  0
 58 59  1  0
 59 60  1  0
 60 61  1  0
 59 62  1  0
 60 62  1  0
 57 63  1  0
 62 63  1  0
 56 64  1  0
 64 65  1  0
 54 66  1  0
 65 66  1  0
 66 67  1  0
 67 68  1  0
 53 69  1  0
 68 69  1  0
 68 70  1  0
 70 71  1  0
 70 72  1  0
 67 73  1  0
 64 74  1  0
 45 75  1  0
 46 76  1  0
 49 77  1  0
 58 78  1  0
 58 79  1  0
 59 80  1  1
 60 81  1  0
 61 82  1  0
 61 83  1  0
 62 84  1  1
 63 85  1  0
 63 86  1  0
 65 87  1  0
 69 88  1  0
  1 89  1  0
  2 90  1  0
  3 91  1  0
  5 92  1  0
  6 93  1  0
  8 94  1  0
 10 95  1  0
 11 96  1  0
 12 97  1  0
 20 98  1  0
 21 99  1  0
 22100  1  0
 23101  1  0
 24102  1  0
 25103  1  0
 26104  1  0
 27105  1  0
 29106  1  0
 45107  1  0
 46108  1  0
 47109  1  0
 49110  1  0
 50111  1  0
 52112  1  0
 54113  1  0
 55114  1  0
 56115  1  0
 64116  1  0
 65117  1  0
 66118  1  0
 67119  1  0
 68120  1  0
 69121  1  0
 70122  1  0
 72123  1  0
 73124  1  0
M  CHG  2  28  -1  71  -1
M  END
>  <PDBID>  (1) 
4Z2E

>  <PDB ID>  (1) 
4Z2E

>  <Generic Name>  (1) 
Trovafloxacin

>  <Brand Name>  (1) 
Trovan I.V.#Trovan Tablets 100mg#Trovan Tablets 200mg#Trovan

>  <DrugBank ID>  (1) 
DB00685

>  <ATC Codes>  (1) 
J01MA13

>  <Ligand ID>  (1) 
TR6

>  <Target Name>  (1) 
DNA gyrase subunit A

>  <UniProt ID>  (1) 
P43700

>  <PDB ID.1>  (1) 
4Z2E

>  <Seq. Identity>  (1) 
50%

$$$$
