PDB_DB00396_00
     RDKit          3D

118124  0  0  0  0  0  0  0  0999 V2000
   -2.8208    1.4358   -0.7243 C   0  0  0  0  0  0  0  0  0  0  0  0
   -4.1661    0.9371   -1.1287 C   0  0  0  0  0  0  0  0  0  0  0  0
   -4.9801    0.3780    0.0066 C   0  0  0  0  0  0  0  0  0  0  0  0
   -6.0995   -0.2532   -0.5831 O   0  0  0  0  0  0  0  0  0  0  0  0
   -4.2219   -0.6539    0.8035 C   0  0  0  0  0  0  0  0  0  0  0  0
   -2.8693   -0.8132    0.1979 C   0  0  2  0  0  0  0  0  0  0  0  0
   -2.0753   -1.9435    0.8476 C   0  0  0  0  0  0  0  0  0  0  0  0
   -0.8578   -2.1321   -0.0356 C   0  0  0  0  0  0  0  0  0  0  0  0
    0.0213   -0.9252    0.1790 C   0  0  2  0  0  0  0  0  0  0  0  0
   -0.6965    0.3683   -0.2355 C   0  0  1  0  0  0  0  0  0  0  0  0
   -2.0935    0.4565    0.2102 C   0  0  1  0  0  0  0  0  0  0  0  0
    0.1800    1.4669    0.3256 C   0  0  0  0  0  0  0  0  0  0  0  0
    1.5850    1.4297   -0.1695 C   0  0  0  0  0  0  0  0  0  0  0  0
    2.2560    0.1073   -0.1058 C   0  0  1  0  0  0  0  0  0  0  0  0
    1.2611   -0.9343   -0.6170 C   0  0  1  0  0  0  0  0  0  0  0  0
    2.0726   -2.1561   -0.6297 C   0  0  0  0  0  0  0  0  0  0  0  0
    3.4120   -1.6485   -1.1695 C   0  0  0  0  0  0  0  0  0  0  0  0
    3.3492   -0.1268   -1.0943 C   0  0  2  0  0  0  0  0  0  0  0  0
    2.7869   -0.2524    1.2535 C   0  0  0  0  0  0  0  0  0  0  0  0
   -2.2375    1.0757    1.6068 C   0  0  0  0  0  0  0  0  0  0  0  0
    4.6852    0.4542   -0.7250 C   0  0  0  0  0  0  0  0  0  0  0  0
    5.5557    0.1045   -1.7919 O   0  0  0  0  0  0  0  0  0  0  0  0
    4.6563    1.9665   -0.5911 C   0  0  0  0  0  0  0  0  0  0  0  0
   -2.8208    1.4358   -0.7243 C   0  0  0  0  0  0  0  0  0  0  0  0
   -4.1661    0.9371   -1.1287 C   0  0  0  0  0  0  0  0  0  0  0  0
   -4.9801    0.3780    0.0066 C   0  0  0  0  0  0  0  0  0  0  0  0
   -6.0995   -0.2532   -0.5831 O   0  0  0  0  0  0  0  0  0  0  0  0
   -4.2219   -0.6539    0.8035 C   0  0  0  0  0  0  0  0  0  0  0  0
   -2.8693   -0.8132    0.1979 C   0  0  2  0  0  0  0  0  0  0  0  0
   -2.0753   -1.9435    0.8476 C   0  0  0  0  0  0  0  0  0  0  0  0
   -0.8578   -2.1321   -0.0356 C   0  0  0  0  0  0  0  0  0  0  0  0
    0.0213   -0.9252    0.1790 C   0  0  2  0  0  0  0  0  0  0  0  0
   -0.6965    0.3683   -0.2355 C   0  0  1  0  0  0  0  0  0  0  0  0
   -2.0935    0.4565    0.2102 C   0  0  1  0  0  0  0  0  0  0  0  0
    0.1800    1.4669    0.3256 C   0  0  0  0  0  0  0  0  0  0  0  0
    1.5850    1.4297   -0.1695 C   0  0  0  0  0  0  0  0  0  0  0  0
    2.2560    0.1073   -0.1058 C   0  0  1  0  0  0  0  0  0  0  0  0
    1.2611   -0.9343   -0.6170 C   0  0  1  0  0  0  0  0  0  0  0  0
    2.0726   -2.1561   -0.6297 C   0  0  0  0  0  0  0  0  0  0  0  0
    3.4120   -1.6485   -1.1695 C   0  0  0  0  0  0  0  0  0  0  0  0
    3.3492   -0.1268   -1.0943 C   0  0  2  0  0  0  0  0  0  0  0  0
    2.7869   -0.2524    1.2535 C   0  0  0  0  0  0  0  0  0  0  0  0
   -2.2375    1.0757    1.6068 C   0  0  0  0  0  0  0  0  0  0  0  0
    4.6852    0.4542   -0.7250 C   0  0  0  0  0  0  0  0  0  0  0  0
    5.5557    0.1045   -1.7919 O   0  0  0  0  0  0  0  0  0  0  0  0
    4.6563    1.9665   -0.5911 C   0  0  0  0  0  0  0  0  0  0  0  0
   -2.8917    2.4423   -0.2796 H   0  0  0  0  0  0  0  0  0  0  0  0
   -2.2254    1.5733   -1.6724 H   0  0  0  0  0  0  0  0  0  0  0  0
   -4.7395    1.8248   -1.5159 H   0  0  0  0  0  0  0  0  0  0  0  0
   -4.1396    0.2287   -1.9974 H   0  0  0  0  0  0  0  0  0  0  0  0
   -5.4040    1.1888    0.6369 H   0  0  0  0  0  0  0  0  0  0  0  0
   -6.7794   -0.4472    0.0909 H   0  0  0  0  0  0  0  0  0  0  0  0
   -4.1978   -0.4231    1.8827 H   0  0  0  0  0  0  0  0  0  0  0  0
   -4.7297   -1.6599    0.7340 H   0  0  0  0  0  0  0  0  0  0  0  0
   -3.0235   -1.1472   -0.8670 H   0  0  0  0  0  0  0  0  0  0  0  0
   -1.7354   -1.6237    1.8361 H   0  0  0  0  0  0  0  0  0  0  0  0
   -2.7085   -2.8491    0.8964 H   0  0  0  0  0  0  0  0  0  0  0  0
   -1.2390   -2.1927   -1.0836 H   0  0  0  0  0  0  0  0  0  0  0  0
   -0.2949   -3.0128    0.2671 H   0  0  0  0  0  0  0  0  0  0  0  0
    0.1449   -0.8290    1.2789 H   0  0  0  0  0  0  0  0  0  0  0  0
   -0.6305    0.4343   -1.3423 H   0  0  0  0  0  0  0  0  0  0  0  0
    0.2246    1.2740    1.4380 H   0  0  0  0  0  0  0  0  0  0  0  0
   -0.2368    2.4666    0.1111 H   0  0  0  0  0  0  0  0  0  0  0  0
    2.1346    2.2216    0.3995 H   0  0  0  0  0  0  0  0  0  0  0  0
    1.5605    1.7465   -1.2522 H   0  0  0  0  0  0  0  0  0  0  0  0
    1.0256   -0.6127   -1.6621 H   0  0  0  0  0  0  0  0  0  0  0  0
    2.1755   -2.6373    0.3425 H   0  0  0  0  0  0  0  0  0  0  0  0
    1.6334   -2.8921   -1.3386 H   0  0  0  0  0  0  0  0  0  0  0  0
    3.5568   -1.9922   -2.2250 H   0  0  0  0  0  0  0  0  0  0  0  0
    4.1919   -2.0604   -0.5056 H   0  0  0  0  0  0  0  0  0  0  0  0
    3.1023    0.2766   -2.1075 H   0  0  0  0  0  0  0  0  0  0  0  0
    3.6250   -1.0040    1.1535 H   0  0  0  0  0  0  0  0  0  0  0  0
    2.0615   -0.7281    1.9289 H   0  0  0  0  0  0  0  0  0  0  0  0
    3.2453    0.6380    1.7289 H   0  0  0  0  0  0  0  0  0  0  0  0
   -1.9255    0.3422    2.3491 H   0  0  0  0  0  0  0  0  0  0  0  0
   -1.6509    2.0399    1.6606 H   0  0  0  0  0  0  0  0  0  0  0  0
   -3.2974    1.4017    1.7649 H   0  0  0  0  0  0  0  0  0  0  0  0
    5.0895    0.0692    0.2333 H   0  0  0  0  0  0  0  0  0  0  0  0
    5.3140    0.6313   -2.5833 H   0  0  0  0  0  0  0  0  0  0  0  0
    4.5151    2.2380    0.4728 H   0  0  0  0  0  0  0  0  0  0  0  0
    5.6780    2.3277   -0.9081 H   0  0  0  0  0  0  0  0  0  0  0  0
    3.8683    2.4047   -1.2216 H   0  0  0  0  0  0  0  0  0  0  0  0
   -2.8917    2.4423   -0.2796 H   0  0  0  0  0  0  0  0  0  0  0  0
   -2.2254    1.5733   -1.6724 H   0  0  0  0  0  0  0  0  0  0  0  0
   -4.7395    1.8248   -1.5159 H   0  0  0  0  0  0  0  0  0  0  0  0
   -4.1396    0.2287   -1.9974 H   0  0  0  0  0  0  0  0  0  0  0  0
   -5.4040    1.1888    0.6369 H   0  0  0  0  0  0  0  0  0  0  0  0
   -6.7794   -0.4472    0.0909 H   0  0  0  0  0  0  0  0  0  0  0  0
   -4.1978   -0.4231    1.8827 H   0  0  0  0  0  0  0  0  0  0  0  0
   -4.7297   -1.6599    0.7340 H   0  0  0  0  0  0  0  0  0  0  0  0
   -3.0235   -1.1472   -0.8670 H   0  0  0  0  0  0  0  0  0  0  0  0
   -1.7354   -1.6237    1.8361 H   0  0  0  0  0  0  0  0  0  0  0  0
   -2.7085   -2.8491    0.8964 H   0  0  0  0  0  0  0  0  0  0  0  0
   -1.2390   -2.1927   -1.0836 H   0  0  0  0  0  0  0  0  0  0  0  0
   -0.2949   -3.0128    0.2671 H   0  0  0  0  0  0  0  0  0  0  0  0
    0.1449   -0.8290    1.2789 H   0  0  0  0  0  0  0  0  0  0  0  0
   -0.6305    0.4343   -1.3423 H   0  0  0  0  0  0  0  0  0  0  0  0
    0.2246    1.2740    1.4380 H   0  0  0  0  0  0  0  0  0  0  0  0
   -0.2368    2.4666    0.1111 H   0  0  0  0  0  0  0  0  0  0  0  0
    2.1346    2.2216    0.3995 H   0  0  0  0  0  0  0  0  0  0  0  0
    1.5605    1.7465   -1.2522 H   0  0  0  0  0  0  0  0  0  0  0  0
    1.0256   -0.6127   -1.6621 H   0  0  0  0  0  0  0  0  0  0  0  0
    2.1755   -2.6373    0.3425 H   0  0  0  0  0  0  0  0  0  0  0  0
    1.6334   -2.8921   -1.3386 H   0  0  0  0  0  0  0  0  0  0  0  0
    3.5568   -1.9922   -2.2250 H   0  0  0  0  0  0  0  0  0  0  0  0
    4.1919   -2.0604   -0.5056 H   0  0  0  0  0  0  0  0  0  0  0  0
    3.1023    0.2766   -2.1075 H   0  0  0  0  0  0  0  0  0  0  0  0
    3.6250   -1.0040    1.1535 H   0  0  0  0  0  0  0  0  0  0  0  0
    2.0615   -0.7281    1.9289 H   0  0  0  0  0  0  0  0  0  0  0  0
    3.2453    0.6380    1.7289 H   0  0  0  0  0  0  0  0  0  0  0  0
   -1.9255    0.3422    2.3491 H   0  0  0  0  0  0  0  0  0  0  0  0
   -1.6509    2.0399    1.6606 H   0  0  0  0  0  0  0  0  0  0  0  0
   -3.2974    1.4017    1.7649 H   0  0  0  0  0  0  0  0  0  0  0  0
    5.0895    0.0692    0.2333 H   0  0  0  0  0  0  0  0  0  0  0  0
    5.3140    0.6313   -2.5833 H   0  0  0  0  0  0  0  0  0  0  0  0
    4.5151    2.2380    0.4728 H   0  0  0  0  0  0  0  0  0  0  0  0
    5.6780    2.3277   -0.9081 H   0  0  0  0  0  0  0  0  0  0  0  0
    3.8683    2.4047   -1.2216 H   0  0  0  0  0  0  0  0  0  0  0  0
  1  2  1  0
  2  3  1  0
  3  4  1  0
  3  5  1  0
  5  6  1  0
  6  7  1  0
  7  8  1  0
  8  9  1  0
  9 10  1  0
  1 11  1  0
  6 11  1  0
 10 11  1  0
 10 12  1  0
 12 13  1  0
 13 14  1  0
  9 15  1  0
 14 15  1  0
 15 16  1  0
 16 17  1  0
 14 18  1  0
 17 18  1  0
 14 19  1  1
 11 20  1  1
 18 21  1  0
 21 22  1  0
 21 23  1  0
 24 25  1  0
 25 26  1  0
 26 27  1  0
 26 28  1  0
 28 29  1  0
 29 30  1  0
 30 31  1  0
 31 32  1  0
 32 33  1  0
 24 34  1  0
 29 34  1  0
 33 34  1  0
 33 35  1  0
 35 36  1  0
 36 37  1  0
 32 38  1  0
 37 38  1  0
 38 39  1  0
 39 40  1  0
 37 41  1  0
 40 41  1  0
 37 42  1  1
 34 43  1  1
 41 44  1  0
 44 45  1  0
 44 46  1  0
  1 47  1  0
  1 48  1  0
  2 49  1  0
  2 50  1  0
  3 51  1  0
  4 52  1  0
  5 53  1  0
  5 54  1  0
  6 55  1  6
  7 56  1  0
  7 57  1  0
  8 58  1  0
  8 59  1  0
  9 60  1  1
 10 61  1  6
 12 62  1  0
 12 63  1  0
 13 64  1  0
 13 65  1  0
 15 66  1  6
 16 67  1  0
 16 68  1  0
 17 69  1  0
 17 70  1  0
 18 71  1  6
 19 72  1  0
 19 73  1  0
 19 74  1  0
 20 75  1  0
 20 76  1  0
 20 77  1  0
 21 78  1  0
 22 79  1  0
 23 80  1  0
 23 81  1  0
 23 82  1  0
 24 83  1  0
 24 84  1  0
 25 85  1  0
 25 86  1  0
 26 87  1  0
 27 88  1  0
 28 89  1  0
 28 90  1  0
 29 91  1  6
 30 92  1  0
 30 93  1  0
 31 94  1  0
 31 95  1  0
 32 96  1  1
 33 97  1  6
 35 98  1  0
 35 99  1  0
 36100  1  0
 36101  1  0
 38102  1  6
 39103  1  0
 39104  1  0
 40105  1  0
 40106  1  0
 41107  1  6
 42108  1  0
 42109  1  0
 42110  1  0
 43111  1  0
 43112  1  0
 43113  1  0
 44114  1  0
 45115  1  0
 46116  1  0
 46117  1  0
 46118  1  0
M  END
>  <PDBID>  (1) 
4FN9

>  <PDB ID>  (1) 
4FN9

>  <Generic Name>  (1) 
Progesterone

>  <Brand Name>  (1) 
Act Progesterone Injection#Crinone#Endometrin#Estrogel Propak#Gesterol In Oil-liq Im 50mg/ml#PMS-progesterone Inj 50mg/ml USP#Prochieve#Progesterone#Progesterone Inj 50mg/ml USP#Progesterone Injection USP#Prometrium#Teva-progesterone#Agolutin#Cyclogest#Gesterol#Gestone#Progestasert#Progestogel#Qi Ning#Relantan#Susten#Utrogestan#Utrogestran#Utrovin#Vasclor

>  <DrugBank ID>  (1) 
DB00396

>  <ATC Codes>  (1) 
G03DA04#G03FA04

>  <Ligand ID>  (1) 
STR

>  <Target Name>  (1) 
Estrogen receptor

>  <UniProt ID>  (1) 
P03372

>  <PDB ID.1>  (1) 
4FN9

>  <Seq. Identity>  (1) 
32%

$$$$
