PDB_DB00642_05
     RDKit          3D

288296  0  0  0  0  0  0  0  0999 V2000
   -0.9552   -0.4949   -0.5225 C   0  0  0  0  0  0  0  0  0  0  0  0
    0.2747   -0.5655   -1.4005 C   0  0  0  0  0  0  0  0  0  0  0  0
    1.3735    0.3309   -0.9123 C   0  0  0  0  0  0  0  0  0  0  0  0
    1.7822    0.0576    0.4955 C   0  0  0  0  0  0  0  0  0  0  0  0
    0.7951   -0.8683    1.1133 C   0  0  0  0  0  0  0  0  0  0  0  0
   -0.5925   -0.2687    0.9244 C   0  0  0  0  0  0  0  0  0  0  0  0
   -1.8368    0.5898   -1.0743 C   0  0  0  0  0  0  0  0  0  0  0  0
   -3.1039    0.8001   -0.3248 C   0  0  0  0  0  0  0  0  0  0  0  0
   -4.0268   -0.3723   -0.2534 C   0  0  0  0  0  0  0  0  0  0  0  0
   -4.5220   -0.9027   -1.5308 C   0  0  0  0  0  0  0  0  0  0  0  0
   -5.8215   -0.3532   -1.7952 N   0  0  0  0  0  0  0  0  0  0  0  0
   -6.1776    0.4917   -0.6852 C   0  0  0  0  0  0  0  0  0  0  0  0
   -5.2810    0.0745    0.4562 C   0  0  0  0  0  0  0  0  0  0  0  0
   -5.9707   -1.0094    1.2254 C   0  0  0  0  0  0  0  0  0  0  0  0
   -6.6521   -1.9069    0.4154 O   0  0  0  0  0  0  0  0  0  0  0  0
   -6.9892   -0.3398    2.0327 N   0  0  0  0  0  0  0  0  0  0  0  0
   -7.7334    0.5736    1.1653 C   0  0  0  0  0  0  0  0  0  0  0  0
   -7.5435    0.2498   -0.2351 N   0  0  0  0  0  0  0  0  0  0  0  0
   -7.3608    1.9699    1.4131 N   0  0  0  0  0  0  0  0  0  0  0  0
    3.1874   -0.5817    0.4160 C   0  0  0  0  0  0  0  0  0  0  0  0
    2.9928   -1.7338   -0.3456 O   0  0  0  0  0  0  0  0  0  0  0  0
    4.0016    0.3687   -0.2394 N   0  0  0  0  0  0  0  0  0  0  0  0
    5.4200    0.2856   -0.0594 C   0  0  1  0  0  0  0  0  0  0  0  0
    5.8607    0.4504    1.3491 C   0  0  0  0  0  0  0  0  0  0  0  0
    7.3320    0.3824    1.5071 C   0  0  0  0  0  0  0  0  0  0  0  0
    8.1533    1.4180    0.8369 C   0  0  0  0  0  0  0  0  0  0  0  0
    8.0602    1.5000   -0.5372 O   0  0  0  0  0  0  0  0  0  0  0  0
    9.5053    1.0834    1.1006 O   0  0  0  0  0  0  0  0  0  0  0  0
    6.0097   -0.9351   -0.7468 C   0  0  0  0  0  0  0  0  0  0  0  0
    5.7517   -0.8990   -2.1264 O   0  0  0  0  0  0  0  0  0  0  0  0
    5.5242   -2.1324   -0.2611 O   0  0  0  0  0  0  0  0  0  0  0  0
   -0.9552   -0.4949   -0.5225 C   0  0  0  0  0  0  0  0  0  0  0  0
    0.2747   -0.5655   -1.4005 C   0  0  0  0  0  0  0  0  0  0  0  0
    1.3735    0.3309   -0.9123 C   0  0  0  0  0  0  0  0  0  0  0  0
    1.7822    0.0576    0.4955 C   0  0  0  0  0  0  0  0  0  0  0  0
    0.7951   -0.8683    1.1133 C   0  0  0  0  0  0  0  0  0  0  0  0
   -0.5925   -0.2687    0.9244 C   0  0  0  0  0  0  0  0  0  0  0  0
   -1.8368    0.5898   -1.0743 C   0  0  0  0  0  0  0  0  0  0  0  0
   -3.1039    0.8001   -0.3248 C   0  0  0  0  0  0  0  0  0  0  0  0
   -4.0268   -0.3723   -0.2534 C   0  0  0  0  0  0  0  0  0  0  0  0
   -4.5220   -0.9027   -1.5308 C   0  0  0  0  0  0  0  0  0  0  0  0
   -5.8215   -0.3532   -1.7952 N   0  0  0  0  0  0  0  0  0  0  0  0
   -6.1776    0.4917   -0.6852 C   0  0  0  0  0  0  0  0  0  0  0  0
   -5.2810    0.0745    0.4562 C   0  0  0  0  0  0  0  0  0  0  0  0
   -5.9707   -1.0094    1.2254 C   0  0  0  0  0  0  0  0  0  0  0  0
   -6.6521   -1.9069    0.4154 O   0  0  0  0  0  0  0  0  0  0  0  0
   -6.9892   -0.3398    2.0327 N   0  0  0  0  0  0  0  0  0  0  0  0
   -7.7334    0.5736    1.1653 C   0  0  0  0  0  0  0  0  0  0  0  0
   -7.5435    0.2498   -0.2351 N   0  0  0  0  0  0  0  0  0  0  0  0
   -7.3608    1.9699    1.4131 N   0  0  0  0  0  0  0  0  0  0  0  0
    3.1874   -0.5817    0.4160 C   0  0  0  0  0  0  0  0  0  0  0  0
    2.9928   -1.7338   -0.3456 O   0  0  0  0  0  0  0  0  0  0  0  0
    4.0016    0.3687   -0.2394 N   0  0  0  0  0  0  0  0  0  0  0  0
    5.4200    0.2856   -0.0594 C   0  0  1  0  0  0  0  0  0  0  0  0
    5.8607    0.4504    1.3491 C   0  0  0  0  0  0  0  0  0  0  0  0
    7.3320    0.3824    1.5071 C   0  0  0  0  0  0  0  0  0  0  0  0
    8.1533    1.4180    0.8369 C   0  0  0  0  0  0  0  0  0  0  0  0
    8.0602    1.5000   -0.5372 O   0  0  0  0  0  0  0  0  0  0  0  0
    9.5053    1.0834    1.1006 O   0  0  0  0  0  0  0  0  0  0  0  0
    6.0097   -0.9351   -0.7468 C   0  0  0  0  0  0  0  0  0  0  0  0
    5.7517   -0.8990   -2.1264 O   0  0  0  0  0  0  0  0  0  0  0  0
    5.5242   -2.1324   -0.2611 O   0  0  0  0  0  0  0  0  0  0  0  0
   -0.9552   -0.4949   -0.5225 C   0  0  0  0  0  0  0  0  0  0  0  0
    0.2747   -0.5655   -1.4005 C   0  0  0  0  0  0  0  0  0  0  0  0
    1.3735    0.3309   -0.9123 C   0  0  0  0  0  0  0  0  0  0  0  0
    1.7822    0.0576    0.4955 C   0  0  0  0  0  0  0  0  0  0  0  0
    0.7951   -0.8683    1.1133 C   0  0  0  0  0  0  0  0  0  0  0  0
   -0.5925   -0.2687    0.9244 C   0  0  0  0  0  0  0  0  0  0  0  0
   -1.8368    0.5898   -1.0743 C   0  0  0  0  0  0  0  0  0  0  0  0
   -3.1039    0.8001   -0.3248 C   0  0  0  0  0  0  0  0  0  0  0  0
   -4.0268   -0.3723   -0.2534 C   0  0  0  0  0  0  0  0  0  0  0  0
   -4.5220   -0.9027   -1.5308 C   0  0  0  0  0  0  0  0  0  0  0  0
   -5.8215   -0.3532   -1.7952 N   0  0  0  0  0  0  0  0  0  0  0  0
   -6.1776    0.4917   -0.6852 C   0  0  0  0  0  0  0  0  0  0  0  0
   -5.2810    0.0745    0.4562 C   0  0  0  0  0  0  0  0  0  0  0  0
   -5.9707   -1.0094    1.2254 C   0  0  0  0  0  0  0  0  0  0  0  0
   -6.6521   -1.9069    0.4154 O   0  0  0  0  0  0  0  0  0  0  0  0
   -6.9892   -0.3398    2.0327 N   0  0  0  0  0  0  0  0  0  0  0  0
   -7.7334    0.5736    1.1653 C   0  0  0  0  0  0  0  0  0  0  0  0
   -7.5435    0.2498   -0.2351 N   0  0  0  0  0  0  0  0  0  0  0  0
   -7.3608    1.9699    1.4131 N   0  0  0  0  0  0  0  0  0  0  0  0
    3.1874   -0.5817    0.4160 C   0  0  0  0  0  0  0  0  0  0  0  0
    2.9928   -1.7338   -0.3456 O   0  0  0  0  0  0  0  0  0  0  0  0
    4.0016    0.3687   -0.2394 N   0  0  0  0  0  0  0  0  0  0  0  0
    5.4200    0.2856   -0.0594 C   0  0  1  0  0  0  0  0  0  0  0  0
    5.8607    0.4504    1.3491 C   0  0  0  0  0  0  0  0  0  0  0  0
    7.3320    0.3824    1.5071 C   0  0  0  0  0  0  0  0  0  0  0  0
    8.1533    1.4180    0.8369 C   0  0  0  0  0  0  0  0  0  0  0  0
    8.0602    1.5000   -0.5372 O   0  0  0  0  0  0  0  0  0  0  0  0
    9.5053    1.0834    1.1006 O   0  0  0  0  0  0  0  0  0  0  0  0
    6.0097   -0.9351   -0.7468 C   0  0  0  0  0  0  0  0  0  0  0  0
    5.7517   -0.8990   -2.1264 O   0  0  0  0  0  0  0  0  0  0  0  0
    5.5242   -2.1324   -0.2611 O   0  0  0  0  0  0  0  0  0  0  0  0
   -0.9552   -0.4949   -0.5225 C   0  0  0  0  0  0  0  0  0  0  0  0
    0.2747   -0.5655   -1.4005 C   0  0  0  0  0  0  0  0  0  0  0  0
    1.3735    0.3309   -0.9123 C   0  0  0  0  0  0  0  0  0  0  0  0
    1.7822    0.0576    0.4955 C   0  0  0  0  0  0  0  0  0  0  0  0
    0.7951   -0.8683    1.1133 C   0  0  0  0  0  0  0  0  0  0  0  0
   -0.5925   -0.2687    0.9244 C   0  0  0  0  0  0  0  0  0  0  0  0
   -1.8368    0.5898   -1.0743 C   0  0  0  0  0  0  0  0  0  0  0  0
   -3.1039    0.8001   -0.3248 C   0  0  0  0  0  0  0  0  0  0  0  0
   -4.0268   -0.3723   -0.2534 C   0  0  0  0  0  0  0  0  0  0  0  0
   -4.5220   -0.9027   -1.5308 C   0  0  0  0  0  0  0  0  0  0  0  0
   -5.8215   -0.3532   -1.7952 N   0  0  0  0  0  0  0  0  0  0  0  0
   -6.1776    0.4917   -0.6852 C   0  0  0  0  0  0  0  0  0  0  0  0
   -5.2810    0.0745    0.4562 C   0  0  0  0  0  0  0  0  0  0  0  0
   -5.9707   -1.0094    1.2254 C   0  0  0  0  0  0  0  0  0  0  0  0
   -6.6521   -1.9069    0.4154 O   0  0  0  0  0  0  0  0  0  0  0  0
   -6.9892   -0.3398    2.0327 N   0  0  0  0  0  0  0  0  0  0  0  0
   -7.7334    0.5736    1.1653 C   0  0  0  0  0  0  0  0  0  0  0  0
   -7.5435    0.2498   -0.2351 N   0  0  0  0  0  0  0  0  0  0  0  0
   -7.3608    1.9699    1.4131 N   0  0  0  0  0  0  0  0  0  0  0  0
    3.1874   -0.5817    0.4160 C   0  0  0  0  0  0  0  0  0  0  0  0
    2.9928   -1.7338   -0.3456 O   0  0  0  0  0  0  0  0  0  0  0  0
    4.0016    0.3687   -0.2394 N   0  0  0  0  0  0  0  0  0  0  0  0
    5.4200    0.2856   -0.0594 C   0  0  1  0  0  0  0  0  0  0  0  0
    5.8607    0.4504    1.3491 C   0  0  0  0  0  0  0  0  0  0  0  0
    7.3320    0.3824    1.5071 C   0  0  0  0  0  0  0  0  0  0  0  0
    8.1533    1.4180    0.8369 C   0  0  0  0  0  0  0  0  0  0  0  0
    8.0602    1.5000   -0.5372 O   0  0  0  0  0  0  0  0  0  0  0  0
    9.5053    1.0834    1.1006 O   0  0  0  0  0  0  0  0  0  0  0  0
    6.0097   -0.9351   -0.7468 C   0  0  0  0  0  0  0  0  0  0  0  0
    5.7517   -0.8990   -2.1264 O   0  0  0  0  0  0  0  0  0  0  0  0
    5.5242   -2.1324   -0.2611 O   0  0  0  0  0  0  0  0  0  0  0  0
   -1.4630   -1.4730   -0.5861 H   0  0  0  0  0  0  0  0  0  0  0  0
   -0.0189   -0.2483   -2.4130 H   0  0  0  0  0  0  0  0  0  0  0  0
    0.6498   -1.5920   -1.4595 H   0  0  0  0  0  0  0  0  0  0  0  0
    0.9586    1.3846   -0.9391 H   0  0  0  0  0  0  0  0  0  0  0  0
    2.2469    0.3516   -1.5765 H   0  0  0  0  0  0  0  0  0  0  0  0
    1.8547    0.9733    1.1205 H   0  0  0  0  0  0  0  0  0  0  0  0
    0.8009   -1.8272    0.5489 H   0  0  0  0  0  0  0  0  0  0  0  0
    0.9963   -1.0810    2.1860 H   0  0  0  0  0  0  0  0  0  0  0  0
   -0.4985    0.7922    1.2002 H   0  0  0  0  0  0  0  0  0  0  0  0
   -1.2704   -0.8573    1.5637 H   0  0  0  0  0  0  0  0  0  0  0  0
   -1.9511    0.4143   -2.1474 H   0  0  0  0  0  0  0  0  0  0  0  0
   -1.2633    1.5528   -0.9948 H   0  0  0  0  0  0  0  0  0  0  0  0
   -2.8576    1.0901    0.7184 H   0  0  0  0  0  0  0  0  0  0  0  0
   -3.6269    1.6801   -0.7572 H   0  0  0  0  0  0  0  0  0  0  0  0
   -3.5386   -1.1826    0.3592 H   0  0  0  0  0  0  0  0  0  0  0  0
   -4.6619   -2.0197   -1.4097 H   0  0  0  0  0  0  0  0  0  0  0  0
   -3.8292   -0.8146   -2.3908 H   0  0  0  0  0  0  0  0  0  0  0  0
   -5.7591    0.1797   -2.7067 H   0  0  0  0  0  0  0  0  0  0  0  0
   -6.0336    1.5382   -0.9814 H   0  0  0  0  0  0  0  0  0  0  0  0
   -5.0878    0.9089    1.1514 H   0  0  0  0  0  0  0  0  0  0  0  0
   -5.2889   -1.5056    1.9368 H   0  0  0  0  0  0  0  0  0  0  0  0
   -7.4359   -2.3101    0.8696 H   0  0  0  0  0  0  0  0  0  0  0  0
   -7.6926   -1.0525    2.3625 H   0  0  0  0  0  0  0  0  0  0  0  0
   -8.8352    0.4866    1.3498 H   0  0  0  0  0  0  0  0  0  0  0  0
   -8.1404    0.9029   -0.7818 H   0  0  0  0  0  0  0  0  0  0  0  0
   -8.1820    2.4985    1.8223 H   0  0  0  0  0  0  0  0  0  0  0  0
   -7.1748    2.4616    0.5010 H   0  0  0  0  0  0  0  0  0  0  0  0
    3.5518   -0.8194    1.4375 H   0  0  0  0  0  0  0  0  0  0  0  0
    2.7473   -2.4967    0.2388 H   0  0  0  0  0  0  0  0  0  0  0  0
    3.6039    1.3110   -0.2744 H   0  0  0  0  0  0  0  0  0  0  0  0
    5.8311    1.1618   -0.6465 H   0  0  0  0  0  0  0  0  0  0  0  0
    5.5326    1.4628    1.6838 H   0  0  0  0  0  0  0  0  0  0  0  0
    5.4305   -0.3427    2.0185 H   0  0  0  0  0  0  0  0  0  0  0  0
    7.7644   -0.6101    1.2286 H   0  0  0  0  0  0  0  0  0  0  0  0
    7.5289    0.4310    2.6262 H   0  0  0  0  0  0  0  0  0  0  0  0
    7.9455    2.4268    1.3093 H   0  0  0  0  0  0  0  0  0  0  0  0
    7.9068    2.4528   -0.8092 H   0  0  0  0  0  0  0  0  0  0  0  0
    9.7388    0.3972    0.4193 H   0  0  0  0  0  0  0  0  0  0  0  0
    7.1165   -0.9981   -0.6484 H   0  0  0  0  0  0  0  0  0  0  0  0
    5.4175   -0.0303   -2.4337 H   0  0  0  0  0  0  0  0  0  0  0  0
    5.5296   -2.8603   -0.8993 H   0  0  0  0  0  0  0  0  0  0  0  0
   -1.4630   -1.4730   -0.5861 H   0  0  0  0  0  0  0  0  0  0  0  0
   -0.0189   -0.2483   -2.4130 H   0  0  0  0  0  0  0  0  0  0  0  0
    0.6498   -1.5920   -1.4595 H   0  0  0  0  0  0  0  0  0  0  0  0
    0.9586    1.3846   -0.9391 H   0  0  0  0  0  0  0  0  0  0  0  0
    2.2469    0.3516   -1.5765 H   0  0  0  0  0  0  0  0  0  0  0  0
    1.8547    0.9733    1.1205 H   0  0  0  0  0  0  0  0  0  0  0  0
    0.8009   -1.8272    0.5489 H   0  0  0  0  0  0  0  0  0  0  0  0
    0.9963   -1.0810    2.1860 H   0  0  0  0  0  0  0  0  0  0  0  0
   -0.4985    0.7922    1.2002 H   0  0  0  0  0  0  0  0  0  0  0  0
   -1.2704   -0.8573    1.5637 H   0  0  0  0  0  0  0  0  0  0  0  0
   -1.9511    0.4143   -2.1474 H   0  0  0  0  0  0  0  0  0  0  0  0
   -1.2633    1.5528   -0.9948 H   0  0  0  0  0  0  0  0  0  0  0  0
   -2.8576    1.0901    0.7184 H   0  0  0  0  0  0  0  0  0  0  0  0
   -3.6269    1.6801   -0.7572 H   0  0  0  0  0  0  0  0  0  0  0  0
   -3.5386   -1.1826    0.3592 H   0  0  0  0  0  0  0  0  0  0  0  0
   -4.6619   -2.0197   -1.4097 H   0  0  0  0  0  0  0  0  0  0  0  0
   -3.8292   -0.8146   -2.3908 H   0  0  0  0  0  0  0  0  0  0  0  0
   -5.7591    0.1797   -2.7067 H   0  0  0  0  0  0  0  0  0  0  0  0
   -6.0336    1.5382   -0.9814 H   0  0  0  0  0  0  0  0  0  0  0  0
   -5.0878    0.9089    1.1514 H   0  0  0  0  0  0  0  0  0  0  0  0
   -5.2889   -1.5056    1.9368 H   0  0  0  0  0  0  0  0  0  0  0  0
   -7.4359   -2.3101    0.8696 H   0  0  0  0  0  0  0  0  0  0  0  0
   -7.6926   -1.0525    2.3625 H   0  0  0  0  0  0  0  0  0  0  0  0
   -8.8352    0.4866    1.3498 H   0  0  0  0  0  0  0  0  0  0  0  0
   -8.1404    0.9029   -0.7818 H   0  0  0  0  0  0  0  0  0  0  0  0
   -8.1820    2.4985    1.8223 H   0  0  0  0  0  0  0  0  0  0  0  0
   -7.1748    2.4616    0.5010 H   0  0  0  0  0  0  0  0  0  0  0  0
    3.5518   -0.8194    1.4375 H   0  0  0  0  0  0  0  0  0  0  0  0
    2.7473   -2.4967    0.2388 H   0  0  0  0  0  0  0  0  0  0  0  0
    3.6039    1.3110   -0.2744 H   0  0  0  0  0  0  0  0  0  0  0  0
    5.8311    1.1618   -0.6465 H   0  0  0  0  0  0  0  0  0  0  0  0
    5.5326    1.4628    1.6838 H   0  0  0  0  0  0  0  0  0  0  0  0
    5.4305   -0.3427    2.0185 H   0  0  0  0  0  0  0  0  0  0  0  0
    7.7644   -0.6101    1.2286 H   0  0  0  0  0  0  0  0  0  0  0  0
    7.5289    0.4310    2.6262 H   0  0  0  0  0  0  0  0  0  0  0  0
    7.9455    2.4268    1.3093 H   0  0  0  0  0  0  0  0  0  0  0  0
    7.9068    2.4528   -0.8092 H   0  0  0  0  0  0  0  0  0  0  0  0
    9.7388    0.3972    0.4193 H   0  0  0  0  0  0  0  0  0  0  0  0
    7.1165   -0.9981   -0.6484 H   0  0  0  0  0  0  0  0  0  0  0  0
    5.4175   -0.0303   -2.4337 H   0  0  0  0  0  0  0  0  0  0  0  0
    5.5296   -2.8603   -0.8993 H   0  0  0  0  0  0  0  0  0  0  0  0
   -1.4630   -1.4730   -0.5861 H   0  0  0  0  0  0  0  0  0  0  0  0
   -0.0189   -0.2483   -2.4130 H   0  0  0  0  0  0  0  0  0  0  0  0
    0.6498   -1.5920   -1.4595 H   0  0  0  0  0  0  0  0  0  0  0  0
    0.9586    1.3846   -0.9391 H   0  0  0  0  0  0  0  0  0  0  0  0
    2.2469    0.3516   -1.5765 H   0  0  0  0  0  0  0  0  0  0  0  0
    1.8547    0.9733    1.1205 H   0  0  0  0  0  0  0  0  0  0  0  0
    0.8009   -1.8272    0.5489 H   0  0  0  0  0  0  0  0  0  0  0  0
    0.9963   -1.0810    2.1860 H   0  0  0  0  0  0  0  0  0  0  0  0
   -0.4985    0.7922    1.2002 H   0  0  0  0  0  0  0  0  0  0  0  0
   -1.2704   -0.8573    1.5637 H   0  0  0  0  0  0  0  0  0  0  0  0
   -1.9511    0.4143   -2.1474 H   0  0  0  0  0  0  0  0  0  0  0  0
   -1.2633    1.5528   -0.9948 H   0  0  0  0  0  0  0  0  0  0  0  0
   -2.8576    1.0901    0.7184 H   0  0  0  0  0  0  0  0  0  0  0  0
   -3.6269    1.6801   -0.7572 H   0  0  0  0  0  0  0  0  0  0  0  0
   -3.5386   -1.1826    0.3592 H   0  0  0  0  0  0  0  0  0  0  0  0
   -4.6619   -2.0197   -1.4097 H   0  0  0  0  0  0  0  0  0  0  0  0
   -3.8292   -0.8146   -2.3908 H   0  0  0  0  0  0  0  0  0  0  0  0
   -5.7591    0.1797   -2.7067 H   0  0  0  0  0  0  0  0  0  0  0  0
   -6.0336    1.5382   -0.9814 H   0  0  0  0  0  0  0  0  0  0  0  0
   -5.0878    0.9089    1.1514 H   0  0  0  0  0  0  0  0  0  0  0  0
   -5.2889   -1.5056    1.9368 H   0  0  0  0  0  0  0  0  0  0  0  0
   -7.4359   -2.3101    0.8696 H   0  0  0  0  0  0  0  0  0  0  0  0
   -7.6926   -1.0525    2.3625 H   0  0  0  0  0  0  0  0  0  0  0  0
   -8.8352    0.4866    1.3498 H   0  0  0  0  0  0  0  0  0  0  0  0
   -8.1404    0.9029   -0.7818 H   0  0  0  0  0  0  0  0  0  0  0  0
   -8.1820    2.4985    1.8223 H   0  0  0  0  0  0  0  0  0  0  0  0
   -7.1748    2.4616    0.5010 H   0  0  0  0  0  0  0  0  0  0  0  0
    3.5518   -0.8194    1.4375 H   0  0  0  0  0  0  0  0  0  0  0  0
    2.7473   -2.4967    0.2388 H   0  0  0  0  0  0  0  0  0  0  0  0
    3.6039    1.3110   -0.2744 H   0  0  0  0  0  0  0  0  0  0  0  0
    5.8311    1.1618   -0.6465 H   0  0  0  0  0  0  0  0  0  0  0  0
    5.5326    1.4628    1.6838 H   0  0  0  0  0  0  0  0  0  0  0  0
    5.4305   -0.3427    2.0185 H   0  0  0  0  0  0  0  0  0  0  0  0
    7.7644   -0.6101    1.2286 H   0  0  0  0  0  0  0  0  0  0  0  0
    7.5289    0.4310    2.6262 H   0  0  0  0  0  0  0  0  0  0  0  0
    7.9455    2.4268    1.3093 H   0  0  0  0  0  0  0  0  0  0  0  0
    7.9068    2.4528   -0.8092 H   0  0  0  0  0  0  0  0  0  0  0  0
    9.7388    0.3972    0.4193 H   0  0  0  0  0  0  0  0  0  0  0  0
    7.1165   -0.9981   -0.6484 H   0  0  0  0  0  0  0  0  0  0  0  0
    5.4175   -0.0303   -2.4337 H   0  0  0  0  0  0  0  0  0  0  0  0
    5.5296   -2.8603   -0.8993 H   0  0  0  0  0  0  0  0  0  0  0  0
   -1.4630   -1.4730   -0.5861 H   0  0  0  0  0  0  0  0  0  0  0  0
   -0.0189   -0.2483   -2.4130 H   0  0  0  0  0  0  0  0  0  0  0  0
    0.6498   -1.5920   -1.4595 H   0  0  0  0  0  0  0  0  0  0  0  0
    0.9586    1.3846   -0.9391 H   0  0  0  0  0  0  0  0  0  0  0  0
    2.2469    0.3516   -1.5765 H   0  0  0  0  0  0  0  0  0  0  0  0
    1.8547    0.9733    1.1205 H   0  0  0  0  0  0  0  0  0  0  0  0
    0.8009   -1.8272    0.5489 H   0  0  0  0  0  0  0  0  0  0  0  0
    0.9963   -1.0810    2.1860 H   0  0  0  0  0  0  0  0  0  0  0  0
   -0.4985    0.7922    1.2002 H   0  0  0  0  0  0  0  0  0  0  0  0
   -1.2704   -0.8573    1.5637 H   0  0  0  0  0  0  0  0  0  0  0  0
   -1.9511    0.4143   -2.1474 H   0  0  0  0  0  0  0  0  0  0  0  0
   -1.2633    1.5528   -0.9948 H   0  0  0  0  0  0  0  0  0  0  0  0
   -2.8576    1.0901    0.7184 H   0  0  0  0  0  0  0  0  0  0  0  0
   -3.6269    1.6801   -0.7572 H   0  0  0  0  0  0  0  0  0  0  0  0
   -3.5386   -1.1826    0.3592 H   0  0  0  0  0  0  0  0  0  0  0  0
   -4.6619   -2.0197   -1.4097 H   0  0  0  0  0  0  0  0  0  0  0  0
   -3.8292   -0.8146   -2.3908 H   0  0  0  0  0  0  0  0  0  0  0  0
   -5.7591    0.1797   -2.7067 H   0  0  0  0  0  0  0  0  0  0  0  0
   -6.0336    1.5382   -0.9814 H   0  0  0  0  0  0  0  0  0  0  0  0
   -5.0878    0.9089    1.1514 H   0  0  0  0  0  0  0  0  0  0  0  0
   -5.2889   -1.5056    1.9368 H   0  0  0  0  0  0  0  0  0  0  0  0
   -7.4359   -2.3101    0.8696 H   0  0  0  0  0  0  0  0  0  0  0  0
   -7.6926   -1.0525    2.3625 H   0  0  0  0  0  0  0  0  0  0  0  0
   -8.8352    0.4866    1.3498 H   0  0  0  0  0  0  0  0  0  0  0  0
   -8.1404    0.9029   -0.7818 H   0  0  0  0  0  0  0  0  0  0  0  0
   -8.1820    2.4985    1.8223 H   0  0  0  0  0  0  0  0  0  0  0  0
   -7.1748    2.4616    0.5010 H   0  0  0  0  0  0  0  0  0  0  0  0
    3.5518   -0.8194    1.4375 H   0  0  0  0  0  0  0  0  0  0  0  0
    2.7473   -2.4967    0.2388 H   0  0  0  0  0  0  0  0  0  0  0  0
    3.6039    1.3110   -0.2744 H   0  0  0  0  0  0  0  0  0  0  0  0
    5.8311    1.1618   -0.6465 H   0  0  0  0  0  0  0  0  0  0  0  0
    5.5326    1.4628    1.6838 H   0  0  0  0  0  0  0  0  0  0  0  0
    5.4305   -0.3427    2.0185 H   0  0  0  0  0  0  0  0  0  0  0  0
    7.7644   -0.6101    1.2286 H   0  0  0  0  0  0  0  0  0  0  0  0
    7.5289    0.4310    2.6262 H   0  0  0  0  0  0  0  0  0  0  0  0
    7.9455    2.4268    1.3093 H   0  0  0  0  0  0  0  0  0  0  0  0
    7.9068    2.4528   -0.8092 H   0  0  0  0  0  0  0  0  0  0  0  0
    9.7388    0.3972    0.4193 H   0  0  0  0  0  0  0  0  0  0  0  0
    7.1165   -0.9981   -0.6484 H   0  0  0  0  0  0  0  0  0  0  0  0
    5.4175   -0.0303   -2.4337 H   0  0  0  0  0  0  0  0  0  0  0  0
    5.5296   -2.8603   -0.8993 H   0  0  0  0  0  0  0  0  0  0  0  0
  1  2  1  0
  2  3  1  0
  3  4  1  0
  4  5  1  0
  1  6  1  0
  5  6  1  0
  1  7  1  0
  7  8  1  0
  8  9  1  0
  9 10  1  0
 10 11  1  0
 11 12  1  0
  9 13  1  0
 12 13  1  0
 13 14  1  0
 14 15  1  0
 14 16  1  0
 16 17  1  0
 12 18  1  0
 17 18  1  0
 17 19  1  0
  4 20  1  0
 20 21  1  0
 20 22  1  0
 22 23  1  0
 23 24  1  0
 24 25  1  0
 25 26  1  0
 26 27  1  0
 26 28  1  0
 23 29  1  0
 29 30  1  0
 29 31  1  0
 32 33  1  0
 33 34  1  0
 34 35  1  0
 35 36  1  0
 32 37  1  0
 36 37  1  0
 32 38  1  0
 38 39  1  0
 39 40  1  0
 40 41  1  0
 41 42  1  0
 42 43  1  0
 40 44  1  0
 43 44  1  0
 44 45  1  0
 45 46  1  0
 45 47  1  0
 47 48  1  0
 43 49  1  0
 48 49  1  0
 48 50  1  0
 35 51  1  0
 51 52  1  0
 51 53  1  0
 53 54  1  0
 54 55  1  0
 55 56  1  0
 56 57  1  0
 57 58  1  0
 57 59  1  0
 54 60  1  0
 60 61  1  0
 60 62  1  0
 63 64  1  0
 64 65  1  0
 65 66  1  0
 66 67  1  0
 63 68  1  0
 67 68  1  0
 63 69  1  0
 69 70  1  0
 70 71  1  0
 71 72  1  0
 72 73  1  0
 73 74  1  0
 71 75  1  0
 74 75  1  0
 75 76  1  0
 76 77  1  0
 76 78  1  0
 78 79  1  0
 74 80  1  0
 79 80  1  0
 79 81  1  0
 66 82  1  0
 82 83  1  0
 82 84  1  0
 84 85  1  0
 85 86  1  0
 86 87  1  0
 87 88  1  0
 88 89  1  0
 88 90  1  0
 85 91  1  0
 91 92  1  0
 91 93  1  0
 94 95  1  0
 95 96  1  0
 96 97  1  0
 97 98  1  0
 94 99  1  0
 98 99  1  0
 94100  1  0
100101  1  0
101102  1  0
102103  1  0
103104  1  0
104105  1  0
102106  1  0
105106  1  0
106107  1  0
107108  1  0
107109  1  0
109110  1  0
105111  1  0
110111  1  0
110112  1  0
 97113  1  0
113114  1  0
113115  1  0
115116  1  0
116117  1  0
117118  1  0
118119  1  0
119120  1  0
119121  1  0
116122  1  0
122123  1  0
122124  1  0
  1125  1  0
  2126  1  0
  2127  1  0
  3128  1  0
  3129  1  0
  4130  1  0
  5131  1  0
  5132  1  0
  6133  1  0
  6134  1  0
  7135  1  0
  7136  1  0
  8137  1  0
  8138  1  0
  9139  1  0
 10140  1  0
 10141  1  0
 11142  1  0
 12143  1  0
 13144  1  0
 14145  1  0
 15146  1  0
 16147  1  0
 17148  1  0
 18149  1  0
 19150  1  0
 19151  1  0
 20152  1  0
 21153  1  0
 22154  1  0
 23155  1  6
 24156  1  0
 24157  1  0
 25158  1  0
 25159  1  0
 26160  1  0
 27161  1  0
 28162  1  0
 29163  1  0
 30164  1  0
 31165  1  0
 32166  1  0
 33167  1  0
 33168  1  0
 34169  1  0
 34170  1  0
 35171  1  0
 36172  1  0
 36173  1  0
 37174  1  0
 37175  1  0
 38176  1  0
 38177  1  0
 39178  1  0
 39179  1  0
 40180  1  0
 41181  1  0
 41182  1  0
 42183  1  0
 43184  1  0
 44185  1  0
 45186  1  0
 46187  1  0
 47188  1  0
 48189  1  0
 49190  1  0
 50191  1  0
 50192  1  0
 51193  1  0
 52194  1  0
 53195  1  0
 54196  1  6
 55197  1  0
 55198  1  0
 56199  1  0
 56200  1  0
 57201  1  0
 58202  1  0
 59203  1  0
 60204  1  0
 61205  1  0
 62206  1  0
 63207  1  0
 64208  1  0
 64209  1  0
 65210  1  0
 65211  1  0
 66212  1  0
 67213  1  0
 67214  1  0
 68215  1  0
 68216  1  0
 69217  1  0
 69218  1  0
 70219  1  0
 70220  1  0
 71221  1  0
 72222  1  0
 72223  1  0
 73224  1  0
 74225  1  0
 75226  1  0
 76227  1  0
 77228  1  0
 78229  1  0
 79230  1  0
 80231  1  0
 81232  1  0
 81233  1  0
 82234  1  0
 83235  1  0
 84236  1  0
 85237  1  6
 86238  1  0
 86239  1  0
 87240  1  0
 87241  1  0
 88242  1  0
 89243  1  0
 90244  1  0
 91245  1  0
 92246  1  0
 93247  1  0
 94248  1  0
 95249  1  0
 95250  1  0
 96251  1  0
 96252  1  0
 97253  1  0
 98254  1  0
 98255  1  0
 99256  1  0
 99257  1  0
100258  1  0
100259  1  0
101260  1  0
101261  1  0
102262  1  0
103263  1  0
103264  1  0
104265  1  0
105266  1  0
106267  1  0
107268  1  0
108269  1  0
109270  1  0
110271  1  0
111272  1  0
112273  1  0
112274  1  0
113275  1  0
114276  1  0
115277  1  0
116278  1  6
117279  1  0
117280  1  0
118281  1  0
118282  1  0
119283  1  0
120284  1  0
121285  1  0
122286  1  0
123287  1  0
124288  1  0
M  END
>  <PDBID>  (1) 
1JU6

>  <PDB ID>  (1) 
1JU6

>  <Generic Name>  (1) 
Pemetrexed

>  <Brand Name>  (1) 
Act Pemetrexed#Alimta#Pemetrexed#Pemetrexed Disodium for Injection#Taro-pemetrexed

>  <DrugBank ID>  (1) 
DB00642

>  <ATC Codes>  (1) 
L01BA04

>  <Ligand ID>  (1) 
LYA

>  <Target Name>  (1) 
Thymidylate synthase

>  <UniProt ID>  (1) 
P04818

>  <PDB ID.1>  (1) 
1JU6

>  <Seq. Identity>  (1) 
100%

$$$$
