PDB_DB04854_06
     RDKit          3D

108110  0  0  0  0  0  0  0  0999 V2000
    3.2347    1.3858   -0.8224 S   0  0  0  0  0  0  0  0  0  0  0  0
    2.3001    0.6652    0.5927 C   0  0  0  0  0  0  0  0  0  0  0  0
    3.2865   -0.2460    1.0725 N   0  0  0  0  0  0  0  0  0  0  0  0
    3.8474   -0.9820   -0.0038 C   0  0  0  0  0  0  0  0  0  0  0  0
    4.3647   -0.0466   -1.0408 C   0  0  0  0  0  0  0  0  0  0  0  0
    1.0806    0.0442    0.0141 C   0  0  0  0  0  0  0  0  0  0  0  0
    0.1804   -0.6053    1.0359 C   0  0  0  0  0  0  0  0  0  0  0  0
   -1.1467   -0.8186    0.3362 C   0  0  0  0  0  0  0  0  0  0  0  0
   -1.8646    0.5108    0.3546 C   0  0  0  0  0  0  0  0  0  0  0  0
   -0.9001    1.5882   -0.0713 C   0  0  0  0  0  0  0  0  0  0  0  0
    0.3023    1.0428   -0.7951 C   0  0  0  0  0  0  0  0  0  0  0  0
   -1.9494   -1.9215    0.9792 C   0  0  0  0  0  0  0  0  0  0  0  0
   -2.2611   -1.6718    2.3569 N   0  0  0  0  0  0  0  0  0  0  0  0
   -3.0143    0.4832   -0.4007 O   0  0  0  0  0  0  0  0  0  0  0  0
   -4.0977    0.7189    0.4136 C   0  0  0  0  0  0  0  0  0  0  0  0
   -5.4096    0.7065   -0.3367 C   0  0  0  0  0  0  0  0  0  0  0  0
   -5.6445   -0.6350   -1.0038 C   0  0  0  0  0  0  0  0  0  0  0  0
   -5.3812    1.7801   -1.4027 C   0  0  0  0  0  0  0  0  0  0  0  0
    5.0186   -1.7910    0.5720 C   0  0  0  0  0  0  0  0  0  0  0  0
    5.7938    0.3639   -0.8547 C   0  0  0  0  0  0  0  0  0  0  0  0
    6.0504    0.8842    0.3932 O   0  0  0  0  0  0  0  0  0  0  0  0
    6.0769    1.3037   -1.8745 O   0  0  0  0  0  0  0  0  0  0  0  0
    3.2347    1.3858   -0.8224 S   0  0  0  0  0  0  0  0  0  0  0  0
    2.3001    0.6652    0.5927 C   0  0  0  0  0  0  0  0  0  0  0  0
    3.2865   -0.2460    1.0725 N   0  0  0  0  0  0  0  0  0  0  0  0
    3.8474   -0.9820   -0.0038 C   0  0  0  0  0  0  0  0  0  0  0  0
    4.3647   -0.0466   -1.0408 C   0  0  0  0  0  0  0  0  0  0  0  0
    1.0806    0.0442    0.0141 C   0  0  0  0  0  0  0  0  0  0  0  0
    0.1804   -0.6053    1.0359 C   0  0  0  0  0  0  0  0  0  0  0  0
   -1.1467   -0.8186    0.3362 C   0  0  0  0  0  0  0  0  0  0  0  0
   -1.8646    0.5108    0.3546 C   0  0  0  0  0  0  0  0  0  0  0  0
   -0.9001    1.5882   -0.0713 C   0  0  0  0  0  0  0  0  0  0  0  0
    0.3023    1.0428   -0.7951 C   0  0  0  0  0  0  0  0  0  0  0  0
   -1.9494   -1.9215    0.9792 C   0  0  0  0  0  0  0  0  0  0  0  0
   -2.2611   -1.6718    2.3569 N   0  0  0  0  0  0  0  0  0  0  0  0
   -3.0143    0.4832   -0.4007 O   0  0  0  0  0  0  0  0  0  0  0  0
   -4.0977    0.7189    0.4136 C   0  0  0  0  0  0  0  0  0  0  0  0
   -5.4096    0.7065   -0.3367 C   0  0  0  0  0  0  0  0  0  0  0  0
   -5.6445   -0.6350   -1.0038 C   0  0  0  0  0  0  0  0  0  0  0  0
   -5.3812    1.7801   -1.4027 C   0  0  0  0  0  0  0  0  0  0  0  0
    5.0186   -1.7910    0.5720 C   0  0  0  0  0  0  0  0  0  0  0  0
    5.7938    0.3639   -0.8547 C   0  0  0  0  0  0  0  0  0  0  0  0
    6.0504    0.8842    0.3932 O   0  0  0  0  0  0  0  0  0  0  0  0
    6.0769    1.3037   -1.8745 O   0  0  0  0  0  0  0  0  0  0  0  0
    2.1065    1.4366    1.3558 H   0  0  0  0  0  0  0  0  0  0  0  0
    2.8569   -0.8882    1.7424 H   0  0  0  0  0  0  0  0  0  0  0  0
    3.1619   -1.7585   -0.4378 H   0  0  0  0  0  0  0  0  0  0  0  0
    4.1968   -0.4564   -2.0332 H   0  0  0  0  0  0  0  0  0  0  0  0
    1.4015   -0.7597   -0.6822 H   0  0  0  0  0  0  0  0  0  0  0  0
    0.0314    0.1284    1.8739 H   0  0  0  0  0  0  0  0  0  0  0  0
    0.5976   -1.5446    1.4280 H   0  0  0  0  0  0  0  0  0  0  0  0
   -0.9439   -1.1360   -0.7075 H   0  0  0  0  0  0  0  0  0  0  0  0
   -2.0972    0.7174    1.4393 H   0  0  0  0  0  0  0  0  0  0  0  0
   -1.4411    2.2403   -0.7873 H   0  0  0  0  0  0  0  0  0  0  0  0
   -0.5697    2.2312    0.7619 H   0  0  0  0  0  0  0  0  0  0  0  0
   -0.0246    0.6323   -1.7799 H   0  0  0  0  0  0  0  0  0  0  0  0
    0.9650    1.9023   -1.0178 H   0  0  0  0  0  0  0  0  0  0  0  0
   -2.8549   -2.0666    0.3610 H   0  0  0  0  0  0  0  0  0  0  0  0
   -1.3545   -2.8445    0.9092 H   0  0  0  0  0  0  0  0  0  0  0  0
   -1.5763   -0.9680    2.7256 H   0  0  0  0  0  0  0  0  0  0  0  0
   -2.1096   -2.5287    2.9597 H   0  0  0  0  0  0  0  0  0  0  0  0
   -4.1984    0.0268    1.2608 H   0  0  0  0  0  0  0  0  0  0  0  0
   -3.9986    1.7577    0.8380 H   0  0  0  0  0  0  0  0  0  0  0  0
   -6.2307    0.8611    0.3902 H   0  0  0  0  0  0  0  0  0  0  0  0
   -5.3998   -1.4639   -0.2962 H   0  0  0  0  0  0  0  0  0  0  0  0
   -5.0122   -0.7138   -1.8930 H   0  0  0  0  0  0  0  0  0  0  0  0
   -6.7250   -0.6665   -1.2739 H   0  0  0  0  0  0  0  0  0  0  0  0
   -4.7659    1.3697   -2.2483 H   0  0  0  0  0  0  0  0  0  0  0  0
   -4.8653    2.6725   -0.9771 H   0  0  0  0  0  0  0  0  0  0  0  0
   -6.4013    2.0615   -1.7483 H   0  0  0  0  0  0  0  0  0  0  0  0
    5.6549   -2.2000   -0.2269 H   0  0  0  0  0  0  0  0  0  0  0  0
    5.5787   -1.2131    1.3259 H   0  0  0  0  0  0  0  0  0  0  0  0
    4.6127   -2.6902    1.1203 H   0  0  0  0  0  0  0  0  0  0  0  0
    6.4203   -0.5184   -1.1007 H   0  0  0  0  0  0  0  0  0  0  0  0
    6.8844    1.4363    0.3322 H   0  0  0  0  0  0  0  0  0  0  0  0
    6.2330    2.1833   -1.4328 H   0  0  0  0  0  0  0  0  0  0  0  0
    2.1065    1.4366    1.3558 H   0  0  0  0  0  0  0  0  0  0  0  0
    2.8569   -0.8882    1.7424 H   0  0  0  0  0  0  0  0  0  0  0  0
    3.1619   -1.7585   -0.4378 H   0  0  0  0  0  0  0  0  0  0  0  0
    4.1968   -0.4564   -2.0332 H   0  0  0  0  0  0  0  0  0  0  0  0
    1.4015   -0.7597   -0.6822 H   0  0  0  0  0  0  0  0  0  0  0  0
    0.0314    0.1284    1.8739 H   0  0  0  0  0  0  0  0  0  0  0  0
    0.5976   -1.5446    1.4280 H   0  0  0  0  0  0  0  0  0  0  0  0
   -0.9439   -1.1360   -0.7075 H   0  0  0  0  0  0  0  0  0  0  0  0
   -2.0972    0.7174    1.4393 H   0  0  0  0  0  0  0  0  0  0  0  0
   -1.4411    2.2403   -0.7873 H   0  0  0  0  0  0  0  0  0  0  0  0
   -0.5697    2.2312    0.7619 H   0  0  0  0  0  0  0  0  0  0  0  0
   -0.0246    0.6323   -1.7799 H   0  0  0  0  0  0  0  0  0  0  0  0
    0.9650    1.9023   -1.0178 H   0  0  0  0  0  0  0  0  0  0  0  0
   -2.8549   -2.0666    0.3610 H   0  0  0  0  0  0  0  0  0  0  0  0
   -1.3545   -2.8445    0.9092 H   0  0  0  0  0  0  0  0  0  0  0  0
   -1.5763   -0.9680    2.7256 H   0  0  0  0  0  0  0  0  0  0  0  0
   -2.1096   -2.5287    2.9597 H   0  0  0  0  0  0  0  0  0  0  0  0
   -4.1984    0.0268    1.2608 H   0  0  0  0  0  0  0  0  0  0  0  0
   -3.9986    1.7577    0.8380 H   0  0  0  0  0  0  0  0  0  0  0  0
   -6.2307    0.8611    0.3902 H   0  0  0  0  0  0  0  0  0  0  0  0
   -5.3998   -1.4639   -0.2962 H   0  0  0  0  0  0  0  0  0  0  0  0
   -5.0122   -0.7138   -1.8930 H   0  0  0  0  0  0  0  0  0  0  0  0
   -6.7250   -0.6665   -1.2739 H   0  0  0  0  0  0  0  0  0  0  0  0
   -4.7659    1.3697   -2.2483 H   0  0  0  0  0  0  0  0  0  0  0  0
   -4.8653    2.6725   -0.9771 H   0  0  0  0  0  0  0  0  0  0  0  0
   -6.4013    2.0615   -1.7483 H   0  0  0  0  0  0  0  0  0  0  0  0
    5.6549   -2.2000   -0.2269 H   0  0  0  0  0  0  0  0  0  0  0  0
    5.5787   -1.2131    1.3259 H   0  0  0  0  0  0  0  0  0  0  0  0
    4.6127   -2.6902    1.1203 H   0  0  0  0  0  0  0  0  0  0  0  0
    6.4203   -0.5184   -1.1007 H   0  0  0  0  0  0  0  0  0  0  0  0
    6.8844    1.4363    0.3322 H   0  0  0  0  0  0  0  0  0  0  0  0
    6.2330    2.1833   -1.4328 H   0  0  0  0  0  0  0  0  0  0  0  0
  1  2  1  0
  2  3  1  0
  3  4  1  0
  1  5  1  0
  4  5  1  0
  2  6  1  0
  6  7  1  0
  7  8  1  0
  8  9  1  0
  9 10  1  0
  6 11  1  0
 10 11  1  0
  8 12  1  0
 12 13  1  0
  9 14  1  0
 14 15  1  0
 15 16  1  0
 16 17  1  0
 16 18  1  0
  4 19  1  0
  5 20  1  0
 20 21  1  0
 20 22  1  0
 23 24  1  0
 24 25  1  0
 25 26  1  0
 23 27  1  0
 26 27  1  0
 24 28  1  0
 28 29  1  0
 29 30  1  0
 30 31  1  0
 31 32  1  0
 28 33  1  0
 32 33  1  0
 30 34  1  0
 34 35  1  0
 31 36  1  0
 36 37  1  0
 37 38  1  0
 38 39  1  0
 38 40  1  0
 26 41  1  0
 27 42  1  0
 42 43  1  0
 42 44  1  0
  2 45  1  0
  3 46  1  0
  4 47  1  0
  5 48  1  0
  6 49  1  0
  7 50  1  0
  7 51  1  0
  8 52  1  0
  9 53  1  0
 10 54  1  0
 10 55  1  0
 11 56  1  0
 11 57  1  0
 12 58  1  0
 12 59  1  0
 13 60  1  0
 13 61  1  0
 15 62  1  0
 15 63  1  0
 16 64  1  0
 17 65  1  0
 17 66  1  0
 17 67  1  0
 18 68  1  0
 18 69  1  0
 18 70  1  0
 19 71  1  0
 19 72  1  0
 19 73  1  0
 20 74  1  0
 21 75  1  0
 22 76  1  0
 24 77  1  0
 25 78  1  0
 26 79  1  0
 27 80  1  0
 28 81  1  0
 29 82  1  0
 29 83  1  0
 30 84  1  0
 31 85  1  0
 32 86  1  0
 32 87  1  0
 33 88  1  0
 33 89  1  0
 34 90  1  0
 34 91  1  0
 35 92  1  0
 35 93  1  0
 37 94  1  0
 37 95  1  0
 38 96  1  0
 39 97  1  0
 39 98  1  0
 39 99  1  0
 40100  1  0
 40101  1  0
 40102  1  0
 41103  1  0
 41104  1  0
 41105  1  0
 42106  1  0
 43107  1  0
 44108  1  0
M  END
>  <PDBID>  (1) 
1N5X

>  <PDB ID>  (1) 
1N5X

>  <Generic Name>  (1) 
Febuxostat

>  <Brand Name>  (1) 
Febuxostat#Uloric#Adenuric#Atenurix#Barif#Feburic

>  <DrugBank ID>  (1) 
DB04854

>  <ATC Codes>  (1) 
M04AA03

>  <Ligand ID>  (1) 
TEI

>  <Target Name>  (1) 
Xanthine dehydrogenase/oxidase

>  <UniProt ID>  (1) 
P47989

>  <PDB ID.1>  (1) 
1N5X

>  <Seq. Identity>  (1) 
85%

$$$$
