PDB_DB00563_08
     RDKit          3D

 77 79  0  0  0  0  0  0  0  0999 V2000
    6.6301   -0.8428   -0.9251 N   0  0  0  0  0  0  0  0  0  0  0  0
    7.3613   -1.6986   -0.0220 C   0  0  0  0  0  0  0  0  0  0  0  0
    8.5098   -0.9352    0.4465 N   0  0  0  0  0  0  0  0  0  0  0  0
    6.5557   -2.0672    1.1257 N   0  0  0  0  0  0  0  0  0  0  0  0
    5.1271   -2.0349    0.8354 C   0  0  2  0  0  0  0  0  0  0  0  0
    4.7602   -3.0597   -0.0888 N   0  0  0  0  0  0  0  0  0  0  0  0
    4.6777   -0.6478    0.4392 C   0  0  0  0  0  0  0  0  0  0  0  0
    3.5867   -0.7589   -0.5201 N   0  0  0  0  0  0  0  0  0  0  0  0
    3.2942    0.5548   -1.0944 C   0  0  0  0  0  0  0  0  0  0  0  0
    4.5290    1.1002   -1.7969 C   0  0  0  0  0  0  0  0  0  0  0  0
    5.6018    1.2422   -0.8692 N   0  0  0  0  0  0  0  0  0  0  0  0
    5.8701    0.0863   -0.0783 C   0  0  0  0  0  0  0  0  0  0  0  0
    2.8824    1.5359   -0.0572 C   0  0  0  0  0  0  0  0  0  0  0  0
    1.6933    1.1491    0.6228 N   0  0  0  0  0  0  0  0  0  0  0  0
    1.4412    1.9194    1.8291 C   0  0  0  0  0  0  0  0  0  0  0  0
   -2.2510    1.1826    0.7360 C   0  0  0  0  0  0  0  0  0  0  0  0
   -1.7747    0.2237   -0.2708 C   0  0  0  0  0  0  0  0  0  0  0  0
   -0.2563   -0.0468   -0.0735 C   0  0  0  0  0  0  0  0  0  0  0  0
    0.5189    1.2033   -0.2520 C   0  0  0  0  0  0  0  0  0  0  0  0
   -0.2737    2.4583   -0.1828 C   0  0  0  0  0  0  0  0  0  0  0  0
   -1.4507    2.4856    0.7133 C   0  0  0  0  0  0  0  0  0  0  0  0
   -3.7127    1.4811    0.7416 C   0  0  2  0  0  0  0  0  0  0  0  0
   -3.9615    2.3673    1.8210 O   0  0  0  0  0  0  0  0  0  0  0  0
   -4.6453    0.4548    0.7246 N   0  0  0  0  0  0  0  0  0  0  0  0
   -5.0002   -0.2832   -0.4175 C   0  0  2  0  0  0  0  0  0  0  0  0
   -5.8894    0.4117   -1.4287 C   0  0  0  0  0  0  0  0  0  0  0  0
   -5.2058    1.5258   -1.9161 O   0  0  0  0  0  0  0  0  0  0  0  0
   -6.1000   -0.4299   -2.4986 O   0  0  0  0  0  0  0  0  0  0  0  0
   -5.2014   -1.7124   -0.1700 C   0  0  0  0  0  0  0  0  0  0  0  0
   -6.2314   -2.2022    0.7563 C   0  0  0  0  0  0  0  0  0  0  0  0
   -7.6279   -1.8956    0.2687 C   0  0  0  0  0  0  0  0  0  0  0  0
   -7.8196   -2.5121   -0.9982 O   0  0  0  0  0  0  0  0  0  0  0  0
   -8.5647   -2.5775    1.0935 O   0  0  0  0  0  0  0  0  0  0  0  0
    5.9727   -1.3121   -1.5522 H   0  0  0  0  0  0  0  0  0  0  0  0
    7.6897   -2.5912   -0.6196 H   0  0  0  0  0  0  0  0  0  0  0  0
    8.3592   -0.5763    1.4027 H   0  0  0  0  0  0  0  0  0  0  0  0
    8.7483   -0.1782   -0.2256 H   0  0  0  0  0  0  0  0  0  0  0  0
    6.7649   -1.5125    1.9611 H   0  0  0  0  0  0  0  0  0  0  0  0
    4.6430   -2.3135    1.8172 H   0  0  0  0  0  0  0  0  0  0  0  0
    3.9347   -2.8877   -0.6655 H   0  0  0  0  0  0  0  0  0  0  0  0
    5.5385   -3.5838   -0.4941 H   0  0  0  0  0  0  0  0  0  0  0  0
    4.2269   -0.1441    1.3293 H   0  0  0  0  0  0  0  0  0  0  0  0
    2.7467   -1.0833   -0.0338 H   0  0  0  0  0  0  0  0  0  0  0  0
    2.5441    0.3813   -1.8666 H   0  0  0  0  0  0  0  0  0  0  0  0
    4.2493    2.1203   -2.1491 H   0  0  0  0  0  0  0  0  0  0  0  0
    4.8231    0.4103   -2.5973 H   0  0  0  0  0  0  0  0  0  0  0  0
    5.6423    2.1511   -0.3869 H   0  0  0  0  0  0  0  0  0  0  0  0
    6.4758    0.4058    0.8002 H   0  0  0  0  0  0  0  0  0  0  0  0
    3.7245    1.7379    0.6482 H   0  0  0  0  0  0  0  0  0  0  0  0
    2.7079    2.5137   -0.5752 H   0  0  0  0  0  0  0  0  0  0  0  0
    0.5670    1.4704    2.3338 H   0  0  0  0  0  0  0  0  0  0  0  0
    1.4592    2.9865    1.7223 H   0  0  0  0  0  0  0  0  0  0  0  0
    2.3039    1.6422    2.5120 H   0  0  0  0  0  0  0  0  0  0  0  0
   -2.0323    0.7758    1.7780 H   0  0  0  0  0  0  0  0  0  0  0  0
   -2.1949   -0.7817   -0.0661 H   0  0  0  0  0  0  0  0  0  0  0  0
   -1.8643    0.4664   -1.3173 H   0  0  0  0  0  0  0  0  0  0  0  0
   -0.1736   -0.5340    0.9194 H   0  0  0  0  0  0  0  0  0  0  0  0
    0.0002   -0.7970   -0.8330 H   0  0  0  0  0  0  0  0  0  0  0  0
    0.9472    1.1941   -1.3037 H   0  0  0  0  0  0  0  0  0  0  0  0
   -0.6417    2.7603   -1.2263 H   0  0  0  0  0  0  0  0  0  0  0  0
    0.4041    3.2942    0.0763 H   0  0  0  0  0  0  0  0  0  0  0  0
   -2.1732    3.2582    0.3043 H   0  0  0  0  0  0  0  0  0  0  0  0
   -1.2224    2.8599    1.7265 H   0  0  0  0  0  0  0  0  0  0  0  0
   -3.8770    2.1659   -0.2114 H   0  0  0  0  0  0  0  0  0  0  0  0
   -3.9615    3.3030    1.5527 H   0  0  0  0  0  0  0  0  0  0  0  0
   -4.7441   -0.0795    1.6284 H   0  0  0  0  0  0  0  0  0  0  0  0
   -3.9997   -0.2799   -1.0616 H   0  0  0  0  0  0  0  0  0  0  0  0
   -6.8214    0.8291   -0.9825 H   0  0  0  0  0  0  0  0  0  0  0  0
   -5.5825    1.7306   -2.8163 H   0  0  0  0  0  0  0  0  0  0  0  0
   -6.9138   -0.2159   -3.0263 H   0  0  0  0  0  0  0  0  0  0  0  0
   -5.3072   -2.2540   -1.1707 H   0  0  0  0  0  0  0  0  0  0  0  0
   -4.1944   -2.1256    0.1798 H   0  0  0  0  0  0  0  0  0  0  0  0
   -6.0904   -1.8778    1.8145 H   0  0  0  0  0  0  0  0  0  0  0  0
   -6.1668   -3.3365    0.8323 H   0  0  0  0  0  0  0  0  0  0  0  0
   -7.8453   -0.8435    0.2487 H   0  0  0  0  0  0  0  0  0  0  0  0
   -7.1840   -3.2889   -1.0361 H   0  0  0  0  0  0  0  0  0  0  0  0
   -8.5557   -3.5370    0.8813 H   0  0  0  0  0  0  0  0  0  0  0  0
  1  2  1  0
  2  3  1  0
  2  4  1  0
  4  5  1  0
  5  6  1  0
  5  7  1  0
  7  8  1  0
  8  9  1  0
  9 10  1  0
 10 11  1  0
  1 12  1  0
  7 12  1  0
 11 12  1  0
  9 13  1  0
 13 14  1  0
 14 15  1  0
 16 17  1  0
 17 18  1  0
 14 19  1  0
 18 19  1  0
 19 20  1  0
 16 21  1  0
 20 21  1  0
 16 22  1  0
 22 23  1  0
 22 24  1  0
 24 25  1  0
 25 26  1  0
 26 27  1  0
 26 28  1  0
 25 29  1  0
 29 30  1  0
 30 31  1  0
 31 32  1  0
 31 33  1  0
  1 34  1  0
  2 35  1  0
  3 36  1  0
  3 37  1  0
  4 38  1  0
  5 39  1  1
  6 40  1  0
  6 41  1  0
  7 42  1  0
  8 43  1  0
  9 44  1  0
 10 45  1  0
 10 46  1  0
 11 47  1  0
 12 48  1  0
 13 49  1  0
 13 50  1  0
 15 51  1  0
 15 52  1  0
 15 53  1  0
 16 54  1  0
 17 55  1  0
 17 56  1  0
 18 57  1  0
 18 58  1  0
 19 59  1  0
 20 60  1  0
 20 61  1  0
 21 62  1  0
 21 63  1  0
 22 64  1  6
 23 65  1  0
 24 66  1  0
 25 67  1  6
 26 68  1  0
 27 69  1  0
 28 70  1  0
 29 71  1  0
 29 72  1  0
 30 73  1  0
 30 74  1  0
 31 75  1  0
 32 76  1  0
 33 77  1  0
M  END
>  <PDBID>  (1) 
1U72

>  <PDB ID>  (1) 
1U72

>  <Generic Name>  (1) 
Methotrexate

>  <Brand Name>  (1) 
Apo-methotrexate#Jamp-methotrexate#Methotrexate#Methotrexate Dbl Inj 10mg/ml#Methotrexate Dbl Inj 2.5mg/ml#Methotrexate Dbl Inj 25mg/ml#Methotrexate Injection BP#Methotrexate Injection USP#Methotrexate Injection, BP#Methotrexate Injection, USP#Methotrexate PF/sa Injection#Methotrexate Sod Inj 25mg/ml USP#Methotrexate Sodium#Methotrexate Sodium Inj 20mg#Methotrexate Sodium Inj 25.0mg/ml#Methotrexate Sodium Inj 25mg/ml#Methotrexate Sodium Inj 25mg/ml USP#Methotrexate Sodium Injection#Methotrexate Sodium Injection USP#Methotrexate Tab 2.5mg#Methotrexate Tab 2.5mg USP#Methotrexate Tablets, USP#Methotrexate-liq Im IV Iar Int Ivr 25mg/ml#Methotrexate-pws Im IV Iar Int Ivr 20mg/vial#Metoject#Metoject Subcutaneous#Otrexup#Rasuvo#Ratio-methotrexate Sodium#Rheumatrex Dose Pack#Rheumatrex Tab 2.5mg#Rheumatrex-tab 2.5mg#Trexall#Abitrexate#Alltrex#Artrait#Atrexel#Bendatrexat#Carditrex#Dermotrex#Ebetrex#Emtexate#Ledertrexate#Maxtrex#Meisusheng#Mexate#Rheumatrex#Trexan#Zexate

>  <DrugBank ID>  (1) 
DB00563

>  <ATC Codes>  (1) 
L01BA01#L04AX03

>  <Ligand ID>  (1) 
MTX

>  <Target Name>  (1) 
Dihydrofolate reductase

>  <UniProt ID>  (1) 
P00374

>  <PDB ID.1>  (1) 
1U72

>  <Seq. Identity>  (1) 
100%

$$$$
