PDB_DB00966_00
     RDKit          3D

 99104  0  0  0  0  0  0  0  0999 V2000
    1.6752   -1.2782   -0.4586 C   0  0  0  0  0  0  0  0  0  0  0  0
    0.2930   -1.2308    0.0754 N   0  0  0  0  0  0  0  0  0  0  0  0
    2.2822   -2.5181    0.1012 C   0  0  0  0  0  0  0  0  0  0  0  0
    2.4602   -0.0764    0.0605 C   0  0  0  0  0  0  0  0  0  0  0  0
    0.0327   -2.6401    0.1600 C   0  0  0  0  0  0  0  0  0  0  0  0
   -0.4569   -0.5076   -0.8806 C   0  0  0  0  0  0  0  0  0  0  0  0
    1.2492   -3.1711    0.8380 N   0  0  0  0  0  0  0  0  0  0  0  0
    3.4954   -2.2592    0.9749 C   0  0  0  0  0  0  0  0  0  0  0  0
    3.8670   -0.2204   -0.4265 C   0  0  0  0  0  0  0  0  0  0  0  0
   -0.0459   -3.3571   -1.1465 C   0  0  0  0  0  0  0  0  0  0  0  0
   -1.8424   -0.1189   -0.5862 C   0  0  0  0  0  0  0  0  0  0  0  0
    4.4826   -1.4761    0.0927 C   0  0  0  0  0  0  0  0  0  0  0  0
    4.1721   -3.5820    1.2667 C   0  0  0  0  0  0  0  0  0  0  0  0
    4.7151    1.0040   -0.3277 C   0  0  0  0  0  0  0  0  0  0  0  0
   -0.3283   -4.8318   -0.8226 C   0  0  0  0  0  0  0  0  0  0  0  0
   -1.9985    0.7538    0.6419 C   0  0  0  0  0  0  0  0  0  0  0  0
   -2.8348   -1.2186   -0.5385 C   0  0  0  0  0  0  0  0  0  0  0  0
    4.8730    1.5876    0.9518 N   0  0  0  0  0  0  0  0  0  0  0  0
    4.0840    2.0633   -1.0941 N   0  0  0  0  0  0  0  0  0  0  0  0
   -0.4256   -5.6350   -2.1011 C   0  0  0  0  0  0  0  0  0  0  0  0
   -3.3786    1.3831    0.5546 C   0  0  0  0  0  0  0  0  0  0  0  0
   -4.2721   -0.6129   -0.5802 C   0  0  0  0  0  0  0  0  0  0  0  0
    5.5069    2.8775    0.6233 C   0  0  0  0  0  0  0  0  0  0  0  0
    5.6415    0.8741    1.9154 C   0  0  0  0  0  0  0  0  0  0  0  0
    4.9611    3.1868   -0.7339 C   0  0  0  0  0  0  0  0  0  0  0  0
   -4.3690    0.2314    0.6286 C   0  0  0  0  0  0  0  0  0  0  0  0
    7.0082    2.6820    0.5951 C   0  0  0  0  0  0  0  0  0  0  0  0
    6.0259    3.2489   -1.8073 C   0  0  0  0  0  0  0  0  0  0  0  0
   -5.7158    0.7324    1.0138 C   0  0  1  0  0  0  0  0  0  0  0  0
    7.7098    3.8081   -0.1112 C   0  0  0  0  0  0  0  0  0  0  0  0
    7.0409    4.2740   -1.3596 C   0  0  0  0  0  0  0  0  0  0  0  0
   -6.3573    1.7164    0.1283 C   0  0  0  0  0  0  0  0  0  0  0  0
   -6.7006   -0.3376    1.3624 C   0  0  0  0  0  0  0  0  0  0  0  0
   -7.3834    2.4750    0.9789 C   0  0  0  0  0  0  0  0  0  0  0  0
   -7.0776    1.2407   -1.0706 C   0  0  0  0  0  0  0  0  0  0  0  0
   -7.8063    0.2752    2.1398 C   0  0  0  0  0  0  0  0  0  0  0  0
   -8.3399    1.5646    1.6710 C   0  0  0  0  0  0  0  0  0  0  0  0
   -7.5804    2.3973   -1.7201 O   0  0  0  0  0  0  0  0  0  0  0  0
   -8.2296    0.4886   -0.7963 O   0  0  0  0  0  0  0  0  0  0  0  0
    1.6877   -1.2402   -1.5598 H   0  0  0  0  0  0  0  0  0  0  0  0
    2.6849   -3.1411   -0.7533 H   0  0  0  0  0  0  0  0  0  0  0  0
    2.3732   -0.1216    1.1660 H   0  0  0  0  0  0  0  0  0  0  0  0
    1.9301    0.8119   -0.2736 H   0  0  0  0  0  0  0  0  0  0  0  0
   -0.7770   -2.9378    0.8387 H   0  0  0  0  0  0  0  0  0  0  0  0
    0.1294    0.4431   -1.0939 H   0  0  0  0  0  0  0  0  0  0  0  0
   -0.4473   -1.0078   -1.9016 H   0  0  0  0  0  0  0  0  0  0  0  0
    1.2158   -2.7355    1.7947 H   0  0  0  0  0  0  0  0  0  0  0  0
    3.2821   -1.7701    1.9198 H   0  0  0  0  0  0  0  0  0  0  0  0
    3.7565   -0.3913   -1.5520 H   0  0  0  0  0  0  0  0  0  0  0  0
   -0.8727   -3.0515   -1.8043 H   0  0  0  0  0  0  0  0  0  0  0  0
    0.9288   -3.3770   -1.6832 H   0  0  0  0  0  0  0  0  0  0  0  0
   -2.2135    0.5704   -1.4341 H   0  0  0  0  0  0  0  0  0  0  0  0
    5.4030   -1.3732    0.6585 H   0  0  0  0  0  0  0  0  0  0  0  0
    4.7271   -2.2208   -0.7272 H   0  0  0  0  0  0  0  0  0  0  0  0
    3.7047   -4.0384    2.1683 H   0  0  0  0  0  0  0  0  0  0  0  0
    4.1244   -4.2685    0.3904 H   0  0  0  0  0  0  0  0  0  0  0  0
    5.2672   -3.3926    1.4298 H   0  0  0  0  0  0  0  0  0  0  0  0
    5.6811    0.7597   -0.8309 H   0  0  0  0  0  0  0  0  0  0  0  0
   -1.3315   -4.8763   -0.3317 H   0  0  0  0  0  0  0  0  0  0  0  0
    0.4522   -5.2318   -0.1445 H   0  0  0  0  0  0  0  0  0  0  0  0
   -1.9933    0.1387    1.5647 H   0  0  0  0  0  0  0  0  0  0  0  0
   -1.2022    1.5193    0.7203 H   0  0  0  0  0  0  0  0  0  0  0  0
   -2.7999   -1.7774   -1.5195 H   0  0  0  0  0  0  0  0  0  0  0  0
   -2.7722   -1.9046    0.3065 H   0  0  0  0  0  0  0  0  0  0  0  0
    3.1520    2.3232   -0.7629 H   0  0  0  0  0  0  0  0  0  0  0  0
   -0.9510   -5.0332   -2.8789 H   0  0  0  0  0  0  0  0  0  0  0  0
    0.5788   -5.9388   -2.4765 H   0  0  0  0  0  0  0  0  0  0  0  0
   -1.0031   -6.5668   -1.9143 H   0  0  0  0  0  0  0  0  0  0  0  0
   -3.4622    1.9374   -0.4054 H   0  0  0  0  0  0  0  0  0  0  0  0
   -3.5856    2.0205    1.4420 H   0  0  0  0  0  0  0  0  0  0  0  0
   -4.2830   -0.0794   -1.5462 H   0  0  0  0  0  0  0  0  0  0  0  0
   -4.9290   -1.4866   -0.5177 H   0  0  0  0  0  0  0  0  0  0  0  0
    5.2596    3.6438    1.3612 H   0  0  0  0  0  0  0  0  0  0  0  0
    5.0293    0.1414    2.4501 H   0  0  0  0  0  0  0  0  0  0  0  0
    5.9478    1.6387    2.6965 H   0  0  0  0  0  0  0  0  0  0  0  0
    6.6031    0.4678    1.5584 H   0  0  0  0  0  0  0  0  0  0  0  0
    4.3746    4.1334   -0.7436 H   0  0  0  0  0  0  0  0  0  0  0  0
   -4.0073   -0.3956    1.4988 H   0  0  0  0  0  0  0  0  0  0  0  0
    7.3097    1.7450    0.1142 H   0  0  0  0  0  0  0  0  0  0  0  0
    7.3582    2.6732    1.6468 H   0  0  0  0  0  0  0  0  0  0  0  0
    6.5079    2.2585   -1.9313 H   0  0  0  0  0  0  0  0  0  0  0  0
    5.5152    3.5750   -2.7431 H   0  0  0  0  0  0  0  0  0  0  0  0
   -5.5414    1.2787    1.9985 H   0  0  0  0  0  0  0  0  0  0  0  0
    7.8374    4.6955    0.5755 H   0  0  0  0  0  0  0  0  0  0  0  0
    8.7440    3.4940   -0.3584 H   0  0  0  0  0  0  0  0  0  0  0  0
    7.7431    4.4266   -2.2104 H   0  0  0  0  0  0  0  0  0  0  0  0
    6.5243    5.2392   -1.1993 H   0  0  0  0  0  0  0  0  0  0  0  0
   -5.6337    2.5015   -0.2016 H   0  0  0  0  0  0  0  0  0  0  0  0
   -7.0071   -0.9817    0.5168 H   0  0  0  0  0  0  0  0  0  0  0  0
   -6.1518   -1.0385    2.0623 H   0  0  0  0  0  0  0  0  0  0  0  0
   -6.8556    3.1324    1.6991 H   0  0  0  0  0  0  0  0  0  0  0  0
   -7.9629    3.1423    0.3045 H   0  0  0  0  0  0  0  0  0  0  0  0
   -6.5195    0.7018   -1.8263 H   0  0  0  0  0  0  0  0  0  0  0  0
   -8.6350   -0.4887    2.2022 H   0  0  0  0  0  0  0  0  0  0  0  0
   -7.4615    0.3709    3.2110 H   0  0  0  0  0  0  0  0  0  0  0  0
   -8.7124    2.1333    2.5776 H   0  0  0  0  0  0  0  0  0  0  0  0
   -9.2835    1.3766    1.0864 H   0  0  0  0  0  0  0  0  0  0  0  0
   -6.9203    3.1191   -1.7141 H   0  0  0  0  0  0  0  0  0  0  0  0
   -8.9506    0.6609   -1.4618 H   0  0  0  0  0  0  0  0  0  0  0  0
  1  2  1  0
  1  3  1  0
  1  4  1  0
  2  5  1  0
  2  6  1  0
  3  7  1  0
  5  7  1  0
  3  8  1  0
  4  9  1  0
  5 10  1  0
  6 11  1  0
  8 12  1  0
  9 12  1  0
  8 13  1  0
  9 14  1  0
 10 15  1  0
 11 16  1  0
 11 17  1  0
 14 18  1  0
 14 19  1  0
 15 20  1  0
 16 21  1  0
 17 22  1  0
 18 23  1  0
 18 24  1  0
 19 25  1  0
 23 25  1  0
 21 26  1  0
 22 26  1  0
 23 27  1  0
 25 28  1  0
 26 29  1  0
 27 30  1  0
 28 31  1  0
 30 31  1  0
 29 32  1  0
 29 33  1  0
 32 34  1  0
 32 35  1  0
 33 36  1  0
 34 37  1  0
 36 37  1  0
 35 38  1  0
 35 39  1  0
  1 40  1  0
  3 41  1  0
  4 42  1  0
  4 43  1  0
  5 44  1  0
  6 45  1  0
  6 46  1  0
  7 47  1  0
  8 48  1  0
  9 49  1  0
 10 50  1  0
 10 51  1  0
 11 52  1  0
 12 53  1  0
 12 54  1  0
 13 55  1  0
 13 56  1  0
 13 57  1  0
 14 58  1  0
 15 59  1  0
 15 60  1  0
 16 61  1  0
 16 62  1  0
 17 63  1  0
 17 64  1  0
 19 65  1  0
 20 66  1  0
 20 67  1  0
 20 68  1  0
 21 69  1  0
 21 70  1  0
 22 71  1  0
 22 72  1  0
 23 73  1  0
 24 74  1  0
 24 75  1  0
 24 76  1  0
 25 77  1  0
 26 78  1  0
 27 79  1  0
 27 80  1  0
 28 81  1  0
 28 82  1  0
 29 83  1  1
 30 84  1  0
 30 85  1  0
 31 86  1  0
 31 87  1  0
 32 88  1  0
 33 89  1  0
 33 90  1  0
 34 91  1  0
 34 92  1  0
 35 93  1  0
 36 94  1  0
 36 95  1  0
 37 96  1  0
 37 97  1  0
 38 98  1  0
 39 99  1  0
M  END
>  <PDBID>  (1) 
3VN2

>  <PDB ID>  (1) 
3VN2

>  <Generic Name>  (1) 
Telmisartan

>  <Brand Name>  (1) 
Ach-telmisartan Hctz#Act Telmisartan#Act Telmisartan/hct#Apo-telmisartan#Apo-telmisartan/hctz#Auro-telmisartan#Auro-telmisartan Hctz#Mar-telmisartan#Micardis#Micardis 40mg Tab#Micardis 80mg Tab#Micardis Hct#Micardis Plus#Mylan-telmisartan#Mylan-telmisartan Hctz#Ntp-telmisartan#Ntp-telmisartan Hctz#PMS-telmisartan#PMS-telmisartan-hctz#Pendo-telmisartan#Pendo-telmisartan-hctz#Ran-telmisartan#Ran-telmisartan Hctz#Sandoz Telmisartan#Sandoz Telmisartan Hct#Septa-telmisartan#Telmisartan#Telmisartan Hctz#Telmisartan Tablets#Telmisartan and Amlodipine#Telmisartan and Hydrochlorothiazide#Telmisartan and Hydrochlorothiazide 40 Mg/12.5 mg#Telmisartan and Hydrochlorothiazide 80 Mg/12.5 mg#Telmisartan and Hydrochlorothiazide 80 Mg/25 mg#Telmisartan and Hydrochlorthiazide#Telmisartan-hctz#Telmisartan/hctz#Teva-telmisartan#Teva-telmisartan Hctz#Torrent-telmisartan#Torrent-telmisartan and Hydrochlorothiazide#Twynsta#Van-telmisartan#Van-telmisartan-hctz#Zinda-telmisartan#Zinda-telmisartan/ Hctz#Pritor

>  <DrugBank ID>  (1) 
DB00966

>  <ATC Codes>  (1) 
C09DB04#C09DA07#C09CA07

>  <Ligand ID>  (1) 
TLS

>  <Target Name>  (1) 
Peroxisome proliferator-activated receptor gamma

>  <UniProt ID>  (1) 
P37231

>  <PDB ID.1>  (1) 
3VN2

>  <Seq. Identity>  (1) 
95%

$$$$
