PDB_DB08865_08
     RDKit          3D

 68 71  0  0  0  0  0  0  0  0999 V2000
   -4.2098   -2.4999    0.2796 Cl  0  0  0  0  0  0  0  0  0  0  0  0
   -5.0815   -1.3124   -0.7672 C   0  0  0  0  0  0  0  0  0  0  0  0
   -6.5126   -1.6871   -0.6847 C   0  0  0  0  0  0  0  0  0  0  0  0
   -7.4763   -0.5313   -0.8048 C   0  0  0  0  0  0  0  0  0  0  0  0
   -7.0488    0.4344    0.3107 C   0  0  0  0  0  0  0  0  0  0  0  0
   -7.9805    1.4692    0.4000 F   0  0  0  0  0  0  0  0  0  0  0  0
   -4.6753    0.0695   -0.4855 C   0  0  0  0  0  0  0  0  0  0  0  0
   -5.7770    1.0519   -0.1762 C   0  0  0  0  0  0  0  0  0  0  0  0
   -5.2391    2.3038    0.9602 Cl  0  0  0  0  0  0  0  0  0  0  0  0
   -3.5378    0.2149    0.5121 C   0  0  1  0  0  0  0  0  0  0  0  0
   -3.7958   -0.3363    1.8514 C   0  0  0  0  0  0  0  0  0  0  0  0
   -2.3648   -0.3454    0.0070 O   0  0  0  0  0  0  0  0  0  0  0  0
   -1.3695    0.6200   -0.2420 C   0  0  0  0  0  0  0  0  0  0  0  0
   -0.1299    0.3245    0.5572 C   0  0  0  0  0  0  0  0  0  0  0  0
   -1.0916    0.5403   -1.7236 C   0  0  0  0  0  0  0  0  0  0  0  0
   -0.9324   -0.8846   -2.0389 N   0  0  0  0  0  0  0  0  0  0  0  0
    0.0374    1.3111   -2.1439 N   0  0  0  0  0  0  0  0  0  0  0  0
    0.6396    2.0128   -1.0468 C   0  0  0  0  0  0  0  0  0  0  0  0
    1.0520    1.0462    0.0089 C   0  0  0  0  0  0  0  0  0  0  0  0
    2.1042    0.0711   -0.4247 C   0  0  0  0  0  0  0  0  0  0  0  0
    3.3343    0.6731   -0.9992 C   0  0  0  0  0  0  0  0  0  0  0  0
    2.6632   -0.6413    0.8152 C   0  0  0  0  0  0  0  0  0  0  0  0
    3.8986   -0.0047    1.1002 N   0  0  0  0  0  0  0  0  0  0  0  0
    4.2576    0.8275    0.0742 N   0  0  0  0  0  0  0  0  0  0  0  0
    4.9677   -0.8544    1.4999 C   0  0  0  0  0  0  0  0  0  0  0  0
    5.3779   -1.8530    0.4444 C   0  0  0  0  0  0  0  0  0  0  0  0
    6.8071   -2.2874    0.7787 C   0  0  0  0  0  0  0  0  0  0  0  0
    7.6729   -1.2213    0.3180 N   0  0  0  0  0  0  0  0  0  0  0  0
    7.0787    0.0843    0.5166 C   0  0  0  0  0  0  0  0  0  0  0  0
    6.2028    0.0178    1.7543 C   0  0  0  0  0  0  0  0  0  0  0  0
   -4.7382   -1.6270   -1.8055 H   0  0  0  0  0  0  0  0  0  0  0  0
   -6.8006   -2.4143   -1.4772 H   0  0  0  0  0  0  0  0  0  0  0  0
   -6.7863   -2.2020    0.2772 H   0  0  0  0  0  0  0  0  0  0  0  0
   -8.4888   -0.9048   -0.6667 H   0  0  0  0  0  0  0  0  0  0  0  0
   -7.3081    0.0003   -1.7565 H   0  0  0  0  0  0  0  0  0  0  0  0
   -6.9607   -0.1041    1.2504 H   0  0  0  0  0  0  0  0  0  0  0  0
   -4.1980    0.4911   -1.4289 H   0  0  0  0  0  0  0  0  0  0  0  0
   -6.0644    1.6149   -1.1148 H   0  0  0  0  0  0  0  0  0  0  0  0
   -3.3740    1.3124    0.5949 H   0  0  0  0  0  0  0  0  0  0  0  0
   -3.6376    0.4432    2.6575 H   0  0  0  0  0  0  0  0  0  0  0  0
   -4.7938   -0.7408    2.0430 H   0  0  0  0  0  0  0  0  0  0  0  0
   -3.0400   -1.1314    2.1229 H   0  0  0  0  0  0  0  0  0  0  0  0
   -1.8239    1.5920    0.0458 H   0  0  0  0  0  0  0  0  0  0  0  0
   -0.0115   -0.7770    0.5978 H   0  0  0  0  0  0  0  0  0  0  0  0
   -0.3583    0.6335    1.6202 H   0  0  0  0  0  0  0  0  0  0  0  0
   -1.9863    0.9553   -2.2321 H   0  0  0  0  0  0  0  0  0  0  0  0
   -1.3303   -1.0438   -3.0114 H   0  0  0  0  0  0  0  0  0  0  0  0
   -1.5980   -1.4338   -1.4155 H   0  0  0  0  0  0  0  0  0  0  0  0
   -0.1433    1.8957   -2.9806 H   0  0  0  0  0  0  0  0  0  0  0  0
   -0.0855    2.7293   -0.5595 H   0  0  0  0  0  0  0  0  0  0  0  0
    1.4471    2.6475   -1.4358 H   0  0  0  0  0  0  0  0  0  0  0  0
    1.5017    1.6483    0.8505 H   0  0  0  0  0  0  0  0  0  0  0  0
    1.7034   -0.6629   -1.1353 H   0  0  0  0  0  0  0  0  0  0  0  0
    3.1828    1.5910   -1.5919 H   0  0  0  0  0  0  0  0  0  0  0  0
    3.7942   -0.0630   -1.7215 H   0  0  0  0  0  0  0  0  0  0  0  0
    2.7103   -1.7042    0.5867 H   0  0  0  0  0  0  0  0  0  0  0  0
    1.9792   -0.5079    1.6876 H   0  0  0  0  0  0  0  0  0  0  0  0
    4.3299    1.7993    0.4416 H   0  0  0  0  0  0  0  0  0  0  0  0
    4.7574   -1.3943    2.4222 H   0  0  0  0  0  0  0  0  0  0  0  0
    4.7705   -2.7956    0.5085 H   0  0  0  0  0  0  0  0  0  0  0  0
    5.4028   -1.4420   -0.5715 H   0  0  0  0  0  0  0  0  0  0  0  0
    7.0319   -3.2547    0.3236 H   0  0  0  0  0  0  0  0  0  0  0  0
    6.8871   -2.3209    1.8858 H   0  0  0  0  0  0  0  0  0  0  0  0
    7.9707   -1.3784   -0.6662 H   0  0  0  0  0  0  0  0  0  0  0  0
    7.8866    0.8137    0.7565 H   0  0  0  0  0  0  0  0  0  0  0  0
    6.5649    0.4649   -0.3677 H   0  0  0  0  0  0  0  0  0  0  0  0
    5.9075    1.0426    2.0433 H   0  0  0  0  0  0  0  0  0  0  0  0
    6.8285   -0.3972    2.5714 H   0  0  0  0  0  0  0  0  0  0  0  0
  1  2  1  0
  2  3  1  0
  3  4  1  0
  4  5  1  0
  5  6  1  0
  2  7  1  0
  5  8  1  0
  7  8  1  0
  8  9  1  0
  7 10  1  0
 10 11  1  0
 10 12  1  0
 12 13  1  0
 13 14  1  0
 13 15  1  0
 15 16  1  0
 15 17  1  0
 17 18  1  0
 14 19  1  0
 18 19  1  0
 19 20  1  0
 20 21  1  0
 20 22  1  0
 22 23  1  0
 21 24  1  0
 23 24  1  0
 23 25  1  0
 25 26  1  0
 26 27  1  0
 27 28  1  0
 28 29  1  0
 25 30  1  0
 29 30  1  0
  2 31  1  0
  3 32  1  0
  3 33  1  0
  4 34  1  0
  4 35  1  0
  5 36  1  0
  7 37  1  0
  8 38  1  0
 10 39  1  1
 11 40  1  0
 11 41  1  0
 11 42  1  0
 13 43  1  0
 14 44  1  0
 14 45  1  0
 15 46  1  0
 16 47  1  0
 16 48  1  0
 17 49  1  0
 18 50  1  0
 18 51  1  0
 19 52  1  0
 20 53  1  0
 21 54  1  0
 21 55  1  0
 22 56  1  0
 22 57  1  0
 24 58  1  0
 25 59  1  0
 26 60  1  0
 26 61  1  0
 27 62  1  0
 27 63  1  0
 28 64  1  0
 29 65  1  0
 29 66  1  0
 30 67  1  0
 30 68  1  0
M  END
>  <PDBID>  (1) 
4ANQ

>  <PDB ID>  (1) 
4ANQ

>  <Generic Name>  (1) 
Crizotinib

>  <Brand Name>  (1) 
Xalkori

>  <DrugBank ID>  (1) 
DB08865

>  <ATC Codes>  (1) 
L01XE16

>  <Ligand ID>  (1) 
VGH

>  <Target Name>  (1) 
ALK tyrosine kinase receptor

>  <UniProt ID>  (1) 
Q9UM73

>  <PDB ID.1>  (1) 
4ANQ

>  <Seq. Identity>  (1) 
100%

$$$$
