PDB_DB09034_02
     RDKit          3D

 75 79  0  0  0  0  0  0  0  0999 V2000
    3.5018   -0.9103    0.9047 C   0  0  0  0  0  0  0  0  0  0  0  0
    2.3030   -0.7889    0.1754 N   0  0  0  0  0  0  0  0  0  0  0  0
    4.4215   -1.8440    0.4504 O   0  0  0  0  0  0  0  0  0  0  0  0
    7.6404    1.9925   -0.9213 Cl  0  0  0  0  0  0  0  0  0  0  0  0
    4.1494    0.3589    1.0270 N   0  0  0  0  0  0  0  0  0  0  0  0
   -1.5544    0.3934    1.8669 O   0  0  0  0  0  0  0  0  0  0  0  0
    5.3668    0.3015    0.2692 C   0  0  0  0  0  0  0  0  0  0  0  0
   -0.6276   -0.4010   -0.2207 N   0  0  0  0  0  0  0  0  0  0  0  0
    6.5342    0.7104    1.1331 C   0  0  0  0  0  0  0  0  0  0  0  0
   -4.0501   -1.4784    0.2000 N   0  0  0  0  0  0  0  0  0  0  0  0
    7.7701    0.6558    0.2745 C   0  0  0  0  0  0  0  0  0  0  0  0
   -4.2013   -2.1031   -1.0059 N   0  0  0  0  0  0  0  0  0  0  0  0
    7.8171   -0.6615   -0.4912 C   0  0  0  0  0  0  0  0  0  0  0  0
   -4.9328   -2.0046    1.1119 N   0  0  0  0  0  0  0  0  0  0  0  0
    6.8231   -1.6329    0.1507 C   0  0  0  0  0  0  0  0  0  0  0  0
    5.4321   -1.1345   -0.1879 C   0  0  0  0  0  0  0  0  0  0  0  0
    1.3336   -1.8461    0.2998 C   0  0  0  0  0  0  0  0  0  0  0  0
   -0.0480   -1.3564    0.6690 C   0  0  0  0  0  0  0  0  0  0  0  0
    0.4061    0.4062   -0.8351 C   0  0  1  0  0  0  0  0  0  0  0  0
    1.1601   -0.4055   -1.8589 C   0  0  0  0  0  0  0  0  0  0  0  0
    2.5399   -0.6577   -1.2685 C   0  0  0  0  0  0  0  0  0  0  0  0
   -1.5916    0.3850    0.4824 C   0  0  0  0  0  0  0  0  0  0  0  0
   -2.8822    0.7031   -0.1597 C   0  0  0  0  0  0  0  0  0  0  0  0
   -4.0888   -0.0637    0.2178 C   0  0  0  0  0  0  0  0  0  0  0  0
   -4.7797    0.5000    1.4488 C   0  0  0  0  0  0  0  0  0  0  0  0
   -5.1972    1.9044    1.1723 C   0  0  0  0  0  0  0  0  0  0  0  0
   -4.6444    2.4847   -0.0869 C   0  0  0  0  0  0  0  0  0  0  0  0
   -3.1834    2.1591   -0.2766 C   0  0  0  0  0  0  0  0  0  0  0  0
   -5.4646   -2.8324   -0.9562 C   0  0  0  0  0  0  0  0  0  0  0  0
   -6.0679   -2.5097    0.3690 C   0  0  0  0  0  0  0  0  0  0  0  0
   -4.7335    3.9932    0.0062 C   0  0  0  0  0  0  0  0  0  0  0  0
   -0.0291    1.6631   -1.4960 C   0  0  0  0  0  0  0  0  0  0  0  0
    3.2158   -1.2120    1.9569 H   0  0  0  0  0  0  0  0  0  0  0  0
    3.5651    1.1582    0.6970 H   0  0  0  0  0  0  0  0  0  0  0  0
   -1.8584   -0.4555    2.2926 H   0  0  0  0  0  0  0  0  0  0  0  0
    5.3717    0.9475   -0.6127 H   0  0  0  0  0  0  0  0  0  0  0  0
    6.3722    1.7902    1.3809 H   0  0  0  0  0  0  0  0  0  0  0  0
    6.6236    0.1674    2.0767 H   0  0  0  0  0  0  0  0  0  0  0  0
    8.6620    0.8201    0.9023 H   0  0  0  0  0  0  0  0  0  0  0  0
   -4.3438   -1.3858   -1.7782 H   0  0  0  0  0  0  0  0  0  0  0  0
    7.5510   -0.5217   -1.5424 H   0  0  0  0  0  0  0  0  0  0  0  0
    8.8606   -1.0309   -0.3833 H   0  0  0  0  0  0  0  0  0  0  0  0
   -4.5485   -2.7216    1.7642 H   0  0  0  0  0  0  0  0  0  0  0  0
    7.0248   -1.6695    1.2307 H   0  0  0  0  0  0  0  0  0  0  0  0
    7.0074   -2.6338   -0.2644 H   0  0  0  0  0  0  0  0  0  0  0  0
    5.2996   -1.2313   -1.2699 H   0  0  0  0  0  0  0  0  0  0  0  0
    1.2514   -2.5102   -0.5816 H   0  0  0  0  0  0  0  0  0  0  0  0
    1.6766   -2.5003    1.1315 H   0  0  0  0  0  0  0  0  0  0  0  0
   -0.6716   -2.2451    0.8250 H   0  0  0  0  0  0  0  0  0  0  0  0
    0.0631   -0.8314    1.6667 H   0  0  0  0  0  0  0  0  0  0  0  0
    1.0679    0.7216    0.0277 H   0  0  0  0  0  0  0  0  0  0  0  0
    0.6654   -1.3431   -2.1190 H   0  0  0  0  0  0  0  0  0  0  0  0
    1.3802    0.2159   -2.7820 H   0  0  0  0  0  0  0  0  0  0  0  0
    3.2309    0.1433   -1.5080 H   0  0  0  0  0  0  0  0  0  0  0  0
    2.9158   -1.6430   -1.5954 H   0  0  0  0  0  0  0  0  0  0  0  0
   -1.0374    1.4780    0.3584 H   0  0  0  0  0  0  0  0  0  0  0  0
   -2.7184    0.3458   -1.2712 H   0  0  0  0  0  0  0  0  0  0  0  0
   -4.8496    0.2004   -0.6110 H   0  0  0  0  0  0  0  0  0  0  0  0
   -4.1624    0.4505    2.3467 H   0  0  0  0  0  0  0  0  0  0  0  0
   -5.6707   -0.1349    1.6164 H   0  0  0  0  0  0  0  0  0  0  0  0
   -4.9034    2.5387    2.0419 H   0  0  0  0  0  0  0  0  0  0  0  0
   -6.3086    2.0050    1.1190 H   0  0  0  0  0  0  0  0  0  0  0  0
   -5.1830    2.1716   -1.0046 H   0  0  0  0  0  0  0  0  0  0  0  0
   -2.6151    2.7202    0.5196 H   0  0  0  0  0  0  0  0  0  0  0  0
   -2.9042    2.6095   -1.2498 H   0  0  0  0  0  0  0  0  0  0  0  0
   -6.1660   -2.5239   -1.7554 H   0  0  0  0  0  0  0  0  0  0  0  0
   -5.3265   -3.9317   -1.0488 H   0  0  0  0  0  0  0  0  0  0  0  0
   -6.5187   -3.3554    0.9052 H   0  0  0  0  0  0  0  0  0  0  0  0
   -6.8668   -1.7551    0.2574 H   0  0  0  0  0  0  0  0  0  0  0  0
   -4.0095    4.2807    0.8208 H   0  0  0  0  0  0  0  0  0  0  0  0
   -4.3879    4.4872   -0.9142 H   0  0  0  0  0  0  0  0  0  0  0  0
   -5.7336    4.3341    0.3332 H   0  0  0  0  0  0  0  0  0  0  0  0
   -0.0732    2.5712   -0.8589 H   0  0  0  0  0  0  0  0  0  0  0  0
   -0.8910    1.5664   -2.1913 H   0  0  0  0  0  0  0  0  0  0  0  0
    0.8207    1.9320   -2.2143 H   0  0  0  0  0  0  0  0  0  0  0  0
  1  2  1  0
  1  3  1  0
  1  5  1  0
  5  7  1  0
  7  9  1  0
  4 11  1  0
  9 11  1  0
 10 12  1  0
 11 13  1  0
 10 14  1  0
 13 15  1  0
  3 16  1  0
  7 16  1  0
 15 16  1  0
  2 17  1  0
  8 18  1  0
 17 18  1  0
  8 19  1  0
 19 20  1  0
  2 21  1  0
 20 21  1  0
  6 22  1  0
  8 22  1  0
 22 23  1  0
 10 24  1  0
 23 24  1  0
 24 25  1  0
 25 26  1  0
 26 27  1  0
 23 28  1  0
 27 28  1  0
 12 29  1  0
 14 30  1  0
 29 30  1  0
 27 31  1  0
 19 32  1  0
  1 33  1  0
  5 34  1  0
  6 35  1  0
  7 36  1  0
  9 37  1  0
  9 38  1  0
 11 39  1  0
 12 40  1  0
 13 41  1  0
 13 42  1  0
 14 43  1  0
 15 44  1  0
 15 45  1  0
 16 46  1  0
 17 47  1  0
 17 48  1  0
 18 49  1  0
 18 50  1  0
 19 51  1  1
 20 52  1  0
 20 53  1  0
 21 54  1  0
 21 55  1  0
 22 56  1  0
 23 57  1  0
 24 58  1  0
 25 59  1  0
 25 60  1  0
 26 61  1  0
 26 62  1  0
 27 63  1  0
 28 64  1  0
 28 65  1  0
 29 66  1  0
 29 67  1  0
 30 68  1  0
 30 69  1  0
 31 70  1  0
 31 71  1  0
 31 72  1  0
 32 73  1  0
 32 74  1  0
 32 75  1  0
M  END
>  <PDBID>  (1) 
4ZJ8

>  <PDB ID>  (1) 
4ZJ8

>  <Generic Name>  (1) 
Suvorexant

>  <Brand Name>  (1) 
Belsomra

>  <DrugBank ID>  (1) 
DB09034

>  <ATC Codes>  (1) 
nan

>  <Ligand ID>  (1) 
SUV

>  <Target Name>  (1) 
Orexin receptor type 1

>  <UniProt ID>  (1) 
O43613

>  <PDB ID.1>  (1) 
4ZJ8

>  <Seq. Identity>  (1) 
85%

$$$$
