PDB_DB01034_01
     RDKit          3D

 82 82  0  0  0  0  0  0  0  0999 V2000
    3.1226   -0.9392   -0.8277 O   0  0  0  0  0  0  0  0  0  0  0  0
    4.2965   -0.7372   -0.1814 C   0  0  0  0  0  0  0  0  0  0  0  0
    5.1963   -0.0589   -1.1434 N   0  0  0  0  0  0  0  0  0  0  0  0
    4.2636   -0.0232    1.1059 C   0  0  2  0  0  0  0  0  0  0  0  0
    3.3653   -0.6806    2.0823 O   0  0  0  0  0  0  0  0  0  0  0  0
    3.3128    0.7113    1.8126 C   0  0  2  0  0  0  0  0  0  0  0  0
    2.0172    1.3365    1.5363 C   0  0  1  0  0  0  0  0  0  0  0  0
    2.1306    2.7156    1.2242 O   0  0  0  0  0  0  0  0  0  0  0  0
    1.0210    0.7025    0.6521 C   0  0  0  0  0  0  0  0  0  0  0  0
    0.5319   -0.6522    1.1004 C   0  0  0  0  0  0  0  0  0  0  0  0
   -0.4640   -1.1697    0.0892 C   0  0  0  0  0  0  0  0  0  0  0  0
   -1.6702   -0.2756   -0.0768 C   0  0  0  0  0  0  0  0  0  0  0  0
   -2.5521   -0.9536   -1.1164 C   0  0  0  0  0  0  0  0  0  0  0  0
   -3.8036   -0.1963   -1.4080 C   0  0  0  0  0  0  0  0  0  0  0  0
   -4.6725   -0.0152   -0.1923 C   0  0  0  0  0  0  0  0  0  0  0  0
   -5.9312    0.7613   -0.5550 C   0  0  0  0  0  0  0  0  0  0  0  0
    6.0643    1.9811   -0.2973 O   0  0  0  0  0  0  0  0  0  0  0  0
    5.2714    0.8505   -0.4326 C   0  0  0  0  0  0  0  0  0  0  0  0
    6.1945   -0.2411   -0.8085 N   0  0  0  0  0  0  0  0  0  0  0  0
    4.6048    0.4294    0.8195 C   0  0  2  0  0  0  0  0  0  0  0  0
    3.8655   -0.8320    0.5466 O   0  0  0  0  0  0  0  0  0  0  0  0
    3.1902    0.2347    1.0703 C   0  0  2  0  0  0  0  0  0  0  0  0
    2.0586    0.8989    0.3945 C   0  0  0  0  0  0  0  0  0  0  0  0
    2.4650    1.4027   -0.8316 O   0  0  0  0  0  0  0  0  0  0  0  0
    0.8523    0.0385    0.1522 C   0  0  0  0  0  0  0  0  0  0  0  0
    0.2434   -0.5165    1.3933 C   0  0  0  0  0  0  0  0  0  0  0  0
   -0.9490   -1.3600    1.0067 C   0  0  0  0  0  0  0  0  0  0  0  0
   -2.0144   -0.6116    0.2771 C   0  0  0  0  0  0  0  0  0  0  0  0
   -3.1535   -1.5708   -0.0480 C   0  0  0  0  0  0  0  0  0  0  0  0
   -4.2751   -0.8961   -0.7890 C   0  0  0  0  0  0  0  0  0  0  0  0
   -4.8770    0.2308   -0.0004 C   0  0  0  0  0  0  0  0  0  0  0  0
   -6.0058    0.8798   -0.7879 C   0  0  0  0  0  0  0  0  0  0  0  0
    3.0005   -0.2967   -1.5913 H   0  0  0  0  0  0  0  0  0  0  0  0
    4.8031   -1.7590   -0.0962 H   0  0  0  0  0  0  0  0  0  0  0  0
    6.0773    0.1599   -0.6255 H   0  0  0  0  0  0  0  0  0  0  0  0
    5.4293   -0.7160   -1.8944 H   0  0  0  0  0  0  0  0  0  0  0  0
    5.3414   -0.0063    1.5506 H   0  0  0  0  0  0  0  0  0  0  0  0
    3.7634    1.2285    2.7760 H   0  0  0  0  0  0  0  0  0  0  0  0
    1.4373    1.4212    2.5501 H   0  0  0  0  0  0  0  0  0  0  0  0
    2.1960    2.7807    0.2308 H   0  0  0  0  0  0  0  0  0  0  0  0
    1.1860    0.7886   -0.4384 H   0  0  0  0  0  0  0  0  0  0  0  0
    0.0768    1.3641    0.7795 H   0  0  0  0  0  0  0  0  0  0  0  0
    1.3659   -1.3527    1.1567 H   0  0  0  0  0  0  0  0  0  0  0  0
    0.0482   -0.5353    2.0998 H   0  0  0  0  0  0  0  0  0  0  0  0
    0.0299   -1.3008   -0.8876 H   0  0  0  0  0  0  0  0  0  0  0  0
   -0.8518   -2.1552    0.4406 H   0  0  0  0  0  0  0  0  0  0  0  0
   -1.3885    0.7442   -0.4654 H   0  0  0  0  0  0  0  0  0  0  0  0
   -2.2295   -0.1688    0.8745 H   0  0  0  0  0  0  0  0  0  0  0  0
   -2.7731   -1.9727   -0.7416 H   0  0  0  0  0  0  0  0  0  0  0  0
   -1.9655   -1.0521   -2.0467 H   0  0  0  0  0  0  0  0  0  0  0  0
   -3.5107    0.8263   -1.7698 H   0  0  0  0  0  0  0  0  0  0  0  0
   -4.3372   -0.7355   -2.2163 H   0  0  0  0  0  0  0  0  0  0  0  0
   -4.9985   -1.0199    0.1542 H   0  0  0  0  0  0  0  0  0  0  0  0
   -4.1247    0.5124    0.5899 H   0  0  0  0  0  0  0  0  0  0  0  0
   -6.2029    0.4680   -1.6029 H   0  0  0  0  0  0  0  0  0  0  0  0
   -5.7908    1.8483   -0.4942 H   0  0  0  0  0  0  0  0  0  0  0  0
   -6.7461    0.4033    0.1016 H   0  0  0  0  0  0  0  0  0  0  0  0
    5.5526    2.8248   -0.3453 H   0  0  0  0  0  0  0  0  0  0  0  0
    4.6555    0.9840   -1.3209 H   0  0  0  0  0  0  0  0  0  0  0  0
    5.6734   -1.1395   -0.5932 H   0  0  0  0  0  0  0  0  0  0  0  0
    6.3861   -0.2254   -1.8338 H   0  0  0  0  0  0  0  0  0  0  0  0
    5.3143    0.3086    1.6752 H   0  0  0  0  0  0  0  0  0  0  0  0
    2.9412    0.0412    2.1694 H   0  0  0  0  0  0  0  0  0  0  0  0
    1.6824    1.7951    0.9720 H   0  0  0  0  0  0  0  0  0  0  0  0
    1.9670    2.1996   -1.1157 H   0  0  0  0  0  0  0  0  0  0  0  0
    0.9926   -0.7572   -0.5743 H   0  0  0  0  0  0  0  0  0  0  0  0
    0.0873    0.7409   -0.2988 H   0  0  0  0  0  0  0  0  0  0  0  0
    0.9801   -1.2255    1.8622 H   0  0  0  0  0  0  0  0  0  0  0  0
   -0.0361    0.2375    2.1382 H   0  0  0  0  0  0  0  0  0  0  0  0
   -0.6183   -2.1981    0.3392 H   0  0  0  0  0  0  0  0  0  0  0  0
   -1.4150   -1.8552    1.8826 H   0  0  0  0  0  0  0  0  0  0  0  0
   -1.6586   -0.2059   -0.6955 H   0  0  0  0  0  0  0  0  0  0  0  0
   -2.4443    0.1717    0.9399 H   0  0  0  0  0  0  0  0  0  0  0  0
   -3.5950   -1.9852    0.8991 H   0  0  0  0  0  0  0  0  0  0  0  0
   -2.7976   -2.4312   -0.6487 H   0  0  0  0  0  0  0  0  0  0  0  0
   -3.9403   -0.5291   -1.7765 H   0  0  0  0  0  0  0  0  0  0  0  0
   -5.0558   -1.6571   -0.9612 H   0  0  0  0  0  0  0  0  0  0  0  0
   -5.2540   -0.1029    0.9727 H   0  0  0  0  0  0  0  0  0  0  0  0
   -4.1187    1.0266    0.1647 H   0  0  0  0  0  0  0  0  0  0  0  0
   -5.8305    0.7396   -1.8889 H   0  0  0  0  0  0  0  0  0  0  0  0
   -6.0522    1.9542   -0.5911 H   0  0  0  0  0  0  0  0  0  0  0  0
   -6.9515    0.3702   -0.4999 H   0  0  0  0  0  0  0  0  0  0  0  0
  1  2  1  0
  2  3  1  0
  2  4  1  0
  4  5  1  0
  4  6  1  0
  5  6  1  0
  6  7  1  0
  7  8  1  0
  7  9  1  0
  9 10  1  0
 10 11  1  0
 11 12  1  0
 12 13  1  0
 13 14  1  0
 14 15  1  0
 15 16  1  0
 17 18  1  0
 18 19  1  0
 18 20  1  0
 20 21  1  0
 20 22  1  0
 21 22  1  0
 22 23  1  0
 23 24  1  0
 23 25  1  0
 25 26  1  0
 26 27  1  0
 27 28  1  0
 28 29  1  0
 29 30  1  0
 30 31  1  0
 31 32  1  0
  1 33  1  0
  2 34  1  0
  3 35  1  0
  3 36  1  0
  4 37  1  1
  6 38  1  1
  7 39  1  1
  8 40  1  0
  9 41  1  0
  9 42  1  0
 10 43  1  0
 10 44  1  0
 11 45  1  0
 11 46  1  0
 12 47  1  0
 12 48  1  0
 13 49  1  0
 13 50  1  0
 14 51  1  0
 14 52  1  0
 15 53  1  0
 15 54  1  0
 16 55  1  0
 16 56  1  0
 16 57  1  0
 17 58  1  0
 18 59  1  0
 19 60  1  0
 19 61  1  0
 20 62  1  1
 22 63  1  1
 23 64  1  0
 24 65  1  0
 25 66  1  0
 25 67  1  0
 26 68  1  0
 26 69  1  0
 27 70  1  0
 27 71  1  0
 28 72  1  0
 28 73  1  0
 29 74  1  0
 29 75  1  0
 30 76  1  0
 30 77  1  0
 31 78  1  0
 31 79  1  0
 32 80  1  0
 32 81  1  0
 32 82  1  0
M  END
>  <PDBID>  (1) 
4LS7

>  <PDB ID>  (1) 
4LS7

>  <Generic Name>  (1) 
Cerulenin

>  <Brand Name>  (1) 
Helicocerin

>  <DrugBank ID>  (1) 
DB01034

>  <ATC Codes>  (1) 
nan

>  <Ligand ID>  (1) 
1X9

>  <Target Name>  (1) 
3-oxoacyl-[acyl-carrier-protein] synthase 2

>  <UniProt ID>  (1) 
P0AAI5

>  <PDB ID.1>  (1) 
4LS7

>  <Seq. Identity>  (1) 
51%

$$$$
