PDB_DB01045_02
     RDKit          3D

141145  0  0  0  0  0  0  0  0999 V2000
    3.2380    0.1218   -1.6212 C   0  0  0  0  0  0  0  0  0  0  0  0
    3.5316    0.9827   -0.4535 C   0  0  2  0  0  0  0  0  0  0  0  0
    3.6053    0.1187    0.8243 C   0  0  0  0  0  0  0  0  0  0  0  0
    3.5190   -1.3405    0.4243 C   0  0  0  0  0  0  0  0  0  0  0  0
    1.8221   -2.9459   -0.3121 C   0  0  0  0  0  0  0  0  0  0  0  0
    0.7909   -3.2892   -1.3239 C   0  0  0  0  0  0  0  0  0  0  0  0
    0.3054   -2.1585   -2.1863 C   0  0  0  0  0  0  0  0  0  0  0  0
    1.5119   -1.3288   -2.5620 C   0  0  0  0  0  0  0  0  0  0  0  0
    1.9523   -0.6473   -1.3131 C   0  0  0  0  0  0  0  0  0  0  0  0
    2.0888   -1.5137   -0.1050 C   0  0  0  0  0  0  0  0  0  0  0  0
    1.3157   -3.5260    0.9677 C   0  0  0  0  0  0  0  0  0  0  0  0
    0.0690   -4.2409    0.5769 C   0  0  2  0  0  0  0  0  0  0  0  0
    0.3098   -5.7184    0.7397 C   0  0  0  0  0  0  0  0  0  0  0  0
   -0.7004   -1.3280   -1.4113 C   0  0  0  0  0  0  0  0  0  0  0  0
    2.9574    3.2409    0.1717 C   0  0  0  0  0  0  0  0  0  0  0  0
    1.8685    4.2686   -0.1612 C   0  0  1  0  0  0  0  0  0  0  0  0
    0.8787    4.4003    0.9522 C   0  0  0  0  0  0  0  0  0  0  0  0
   -0.3673    3.5656    0.6769 C   0  0  0  0  0  0  0  0  0  0  0  0
   -1.6118    4.2503    1.2067 C   0  0  0  0  0  0  0  0  0  0  0  0
   -2.7469    3.8966    0.3053 C   0  0  1  0  0  0  0  0  0  0  0  0
   -3.4509    2.6433    0.8118 C   0  0  1  0  0  0  0  0  0  0  0  0
   -4.3062    2.0609   -0.2888 C   0  0  2  0  0  0  0  0  0  0  0  0
   -5.6350    1.5944    0.1975 C   0  0  2  0  0  0  0  0  0  0  0  0
   -5.5999    0.3549    1.0507 C   0  0  2  0  0  0  0  0  0  0  0  0
   -5.9831   -0.8663    0.3404 C   0  0  1  0  0  0  0  0  0  0  0  0
   -5.5167   -2.1684    1.0145 C   0  0  1  0  0  0  0  0  0  0  0  0
   -4.3455   -2.7791    0.2452 C   0  0  2  0  0  0  0  0  0  0  0  0
   -3.0655   -2.6984    1.0021 C   0  0  0  0  0  0  0  0  0  0  0  0
   -2.2066   -3.9235    0.7731 C   0  0  0  0  0  0  0  0  0  0  0  0
    2.4818    5.5808   -0.5756 C   0  0  0  0  0  0  0  0  0  0  0  0
   -3.7151    5.0509    0.2020 C   0  0  0  0  0  0  0  0  0  0  0  0
   -3.5265    0.9730   -0.9995 C   0  0  0  0  0  0  0  0  0  0  0  0
   -6.5628    0.6378    2.2270 C   0  0  0  0  0  0  0  0  0  0  0  0
   -5.3030   -2.0459    2.4748 C   0  0  0  0  0  0  0  0  0  0  0  0
   -7.7288   -1.7128   -0.9635 C   0  0  2  0  0  0  0  0  0  0  0  0
   -9.1189   -2.2177   -0.6854 C   0  0  0  0  0  0  0  0  0  0  0  0
   -4.2470   -2.9312   -2.1041 C   0  0  0  0  0  0  0  0  0  0  0  0
   10.3405    1.4026   -0.5511 C   0  0  0  0  0  0  0  0  0  0  0  0
    9.0191   -0.5025    0.0671 C   0  0  0  0  0  0  0  0  0  0  0  0
    7.8045   -0.1705   -0.8032 C   0  0  0  0  0  0  0  0  0  0  0  0
    7.4390    1.7781    0.4458 C   0  0  0  0  0  0  0  0  0  0  0  0
    8.7189    1.5230    1.2273 C   0  0  0  0  0  0  0  0  0  0  0  0
    4.9955    0.3962    1.4494 C   0  0  0  0  0  0  0  0  0  0  0  0
    2.4869    1.9865   -0.3243 N   0  0  0  0  0  0  0  0  0  0  0  0
    5.9358   -0.1196    0.4906 N   0  0  0  0  0  0  0  0  0  0  0  0
    6.8652    0.6135   -0.0477 N   0  0  0  0  0  0  0  0  0  0  0  0
    9.6484    0.6927    0.5193 N   0  0  0  0  0  0  0  0  0  0  0  0
    2.8858    0.9992   -2.6829 O   0  0  0  0  0  0  0  0  0  0  0  0
    2.4462   -2.1848   -3.0901 O   0  0  0  0  0  0  0  0  0  0  0  0
   -0.2769   -3.8667   -0.6989 O   0  0  0  0  0  0  0  0  0  0  0  0
    2.2416   -4.3291    1.6029 O   0  0  0  0  0  0  0  0  0  0  0  0
   -0.9933   -3.8371    1.4196 O   0  0  0  0  0  0  0  0  0  0  0  0
   -4.2161   -2.1720   -0.9803 O   0  0  0  0  0  0  0  0  0  0  0  0
   -7.3642   -0.9235    0.1059 O   0  0  0  0  0  0  0  0  0  0  0  0
   -7.8865   -0.9581   -2.1781 O   0  0  0  0  0  0  0  0  0  0  0  0
   -6.4635    1.4527   -0.9133 O   0  0  0  0  0  0  0  0  0  0  0  0
   -2.5317    1.7370    1.3201 O   0  0  0  0  0  0  0  0  0  0  0  0
    4.1578    3.6448   -0.4024 O   0  0  0  0  0  0  0  0  0  0  0  0
    3.7440   -2.0979    1.5646 O   0  0  0  0  0  0  0  0  0  0  0  0
    4.0430   -0.5019   -1.9956 H   0  0  0  0  0  0  0  0  0  0  0  0
    4.5092    1.5105   -0.5830 H   0  0  0  0  0  0  0  0  0  0  0  0
    2.8468    0.3983    1.4961 H   0  0  0  0  0  0  0  0  0  0  0  0
    4.2825   -1.6307   -0.3276 H   0  0  0  0  0  0  0  0  0  0  0  0
    2.8019   -3.4531   -0.5432 H   0  0  0  0  0  0  0  0  0  0  0  0
    1.2235   -4.0464   -2.0392 H   0  0  0  0  0  0  0  0  0  0  0  0
   -0.1639   -2.5511   -3.1106 H   0  0  0  0  0  0  0  0  0  0  0  0
    1.1705   -0.5290   -3.2722 H   0  0  0  0  0  0  0  0  0  0  0  0
    1.2097    0.1671   -1.0865 H   0  0  0  0  0  0  0  0  0  0  0  0
    1.4666   -1.1130    0.7501 H   0  0  0  0  0  0  0  0  0  0  0  0
    1.0556   -2.7091    1.6922 H   0  0  0  0  0  0  0  0  0  0  0  0
   -0.4059   -6.2820    0.1238 H   0  0  0  0  0  0  0  0  0  0  0  0
    0.2130   -6.0347    1.7859 H   0  0  0  0  0  0  0  0  0  0  0  0
    1.3442   -5.9151    0.3554 H   0  0  0  0  0  0  0  0  0  0  0  0
   -0.5439   -1.5257   -0.3295 H   0  0  0  0  0  0  0  0  0  0  0  0
   -0.6889   -0.2665   -1.6539 H   0  0  0  0  0  0  0  0  0  0  0  0
   -1.6893   -1.7566   -1.6529 H   0  0  0  0  0  0  0  0  0  0  0  0
    3.0351    3.2122    1.2857 H   0  0  0  0  0  0  0  0  0  0  0  0
    1.2950    3.8943   -1.0588 H   0  0  0  0  0  0  0  0  0  0  0  0
    0.5149    5.4625    1.0114 H   0  0  0  0  0  0  0  0  0  0  0  0
    1.2751    4.0560    1.9288 H   0  0  0  0  0  0  0  0  0  0  0  0
   -0.3109    2.5762    1.1710 H   0  0  0  0  0  0  0  0  0  0  0  0
   -0.4933    3.3715   -0.4067 H   0  0  0  0  0  0  0  0  0  0  0  0
   -1.5107    5.3500    1.1886 H   0  0  0  0  0  0  0  0  0  0  0  0
   -1.8841    3.8858    2.2296 H   0  0  0  0  0  0  0  0  0  0  0  0
   -2.4195    3.6643   -0.7429 H   0  0  0  0  0  0  0  0  0  0  0  0
   -4.1574    2.9775    1.6085 H   0  0  0  0  0  0  0  0  0  0  0  0
   -4.4746    2.8574   -1.0324 H   0  0  0  0  0  0  0  0  0  0  0  0
   -6.0831    2.4774    0.7537 H   0  0  0  0  0  0  0  0  0  0  0  0
   -4.5535    0.2859    1.4401 H   0  0  0  0  0  0  0  0  0  0  0  0
   -5.5390   -0.9772   -0.6656 H   0  0  0  0  0  0  0  0  0  0  0  0
   -6.3449   -2.8884    0.8605 H   0  0  0  0  0  0  0  0  0  0  0  0
   -4.5113   -3.8750    0.0415 H   0  0  0  0  0  0  0  0  0  0  0  0
   -3.1952   -2.6359    2.1078 H   0  0  0  0  0  0  0  0  0  0  0  0
   -2.4905   -1.7974    0.7474 H   0  0  0  0  0  0  0  0  0  0  0  0
   -2.7392   -4.8090    1.2389 H   0  0  0  0  0  0  0  0  0  0  0  0
   -2.1158   -4.1980   -0.2922 H   0  0  0  0  0  0  0  0  0  0  0  0
    3.3084    5.3526   -1.2780 H   0  0  0  0  0  0  0  0  0  0  0  0
    2.7973    6.1939    0.2821 H   0  0  0  0  0  0  0  0  0  0  0  0
    1.7061    6.1148   -1.1848 H   0  0  0  0  0  0  0  0  0  0  0  0
   -3.8383    5.5849    1.1626 H   0  0  0  0  0  0  0  0  0  0  0  0
   -3.2868    5.7718   -0.5218 H   0  0  0  0  0  0  0  0  0  0  0  0
   -4.7065    4.7656   -0.1866 H   0  0  0  0  0  0  0  0  0  0  0  0
   -3.2178    0.1732   -0.3197 H   0  0  0  0  0  0  0  0  0  0  0  0
   -4.0345    0.6421   -1.9135 H   0  0  0  0  0  0  0  0  0  0  0  0
   -2.5744    1.4562   -1.3398 H   0  0  0  0  0  0  0  0  0  0  0  0
   -7.4991    0.0340    2.1210 H   0  0  0  0  0  0  0  0  0  0  0  0
   -6.9120    1.6941    2.2258 H   0  0  0  0  0  0  0  0  0  0  0  0
   -6.0811    0.4929    3.2040 H   0  0  0  0  0  0  0  0  0  0  0  0
   -6.2952   -1.8734    2.9639 H   0  0  0  0  0  0  0  0  0  0  0  0
   -5.0244   -3.0692    2.8554 H   0  0  0  0  0  0  0  0  0  0  0  0
   -4.5572   -1.2808    2.7679 H   0  0  0  0  0  0  0  0  0  0  0  0
   -6.9718   -2.4426   -1.2498 H   0  0  0  0  0  0  0  0  0  0  0  0
   -9.7727   -1.2846   -0.8945 H   0  0  0  0  0  0  0  0  0  0  0  0
   -9.4997   -2.9515   -1.3885 H   0  0  0  0  0  0  0  0  0  0  0  0
   -9.3165   -2.4092    0.3781 H   0  0  0  0  0  0  0  0  0  0  0  0
   -3.3309   -3.5546   -2.1690 H   0  0  0  0  0  0  0  0  0  0  0  0
   -5.1341   -3.6295   -2.1171 H   0  0  0  0  0  0  0  0  0  0  0  0
   -4.2728   -2.2814   -2.9977 H   0  0  0  0  0  0  0  0  0  0  0  0
   11.3357    1.7199   -0.1928 H   0  0  0  0  0  0  0  0  0  0  0  0
    9.8049    2.2940   -0.8945 H   0  0  0  0  0  0  0  0  0  0  0  0
   10.5219    0.6966   -1.3936 H   0  0  0  0  0  0  0  0  0  0  0  0
    8.6788   -1.0780    0.9732 H   0  0  0  0  0  0  0  0  0  0  0  0
    9.6496   -1.1528   -0.5246 H   0  0  0  0  0  0  0  0  0  0  0  0
    7.3555   -1.1365   -1.0871 H   0  0  0  0  0  0  0  0  0  0  0  0
    8.1792    0.4214   -1.6567 H   0  0  0  0  0  0  0  0  0  0  0  0
    6.8089    2.4562    1.0252 H   0  0  0  0  0  0  0  0  0  0  0  0
    7.7658    2.4087   -0.4497 H   0  0  0  0  0  0  0  0  0  0  0  0
    8.5064    1.1206    2.2388 H   0  0  0  0  0  0  0  0  0  0  0  0
    9.1683    2.5139    1.3916 H   0  0  0  0  0  0  0  0  0  0  0  0
    5.0855    1.4593    1.5822 H   0  0  0  0  0  0  0  0  0  0  0  0
    4.9978   -0.1344    2.4110 H   0  0  0  0  0  0  0  0  0  0  0  0
    1.9194    2.0906   -1.1778 H   0  0  0  0  0  0  0  0  0  0  0  0
    6.0856   -1.1499    0.5500 H   0  0  0  0  0  0  0  0  0  0  0  0
    3.6032    1.6691   -2.8529 H   0  0  0  0  0  0  0  0  0  0  0  0
    3.2699   -1.7669   -3.4207 H   0  0  0  0  0  0  0  0  0  0  0  0
    1.7616   -4.7406    2.3738 H   0  0  0  0  0  0  0  0  0  0  0  0
   -7.8792   -1.6667   -2.8868 H   0  0  0  0  0  0  0  0  0  0  0  0
   -6.0298    0.9496   -1.6380 H   0  0  0  0  0  0  0  0  0  0  0  0
   -2.5477    1.7759    2.3116 H   0  0  0  0  0  0  0  0  0  0  0  0
    4.4845    4.4133    0.1296 H   0  0  0  0  0  0  0  0  0  0  0  0
    4.5106   -2.7390    1.4620 H   0  0  0  0  0  0  0  0  0  0  0  0
  1  2  1  0
  2  3  1  0
  3  4  1  0
  5  6  1  0
  6  7  1  0
  7  8  1  0
  1  9  1  0
  8  9  1  0
  4 10  1  0
  5 10  1  0
  9 10  1  0
  5 11  1  0
 11 12  1  0
 12 13  1  6
  7 14  1  0
 15 16  1  0
 16 17  1  0
 17 18  1  0
 18 19  1  0
 19 20  1  0
 20 21  1  0
 21 22  1  0
 22 23  1  0
 23 24  1  0
 24 25  1  0
 25 26  1  0
 26 27  1  0
 27 28  1  0
 28 29  1  0
 16 30  1  0
 20 31  1  0
 22 32  1  0
 24 33  1  0
 26 34  1  0
 35 36  1  0
 39 40  1  0
 41 42  1  0
  3 43  1  0
  2 44  1  0
 15 44  1  0
 43 45  1  0
 40 46  1  0
 41 46  1  0
 45 46  1  0
 38 47  1  0
 39 47  1  0
 42 47  1  0
  1 48  1  0
  8 49  1  0
  6 50  1  0
 12 50  1  0
 11 51  1  0
 12 52  1  0
 29 52  1  0
 27 53  1  0
 37 53  1  0
 25 54  1  0
 35 54  1  0
 35 55  1  0
 23 56  1  0
 21 57  1  0
 15 58  1  0
  4 59  1  0
  1 60  1  0
  2 61  1  6
  3 62  1  0
  4 63  1  0
  5 64  1  0
  6 65  1  0
  7 66  1  0
  8 67  1  0
  9 68  1  0
 10 69  1  0
 11 70  1  0
 13 71  1  0
 13 72  1  0
 13 73  1  0
 14 74  1  0
 14 75  1  0
 14 76  1  0
 15 77  1  0
 16 78  1  6
 17 79  1  0
 17 80  1  0
 18 81  1  0
 18 82  1  0
 19 83  1  0
 19 84  1  0
 20 85  1  6
 21 86  1  1
 22 87  1  6
 23 88  1  1
 24 89  1  1
 25 90  1  6
 26 91  1  1
 27 92  1  6
 28 93  1  0
 28 94  1  0
 29 95  1  0
 29 96  1  0
 30 97  1  0
 30 98  1  0
 30 99  1  0
 31100  1  0
 31101  1  0
 31102  1  0
 32103  1  0
 32104  1  0
 32105  1  0
 33106  1  0
 33107  1  0
 33108  1  0
 34109  1  0
 34110  1  0
 34111  1  0
 35112  1  6
 36113  1  0
 36114  1  0
 36115  1  0
 37116  1  0
 37117  1  0
 37118  1  0
 38119  1  0
 38120  1  0
 38121  1  0
 39122  1  0
 39123  1  0
 40124  1  0
 40125  1  0
 41126  1  0
 41127  1  0
 42128  1  0
 42129  1  0
 43130  1  0
 43131  1  0
 44132  1  0
 45133  1  0
 48134  1  0
 49135  1  0
 51136  1  0
 55137  1  0
 56138  1  0
 57139  1  0
 58140  1  0
 59141  1  0
M  END
>  <PDBID>  (1) 
5UAC

>  <PDB ID>  (1) 
5UAC

>  <Generic Name>  (1) 
Rifampicin

>  <Brand Name>  (1) 
Isonarif#Rifadin#Rifadin Cap 300mg#Rifadin IV#Rifadin IV Novaplus#Rifamate#Rifampin#Rifater#Rofact 150mg#Rofact 300mg#Rifadine#Rifaldin#Rifoldin#Rimactan#Rimactane#Rofact#Tubocin

>  <DrugBank ID>  (1) 
DB01045

>  <ATC Codes>  (1) 
J04AM02#J04AB02#J04AM06#J04AM05

>  <Ligand ID>  (1) 
RFP

>  <Target Name>  (1) 
DNA-directed RNA polymerase subunit beta

>  <UniProt ID>  (1) 
P0A8V2

>  <PDB ID.1>  (1) 
5UAC

>  <Seq. Identity>  (1) 
100%

$$$$
