PDB_DB00148_06
     RDKit          3D

 22 21  0  0  0  0  0  0  0  0999 V2000
    3.2784   -0.4021    0.0102 O   0  0  0  0  0  0  0  0  0  0  0  0
    2.0350   -0.2479    0.6497 C   0  0  0  0  0  0  0  0  0  0  0  0
    1.8449   -1.4815    1.3252 O   0  0  0  0  0  0  0  0  0  0  0  0
    0.9700   -0.0720   -0.3798 C   0  0  0  0  0  0  0  0  0  0  0  0
   -0.3534    0.1031    0.1510 N   0  0  0  0  0  0  0  0  0  0  0  0
   -0.4543    1.3833    0.8070 C   0  0  0  0  0  0  0  0  0  0  0  0
   -1.3949    0.0070   -0.8460 C   0  0  0  0  0  0  0  0  0  0  0  0
   -1.3443   -1.3258   -1.4764 N   0  0  0  0  0  0  0  0  0  0  0  0
   -2.6988    0.1075   -0.2838 N   0  0  0  0  0  0  0  0  0  0  0  0
    3.8484    0.3947    0.1873 H   0  0  0  0  0  0  0  0  0  0  0  0
    2.1077    0.5079    1.4228 H   0  0  0  0  0  0  0  0  0  0  0  0
    2.7238   -1.7088    1.7177 H   0  0  0  0  0  0  0  0  0  0  0  0
    1.0182   -0.9537   -1.0845 H   0  0  0  0  0  0  0  0  0  0  0  0
    1.2623    0.8144   -1.0173 H   0  0  0  0  0  0  0  0  0  0  0  0
    0.4807    1.6643    1.3098 H   0  0  0  0  0  0  0  0  0  0  0  0
   -1.3241    1.3792    1.5254 H   0  0  0  0  0  0  0  0  0  0  0  0
   -0.7181    2.1530    0.0239 H   0  0  0  0  0  0  0  0  0  0  0  0
   -1.3034    0.7637   -1.6600 H   0  0  0  0  0  0  0  0  0  0  0  0
   -1.4387   -1.9934   -0.6583 H   0  0  0  0  0  0  0  0  0  0  0  0
   -2.2797   -1.4153   -1.9767 H   0  0  0  0  0  0  0  0  0  0  0  0
   -2.8765   -0.3572    0.5852 H   0  0  0  0  0  0  0  0  0  0  0  0
   -3.3831    0.6797   -0.7330 H   0  0  0  0  0  0  0  0  0  0  0  0
  1  2  1  0
  2  3  1  0
  2  4  1  0
  4  5  1  0
  5  6  1  0
  5  7  1  0
  7  8  1  0
  7  9  1  0
  1 10  1  0
  2 11  1  0
  3 12  1  0
  4 13  1  0
  4 14  1  0
  6 15  1  0
  6 16  1  0
  6 17  1  0
  7 18  1  0
  8 19  1  0
  8 20  1  0
  9 21  1  0
  9 22  1  0
M  END
>  <PDBID>  (1) 
3B6R

>  <PDB ID>  (1) 
3B6R

>  <Generic Name>  (1) 
Creatine

>  <Brand Name>  (1) 
nan

>  <DrugBank ID>  (1) 
DB00148

>  <ATC Codes>  (1) 
nan

>  <Ligand ID>  (1) 
CRN

>  <Target Name>  (1) 
Creatine kinase B-type

>  <UniProt ID>  (1) 
P12277

>  <PDB ID.1>  (1) 
3B6R

>  <Seq. Identity>  (1) 
96%

$$$$
