PDB_DB08954_01
     RDKit          3D

126130  0  0  0  0  0  0  0  0999 V2000
    5.9762    0.2846    1.9997 C   0  0  0  0  0  0  0  0  0  0  0  0
   -0.3836   -0.9570   -1.4800 N   0  0  0  0  0  0  0  0  0  0  0  0
   -1.3105   -0.6472    1.3149 O   0  0  0  0  0  0  0  0  0  0  0  0
   -5.8692   -0.0958   -0.0377 C   0  0  0  0  0  0  0  0  0  0  0  0
   -6.6058    2.1470    0.0164 O   0  0  0  0  0  0  0  0  0  0  0  0
   -4.7021    1.6022    1.2722 C   0  0  0  0  0  0  0  0  0  0  0  0
    3.8061    0.7209    0.3486 C   0  0  0  0  0  0  0  0  0  0  0  0
    3.9321   -0.6608    0.8860 C   0  0  0  0  0  0  0  0  0  0  0  0
    4.7528   -0.5425    2.1645 C   0  0  0  0  0  0  0  0  0  0  0  0
    2.6085    1.0519   -0.4093 C   0  0  0  0  0  0  0  0  0  0  0  0
    2.2367    0.3483   -1.6442 C   0  0  0  0  0  0  0  0  0  0  0  0
    1.9852   -1.1234   -1.4865 C   0  0  0  0  0  0  0  0  0  0  0  0
    6.1416    1.1301    0.8214 C   0  0  0  0  0  0  0  0  0  0  0  0
    5.1349    1.0190   -0.2915 C   0  0  0  0  0  0  0  0  0  0  0  0
    0.7007   -1.3682   -0.6811 C   0  0  0  0  0  0  0  0  0  0  0  0
   -0.1026   -0.0564   -2.5378 C   0  0  0  0  0  0  0  0  0  0  0  0
    0.9628    0.9362   -2.2449 C   0  0  0  0  0  0  0  0  0  0  0  0
   -1.6997   -1.1021   -1.0371 C   0  0  2  0  0  0  0  0  0  0  0  0
   -2.0626   -0.3086    0.1993 C   0  0  1  0  0  0  0  0  0  0  0  0
   -3.5163   -0.4909    0.5500 C   0  0  0  0  0  0  0  0  0  0  0  0
   -4.4445   -0.1530   -0.5820 C   0  0  0  0  0  0  0  0  0  0  0  0
   -6.0647    1.1312    0.7900 C   0  0  0  0  0  0  0  0  0  0  0  0
   -3.8409    0.4369    1.7040 C   0  0  0  0  0  0  0  0  0  0  0  0
   -2.0483   -2.5575   -0.6865 C   0  0  0  0  0  0  0  0  0  0  0  0
    5.9762    0.2846    1.9997 C   0  0  0  0  0  0  0  0  0  0  0  0
   -0.3836   -0.9570   -1.4800 N   0  0  0  0  0  0  0  0  0  0  0  0
   -1.3105   -0.6472    1.3149 O   0  0  0  0  0  0  0  0  0  0  0  0
   -5.8692   -0.0958   -0.0377 C   0  0  0  0  0  0  0  0  0  0  0  0
   -6.6058    2.1470    0.0164 O   0  0  0  0  0  0  0  0  0  0  0  0
   -4.7021    1.6022    1.2722 C   0  0  0  0  0  0  0  0  0  0  0  0
    3.8061    0.7209    0.3486 C   0  0  0  0  0  0  0  0  0  0  0  0
    3.9321   -0.6608    0.8860 C   0  0  0  0  0  0  0  0  0  0  0  0
    4.7528   -0.5425    2.1645 C   0  0  0  0  0  0  0  0  0  0  0  0
    2.6085    1.0519   -0.4093 C   0  0  0  0  0  0  0  0  0  0  0  0
    2.2367    0.3483   -1.6442 C   0  0  0  0  0  0  0  0  0  0  0  0
    1.9852   -1.1234   -1.4865 C   0  0  0  0  0  0  0  0  0  0  0  0
    6.1416    1.1301    0.8214 C   0  0  0  0  0  0  0  0  0  0  0  0
    5.1349    1.0190   -0.2915 C   0  0  0  0  0  0  0  0  0  0  0  0
    0.7007   -1.3682   -0.6811 C   0  0  0  0  0  0  0  0  0  0  0  0
   -0.1026   -0.0564   -2.5378 C   0  0  0  0  0  0  0  0  0  0  0  0
    0.9628    0.9362   -2.2449 C   0  0  0  0  0  0  0  0  0  0  0  0
   -1.6997   -1.1021   -1.0371 C   0  0  2  0  0  0  0  0  0  0  0  0
   -2.0626   -0.3086    0.1993 C   0  0  1  0  0  0  0  0  0  0  0  0
   -3.5163   -0.4909    0.5500 C   0  0  0  0  0  0  0  0  0  0  0  0
   -4.4445   -0.1530   -0.5820 C   0  0  0  0  0  0  0  0  0  0  0  0
   -6.0647    1.1312    0.7900 C   0  0  0  0  0  0  0  0  0  0  0  0
   -3.8409    0.4369    1.7040 C   0  0  0  0  0  0  0  0  0  0  0  0
   -2.0483   -2.5575   -0.6865 C   0  0  0  0  0  0  0  0  0  0  0  0
    6.8600   -0.4198    2.0653 H   0  0  0  0  0  0  0  0  0  0  0  0
    6.0797    0.9009    2.9421 H   0  0  0  0  0  0  0  0  0  0  0  0
   -1.8667   -0.9158    2.0887 H   0  0  0  0  0  0  0  0  0  0  0  0
   -5.9974   -1.0463    0.5514 H   0  0  0  0  0  0  0  0  0  0  0  0
   -6.5408   -0.1252   -0.9299 H   0  0  0  0  0  0  0  0  0  0  0  0
   -6.2039    2.0863   -0.8950 H   0  0  0  0  0  0  0  0  0  0  0  0
   -4.8896    2.2185    2.1753 H   0  0  0  0  0  0  0  0  0  0  0  0
   -4.1834    2.2324    0.5368 H   0  0  0  0  0  0  0  0  0  0  0  0
    3.7877    1.4034    1.2734 H   0  0  0  0  0  0  0  0  0  0  0  0
    2.9513   -1.1066    1.1072 H   0  0  0  0  0  0  0  0  0  0  0  0
    4.5618   -1.2745    0.1945 H   0  0  0  0  0  0  0  0  0  0  0  0
    4.9742   -1.5858    2.4704 H   0  0  0  0  0  0  0  0  0  0  0  0
    4.0575   -0.1358    2.9273 H   0  0  0  0  0  0  0  0  0  0  0  0
    2.6129    2.1639   -0.6316 H   0  0  0  0  0  0  0  0  0  0  0  0
    1.7442    0.9559    0.3292 H   0  0  0  0  0  0  0  0  0  0  0  0
    3.0317    0.4122   -2.4479 H   0  0  0  0  0  0  0  0  0  0  0  0
    2.8138   -1.7399   -1.1911 H   0  0  0  0  0  0  0  0  0  0  0  0
    1.6928   -1.5155   -2.5204 H   0  0  0  0  0  0  0  0  0  0  0  0
    7.1531    1.0137    0.3493 H   0  0  0  0  0  0  0  0  0  0  0  0
    6.1244    2.2222    1.1220 H   0  0  0  0  0  0  0  0  0  0  0  0
    5.0668    1.9719   -0.8548 H   0  0  0  0  0  0  0  0  0  0  0  0
    5.4646    0.2245   -0.9914 H   0  0  0  0  0  0  0  0  0  0  0  0
    0.7149   -0.7966    0.2594 H   0  0  0  0  0  0  0  0  0  0  0  0
    0.7318   -2.4363   -0.4071 H   0  0  0  0  0  0  0  0  0  0  0  0
    0.0651   -0.5461   -3.5212 H   0  0  0  0  0  0  0  0  0  0  0  0
   -1.0462    0.5469   -2.7021 H   0  0  0  0  0  0  0  0  0  0  0  0
    0.5443    1.6945   -1.5498 H   0  0  0  0  0  0  0  0  0  0  0  0
    1.2148    1.4957   -3.1692 H   0  0  0  0  0  0  0  0  0  0  0  0
   -2.4595   -0.7954   -1.8080 H   0  0  0  0  0  0  0  0  0  0  0  0
   -1.8977    0.7866    0.0316 H   0  0  0  0  0  0  0  0  0  0  0  0
   -3.6840   -1.5285    0.9301 H   0  0  0  0  0  0  0  0  0  0  0  0
   -4.4653   -0.8758   -1.4007 H   0  0  0  0  0  0  0  0  0  0  0  0
   -4.1271    0.8541   -0.9637 H   0  0  0  0  0  0  0  0  0  0  0  0
   -6.6944    0.8814    1.6592 H   0  0  0  0  0  0  0  0  0  0  0  0
   -4.3643   -0.0813    2.5336 H   0  0  0  0  0  0  0  0  0  0  0  0
   -2.9209    0.8768    2.1554 H   0  0  0  0  0  0  0  0  0  0  0  0
   -1.3915   -3.2602   -1.2379 H   0  0  0  0  0  0  0  0  0  0  0  0
   -3.0819   -2.7831   -1.0034 H   0  0  0  0  0  0  0  0  0  0  0  0
   -2.0194   -2.7181    0.4127 H   0  0  0  0  0  0  0  0  0  0  0  0
    6.8600   -0.4198    2.0653 H   0  0  0  0  0  0  0  0  0  0  0  0
    6.0797    0.9009    2.9421 H   0  0  0  0  0  0  0  0  0  0  0  0
   -1.8667   -0.9158    2.0887 H   0  0  0  0  0  0  0  0  0  0  0  0
   -5.9974   -1.0463    0.5514 H   0  0  0  0  0  0  0  0  0  0  0  0
   -6.5408   -0.1252   -0.9299 H   0  0  0  0  0  0  0  0  0  0  0  0
   -6.2039    2.0863   -0.8950 H   0  0  0  0  0  0  0  0  0  0  0  0
   -4.8896    2.2185    2.1753 H   0  0  0  0  0  0  0  0  0  0  0  0
   -4.1834    2.2324    0.5368 H   0  0  0  0  0  0  0  0  0  0  0  0
    3.7877    1.4034    1.2734 H   0  0  0  0  0  0  0  0  0  0  0  0
    2.9513   -1.1066    1.1072 H   0  0  0  0  0  0  0  0  0  0  0  0
    4.5618   -1.2745    0.1945 H   0  0  0  0  0  0  0  0  0  0  0  0
    4.9742   -1.5858    2.4704 H   0  0  0  0  0  0  0  0  0  0  0  0
    4.0575   -0.1358    2.9273 H   0  0  0  0  0  0  0  0  0  0  0  0
    2.6129    2.1639   -0.6316 H   0  0  0  0  0  0  0  0  0  0  0  0
    1.7442    0.9559    0.3292 H   0  0  0  0  0  0  0  0  0  0  0  0
    3.0317    0.4122   -2.4479 H   0  0  0  0  0  0  0  0  0  0  0  0
    2.8138   -1.7399   -1.1911 H   0  0  0  0  0  0  0  0  0  0  0  0
    1.6928   -1.5155   -2.5204 H   0  0  0  0  0  0  0  0  0  0  0  0
    7.1531    1.0137    0.3493 H   0  0  0  0  0  0  0  0  0  0  0  0
    6.1244    2.2222    1.1220 H   0  0  0  0  0  0  0  0  0  0  0  0
    5.0668    1.9719   -0.8548 H   0  0  0  0  0  0  0  0  0  0  0  0
    5.4646    0.2245   -0.9914 H   0  0  0  0  0  0  0  0  0  0  0  0
    0.7149   -0.7966    0.2594 H   0  0  0  0  0  0  0  0  0  0  0  0
    0.7318   -2.4363   -0.4071 H   0  0  0  0  0  0  0  0  0  0  0  0
    0.0651   -0.5461   -3.5212 H   0  0  0  0  0  0  0  0  0  0  0  0
   -1.0462    0.5469   -2.7021 H   0  0  0  0  0  0  0  0  0  0  0  0
    0.5443    1.6945   -1.5498 H   0  0  0  0  0  0  0  0  0  0  0  0
    1.2148    1.4957   -3.1692 H   0  0  0  0  0  0  0  0  0  0  0  0
   -2.4595   -0.7954   -1.8080 H   0  0  0  0  0  0  0  0  0  0  0  0
   -1.8977    0.7866    0.0316 H   0  0  0  0  0  0  0  0  0  0  0  0
   -3.6840   -1.5285    0.9301 H   0  0  0  0  0  0  0  0  0  0  0  0
   -4.4653   -0.8758   -1.4007 H   0  0  0  0  0  0  0  0  0  0  0  0
   -4.1271    0.8541   -0.9637 H   0  0  0  0  0  0  0  0  0  0  0  0
   -6.6944    0.8814    1.6592 H   0  0  0  0  0  0  0  0  0  0  0  0
   -4.3643   -0.0813    2.5336 H   0  0  0  0  0  0  0  0  0  0  0  0
   -2.9209    0.8768    2.1554 H   0  0  0  0  0  0  0  0  0  0  0  0
   -1.3915   -3.2602   -1.2379 H   0  0  0  0  0  0  0  0  0  0  0  0
   -3.0819   -2.7831   -1.0034 H   0  0  0  0  0  0  0  0  0  0  0  0
   -2.0194   -2.7181    0.4127 H   0  0  0  0  0  0  0  0  0  0  0  0
  7  8  1  0
  1  9  1  0
  8  9  1  0
  7 10  1  0
 10 11  1  0
 11 12  1  0
  1 13  1  0
  7 14  1  0
 13 14  1  0
  2 15  1  0
 12 15  1  0
  2 16  1  0
 11 17  1  0
 16 17  1  0
  2 18  1  0
  3 19  1  0
 18 19  1  0
 19 20  1  0
  4 21  1  0
 20 21  1  0
  4 22  1  0
  5 22  1  0
  6 22  1  0
  6 23  1  0
 20 23  1  0
 18 24  1  0
 31 32  1  0
 25 33  1  0
 32 33  1  0
 31 34  1  0
 34 35  1  0
 35 36  1  0
 25 37  1  0
 31 38  1  0
 37 38  1  0
 26 39  1  0
 36 39  1  0
 26 40  1  0
 35 41  1  0
 40 41  1  0
 26 42  1  0
 27 43  1  0
 42 43  1  0
 43 44  1  0
 28 45  1  0
 44 45  1  0
 28 46  1  0
 29 46  1  0
 30 46  1  0
 30 47  1  0
 44 47  1  0
 42 48  1  0
  1 49  1  0
  1 50  1  0
  3 51  1  0
  4 52  1  0
  4 53  1  0
  5 54  1  0
  6 55  1  0
  6 56  1  0
  7 57  1  0
  8 58  1  0
  8 59  1  0
  9 60  1  0
  9 61  1  0
 10 62  1  0
 10 63  1  0
 11 64  1  0
 12 65  1  0
 12 66  1  0
 13 67  1  0
 13 68  1  0
 14 69  1  0
 14 70  1  0
 15 71  1  0
 15 72  1  0
 16 73  1  0
 16 74  1  0
 17 75  1  0
 17 76  1  0
 18 77  1  6
 19 78  1  6
 20 79  1  0
 21 80  1  0
 21 81  1  0
 22 82  1  0
 23 83  1  0
 23 84  1  0
 24 85  1  0
 24 86  1  0
 24 87  1  0
 25 88  1  0
 25 89  1  0
 27 90  1  0
 28 91  1  0
 28 92  1  0
 29 93  1  0
 30 94  1  0
 30 95  1  0
 31 96  1  0
 32 97  1  0
 32 98  1  0
 33 99  1  0
 33100  1  0
 34101  1  0
 34102  1  0
 35103  1  0
 36104  1  0
 36105  1  0
 37106  1  0
 37107  1  0
 38108  1  0
 38109  1  0
 39110  1  0
 39111  1  0
 40112  1  0
 40113  1  0
 41114  1  0
 41115  1  0
 42116  1  6
 43117  1  6
 44118  1  0
 45119  1  0
 45120  1  0
 46121  1  0
 47122  1  0
 47123  1  0
 48124  1  0
 48125  1  0
 48126  1  0
M  END
>  <PDBID>  (1) 
4PE5

>  <PDB ID>  (1) 
4PE5

>  <Generic Name>  (1) 
Ifenprodil

>  <Brand Name>  (1) 
Cerocral#Furezanil#Iburonol#Linbulane#Technis#Vadilex#Vasculodil#Youajyl

>  <DrugBank ID>  (1) 
DB08954

>  <ATC Codes>  (1) 
C04AX28

>  <Ligand ID>  (1) 
QEL

>  <Target Name>  (1) 
Glutamate receptor ionotropic, NMDA 1

>  <UniProt ID>  (1) 
Q05586

>  <PDB ID.1>  (1) 
4PE5

>  <Seq. Identity>  (1) 
98%

$$$$
