PDB_DB00712_08
     RDKit          3D

 90 92  0  0  0  0  0  0  0  0999 V2000
   -4.0327    1.0797    0.5189 C   0  0  0  0  0  0  0  0  0  0  0  0
   -2.6283    0.5233    0.7514 C   0  0  0  0  0  0  0  0  0  0  0  0
   -2.1647   -0.0146   -0.5729 C   0  0  0  0  0  0  0  0  0  0  0  0
   -3.0318   -1.1728   -0.9287 C   0  0  0  0  0  0  0  0  0  0  0  0
   -4.4004   -0.5908   -1.3249 C   0  0  0  0  0  0  0  0  0  0  0  0
   -4.9498    0.0445   -0.0785 C   0  0  0  0  0  0  0  0  0  0  0  0
   -0.6987   -0.2741   -0.6484 C   0  0  0  0  0  0  0  0  0  0  0  0
    0.0718    1.0072   -0.3996 C   0  0  0  0  0  0  0  0  0  0  0  0
    1.5440    0.8486   -0.7635 C   0  0  0  0  0  0  0  0  0  0  0  0
    2.1062   -0.4541   -0.3071 C   0  0  0  0  0  0  0  0  0  0  0  0
    1.2229   -1.0094    0.7715 C   0  0  0  0  0  0  0  0  0  0  0  0
   -0.1705   -1.3496    0.2177 C   0  0  0  0  0  0  0  0  0  0  0  0
    3.5059   -0.3669    0.2063 C   0  0  2  0  0  0  0  0  0  0  0  0
    3.6541    0.5501    1.3845 C   0  0  0  0  0  0  0  0  0  0  0  0
    4.4809    0.0536   -0.9013 C   0  0  0  0  0  0  0  0  0  0  0  0
    4.0934    1.3038   -1.3806 O   0  0  0  0  0  0  0  0  0  0  0  0
    5.7664    0.1911   -0.3990 O   0  0  0  0  0  0  0  0  0  0  0  0
   -0.9303   -1.6996    1.2857 F   0  0  0  0  0  0  0  0  0  0  0  0
   -4.0327    1.0797    0.5189 C   0  0  0  0  0  0  0  0  0  0  0  0
   -2.6283    0.5233    0.7514 C   0  0  0  0  0  0  0  0  0  0  0  0
   -2.1647   -0.0146   -0.5729 C   0  0  0  0  0  0  0  0  0  0  0  0
   -3.0318   -1.1728   -0.9287 C   0  0  0  0  0  0  0  0  0  0  0  0
   -4.4004   -0.5908   -1.3249 C   0  0  0  0  0  0  0  0  0  0  0  0
   -4.9498    0.0445   -0.0785 C   0  0  0  0  0  0  0  0  0  0  0  0
   -0.6987   -0.2741   -0.6484 C   0  0  0  0  0  0  0  0  0  0  0  0
    0.0718    1.0072   -0.3996 C   0  0  0  0  0  0  0  0  0  0  0  0
    1.5440    0.8486   -0.7635 C   0  0  0  0  0  0  0  0  0  0  0  0
    2.1062   -0.4541   -0.3071 C   0  0  0  0  0  0  0  0  0  0  0  0
    1.2229   -1.0094    0.7715 C   0  0  0  0  0  0  0  0  0  0  0  0
   -0.1705   -1.3496    0.2177 C   0  0  0  0  0  0  0  0  0  0  0  0
    3.5059   -0.3669    0.2063 C   0  0  2  0  0  0  0  0  0  0  0  0
    3.6541    0.5501    1.3845 C   0  0  0  0  0  0  0  0  0  0  0  0
    4.4809    0.0536   -0.9013 C   0  0  0  0  0  0  0  0  0  0  0  0
    4.0934    1.3038   -1.3806 O   0  0  0  0  0  0  0  0  0  0  0  0
    5.7664    0.1911   -0.3990 O   0  0  0  0  0  0  0  0  0  0  0  0
   -0.9303   -1.6996    1.2857 F   0  0  0  0  0  0  0  0  0  0  0  0
   -4.0019    2.0039   -0.0597 H   0  0  0  0  0  0  0  0  0  0  0  0
   -4.4313    1.3156    1.5333 H   0  0  0  0  0  0  0  0  0  0  0  0
   -2.6260   -0.1912    1.5723 H   0  0  0  0  0  0  0  0  0  0  0  0
   -2.0189    1.4035    1.0847 H   0  0  0  0  0  0  0  0  0  0  0  0
   -2.3805    0.7975   -1.3291 H   0  0  0  0  0  0  0  0  0  0  0  0
   -2.6636   -1.7780   -1.7664 H   0  0  0  0  0  0  0  0  0  0  0  0
   -3.2655   -1.7810   -0.0227 H   0  0  0  0  0  0  0  0  0  0  0  0
   -5.0245   -1.4536   -1.5826 H   0  0  0  0  0  0  0  0  0  0  0  0
   -4.2897    0.1254   -2.1630 H   0  0  0  0  0  0  0  0  0  0  0  0
   -5.8895    0.5439   -0.3402 H   0  0  0  0  0  0  0  0  0  0  0  0
   -5.1795   -0.7471    0.6463 H   0  0  0  0  0  0  0  0  0  0  0  0
   -0.4480   -0.5502   -1.7169 H   0  0  0  0  0  0  0  0  0  0  0  0
   -0.3338    1.7560   -1.1161 H   0  0  0  0  0  0  0  0  0  0  0  0
   -0.0120    1.3445    0.6490 H   0  0  0  0  0  0  0  0  0  0  0  0
    1.6728    0.9417   -1.8626 H   0  0  0  0  0  0  0  0  0  0  0  0
    2.0537    1.7408   -0.3265 H   0  0  0  0  0  0  0  0  0  0  0  0
    2.1294   -1.1684   -1.1798 H   0  0  0  0  0  0  0  0  0  0  0  0
    1.1096   -0.2613    1.5762 H   0  0  0  0  0  0  0  0  0  0  0  0
    1.6622   -1.9682    1.1161 H   0  0  0  0  0  0  0  0  0  0  0  0
    0.0023   -2.2985   -0.3726 H   0  0  0  0  0  0  0  0  0  0  0  0
    3.8448   -1.3732    0.5261 H   0  0  0  0  0  0  0  0  0  0  0  0
    3.5349    1.6043    1.0688 H   0  0  0  0  0  0  0  0  0  0  0  0
    2.9878    0.2412    2.1920 H   0  0  0  0  0  0  0  0  0  0  0  0
    4.7190    0.4682    1.7358 H   0  0  0  0  0  0  0  0  0  0  0  0
    4.5172   -0.7104   -1.6964 H   0  0  0  0  0  0  0  0  0  0  0  0
    4.7609    2.0048   -1.1975 H   0  0  0  0  0  0  0  0  0  0  0  0
    6.1316   -0.6803   -0.1266 H   0  0  0  0  0  0  0  0  0  0  0  0
   -4.0019    2.0039   -0.0597 H   0  0  0  0  0  0  0  0  0  0  0  0
   -4.4313    1.3156    1.5333 H   0  0  0  0  0  0  0  0  0  0  0  0
   -2.6260   -0.1912    1.5723 H   0  0  0  0  0  0  0  0  0  0  0  0
   -2.0189    1.4035    1.0847 H   0  0  0  0  0  0  0  0  0  0  0  0
   -2.3805    0.7975   -1.3291 H   0  0  0  0  0  0  0  0  0  0  0  0
   -2.6636   -1.7780   -1.7664 H   0  0  0  0  0  0  0  0  0  0  0  0
   -3.2655   -1.7810   -0.0227 H   0  0  0  0  0  0  0  0  0  0  0  0
   -5.0245   -1.4536   -1.5826 H   0  0  0  0  0  0  0  0  0  0  0  0
   -4.2897    0.1254   -2.1630 H   0  0  0  0  0  0  0  0  0  0  0  0
   -5.8895    0.5439   -0.3402 H   0  0  0  0  0  0  0  0  0  0  0  0
   -5.1795   -0.7471    0.6463 H   0  0  0  0  0  0  0  0  0  0  0  0
   -0.4480   -0.5502   -1.7169 H   0  0  0  0  0  0  0  0  0  0  0  0
   -0.3338    1.7560   -1.1161 H   0  0  0  0  0  0  0  0  0  0  0  0
   -0.0120    1.3445    0.6490 H   0  0  0  0  0  0  0  0  0  0  0  0
    1.6728    0.9417   -1.8626 H   0  0  0  0  0  0  0  0  0  0  0  0
    2.0537    1.7408   -0.3265 H   0  0  0  0  0  0  0  0  0  0  0  0
    2.1294   -1.1684   -1.1798 H   0  0  0  0  0  0  0  0  0  0  0  0
    1.1096   -0.2613    1.5762 H   0  0  0  0  0  0  0  0  0  0  0  0
    1.6622   -1.9682    1.1161 H   0  0  0  0  0  0  0  0  0  0  0  0
    0.0023   -2.2985   -0.3726 H   0  0  0  0  0  0  0  0  0  0  0  0
    3.8448   -1.3732    0.5261 H   0  0  0  0  0  0  0  0  0  0  0  0
    3.5349    1.6043    1.0688 H   0  0  0  0  0  0  0  0  0  0  0  0
    2.9878    0.2412    2.1920 H   0  0  0  0  0  0  0  0  0  0  0  0
    4.7190    0.4682    1.7358 H   0  0  0  0  0  0  0  0  0  0  0  0
    4.5172   -0.7104   -1.6964 H   0  0  0  0  0  0  0  0  0  0  0  0
    4.7609    2.0048   -1.1975 H   0  0  0  0  0  0  0  0  0  0  0  0
    6.1316   -0.6803   -0.1266 H   0  0  0  0  0  0  0  0  0  0  0  0
  1  2  1  0
  2  3  1  0
  3  4  1  0
  4  5  1  0
  1  6  1  0
  5  6  1  0
  3  7  1  0
  7  8  1  0
  8  9  1  0
  9 10  1  0
 10 11  1  0
  7 12  1  0
 11 12  1  0
 10 13  1  0
 13 14  1  0
 13 15  1  0
 15 16  1  0
 15 17  1  0
 12 18  1  0
 19 20  1  0
 20 21  1  0
 21 22  1  0
 22 23  1  0
 19 24  1  0
 23 24  1  0
 21 25  1  0
 25 26  1  0
 26 27  1  0
 27 28  1  0
 28 29  1  0
 25 30  1  0
 29 30  1  0
 28 31  1  0
 31 32  1  0
 31 33  1  0
 33 34  1  0
 33 35  1  0
 30 36  1  0
  1 37  1  0
  1 38  1  0
  2 39  1  0
  2 40  1  0
  3 41  1  0
  4 42  1  0
  4 43  1  0
  5 44  1  0
  5 45  1  0
  6 46  1  0
  6 47  1  0
  7 48  1  0
  8 49  1  0
  8 50  1  0
  9 51  1  0
  9 52  1  0
 10 53  1  0
 11 54  1  0
 11 55  1  0
 12 56  1  0
 13 57  1  1
 14 58  1  0
 14 59  1  0
 14 60  1  0
 15 61  1  0
 16 62  1  0
 17 63  1  0
 19 64  1  0
 19 65  1  0
 20 66  1  0
 20 67  1  0
 21 68  1  0
 22 69  1  0
 22 70  1  0
 23 71  1  0
 23 72  1  0
 24 73  1  0
 24 74  1  0
 25 75  1  0
 26 76  1  0
 26 77  1  0
 27 78  1  0
 27 79  1  0
 28 80  1  0
 29 81  1  0
 29 82  1  0
 30 83  1  0
 31 84  1  1
 32 85  1  0
 32 86  1  0
 32 87  1  0
 33 88  1  0
 34 89  1  0
 35 90  1  0
M  END
>  <PDBID>  (1) 
5JVZ

>  <PDB ID>  (1) 
5JVZ

>  <Generic Name>  (1) 
Flurbiprofen

>  <Brand Name>  (1) 
Ansaid Tablets 100 mg#Ansaid Tablets 50 mg#Antiphlamine Pain Relieving#Apo-flurbiprofen Fc Tablets 100mg#Apo-flurbiprofen Fc Tablets 50mg#Flurbiprofen#Flurbiprofen Sodium#Flurbiprofen-100 Tab 100mg#Flurbiprofen-50 Tab 50mg#Froben#Froben SR#Froben Tab 100mg#Froben Tab 50mg#Froben-SR Cap 200mg#Novo-flurprofen SR#Nu-flurbiprofen Tab 100mg#Nu-flurbiprofen Tab 50mg#Ocufen#Ocufen Oph Soln 0.03%#Ratio-flurbiprofen Tablets 100mg#Ratio-flurbiprofen Tablets 50mg#Teva-flurbiprofen#Acustop Cataplasma#Adofeed#Ansaid#Antadys#Cebutid#Flurofen#Ocuflur#Stayban#Strefen#Strepfen#Strepsils#Strepsils Intensive#TransAct#Urbifen#Zepolas

>  <DrugBank ID>  (1) 
DB00712

>  <ATC Codes>  (1) 
M02AA19#R02AX01#M01AE09#S01BC04

>  <Ligand ID>  (1) 
FLP,FLR

>  <Target Name>  (1) 
Prostaglandin G/H synthase 2

>  <UniProt ID>  (1) 
P35354

>  <PDB ID.1>  (1) 
5JVZ

>  <Seq. Identity>  (1) 
85%

$$$$
