PDB_DB01010_02
     RDKit          3D

 34 34  0  0  0  0  0  0  0  0999 V2000
    0.6188   -0.0289    1.3492 C   0  0  0  0  0  0  0  0  0  0  0  0
    0.1224   -0.4147   -0.0442 C   0  0  0  0  0  0  0  0  0  0  0  0
    0.7441    0.5519   -0.9995 C   0  0  0  0  0  0  0  0  0  0  0  0
    2.2480    0.2790   -1.0461 C   0  0  2  0  0  0  0  0  0  0  0  0
    2.8783    0.3116    0.3044 C   0  0  0  0  0  0  0  0  0  0  0  0
    2.0962   -0.3680    1.3772 C   0  0  0  0  0  0  0  0  0  0  0  0
    2.9079    1.1772   -1.8667 O   0  0  0  0  0  0  0  0  0  0  0  0
   -1.2922   -0.5270   -0.1204 N   0  0  0  0  0  0  0  0  0  0  0  0
   -1.5725   -1.6941   -0.9851 C   0  0  0  0  0  0  0  0  0  0  0  0
   -1.8951   -0.8735    1.1488 C   0  0  0  0  0  0  0  0  0  0  0  0
   -1.9835    0.5640   -0.7113 C   0  0  0  0  0  0  0  0  0  0  0  0
   -2.2989    1.7034    0.2188 C   0  0  0  0  0  0  0  0  0  0  0  0
    0.5106    1.0451    1.5134 H   0  0  0  0  0  0  0  0  0  0  0  0
    0.1525   -0.6552    2.1345 H   0  0  0  0  0  0  0  0  0  0  0  0
    0.6146   -1.4148   -0.2368 H   0  0  0  0  0  0  0  0  0  0  0  0
    0.6129    1.5873   -0.6464 H   0  0  0  0  0  0  0  0  0  0  0  0
    0.3992    0.4074   -2.0526 H   0  0  0  0  0  0  0  0  0  0  0  0
    2.3573   -0.7424   -1.4692 H   0  0  0  0  0  0  0  0  0  0  0  0
    3.8611   -0.2350    0.2217 H   0  0  0  0  0  0  0  0  0  0  0  0
    3.1547    1.3492    0.5958 H   0  0  0  0  0  0  0  0  0  0  0  0
    2.1500   -1.4798    1.1940 H   0  0  0  0  0  0  0  0  0  0  0  0
    2.5674   -0.1435    2.3483 H   0  0  0  0  0  0  0  0  0  0  0  0
    3.8588    1.2137   -1.5768 H   0  0  0  0  0  0  0  0  0  0  0  0
   -0.8474   -2.4698   -0.7018 H   0  0  0  0  0  0  0  0  0  0  0  0
   -1.4607   -1.3815   -2.0460 H   0  0  0  0  0  0  0  0  0  0  0  0
   -2.6224   -1.9646   -0.8279 H   0  0  0  0  0  0  0  0  0  0  0  0
   -2.9621   -1.1611    0.9911 H   0  0  0  0  0  0  0  0  0  0  0  0
   -1.3943   -1.8217    1.4877 H   0  0  0  0  0  0  0  0  0  0  0  0
   -1.8023   -0.1135    1.9166 H   0  0  0  0  0  0  0  0  0  0  0  0
   -2.9863    0.1741   -1.0605 H   0  0  0  0  0  0  0  0  0  0  0  0
   -1.5044    0.9830   -1.5977 H   0  0  0  0  0  0  0  0  0  0  0  0
   -2.9663    2.4010   -0.3670 H   0  0  0  0  0  0  0  0  0  0  0  0
   -2.8734    1.4203    1.1033 H   0  0  0  0  0  0  0  0  0  0  0  0
   -1.3931    2.3209    0.4509 H   0  0  0  0  0  0  0  0  0  0  0  0
  1  2  1  0
  2  3  1  0
  3  4  1  0
  4  5  1  0
  1  6  1  0
  5  6  1  0
  4  7  1  0
  2  8  1  0
  8  9  1  0
  8 10  1  0
  8 11  1  0
 11 12  1  0
  1 13  1  0
  1 14  1  0
  2 15  1  0
  3 16  1  0
  3 17  1  0
  4 18  1  6
  5 19  1  0
  5 20  1  0
  6 21  1  0
  6 22  1  0
  7 23  1  0
  9 24  1  0
  9 25  1  0
  9 26  1  0
 10 27  1  0
 10 28  1  0
 10 29  1  0
 11 30  1  0
 11 31  1  0
 12 32  1  0
 12 33  1  0
 12 34  1  0
M  CHG  1   8   1
M  END
>  <PDBID>  (1) 
2ACK

>  <PDB ID>  (1) 
2ACK

>  <Generic Name>  (1) 
Edrophonium

>  <Brand Name>  (1) 
Enlon#Enlon 10mg/ml#Enlon Liq IV 10mg/ml#Enlon Plus#Tensilon#Antirex#Reversol

>  <DrugBank ID>  (1) 
DB01010

>  <ATC Codes>  (1) 
nan

>  <Ligand ID>  (1) 
EDR

>  <Target Name>  (1) 
Acetylcholinesterase

>  <UniProt ID>  (1) 
P22303

>  <PDB ID.1>  (1) 
2ACK

>  <Seq. Identity>  (1) 
57%

$$$$
