PDB_DB00196_05
     RDKit          3D

 48 50  0  0  0  0  0  0  0  0999 V2000
   -0.5078   -0.3002   -1.9872 O   0  0  0  0  0  0  0  0  0  0  0  0
   -0.1351   -0.2247   -0.6129 C   0  0  0  0  0  0  0  0  0  0  0  0
   -0.7429    0.9779   -0.0420 C   0  0  0  0  0  0  0  0  0  0  0  0
   -0.9190   -1.4908   -0.0427 C   0  0  0  0  0  0  0  0  0  0  0  0
    1.2596   -0.5873   -0.3553 C   0  0  0  0  0  0  0  0  0  0  0  0
   -0.5290    2.2533   -0.6068 N   0  0  0  0  0  0  0  0  0  0  0  0
   -1.2806    3.2658    0.1693 C   0  0  0  0  0  0  0  0  0  0  0  0
    0.7271    2.7558   -0.6281 N   0  0  0  0  0  0  0  0  0  0  0  0
   -0.7857    4.4937   -0.3963 N   0  0  0  0  0  0  0  0  0  0  0  0
    0.6554    4.2113   -0.4255 C   0  0  0  0  0  0  0  0  0  0  0  0
   -2.3145   -1.4146   -0.2196 N   0  0  0  0  0  0  0  0  0  0  0  0
   -2.8149   -2.7955    0.0519 C   0  0  0  0  0  0  0  0  0  0  0  0
   -2.8872   -0.7399    0.9134 N   0  0  0  0  0  0  0  0  0  0  0  0
   -4.1787   -2.5917    0.4778 N   0  0  0  0  0  0  0  0  0  0  0  0
   -4.2691   -1.2063    0.9129 C   0  0  0  0  0  0  0  0  0  0  0  0
    1.7253   -0.5111    1.0903 C   0  0  0  0  0  0  0  0  0  0  0  0
    2.3787   -0.0389   -1.1627 C   0  0  0  0  0  0  0  0  0  0  0  0
    2.7931   -1.5726    1.2500 C   0  0  0  0  0  0  0  0  0  0  0  0
    3.8738   -1.4621    0.2407 C   0  0  0  0  0  0  0  0  0  0  0  0
    4.5174   -2.7103    0.2174 F   0  0  0  0  0  0  0  0  0  0  0  0
    3.4213   -1.2178   -1.1839 C   0  0  0  0  0  0  0  0  0  0  0  0
    3.0679    1.0075   -0.5276 F   0  0  0  0  0  0  0  0  0  0  0  0
   -0.9564    0.5165   -2.2813 H   0  0  0  0  0  0  0  0  0  0  0  0
   -1.8988    0.8792   -0.0728 H   0  0  0  0  0  0  0  0  0  0  0  0
   -0.5978    1.0499    1.0868 H   0  0  0  0  0  0  0  0  0  0  0  0
   -0.4544   -2.3452   -0.5739 H   0  0  0  0  0  0  0  0  0  0  0  0
   -0.6546   -1.5514    1.0108 H   0  0  0  0  0  0  0  0  0  0  0  0
    1.3334   -1.7478   -0.5662 H   0  0  0  0  0  0  0  0  0  0  0  0
   -2.3619    3.1229    0.0882 H   0  0  0  0  0  0  0  0  0  0  0  0
   -0.9284    3.1767    1.2389 H   0  0  0  0  0  0  0  0  0  0  0  0
    1.2348    2.5705   -1.5434 H   0  0  0  0  0  0  0  0  0  0  0  0
   -0.9610    5.3380    0.1979 H   0  0  0  0  0  0  0  0  0  0  0  0
    1.1444    4.7089   -1.2661 H   0  0  0  0  0  0  0  0  0  0  0  0
    1.1581    4.4557    0.5200 H   0  0  0  0  0  0  0  0  0  0  0  0
   -2.2562   -3.2320    0.8974 H   0  0  0  0  0  0  0  0  0  0  0  0
   -2.7142   -3.4466   -0.8093 H   0  0  0  0  0  0  0  0  0  0  0  0
   -2.4523   -1.2136    1.7660 H   0  0  0  0  0  0  0  0  0  0  0  0
   -4.8678   -2.7932   -0.2899 H   0  0  0  0  0  0  0  0  0  0  0  0
   -4.7108   -1.2014    1.9280 H   0  0  0  0  0  0  0  0  0  0  0  0
   -4.8872   -0.5880    0.2491 H   0  0  0  0  0  0  0  0  0  0  0  0
    0.9464   -0.6418    1.8321 H   0  0  0  0  0  0  0  0  0  0  0  0
    2.2908    0.4656    1.2336 H   0  0  0  0  0  0  0  0  0  0  0  0
    2.1562    0.1770   -2.1905 H   0  0  0  0  0  0  0  0  0  0  0  0
    2.2806   -2.5578    1.1939 H   0  0  0  0  0  0  0  0  0  0  0  0
    3.2610   -1.4676    2.2581 H   0  0  0  0  0  0  0  0  0  0  0  0
    4.6772   -0.7494    0.5534 H   0  0  0  0  0  0  0  0  0  0  0  0
    2.8754   -2.0923   -1.5347 H   0  0  0  0  0  0  0  0  0  0  0  0
    4.2884   -0.9343   -1.7738 H   0  0  0  0  0  0  0  0  0  0  0  0
  2  1  1  0
  2  3  1  0
  2  4  1  0
  2  5  1  0
  3  6  1  0
  6  7  1  0
  6  8  1  0
  7  9  1  0
  8 10  1  0
  9 10  1  0
  4 11  1  0
 11 12  1  0
 11 13  1  0
 12 14  1  0
 13 15  1  0
 15 14  1  0
  5 16  1  0
  5 17  1  0
 16 18  1  0
 18 19  1  0
 19 20  1  0
 17 21  1  0
 19 21  1  0
 17 22  1  0
  1 23  1  0
  3 24  1  0
  3 25  1  0
  4 26  1  0
  4 27  1  0
  5 28  1  0
  7 29  1  0
  7 30  1  0
  8 31  1  0
  9 32  1  0
 10 33  1  0
 10 34  1  0
 12 35  1  0
 12 36  1  0
 13 37  1  0
 14 38  1  0
 15 39  1  0
 15 40  1  0
 16 41  1  0
 16 42  1  0
 17 43  1  0
 18 44  1  0
 18 45  1  0
 19 46  1  0
 21 47  1  0
 21 48  1  0
M  END
>  <PDBID>  (1) 
5ESM

>  <PDB ID>  (1) 
5ESM

>  <Generic Name>  (1) 
Fluconazole

>  <Brand Name>  (1) 
Act Fluconazole#Apo-fluconazole#Apo-fluconazole-150#Canesoral#Canesoral Combi-pak#Clotrimaderm-fluconazole Combi-pack#Clotrimazole-fluconazole Combi-pack#Co Fluconazole-150#Diflucan#Diflucan Inj 2mg/ml#Diflucan One#Diflucan Pws 50mg/5ml#Diflucan Tab 100mg#Diflucan Tab 50mg#Dom-fluconazole#Fluconazole#Fluconazole 150#Fluconazole In Sodium Chloride Injection USP#Fluconazole Injection#Fluconazole Injection Sdz#Fluconazole Omega#Fluconazole-150#Jamp-fluconazole#Mar-fluconazole-150#Monicure#Monicure Combo#Mylan-fluconazole#Novo-fluconazole#Novo-fluconazole-150#Nu-fluconazole-150#PHL-fluconazole#PMS-fluconazole#PMS-fluconazole-150#Priva-fluconazole#Pro-fluconazole#Riva-fluconazole#Taro-fluconazole#Teva-fluconazole#Elazor#Flucazol#Flucostat#Flunizol#Pritenzol#Trican#Triflucan

>  <DrugBank ID>  (1) 
DB00196

>  <ATC Codes>  (1) 
D01AC15#J02AC01#J01RA07

>  <Ligand ID>  (1) 
TPF

>  <Target Name>  (1) 
Lanosterol 14-alpha demethylase

>  <UniProt ID>  (1) 
P10613

>  <PDB ID.1>  (1) 
5ESM

>  <Seq. Identity>  (1) 
65%

$$$$
