PDB_DB08865_07
     RDKit          3D

 68 71  0  0  0  0  0  0  0  0999 V2000
    3.9117    0.4801    2.6622 Cl  0  0  0  0  0  0  0  0  0  0  0  0
    4.4469    0.1880    0.9756 C   0  0  0  0  0  0  0  0  0  0  0  0
    5.7937    0.8435    0.8468 C   0  0  0  0  0  0  0  0  0  0  0  0
    5.7665    2.3293    0.9773 C   0  0  0  0  0  0  0  0  0  0  0  0
    4.3695    2.8610    0.8468 C   0  0  0  0  0  0  0  0  0  0  0  0
    4.4872    4.2016    0.4541 F   0  0  0  0  0  0  0  0  0  0  0  0
    3.4240    0.6964    0.0210 C   0  0  0  0  0  0  0  0  0  0  0  0
    3.7086    2.1472   -0.3045 C   0  0  0  0  0  0  0  0  0  0  0  0
    2.1269    2.9466   -0.6060 Cl  0  0  0  0  0  0  0  0  0  0  0  0
    3.2037   -0.1541   -1.1934 C   0  0  1  0  0  0  0  0  0  0  0  0
    4.3885   -0.3570   -2.0510 C   0  0  0  0  0  0  0  0  0  0  0  0
    2.5301   -1.3039   -0.8313 O   0  0  0  0  0  0  0  0  0  0  0  0
    1.2689   -1.4517   -1.2920 C   0  0  0  0  0  0  0  0  0  0  0  0
    0.3210   -1.5617   -0.1199 C   0  0  0  0  0  0  0  0  0  0  0  0
    1.2216   -2.7178   -2.1240 C   0  0  0  0  0  0  0  0  0  0  0  0
    2.2119   -2.7125   -3.1511 N   0  0  0  0  0  0  0  0  0  0  0  0
   -0.1247   -2.8989   -2.6307 N   0  0  0  0  0  0  0  0  0  0  0  0
   -0.9408   -3.2356   -1.4646 C   0  0  0  0  0  0  0  0  0  0  0  0
   -1.0266   -2.1014   -0.4950 C   0  0  0  0  0  0  0  0  0  0  0  0
   -1.9384   -0.9853   -0.9994 C   0  0  0  0  0  0  0  0  0  0  0  0
   -3.2880   -1.4974   -1.3821 C   0  0  0  0  0  0  0  0  0  0  0  0
   -2.3020   -0.0521    0.1648 C   0  0  0  0  0  0  0  0  0  0  0  0
   -3.5595    0.4907   -0.2683 N   0  0  0  0  0  0  0  0  0  0  0  0
   -4.1698   -0.4066   -1.0992 N   0  0  0  0  0  0  0  0  0  0  0  0
   -4.3787    1.0086    0.7719 C   0  0  0  0  0  0  0  0  0  0  0  0
   -4.8238    0.0123    1.7917 C   0  0  0  0  0  0  0  0  0  0  0  0
   -5.8850    0.6540    2.6607 C   0  0  0  0  0  0  0  0  0  0  0  0
   -5.9911    2.0664    2.3651 N   0  0  0  0  0  0  0  0  0  0  0  0
   -4.7127    2.7381    2.4634 C   0  0  0  0  0  0  0  0  0  0  0  0
   -3.7106    2.1535    1.4918 C   0  0  0  0  0  0  0  0  0  0  0  0
    4.6122   -0.9068    0.9196 H   0  0  0  0  0  0  0  0  0  0  0  0
    6.4112    0.4533    1.7095 H   0  0  0  0  0  0  0  0  0  0  0  0
    6.3461    0.5319   -0.0594 H   0  0  0  0  0  0  0  0  0  0  0  0
    6.3702    2.7803    0.1364 H   0  0  0  0  0  0  0  0  0  0  0  0
    6.2038    2.7187    1.9123 H   0  0  0  0  0  0  0  0  0  0  0  0
    3.7906    2.8648    1.7685 H   0  0  0  0  0  0  0  0  0  0  0  0
    2.4433    0.7136    0.5857 H   0  0  0  0  0  0  0  0  0  0  0  0
    4.3335    2.2938   -1.1873 H   0  0  0  0  0  0  0  0  0  0  0  0
    2.4626    0.4062   -1.8307 H   0  0  0  0  0  0  0  0  0  0  0  0
    4.9361    0.6035   -2.1421 H   0  0  0  0  0  0  0  0  0  0  0  0
    4.0342   -0.5910   -3.0877 H   0  0  0  0  0  0  0  0  0  0  0  0
    5.0510   -1.1905   -1.7712 H   0  0  0  0  0  0  0  0  0  0  0  0
    0.8843   -0.6352   -1.9264 H   0  0  0  0  0  0  0  0  0  0  0  0
    0.8065   -2.1231    0.7078 H   0  0  0  0  0  0  0  0  0  0  0  0
    0.1638   -0.5272    0.2678 H   0  0  0  0  0  0  0  0  0  0  0  0
    1.4256   -3.5781   -1.4565 H   0  0  0  0  0  0  0  0  0  0  0  0
    2.0798   -3.6089   -3.7070 H   0  0  0  0  0  0  0  0  0  0  0  0
    2.1439   -1.8930   -3.7967 H   0  0  0  0  0  0  0  0  0  0  0  0
   -0.5052   -2.0734   -3.1087 H   0  0  0  0  0  0  0  0  0  0  0  0
   -0.4409   -4.0860   -0.9288 H   0  0  0  0  0  0  0  0  0  0  0  0
   -1.9115   -3.5552   -1.8257 H   0  0  0  0  0  0  0  0  0  0  0  0
   -1.5045   -2.4857    0.4302 H   0  0  0  0  0  0  0  0  0  0  0  0
   -1.4462   -0.4063   -1.8019 H   0  0  0  0  0  0  0  0  0  0  0  0
   -3.3439   -1.8125   -2.4470 H   0  0  0  0  0  0  0  0  0  0  0  0
   -3.5539   -2.3313   -0.6918 H   0  0  0  0  0  0  0  0  0  0  0  0
   -1.5490    0.7610    0.1312 H   0  0  0  0  0  0  0  0  0  0  0  0
   -2.3349   -0.6000    1.1064 H   0  0  0  0  0  0  0  0  0  0  0  0
   -5.0625   -0.7640   -0.6887 H   0  0  0  0  0  0  0  0  0  0  0  0
   -5.2996    1.4290    0.2874 H   0  0  0  0  0  0  0  0  0  0  0  0
   -5.2557   -0.9127    1.3608 H   0  0  0  0  0  0  0  0  0  0  0  0
   -3.9542   -0.2156    2.4732 H   0  0  0  0  0  0  0  0  0  0  0  0
   -5.6482    0.5686    3.7380 H   0  0  0  0  0  0  0  0  0  0  0  0
   -6.8969    0.2187    2.4575 H   0  0  0  0  0  0  0  0  0  0  0  0
   -6.6894    2.5296    2.9491 H   0  0  0  0  0  0  0  0  0  0  0  0
   -4.8764    3.8029    2.1899 H   0  0  0  0  0  0  0  0  0  0  0  0
   -4.3886    2.6448    3.5207 H   0  0  0  0  0  0  0  0  0  0  0  0
   -3.2711    2.9016    0.8224 H   0  0  0  0  0  0  0  0  0  0  0  0
   -2.8949    1.6928    2.1195 H   0  0  0  0  0  0  0  0  0  0  0  0
  1  2  1  0
  2  3  1  0
  3  4  1  0
  4  5  1  0
  5  6  1  0
  2  7  1  0
  5  8  1  0
  7  8  1  0
  8  9  1  0
  7 10  1  0
 10 11  1  0
 10 12  1  0
 12 13  1  0
 13 14  1  0
 13 15  1  0
 15 16  1  0
 15 17  1  0
 17 18  1  0
 14 19  1  0
 18 19  1  0
 19 20  1  0
 20 21  1  0
 20 22  1  0
 22 23  1  0
 21 24  1  0
 23 24  1  0
 23 25  1  0
 25 26  1  0
 26 27  1  0
 27 28  1  0
 28 29  1  0
 25 30  1  0
 29 30  1  0
  2 31  1  0
  3 32  1  0
  3 33  1  0
  4 34  1  0
  4 35  1  0
  5 36  1  0
  7 37  1  0
  8 38  1  0
 10 39  1  6
 11 40  1  0
 11 41  1  0
 11 42  1  0
 13 43  1  0
 14 44  1  0
 14 45  1  0
 15 46  1  0
 16 47  1  0
 16 48  1  0
 17 49  1  0
 18 50  1  0
 18 51  1  0
 19 52  1  0
 20 53  1  0
 21 54  1  0
 21 55  1  0
 22 56  1  0
 22 57  1  0
 24 58  1  0
 25 59  1  0
 26 60  1  0
 26 61  1  0
 27 62  1  0
 27 63  1  0
 28 64  1  0
 29 65  1  0
 29 66  1  0
 30 67  1  0
 30 68  1  0
M  END
>  <PDBID>  (1) 
4ANQ

>  <PDB ID>  (1) 
4ANQ

>  <Generic Name>  (1) 
Crizotinib

>  <Brand Name>  (1) 
Xalkori

>  <DrugBank ID>  (1) 
DB08865

>  <ATC Codes>  (1) 
L01XE16

>  <Ligand ID>  (1) 
VGH

>  <Target Name>  (1) 
ALK tyrosine kinase receptor

>  <UniProt ID>  (1) 
Q9UM73

>  <PDB ID.1>  (1) 
4ANQ

>  <Seq. Identity>  (1) 
100%

$$$$
