PDB_DB01361_00
     RDKit          3D

134137  0  0  0  0  0  0  0  0999 V2000
   -1.8446    7.3574    0.7626 C   0  0  0  0  0  0  0  0  0  0  0  0
   -2.3438    6.1176    0.4018 O   0  0  0  0  0  0  0  0  0  0  0  0
   -1.5450    5.3878   -0.4469 C   0  0  1  0  0  0  0  0  0  0  0  0
   -1.2456    4.0776    0.2428 C   0  0  0  0  0  0  0  0  0  0  0  0
   -0.7364    3.0331   -0.7280 C   0  0  1  0  0  0  0  0  0  0  0  0
   -0.2444    3.7021   -1.8422 O   0  0  0  0  0  0  0  0  0  0  0  0
   -1.2766    4.2686   -2.5755 C   0  0  1  0  0  0  0  0  0  0  0  0
   -1.9344    3.2729   -3.5112 C   0  0  0  0  0  0  0  0  0  0  0  0
   -2.2516    5.0440   -1.7495 C   0  0  2  0  0  0  0  0  0  0  0  0
   -2.5524    6.2946   -2.3288 O   0  0  0  0  0  0  0  0  0  0  0  0
   -3.9392    6.4594   -2.4682 C   0  0  1  0  0  0  0  0  0  0  0  0
   -4.3235    7.5775   -1.7509 O   0  0  0  0  0  0  0  0  0  0  0  0
   -4.3197    6.6378   -3.9390 C   0  0  0  0  0  0  0  0  0  0  0  0
    0.1521    2.2225   -0.1243 O   0  0  0  0  0  0  0  0  0  0  0  0
   -0.1234    0.8562   -0.0050 C   0  0  2  0  0  0  0  0  0  0  0  0
   -0.0900    0.5790    1.4789 C   0  0  2  0  0  0  0  0  0  0  0  0
   -1.4733    0.4990    2.1122 C   0  0  0  0  0  0  0  0  0  0  0  0
   -2.4117    1.1064    1.2878 O   0  0  0  0  0  0  0  0  0  0  0  0
   -1.8395   -0.8258    2.2070 O   0  0  0  0  0  0  0  0  0  0  0  0
   -3.1522   -1.0928    2.4663 C   0  0  2  0  0  0  0  0  0  0  0  0
   -3.2266   -1.5244    3.9095 C   0  0  0  0  0  0  0  0  0  0  0  0
   -3.8154   -2.0681    1.5150 C   0  0  2  0  0  0  0  0  0  0  0  0
   -5.2711   -2.2004    1.9211 C   0  0  0  0  0  0  0  0  0  0  0  0
   -3.1251   -3.3988    1.4790 C   0  0  1  0  0  0  0  0  0  0  0  0
   -3.9677   -4.3284    2.0747 O   0  0  0  0  0  0  0  0  0  0  0  0
   -3.5567   -4.9221    3.2145 C   0  0  2  0  0  0  0  0  0  0  0  0
   -3.3199   -6.2856    2.8810 O   0  0  0  0  0  0  0  0  0  0  0  0
   -4.4818   -4.9091    4.3699 C   0  0  0  0  0  0  0  0  0  0  0  0
   -2.6957   -3.8867    0.1338 C   0  0  2  0  0  0  0  0  0  0  0  0
   -2.3467   -2.8906   -0.8913 C   0  0  2  0  0  0  0  0  0  0  0  0
   -3.4302   -2.8162   -1.8069 O   0  0  0  0  0  0  0  0  0  0  0  0
   -1.1319   -3.1919   -1.6921 C   0  0  2  0  0  0  0  0  0  0  0  0
   -1.2331   -2.6373   -3.0438 O   0  0  0  0  0  0  0  0  0  0  0  0
   -1.2919   -4.0040   -2.9332 C   0  0  0  0  0  0  0  0  0  0  0  0
    0.1863   -3.1988   -1.0729 C   0  0  0  0  0  0  0  0  0  0  0  0
    0.4790   -2.1961    0.0243 C   0  0  1  0  0  0  0  0  0  0  0  0
    0.9203   -3.0200    1.2031 C   0  0  0  0  0  0  0  0  0  0  0  0
    1.4399   -1.1498   -0.4372 C   0  0  2  0  0  0  0  0  0  0  0  0
    2.6057   -1.0331    0.3176 O   0  0  0  0  0  0  0  0  0  0  0  0
    3.6961   -1.7322   -0.1097 C   0  0  2  0  0  0  0  0  0  0  0  0
    4.1969   -2.6245    0.7937 O   0  0  0  0  0  0  0  0  0  0  0  0
    4.9764   -2.1054    1.8029 C   0  0  2  0  0  0  0  0  0  0  0  0
    4.2017   -1.0932    2.5755 C   0  0  0  0  0  0  0  0  0  0  0  0
    6.2773   -1.5519    1.2524 C   0  0  0  0  0  0  0  0  0  0  0  0
    6.1770   -1.2566   -0.2035 C   0  0  2  0  0  0  0  0  0  0  0  0
    7.1702   -0.3449   -0.6904 N   0  0  0  0  0  0  0  0  0  0  0  0
    8.4919   -0.9767   -0.5151 C   0  0  0  0  0  0  0  0  0  0  0  0
    7.2440    0.8678    0.1108 C   0  0  0  0  0  0  0  0  0  0  0  0
    4.7625   -0.7552   -0.5084 C   0  0  1  0  0  0  0  0  0  0  0  0
    4.6750   -0.5606   -1.9197 O   0  0  0  0  0  0  0  0  0  0  0  0
    4.4439    0.7645   -2.2426 C   0  0  2  0  0  0  0  0  0  0  0  0
    3.3403    0.8814   -3.0839 O   0  0  0  0  0  0  0  0  0  0  0  0
    5.6940    1.2822   -2.9637 C   0  0  0  0  0  0  0  0  0  0  0  0
    0.9767    0.1774   -0.7997 C   0  0  1  0  0  0  0  0  0  0  0  0
    0.3644    0.0584   -2.2155 C   0  0  0  0  0  0  0  0  0  0  0  0
   -3.8543   -4.7527   -0.3909 C   0  0  0  0  0  0  0  0  0  0  0  0
    0.5770    1.7661    2.2266 C   0  0  0  0  0  0  0  0  0  0  0  0
   -0.8930    7.3339    1.2901 H   0  0  0  0  0  0  0  0  0  0  0  0
   -1.8419    8.0418   -0.1151 H   0  0  0  0  0  0  0  0  0  0  0  0
   -2.5953    7.7775    1.4933 H   0  0  0  0  0  0  0  0  0  0  0  0
   -0.6467    5.9556   -0.6886 H   0  0  0  0  0  0  0  0  0  0  0  0
   -0.3655    4.2923    0.9222 H   0  0  0  0  0  0  0  0  0  0  0  0
   -2.0948    3.6883    0.7967 H   0  0  0  0  0  0  0  0  0  0  0  0
   -1.6226    2.4588   -1.0610 H   0  0  0  0  0  0  0  0  0  0  0  0
   -0.8065    5.0324   -3.2736 H   0  0  0  0  0  0  0  0  0  0  0  0
   -2.8722    2.8911   -3.1041 H   0  0  0  0  0  0  0  0  0  0  0  0
   -1.2148    2.4253   -3.7141 H   0  0  0  0  0  0  0  0  0  0  0  0
   -2.1399    3.6985   -4.5149 H   0  0  0  0  0  0  0  0  0  0  0  0
   -3.2172    4.5442   -1.5783 H   0  0  0  0  0  0  0  0  0  0  0  0
   -4.4955    5.5907   -2.1000 H   0  0  0  0  0  0  0  0  0  0  0  0
   -5.0406    7.3305   -1.1271 H   0  0  0  0  0  0  0  0  0  0  0  0
   -4.4415    7.7246   -4.1767 H   0  0  0  0  0  0  0  0  0  0  0  0
   -3.5896    6.1462   -4.5761 H   0  0  0  0  0  0  0  0  0  0  0  0
   -5.3435    6.1857   -4.0827 H   0  0  0  0  0  0  0  0  0  0  0  0
   -1.1246    0.6424   -0.4436 H   0  0  0  0  0  0  0  0  0  0  0  0
    0.5735   -0.2500    1.7629 H   0  0  0  0  0  0  0  0  0  0  0  0
   -1.5004    1.0126    3.1055 H   0  0  0  0  0  0  0  0  0  0  0  0
   -2.8345    0.5456    0.6277 H   0  0  0  0  0  0  0  0  0  0  0  0
   -3.7258   -0.1430    2.4050 H   0  0  0  0  0  0  0  0  0  0  0  0
   -3.1711   -0.5891    4.5420 H   0  0  0  0  0  0  0  0  0  0  0  0
   -4.1243   -2.0447    4.2078 H   0  0  0  0  0  0  0  0  0  0  0  0
   -2.2921   -2.0879    4.1719 H   0  0  0  0  0  0  0  0  0  0  0  0
   -3.8475   -1.5703    0.5284 H   0  0  0  0  0  0  0  0  0  0  0  0
   -5.5368   -3.2605    2.1223 H   0  0  0  0  0  0  0  0  0  0  0  0
   -5.5314   -1.6379    2.8396 H   0  0  0  0  0  0  0  0  0  0  0  0
   -5.9220   -1.7664    1.1245 H   0  0  0  0  0  0  0  0  0  0  0  0
   -2.1998   -3.2847    2.0978 H   0  0  0  0  0  0  0  0  0  0  0  0
   -2.5419   -4.5883    3.5882 H   0  0  0  0  0  0  0  0  0  0  0  0
   -4.1612   -6.7763    2.7366 H   0  0  0  0  0  0  0  0  0  0  0  0
   -4.4805   -5.9080    4.8475 H   0  0  0  0  0  0  0  0  0  0  0  0
   -4.1655   -4.2230    5.2079 H   0  0  0  0  0  0  0  0  0  0  0  0
   -5.5483   -4.7174    4.0938 H   0  0  0  0  0  0  0  0  0  0  0  0
   -1.8730   -4.6446    0.3173 H   0  0  0  0  0  0  0  0  0  0  0  0
   -2.2533   -1.8355   -0.5655 H   0  0  0  0  0  0  0  0  0  0  0  0
   -3.5331   -1.9244   -2.2015 H   0  0  0  0  0  0  0  0  0  0  0  0
   -2.2381   -4.5432   -3.1243 H   0  0  0  0  0  0  0  0  0  0  0  0
   -0.4136   -4.6243   -3.2484 H   0  0  0  0  0  0  0  0  0  0  0  0
    0.4105   -4.2544   -0.7503 H   0  0  0  0  0  0  0  0  0  0  0  0
    0.9624   -3.0245   -1.8722 H   0  0  0  0  0  0  0  0  0  0  0  0
   -0.4495   -1.6893    0.2076 H   0  0  0  0  0  0  0  0  0  0  0  0
    1.7127   -3.7574    0.8991 H   0  0  0  0  0  0  0  0  0  0  0  0
    0.0488   -3.7080    1.4348 H   0  0  0  0  0  0  0  0  0  0  0  0
    1.1141   -2.4987    2.1256 H   0  0  0  0  0  0  0  0  0  0  0  0
    1.8560   -1.6446   -1.3835 H   0  0  0  0  0  0  0  0  0  0  0  0
    3.4781   -2.3344   -1.0437 H   0  0  0  0  0  0  0  0  0  0  0  0
    5.2336   -2.9242    2.4963 H   0  0  0  0  0  0  0  0  0  0  0  0
    3.1015   -1.2378    2.5478 H   0  0  0  0  0  0  0  0  0  0  0  0
    4.4393   -1.1173    3.6843 H   0  0  0  0  0  0  0  0  0  0  0  0
    4.3956   -0.0431    2.2789 H   0  0  0  0  0  0  0  0  0  0  0  0
    6.5989   -0.7348    1.8991 H   0  0  0  0  0  0  0  0  0  0  0  0
    7.0422   -2.3724    1.3607 H   0  0  0  0  0  0  0  0  0  0  0  0
    6.2764   -2.2062   -0.8013 H   0  0  0  0  0  0  0  0  0  0  0  0
    8.5432   -1.2478    0.5500 H   0  0  0  0  0  0  0  0  0  0  0  0
    8.5621   -1.8507   -1.1977 H   0  0  0  0  0  0  0  0  0  0  0  0
    9.2689   -0.2088   -0.6996 H   0  0  0  0  0  0  0  0  0  0  0  0
    6.2479    1.3537    0.2042 H   0  0  0  0  0  0  0  0  0  0  0  0
    7.8676    1.5951   -0.4915 H   0  0  0  0  0  0  0  0  0  0  0  0
    7.7707    0.7402    1.0613 H   0  0  0  0  0  0  0  0  0  0  0  0
    4.5841    0.2275   -0.0787 H   0  0  0  0  0  0  0  0  0  0  0  0
    4.3756    1.3418   -1.3134 H   0  0  0  0  0  0  0  0  0  0  0  0
    3.6274    1.3788   -3.8909 H   0  0  0  0  0  0  0  0  0  0  0  0
    6.2515    2.0133   -2.3495 H   0  0  0  0  0  0  0  0  0  0  0  0
    6.2947    0.4161   -3.2435 H   0  0  0  0  0  0  0  0  0  0  0  0
    5.3394    1.7842   -3.9030 H   0  0  0  0  0  0  0  0  0  0  0  0
    1.8049    0.9442   -0.8333 H   0  0  0  0  0  0  0  0  0  0  0  0
    0.7684   -0.8156   -2.7573 H   0  0  0  0  0  0  0  0  0  0  0  0
   -0.7278   -0.1156   -2.1495 H   0  0  0  0  0  0  0  0  0  0  0  0
    0.4949    1.0147   -2.7610 H   0  0  0  0  0  0  0  0  0  0  0  0
   -3.7689   -5.7880   -0.0105 H   0  0  0  0  0  0  0  0  0  0  0  0
   -3.9187   -4.7835   -1.4734 H   0  0  0  0  0  0  0  0  0  0  0  0
   -4.8319   -4.3803   -0.0235 H   0  0  0  0  0  0  0  0  0  0  0  0
    1.0166    1.4051    3.1956 H   0  0  0  0  0  0  0  0  0  0  0  0
   -0.1872    2.5109    2.5303 H   0  0  0  0  0  0  0  0  0  0  0  0
    1.4089    2.1561    1.6434 H   0  0  0  0  0  0  0  0  0  0  0  0
  1  2  1  0
  2  3  1  0
  3  4  1  0
  4  5  1  0
  5  6  1  0
  6  7  1  0
  7  8  1  0
  3  9  1  0
  7  9  1  0
  9 10  1  0
 10 11  1  0
 11 12  1  0
 11 13  1  0
  5 14  1  0
 14 15  1  0
 15 16  1  0
 16 17  1  0
 17 18  1  0
 17 19  1  0
 19 20  1  0
 20 21  1  0
 20 22  1  0
 22 23  1  0
 22 24  1  0
 24 25  1  0
 25 26  1  0
 26 27  1  0
 26 28  1  0
 24 29  1  0
 29 30  1  0
 30 31  1  0
 30 32  1  0
 32 33  1  6
 32 34  1  0
 33 34  1  0
 32 35  1  0
 35 36  1  0
 36 37  1  0
 36 38  1  0
 38 39  1  0
 39 40  1  0
 40 41  1  0
 41 42  1  0
 42 43  1  0
 42 44  1  0
 44 45  1  0
 45 46  1  0
 46 47  1  0
 46 48  1  0
 40 49  1  0
 45 49  1  0
 49 50  1  0
 50 51  1  0
 51 52  1  0
 51 53  1  0
 15 54  1  0
 38 54  1  0
 54 55  1  0
 29 56  1  0
 16 57  1  0
  1 58  1  0
  1 59  1  0
  1 60  1  0
  3 61  1  6
  4 62  1  0
  4 63  1  0
  5 64  1  6
  7 65  1  6
  8 66  1  0
  8 67  1  0
  8 68  1  0
  9 69  1  1
 11 70  1  1
 12 71  1  0
 13 72  1  0
 13 73  1  0
 13 74  1  0
 15 75  1  6
 16 76  1  6
 17 77  1  0
 18 78  1  0
 20 79  1  1
 21 80  1  0
 21 81  1  0
 21 82  1  0
 22 83  1  6
 23 84  1  0
 23 85  1  0
 23 86  1  0
 24 87  1  1
 26 88  1  1
 27 89  1  0
 28 90  1  0
 28 91  1  0
 28 92  1  0
 29 93  1  1
 30 94  1  1
 31 95  1  0
 34 96  1  0
 34 97  1  0
 35 98  1  0
 35 99  1  0
 36100  1  1
 37101  1  0
 37102  1  0
 37103  1  0
 38104  1  6
 40105  1  6
 42106  1  1
 43107  1  0
 43108  1  0
 43109  1  0
 44110  1  0
 44111  1  0
 45112  1  6
 47113  1  0
 47114  1  0
 47115  1  0
 48116  1  0
 48117  1  0
 48118  1  0
 49119  1  1
 51120  1  1
 52121  1  0
 53122  1  0
 53123  1  0
 53124  1  0
 54125  1  6
 55126  1  0
 55127  1  0
 55128  1  0
 56129  1  0
 56130  1  0
 56131  1  0
 57132  1  0
 57133  1  0
 57134  1  0
M  END
>  <PDBID>  (1) 
1OND

>  <PDB ID>  (1) 
1OND

>  <Generic Name>  (1) 
Troleandomycin

>  <Brand Name>  (1) 
Tao#Triocetin

>  <DrugBank ID>  (1) 
DB01361

>  <ATC Codes>  (1) 
J01FA08

>  <Ligand ID>  (1) 
TAO

>  <Target Name>  (1) 
50S ribosomal protein L32

>  <UniProt ID>  (1) 
P49228

>  <PDB ID.1>  (1) 
1OND

>  <Seq. Identity>  (1) 
100%

$$$$
