PDB_DB00181_00
     RDKit          3D

 34 34  0  0  0  0  0  0  0  0999 V2000
   -3.0471    1.0730    2.3777 Cl  0  0  0  0  0  0  0  0  0  0  0  0
   -3.1990    0.5784    0.6762 C   0  0  0  0  0  0  0  0  0  0  0  0
   -2.8405   -0.8724    0.4649 C   0  0  0  0  0  0  0  0  0  0  0  0
   -1.6044   -1.0054   -0.4310 C   0  0  0  0  0  0  0  0  0  0  0  0
   -2.4580    1.4918   -0.2612 C   0  0  0  0  0  0  0  0  0  0  0  0
   -0.9873    1.3337   -0.2745 C   0  0  0  0  0  0  0  0  0  0  0  0
   -0.5710   -0.0819    0.0970 C   0  0  0  0  0  0  0  0  0  0  0  0
    0.8470   -0.3534   -0.2358 C   0  0  2  0  0  0  0  0  0  0  0  0
    1.4349   -1.6338    0.2052 C   0  0  0  0  0  0  0  0  0  0  0  0
    0.7963   -2.7959   -0.3186 N   0  0  0  0  0  0  0  0  0  0  0  0
    1.6688    0.8241    0.2468 C   0  0  0  0  0  0  0  0  0  0  0  0
    3.1337    0.7017   -0.0106 C   0  0  0  0  0  0  0  0  0  0  0  0
    3.4632    0.5765   -1.3372 O   0  0  0  0  0  0  0  0  0  0  0  0
    3.7562    1.8439    0.5564 O   0  0  0  0  0  0  0  0  0  0  0  0
   -4.2779    0.6813    0.4327 H   0  0  0  0  0  0  0  0  0  0  0  0
   -3.6825   -1.4566    0.0421 H   0  0  0  0  0  0  0  0  0  0  0  0
   -2.5699   -1.3279    1.4314 H   0  0  0  0  0  0  0  0  0  0  0  0
   -1.3412   -2.0557   -0.4892 H   0  0  0  0  0  0  0  0  0  0  0  0
   -1.9745   -0.6967   -1.4577 H   0  0  0  0  0  0  0  0  0  0  0  0
   -2.7679    2.5276   -0.0464 H   0  0  0  0  0  0  0  0  0  0  0  0
   -2.8457    1.2667   -1.2923 H   0  0  0  0  0  0  0  0  0  0  0  0
   -0.5511    2.0206    0.4959 H   0  0  0  0  0  0  0  0  0  0  0  0
   -0.5273    1.6255   -1.2418 H   0  0  0  0  0  0  0  0  0  0  0  0
   -0.6967   -0.1061    1.2282 H   0  0  0  0  0  0  0  0  0  0  0  0
    0.9370   -0.3274   -1.3675 H   0  0  0  0  0  0  0  0  0  0  0  0
    1.5371   -1.7091    1.3129 H   0  0  0  0  0  0  0  0  0  0  0  0
    2.4905   -1.6598   -0.2098 H   0  0  0  0  0  0  0  0  0  0  0  0
    1.0531   -3.6594    0.1677 H   0  0  0  0  0  0  0  0  0  0  0  0
    0.8988   -2.8319   -1.3518 H   0  0  0  0  0  0  0  0  0  0  0  0
    1.4759    1.0297    1.3158 H   0  0  0  0  0  0  0  0  0  0  0  0
    1.2753    1.7225   -0.3133 H   0  0  0  0  0  0  0  0  0  0  0  0
    3.5647   -0.1453    0.5570 H   0  0  0  0  0  0  0  0  0  0  0  0
    4.4433    0.7921   -1.4133 H   0  0  0  0  0  0  0  0  0  0  0  0
    3.1662    2.6294    0.4439 H   0  0  0  0  0  0  0  0  0  0  0  0
  1  2  1  0
  2  3  1  0
  3  4  1  0
  2  5  1  0
  5  6  1  0
  4  7  1  0
  6  7  1  0
  7  8  1  0
  8  9  1  0
  9 10  1  0
  8 11  1  0
 11 12  1  0
 12 13  1  0
 12 14  1  0
  2 15  1  0
  3 16  1  0
  3 17  1  0
  4 18  1  0
  4 19  1  0
  5 20  1  0
  5 21  1  0
  6 22  1  0
  6 23  1  0
  7 24  1  0
  8 25  1  6
  9 26  1  0
  9 27  1  0
 10 28  1  0
 10 29  1  0
 11 30  1  0
 11 31  1  0
 12 32  1  0
 13 33  1  0
 14 34  1  0
M  END
>  <PDBID>  (1) 
4MS4

>  <PDB ID>  (1) 
4MS4

>  <Generic Name>  (1) 
Baclofen

>  <Brand Name>  (1) 
Apo-baclofen Tablets - 10mg#Apo-baclofen Tablets - 20mg#Ava-baclofen#Baclofen#Baclofen Injection#Baclofen Tablets - 10mg#Baclofen Tablets - 20mg#Baclofen Tablets 10mg#Baclofen Tablets 20mg#Baclofen-10 - Tab#Baclofen-20 - Tab#Co Baclofen Tablets 10mg#Co Baclofen Tablets 20mg#Dom-baclofen-tab 10mg#Dom-baclofen-tab 20mg#Equipto - Baclofen External Cream Compounding Kit#Ftp-baclofen#Gablofen#Gapeam Budibac#Lioresal#Lioresal D.S. Tab 20mg#Lioresal Intrathecal 0.05mg/ml#Lioresal Intrathecal 0.5mg/ml#Lioresal Intrathecal 2mg/ml#Lioresal Tab 10mg#Med Baclofen Tab 10mg#Med Baclofen Tab 20mg#Mylan-baclofen#Novo-baclofen#PHL-baclofen#PMS-baclofen#PMS-baclofen Tab 20mg#Penta-baclofen Tablets#Ratio-baclofen#Riva-baclofen#Sandoz Baclofen#Val-baclofen Intrathecal#Baclon#Kemstro#Lioresal Intrathecal#Nu-Baclofen

>  <DrugBank ID>  (1) 
DB00181

>  <ATC Codes>  (1) 
M03BX01

>  <Ligand ID>  (1) 
2C0

>  <Target Name>  (1) 
Gamma-aminobutyric acid type B receptor subunit 1

>  <UniProt ID>  (1) 
Q9UBS5

>  <PDB ID.1>  (1) 
4MS4

>  <Seq. Identity>  (1) 
34%

$$$$
