PDB_DB00367_03
     RDKit          3D

118124  0  0  0  0  0  0  0  0999 V2000
    3.4286    0.9043   -0.5822 C   0  0  0  0  0  0  0  0  0  0  0  0
    4.6049    0.9000    0.3224 C   0  0  0  0  0  0  0  0  0  0  0  0
    5.1048   -0.4982    0.4713 C   0  0  1  0  0  0  0  0  0  0  0  0
    4.0936   -1.3966    1.0832 C   0  0  0  0  0  0  0  0  0  0  0  0
    2.6624   -0.9775    0.9090 C   0  0  1  0  0  0  0  0  0  0  0  0
    2.1761   -0.4038    2.1918 C   0  0  0  0  0  0  0  0  0  0  0  0
    0.8705    0.3251    2.1242 C   0  0  0  0  0  0  0  0  0  0  0  0
    0.1637   -0.0883    0.8626 C   0  0  2  0  0  0  0  0  0  0  0  0
    1.0500    0.4667   -0.2739 C   0  0  1  0  0  0  0  0  0  0  0  0
    2.4021   -0.1461   -0.3014 C   0  0  1  0  0  0  0  0  0  0  0  0
    0.3199    0.4791   -1.5653 C   0  0  0  0  0  0  0  0  0  0  0  0
   -0.9349   -0.3035   -1.6312 C   0  0  0  0  0  0  0  0  0  0  0  0
   -1.8370   -0.2502   -0.4751 C   0  0  1  0  0  0  0  0  0  0  0  0
   -1.1290    0.5481    0.6145 C   0  0  1  0  0  0  0  0  0  0  0  0
   -2.1424    0.6300    1.6715 C   0  0  0  0  0  0  0  0  0  0  0  0
   -3.4001    0.9422    0.8704 C   0  0  0  0  0  0  0  0  0  0  0  0
   -3.0729    0.5897   -0.5882 C   0  0  1  0  0  0  0  0  0  0  0  0
   -2.2829   -1.6101    0.0276 C   0  0  0  0  0  0  0  0  0  0  0  0
   -3.0127   -2.4129   -0.9889 C   0  0  0  0  0  0  0  0  0  0  0  0
   -2.9699    1.7873   -1.4473 C   0  0  0  0  0  0  0  0  0  0  0  0
   -4.3413    2.4810   -1.4090 C   0  0  0  0  0  0  0  0  0  0  0  0
    5.3700   -0.9809   -0.8296 O   0  0  0  0  0  0  0  0  0  0  0  0
   -4.1315   -0.1888   -1.0450 O   0  0  0  0  0  0  0  0  0  0  0  0
    3.4286    0.9043   -0.5822 C   0  0  0  0  0  0  0  0  0  0  0  0
    4.6049    0.9000    0.3224 C   0  0  0  0  0  0  0  0  0  0  0  0
    5.1048   -0.4982    0.4713 C   0  0  1  0  0  0  0  0  0  0  0  0
    4.0936   -1.3966    1.0832 C   0  0  0  0  0  0  0  0  0  0  0  0
    2.6624   -0.9775    0.9090 C   0  0  1  0  0  0  0  0  0  0  0  0
    2.1761   -0.4038    2.1918 C   0  0  0  0  0  0  0  0  0  0  0  0
    0.8705    0.3251    2.1242 C   0  0  0  0  0  0  0  0  0  0  0  0
    0.1637   -0.0883    0.8626 C   0  0  2  0  0  0  0  0  0  0  0  0
    1.0500    0.4667   -0.2739 C   0  0  1  0  0  0  0  0  0  0  0  0
    2.4021   -0.1461   -0.3014 C   0  0  1  0  0  0  0  0  0  0  0  0
    0.3199    0.4791   -1.5653 C   0  0  0  0  0  0  0  0  0  0  0  0
   -0.9349   -0.3035   -1.6312 C   0  0  0  0  0  0  0  0  0  0  0  0
   -1.8370   -0.2502   -0.4751 C   0  0  1  0  0  0  0  0  0  0  0  0
   -1.1290    0.5481    0.6145 C   0  0  1  0  0  0  0  0  0  0  0  0
   -2.1424    0.6300    1.6715 C   0  0  0  0  0  0  0  0  0  0  0  0
   -3.4001    0.9422    0.8704 C   0  0  0  0  0  0  0  0  0  0  0  0
   -3.0729    0.5897   -0.5882 C   0  0  1  0  0  0  0  0  0  0  0  0
   -2.2829   -1.6101    0.0276 C   0  0  0  0  0  0  0  0  0  0  0  0
   -3.0127   -2.4129   -0.9889 C   0  0  0  0  0  0  0  0  0  0  0  0
   -2.9699    1.7873   -1.4473 C   0  0  0  0  0  0  0  0  0  0  0  0
   -4.3413    2.4810   -1.4090 C   0  0  0  0  0  0  0  0  0  0  0  0
    5.3700   -0.9809   -0.8296 O   0  0  0  0  0  0  0  0  0  0  0  0
   -4.1315   -0.1888   -1.0450 O   0  0  0  0  0  0  0  0  0  0  0  0
    2.9603    1.9248   -0.5201 H   0  0  0  0  0  0  0  0  0  0  0  0
    3.8172    0.8559   -1.6420 H   0  0  0  0  0  0  0  0  0  0  0  0
    5.4250    1.4832   -0.1923 H   0  0  0  0  0  0  0  0  0  0  0  0
    4.4519    1.4234    1.2855 H   0  0  0  0  0  0  0  0  0  0  0  0
    6.0698   -0.5766    1.0116 H   0  0  0  0  0  0  0  0  0  0  0  0
    4.3432   -1.4799    2.1821 H   0  0  0  0  0  0  0  0  0  0  0  0
    4.2910   -2.4367    0.6922 H   0  0  0  0  0  0  0  0  0  0  0  0
    2.0936   -1.9455    0.7539 H   0  0  0  0  0  0  0  0  0  0  0  0
    2.9445    0.2305    2.7206 H   0  0  0  0  0  0  0  0  0  0  0  0
    2.0205   -1.2692    2.9028 H   0  0  0  0  0  0  0  0  0  0  0  0
    1.1143    1.4218    2.0594 H   0  0  0  0  0  0  0  0  0  0  0  0
    0.2657    0.1954    3.0289 H   0  0  0  0  0  0  0  0  0  0  0  0
    0.2180   -1.1657    0.7568 H   0  0  0  0  0  0  0  0  0  0  0  0
    1.1838    1.5487    0.0347 H   0  0  0  0  0  0  0  0  0  0  0  0
    2.4219   -0.8514   -1.1861 H   0  0  0  0  0  0  0  0  0  0  0  0
    0.0891    1.5216   -1.9360 H   0  0  0  0  0  0  0  0  0  0  0  0
    1.0192    0.0692   -2.3510 H   0  0  0  0  0  0  0  0  0  0  0  0
   -0.6442   -1.3828   -1.8037 H   0  0  0  0  0  0  0  0  0  0  0  0
   -1.4523   -0.0213   -2.5923 H   0  0  0  0  0  0  0  0  0  0  0  0
   -1.0373    1.5890    0.1758 H   0  0  0  0  0  0  0  0  0  0  0  0
   -2.2584   -0.2322    2.3341 H   0  0  0  0  0  0  0  0  0  0  0  0
   -1.9195    1.4926    2.3710 H   0  0  0  0  0  0  0  0  0  0  0  0
   -4.2628    0.3778    1.2459 H   0  0  0  0  0  0  0  0  0  0  0  0
   -3.5555    2.0384    0.9343 H   0  0  0  0  0  0  0  0  0  0  0  0
   -1.4230   -2.2491    0.3710 H   0  0  0  0  0  0  0  0  0  0  0  0
   -2.9243   -1.5249    0.9278 H   0  0  0  0  0  0  0  0  0  0  0  0
   -3.0039   -1.9808   -2.0118 H   0  0  0  0  0  0  0  0  0  0  0  0
   -2.6779   -3.4936   -1.0119 H   0  0  0  0  0  0  0  0  0  0  0  0
   -4.0776   -2.4809   -0.6892 H   0  0  0  0  0  0  0  0  0  0  0  0
   -2.8803    1.4294   -2.5088 H   0  0  0  0  0  0  0  0  0  0  0  0
   -2.2051    2.5207   -1.2016 H   0  0  0  0  0  0  0  0  0  0  0  0
   -5.1392    1.7617   -1.1230 H   0  0  0  0  0  0  0  0  0  0  0  0
   -4.6189    2.8626   -2.4146 H   0  0  0  0  0  0  0  0  0  0  0  0
   -4.3114    3.3649   -0.7427 H   0  0  0  0  0  0  0  0  0  0  0  0
    5.5622   -0.2070   -1.4380 H   0  0  0  0  0  0  0  0  0  0  0  0
   -4.8915   -0.2139   -0.4341 H   0  0  0  0  0  0  0  0  0  0  0  0
    2.9603    1.9248   -0.5201 H   0  0  0  0  0  0  0  0  0  0  0  0
    3.8172    0.8559   -1.6420 H   0  0  0  0  0  0  0  0  0  0  0  0
    5.4250    1.4832   -0.1923 H   0  0  0  0  0  0  0  0  0  0  0  0
    4.4519    1.4234    1.2855 H   0  0  0  0  0  0  0  0  0  0  0  0
    6.0698   -0.5766    1.0116 H   0  0  0  0  0  0  0  0  0  0  0  0
    4.3432   -1.4799    2.1821 H   0  0  0  0  0  0  0  0  0  0  0  0
    4.2910   -2.4367    0.6922 H   0  0  0  0  0  0  0  0  0  0  0  0
    2.0936   -1.9455    0.7539 H   0  0  0  0  0  0  0  0  0  0  0  0
    2.9445    0.2305    2.7206 H   0  0  0  0  0  0  0  0  0  0  0  0
    2.0205   -1.2692    2.9028 H   0  0  0  0  0  0  0  0  0  0  0  0
    1.1143    1.4218    2.0594 H   0  0  0  0  0  0  0  0  0  0  0  0
    0.2657    0.1954    3.0289 H   0  0  0  0  0  0  0  0  0  0  0  0
    0.2180   -1.1657    0.7568 H   0  0  0  0  0  0  0  0  0  0  0  0
    1.1838    1.5487    0.0347 H   0  0  0  0  0  0  0  0  0  0  0  0
    2.4219   -0.8514   -1.1861 H   0  0  0  0  0  0  0  0  0  0  0  0
    0.0891    1.5216   -1.9360 H   0  0  0  0  0  0  0  0  0  0  0  0
    1.0192    0.0692   -2.3510 H   0  0  0  0  0  0  0  0  0  0  0  0
   -0.6442   -1.3828   -1.8037 H   0  0  0  0  0  0  0  0  0  0  0  0
   -1.4523   -0.0213   -2.5923 H   0  0  0  0  0  0  0  0  0  0  0  0
   -1.0373    1.5890    0.1758 H   0  0  0  0  0  0  0  0  0  0  0  0
   -2.2584   -0.2322    2.3341 H   0  0  0  0  0  0  0  0  0  0  0  0
   -1.9195    1.4926    2.3710 H   0  0  0  0  0  0  0  0  0  0  0  0
   -4.2628    0.3778    1.2459 H   0  0  0  0  0  0  0  0  0  0  0  0
   -3.5555    2.0384    0.9343 H   0  0  0  0  0  0  0  0  0  0  0  0
   -1.4230   -2.2491    0.3710 H   0  0  0  0  0  0  0  0  0  0  0  0
   -2.9243   -1.5249    0.9278 H   0  0  0  0  0  0  0  0  0  0  0  0
   -3.0039   -1.9808   -2.0118 H   0  0  0  0  0  0  0  0  0  0  0  0
   -2.6779   -3.4936   -1.0119 H   0  0  0  0  0  0  0  0  0  0  0  0
   -4.0776   -2.4809   -0.6892 H   0  0  0  0  0  0  0  0  0  0  0  0
   -2.8803    1.4294   -2.5088 H   0  0  0  0  0  0  0  0  0  0  0  0
   -2.2051    2.5207   -1.2016 H   0  0  0  0  0  0  0  0  0  0  0  0
   -5.1392    1.7617   -1.1230 H   0  0  0  0  0  0  0  0  0  0  0  0
   -4.6189    2.8626   -2.4146 H   0  0  0  0  0  0  0  0  0  0  0  0
   -4.3114    3.3649   -0.7427 H   0  0  0  0  0  0  0  0  0  0  0  0
    5.5622   -0.2070   -1.4380 H   0  0  0  0  0  0  0  0  0  0  0  0
   -4.8915   -0.2139   -0.4341 H   0  0  0  0  0  0  0  0  0  0  0  0
  1  2  1  0
  2  3  1  0
  3  4  1  0
  4  5  1  0
  5  6  1  0
  6  7  1  0
  7  8  1  0
  8  9  1  0
  1 10  1  0
  5 10  1  0
  9 10  1  0
  9 11  1  0
 11 12  1  0
 12 13  1  0
  8 14  1  0
 13 14  1  0
 14 15  1  0
 15 16  1  0
 13 17  1  0
 16 17  1  0
 13 18  1  1
 18 19  1  0
 17 20  1  0
 20 21  1  0
  3 22  1  0
 17 23  1  6
 24 25  1  0
 25 26  1  0
 26 27  1  0
 27 28  1  0
 28 29  1  0
 29 30  1  0
 30 31  1  0
 31 32  1  0
 24 33  1  0
 28 33  1  0
 32 33  1  0
 32 34  1  0
 34 35  1  0
 35 36  1  0
 31 37  1  0
 36 37  1  0
 37 38  1  0
 38 39  1  0
 36 40  1  0
 39 40  1  0
 36 41  1  1
 41 42  1  0
 40 43  1  0
 43 44  1  0
 26 45  1  0
 40 46  1  6
  1 47  1  0
  1 48  1  0
  2 49  1  0
  2 50  1  0
  3 51  1  1
  4 52  1  0
  4 53  1  0
  5 54  1  6
  6 55  1  0
  6 56  1  0
  7 57  1  0
  7 58  1  0
  8 59  1  6
  9 60  1  1
 10 61  1  6
 11 62  1  0
 11 63  1  0
 12 64  1  0
 12 65  1  0
 14 66  1  6
 15 67  1  0
 15 68  1  0
 16 69  1  0
 16 70  1  0
 18 71  1  0
 18 72  1  0
 19 73  1  0
 19 74  1  0
 19 75  1  0
 20 76  1  0
 20 77  1  0
 21 78  1  0
 21 79  1  0
 21 80  1  0
 22 81  1  0
 23 82  1  0
 24 83  1  0
 24 84  1  0
 25 85  1  0
 25 86  1  0
 26 87  1  1
 27 88  1  0
 27 89  1  0
 28 90  1  6
 29 91  1  0
 29 92  1  0
 30 93  1  0
 30 94  1  0
 31 95  1  6
 32 96  1  1
 33 97  1  6
 34 98  1  0
 34 99  1  0
 35100  1  0
 35101  1  0
 37102  1  6
 38103  1  0
 38104  1  0
 39105  1  0
 39106  1  0
 41107  1  0
 41108  1  0
 42109  1  0
 42110  1  0
 42111  1  0
 43112  1  0
 43113  1  0
 44114  1  0
 44115  1  0
 44116  1  0
 45117  1  0
 46118  1  0
M  END
>  <PDBID>  (1) 
3D90

>  <PDB ID>  (1) 
3D90

>  <Generic Name>  (1) 
Levonorgestrel

>  <Brand Name>  (1) 
Afirmelle#Aftera#Afterpill#Alesse 21#Alesse 28#Altavera#Alysena 21#Alysena 28#Amethia#Amethyst#Athentia Next#Aubra#Aviane#Aviane 21#Aviane 28#Aviane 28 Day#Ayuna#Backup Plan#Backup Plan Onestep#Camrese#Camrese Lo#Chateal#Climara Pro#Contingency#Contingency One#Daysee#Delyla#Econtra Ez#Enpresse#Esme 21#Esme 28#Falessa#Fallback Solo#Falmina#Her Style#Indayo#Introvale#Jaydess#Jolessa#Kurvelo#Kyleena#Larissia#Lessina#Levonest#Levonorgestrel#Levonorgestrel Emergency Contraceptive#Levonorgestrel Tablets, 0.75mg#Levonorgestrel and Ethinyl Estradiol#Levonorgestrel and Ethinyl Estradiol Tablets, 0.1 Mg/0.02 mg#Levonorgestrel and Ethinyl Estradiol and Ethinyl Estradiol#Levora#Liletta#Lillow#Lutera#Lutera 21#Lutera 28#Marlissa#Min-ovral 21#Min-ovral 21 Tab#Min-ovral 28#Min-ovral 28 Tab#Mirena#Morning After#My Way#Myzilra#Next Choice#Next Choice One Dose#Norlevo#Norplant System Kit 36mg/implant#Opcicon One-step#Option 2#Orsythia#Ovima 21#Ovima 28#Plan B#Plan B One-step#Portia#Portia 21#Portia 28#Preven Emergency Contraceptive#Preven Tablets#Quasense#React#Seasonale#Seasonique#Setlakin#Skyla#Sronyx#Take Action#Teva-levonorgestrel#Triphasil 21#Triphasil 21 Tab#Triphasil 28#Triphasil 28 Tab#Triquilar 21#Triquilar 28#Trivora#Vienva Tm#Jadelle#Levonelle#Medonor#Microlut#Microval#Neogest#Norgeston#Norplant#Postinor

>  <DrugBank ID>  (1) 
DB00367

>  <ATC Codes>  (1) 
G03FA11#G03FB09#G03AC03#G03AB03#G03AA07#G03AD01

>  <Ligand ID>  (1) 
NOG

>  <Target Name>  (1) 
Estrogen receptor

>  <UniProt ID>  (1) 
P03372

>  <PDB ID.1>  (1) 
3D90

>  <Seq. Identity>  (1) 
31%

$$$$
