PDB_DB00730_08
     RDKit          3D

 33 35  0  0  0  0  0  0  0  0999 V2000
    1.0513   -0.9896    0.3581 C   0  0  0  0  0  0  0  0  0  0  0  0
   -0.3118   -0.5222    0.6709 N   0  0  0  0  0  0  0  0  0  0  0  0
   -0.9723   -0.9016   -0.5535 C   0  0  0  0  0  0  0  0  0  0  0  0
   -2.4011   -0.4835   -0.6303 C   0  0  0  0  0  0  0  0  0  0  0  0
   -3.1497   -1.1197    0.5021 C   0  0  0  0  0  0  0  0  0  0  0  0
   -3.6256    0.3014    1.5451 S   0  0  0  0  0  0  0  0  0  0  0  0
   -2.7405    1.5409    0.5189 C   0  0  0  0  0  0  0  0  0  0  0  0
   -2.6491    0.8880   -0.7161 N   0  0  0  0  0  0  0  0  0  0  0  0
   -0.1237   -0.2636   -1.5387 N   0  0  0  0  0  0  0  0  0  0  0  0
    1.2228   -0.6152   -1.0489 C   0  0  0  0  0  0  0  0  0  0  0  0
    2.2141    0.4543   -1.3413 C   0  0  0  0  0  0  0  0  0  0  0  0
    2.4711    1.3930   -0.2033 C   0  0  0  0  0  0  0  0  0  0  0  0
    2.9026    0.5985    0.9849 C   0  0  0  0  0  0  0  0  0  0  0  0
    2.0106   -0.5265    1.3519 C   0  0  0  0  0  0  0  0  0  0  0  0
    0.9697   -2.1154    0.4200 H   0  0  0  0  0  0  0  0  0  0  0  0
   -0.6072   -1.0681    1.4950 H   0  0  0  0  0  0  0  0  0  0  0  0
   -0.9435   -2.0126   -0.7300 H   0  0  0  0  0  0  0  0  0  0  0  0
   -2.8135   -0.9590   -1.5628 H   0  0  0  0  0  0  0  0  0  0  0  0
   -4.0145   -1.7187    0.1942 H   0  0  0  0  0  0  0  0  0  0  0  0
   -2.5083   -1.7647    1.1382 H   0  0  0  0  0  0  0  0  0  0  0  0
   -1.8118    1.8007    1.0246 H   0  0  0  0  0  0  0  0  0  0  0  0
   -3.4577    2.4099    0.4489 H   0  0  0  0  0  0  0  0  0  0  0  0
   -3.2456    1.2267   -1.4861 H   0  0  0  0  0  0  0  0  0  0  0  0
   -0.2086    0.7787   -1.3537 H   0  0  0  0  0  0  0  0  0  0  0  0
    1.5128   -1.5068   -1.6822 H   0  0  0  0  0  0  0  0  0  0  0  0
    1.8869    1.0588   -2.2257 H   0  0  0  0  0  0  0  0  0  0  0  0
    3.2126    0.0293   -1.6497 H   0  0  0  0  0  0  0  0  0  0  0  0
    3.3549    2.0279   -0.5071 H   0  0  0  0  0  0  0  0  0  0  0  0
    1.6554    2.1064   -0.0106 H   0  0  0  0  0  0  0  0  0  0  0  0
    3.9454    0.2261    0.7648 H   0  0  0  0  0  0  0  0  0  0  0  0
    3.0525    1.3262    1.8291 H   0  0  0  0  0  0  0  0  0  0  0  0
    2.6677   -1.3757    1.7052 H   0  0  0  0  0  0  0  0  0  0  0  0
    1.4541   -0.2240    2.2879 H   0  0  0  0  0  0  0  0  0  0  0  0
  1  2  1  0
  2  3  1  0
  3  4  1  0
  4  5  1  0
  5  6  1  0
  6  7  1  0
  4  8  1  0
  7  8  1  0
  3  9  1  0
  1 10  1  0
  9 10  1  0
 10 11  1  0
 11 12  1  0
 12 13  1  0
  1 14  1  0
 13 14  1  0
  1 15  1  0
  2 16  1  0
  3 17  1  0
  4 18  1  0
  5 19  1  0
  5 20  1  0
  7 21  1  0
  7 22  1  0
  8 23  1  0
  9 24  1  0
 10 25  1  0
 11 26  1  0
 11 27  1  0
 12 28  1  0
 12 29  1  0
 13 30  1  0
 13 31  1  0
 14 32  1  0
 14 33  1  0
M  END
>  <PDBID>  (1) 
3SFE

>  <PDB ID>  (1) 
3SFE

>  <Generic Name>  (1) 
Thiabendazole

>  <Brand Name>  (1) 
Mintezol Chewable Tab 500mg#Mintezol

>  <DrugBank ID>  (1) 
DB00730

>  <ATC Codes>  (1) 
D01AC06#P02CA02

>  <Ligand ID>  (1) 
TMG

>  <Target Name>  (1) 
Fumarate reductase flavoprotein subunit

>  <UniProt ID>  (1) 
P00363

>  <PDB ID.1>  (1) 
3SFE

>  <Seq. Identity>  (1) 
38%

$$$$
