PDB_DB00215_00
     RDKit          3D

 61 63  0  0  0  0  0  0  0  0999 V2000
   -0.5129    1.7740    0.1720 C   0  0  0  0  0  0  0  0  0  0  0  0
    1.4307   -1.4917   -0.0097 C   0  0  0  0  0  0  0  0  0  0  0  0
   -1.6562    2.3016    1.0009 C   0  0  0  0  0  0  0  0  0  0  0  0
    2.8966   -1.8730    0.0041 C   0  0  0  0  0  0  0  0  0  0  0  0
   -1.6464    3.0557   -1.5812 C   0  0  0  0  0  0  0  0  0  0  0  0
   -1.3116    4.1894   -0.6039 C   0  0  0  0  0  0  0  0  0  0  0  0
   -3.2936   -3.1973   -1.6993 C   0  0  0  0  0  0  0  0  0  0  0  0
    5.2000   -1.1325   -0.4857 C   0  0  0  0  0  0  0  0  0  0  0  0
   -2.0831    5.2701   -0.9680 F   0  0  0  0  0  0  0  0  0  0  0  0
    0.4187    0.6773    1.9967 O   0  0  0  0  0  0  0  0  0  0  0  0
   -3.9192   -2.3753   -0.6996 N   0  0  0  0  0  0  0  0  0  0  0  0
    5.6299   -1.4997    0.8425 N   0  0  0  0  0  0  0  0  0  0  0  0
   -0.0519    0.4393    0.6801 C   0  0  1  0  0  0  0  0  0  0  0  0
   -1.1607   -0.5305    0.8904 C   0  0  0  0  0  0  0  0  0  0  0  0
    1.1526   -0.0541   -0.0177 C   0  0  0  0  0  0  0  0  0  0  0  0
    2.2102    0.8570    0.5415 C   0  0  0  0  0  0  0  0  0  0  0  0
   -2.0048   -0.9135   -0.2534 C   0  0  0  0  0  0  0  0  0  0  0  0
    1.7047    1.1190    1.9270 C   0  0  0  0  0  0  0  0  0  0  0  0
   -3.0236   -1.9275    0.3100 C   0  0  0  0  0  0  0  0  0  0  0  0
    3.5874    0.3515    0.5745 C   0  0  0  0  0  0  0  0  0  0  0  0
   -0.6866    1.8907   -1.2953 C   0  0  0  0  0  0  0  0  0  0  0  0
    3.7638   -0.7199   -0.4849 C   0  0  0  0  0  0  0  0  0  0  0  0
   -1.6686    3.8152    0.8053 C   0  0  0  0  0  0  0  0  0  0  0  0
   -5.0667   -3.0685   -0.1745 C   0  0  0  0  0  0  0  0  0  0  0  0
    0.3430    2.4848    0.4304 H   0  0  0  0  0  0  0  0  0  0  0  0
    0.9663   -2.0855    0.8229 H   0  0  0  0  0  0  0  0  0  0  0  0
    1.0251   -1.9721   -0.9448 H   0  0  0  0  0  0  0  0  0  0  0  0
   -2.6387    1.9232    0.6639 H   0  0  0  0  0  0  0  0  0  0  0  0
   -1.4289    2.0729    2.0629 H   0  0  0  0  0  0  0  0  0  0  0  0
    3.2067   -2.0561    1.0552 H   0  0  0  0  0  0  0  0  0  0  0  0
    3.1160   -2.7762   -0.5846 H   0  0  0  0  0  0  0  0  0  0  0  0
   -2.6892    2.7510   -1.4468 H   0  0  0  0  0  0  0  0  0  0  0  0
   -1.4322    3.4594   -2.5902 H   0  0  0  0  0  0  0  0  0  0  0  0
   -0.2340    4.4600   -0.7105 H   0  0  0  0  0  0  0  0  0  0  0  0
   -2.7829   -4.0676   -1.2243 H   0  0  0  0  0  0  0  0  0  0  0  0
   -2.5734   -2.6538   -2.3239 H   0  0  0  0  0  0  0  0  0  0  0  0
   -4.0888   -3.6022   -2.3800 H   0  0  0  0  0  0  0  0  0  0  0  0
    5.4340   -1.9403   -1.1762 H   0  0  0  0  0  0  0  0  0  0  0  0
    5.8054   -0.2369   -0.7816 H   0  0  0  0  0  0  0  0  0  0  0  0
    6.0636   -0.6770    1.3288 H   0  0  0  0  0  0  0  0  0  0  0  0
    6.3791   -2.2402    0.8034 H   0  0  0  0  0  0  0  0  0  0  0  0
   -1.8635   -0.0115    1.6243 H   0  0  0  0  0  0  0  0  0  0  0  0
   -0.8356   -1.4168    1.4660 H   0  0  0  0  0  0  0  0  0  0  0  0
    1.0435    0.2692   -1.0985 H   0  0  0  0  0  0  0  0  0  0  0  0
    2.2214    1.8545    0.0157 H   0  0  0  0  0  0  0  0  0  0  0  0
   -2.6836   -0.0890   -0.6278 H   0  0  0  0  0  0  0  0  0  0  0  0
   -1.5186   -1.3404   -1.1224 H   0  0  0  0  0  0  0  0  0  0  0  0
    2.2919    0.4915    2.6634 H   0  0  0  0  0  0  0  0  0  0  0  0
    1.8805    2.1574    2.2813 H   0  0  0  0  0  0  0  0  0  0  0  0
   -3.5702   -1.4644    1.1651 H   0  0  0  0  0  0  0  0  0  0  0  0
   -2.4723   -2.8026    0.7493 H   0  0  0  0  0  0  0  0  0  0  0  0
    3.7645   -0.1658    1.5643 H   0  0  0  0  0  0  0  0  0  0  0  0
    4.3363    1.1568    0.4841 H   0  0  0  0  0  0  0  0  0  0  0  0
    0.2851    2.2211   -1.7803 H   0  0  0  0  0  0  0  0  0  0  0  0
   -0.9773    1.0030   -1.8460 H   0  0  0  0  0  0  0  0  0  0  0  0
    3.4115   -0.3148   -1.4335 H   0  0  0  0  0  0  0  0  0  0  0  0
   -2.6615    4.2044    1.1265 H   0  0  0  0  0  0  0  0  0  0  0  0
   -0.8753    4.2291    1.4749 H   0  0  0  0  0  0  0  0  0  0  0  0
   -5.1684   -4.0790   -0.6616 H   0  0  0  0  0  0  0  0  0  0  0  0
   -6.0186   -2.4909   -0.3934 H   0  0  0  0  0  0  0  0  0  0  0  0
   -4.9697   -3.2128    0.9186 H   0  0  0  0  0  0  0  0  0  0  0  0
  1  3  1  0
  2  4  1  0
  5  6  1  0
  6  9  1  0
  7 11  1  0
  8 12  1  0
  1 13  1  0
 10 13  1  0
 13 14  1  1
  2 15  1  0
 13 15  1  0
 15 16  1  0
 14 17  1  0
 10 18  1  0
 16 18  1  0
 11 19  1  0
 17 19  1  0
 16 20  1  0
  1 21  1  0
  5 21  1  0
  4 22  1  0
  8 22  1  0
 20 22  1  0
  3 23  1  0
  6 23  1  0
 11 24  1  0
  1 25  1  0
  2 26  1  0
  2 27  1  0
  3 28  1  0
  3 29  1  0
  4 30  1  0
  4 31  1  0
  5 32  1  0
  5 33  1  0
  6 34  1  0
  7 35  1  0
  7 36  1  0
  7 37  1  0
  8 38  1  0
  8 39  1  0
 12 40  1  0
 12 41  1  0
 14 42  1  0
 14 43  1  0
 15 44  1  0
 16 45  1  0
 17 46  1  0
 17 47  1  0
 18 48  1  0
 18 49  1  0
 19 50  1  0
 19 51  1  0
 20 52  1  0
 20 53  1  0
 21 54  1  0
 21 55  1  0
 22 56  1  0
 23 57  1  0
 23 58  1  0
 24 59  1  0
 24 60  1  0
 24 61  1  0
M  END
>  <PDBID>  (1) 
5I71

>  <PDB ID>  (1) 
5I71

>  <Generic Name>  (1) 
Citalopram

>  <Brand Name>  (1) 
Abbott-citalopram#Accel-citalopram Tablets#Act Citalopram#Ag-citalopram#Apo-citalopram#Auro-citalopram#Ava-citalopram#Bio-citalopram#Celexa#Celexa 10 mg#Celexa 20 mg#Celexa 40 mg#Citalopram#Citalopram Hydrobromide#Citalopram Tablets#Citalopram Tablets USP#Citalopram-10#Citalopram-20#Citalopram-40#Citalopram-odan#Ctp 30#Dom-citalopram#Ecl-citalopram#Ipg-citalopram#Jamp-citalopram#Manda-citalopram#Mar-citalopram#Mint-citalopram#Mylan-citalopram#Nat-citalopram#Nat-citalopram Tablets#Ng Citalopram#Novo-citalopram#Ntp-citalopram#Nu-citalopram#PHL-citalopram#PMS-citalopram#Pendo-citalopram#Perrigo Citalopram#Priva-citalopram#Q-citalopram#Ran-citalo#Ran-citalopram#Ratio-citalopram#Riva-citalopram#Sandoz Citalopram#Sentralopram Am-10#Septa-citalopram#Teva-citalopram#Van-citalopram#Akarin#Celapram#Ciazil#Cilift#Cipram#Cipramil#Ciprapine#Citabax#Citalec#Citol#Citopam#Citox#Citrol#Dalsan#Elopram#Humorup#Oropram#Pramcit#Recital#Seropram#Talam#Talohexal#Temperax#Vodelax#Zentius#Zetalo

>  <DrugBank ID>  (1) 
DB00215

>  <ATC Codes>  (1) 
N06AB04

>  <Ligand ID>  (1) 
68P

>  <Target Name>  (1) 
Sodium-dependent serotonin transporter

>  <UniProt ID>  (1) 
P31645

>  <PDB ID.1>  (1) 
5I71

>  <Seq. Identity>  (1) 
99%

$$$$
