PDB_DB00398_06
     RDKit          3D

 70 72  0  0  0  0  0  0  0  0999 V2000
    6.2951   -0.7730    0.3956 C   0  0  0  0  0  0  0  0  0  0  0  0
    5.3623   -0.8584   -0.7699 C   0  0  2  0  0  0  0  0  0  0  0  0
    6.0706   -0.0603   -1.8819 C   0  0  0  0  0  0  0  0  0  0  0  0
    5.8698    1.3921   -1.4515 C   0  0  0  0  0  0  0  0  0  0  0  0
    3.2901   -0.7672    0.4404 C   0  0  0  0  0  0  0  0  0  0  0  0
    1.0838   -0.5289   -0.5460 C   0  0  0  0  0  0  0  0  0  0  0  0
    0.4158    0.7305   -1.0537 C   0  0  0  0  0  0  0  0  0  0  0  0
   -0.8502    1.0611   -0.3129 C   0  0  0  0  0  0  0  0  0  0  0  0
   -1.8137   -0.0853   -0.3425 C   0  0  0  0  0  0  0  0  0  0  0  0
   -1.2024   -1.4415   -0.4866 C   0  0  0  0  0  0  0  0  0  0  0  0
    0.1730   -1.5392    0.0556 C   0  0  0  0  0  0  0  0  0  0  0  0
   -2.8310    0.0359   -1.2909 O   0  0  0  0  0  0  0  0  0  0  0  0
   -4.6743    1.4911   -1.4055 C   0  0  0  0  0  0  0  0  0  0  0  0
   -6.1356    1.6729   -1.3642 C   0  0  0  0  0  0  0  0  0  0  0  0
   -6.2472   -0.1542    0.0384 C   0  0  0  0  0  0  0  0  0  0  0  0
   -4.9994   -0.8329   -0.5898 C   0  0  0  0  0  0  0  0  0  0  0  0
   -6.3086   -1.5362    2.0076 N   0  0  0  0  0  0  0  0  0  0  0  0
   -6.0850   -0.3240    2.8115 C   0  0  0  0  0  0  0  0  0  0  0  0
    6.7581    1.6331   -0.2560 C   0  0  0  0  0  0  0  0  0  0  0  0
    6.7042    0.5939    0.8002 C   0  0  0  0  0  0  0  0  0  0  0  0
    8.1325    0.4824    1.3655 C   0  0  0  0  0  0  0  0  0  0  0  0
    8.9047   -0.0215    0.3265 F   0  0  0  0  0  0  0  0  0  0  0  0
    8.2131   -0.3841    2.4099 F   0  0  0  0  0  0  0  0  0  0  0  0
    8.5988    1.7553    1.6417 F   0  0  0  0  0  0  0  0  0  0  0  0
    6.1927    3.1744    0.4696 Cl  0  0  0  0  0  0  0  0  0  0  0  0
    4.0853   -0.2327   -0.5942 N   0  0  0  0  0  0  0  0  0  0  0  0
    2.0125   -0.1310    0.4905 N   0  0  0  0  0  0  0  0  0  0  0  0
    3.8485   -0.5790    1.7271 O   0  0  0  0  0  0  0  0  0  0  0  0
   -4.0396    0.3489   -0.7275 C   0  0  0  0  0  0  0  0  0  0  0  0
   -6.8955    0.4771   -1.0630 N   0  0  0  0  0  0  0  0  0  0  0  0
   -7.0716   -1.1143    0.8042 C   0  0  0  0  0  0  0  0  0  0  0  0
   -8.1886   -0.4311    1.3054 O   0  0  0  0  0  0  0  0  0  0  0  0
    7.2328   -1.3255    0.0634 H   0  0  0  0  0  0  0  0  0  0  0  0
    5.9708   -1.3346    1.2875 H   0  0  0  0  0  0  0  0  0  0  0  0
    5.2985   -1.9203   -1.0870 H   0  0  0  0  0  0  0  0  0  0  0  0
    7.1783   -0.2116   -1.8022 H   0  0  0  0  0  0  0  0  0  0  0  0
    5.6917   -0.2911   -2.8723 H   0  0  0  0  0  0  0  0  0  0  0  0
    6.1374    2.1180   -2.2319 H   0  0  0  0  0  0  0  0  0  0  0  0
    4.8250    1.5286   -1.1308 H   0  0  0  0  0  0  0  0  0  0  0  0
    3.1704   -1.8835    0.3762 H   0  0  0  0  0  0  0  0  0  0  0  0
    1.6035   -0.9742   -1.4246 H   0  0  0  0  0  0  0  0  0  0  0  0
    0.1697    0.6850   -2.1363 H   0  0  0  0  0  0  0  0  0  0  0  0
    1.1090    1.6188   -0.9655 H   0  0  0  0  0  0  0  0  0  0  0  0
   -1.3180    1.9402   -0.8545 H   0  0  0  0  0  0  0  0  0  0  0  0
   -0.6541    1.3950    0.7452 H   0  0  0  0  0  0  0  0  0  0  0  0
   -2.3190   -0.0471    0.6785 H   0  0  0  0  0  0  0  0  0  0  0  0
   -1.8184   -2.1965    0.1017 H   0  0  0  0  0  0  0  0  0  0  0  0
   -1.1873   -1.8005   -1.5578 H   0  0  0  0  0  0  0  0  0  0  0  0
    0.1862   -1.4185    1.1771 H   0  0  0  0  0  0  0  0  0  0  0  0
    0.5798   -2.5464   -0.2077 H   0  0  0  0  0  0  0  0  0  0  0  0
   -4.3211    1.5814   -2.4891 H   0  0  0  0  0  0  0  0  0  0  0  0
   -4.2344    2.4724   -0.9821 H   0  0  0  0  0  0  0  0  0  0  0  0
   -6.4726    2.0388   -2.3737 H   0  0  0  0  0  0  0  0  0  0  0  0
   -6.4478    2.4529   -0.6255 H   0  0  0  0  0  0  0  0  0  0  0  0
   -5.8671    0.6261    0.7760 H   0  0  0  0  0  0  0  0  0  0  0  0
   -4.6854   -1.5715    0.1405 H   0  0  0  0  0  0  0  0  0  0  0  0
   -5.3025   -1.2177   -1.5653 H   0  0  0  0  0  0  0  0  0  0  0  0
   -6.9828   -2.1177    2.5756 H   0  0  0  0  0  0  0  0  0  0  0  0
   -5.0791    0.0985    2.5612 H   0  0  0  0  0  0  0  0  0  0  0  0
   -6.1268   -0.5404    3.9063 H   0  0  0  0  0  0  0  0  0  0  0  0
   -6.8530    0.4439    2.5983 H   0  0  0  0  0  0  0  0  0  0  0  0
    7.7891    1.8284   -0.6021 H   0  0  0  0  0  0  0  0  0  0  0  0
    6.0947    0.9136    1.6851 H   0  0  0  0  0  0  0  0  0  0  0  0
    3.5893   -0.2949   -1.5026 H   0  0  0  0  0  0  0  0  0  0  0  0
    1.5710   -0.3251    1.4089 H   0  0  0  0  0  0  0  0  0  0  0  0
    3.2448   -0.9510    2.4215 H   0  0  0  0  0  0  0  0  0  0  0  0
   -3.8076    0.6059    0.3574 H   0  0  0  0  0  0  0  0  0  0  0  0
   -6.9123   -0.2040   -1.8585 H   0  0  0  0  0  0  0  0  0  0  0  0
   -7.3143   -2.0379    0.2665 H   0  0  0  0  0  0  0  0  0  0  0  0
   -8.4067   -0.8253    2.1888 H   0  0  0  0  0  0  0  0  0  0  0  0
  1  2  1  0
  2  3  1  0
  3  4  1  0
  6  7  1  0
  7  8  1  0
  8  9  1  0
  9 10  1  0
  6 11  1  0
 10 11  1  0
  9 12  1  0
 13 14  1  0
 15 16  1  0
 17 18  1  0
  4 19  1  0
  1 20  1  0
 19 20  1  0
 20 21  1  0
 21 22  1  0
 21 23  1  0
 21 24  1  0
 19 25  1  0
  2 26  1  0
  5 26  1  0
  5 27  1  0
  6 27  1  0
  5 28  1  0
 12 29  1  0
 13 29  1  0
 16 29  1  0
 14 30  1  0
 15 30  1  0
 15 31  1  0
 17 31  1  0
 31 32  1  0
  1 33  1  0
  1 34  1  0
  2 35  1  6
  3 36  1  0
  3 37  1  0
  4 38  1  0
  4 39  1  0
  5 40  1  0
  6 41  1  0
  7 42  1  0
  7 43  1  0
  8 44  1  0
  8 45  1  0
  9 46  1  0
 10 47  1  0
 10 48  1  0
 11 49  1  0
 11 50  1  0
 13 51  1  0
 13 52  1  0
 14 53  1  0
 14 54  1  0
 15 55  1  0
 16 56  1  0
 16 57  1  0
 17 58  1  0
 18 59  1  0
 18 60  1  0
 18 61  1  0
 19 62  1  0
 20 63  1  0
 26 64  1  0
 27 65  1  0
 28 66  1  0
 29 67  1  0
 30 68  1  0
 31 69  1  0
 32 70  1  0
M  END
>  <PDBID>  (1) 
3WZE

>  <PDB ID>  (1) 
3WZE

>  <Generic Name>  (1) 
Sorafenib

>  <Brand Name>  (1) 
Nexavar

>  <DrugBank ID>  (1) 
DB00398

>  <ATC Codes>  (1) 
L01XE05

>  <Ligand ID>  (1) 
BAX

>  <Target Name>  (1) 
Vascular endothelial growth factor receptor 3

>  <UniProt ID>  (1) 
P35916

>  <PDB ID.1>  (1) 
3WZE

>  <Seq. Identity>  (1) 
67%

$$$$
