PDB_DB01010_01
     RDKit          3D

 34 34  0  0  0  0  0  0  0  0999 V2000
    0.4528    1.2581   -0.2207 C   0  0  0  0  0  0  0  0  0  0  0  0
    0.1698   -0.1783   -0.4969 C   0  0  0  0  0  0  0  0  0  0  0  0
    1.0675   -1.1359    0.1958 C   0  0  0  0  0  0  0  0  0  0  0  0
    2.4968   -0.6875    0.2959 C   0  0  2  0  0  0  0  0  0  0  0  0
    2.8181    0.4872   -0.5716 C   0  0  0  0  0  0  0  0  0  0  0  0
    1.8932    1.6354   -0.3186 C   0  0  0  0  0  0  0  0  0  0  0  0
    3.3992   -1.7092   -0.0256 O   0  0  0  0  0  0  0  0  0  0  0  0
   -1.2146   -0.4767   -0.2206 N   0  0  0  0  0  0  0  0  0  0  0  0
   -1.5572   -1.8213   -0.7224 C   0  0  0  0  0  0  0  0  0  0  0  0
   -1.4713   -0.5647    1.2160 C   0  0  0  0  0  0  0  0  0  0  0  0
   -2.1278    0.4157   -0.8787 C   0  0  0  0  0  0  0  0  0  0  0  0
   -2.6310    1.5319   -0.0324 C   0  0  0  0  0  0  0  0  0  0  0  0
    0.0804    1.5959    0.7673 H   0  0  0  0  0  0  0  0  0  0  0  0
   -0.0930    1.8752   -0.9936 H   0  0  0  0  0  0  0  0  0  0  0  0
    0.3005   -0.3402   -1.6067 H   0  0  0  0  0  0  0  0  0  0  0  0
    1.0864   -2.1045   -0.3861 H   0  0  0  0  0  0  0  0  0  0  0  0
    0.7351   -1.3791    1.2390 H   0  0  0  0  0  0  0  0  0  0  0  0
    2.7604   -0.3917    1.3541 H   0  0  0  0  0  0  0  0  0  0  0  0
    2.8712    0.2443   -1.6484 H   0  0  0  0  0  0  0  0  0  0  0  0
    3.8482    0.8292   -0.2909 H   0  0  0  0  0  0  0  0  0  0  0  0
    2.2616    2.1487    0.6177 H   0  0  0  0  0  0  0  0  0  0  0  0
    2.0967    2.3945   -1.1294 H   0  0  0  0  0  0  0  0  0  0  0  0
    3.6859   -1.5886   -0.9828 H   0  0  0  0  0  0  0  0  0  0  0  0
   -2.5746   -2.0306   -0.2792 H   0  0  0  0  0  0  0  0  0  0  0  0
   -1.6954   -1.7871   -1.8074 H   0  0  0  0  0  0  0  0  0  0  0  0
   -0.8945   -2.5894   -0.3427 H   0  0  0  0  0  0  0  0  0  0  0  0
   -1.2617   -1.6139    1.5804 H   0  0  0  0  0  0  0  0  0  0  0  0
   -2.5839   -0.4560    1.3689 H   0  0  0  0  0  0  0  0  0  0  0  0
   -0.8812    0.1284    1.8066 H   0  0  0  0  0  0  0  0  0  0  0  0
   -3.0366   -0.1185   -1.2889 H   0  0  0  0  0  0  0  0  0  0  0  0
   -1.6005    0.7727   -1.8125 H   0  0  0  0  0  0  0  0  0  0  0  0
   -3.7600    1.5869   -0.0051 H   0  0  0  0  0  0  0  0  0  0  0  0
   -2.3059    1.5311    1.0045 H   0  0  0  0  0  0  0  0  0  0  0  0
   -2.3347    2.5383   -0.4527 H   0  0  0  0  0  0  0  0  0  0  0  0
  1  2  1  0
  2  3  1  0
  3  4  1  0
  4  5  1  0
  1  6  1  0
  5  6  1  0
  4  7  1  0
  2  8  1  0
  8  9  1  0
  8 10  1  0
  8 11  1  0
 11 12  1  0
  1 13  1  0
  1 14  1  0
  2 15  1  0
  3 16  1  0
  3 17  1  0
  4 18  1  1
  5 19  1  0
  5 20  1  0
  6 21  1  0
  6 22  1  0
  7 23  1  0
  9 24  1  0
  9 25  1  0
  9 26  1  0
 10 27  1  0
 10 28  1  0
 10 29  1  0
 11 30  1  0
 11 31  1  0
 12 32  1  0
 12 33  1  0
 12 34  1  0
M  CHG  1   8   1
M  END
>  <PDBID>  (1) 
2ACK

>  <PDB ID>  (1) 
2ACK

>  <Generic Name>  (1) 
Edrophonium

>  <Brand Name>  (1) 
Enlon#Enlon 10mg/ml#Enlon Liq IV 10mg/ml#Enlon Plus#Tensilon#Antirex#Reversol

>  <DrugBank ID>  (1) 
DB01010

>  <ATC Codes>  (1) 
nan

>  <Ligand ID>  (1) 
EDR

>  <Target Name>  (1) 
Acetylcholinesterase

>  <UniProt ID>  (1) 
P22303

>  <PDB ID.1>  (1) 
2ACK

>  <Seq. Identity>  (1) 
57%

$$$$
