PDB_DB00523_07
     RDKit          3D

 62 62  0  0  0  0  0  0  0  0999 V2000
   -3.4404   -1.1380    0.2778 C   0  0  0  0  0  0  0  0  0  0  0  0
   -4.8815   -0.8566   -0.0649 C   0  0  0  0  0  0  0  0  0  0  0  0
   -5.0480   -0.2530   -1.4321 C   0  0  0  0  0  0  0  0  0  0  0  0
   -3.9929    0.7836   -1.7297 C   0  0  0  0  0  0  0  0  0  0  0  0
   -3.2681    1.2322   -0.4883 C   0  0  2  0  0  0  0  0  0  0  0  0
   -2.5198    0.0500    0.1051 C   0  0  1  0  0  0  0  0  0  0  0  0
   -1.8465    0.3988    1.3885 C   0  0  0  0  0  0  0  0  0  0  0  0
   -0.8765    1.5096    1.4101 C   0  0  0  0  0  0  0  0  0  0  0  0
    0.3674    1.3965    0.6236 C   0  0  0  0  0  0  0  0  0  0  0  0
    1.2125    0.1989    1.0073 C   0  0  0  0  0  0  0  0  0  0  0  0
    2.4740    0.2387    0.0747 C   0  0  0  0  0  0  0  0  0  0  0  0
    3.3585   -0.8919    0.3989 C   0  0  0  0  0  0  0  0  0  0  0  0
    4.5519   -1.0968   -0.4061 C   0  0  0  0  0  0  0  0  0  0  0  0
    5.6907   -0.2335   -0.5855 C   0  0  0  0  0  0  0  0  0  0  0  0
    5.7042    1.1117   -1.1515 C   0  0  0  0  0  0  0  0  0  0  0  0
   -3.3573   -1.7898    1.6311 C   0  0  0  0  0  0  0  0  0  0  0  0
   -3.0042   -2.2329   -0.7167 C   0  0  0  0  0  0  0  0  0  0  0  0
   -4.1642    1.9504    0.4552 C   0  0  0  0  0  0  0  0  0  0  0  0
    0.3500    1.6170   -0.8316 C   0  0  0  0  0  0  0  0  0  0  0  0
    5.1733   -2.5133   -0.0315 C   0  0  0  0  0  0  0  0  0  0  0  0
    5.0078    2.0806   -0.5061 O   0  0  0  0  0  0  0  0  0  0  0  0
    7.0685    1.5529   -1.2044 O   0  0  0  0  0  0  0  0  0  0  0  0
   -5.4439   -0.3284    0.7206 H   0  0  0  0  0  0  0  0  0  0  0  0
   -5.4033   -1.8637   -0.1282 H   0  0  0  0  0  0  0  0  0  0  0  0
   -5.0847   -1.0427   -2.1842 H   0  0  0  0  0  0  0  0  0  0  0  0
   -6.0380    0.2588   -1.4423 H   0  0  0  0  0  0  0  0  0  0  0  0
   -4.4599    1.6783   -2.2072 H   0  0  0  0  0  0  0  0  0  0  0  0
   -3.2855    0.3440   -2.4604 H   0  0  0  0  0  0  0  0  0  0  0  0
   -2.5047    1.9541   -0.8269 H   0  0  0  0  0  0  0  0  0  0  0  0
   -1.7510   -0.2186   -0.6361 H   0  0  0  0  0  0  0  0  0  0  0  0
   -1.2608   -0.5299    1.6895 H   0  0  0  0  0  0  0  0  0  0  0  0
   -2.6533    0.5082    2.1556 H   0  0  0  0  0  0  0  0  0  0  0  0
   -1.3542    2.4858    1.1359 H   0  0  0  0  0  0  0  0  0  0  0  0
   -0.5672    1.6461    2.4892 H   0  0  0  0  0  0  0  0  0  0  0  0
    1.0219    2.2764    1.0329 H   0  0  0  0  0  0  0  0  0  0  0  0
    1.5273    0.1832    2.0473 H   0  0  0  0  0  0  0  0  0  0  0  0
    0.7107   -0.7537    0.7689 H   0  0  0  0  0  0  0  0  0  0  0  0
    2.1535    0.1662   -0.9798 H   0  0  0  0  0  0  0  0  0  0  0  0
    2.9594    1.1978    0.2510 H   0  0  0  0  0  0  0  0  0  0  0  0
    2.7090   -1.8321    0.2854 H   0  0  0  0  0  0  0  0  0  0  0  0
    3.5751   -0.9428    1.5196 H   0  0  0  0  0  0  0  0  0  0  0  0
    4.2127   -1.3815   -1.5080 H   0  0  0  0  0  0  0  0  0  0  0  0
    6.5044   -0.8382   -1.1760 H   0  0  0  0  0  0  0  0  0  0  0  0
    6.2972   -0.1577    0.4206 H   0  0  0  0  0  0  0  0  0  0  0  0
    5.4317    1.1255   -2.2583 H   0  0  0  0  0  0  0  0  0  0  0  0
   -2.3555   -2.1995    1.8745 H   0  0  0  0  0  0  0  0  0  0  0  0
   -3.6829   -1.1778    2.4725 H   0  0  0  0  0  0  0  0  0  0  0  0
   -4.0082   -2.7225    1.5848 H   0  0  0  0  0  0  0  0  0  0  0  0
   -2.6144   -1.8067   -1.6480 H   0  0  0  0  0  0  0  0  0  0  0  0
   -2.1172   -2.7238   -0.2196 H   0  0  0  0  0  0  0  0  0  0  0  0
   -3.7690   -3.0029   -0.8317 H   0  0  0  0  0  0  0  0  0  0  0  0
   -4.2340    1.5777    1.4691 H   0  0  0  0  0  0  0  0  0  0  0  0
   -5.2055    1.9382    0.0188 H   0  0  0  0  0  0  0  0  0  0  0  0
   -3.9292    3.0555    0.5080 H   0  0  0  0  0  0  0  0  0  0  0  0
   -0.2941    2.4837   -1.1334 H   0  0  0  0  0  0  0  0  0  0  0  0
    1.3847    2.0020   -1.1551 H   0  0  0  0  0  0  0  0  0  0  0  0
    0.2222    0.7188   -1.4436 H   0  0  0  0  0  0  0  0  0  0  0  0
    4.3860   -3.2511   -0.1692 H   0  0  0  0  0  0  0  0  0  0  0  0
    5.5642   -2.4011    0.9830 H   0  0  0  0  0  0  0  0  0  0  0  0
    6.0199   -2.6295   -0.7307 H   0  0  0  0  0  0  0  0  0  0  0  0
    5.2481    2.1389    0.4331 H   0  0  0  0  0  0  0  0  0  0  0  0
    7.5289    0.9499   -1.8367 H   0  0  0  0  0  0  0  0  0  0  0  0
  1  2  1  0
  2  3  1  0
  3  4  1  0
  4  5  1  0
  1  6  1  0
  5  6  1  0
  6  7  1  0
  7  8  1  0
  8  9  1  0
  9 10  1  0
 10 11  1  0
 11 12  1  0
 12 13  1  0
 13 14  1  0
 14 15  1  0
  1 16  1  0
  1 17  1  0
  5 18  1  0
  9 19  1  0
 13 20  1  0
 15 21  1  0
 15 22  1  0
  2 23  1  0
  2 24  1  0
  3 25  1  0
  3 26  1  0
  4 27  1  0
  4 28  1  0
  5 29  1  6
  6 30  1  6
  7 31  1  0
  7 32  1  0
  8 33  1  0
  8 34  1  0
  9 35  1  0
 10 36  1  0
 10 37  1  0
 11 38  1  0
 11 39  1  0
 12 40  1  0
 12 41  1  0
 13 42  1  0
 14 43  1  0
 14 44  1  0
 15 45  1  0
 16 46  1  0
 16 47  1  0
 16 48  1  0
 17 49  1  0
 17 50  1  0
 17 51  1  0
 18 52  1  0
 18 53  1  0
 18 54  1  0
 19 55  1  0
 19 56  1  0
 19 57  1  0
 20 58  1  0
 20 59  1  0
 20 60  1  0
 21 61  1  0
 22 62  1  0
M  END
>  <PDBID>  (1) 
3OAP

>  <PDB ID>  (1) 
3OAP

>  <Generic Name>  (1) 
Alitretinoin

>  <Brand Name>  (1) 
Panretin#Toctino

>  <DrugBank ID>  (1) 
DB00523

>  <ATC Codes>  (1) 
D11AH04#L01XX22

>  <Ligand ID>  (1) 
9CR

>  <Target Name>  (1) 
Retinoic acid receptor RXR-beta

>  <UniProt ID>  (1) 
P28702

>  <PDB ID.1>  (1) 
3OAP

>  <Seq. Identity>  (1) 
87%

$$$$
