PDB_DB00787_05
     RDKit          3D

 70 72  0  0  0  0  0  0  0  0999 V2000
    4.2970   -0.7637   -0.3446 C   0  0  0  0  0  0  0  0  0  0  0  0
    5.3444   -1.5701    0.1599 O   0  0  0  0  0  0  0  0  0  0  0  0
    3.0216   -1.5321   -0.1944 C   0  0  0  0  0  0  0  0  0  0  0  0
    1.8946   -0.8920   -0.6388 O   0  0  0  0  0  0  0  0  0  0  0  0
    1.6898    0.2873    0.0361 C   0  0  0  0  0  0  0  0  0  0  0  0
    0.4975    0.9843   -0.4141 N   0  0  0  0  0  0  0  0  0  0  0  0
    0.4047    2.2085    0.3813 C   0  0  0  0  0  0  0  0  0  0  0  0
   -0.8960    2.1682    1.0424 N   0  0  0  0  0  0  0  0  0  0  0  0
   -1.6597    1.4313    0.1009 C   0  0  0  0  0  0  0  0  0  0  0  0
   -2.9447    0.8768    0.5468 C   0  0  0  0  0  0  0  0  0  0  0  0
   -3.8498    1.9362    0.7550 O   0  0  0  0  0  0  0  0  0  0  0  0
   -3.4743    0.0897   -0.5578 N   0  0  0  0  0  0  0  0  0  0  0  0
   -2.5759   -0.9045   -1.0374 C   0  0  0  0  0  0  0  0  0  0  0  0
   -2.6040   -2.0251   -0.1162 N   0  0  0  0  0  0  0  0  0  0  0  0
   -1.2370   -0.4465   -1.2925 N   0  0  0  0  0  0  0  0  0  0  0  0
   -0.7064    0.2541   -0.1583 C   0  0  0  0  0  0  0  0  0  0  0  0
    4.7108   -0.6166   -0.7636 C   0  0  0  0  0  0  0  0  0  0  0  0
    5.3330    0.0815    0.2700 O   0  0  0  0  0  0  0  0  0  0  0  0
    3.2471   -0.8557   -0.2952 C   0  0  0  0  0  0  0  0  0  0  0  0
    2.7214    0.3618   -0.1000 O   0  0  0  0  0  0  0  0  0  0  0  0
    1.4620    0.5476    0.3638 C   0  0  0  0  0  0  0  0  0  0  0  0
    0.4499    0.0465   -0.4279 N   0  0  0  0  0  0  0  0  0  0  0  0
    0.3448   -1.3510   -0.6414 C   0  0  0  0  0  0  0  0  0  0  0  0
   -1.0813   -1.7097   -0.4813 N   0  0  0  0  0  0  0  0  0  0  0  0
   -1.5311   -0.6673    0.3683 C   0  0  2  0  0  0  0  0  0  0  0  0
   -3.0096   -0.3883    0.2969 C   0  0  0  0  0  0  0  0  0  0  0  0
   -3.7282   -1.4816    0.7699 O   0  0  0  0  0  0  0  0  0  0  0  0
   -3.2269    0.7458    1.1787 N   0  0  0  0  0  0  0  0  0  0  0  0
   -2.5362    1.9089    0.6563 C   0  0  0  0  0  0  0  0  0  0  0  0
   -3.2624    2.3595   -0.5003 N   0  0  0  0  0  0  0  0  0  0  0  0
   -1.1408    1.6744    0.4153 N   0  0  0  0  0  0  0  0  0  0  0  0
   -0.8604    0.5402   -0.3164 C   0  0  0  0  0  0  0  0  0  0  0  0
    4.3199    0.1579    0.2979 H   0  0  0  0  0  0  0  0  0  0  0  0
    4.5519   -0.5000   -1.3833 H   0  0  0  0  0  0  0  0  0  0  0  0
    6.1169   -0.9819    0.2372 H   0  0  0  0  0  0  0  0  0  0  0  0
    2.9398   -1.8458    0.8629 H   0  0  0  0  0  0  0  0  0  0  0  0
    3.1510   -2.4825   -0.7762 H   0  0  0  0  0  0  0  0  0  0  0  0
    1.7050    0.2019    1.1258 H   0  0  0  0  0  0  0  0  0  0  0  0
    2.5398    0.9825   -0.2339 H   0  0  0  0  0  0  0  0  0  0  0  0
    1.1968    2.2790    1.1384 H   0  0  0  0  0  0  0  0  0  0  0  0
    0.3892    3.1083   -0.2900 H   0  0  0  0  0  0  0  0  0  0  0  0
   -0.8019    1.6263    1.9237 H   0  0  0  0  0  0  0  0  0  0  0  0
   -1.7755    1.9723   -0.8566 H   0  0  0  0  0  0  0  0  0  0  0  0
   -2.8645    0.2326    1.4339 H   0  0  0  0  0  0  0  0  0  0  0  0
   -4.4972    1.6468    1.4466 H   0  0  0  0  0  0  0  0  0  0  0  0
   -4.3530   -0.3546   -0.2742 H   0  0  0  0  0  0  0  0  0  0  0  0
   -2.9780   -1.2861   -2.0021 H   0  0  0  0  0  0  0  0  0  0  0  0
   -3.5820   -2.3614   -0.0484 H   0  0  0  0  0  0  0  0  0  0  0  0
   -1.9881   -2.7974   -0.4064 H   0  0  0  0  0  0  0  0  0  0  0  0
   -0.6410   -1.3130   -1.4097 H   0  0  0  0  0  0  0  0  0  0  0  0
   -0.6309   -0.3871    0.7344 H   0  0  0  0  0  0  0  0  0  0  0  0
    4.6519    0.0032   -1.6788 H   0  0  0  0  0  0  0  0  0  0  0  0
    5.1998   -1.5610   -0.9995 H   0  0  0  0  0  0  0  0  0  0  0  0
    5.0428   -0.3767    1.1206 H   0  0  0  0  0  0  0  0  0  0  0  0
    2.8342   -1.5016   -1.0688 H   0  0  0  0  0  0  0  0  0  0  0  0
    3.2889   -1.4433    0.6546 H   0  0  0  0  0  0  0  0  0  0  0  0
    1.4525    0.0733    1.4085 H   0  0  0  0  0  0  0  0  0  0  0  0
    1.3866    1.6363    0.6155 H   0  0  0  0  0  0  0  0  0  0  0  0
    0.6299   -1.6112   -1.6871 H   0  0  0  0  0  0  0  0  0  0  0  0
    0.8719   -1.9785    0.1186 H   0  0  0  0  0  0  0  0  0  0  0  0
   -1.5064   -1.5634   -1.4239 H   0  0  0  0  0  0  0  0  0  0  0  0
   -1.1491   -0.6869    1.3928 H   0  0  0  0  0  0  0  0  0  0  0  0
   -3.2788   -0.1458   -0.7355 H   0  0  0  0  0  0  0  0  0  0  0  0
   -3.3463   -2.2795    0.3179 H   0  0  0  0  0  0  0  0  0  0  0  0
   -2.7934    0.5187    2.0945 H   0  0  0  0  0  0  0  0  0  0  0  0
   -2.6112    2.6966    1.4360 H   0  0  0  0  0  0  0  0  0  0  0  0
   -4.0414    1.7460   -0.7679 H   0  0  0  0  0  0  0  0  0  0  0  0
   -2.6857    2.7295   -1.2618 H   0  0  0  0  0  0  0  0  0  0  0  0
   -0.5242    1.9600    1.1879 H   0  0  0  0  0  0  0  0  0  0  0  0
   -1.3140    0.5883   -1.3266 H   0  0  0  0  0  0  0  0  0  0  0  0
  1  2  1  0
  1  3  1  0
  3  4  1  0
  4  5  1  0
  5  6  1  0
  6  7  1  0
  7  8  1  0
  8  9  1  0
  9 10  1  0
 10 11  1  0
 10 12  1  0
 12 13  1  0
 13 14  1  0
 13 15  1  0
  6 16  1  0
  9 16  1  0
 15 16  1  0
 17 18  1  0
 17 19  1  0
 19 20  1  0
 20 21  1  0
 21 22  1  0
 22 23  1  0
 23 24  1  0
 24 25  1  0
 25 26  1  0
 26 27  1  0
 26 28  1  0
 28 29  1  0
 29 30  1  0
 29 31  1  0
 22 32  1  0
 25 32  1  0
 31 32  1  0
  1 33  1  0
  1 34  1  0
  2 35  1  0
  3 36  1  0
  3 37  1  0
  5 38  1  0
  5 39  1  0
  7 40  1  0
  7 41  1  0
  8 42  1  0
  9 43  1  0
 10 44  1  0
 11 45  1  0
 12 46  1  0
 13 47  1  0
 14 48  1  0
 14 49  1  0
 15 50  1  0
 16 51  1  0
 17 52  1  0
 17 53  1  0
 18 54  1  0
 19 55  1  0
 19 56  1  0
 21 57  1  0
 21 58  1  0
 23 59  1  0
 23 60  1  0
 24 61  1  0
 25 62  1  1
 26 63  1  0
 27 64  1  0
 28 65  1  0
 29 66  1  0
 30 67  1  0
 30 68  1  0
 31 69  1  0
 32 70  1  0
M  END
>  <PDBID>  (1) 
2KI5

>  <PDB ID>  (1) 
2KI5

>  <Generic Name>  (1) 
Aciclovir

>  <Brand Name>  (1) 
Acyclovir#Acyclovir Sodium#Acyclovir Sodium Injection#Acyclovir Sodium for Injection#Acyclovir-200#Acyclovir-400#Acyclovir-800#Alti-acyclovir - 400mg#Alti-acyclovir - 800mg#Alti-acyclovir - Tab 200mg#Apo-acyclovir - Tab 200mg#Apo-acyclovir - Tab 400mg#Apo-acyclovir - Tab 800mg#Mylan-acyclovir#Ntp-acyclovir#Nu-acyclovir - Tab 200mg#Nu-acyclovir - Tab 400mg#Nu-acyclovir - Tab 800mg#Ratio-acyclovir#Sitavig#Teva-acyclovir#Xerese#Zovirax#Zovirax 400#Zovirax 800#Zovirax Cap 200mg#Zovirax Tab 200mg#Zovir

>  <DrugBank ID>  (1) 
DB00787

>  <ATC Codes>  (1) 
S01AD03#D06BB03#J05AB01#D06BB53

>  <Ligand ID>  (1) 
AC2

>  <Target Name>  (1) 
Thymidine kinase

>  <UniProt ID>  (1) 
P03176

>  <PDB ID.1>  (1) 
2KI5

>  <Seq. Identity>  (1) 
100%

$$$$
