PDB_DB08873_00
     RDKit          3D

 91 93  0  0  0  0  0  0  0  0999 V2000
    4.5777   -0.3958   -0.6374 C   0  0  0  0  0  0  0  0  0  0  0  0
    5.4834    0.6235   -0.3784 O   0  0  0  0  0  0  0  0  0  0  0  0
    4.8670   -1.6440    0.0052 N   0  0  0  0  0  0  0  0  0  0  0  0
    6.1577   -2.2033   -0.1601 C   0  0  0  0  0  0  0  0  0  0  0  0
    6.7987   -2.5252    1.2034 C   0  0  0  0  0  0  0  0  0  0  0  0
    7.1744   -1.3137   -0.8499 C   0  0  0  0  0  0  0  0  0  0  0  0
    6.0126   -3.5124   -0.9148 C   0  0  0  0  0  0  0  0  0  0  0  0
    3.2130   -0.0250   -0.5968 N   0  0  0  0  0  0  0  0  0  0  0  0
    2.5659    0.3445    0.6049 C   0  0  1  0  0  0  0  0  0  0  0  0
    3.0141    1.5570    1.3079 C   0  0  0  0  0  0  0  0  0  0  0  0
    3.0036    2.7825    0.3798 C   0  0  0  0  0  0  0  0  0  0  0  0
    2.0138    1.9949    2.4069 C   0  0  0  0  0  0  0  0  0  0  0  0
    4.3244    1.5014    2.0152 C   0  0  0  0  0  0  0  0  0  0  0  0
    1.1174   -0.0073    0.5640 C   0  0  1  0  0  0  0  0  0  0  0  0
    0.5350    0.2265    1.8576 O   0  0  0  0  0  0  0  0  0  0  0  0
    0.3149    0.6790   -0.3758 N   0  0  0  0  0  0  0  0  0  0  0  0
    0.6273    0.6013   -1.7505 C   0  0  0  0  0  0  0  0  0  0  0  0
   -1.0899    0.3201   -0.3182 C   0  0  1  0  0  0  0  0  0  0  0  0
   -1.6431    0.9965   -1.5519 C   0  0  2  0  0  0  0  0  0  0  0  0
   -0.4889    1.4240   -2.3954 C   0  0  1  0  0  0  0  0  0  0  0  0
   -1.2554    2.4469   -1.6474 C   0  0  0  0  0  0  0  0  0  0  0  0
   -2.3313    3.2258   -2.4183 C   0  0  0  0  0  0  0  0  0  0  0  0
   -0.7307    3.1397   -0.4216 C   0  0  0  0  0  0  0  0  0  0  0  0
   -1.4408   -1.1189   -0.4097 C   0  0  0  0  0  0  0  0  0  0  0  0
   -1.0206   -1.9332    0.6089 O   0  0  0  0  0  0  0  0  0  0  0  0
   -2.7950   -1.3418   -0.7555 N   0  0  0  0  0  0  0  0  0  0  0  0
   -3.8183   -0.8712    0.1109 C   0  0  1  0  0  0  0  0  0  0  0  0
   -5.0335   -0.4985   -0.7163 C   0  0  0  0  0  0  0  0  0  0  0  0
   -6.1887    0.0425    0.0497 C   0  0  0  0  0  0  0  0  0  0  0  0
   -5.9298    1.3187    0.8154 C   0  0  0  0  0  0  0  0  0  0  0  0
   -7.1094    0.8746   -0.8563 C   0  0  0  0  0  0  0  0  0  0  0  0
   -6.4393    2.1658   -0.3635 C   0  0  0  0  0  0  0  0  0  0  0  0
   -5.1350   -1.3327    2.0138 O   0  0  0  0  0  0  0  0  0  0  0  0
   -4.1552   -1.8636    1.1987 C   0  0  0  0  0  0  0  0  0  0  0  0
   -3.6310   -3.8002   -0.1213 O   0  0  0  0  0  0  0  0  0  0  0  0
   -5.8176   -3.1868   -0.0778 N   0  0  0  0  0  0  0  0  0  0  0  0
   -4.5913   -3.1890    0.6898 C   0  0  0  0  0  0  0  0  0  0  0  0
    4.7776   -0.6266   -1.7551 H   0  0  0  0  0  0  0  0  0  0  0  0
    5.4616    1.2408   -1.1811 H   0  0  0  0  0  0  0  0  0  0  0  0
    4.6496   -1.5700    1.0200 H   0  0  0  0  0  0  0  0  0  0  0  0
    6.3949   -3.5165    1.5265 H   0  0  0  0  0  0  0  0  0  0  0  0
    7.8856   -2.6752    1.0347 H   0  0  0  0  0  0  0  0  0  0  0  0
    6.6517   -1.7275    1.9392 H   0  0  0  0  0  0  0  0  0  0  0  0
    6.8689   -1.0320   -1.8708 H   0  0  0  0  0  0  0  0  0  0  0  0
    7.4643   -0.4952   -0.1860 H   0  0  0  0  0  0  0  0  0  0  0  0
    8.0845   -1.9490   -0.9665 H   0  0  0  0  0  0  0  0  0  0  0  0
    5.6951   -3.2820   -1.9640 H   0  0  0  0  0  0  0  0  0  0  0  0
    5.2104   -4.0796   -0.3920 H   0  0  0  0  0  0  0  0  0  0  0  0
    6.9587   -4.0580   -0.8465 H   0  0  0  0  0  0  0  0  0  0  0  0
    2.6743   -0.8051   -1.0767 H   0  0  0  0  0  0  0  0  0  0  0  0
    2.9739   -0.5104    1.3539 H   0  0  0  0  0  0  0  0  0  0  0  0
    4.0403    3.1870    0.2337 H   0  0  0  0  0  0  0  0  0  0  0  0
    2.6673    2.5173   -0.6299 H   0  0  0  0  0  0  0  0  0  0  0  0
    2.4116    3.6144    0.7532 H   0  0  0  0  0  0  0  0  0  0  0  0
    2.5394    2.9223    2.8237 H   0  0  0  0  0  0  0  0  0  0  0  0
    1.0857    2.3972    2.0056 H   0  0  0  0  0  0  0  0  0  0  0  0
    1.9794    1.3173    3.2554 H   0  0  0  0  0  0  0  0  0  0  0  0
    5.0890    2.2211    1.6345 H   0  0  0  0  0  0  0  0  0  0  0  0
    4.2191    1.8665    3.1034 H   0  0  0  0  0  0  0  0  0  0  0  0
    4.7792    0.5245    2.1326 H   0  0  0  0  0  0  0  0  0  0  0  0
    1.0488   -1.0913    0.4137 H   0  0  0  0  0  0  0  0  0  0  0  0
    0.7378   -0.5514    2.4432 H   0  0  0  0  0  0  0  0  0  0  0  0
    1.5557    1.0516   -2.1004 H   0  0  0  0  0  0  0  0  0  0  0  0
    0.6198   -0.4396   -2.1538 H   0  0  0  0  0  0  0  0  0  0  0  0
   -1.5777    0.7285    0.5979 H   0  0  0  0  0  0  0  0  0  0  0  0
   -2.4816    0.5629   -2.0903 H   0  0  0  0  0  0  0  0  0  0  0  0
   -0.5719    1.3573   -3.5069 H   0  0  0  0  0  0  0  0  0  0  0  0
   -3.2793    2.9757   -1.8436 H   0  0  0  0  0  0  0  0  0  0  0  0
   -2.4849    2.7996   -3.4085 H   0  0  0  0  0  0  0  0  0  0  0  0
   -2.2123    4.3075   -2.3474 H   0  0  0  0  0  0  0  0  0  0  0  0
   -1.0097    4.2321   -0.4106 H   0  0  0  0  0  0  0  0  0  0  0  0
    0.3496    3.1160   -0.3325 H   0  0  0  0  0  0  0  0  0  0  0  0
   -1.2413    2.6959    0.4598 H   0  0  0  0  0  0  0  0  0  0  0  0
   -0.8688   -1.5538   -1.3367 H   0  0  0  0  0  0  0  0  0  0  0  0
   -1.6051   -1.8882    1.3865 H   0  0  0  0  0  0  0  0  0  0  0  0
   -3.0341   -1.4165   -1.7503 H   0  0  0  0  0  0  0  0  0  0  0  0
   -3.4706    0.0501    0.6046 H   0  0  0  0  0  0  0  0  0  0  0  0
   -5.3622   -1.2920   -1.4142 H   0  0  0  0  0  0  0  0  0  0  0  0
   -4.7012    0.3405   -1.4010 H   0  0  0  0  0  0  0  0  0  0  0  0
   -6.8374   -0.7011    0.5674 H   0  0  0  0  0  0  0  0  0  0  0  0
   -4.8758    1.5957    0.9773 H   0  0  0  0  0  0  0  0  0  0  0  0
   -6.5715    1.3808    1.7103 H   0  0  0  0  0  0  0  0  0  0  0  0
   -8.1602    0.8943   -0.5245 H   0  0  0  0  0  0  0  0  0  0  0  0
   -6.9588    0.7060   -1.9346 H   0  0  0  0  0  0  0  0  0  0  0  0
   -7.1324    2.9616   -0.0615 H   0  0  0  0  0  0  0  0  0  0  0  0
   -5.6522    2.5082   -1.0589 H   0  0  0  0  0  0  0  0  0  0  0  0
   -4.8463   -0.6929    2.6821 H   0  0  0  0  0  0  0  0  0  0  0  0
   -3.8286   -4.7514   -0.3025 H   0  0  0  0  0  0  0  0  0  0  0  0
   -5.8527   -3.9145   -0.8199 H   0  0  0  0  0  0  0  0  0  0  0  0
   -6.6723   -3.0872    0.4841 H   0  0  0  0  0  0  0  0  0  0  0  0
   -4.7414   -3.8684    1.5496 H   0  0  0  0  0  0  0  0  0  0  0  0
  1  2  1  0
  1  3  1  0
  4  3  1  0
  4  5  1  0
  4  6  1  0
  4  7  1  0
  1  8  1  0
  8  9  1  0
  9 10  1  0
 10 11  1  0
 10 12  1  0
 10 13  1  0
  9 14  1  0
 14 15  1  0
 14 16  1  0
 16 17  1  0
 16 18  1  0
 18 19  1  0
 17 20  1  0
 19 20  1  0
 19 21  1  0
 20 21  1  0
 21 22  1  0
 21 23  1  0
 18 24  1  0
 24 25  1  0
 24 26  1  0
 26 27  1  0
 27 28  1  0
 28 29  1  0
 29 30  1  0
 29 31  1  0
 30 32  1  0
 31 32  1  0
 27 34  1  0
 34 33  1  0
 34 37  1  0
 35 37  1  0
 36 37  1  0
  1 38  1  0
  2 39  1  0
  3 40  1  0
  5 41  1  0
  5 42  1  0
  5 43  1  0
  6 44  1  0
  6 45  1  0
  6 46  1  0
  7 47  1  0
  7 48  1  0
  7 49  1  0
  8 50  1  0
  9 51  1  1
 11 52  1  0
 11 53  1  0
 11 54  1  0
 12 55  1  0
 12 56  1  0
 12 57  1  0
 13 58  1  0
 13 59  1  0
 13 60  1  0
 14 61  1  6
 15 62  1  0
 17 63  1  0
 17 64  1  0
 18 65  1  1
 19 66  1  6
 20 67  1  6
 22 68  1  0
 22 69  1  0
 22 70  1  0
 23 71  1  0
 23 72  1  0
 23 73  1  0
 24 74  1  0
 25 75  1  0
 26 76  1  0
 27 77  1  1
 28 78  1  0
 28 79  1  0
 29 80  1  0
 30 81  1  0
 30 82  1  0
 31 83  1  0
 31 84  1  0
 32 85  1  0
 32 86  1  0
 33 87  1  0
 35 88  1  0
 36 89  1  0
 36 90  1  0
 37 91  1  0
M  END
>  <PDBID>  (1) 
2OC8

>  <PDB ID>  (1) 
2OC8

>  <Generic Name>  (1) 
Boceprevir

>  <Brand Name>  (1) 
Victrelis#Victrelis Triple

>  <DrugBank ID>  (1) 
DB08873

>  <ATC Codes>  (1) 
J05AE12

>  <Ligand ID>  (1) 
HU5

>  <Target Name>  (1) 
Genome polyprotein

>  <UniProt ID>  (1) 
B0B3C9

>  <PDB ID.1>  (1) 
2OC8

>  <Seq. Identity>  (1) 
69%

$$$$
