PDB_DB00220_01
     RDKit          3D

101104  0  0  0  0  0  0  0  0999 V2000
    2.5215   -1.5961   -2.5578 C   0  0  2  0  0  0  0  0  0  0  0  0
    3.6381   -2.1875   -1.7783 C   0  0  1  0  0  0  0  0  0  0  0  0
    4.9457   -2.2114   -2.5496 C   0  0  0  0  0  0  0  0  0  0  0  0
    5.2713   -0.8225   -3.0399 C   0  0  0  0  0  0  0  0  0  0  0  0
    4.1942   -0.3379   -3.9668 C   0  0  0  0  0  0  0  0  0  0  0  0
    2.9342   -1.1610   -3.9293 C   0  0  0  0  0  0  0  0  0  0  0  0
    1.5641   -0.6705   -0.5131 N   0  0  0  0  0  0  0  0  0  0  0  0
    2.5511   -1.2401    0.2832 C   0  0  1  0  0  0  0  0  0  0  0  0
    3.8587   -1.4513   -0.5095 C   0  0  0  0  0  0  0  0  0  0  0  0
    1.8845   -0.4056   -1.8595 C   0  0  0  0  0  0  0  0  0  0  0  0
    2.9703   -0.4964    1.5256 C   0  0  1  0  0  0  0  0  0  0  0  0
    3.6260    0.7512    1.3130 N   0  0  0  0  0  0  0  0  0  0  0  0
    4.5504    1.0965    2.3680 C   0  0  0  0  0  0  0  0  0  0  0  0
    3.8847    1.2969    3.7076 C   0  0  0  0  0  0  0  0  0  0  0  0
    5.2044    2.4222    1.9888 C   0  0  0  0  0  0  0  0  0  0  0  0
    5.6854    0.0955    2.5076 C   0  0  0  0  0  0  0  0  0  0  0  0
    1.8659   -0.3176    2.3454 O   0  0  0  0  0  0  0  0  0  0  0  0
    0.3390   -0.2746    0.0078 C   0  0  0  0  0  0  0  0  0  0  0  0
   -0.7241   -0.0122   -1.0720 C   0  0  2  0  0  0  0  0  0  0  0  0
   -2.0374    0.1573   -0.3080 C   0  0  1  0  0  0  0  0  0  0  0  0
   -0.8418   -1.2320   -1.7918 O   0  0  0  0  0  0  0  0  0  0  0  0
   -2.2723   -0.8017    0.7012 N   0  0  0  0  0  0  0  0  0  0  0  0
   -2.4484    1.5616   -0.0705 C   0  0  0  0  0  0  0  0  0  0  0  0
   -2.4871   -2.1636    0.3480 C   0  0  0  0  0  0  0  0  0  0  0  0
   -2.5062   -2.9686    1.5302 O   0  0  0  0  0  0  0  0  0  0  0  0
   -3.7795   -2.4164   -0.4168 C   0  0  0  0  0  0  0  0  0  0  0  0
   -4.9259   -1.9833    0.4855 C   0  0  0  0  0  0  0  0  0  0  0  0
   -6.1547   -2.8076    0.1904 C   0  0  0  0  0  0  0  0  0  0  0  0
   -5.8779   -4.2165    0.6958 C   0  0  0  0  0  0  0  0  0  0  0  0
   -4.6228   -4.7602    0.0668 C   0  0  1  0  0  0  0  0  0  0  0  0
   -3.9543   -3.8222   -0.8762 C   0  0  2  0  0  0  0  0  0  0  0  0
   -3.7266   -5.2668    1.0237 O   0  0  0  0  0  0  0  0  0  0  0  0
   -2.6582   -4.4483   -1.3524 C   0  0  0  0  0  0  0  0  0  0  0  0
   -1.3289    2.6172    0.8446 S   0  0  0  0  0  0  0  0  0  0  0  0
   -2.1756    4.2358    0.9537 C   0  0  0  0  0  0  0  0  0  0  0  0
   -2.3752    4.8844   -0.3718 C   0  0  0  0  0  0  0  0  0  0  0  0
   -3.4058    5.9806   -0.1896 C   0  0  0  0  0  0  0  0  0  0  0  0
   -2.9780    6.9582    0.8495 C   0  0  0  0  0  0  0  0  0  0  0  0
   -2.5749    6.2937    2.1336 C   0  0  0  0  0  0  0  0  0  0  0  0
   -1.5263    5.1910    1.8975 C   0  0  0  0  0  0  0  0  0  0  0  0
    3.0186    1.5645    1.1412 H   0  0  0  0  0  0  0  0  0  0  0  0
   -1.0919   -1.0354   -2.7107 H   0  0  0  0  0  0  0  0  0  0  0  0
   -2.9884   -0.4734    1.4000 H   0  0  0  0  0  0  0  0  0  0  0  0
   -4.2594   -5.6180    1.7770 H   0  0  0  0  0  0  0  0  0  0  0  0
    1.7332   -2.3934   -2.7028 H   0  0  0  0  0  0  0  0  0  0  0  0
    3.4588   -3.2678   -1.4921 H   0  0  0  0  0  0  0  0  0  0  0  0
    4.9087   -2.8841   -3.4095 H   0  0  0  0  0  0  0  0  0  0  0  0
    5.7227   -2.5496   -1.8075 H   0  0  0  0  0  0  0  0  0  0  0  0
    5.4187   -0.0819   -2.2366 H   0  0  0  0  0  0  0  0  0  0  0  0
    6.2734   -0.8874   -3.5588 H   0  0  0  0  0  0  0  0  0  0  0  0
    4.0072    0.7617   -3.8144 H   0  0  0  0  0  0  0  0  0  0  0  0
    4.6067   -0.4103   -4.9975 H   0  0  0  0  0  0  0  0  0  0  0  0
    3.0123   -2.0266   -4.6190 H   0  0  0  0  0  0  0  0  0  0  0  0
    2.1151   -0.5251   -4.3758 H   0  0  0  0  0  0  0  0  0  0  0  0
    2.3004   -2.2994    0.6274 H   0  0  0  0  0  0  0  0  0  0  0  0
    4.3159   -0.4549   -0.5877 H   0  0  0  0  0  0  0  0  0  0  0  0
    4.5104   -2.0736    0.1529 H   0  0  0  0  0  0  0  0  0  0  0  0
    2.6788    0.3964   -1.8662 H   0  0  0  0  0  0  0  0  0  0  0  0
    1.0804   -0.0552   -2.4992 H   0  0  0  0  0  0  0  0  0  0  0  0
    3.6843   -1.1775    2.1268 H   0  0  0  0  0  0  0  0  0  0  0  0
    3.1515    2.1213    3.6395 H   0  0  0  0  0  0  0  0  0  0  0  0
    4.6993    1.6416    4.4069 H   0  0  0  0  0  0  0  0  0  0  0  0
    3.4692    0.3646    4.1272 H   0  0  0  0  0  0  0  0  0  0  0  0
    4.4350    3.2038    1.8562 H   0  0  0  0  0  0  0  0  0  0  0  0
    5.9319    2.6714    2.7906 H   0  0  0  0  0  0  0  0  0  0  0  0
    5.7785    2.2236    1.0569 H   0  0  0  0  0  0  0  0  0  0  0  0
    6.0467   -0.2989    1.5601 H   0  0  0  0  0  0  0  0  0  0  0  0
    5.3379   -0.6681    3.2298 H   0  0  0  0  0  0  0  0  0  0  0  0
    6.5572    0.6213    2.9882 H   0  0  0  0  0  0  0  0  0  0  0  0
    1.6622    0.6049    2.5768 H   0  0  0  0  0  0  0  0  0  0  0  0
    0.4640    0.7410    0.4922 H   0  0  0  0  0  0  0  0  0  0  0  0
   -0.1534   -0.9100    0.7531 H   0  0  0  0  0  0  0  0  0  0  0  0
   -0.5515    0.8594   -1.6706 H   0  0  0  0  0  0  0  0  0  0  0  0
   -2.8558   -0.1603   -1.1239 H   0  0  0  0  0  0  0  0  0  0  0  0
   -2.5238    2.0384   -1.1074 H   0  0  0  0  0  0  0  0  0  0  0  0
   -3.5028    1.6462    0.3003 H   0  0  0  0  0  0  0  0  0  0  0  0
   -1.6225   -2.5453   -0.2180 H   0  0  0  0  0  0  0  0  0  0  0  0
   -1.6209   -3.3984    1.6788 H   0  0  0  0  0  0  0  0  0  0  0  0
   -3.8174   -1.7387   -1.2990 H   0  0  0  0  0  0  0  0  0  0  0  0
   -4.5778   -2.1239    1.5343 H   0  0  0  0  0  0  0  0  0  0  0  0
   -5.1255   -0.9171    0.2804 H   0  0  0  0  0  0  0  0  0  0  0  0
   -7.0411   -2.3971    0.7192 H   0  0  0  0  0  0  0  0  0  0  0  0
   -6.3212   -2.8809   -0.8985 H   0  0  0  0  0  0  0  0  0  0  0  0
   -5.7442   -4.2215    1.8089 H   0  0  0  0  0  0  0  0  0  0  0  0
   -6.7621   -4.8361    0.4442 H   0  0  0  0  0  0  0  0  0  0  0  0
   -4.9323   -5.6525   -0.5539 H   0  0  0  0  0  0  0  0  0  0  0  0
   -4.6103   -3.7983   -1.8029 H   0  0  0  0  0  0  0  0  0  0  0  0
   -1.9767   -4.7132   -0.5289 H   0  0  0  0  0  0  0  0  0  0  0  0
   -2.9279   -5.4085   -1.8407 H   0  0  0  0  0  0  0  0  0  0  0  0
   -2.1676   -3.8323   -2.1456 H   0  0  0  0  0  0  0  0  0  0  0  0
   -3.2051    4.0365    1.3740 H   0  0  0  0  0  0  0  0  0  0  0  0
   -2.8377    4.1467   -1.0639 H   0  0  0  0  0  0  0  0  0  0  0  0
   -1.4704    5.3366   -0.8095 H   0  0  0  0  0  0  0  0  0  0  0  0
   -4.3898    5.5078    0.1038 H   0  0  0  0  0  0  0  0  0  0  0  0
   -3.6078    6.5178   -1.1551 H   0  0  0  0  0  0  0  0  0  0  0  0
   -3.8606    7.5993    1.0968 H   0  0  0  0  0  0  0  0  0  0  0  0
   -2.1680    7.5868    0.4194 H   0  0  0  0  0  0  0  0  0  0  0  0
   -3.4745    5.7265    2.4947 H   0  0  0  0  0  0  0  0  0  0  0  0
   -2.3005    6.9894    2.9212 H   0  0  0  0  0  0  0  0  0  0  0  0
   -0.5881    5.6423    1.5201 H   0  0  0  0  0  0  0  0  0  0  0  0
   -1.4089    4.6950    2.8820 H   0  0  0  0  0  0  0  0  0  0  0  0
  1  2  1  0
  2  3  1  0
  3  4  1  0
  4  5  1  0
  1  6  1  0
  5  6  1  0
  7  8  1  0
  2  9  1  0
  8  9  1  0
  1 10  1  0
  7 10  1  0
  8 11  1  0
 11 12  1  0
 13 12  1  0
 13 14  1  0
 13 15  1  0
 13 16  1  0
 11 17  1  0
  7 18  1  0
 18 19  1  0
 19 20  1  0
 19 21  1  0
 20 22  1  0
 20 23  1  0
 22 24  1  0
 24 25  1  0
 24 26  1  0
 26 27  1  0
 27 28  1  0
 28 29  1  0
 29 30  1  0
 26 31  1  0
 30 31  1  0
 30 32  1  0
 31 33  1  0
 23 34  1  0
 34 35  1  0
 35 36  1  0
 36 37  1  0
 37 38  1  0
 38 39  1  0
 35 40  1  0
 39 40  1  0
 12 41  1  0
 21 42  1  0
 22 43  1  0
 32 44  1  0
  1 45  1  6
  2 46  1  1
  3 47  1  0
  3 48  1  0
  4 49  1  0
  4 50  1  0
  5 51  1  0
  5 52  1  0
  6 53  1  0
  6 54  1  0
  8 55  1  1
  9 56  1  0
  9 57  1  0
 10 58  1  0
 10 59  1  0
 11 60  1  1
 14 61  1  0
 14 62  1  0
 14 63  1  0
 15 64  1  0
 15 65  1  0
 15 66  1  0
 16 67  1  0
 16 68  1  0
 16 69  1  0
 17 70  1  0
 18 71  1  0
 18 72  1  0
 19 73  1  6
 20 74  1  6
 23 75  1  0
 23 76  1  0
 24 77  1  0
 25 78  1  0
 26 79  1  0
 27 80  1  0
 27 81  1  0
 28 82  1  0
 28 83  1  0
 29 84  1  0
 29 85  1  0
 30 86  1  6
 31 87  1  6
 33 88  1  0
 33 89  1  0
 33 90  1  0
 35 91  1  0
 36 92  1  0
 36 93  1  0
 37 94  1  0
 37 95  1  0
 38 96  1  0
 38 97  1  0
 39 98  1  0
 39 99  1  0
 40100  1  0
 40101  1  0
M  END
>  <PDBID>  (1) 
1OHR

>  <PDB ID>  (1) 
1OHR

>  <Generic Name>  (1) 
Nelfinavir

>  <Brand Name>  (1) 
Viracept#Viracept -250mg#Viracept -50mg

>  <DrugBank ID>  (1) 
DB00220

>  <ATC Codes>  (1) 
J05AE04

>  <Ligand ID>  (1) 
1UN

>  <Target Name>  (1) 
HIV-1 protease

>  <UniProt ID>  (1) 
O90777

>  <PDB ID.1>  (1) 
1OHR

>  <Seq. Identity>  (1) 
93%

$$$$
