PDB_DB00284_07
     RDKit          3D

 89 92  0  0  0  0  0  0  0  0999 V2000
   -5.3970   -0.7005   -0.4380 C   0  0  2  0  0  0  0  0  0  0  0  0
   -5.8884    0.5672    0.1404 C   0  0  1  0  0  0  0  0  0  0  0  0
   -7.1457    1.0595   -0.6100 C   0  0  2  0  0  0  0  0  0  0  0  0
   -8.2408    0.0564   -0.5705 C   0  0  1  0  0  0  0  0  0  0  0  0
   -7.7606   -1.2289    0.0036 C   0  0  0  0  0  0  0  0  0  0  0  0
   -8.8475   -2.3145   -0.1010 C   0  0  0  0  0  0  0  0  0  0  0  0
   -6.5219   -1.6700   -0.7092 C   0  0  0  0  0  0  0  0  0  0  0  0
   -6.2517    0.5230    1.4888 O   0  0  0  0  0  0  0  0  0  0  0  0
   -6.8076    1.4668   -1.8992 O   0  0  0  0  0  0  0  0  0  0  0  0
   -9.2977    0.5087    0.2343 O   0  0  0  0  0  0  0  0  0  0  0  0
   -9.2135   -2.5577   -1.3999 O   0  0  0  0  0  0  0  0  0  0  0  0
   -0.6064   -0.5186    1.4047 C   0  0  2  0  0  0  0  0  0  0  0  0
   -1.6900    0.2763    2.1003 C   0  0  1  0  0  0  0  0  0  0  0  0
   -2.8708    0.3196    1.1118 C   0  0  2  0  0  0  0  0  0  0  0  0
   -3.0662   -0.9380    0.3859 C   0  0  1  0  0  0  0  0  0  0  0  0
   -2.1351   -2.0847    0.7192 C   0  0  1  0  0  0  0  0  0  0  0  0
   -1.6865   -2.7370   -0.5978 C   0  0  0  0  0  0  0  0  0  0  0  0
   -4.3946   -1.3610    0.2504 N   0  0  0  0  0  0  0  0  0  0  0  0
   -2.1096   -0.4266    3.2136 O   0  0  0  0  0  0  0  0  0  0  0  0
   -2.5171    1.4005    0.2535 O   0  0  0  0  0  0  0  0  0  0  0  0
   -1.0694   -1.8430    1.4992 O   0  0  0  0  0  0  0  0  0  0  0  0
    4.1708    0.7255    0.1767 C   0  0  2  0  0  0  0  0  0  0  0  0
    3.0842    1.7692    0.2638 C   0  0  1  0  0  0  0  0  0  0  0  0
    2.0687    1.4240    1.3504 C   0  0  2  0  0  0  0  0  0  0  0  0
    1.5599    0.0159    1.0573 C   0  0  1  0  0  0  0  0  0  0  0  0
    2.7723   -0.8851    1.0621 C   0  0  1  0  0  0  0  0  0  0  0  0
    2.7617   -1.7980   -0.1412 C   0  0  0  0  0  0  0  0  0  0  0  0
    3.5879    3.0353    0.5868 O   0  0  0  0  0  0  0  0  0  0  0  0
    1.0797    2.3743    1.2862 O   0  0  0  0  0  0  0  0  0  0  0  0
    0.6229   -0.3646    2.0093 O   0  0  0  0  0  0  0  0  0  0  0  0
    3.9509   -0.1732    1.2029 O   0  0  0  0  0  0  0  0  0  0  0  0
    1.5267   -2.4561   -0.1448 O   0  0  0  0  0  0  0  0  0  0  0  0
    8.1961    0.8193   -2.4005 C   0  0  1  0  0  0  0  0  0  0  0  0
    7.8180    2.2618   -2.2279 C   0  0  1  0  0  0  0  0  0  0  0  0
    6.5872    2.4749   -1.3678 C   0  0  2  0  0  0  0  0  0  0  0  0
    6.3021    1.1961   -0.5853 C   0  0  1  0  0  0  0  0  0  0  0  0
    7.6218    0.6542   -0.1605 C   0  0  1  0  0  0  0  0  0  0  0  0
    7.5297   -0.3995    0.9280 C   0  0  0  0  0  0  0  0  0  0  0  0
    9.4751    0.8156   -3.0007 O   0  0  0  0  0  0  0  0  0  0  0  0
    8.8992    3.0255   -1.7935 O   0  0  0  0  0  0  0  0  0  0  0  0
    5.4660    2.7986   -2.1263 O   0  0  0  0  0  0  0  0  0  0  0  0
    5.3808    1.3873    0.4083 O   0  0  0  0  0  0  0  0  0  0  0  0
    8.2694    0.0840   -1.2472 O   0  0  0  0  0  0  0  0  0  0  0  0
    6.8853    0.1231    2.0677 O   0  0  0  0  0  0  0  0  0  0  0  0
   -4.9914   -0.3639   -1.4902 H   0  0  0  0  0  0  0  0  0  0  0  0
   -5.1868    1.4145    0.0417 H   0  0  0  0  0  0  0  0  0  0  0  0
   -7.4759    1.9684   -0.0703 H   0  0  0  0  0  0  0  0  0  0  0  0
   -8.6808   -0.0680   -1.5937 H   0  0  0  0  0  0  0  0  0  0  0  0
   -7.6268   -1.1196    1.0963 H   0  0  0  0  0  0  0  0  0  0  0  0
   -8.4729   -3.1769    0.4679 H   0  0  0  0  0  0  0  0  0  0  0  0
   -9.7154   -1.9034    0.4436 H   0  0  0  0  0  0  0  0  0  0  0  0
   -6.6920   -1.8106   -1.8017 H   0  0  0  0  0  0  0  0  0  0  0  0
   -6.2529   -2.7079   -0.3422 H   0  0  0  0  0  0  0  0  0  0  0  0
   -6.1597    1.4113    1.9229 H   0  0  0  0  0  0  0  0  0  0  0  0
   -7.6250    1.7817   -2.3304 H   0  0  0  0  0  0  0  0  0  0  0  0
   -9.0533    0.3986    1.1911 H   0  0  0  0  0  0  0  0  0  0  0  0
   -8.5052   -3.1454   -1.8012 H   0  0  0  0  0  0  0  0  0  0  0  0
   -0.6152   -0.2997    0.3193 H   0  0  0  0  0  0  0  0  0  0  0  0
   -1.3669    1.3095    2.3421 H   0  0  0  0  0  0  0  0  0  0  0  0
   -3.7223    0.6202    1.7516 H   0  0  0  0  0  0  0  0  0  0  0  0
   -2.7442   -0.6810   -0.7092 H   0  0  0  0  0  0  0  0  0  0  0  0
   -2.7544   -2.8909    1.2049 H   0  0  0  0  0  0  0  0  0  0  0  0
   -0.9762   -2.0573   -1.1325 H   0  0  0  0  0  0  0  0  0  0  0  0
   -1.2003   -3.7091   -0.4425 H   0  0  0  0  0  0  0  0  0  0  0  0
   -2.5514   -2.8476   -1.2991 H   0  0  0  0  0  0  0  0  0  0  0  0
   -4.4688   -2.3829    0.4058 H   0  0  0  0  0  0  0  0  0  0  0  0
   -1.7502   -1.3329    3.2925 H   0  0  0  0  0  0  0  0  0  0  0  0
   -2.6109    2.2552    0.7459 H   0  0  0  0  0  0  0  0  0  0  0  0
    4.1912    0.1738   -0.7688 H   0  0  0  0  0  0  0  0  0  0  0  0
    2.5391    1.9000   -0.7056 H   0  0  0  0  0  0  0  0  0  0  0  0
    2.5787    1.3904    2.3228 H   0  0  0  0  0  0  0  0  0  0  0  0
    1.0855    0.0584    0.0635 H   0  0  0  0  0  0  0  0  0  0  0  0
    2.7223   -1.5859    1.9558 H   0  0  0  0  0  0  0  0  0  0  0  0
    3.5528   -2.5722   -0.0375 H   0  0  0  0  0  0  0  0  0  0  0  0
    2.8002   -1.2482   -1.1043 H   0  0  0  0  0  0  0  0  0  0  0  0
    3.5877    3.1124    1.5760 H   0  0  0  0  0  0  0  0  0  0  0  0
    1.1418    3.0700    1.9788 H   0  0  0  0  0  0  0  0  0  0  0  0
    1.6810   -3.3785   -0.4335 H   0  0  0  0  0  0  0  0  0  0  0  0
    7.4642    0.3370   -3.1107 H   0  0  0  0  0  0  0  0  0  0  0  0
    7.5521    2.6446   -3.2567 H   0  0  0  0  0  0  0  0  0  0  0  0
    6.8203    3.3190   -0.6894 H   0  0  0  0  0  0  0  0  0  0  0  0
    5.8304    0.5035   -1.3395 H   0  0  0  0  0  0  0  0  0  0  0  0
    8.2932    1.4452    0.2407 H   0  0  0  0  0  0  0  0  0  0  0  0
    6.8996   -1.2501    0.5834 H   0  0  0  0  0  0  0  0  0  0  0  0
    8.5007   -0.7676    1.2434 H   0  0  0  0  0  0  0  0  0  0  0  0
    9.8933   -0.0603   -2.7456 H   0  0  0  0  0  0  0  0  0  0  0  0
    9.6352    2.4618   -1.4892 H   0  0  0  0  0  0  0  0  0  0  0  0
    5.2039    1.9899   -2.6415 H   0  0  0  0  0  0  0  0  0  0  0  0
    7.1272    1.0889    2.1813 H   0  0  0  0  0  0  0  0  0  0  0  0
  1  2  1  0
  2  3  1  0
  3  4  1  0
  4  5  1  0
  5  6  1  0
  1  7  1  0
  5  7  1  0
  2  8  1  0
  3  9  1  0
  4 10  1  0
  6 11  1  0
 12 13  1  0
 13 14  1  0
 14 15  1  0
 15 16  1  0
 16 17  1  0
  1 18  1  0
 15 18  1  0
 13 19  1  0
 14 20  1  0
 12 21  1  0
 16 21  1  0
 22 23  1  0
 23 24  1  0
 24 25  1  0
 25 26  1  0
 26 27  1  0
 23 28  1  0
 24 29  1  0
 12 30  1  0
 25 30  1  0
 22 31  1  0
 26 31  1  0
 27 32  1  0
 33 34  1  0
 34 35  1  0
 35 36  1  0
 36 37  1  0
 37 38  1  0
 33 39  1  0
 34 40  1  0
 35 41  1  0
 22 42  1  0
 36 42  1  0
 33 43  1  0
 37 43  1  0
 38 44  1  0
  1 45  1  6
  2 46  1  1
  3 47  1  1
  4 48  1  6
  5 49  1  0
  6 50  1  0
  6 51  1  0
  7 52  1  0
  7 53  1  0
  8 54  1  0
  9 55  1  0
 10 56  1  0
 11 57  1  0
 12 58  1  6
 13 59  1  1
 14 60  1  1
 15 61  1  6
 16 62  1  1
 17 63  1  0
 17 64  1  0
 17 65  1  0
 18 66  1  0
 19 67  1  0
 20 68  1  0
 22 69  1  6
 23 70  1  6
 24 71  1  1
 25 72  1  6
 26 73  1  1
 27 74  1  0
 27 75  1  0
 28 76  1  0
 29 77  1  0
 32 78  1  0
 33 79  1  6
 34 80  1  6
 35 81  1  1
 36 82  1  6
 37 83  1  1
 38 84  1  0
 38 85  1  0
 39 86  1  0
 40 87  1  0
 41 88  1  0
 44 89  1  0
M  END
>  <PDBID>  (1) 
2QMJ

>  <PDB ID>  (1) 
2QMJ

>  <Generic Name>  (1) 
Acarbose

>  <Brand Name>  (1) 
Acarbose#Glucobay#Precose#Prandase

>  <DrugBank ID>  (1) 
DB00284

>  <ATC Codes>  (1) 
A10BF01#A10BD17

>  <Ligand ID>  (1) 
ACR,QPS

>  <Target Name>  (1) 
Maltase-glucoamylase, intestinal

>  <UniProt ID>  (1) 
O43451

>  <PDB ID.1>  (1) 
2QMJ

>  <Seq. Identity>  (1) 
99%

$$$$
