PDB_DB01336_03
     RDKit          3D

  0  0  0  0  0  0  0  0  0  0999 V3000
M  V30 BEGIN CTAB
M  V30 COUNTS 960 1008 0 0 0
M  V30 BEGIN ATOM
M  V30 1 N -5.11144 -2.20787 1.15476 0 CHG=1
M  V30 2 C -6.24736 -1.35089 0.901066 0
M  V30 3 C -6.29164 -0.8352 -0.502783 0
M  V30 4 C -4.96715 -0.330696 -1.00832 0
M  V30 5 C -3.88568 -0.378677 0.0419046 0
M  V30 6 C -3.85668 -1.62756 0.839049 0 CFG=2
M  V30 7 C -5.0616 1.1223 -1.44577 0
M  V30 8 C -3.67936 1.77817 -1.38817 0
M  V30 9 C -3.22606 1.95889 0.0447895 0
M  V30 10 C -4.01793 0.898007 0.844082 0
M  V30 11 O -1.94336 1.58328 0.167029 0
M  V30 12 C -0.950812 2.44223 0.427358 0
M  V30 13 C -1.25368 3.77624 0.996372 0
M  V30 14 C -0.0339745 4.67215 0.705665 0
M  V30 15 C 1.24221 3.89327 0.813891 0
M  V30 16 C 1.37767 2.90993 -0.364651 0
M  V30 17 C -0.0505456 2.63477 -0.785237 0
M  V30 18 C 2.09629 1.72847 0.0837194 0
M  V30 19 C 3.01328 0.981146 -0.810129 0 CFG=1
M  V30 20 N 3.78964 1.72073 -1.74042 0 CHG=1
M  V30 21 C 4.89922 1.02679 -2.32178 0
M  V30 22 C 5.5702 -0.00411404 -1.52442 0
M  V30 23 C 5.27674 0.130464 -0.0793666 0 CFG=1
M  V30 24 C 3.78798 0.0455813 0.101675 0
M  V30 25 C 5.99499 -0.839766 0.792896 0
M  V30 26 C 5.45082 -2.24338 0.755615 0
M  V30 27 C 3.98423 -2.12709 1.13584 0
M  V30 28 C 3.29648 -1.39528 0.0148698 0
M  V30 29 O 1.9147 -1.41564 0.180247 0
M  V30 30 C 1.3529 -2.6243 -0.216122 0
M  V30 31 C 0.65649 -3.35651 0.894552 0
M  V30 32 C -0.811815 -3.62192 0.583594 0
M  V30 33 C -1.53127 -2.32621 0.261235 0
M  V30 34 C -0.876861 -1.74993 -0.952737 0
M  V30 35 C 0.381345 -2.47934 -1.36728 0
M  V30 36 C -2.99687 -2.65583 0.0848297 0
M  V30 37 O -3.6842 2.9808 -2.0777 0
M  V30 38 C -2.94787 2.98679 -3.22786 0
M  V30 39 O -1.41306 3.63351 2.37107 0
M  V30 40 O 5.5702 -2.87615 -0.445557 0
M  V30 41 C 6.27275 -4.07414 -0.382983 0
M  V30 42 O 3.98473 -1.28561 2.26498 0
M  V30 43 C -5.15239 -2.52146 2.59305 0
M  V30 44 C 2.91654 2.05948 -2.88405 0
M  V30 45 C 4.30754 2.98789 -1.22883 0
M  V30 46 C 3.5326 -2.01974 3.3419 0
M  V30 47 C -5.37299 -3.46695 0.475066 0
M  V30 48 C -2.54553 4.18327 2.89754 0
M  V30 49 N -4.60147 -2.5547 0.981796 0 CHG=1
M  V30 50 C -5.86796 -2.2556 0.358222 0
M  V30 51 C -5.71936 -1.52449 -0.954648 0
M  V30 52 C -5.12057 -0.181578 -0.632861 0 CFG=1
M  V30 53 C -4.03812 -0.306552 0.363119 0 CFG=1
M  V30 54 C -3.52409 -1.70042 0.607657 0 CFG=2
M  V30 55 C -4.67168 0.565092 -1.86292 0
M  V30 56 C -4.18553 1.92142 -1.52131 0 CFG=1
M  V30 57 C -3.34195 1.96381 -0.237284 0
M  V30 58 C -2.83837 0.599899 0.055773 0
M  V30 59 O -2.47974 2.96945 -0.375923 0
M  V30 60 C -1.29359 3.01462 0.291993 0
M  V30 61 C -1.20948 4.41079 0.912015 0
M  V30 62 C 0.00658608 5.08288 0.261048 0
M  V30 63 C 1.17865 4.20541 0.720454 0
M  V30 64 C 1.19224 3.03579 -0.288421 0 CFG=2
M  V30 65 C -0.209675 2.73536 -0.685313 0
M  V30 66 C 1.95978 1.94933 0.301873 0
M  V30 67 C 2.81609 1.04498 -0.501296 0 CFG=1
M  V30 68 N 3.60584 1.6259 -1.52201 0 CHG=1
M  V30 69 C 4.71692 0.885333 -2.00304 0
M  V30 70 C 4.9921 -0.420753 -1.29867 0
M  V30 71 C 5.00136 -0.00948571 0.162264 0 CFG=1
M  V30 72 C 3.55632 0.191192 0.520922 0 CFG=2
M  V30 73 C 5.72438 -0.95542 1.02353 0
M  V30 74 C 5.03382 -2.28844 0.958561 0 CFG=1
M  V30 75 C 3.65396 -2.09369 1.52649 0
M  V30 76 C 2.81677 -1.10875 0.788274 0 CFG=2
M  V30 77 O 2.22801 -1.55159 -0.352743 0
M  V30 78 C 1.67175 -2.77633 -0.369762 0
M  V30 79 C 0.834573 -3.18016 0.787429 0
M  V30 80 C -0.64405 -3.36945 0.41168 0
M  V30 81 C -1.16948 -2.10841 -0.212856 0
M  V30 82 C -0.385049 -1.91475 -1.5163 0
M  V30 83 C 0.774392 -2.86632 -1.6156 0
M  V30 84 C -2.64351 -2.23289 -0.480215 0
M  V30 85 O -3.36378 2.36075 -2.57543 0
M  V30 86 C -3.85584 3.52578 -3.15595 0
M  V30 87 O -0.915969 4.35197 2.27566 0
M  V30 88 O 5.06846 -2.87037 -0.279018 0
M  V30 89 C 5.74896 -4.09086 -0.283679 0
M  V30 90 O 3.81898 -1.61934 2.82697 0
M  V30 91 C -4.82487 -2.4046 2.42996 0
M  V30 92 C 2.72394 1.81619 -2.69491 0
M  V30 93 C 4.1246 2.9584 -1.15641 0
M  V30 94 C 3.31541 -2.54868 3.73331 0
M  V30 95 C -4.36452 -3.96826 0.769424 0
M  V30 96 C -1.8628 5.05661 3.00523 0
M  V30 97 N -5.06893 -2.32838 1.24465 0 CHG=1
M  V30 98 C -6.22912 -1.48627 1.04086 0
M  V30 99 C -6.31968 -0.972921 -0.375143 0
M  V30 100 C -5.04234 -0.383025 -0.878111 0
M  V30 101 C -3.90165 -0.466074 0.0939935 0
M  V30 102 C -3.83629 -1.72599 0.880251 0 CFG=2
M  V30 103 C -5.19135 1.08608 -1.2411 0
M  V30 104 C -3.78538 1.71082 -1.31759 0
M  V30 105 C -3.20051 1.87112 0.0605398 0
M  V30 106 C -3.90069 0.786655 0.914156 0
M  V30 107 O -1.90115 1.53184 0.0673293 0
M  V30 108 C -0.913342 2.44319 0.178982 0
M  V30 109 C -1.20969 3.77943 0.733567 0
M  V30 110 C -0.104433 4.73013 0.228236 0
M  V30 111 C 1.2182 4.05316 0.275047 0
M  V30 112 C 1.32823 2.93045 -0.761508 0
M  V30 113 C -0.111693 2.59662 -1.10854 0
M  V30 114 C 2.11796 1.79955 -0.213616 0
M  V30 115 C 3.12758 1.1652 -1.16004 0 CFG=1
M  V30 116 N 4.30209 1.96313 -1.37092 0 CHG=1
M  V30 117 C 5.48841 1.25089 -1.72187 0
M  V30 118 C 5.21317 -0.0616322 -2.41315 0
M  V30 119 C 4.62396 -0.865814 -1.27029 0
M  V30 120 C 3.31555 -0.303237 -0.870304 0 CFG=1
M  V30 121 C 5.54732 -0.831226 -0.064587 0
M  V30 122 C 5.08784 -2.07249 0.713289 0
M  V30 123 C 3.71877 -1.72114 1.24646 0
M  V30 124 C 2.90572 -0.768914 0.483581 0 CFG=2
M  V30 125 O 1.57349 -1.2564 0.493203 0
M  V30 126 C 1.39218 -2.50575 0.0191528 0
M  V30 127 C 0.708745 -3.3199 1.13136 0
M  V30 128 C -0.735187 -3.59688 0.84744 0
M  V30 129 C -1.47104 -2.36277 0.339703 0
M  V30 130 C -0.802481 -1.84239 -0.891522 0
M  V30 131 C 0.430744 -2.63642 -1.15875 0
M  V30 132 C -2.92226 -2.72836 0.155591 0
M  V30 133 O -3.87105 2.89701 -2.03939 0
M  V30 134 C -3.28265 2.84224 -3.27609 0
M  V30 135 O -1.15067 3.72523 2.13214 0
M  V30 136 O 4.99509 -3.09735 -0.213543 0
M  V30 137 C 5.8066 -4.1838 0.0842308 0
M  V30 138 O 4.0042 -1.19435 2.51892 0
M  V30 139 C -5.08379 -2.69272 2.66749 0
M  V30 140 C 4.66809 2.78453 -0.223293 0
M  V30 141 C 4.12211 2.9485 -2.46267 0
M  V30 142 C 3.61334 -2.07968 3.50623 0
M  V30 143 C -5.33589 -3.57805 0.528268 0
M  V30 144 C -2.21639 4.29929 2.77107 0
M  V30 145 N -5.2575 -2.24204 1.20769 0 CHG=1
M  V30 146 C -6.40379 -1.36035 1.12405 0
M  V30 147 C -6.61711 -0.781044 -0.23623 0
M  V30 148 C -5.35277 -0.438501 -0.942673 0
M  V30 149 C -4.1301 -0.461815 -0.0585832 0
M  V30 150 C -4.0257 -1.63074 0.844513 0 CFG=2
M  V30 151 C -5.40521 0.961567 -1.55041 0
M  V30 152 C -4.02622 1.59874 -1.60865 0
M  V30 153 C -3.4732 1.87263 -0.215179 0
M  V30 154 C -4.14464 0.870262 0.703507 0
M  V30 155 O -2.12445 1.55552 -0.231387 0
M  V30 156 C -1.29043 2.63778 -0.429095 0 CFG=1
M  V30 157 C -0.954809 3.25081 0.92364 0 CFG=1
M  V30 158 C -0.187972 4.51995 0.50703 0
M  V30 159 C 1.17762 4.03952 0.155601 0
M  V30 160 C 1.23803 2.8225 -0.726424 0
M  V30 161 C -0.108483 2.41554 -1.27426 0
M  V30 162 C 2.0397 1.69031 -0.144312 0
M  V30 163 C 3.28026 1.28803 -0.846304 0 CFG=1
M  V30 164 N 4.318 2.30212 -0.93995 0 CHG=1
M  V30 165 C 5.67259 1.7181 -0.952862 0
M  V30 166 C 5.72528 0.611373 -1.93916 0
M  V30 167 C 4.92255 -0.494587 -1.32766 0
M  V30 168 C 3.89389 0.0611922 -0.310145 0
M  V30 169 C 5.87628 -1.45063 -0.690231 0
M  V30 170 C 5.21273 -2.5782 0.060533 0
M  V30 171 C 4.1355 -1.96814 0.916285 0
M  V30 172 C 3.15843 -1.13998 0.0465223 0
M  V30 173 O 2.01217 -1.14774 0.743147 0
M  V30 174 C 1.29035 -2.32994 0.481726 0
M  V30 175 C 0.479284 -2.7476 1.68059 0
M  V30 176 C -0.894394 -3.29587 1.28769 0
M  V30 177 C -1.60387 -2.23039 0.507478 0
M  V30 178 C -0.86857 -1.90039 -0.754351 0
M  V30 179 C 0.549904 -2.31902 -0.805789 0
M  V30 180 C -3.02919 -2.65864 0.291233 0
M  V30 181 O -4.17637 2.78594 -2.32558 0
M  V30 182 C -3.49235 2.75326 -3.53209 0
M  V30 183 O -2.06 3.60771 1.63791 0
M  V30 184 O 4.78511 -3.60509 -0.743292 0
M  V30 185 C 5.44073 -4.8177 -0.426624 0
M  V30 186 O 4.75038 -1.08073 1.79854 0
M  V30 187 C -5.1999 -2.68695 2.60976 0
M  V30 188 C 4.24448 3.06398 -2.1898 0
M  V30 189 C 4.36241 3.23363 0.155477 0
M  V30 190 C 4.5314 -1.4593 3.13529 0
M  V30 191 C -5.56738 -3.43352 0.434033 0
M  V30 192 C -2.11696 3.10568 2.91319 0
M  V30 193 N -5.04214 -2.33683 0.538461 0 CHG=1
M  V30 194 C -5.76624 -2.35122 -0.68794 0
M  V30 195 C -5.35097 -1.34707 -1.69766 0
M  V30 196 C -4.95586 -0.0826005 -1.03361 0 CFG=1
M  V30 197 C -3.71866 -0.378152 -0.181245 0
M  V30 198 C -3.7415 -1.71641 0.453675 0 CFG=2
M  V30 199 C -4.56798 1.0243 -1.94408 0
M  V30 200 C -3.9507 2.20443 -1.29294 0
M  V30 201 C -3.22742 1.99301 -0.0156998 0
M  V30 202 C -3.65545 0.777166 0.7769 0
M  V30 203 O -1.82887 1.84282 -0.192865 0
M  V30 204 C -1.17782 3.05375 -0.0417071 0 CFG=1
M  V30 205 C -0.810638 3.38035 1.38593 0
M  V30 206 C 0.551119 4.04554 1.38112 0
M  V30 207 C 1.52736 2.96883 0.945109 0
M  V30 208 C 1.29687 2.72177 -0.532969 0 CFG=2
M  V30 209 C -0.070233 3.17271 -1.00321 0
M  V30 210 C 1.52831 1.30241 -0.872181 0
M  V30 211 C 2.89569 0.828568 -1.18227 0 CFG=1
M  V30 212 N 3.62909 1.51505 -2.17388 0 CHG=1
M  V30 213 C 4.63791 0.580839 -2.71233 0
M  V30 214 C 5.13543 -0.394335 -1.70773 0
M  V30 215 C 5.12732 0.186083 -0.29143 0 CFG=1
M  V30 216 C 3.7086 0.446023 0.0574183 0
M  V30 217 C 5.89125 -0.715183 0.613633 0
M  V30 218 C 5.15607 -1.96229 1.01897 0 CFG=1
M  V30 219 C 3.87973 -1.49497 1.65806 0
M  V30 220 C 3.00447 -0.683725 0.752801 0 CFG=2
M  V30 221 O 2.26317 -1.4038 -0.140381 0
M  V30 222 C 1.60746 -2.49397 0.32123 0
M  V30 223 C 0.693719 -2.27153 1.48494 0
M  V30 224 C -0.715952 -2.82301 1.21681 0
M  V30 225 C -1.34652 -2.03514 0.0765494 0
M  V30 226 C -0.433088 -2.18462 -1.10983 0
M  V30 227 C 0.772888 -3.05012 -0.81755 0
M  V30 228 C -2.71318 -2.6353 -0.172148 0
M  V30 229 O -4.99627 3.11886 -1.04813 0
M  V30 230 C -4.86106 4.29283 -1.7378 0
M  V30 231 O -0.708673 2.25609 2.19214 0
M  V30 232 O 4.99968 -2.86792 0.00788155 0
M  V30 233 C 5.63166 -4.07303 0.310061 0
M  V30 234 O 4.23468 -0.712952 2.75664 0
M  V30 235 C -5.80389 -1.75685 1.63125 0
M  V30 236 C 2.75821 1.79684 -3.29514 0
M  V30 237 C 4.3181 2.70548 -1.82489 0
M  V30 238 C 3.78406 -1.30687 3.9344 0
M  V30 239 C -4.83093 -3.74774 0.913437 0
M  V30 240 C -1.49517 2.4046 3.31258 0
M  V30 241 N -5.09765 -2.20022 1.1813 0 CHG=1
M  V30 242 C -6.2296 -1.34341 0.918451 0
M  V30 243 C -6.25707 -0.758644 -0.44055 0
M  V30 244 C -4.90943 -0.417113 -1.01871 0 CFG=2
M  V30 245 C -3.86202 -0.380884 0.0674498 0
M  V30 246 C -3.83666 -1.61792 0.885922 0 CFG=2
M  V30 247 C -4.90775 0.954233 -1.66319 0
M  V30 248 C -3.58679 1.68764 -1.44654 0
M  V30 249 C -3.34236 2.00167 -0.011825 0
M  V30 250 C -4.03851 0.902343 0.814155 0
M  V30 251 O -2.01062 1.93732 0.388926 0
M  V30 252 C -1.24504 3.01581 0.0437921 0
M  V30 253 C -1.03444 4.037 1.12264 0 CFG=1
M  V30 254 C 0.20521 4.87174 0.924909 0
M  V30 255 C 1.4516 4.13068 0.60396 0
M  V30 256 C 1.10698 2.6284 0.598944 0 CFG=1
M  V30 257 C 0.0945916 2.44931 -0.455173 0
M  V30 258 C 2.25356 1.74978 0.719973 0
M  V30 259 C 2.88672 1.02756 -0.388628 0 CFG=1
M  V30 260 N 3.5969 1.73565 -1.39497 0 CHG=1
M  V30 261 C 4.4986 0.820477 -2.12184 0
M  V30 262 C 5.6477 0.346777 -1.33495 0
M  V30 263 C 5.20525 0.127423 0.0748661 0 CFG=1
M  V30 264 C 3.7425 -0.0827322 0.250935 0
M  V30 265 C 5.9867 -0.988829 0.653919 0
M  V30 266 C 5.44801 -2.36258 0.351087 0
M  V30 267 C 3.99244 -2.40725 0.852041 0
M  V30 268 C 3.26095 -1.47114 -0.12427 0
M  V30 269 O 1.8967 -1.53331 0.0134846 0
M  V30 270 C 1.36588 -2.78104 -0.2528 0
M  V30 271 C 0.662382 -3.28929 0.976065 0
M  V30 272 C -0.809316 -3.58508 0.728073 0
M  V30 273 C -1.51824 -2.3179 0.22925 0
M  V30 274 C -0.876847 -1.96168 -1.06992 0
M  V30 275 C 0.36783 -2.76056 -1.38548 0
M  V30 276 C -2.98949 -2.65217 0.128637 0
M  V30 277 O -3.70719 2.83715 -2.26283 0
M  V30 278 C -2.85921 2.78129 -3.36793 0
M  V30 279 O -2.0998 4.94356 1.04326 0
M  V30 280 O 5.5063 -2.72521 -0.968817 0
M  V30 281 C 6.26887 -3.87183 -1.18246 0
M  V30 282 O 4.04455 -1.81048 2.10946 0
M  V30 283 C -5.12409 -2.47308 2.62949 0
M  V30 284 C 2.7626 2.20758 -2.50268 0
M  V30 285 C 4.38619 2.84552 -0.975953 0
M  V30 286 C 3.64297 -2.62262 3.14253 0
M  V30 287 C -5.34672 -3.46846 0.540777 0
M  V30 288 C -2.82119 4.97707 2.23034 0
M  V30 289 N -5.15354 -2.24404 1.11284 0 CHG=1
M  V30 290 C -6.26151 -1.33448 0.925588 0
M  V30 291 C -6.3283 -0.781148 -0.468281 0
M  V30 292 C -4.99629 -0.407925 -1.02523 0
M  V30 293 C -3.87099 -0.480957 -0.0364622 0
M  V30 294 C -3.87935 -1.68828 0.830556 0 CFG=2
M  V30 295 C -4.99704 1.00483 -1.59631 0
M  V30 296 C -3.61581 1.62482 -1.53611 0
M  V30 297 C -3.15874 1.85838 -0.126608 0
M  V30 298 C -3.82177 0.814653 0.750741 0
M  V30 299 O -1.77802 1.75646 0.0354047 0
M  V30 300 C -1.18586 3.01405 -0.163169 0 CFG=1
M  V30 301 C -1.17094 3.83795 1.09547 0
M  V30 302 C 0.0820952 4.68763 1.15469 0
M  V30 303 C 1.21626 3.69143 1.27321 0
M  V30 304 C 1.36139 3.03044 -0.0824158 0 CFG=2
M  V30 305 C 0.108987 2.89461 -0.859473 0
M  V30 306 C 2.07865 1.72527 0.157826 0
M  V30 307 C 3.0113 1.27221 -0.883618 0 CFG=1
M  V30 308 N 3.9613 2.2347 -1.3668 0 CHG=1
M  V30 309 C 5.14232 1.48789 -1.84008 0
M  V30 310 C 4.7629 0.264719 -2.61376 0
M  V30 311 C 4.22008 -0.743701 -1.63346 0
M  V30 312 C 3.74638 0.0668107 -0.4173 0
M  V30 313 C 5.30397 -1.64874 -1.11179 0
M  V30 314 C 4.82212 -2.52273 -0.0115539 0
M  V30 315 C 3.89009 -1.90914 0.970343 0 CFG=2
M  V30 316 C 2.91933 -0.906521 0.393017 0 CFG=2
M  V30 317 O 1.91504 -1.44781 -0.352457 0
M  V30 318 C 1.38103 -2.62689 0.0754787 0
M  V30 319 C 0.646373 -2.55621 1.38171 0
M  V30 320 C -0.789922 -3.07899 1.24443 0
M  V30 321 C -1.5637 -2.2036 0.283122 0
M  V30 322 C -0.842991 -2.23861 -1.03487 0
M  V30 323 C 0.388472 -3.09613 -0.988243 0
M  V30 324 C -2.97162 -2.75545 0.202881 0
M  V30 325 O -3.68414 2.80374 -2.28735 0
M  V30 326 C -2.91015 2.73254 -3.4411 0
M  V30 327 O -1.12402 2.9632 2.17757 0
M  V30 328 O 5.96595 -2.92236 0.720803 0
M  V30 329 C 6.20251 -4.272 0.627986 0
M  V30 330 O 4.68073 -1.18845 1.89622 0
M  V30 331 C -5.18175 -2.62395 2.53509 0
M  V30 332 C 3.43617 2.92615 -2.53536 0
M  V30 333 C 4.44934 3.14588 -0.365098 0
M  V30 334 C 4.57242 -1.71183 3.17844 0
M  V30 335 C -5.46062 -3.45126 0.376338 0
M  V30 336 C -2.17434 3.2 3.06054 0
M  V30 337 N -5.13759 -2.18199 1.35897 0 CHG=1
M  V30 338 C -6.30215 -1.35399 1.17476 0
M  V30 339 C -6.48874 -0.871147 -0.222414 0
M  V30 340 C -5.22437 -0.481531 -0.91058 0
M  V30 341 C -4.04058 -0.424976 0.025569 0
M  V30 342 C -3.91434 -1.5909 0.938958 0 CFG=2
M  V30 343 C -5.32159 0.913795 -1.53748 0
M  V30 344 C -3.96258 1.58906 -1.57548 0
M  V30 345 C -3.44796 1.923 -0.187568 0
M  V30 346 C -4.1344 0.908348 0.744619 0
M  V30 347 O -2.10226 1.57384 -0.150987 0
M  V30 348 C -1.22531 2.60464 -0.319782 0 CFG=1
M  V30 349 C -0.928025 3.2213 1.03892 0 CFG=1
M  V30 350 C -0.201866 4.52099 0.659562 0
M  V30 351 C 1.1366 4.12793 0.164183 0
M  V30 352 C 1.27395 2.88471 -0.613217 0 CFG=2
M  V30 353 C -0.00175818 2.23245 -1.0655 0
M  V30 354 C 2.21732 1.90035 0.10052 0
M  V30 355 C 3.29799 1.36861 -0.783774 0 CFG=1
M  V30 356 N 4.30586 2.31341 -1.12567 0 CHG=1
M  V30 357 C 5.68215 1.81586 -0.921794 0
M  V30 358 C 5.88366 0.593885 -1.72905 0
M  V30 359 C 5.02443 -0.43776 -1.14247 0
M  V30 360 C 3.85485 0.0797839 -0.285175 0
M  V30 361 C 5.86021 -1.33838 -0.266205 0
M  V30 362 C 5.09683 -2.50727 0.302534 0
M  V30 363 C 3.81487 -1.97973 0.910405 0
M  V30 364 C 3.05899 -1.12326 -0.137173 0
M  V30 365 O 1.77279 -1.17298 0.225965 0
M  V30 366 C 1.27333 -2.47406 -0.0182049 0
M  V30 367 C 0.624593 -2.98704 1.22014 0
M  V30 368 C -0.81631 -3.37996 0.975738 0
M  V30 369 C -1.57338 -2.24994 0.292894 0
M  V30 370 C -0.985755 -2.03605 -1.07799 0
M  V30 371 C 0.401063 -2.56113 -1.22284 0
M  V30 372 C -3.0325 -2.65014 0.259857 0
M  V30 373 O -4.08682 2.76669 -2.29842 0
M  V30 374 C -3.35332 2.77305 -3.46219 0
M  V30 375 O -2.07546 3.54388 1.70698 0
M  V30 376 O 4.85445 -3.49542 -0.61888 0
M  V30 377 C 5.44806 -4.68863 -0.205118 0
M  V30 378 O 4.20162 -1.07972 1.90299 0
M  V30 379 C -5.03886 -2.43692 2.80556 0
M  V30 380 C 4.26928 2.6718 -2.5575 0
M  V30 381 C 4.32049 3.57534 -0.428704 0
M  V30 382 C 3.67371 -1.43182 3.15197 0
M  V30 383 C -5.40422 -3.47537 0.752508 0
M  V30 384 C -2.14107 3.10029 3.00658 0
M  V30 385 H -7.15888 -2.00801 1.02788 0
M  V30 386 H -6.31168 -0.595421 1.68181 0
M  V30 387 H -6.7131 -1.62508 -1.15788 0
M  V30 388 H -7.01365 0.00681944 -0.533812 0
M  V30 389 H -4.64054 -0.990486 -1.84563 0
M  V30 390 H -2.91087 -0.341578 -0.530623 0
M  V30 391 H -3.27161 -1.41656 1.78021 0
M  V30 392 H -5.82433 1.68941 -0.916215 0
M  V30 393 H -5.29806 1.07623 -2.54988 0
M  V30 394 H -3.02861 1.08847 -1.96169 0
M  V30 395 H -3.53999 2.91412 0.472232 0
M  V30 396 H -5.03256 1.28346 0.916159 0
M  V30 397 H -3.58336 0.792179 1.86106 0
M  V30 398 H -0.27616 1.92905 1.18503 0
M  V30 399 H -2.0856 4.31461 0.500675 0
M  V30 400 H 0.00986466 5.51292 1.42499 0
M  V30 401 H -0.0850286 5.12413 -0.300623 0
M  V30 402 H 2.08016 4.61794 0.780318 0
M  V30 403 H 1.34324 3.3545 1.77648 0
M  V30 404 H 1.84341 3.52156 -1.15585 0
M  V30 405 H -0.39595 3.47372 -1.42475 0
M  V30 406 H -0.085428 1.69537 -1.40297 0
M  V30 407 H 1.31601 0.965778 0.411986 0
M  V30 408 H 2.58587 1.94336 1.08935 0
M  V30 409 H 2.36632 0.292888 -1.4384 0
M  V30 410 H 4.61128 0.547813 -3.30905 0
M  V30 411 H 5.68487 1.77653 -2.6475 0
M  V30 412 H 6.69359 0.0280947 -1.6456 0
M  V30 413 H 5.30408 -1.04419 -1.87708 0
M  V30 414 H 5.58291 1.14965 0.259633 0
M  V30 415 H 3.63967 0.296424 1.19826 0
M  V30 416 H 7.09081 -0.795937 0.576487 0
M  V30 417 H 5.89448 -0.487359 1.84779 0
M  V30 418 H 5.94532 -2.82499 1.53924 0
M  V30 419 H 3.63268 -3.13275 1.33761 0
M  V30 420 H 3.50393 -1.83517 -0.978618 0
M  V30 421 H 2.20542 -3.23544 -0.640453 0
M  V30 422 H 0.624448 -2.74218 1.84096 0
M  V30 423 H 1.1103 -4.33858 1.13623 0
M  V30 424 H -0.952951 -4.35541 -0.212835 0
M  V30 425 H -1.26372 -4.01683 1.51671 0
M  V30 426 H -1.36972 -1.63709 1.12845 0
M  V30 427 H -1.54869 -1.79339 -1.85833 0
M  V30 428 H -0.550858 -0.686885 -0.757211 0
M  V30 429 H 0.818954 -1.88997 -2.20274 0
M  V30 430 H 0.144615 -3.48395 -1.73833 0
M  V30 431 H -3.24017 -3.6528 0.484256 0
M  V30 432 H -3.20738 -2.56183 -1.00925 0
M  V30 433 H -1.88596 2.77537 -3.14859 0
M  V30 434 H -3.37297 2.34256 -4.03402 0
M  V30 435 H -3.02504 4.03398 -3.64569 0
M  V30 436 H 7.28728 -3.83059 -0.00708458 0
M  V30 437 H 6.39029 -4.45255 -1.41482 0
M  V30 438 H 5.71757 -4.74658 0.285494 0
M  V30 439 H -4.60964 -1.73493 3.14309 0
M  V30 440 H -6.18445 -2.56959 2.9674 0
M  V30 441 H -4.70077 -3.53583 2.76303 0
M  V30 442 H 3.23783 1.50319 -3.81786 0
M  V30 443 H 1.88929 1.73446 -2.73873 0
M  V30 444 H 3.04585 3.12756 -3.17897 0
M  V30 445 H 4.01747 3.2054 -0.206843 0
M  V30 446 H 5.44007 3.00192 -1.2347 0
M  V30 447 H 4.06984 3.84029 -1.93322 0
M  V30 448 H 2.52568 -2.43179 3.25102 0
M  V30 449 H 4.24179 -2.82273 3.65261 0
M  V30 450 H 3.50529 -1.31292 4.22174 0
M  V30 451 H -5.05326 -4.348 1.10205 0
M  V30 452 H -4.99305 -3.5011 -0.544955 0
M  V30 453 H -6.49156 -3.60438 0.391836 0
M  V30 454 H -2.56451 5.28613 2.68965 0
M  V30 455 H -3.4865 3.66853 2.72199 0
M  V30 456 H -2.4033 4.14856 4.02264 0
M  V30 457 H -6.46273 -3.17357 0.148743 0
M  V30 458 H -6.50157 -1.61629 1.00957 0
M  V30 459 H -5.20229 -2.08605 -1.72859 0
M  V30 460 H -6.76563 -1.35634 -1.32927 0
M  V30 461 H -5.97456 0.433674 -0.213447 0
M  V30 462 H -4.42034 0.0520558 1.36593 0
M  V30 463 H -2.84949 -1.60894 1.5147 0
M  V30 464 H -5.60013 0.691724 -2.49592 0
M  V30 465 H -3.95481 0.0410386 -2.487 0
M  V30 466 H -5.01524 2.64553 -1.44766 0
M  V30 467 H -4.09057 2.2312 0.566363 0
M  V30 468 H -2.28223 0.226183 -0.805909 0
M  V30 469 H -2.26482 0.588797 1.01197 0
M  V30 470 H -1.19045 2.30901 1.13179 0
M  V30 471 H -2.11759 5.00159 0.764826 0
M  V30 472 H 0.145964 6.1015 0.699181 0
M  V30 473 H -0.0794861 5.12278 -0.824432 0
M  V30 474 H 2.11823 4.75713 0.678062 0
M  V30 475 H 0.98501 3.76086 1.6999 0
M  V30 476 H 1.66052 3.53419 -1.19008 0
M  V30 477 H -0.514221 3.21575 -1.66207 0
M  V30 478 H -0.260581 1.63521 -0.909359 0
M  V30 479 H 1.22455 1.27332 0.844944 0
M  V30 480 H 2.60229 2.31548 1.16139 0
M  V30 481 H 2.11395 0.321284 -1.01985 0
M  V30 482 H 4.65988 0.61587 -3.10035 0
M  V30 483 H 5.6981 1.45053 -1.94799 0
M  V30 484 H 5.99413 -0.761784 -1.62854 0
M  V30 485 H 4.188 -1.1099 -1.54143 0
M  V30 486 H 5.48711 1.00406 0.282808 0
M  V30 487 H 3.60463 0.706169 1.53048 0
M  V30 488 H 6.76928 -1.03525 0.691273 0
M  V30 489 H 5.68399 -0.610057 2.0683 0
M  V30 490 H 5.57658 -2.96458 1.66386 0
M  V30 491 H 3.17615 -3.06216 1.56962 0
M  V30 492 H 1.97029 -0.831267 1.48968 0
M  V30 493 H 2.43185 -3.59653 -0.532518 0
M  V30 494 H 0.840177 -2.51634 1.64953 0
M  V30 495 H 1.1071 -4.20505 1.18491 0
M  V30 496 H -0.81041 -4.27138 -0.176388 0
M  V30 497 H -1.18025 -3.48586 1.38969 0
M  V30 498 H -0.885087 -1.27724 0.433846 0
M  V30 499 H -1.08693 -2.16392 -2.33093 0
M  V30 500 H -0.0735237 -0.863215 -1.62829 0
M  V30 501 H 1.36741 -2.55807 -2.50028 0
M  V30 502 H 0.432101 -3.89097 -1.76449 0
M  V30 503 H -2.84893 -3.33986 -0.577519 0
M  V30 504 H -2.83369 -1.81735 -1.4758 0
M  V30 505 H -4.8597 3.40805 -3.57501 0
M  V30 506 H -3.82621 4.31739 -2.37624 0
M  V30 507 H -3.14646 3.79347 -3.96573 0
M  V30 508 H 5.26894 -4.82027 0.401964 0
M  V30 509 H 6.77037 -3.87931 0.100061 0
M  V30 510 H 5.82683 -4.45937 -1.31787 0
M  V30 511 H -4.28137 -1.50799 2.8189 0
M  V30 512 H -5.87724 -2.29203 2.68399 0
M  V30 513 H -4.43361 -3.27398 2.99074 0
M  V30 514 H 3.03282 1.13024 -3.54316 0
M  V30 515 H 1.6943 1.52738 -2.48956 0
M  V30 516 H 2.85916 2.8311 -3.13147 0
M  V30 517 H 5.25598 2.94726 -1.10669 0
M  V30 518 H 3.80664 3.27854 -0.16661 0
M  V30 519 H 3.91582 3.69781 -1.97339 0
M  V30 520 H 3.44497 -2.17595 4.76955 0
M  V30 521 H 2.2297 -2.70686 3.59662 0
M  V30 522 H 3.79183 -3.54343 3.61517 0
M  V30 523 H -3.40067 -4.33119 1.11867 0
M  V30 524 H -4.62486 -4.28941 -0.273991 0
M  V30 525 H -5.13732 -4.49491 1.40556 0
M  V30 526 H -1.59802 4.98792 4.08053 0
M  V30 527 H -1.88695 6.11446 2.72746 0
M  V30 528 H -2.82905 4.53908 2.88015 0
M  V30 529 H -7.1186 -2.14008 1.19617 0
M  V30 530 H -6.31525 -0.679601 1.79802 0
M  V30 531 H -6.66021 -1.82764 -1.02697 0
M  V30 532 H -7.10495 -0.190049 -0.39945 0
M  V30 533 H -4.74994 -0.927372 -1.82046 0
M  V30 534 H -2.96273 -0.439805 -0.535897 0
M  V30 535 H -3.27278 -1.48836 1.83156 0
M  V30 536 H -5.85642 1.63929 -0.582528 0
M  V30 537 H -5.58199 1.12497 -2.28588 0
M  V30 538 H -3.21636 0.995445 -1.94017 0
M  V30 539 H -3.48681 2.81836 0.541166 0
M  V30 540 H -4.88577 1.18121 1.14879 0
M  V30 541 H -3.32876 0.632435 1.86855 0
M  V30 542 H -0.170329 1.97455 0.906437 0
M  V30 543 H -2.13063 4.27506 0.419438 0
M  V30 544 H -0.0508423 5.62167 0.888142 0
M  V30 545 H -0.326527 5.06742 -0.782386 0
M  V30 546 H 2.00384 4.80239 0.052266 0
M  V30 547 H 1.4677 3.66327 1.29243 0
M  V30 548 H 1.73849 3.40272 -1.66601 0
M  V30 549 H -0.519913 3.33908 -1.79624 0
M  V30 550 H -0.182965 1.60062 -1.60546 0
M  V30 551 H 1.35533 0.987238 -0.0187389 0
M  V30 552 H 2.59366 2.1435 0.725749 0
M  V30 553 H 2.57764 1.2536 -2.15547 0
M  V30 554 H 6.16962 1.04787 -0.872345 0
M  V30 555 H 6.13976 1.82648 -2.44628 0
M  V30 556 H 4.46345 -0.00282273 -3.19685 0
M  V30 557 H 6.16748 -0.508395 -2.69671 0
M  V30 558 H 4.55924 -1.91753 -1.66105 0
M  V30 559 H 2.59458 -0.851965 -1.56689 0
M  V30 560 H 6.59878 -0.959295 -0.305062 0
M  V30 561 H 5.31987 0.00434604 0.627351 0
M  V30 562 H 5.79688 -2.34484 1.49767 0
M  V30 563 H 3.23826 -2.69887 1.46061 0
M  V30 564 H 2.8503 0.184951 1.10827 0
M  V30 565 H 2.29818 -3.03234 -0.344561 0
M  V30 566 H 0.711947 -2.73658 2.0993 0
M  V30 567 H 1.2365 -4.28893 1.23545 0
M  V30 568 H -0.939874 -4.48055 0.234762 0
M  V30 569 H -1.22965 -3.82079 1.83979 0
M  V30 570 H -1.40025 -1.58164 1.14662 0
M  V30 571 H -1.45113 -1.95664 -1.80951 0
M  V30 572 H -0.478482 -0.773847 -0.781126 0
M  V30 573 H 0.843485 -2.34934 -2.11941 0
M  V30 574 H 0.213906 -3.7424 -1.25373 0
M  V30 575 H -3.14219 -3.73614 0.503725 0
M  V30 576 H -3.18277 -2.62007 -0.927282 0
M  V30 577 H -2.22117 2.61194 -3.29609 0
M  V30 578 H -3.89856 2.19232 -3.93297 0
M  V30 579 H -3.39021 3.87507 -3.71877 0
M  V30 580 H 6.85744 -3.81194 0.105094 0
M  V30 581 H 5.51805 -4.67567 1.02893 0
M  V30 582 H 5.74485 -4.88074 -0.779652 0
M  V30 583 H -4.62807 -1.9028 3.29265 0
M  V30 584 H -6.11372 -2.86845 3.03288 0
M  V30 585 H -4.54615 -3.67414 2.80672 0
M  V30 586 H 5.75505 3.0808 -0.338832 0
M  V30 587 H 4.13759 3.76076 -0.240322 0
M  V30 588 H 4.61679 2.27293 0.735606 0
M  V30 589 H 5.05985 3.02204 -3.09608 0
M  V30 590 H 3.99181 3.97046 -2.09676 0
M  V30 591 H 3.36722 2.60139 -3.19794 0
M  V30 592 H 3.84368 -1.68207 4.53037 0
M  V30 593 H 2.52432 -2.28195 3.52923 0
M  V30 594 H 4.17041 -3.04782 3.39118 0
M  V30 595 H -4.95102 -4.45283 1.11992 0
M  V30 596 H -4.95206 -3.56943 -0.497248 0
M  V30 597 H -6.43316 -3.72807 0.473511 0
M  V30 598 H -2.2575 5.38207 2.46027 0
M  V30 599 H -3.18099 3.80953 2.67295 0
M  V30 600 H -1.92899 4.37283 3.86583 0
M  V30 601 H -7.30018 -1.97949 1.37015 0
M  V30 602 H -6.37522 -0.572309 1.93164 0
M  V30 603 H -7.1781 -1.55239 -0.84113 0
M  V30 604 H -7.31757 0.0732796 -0.151555 0
M  V30 605 H -5.16293 -1.17024 -1.77938 0
M  V30 606 H -3.25959 -0.478196 -0.746876 0
M  V30 607 H -3.54002 -1.27225 1.80004 0
M  V30 608 H -6.12887 1.59021 -1.00415 0
M  V30 609 H -5.75117 0.85327 -2.5811 0
M  V30 610 H -3.38548 0.930368 -2.2075 0
M  V30 611 H -3.66884 2.91609 0.0943608 0
M  V30 612 H -5.188 1.22199 0.848811 0
M  V30 613 H -3.68339 0.777307 1.68447 0
M  V30 614 H -1.95584 3.42267 -0.90697 0
M  V30 615 H -0.250213 2.59054 1.4637 0
M  V30 616 H -0.117045 5.22982 1.32811 0
M  V30 617 H -0.674555 5.00531 -0.360849 0
M  V30 618 H 1.73511 4.91416 -0.24336 0
M  V30 619 H 1.67376 3.77221 1.11555 0
M  V30 620 H 1.81 3.15596 -1.64319 0
M  V30 621 H -0.304468 2.84912 -2.30043 0
M  V30 622 H -0.0190266 1.31883 -1.48809 0
M  V30 623 H 1.33917 0.807488 -0.249492 0
M  V30 624 H 2.16267 1.79131 0.964688 0
M  V30 625 H 2.98775 1.07858 -1.92008 0
M  V30 626 H 6.06591 1.49394 0.0275073 0
M  V30 627 H 6.33053 2.54463 -1.35869 0
M  V30 628 H 5.34356 0.902833 -2.91056 0
M  V30 629 H 6.80214 0.321716 -2.089 0
M  V30 630 H 4.37617 -1.00699 -2.12748 0
M  V30 631 H 4.48492 0.383603 0.604672 0
M  V30 632 H 6.63718 -0.924884 -0.0493866 0
M  V30 633 H 6.46302 -1.91482 -1.50888 0
M  V30 634 H 5.97806 -2.98585 0.761584 0
M  V30 635 H 3.64463 -2.72215 1.51611 0
M  V30 636 H 3.00681 -1.8186 -0.851563 0
M  V30 637 H 2.07113 -3.14144 0.362256 0
M  V30 638 H 0.333585 -1.89511 2.36083 0
M  V30 639 H 0.958604 -3.5496 2.27894 0
M  V30 640 H -0.807468 -4.22134 0.703181 0
M  V30 641 H -1.4371 -3.47482 2.21896 0
M  V30 642 H -1.64974 -1.3251 1.18179 0
M  V30 643 H -1.40078 -2.42346 -1.60324 0
M  V30 644 H -0.904399 -0.803754 -0.880647 0
M  V30 645 H 1.09205 -1.61626 -1.50476 0
M  V30 646 H 0.635534 -3.31148 -1.34276 0
M  V30 647 H -3.27689 -3.62444 0.775091 0
M  V30 648 H -3.21672 -2.68083 -0.801943 0
M  V30 649 H -2.41928 2.60333 -3.40706 0
M  V30 650 H -3.97087 1.97652 -4.17421 0
M  V30 651 H -3.66128 3.72552 -4.03413 0
M  V30 652 H 6.54909 -4.66191 -0.577062 0
M  V30 653 H 5.14179 -5.62456 -1.0952 0
M  V30 654 H 5.32443 -5.07036 0.646433 0
M  V30 655 H -4.80606 -1.83691 3.2289 0
M  V30 656 H -6.2478 -2.85631 2.95125 0
M  V30 657 H -4.57151 -3.58134 2.72489 0
M  V30 658 H 5.27096 3.21392 -2.64895 0
M  V30 659 H 3.68261 2.56394 -2.97907 0
M  V30 660 H 3.9406 4.13231 -2.00207 0
M  V30 661 H 3.87855 2.88271 1.06371 0
M  V30 662 H 4.02938 4.24895 -0.200353 0
M  V30 663 H 5.42034 3.47286 0.496712 0
M  V30 664 H 3.46271 -1.48381 3.39711 0
M  V30 665 H 4.8968 -2.52396 3.23176 0
M  V30 666 H 5.15413 -0.874477 3.81923 0
M  V30 667 H -5.23434 -4.35554 0.983444 0
M  V30 668 H -5.13671 -3.38398 -0.576424 0
M  V30 669 H -6.67251 -3.57153 0.309555 0
M  V30 670 H -2.11186 2.00804 2.9985 0
M  V30 671 H -1.36922 3.58477 3.60115 0
M  V30 672 H -3.11433 3.42511 3.33808 0
M  V30 673 H -5.75205 -3.36061 -1.19144 0
M  V30 674 H -6.85364 -2.1929 -0.429914 0
M  V30 675 H -4.6174 -1.70674 -2.44958 0
M  V30 676 H -6.26878 -1.1126 -2.31737 0
M  V30 677 H -5.80245 0.241182 -0.379963 0
M  V30 678 H -2.85674 -0.311752 -0.877824 0
M  V30 679 H -3.40258 -1.58217 1.52413 0
M  V30 680 H -5.4459 1.29685 -2.58903 0
M  V30 681 H -3.81534 0.607679 -2.67694 0
M  V30 682 H -3.27814 2.753 -2.02192 0
M  V30 683 H -3.29191 2.90385 0.661479 0
M  V30 684 H -3.03842 0.597742 1.65333 0
M  V30 685 H -4.68119 1.03926 1.17543 0
M  V30 686 H -1.95766 3.8283 -0.317111 0
M  V30 687 H -1.50159 4.08985 1.86959 0
M  V30 688 H 0.850896 4.34332 2.4054 0
M  V30 689 H 0.630061 4.87031 0.662295 0
M  V30 690 H 2.53819 3.40881 1.14631 0
M  V30 691 H 1.36929 2.0232 1.49096 0
M  V30 692 H 2.00648 3.42596 -1.04047 0
M  V30 693 H -0.0563346 4.20503 -1.43868 0
M  V30 694 H -0.308301 2.51301 -1.88966 0
M  V30 695 H 0.781287 1.03108 -1.67989 0
M  V30 696 H 1.15971 0.68606 0.00276748 0
M  V30 697 H 2.71444 -0.205209 -1.64155 0
M  V30 698 H 4.21313 0.0279666 -3.57347 0
M  V30 699 H 5.51077 1.14831 -3.11988 0
M  V30 700 H 4.49704 -1.28037 -1.69358 0
M  V30 701 H 6.18824 -0.681607 -1.91133 0
M  V30 702 H 5.73143 1.1435 -0.278354 0
M  V30 703 H 3.6984 1.36886 0.701521 0
M  V30 704 H 6.87588 -0.897663 0.185026 0
M  V30 705 H 6.07465 -0.139405 1.56883 0
M  V30 706 H 5.76091 -2.43533 1.83589 0
M  V30 707 H 3.34282 -2.364 2.01807 0
M  V30 708 H 2.26713 -0.192739 1.46064 0
M  V30 709 H 2.34669 -3.32491 0.533895 0
M  V30 710 H 0.551633 -1.23613 1.78598 0
M  V30 711 H 1.01788 -2.84022 2.40435 0
M  V30 712 H -0.694396 -3.89239 0.982186 0
M  V30 713 H -1.27565 -2.70016 2.16751 0
M  V30 714 H -1.39545 -0.995677 0.398739 0
M  V30 715 H -0.950348 -2.57393 -2.00434 0
M  V30 716 H -0.0407999 -1.18766 -1.39532 0
M  V30 717 H 1.42072 -2.97783 -1.7394 0
M  V30 718 H 0.504036 -4.10818 -0.661714 0
M  V30 719 H -2.76002 -3.66022 0.241426 0
M  V30 720 H -2.81691 -2.73807 -1.26322 0
M  V30 721 H -4.85391 4.05238 -2.82263 0
M  V30 722 H -5.54644 5.08358 -1.44773 0
M  V30 723 H -3.8266 4.69189 -1.53526 0
M  V30 724 H 6.72937 -3.85328 0.457165 0
M  V30 725 H 5.27499 -4.4392 1.3117 0
M  V30 726 H 5.54017 -4.81757 -0.480821 0
M  V30 727 H -5.19715 -1.05098 2.23176 0
M  V30 728 H -6.73445 -1.23884 1.26086 0
M  V30 729 H -6.18015 -2.51893 2.35022 0
M  V30 730 H 3.31069 1.67853 -4.2766 0
M  V30 731 H 1.89177 1.14888 -3.37625 0
M  V30 732 H 2.4109 2.84985 -3.31912 0
M  V30 733 H 5.4098 2.69331 -2.13536 0
M  V30 734 H 4.32862 2.99599 -0.77579 0
M  V30 735 H 3.95286 3.59137 -2.43331 0
M  V30 736 H 2.66752 -1.42357 3.93569 0
M  V30 737 H 4.16603 -2.36877 3.9875 0
M  V30 738 H 4.16102 -0.812048 4.83339 0
M  V30 739 H -4.12663 -3.85389 1.74087 0
M  V30 740 H -4.65391 -4.38365 0.0436055 0
M  V30 741 H -5.83324 -4.07107 1.32492 0
M  V30 742 H -1.22278 3.27737 3.94381 0
M  V30 743 H -2.53412 2.63336 2.94467 0
M  V30 744 H -1.58769 1.48788 3.91251 0
M  V30 745 H -7.14018 -2.00858 1.0155 0
M  V30 746 H -6.30559 -0.63197 1.75158 0
M  V30 747 H -6.83863 -1.38208 -1.15548 0
M  V30 748 H -6.83148 0.21228 -0.382621 0
M  V30 749 H -4.63135 -1.22389 -1.72535 0
M  V30 750 H -2.85942 -0.317944 -0.451107 0
M  V30 751 H -3.22982 -1.39505 1.81222 0
M  V30 752 H -5.75082 1.52696 -1.23939 0
M  V30 753 H -4.99878 0.797149 -2.75745 0
M  V30 754 H -2.8141 1.06232 -1.93835 0
M  V30 755 H -3.71128 3.00319 0.274183 0
M  V30 756 H -5.10562 1.24344 0.860341 0
M  V30 757 H -3.58486 0.850695 1.82834 0
M  V30 758 H -1.80166 3.52533 -0.797442 0
M  V30 759 H -1.09457 3.6073 2.14485 0
M  V30 760 H 0.37379 5.41939 1.89403 0
M  V30 761 H -0.0258452 5.68512 0.181967 0
M  V30 762 H 1.90487 4.4563 -0.328743 0
M  V30 763 H 2.24484 4.24896 1.39751 0
M  V30 764 H 0.534682 2.57059 1.5872 0
M  V30 765 H 0.33228 3.16073 -1.30265 0
M  V30 766 H -0.0201994 1.43933 -0.846449 0
M  V30 767 H 1.959 0.918239 1.45455 0
M  V30 768 H 3.01204 2.29825 1.36694 0
M  V30 769 H 2.06285 0.46336 -0.92363 0
M  V30 770 H 3.92821 0.0329155 -2.65045 0
M  V30 771 H 4.91308 1.4692 -2.95335 0
M  V30 772 H 6.53941 0.998195 -1.33062 0
M  V30 773 H 6.00775 -0.610735 -1.81662 0
M  V30 774 H 5.4723 1.05267 0.651956 0
M  V30 775 H 3.60819 -0.081754 1.38064 0
M  V30 776 H 7.02361 -0.943895 0.26188 0
M  V30 777 H 6.09003 -0.92389 1.76987 0
M  V30 778 H 6.03257 -3.08113 0.953233 0
M  V30 779 H 3.63037 -3.42838 0.834993 0
M  V30 780 H 3.59542 -1.78773 -1.12726 0
M  V30 781 H 2.16951 -3.50031 -0.592622 0
M  V30 782 H 0.657113 -2.51312 1.79684 0
M  V30 783 H 1.10335 -4.19469 1.41144 0
M  V30 784 H -0.967443 -4.43328 0.0555899 0
M  V30 785 H -1.24405 -3.85042 1.71479 0
M  V30 786 H -1.32936 -1.55572 1.03008 0
M  V30 787 H -1.5638 -2.13949 -1.94945 0
M  V30 788 H -0.552144 -0.886926 -1.05493 0
M  V30 789 H 0.814389 -2.2733 -2.29936 0
M  V30 790 H 0.0990527 -3.79382 -1.6468 0
M  V30 791 H -3.20876 -3.67446 0.431839 0
M  V30 792 H -3.24726 -2.56157 -0.964386 0
M  V30 793 H -1.80266 2.70875 -3.10391 0
M  V30 794 H -3.18946 1.96116 -4.06381 0
M  V30 795 H -3.01141 3.73001 -3.91668 0
M  V30 796 H 7.2925 -3.64857 -0.820942 0
M  V30 797 H 6.30702 -4.08912 -2.26058 0
M  V30 798 H 5.87569 -4.73064 -0.601294 0
M  V30 799 H -4.57728 -1.64711 3.14088 0
M  V30 800 H -6.14254 -2.49162 3.02313 0
M  V30 801 H -4.5583 -3.41187 2.83167 0
M  V30 802 H 3.31212 2.2364 -3.47257 0
M  V30 803 H 1.83549 1.61949 -2.60329 0
M  V30 804 H 2.4722 3.2708 -2.33168 0
M  V30 805 H 4.36282 3.09708 0.0823253 0
M  V30 806 H 5.48216 2.73249 -1.23458 0
M  V30 807 H 4.11318 3.80778 -1.50858 0
M  V30 808 H 2.61261 -2.99734 3.08633 0
M  V30 809 H 4.37742 -3.44827 3.34147 0
M  V30 810 H 3.68617 -1.99017 4.07017 0
M  V30 811 H -4.98917 -4.33812 1.16786 0
M  V30 812 H -5.01756 -3.52616 -0.497022 0
M  V30 813 H -6.46697 -3.61974 0.515326 0
M  V30 814 H -3.22219 3.95257 2.42277 0
M  V30 815 H -2.10249 5.18834 3.04743 0
M  V30 816 H -3.67298 5.65354 2.20259 0
M  V30 817 H -7.19425 -1.95275 1.06711 0
M  V30 818 H -6.31133 -0.555168 1.71427 0
M  V30 819 H -6.88683 -1.49834 -1.13521 0
M  V30 820 H -6.96457 0.139309 -0.420005 0
M  V30 821 H -4.75593 -1.13802 -1.84487 0
M  V30 822 H -2.92007 -0.494255 -0.640137 0
M  V30 823 H -3.34426 -1.40814 1.78633 0
M  V30 824 H -5.76486 1.62475 -1.08933 0
M  V30 825 H -5.27733 0.923064 -2.65661 0
M  V30 826 H -2.94017 0.939007 -2.08547 0
M  V30 827 H -3.47778 2.88023 0.178809 0
M  V30 828 H -4.83408 1.19771 0.98047 0
M  V30 829 H -3.25807 0.699405 1.68942 0
M  V30 830 H -1.90564 3.55622 -0.849934 0
M  V30 831 H -2.04734 4.49128 1.23127 0
M  V30 832 H 0.0345243 5.3848 1.99053 0
M  V30 833 H 0.175335 5.17825 0.155076 0
M  V30 834 H 2.1178 4.2719 1.54768 0
M  V30 835 H 0.988787 2.88974 2.00443 0
M  V30 836 H 2.04481 3.73299 -0.648478 0
M  V30 837 H 0.123461 3.5578 -1.77828 0
M  V30 838 H 0.141686 1.86169 -1.32775 0
M  V30 839 H 1.26362 0.945411 0.239628 0
M  V30 840 H 2.57028 1.69728 1.16623 0
M  V30 841 H 2.40314 0.957214 -1.7829 0
M  V30 842 H 5.87201 1.32252 -1.04301 0
M  V30 843 H 5.64307 2.18652 -2.57389 0
M  V30 844 H 3.97014 0.572614 -3.3421 0
M  V30 845 H 5.65794 -0.120094 -3.10838 0
M  V30 846 H 3.34846 -1.27813 -2.0272 0
M  V30 847 H 4.61849 0.342696 0.232538 0
M  V30 848 H 5.71483 -2.30673 -1.91931 0
M  V30 849 H 6.15455 -1.0006 -0.805728 0
M  V30 850 H 4.42891 -3.46077 -0.471981 0
M  V30 851 H 3.4004 -2.70203 1.54432 0
M  V30 852 H 2.46913 -0.369919 1.26102 0
M  V30 853 H 2.11778 -3.46618 0.158726 0
M  V30 854 H 0.574837 -1.51588 1.72558 0
M  V30 855 H 1.10569 -3.19403 2.17011 0
M  V30 856 H -0.781283 -4.10802 0.850867 0
M  V30 857 H -1.22631 -3.10617 2.24495 0
M  V30 858 H -1.52196 -1.17159 0.678312 0
M  V30 859 H -1.5104 -2.6545 -1.79602 0
M  V30 860 H -0.522405 -1.21846 -1.35107 0
M  V30 861 H 0.926238 -2.92723 -1.96738 0
M  V30 862 H 0.192556 -4.17022 -0.940081 0
M  V30 863 H -3.08835 -3.72549 0.686652 0
M  V30 864 H -3.2329 -2.78425 -0.888605 0
M  V30 865 H -1.8342 2.55826 -3.22555 0
M  V30 866 H -3.30934 2.01162 -4.17549 0
M  V30 867 H -2.97148 3.73723 -3.91827 0
M  V30 868 H 7.10806 -4.49204 1.2266 0
M  V30 869 H 5.35571 -4.78951 1.16027 0
M  V30 870 H 6.29404 -4.62926 -0.410481 0
M  V30 871 H -4.819 -1.77499 3.1458 0
M  V30 872 H -6.2415 -2.79304 2.83131 0
M  V30 873 H -4.62368 -3.55579 2.72067 0
M  V30 874 H 3.99792 2.65762 -3.47804 0
M  V30 875 H 2.38583 2.65386 -2.75797 0
M  V30 876 H 3.58398 4.03925 -2.45787 0
M  V30 877 H 3.97031 3.0698 0.608572 0
M  V30 878 H 4.39026 4.18112 -0.815354 0
M  V30 879 H 5.55613 3.02965 -0.16159 0
M  V30 880 H 3.52287 -1.68722 3.56186 0
M  V30 881 H 4.96387 -2.75806 3.25083 0
M  V30 882 H 5.18286 -1.07545 3.83568 0
M  V30 883 H -5.05151 -4.35824 0.900772 0
M  V30 884 H -5.17974 -3.41222 -0.680496 0
M  V30 885 H -6.57356 -3.60138 0.396213 0
M  V30 886 H -2.13126 4.24384 3.45977 0
M  V30 887 H -3.10978 2.97939 2.54465 0
M  V30 888 H -2.10293 2.543 3.94412 0
M  V30 889 H -7.18892 -2.00475 1.42882 0
M  V30 890 H -6.28906 -0.556087 1.93653 0
M  V30 891 H -7.03045 -1.63762 -0.814808 0
M  V30 892 H -7.16971 0.0207056 -0.180726 0
M  V30 893 H -4.97798 -1.2408 -1.69112 0
M  V30 894 H -3.14148 -0.41239 -0.62582 0
M  V30 895 H -3.29575 -1.25112 1.82201 0
M  V30 896 H -6.07632 1.53819 -1.03304 0
M  V30 897 H -5.60228 0.735353 -2.59594 0
M  V30 898 H -3.2748 0.934183 -2.14805 0
M  V30 899 H -3.66289 2.94793 0.108762 0
M  V30 900 H -5.17082 1.2679 0.848871 0
M  V30 901 H -3.5819 0.843868 1.67974 0
M  V30 902 H -1.7649 3.41575 -0.892124 0
M  V30 903 H -0.198026 2.64381 1.62293 0
M  V30 904 H -0.0952296 5.19152 1.52537 0
M  V30 905 H -0.790947 5.03337 -0.149051 0
M  V30 906 H 1.5464 5.02233 -0.396272 0
M  V30 907 H 1.80896 4.07508 1.07296 0
M  V30 908 H 1.82115 3.12381 -1.57412 0
M  V30 909 H -0.204312 2.34132 -2.1515 0
M  V30 910 H 0.164638 1.1286 -0.914743 0
M  V30 911 H 1.52929 1.10224 0.406836 0
M  V30 912 H 2.57458 2.3215 1.06924 0
M  V30 913 H 2.76871 1.10249 -1.7537 0
M  V30 914 H 5.89417 1.61007 0.124399 0
M  V30 915 H 6.33488 2.61979 -1.30693 0
M  V30 916 H 5.70625 0.703546 -2.81235 0
M  V30 917 H 6.97388 0.307656 -1.64332 0
M  V30 918 H 4.63092 -1.08988 -1.97471 0
M  V30 919 H 4.37657 0.364241 0.681502 0
M  V30 920 H 6.64562 -1.78151 -0.945083 0
M  V30 921 H 6.37497 -0.769761 0.512524 0
M  V30 922 H 5.70233 -2.90931 1.14184 0
M  V30 923 H 3.19331 -2.72411 1.38674 0
M  V30 924 H 3.11099 -1.79849 -1.05735 0
M  V30 925 H 2.14421 -3.15816 -0.272088 0
M  V30 926 H 0.632108 -2.24985 2.04643 0
M  V30 927 H 1.12559 -3.91427 1.6022 0
M  V30 928 H -0.878987 -4.25235 0.318463 0
M  V30 929 H -1.27979 -3.55548 1.96434 0
M  V30 930 H -1.47202 -1.30822 0.887487 0
M  V30 931 H -1.60031 -2.57259 -1.86368 0
M  V30 932 H -0.929748 -0.939076 -1.34463 0
M  V30 933 H 0.875223 -2.06168 -2.09163 0
M  V30 934 H 0.340164 -3.64143 -1.50921 0
M  V30 935 H -3.20853 -3.64405 0.685327 0
M  V30 936 H -3.33615 -2.62833 -0.812586 0
M  V30 937 H -2.27659 2.64759 -3.31758 0
M  V30 938 H -3.73335 2.03133 -4.21093 0
M  V30 939 H -3.50131 3.76487 -3.94083 0
M  V30 940 H 6.52421 -4.52446 -0.114151 0
M  V30 941 H 5.15887 -5.52575 -0.845135 0
M  V30 942 H 5.06951 -4.90978 0.8319 0
M  V30 943 H -4.58551 -1.54059 3.29 0
M  V30 944 H -6.04263 -2.54937 3.25407 0
M  V30 945 H -4.46741 -3.35891 3.0044 0
M  V30 946 H 5.24963 2.67671 -3.03018 0
M  V30 947 H 3.61011 1.97258 -3.12142 0
M  V30 948 H 3.85358 3.70504 -2.69973 0
M  V30 949 H 4.10153 3.55444 0.630427 0
M  V30 950 H 3.76513 4.37044 -1.0124 0
M  V30 951 H 5.36612 4.02582 -0.463775 0
M  V30 952 H 2.58553 -1.45817 3.18047 0
M  V30 953 H 4.01347 -2.49125 3.34417 0
M  V30 954 H 4.13133 -0.837092 3.9618 0
M  V30 955 H -5.00995 -4.30267 1.41021 0
M  V30 956 H -5.07384 -3.55573 -0.281976 0
M  V30 957 H -6.51541 -3.63609 0.751019 0
M  V30 958 H -2.0747 2.01302 3.13021 0
M  V30 959 H -1.44161 3.65588 3.6881 0
M  V30 960 H -3.1662 3.38534 3.38658 0
M  V30 END ATOM
M  V30 BEGIN BOND
M  V30 1 1 1 2
M  V30 2 1 2 3
M  V30 3 1 3 4
M  V30 4 1 4 5
M  V30 5 1 1 6
M  V30 6 1 5 6
M  V30 7 1 4 7
M  V30 8 1 7 8
M  V30 9 1 8 9
M  V30 10 1 5 10
M  V30 11 1 9 10
M  V30 12 1 9 11
M  V30 13 1 11 12
M  V30 14 1 12 13
M  V30 15 1 13 14
M  V30 16 1 14 15
M  V30 17 1 15 16
M  V30 18 1 12 17
M  V30 19 1 16 17
M  V30 20 1 16 18
M  V30 21 1 18 19
M  V30 22 1 19 20
M  V30 23 1 20 21
M  V30 24 1 21 22
M  V30 25 1 22 23
M  V30 26 1 19 24
M  V30 27 1 23 24
M  V30 28 1 23 25
M  V30 29 1 25 26
M  V30 30 1 26 27
M  V30 31 1 24 28
M  V30 32 1 27 28
M  V30 33 1 28 29
M  V30 34 1 29 30
M  V30 35 1 30 31
M  V30 36 1 31 32
M  V30 37 1 32 33
M  V30 38 1 33 34
M  V30 39 1 30 35
M  V30 40 1 34 35
M  V30 41 1 6 36
M  V30 42 1 33 36
M  V30 43 1 8 37
M  V30 44 1 37 38
M  V30 45 1 13 39
M  V30 46 1 26 40
M  V30 47 1 40 41
M  V30 48 1 27 42
M  V30 49 1 1 43
M  V30 50 1 20 44
M  V30 51 1 20 45
M  V30 52 1 42 46
M  V30 53 1 1 47
M  V30 54 1 39 48
M  V30 55 1 49 50
M  V30 56 1 50 51
M  V30 57 1 51 52
M  V30 58 1 52 53
M  V30 59 1 49 54
M  V30 60 1 53 54
M  V30 61 1 52 55
M  V30 62 1 55 56
M  V30 63 1 56 57
M  V30 64 1 53 58
M  V30 65 1 57 58
M  V30 66 1 57 59
M  V30 67 1 59 60
M  V30 68 1 60 61
M  V30 69 1 61 62
M  V30 70 1 62 63
M  V30 71 1 63 64
M  V30 72 1 60 65
M  V30 73 1 64 65
M  V30 74 1 64 66
M  V30 75 1 66 67
M  V30 76 1 67 68
M  V30 77 1 68 69
M  V30 78 1 69 70
M  V30 79 1 70 71
M  V30 80 1 67 72
M  V30 81 1 71 72
M  V30 82 1 71 73
M  V30 83 1 73 74
M  V30 84 1 74 75
M  V30 85 1 72 76
M  V30 86 1 75 76
M  V30 87 1 76 77
M  V30 88 1 77 78
M  V30 89 1 78 79
M  V30 90 1 79 80
M  V30 91 1 80 81
M  V30 92 1 81 82
M  V30 93 1 78 83
M  V30 94 1 82 83
M  V30 95 1 54 84
M  V30 96 1 81 84
M  V30 97 1 56 85
M  V30 98 1 85 86
M  V30 99 1 61 87
M  V30 100 1 74 88
M  V30 101 1 88 89
M  V30 102 1 75 90
M  V30 103 1 49 91
M  V30 104 1 68 92
M  V30 105 1 68 93
M  V30 106 1 90 94
M  V30 107 1 49 95
M  V30 108 1 87 96
M  V30 109 1 97 98
M  V30 110 1 98 99
M  V30 111 1 99 100
M  V30 112 1 100 101
M  V30 113 1 97 102
M  V30 114 1 101 102
M  V30 115 1 100 103
M  V30 116 1 103 104
M  V30 117 1 104 105
M  V30 118 1 101 106
M  V30 119 1 105 106
M  V30 120 1 105 107
M  V30 121 1 107 108
M  V30 122 1 108 109
M  V30 123 1 109 110
M  V30 124 1 110 111
M  V30 125 1 111 112
M  V30 126 1 108 113
M  V30 127 1 112 113
M  V30 128 1 112 114
M  V30 129 1 114 115
M  V30 130 1 115 116
M  V30 131 1 116 117
M  V30 132 1 117 118
M  V30 133 1 118 119
M  V30 134 1 115 120
M  V30 135 1 119 120
M  V30 136 1 119 121
M  V30 137 1 121 122
M  V30 138 1 122 123
M  V30 139 1 120 124
M  V30 140 1 123 124
M  V30 141 1 124 125
M  V30 142 1 125 126
M  V30 143 1 126 127
M  V30 144 1 127 128
M  V30 145 1 128 129
M  V30 146 1 129 130
M  V30 147 1 126 131
M  V30 148 1 130 131
M  V30 149 1 102 132
M  V30 150 1 129 132
M  V30 151 1 104 133
M  V30 152 1 133 134
M  V30 153 1 109 135
M  V30 154 1 122 136
M  V30 155 1 136 137
M  V30 156 1 123 138
M  V30 157 1 97 139
M  V30 158 1 116 140
M  V30 159 1 116 141
M  V30 160 1 138 142
M  V30 161 1 97 143
M  V30 162 1 135 144
M  V30 163 1 145 146
M  V30 164 1 146 147
M  V30 165 1 147 148
M  V30 166 1 148 149
M  V30 167 1 145 150
M  V30 168 1 149 150
M  V30 169 1 148 151
M  V30 170 1 151 152
M  V30 171 1 152 153
M  V30 172 1 149 154
M  V30 173 1 153 154
M  V30 174 1 153 155
M  V30 175 1 155 156
M  V30 176 1 156 157
M  V30 177 1 157 158
M  V30 178 1 158 159
M  V30 179 1 159 160
M  V30 180 1 156 161
M  V30 181 1 160 161
M  V30 182 1 160 162
M  V30 183 1 162 163
M  V30 184 1 163 164
M  V30 185 1 164 165
M  V30 186 1 165 166
M  V30 187 1 166 167
M  V30 188 1 163 168
M  V30 189 1 167 168
M  V30 190 1 167 169
M  V30 191 1 169 170
M  V30 192 1 170 171
M  V30 193 1 168 172
M  V30 194 1 171 172
M  V30 195 1 172 173
M  V30 196 1 173 174
M  V30 197 1 174 175
M  V30 198 1 175 176
M  V30 199 1 176 177
M  V30 200 1 177 178
M  V30 201 1 174 179
M  V30 202 1 178 179
M  V30 203 1 150 180
M  V30 204 1 177 180
M  V30 205 1 152 181
M  V30 206 1 181 182
M  V30 207 1 157 183
M  V30 208 1 170 184
M  V30 209 1 184 185
M  V30 210 1 171 186
M  V30 211 1 145 187
M  V30 212 1 164 188
M  V30 213 1 164 189
M  V30 214 1 186 190
M  V30 215 1 145 191
M  V30 216 1 183 192
M  V30 217 1 193 194
M  V30 218 1 194 195
M  V30 219 1 195 196
M  V30 220 1 196 197
M  V30 221 1 193 198
M  V30 222 1 197 198
M  V30 223 1 196 199
M  V30 224 1 199 200
M  V30 225 1 200 201
M  V30 226 1 197 202
M  V30 227 1 201 202
M  V30 228 1 201 203
M  V30 229 1 203 204
M  V30 230 1 204 205
M  V30 231 1 205 206
M  V30 232 1 206 207
M  V30 233 1 207 208
M  V30 234 1 204 209
M  V30 235 1 208 209
M  V30 236 1 208 210
M  V30 237 1 210 211
M  V30 238 1 211 212
M  V30 239 1 212 213
M  V30 240 1 213 214
M  V30 241 1 214 215
M  V30 242 1 211 216
M  V30 243 1 215 216
M  V30 244 1 215 217
M  V30 245 1 217 218
M  V30 246 1 218 219
M  V30 247 1 216 220
M  V30 248 1 219 220
M  V30 249 1 220 221
M  V30 250 1 221 222
M  V30 251 1 222 223
M  V30 252 1 223 224
M  V30 253 1 224 225
M  V30 254 1 225 226
M  V30 255 1 222 227
M  V30 256 1 226 227
M  V30 257 1 198 228
M  V30 258 1 225 228
M  V30 259 1 200 229
M  V30 260 1 229 230
M  V30 261 1 205 231
M  V30 262 1 218 232
M  V30 263 1 232 233
M  V30 264 1 219 234
M  V30 265 1 193 235
M  V30 266 1 212 236
M  V30 267 1 212 237
M  V30 268 1 234 238
M  V30 269 1 193 239
M  V30 270 1 231 240
M  V30 271 1 241 242
M  V30 272 1 242 243
M  V30 273 1 243 244
M  V30 274 1 244 245
M  V30 275 1 241 246
M  V30 276 1 245 246
M  V30 277 1 244 247
M  V30 278 1 247 248
M  V30 279 1 248 249
M  V30 280 1 245 250
M  V30 281 1 249 250
M  V30 282 1 249 251
M  V30 283 1 251 252
M  V30 284 1 252 253
M  V30 285 1 253 254
M  V30 286 1 254 255
M  V30 287 1 255 256
M  V30 288 1 252 257
M  V30 289 1 256 257
M  V30 290 1 256 258
M  V30 291 1 258 259
M  V30 292 1 259 260
M  V30 293 1 260 261
M  V30 294 1 261 262
M  V30 295 1 262 263
M  V30 296 1 259 264
M  V30 297 1 263 264
M  V30 298 1 263 265
M  V30 299 1 265 266
M  V30 300 1 266 267
M  V30 301 1 264 268
M  V30 302 1 267 268
M  V30 303 1 268 269
M  V30 304 1 269 270
M  V30 305 1 270 271
M  V30 306 1 271 272
M  V30 307 1 272 273
M  V30 308 1 273 274
M  V30 309 1 270 275
M  V30 310 1 274 275
M  V30 311 1 246 276
M  V30 312 1 273 276
M  V30 313 1 248 277
M  V30 314 1 277 278
M  V30 315 1 253 279
M  V30 316 1 266 280
M  V30 317 1 280 281
M  V30 318 1 267 282
M  V30 319 1 241 283
M  V30 320 1 260 284
M  V30 321 1 260 285
M  V30 322 1 282 286
M  V30 323 1 241 287
M  V30 324 1 279 288
M  V30 325 1 289 290
M  V30 326 1 290 291
M  V30 327 1 291 292
M  V30 328 1 292 293
M  V30 329 1 289 294
M  V30 330 1 293 294
M  V30 331 1 292 295
M  V30 332 1 295 296
M  V30 333 1 296 297
M  V30 334 1 293 298
M  V30 335 1 297 298
M  V30 336 1 297 299
M  V30 337 1 299 300
M  V30 338 1 300 301
M  V30 339 1 301 302
M  V30 340 1 302 303
M  V30 341 1 303 304
M  V30 342 1 300 305
M  V30 343 1 304 305
M  V30 344 1 304 306
M  V30 345 1 306 307
M  V30 346 1 307 308
M  V30 347 1 308 309
M  V30 348 1 309 310
M  V30 349 1 310 311
M  V30 350 1 307 312
M  V30 351 1 311 312
M  V30 352 1 311 313
M  V30 353 1 313 314
M  V30 354 1 314 315
M  V30 355 1 312 316
M  V30 356 1 315 316
M  V30 357 1 316 317
M  V30 358 1 317 318
M  V30 359 1 318 319
M  V30 360 1 319 320
M  V30 361 1 320 321
M  V30 362 1 321 322
M  V30 363 1 318 323
M  V30 364 1 322 323
M  V30 365 1 294 324
M  V30 366 1 321 324
M  V30 367 1 296 325
M  V30 368 1 325 326
M  V30 369 1 301 327
M  V30 370 1 314 328
M  V30 371 1 328 329
M  V30 372 1 315 330
M  V30 373 1 289 331
M  V30 374 1 308 332
M  V30 375 1 308 333
M  V30 376 1 330 334
M  V30 377 1 289 335
M  V30 378 1 327 336
M  V30 379 1 337 338
M  V30 380 1 338 339
M  V30 381 1 339 340
M  V30 382 1 340 341
M  V30 383 1 337 342
M  V30 384 1 341 342
M  V30 385 1 340 343
M  V30 386 1 343 344
M  V30 387 1 344 345
M  V30 388 1 341 346
M  V30 389 1 345 346
M  V30 390 1 345 347
M  V30 391 1 347 348
M  V30 392 1 348 349
M  V30 393 1 349 350
M  V30 394 1 350 351
M  V30 395 1 351 352
M  V30 396 1 348 353
M  V30 397 1 352 353
M  V30 398 1 352 354
M  V30 399 1 354 355
M  V30 400 1 355 356
M  V30 401 1 356 357
M  V30 402 1 357 358
M  V30 403 1 358 359
M  V30 404 1 355 360
M  V30 405 1 359 360
M  V30 406 1 359 361
M  V30 407 1 361 362
M  V30 408 1 362 363
M  V30 409 1 360 364
M  V30 410 1 363 364
M  V30 411 1 364 365
M  V30 412 1 365 366
M  V30 413 1 366 367
M  V30 414 1 367 368
M  V30 415 1 368 369
M  V30 416 1 369 370
M  V30 417 1 366 371
M  V30 418 1 370 371
M  V30 419 1 342 372
M  V30 420 1 369 372
M  V30 421 1 344 373
M  V30 422 1 373 374
M  V30 423 1 349 375
M  V30 424 1 362 376
M  V30 425 1 376 377
M  V30 426 1 363 378
M  V30 427 1 337 379
M  V30 428 1 356 380
M  V30 429 1 356 381
M  V30 430 1 378 382
M  V30 431 1 337 383
M  V30 432 1 375 384
M  V30 433 1 2 385
M  V30 434 1 2 386
M  V30 435 1 3 387
M  V30 436 1 3 388
M  V30 437 1 4 389
M  V30 438 1 5 390
M  V30 439 1 6 391 CFG=1
M  V30 440 1 7 392
M  V30 441 1 7 393
M  V30 442 1 8 394
M  V30 443 1 9 395
M  V30 444 1 10 396
M  V30 445 1 10 397
M  V30 446 1 12 398
M  V30 447 1 13 399
M  V30 448 1 14 400
M  V30 449 1 14 401
M  V30 450 1 15 402
M  V30 451 1 15 403
M  V30 452 1 16 404
M  V30 453 1 17 405
M  V30 454 1 17 406
M  V30 455 1 18 407
M  V30 456 1 18 408
M  V30 457 1 19 409 CFG=3
M  V30 458 1 21 410
M  V30 459 1 21 411
M  V30 460 1 22 412
M  V30 461 1 22 413
M  V30 462 1 23 414 CFG=1
M  V30 463 1 24 415
M  V30 464 1 25 416
M  V30 465 1 25 417
M  V30 466 1 26 418
M  V30 467 1 27 419
M  V30 468 1 28 420
M  V30 469 1 30 421
M  V30 470 1 31 422
M  V30 471 1 31 423
M  V30 472 1 32 424
M  V30 473 1 32 425
M  V30 474 1 33 426
M  V30 475 1 34 427
M  V30 476 1 34 428
M  V30 477 1 35 429
M  V30 478 1 35 430
M  V30 479 1 36 431
M  V30 480 1 36 432
M  V30 481 1 38 433
M  V30 482 1 38 434
M  V30 483 1 38 435
M  V30 484 1 41 436
M  V30 485 1 41 437
M  V30 486 1 41 438
M  V30 487 1 43 439
M  V30 488 1 43 440
M  V30 489 1 43 441
M  V30 490 1 44 442
M  V30 491 1 44 443
M  V30 492 1 44 444
M  V30 493 1 45 445
M  V30 494 1 45 446
M  V30 495 1 45 447
M  V30 496 1 46 448
M  V30 497 1 46 449
M  V30 498 1 46 450
M  V30 499 1 47 451
M  V30 500 1 47 452
M  V30 501 1 47 453
M  V30 502 1 48 454
M  V30 503 1 48 455
M  V30 504 1 48 456
M  V30 505 1 50 457
M  V30 506 1 50 458
M  V30 507 1 51 459
M  V30 508 1 51 460
M  V30 509 1 52 461 CFG=1
M  V30 510 1 53 462 CFG=1
M  V30 511 1 54 463 CFG=1
M  V30 512 1 55 464
M  V30 513 1 55 465
M  V30 514 1 56 466 CFG=1
M  V30 515 1 57 467
M  V30 516 1 58 468
M  V30 517 1 58 469
M  V30 518 1 60 470
M  V30 519 1 61 471
M  V30 520 1 62 472
M  V30 521 1 62 473
M  V30 522 1 63 474
M  V30 523 1 63 475
M  V30 524 1 64 476 CFG=3
M  V30 525 1 65 477
M  V30 526 1 65 478
M  V30 527 1 66 479
M  V30 528 1 66 480
M  V30 529 1 67 481 CFG=3
M  V30 530 1 69 482
M  V30 531 1 69 483
M  V30 532 1 70 484
M  V30 533 1 70 485
M  V30 534 1 71 486 CFG=3
M  V30 535 1 72 487 CFG=1
M  V30 536 1 73 488
M  V30 537 1 73 489
M  V30 538 1 74 490 CFG=1
M  V30 539 1 75 491
M  V30 540 1 76 492 CFG=1
M  V30 541 1 78 493
M  V30 542 1 79 494
M  V30 543 1 79 495
M  V30 544 1 80 496
M  V30 545 1 80 497
M  V30 546 1 81 498
M  V30 547 1 82 499
M  V30 548 1 82 500
M  V30 549 1 83 501
M  V30 550 1 83 502
M  V30 551 1 84 503
M  V30 552 1 84 504
M  V30 553 1 86 505
M  V30 554 1 86 506
M  V30 555 1 86 507
M  V30 556 1 89 508
M  V30 557 1 89 509
M  V30 558 1 89 510
M  V30 559 1 91 511
M  V30 560 1 91 512
M  V30 561 1 91 513
M  V30 562 1 92 514
M  V30 563 1 92 515
M  V30 564 1 92 516
M  V30 565 1 93 517
M  V30 566 1 93 518
M  V30 567 1 93 519
M  V30 568 1 94 520
M  V30 569 1 94 521
M  V30 570 1 94 522
M  V30 571 1 95 523
M  V30 572 1 95 524
M  V30 573 1 95 525
M  V30 574 1 96 526
M  V30 575 1 96 527
M  V30 576 1 96 528
M  V30 577 1 98 529
M  V30 578 1 98 530
M  V30 579 1 99 531
M  V30 580 1 99 532
M  V30 581 1 100 533
M  V30 582 1 101 534
M  V30 583 1 102 535 CFG=1
M  V30 584 1 103 536
M  V30 585 1 103 537
M  V30 586 1 104 538
M  V30 587 1 105 539
M  V30 588 1 106 540
M  V30 589 1 106 541
M  V30 590 1 108 542
M  V30 591 1 109 543
M  V30 592 1 110 544
M  V30 593 1 110 545
M  V30 594 1 111 546
M  V30 595 1 111 547
M  V30 596 1 112 548
M  V30 597 1 113 549
M  V30 598 1 113 550
M  V30 599 1 114 551
M  V30 600 1 114 552
M  V30 601 1 115 553 CFG=3
M  V30 602 1 117 554
M  V30 603 1 117 555
M  V30 604 1 118 556
M  V30 605 1 118 557
M  V30 606 1 119 558
M  V30 607 1 120 559 CFG=3
M  V30 608 1 121 560
M  V30 609 1 121 561
M  V30 610 1 122 562
M  V30 611 1 123 563
M  V30 612 1 124 564 CFG=1
M  V30 613 1 126 565
M  V30 614 1 127 566
M  V30 615 1 127 567
M  V30 616 1 128 568
M  V30 617 1 128 569
M  V30 618 1 129 570
M  V30 619 1 130 571
M  V30 620 1 130 572
M  V30 621 1 131 573
M  V30 622 1 131 574
M  V30 623 1 132 575
M  V30 624 1 132 576
M  V30 625 1 134 577
M  V30 626 1 134 578
M  V30 627 1 134 579
M  V30 628 1 137 580
M  V30 629 1 137 581
M  V30 630 1 137 582
M  V30 631 1 139 583
M  V30 632 1 139 584
M  V30 633 1 139 585
M  V30 634 1 140 586
M  V30 635 1 140 587
M  V30 636 1 140 588
M  V30 637 1 141 589
M  V30 638 1 141 590
M  V30 639 1 141 591
M  V30 640 1 142 592
M  V30 641 1 142 593
M  V30 642 1 142 594
M  V30 643 1 143 595
M  V30 644 1 143 596
M  V30 645 1 143 597
M  V30 646 1 144 598
M  V30 647 1 144 599
M  V30 648 1 144 600
M  V30 649 1 146 601
M  V30 650 1 146 602
M  V30 651 1 147 603
M  V30 652 1 147 604
M  V30 653 1 148 605
M  V30 654 1 149 606
M  V30 655 1 150 607 CFG=1
M  V30 656 1 151 608
M  V30 657 1 151 609
M  V30 658 1 152 610
M  V30 659 1 153 611
M  V30 660 1 154 612
M  V30 661 1 154 613
M  V30 662 1 156 614 CFG=3
M  V30 663 1 157 615 CFG=1
M  V30 664 1 158 616
M  V30 665 1 158 617
M  V30 666 1 159 618
M  V30 667 1 159 619
M  V30 668 1 160 620
M  V30 669 1 161 621
M  V30 670 1 161 622
M  V30 671 1 162 623
M  V30 672 1 162 624
M  V30 673 1 163 625 CFG=3
M  V30 674 1 165 626
M  V30 675 1 165 627
M  V30 676 1 166 628
M  V30 677 1 166 629
M  V30 678 1 167 630
M  V30 679 1 168 631
M  V30 680 1 169 632
M  V30 681 1 169 633
M  V30 682 1 170 634
M  V30 683 1 171 635
M  V30 684 1 172 636
M  V30 685 1 174 637
M  V30 686 1 175 638
M  V30 687 1 175 639
M  V30 688 1 176 640
M  V30 689 1 176 641
M  V30 690 1 177 642
M  V30 691 1 178 643
M  V30 692 1 178 644
M  V30 693 1 179 645
M  V30 694 1 179 646
M  V30 695 1 180 647
M  V30 696 1 180 648
M  V30 697 1 182 649
M  V30 698 1 182 650
M  V30 699 1 182 651
M  V30 700 1 185 652
M  V30 701 1 185 653
M  V30 702 1 185 654
M  V30 703 1 187 655
M  V30 704 1 187 656
M  V30 705 1 187 657
M  V30 706 1 188 658
M  V30 707 1 188 659
M  V30 708 1 188 660
M  V30 709 1 189 661
M  V30 710 1 189 662
M  V30 711 1 189 663
M  V30 712 1 190 664
M  V30 713 1 190 665
M  V30 714 1 190 666
M  V30 715 1 191 667
M  V30 716 1 191 668
M  V30 717 1 191 669
M  V30 718 1 192 670
M  V30 719 1 192 671
M  V30 720 1 192 672
M  V30 721 1 194 673
M  V30 722 1 194 674
M  V30 723 1 195 675
M  V30 724 1 195 676
M  V30 725 1 196 677 CFG=1
M  V30 726 1 197 678
M  V30 727 1 198 679 CFG=1
M  V30 728 1 199 680
M  V30 729 1 199 681
M  V30 730 1 200 682
M  V30 731 1 201 683
M  V30 732 1 202 684
M  V30 733 1 202 685
M  V30 734 1 204 686 CFG=3
M  V30 735 1 205 687
M  V30 736 1 206 688
M  V30 737 1 206 689
M  V30 738 1 207 690
M  V30 739 1 207 691
M  V30 740 1 208 692 CFG=3
M  V30 741 1 209 693
M  V30 742 1 209 694
M  V30 743 1 210 695
M  V30 744 1 210 696
M  V30 745 1 211 697 CFG=3
M  V30 746 1 213 698
M  V30 747 1 213 699
M  V30 748 1 214 700
M  V30 749 1 214 701
M  V30 750 1 215 702 CFG=3
M  V30 751 1 216 703
M  V30 752 1 217 704
M  V30 753 1 217 705
M  V30 754 1 218 706 CFG=1
M  V30 755 1 219 707
M  V30 756 1 220 708 CFG=1
M  V30 757 1 222 709
M  V30 758 1 223 710
M  V30 759 1 223 711
M  V30 760 1 224 712
M  V30 761 1 224 713
M  V30 762 1 225 714
M  V30 763 1 226 715
M  V30 764 1 226 716
M  V30 765 1 227 717
M  V30 766 1 227 718
M  V30 767 1 228 719
M  V30 768 1 228 720
M  V30 769 1 230 721
M  V30 770 1 230 722
M  V30 771 1 230 723
M  V30 772 1 233 724
M  V30 773 1 233 725
M  V30 774 1 233 726
M  V30 775 1 235 727
M  V30 776 1 235 728
M  V30 777 1 235 729
M  V30 778 1 236 730
M  V30 779 1 236 731
M  V30 780 1 236 732
M  V30 781 1 237 733
M  V30 782 1 237 734
M  V30 783 1 237 735
M  V30 784 1 238 736
M  V30 785 1 238 737
M  V30 786 1 238 738
M  V30 787 1 239 739
M  V30 788 1 239 740
M  V30 789 1 239 741
M  V30 790 1 240 742
M  V30 791 1 240 743
M  V30 792 1 240 744
M  V30 793 1 242 745
M  V30 794 1 242 746
M  V30 795 1 243 747
M  V30 796 1 243 748
M  V30 797 1 244 749 CFG=3
M  V30 798 1 245 750
M  V30 799 1 246 751 CFG=1
M  V30 800 1 247 752
M  V30 801 1 247 753
M  V30 802 1 248 754
M  V30 803 1 249 755
M  V30 804 1 250 756
M  V30 805 1 250 757
M  V30 806 1 252 758
M  V30 807 1 253 759 CFG=1
M  V30 808 1 254 760
M  V30 809 1 254 761
M  V30 810 1 255 762
M  V30 811 1 255 763
M  V30 812 1 256 764 CFG=1
M  V30 813 1 257 765
M  V30 814 1 257 766
M  V30 815 1 258 767
M  V30 816 1 258 768
M  V30 817 1 259 769 CFG=3
M  V30 818 1 261 770
M  V30 819 1 261 771
M  V30 820 1 262 772
M  V30 821 1 262 773
M  V30 822 1 263 774 CFG=1
M  V30 823 1 264 775
M  V30 824 1 265 776
M  V30 825 1 265 777
M  V30 826 1 266 778
M  V30 827 1 267 779
M  V30 828 1 268 780
M  V30 829 1 270 781
M  V30 830 1 271 782
M  V30 831 1 271 783
M  V30 832 1 272 784
M  V30 833 1 272 785
M  V30 834 1 273 786
M  V30 835 1 274 787
M  V30 836 1 274 788
M  V30 837 1 275 789
M  V30 838 1 275 790
M  V30 839 1 276 791
M  V30 840 1 276 792
M  V30 841 1 278 793
M  V30 842 1 278 794
M  V30 843 1 278 795
M  V30 844 1 281 796
M  V30 845 1 281 797
M  V30 846 1 281 798
M  V30 847 1 283 799
M  V30 848 1 283 800
M  V30 849 1 283 801
M  V30 850 1 284 802
M  V30 851 1 284 803
M  V30 852 1 284 804
M  V30 853 1 285 805
M  V30 854 1 285 806
M  V30 855 1 285 807
M  V30 856 1 286 808
M  V30 857 1 286 809
M  V30 858 1 286 810
M  V30 859 1 287 811
M  V30 860 1 287 812
M  V30 861 1 287 813
M  V30 862 1 288 814
M  V30 863 1 288 815
M  V30 864 1 288 816
M  V30 865 1 290 817
M  V30 866 1 290 818
M  V30 867 1 291 819
M  V30 868 1 291 820
M  V30 869 1 292 821
M  V30 870 1 293 822
M  V30 871 1 294 823 CFG=1
M  V30 872 1 295 824
M  V30 873 1 295 825
M  V30 874 1 296 826
M  V30 875 1 297 827
M  V30 876 1 298 828
M  V30 877 1 298 829
M  V30 878 1 300 830 CFG=3
M  V30 879 1 301 831
M  V30 880 1 302 832
M  V30 881 1 302 833
M  V30 882 1 303 834
M  V30 883 1 303 835
M  V30 884 1 304 836 CFG=3
M  V30 885 1 305 837
M  V30 886 1 305 838
M  V30 887 1 306 839
M  V30 888 1 306 840
M  V30 889 1 307 841 CFG=3
M  V30 890 1 309 842
M  V30 891 1 309 843
M  V30 892 1 310 844
M  V30 893 1 310 845
M  V30 894 1 311 846
M  V30 895 1 312 847
M  V30 896 1 313 848
M  V30 897 1 313 849
M  V30 898 1 314 850
M  V30 899 1 315 851 CFG=1
M  V30 900 1 316 852 CFG=1
M  V30 901 1 318 853
M  V30 902 1 319 854
M  V30 903 1 319 855
M  V30 904 1 320 856
M  V30 905 1 320 857
M  V30 906 1 321 858
M  V30 907 1 322 859
M  V30 908 1 322 860
M  V30 909 1 323 861
M  V30 910 1 323 862
M  V30 911 1 324 863
M  V30 912 1 324 864
M  V30 913 1 326 865
M  V30 914 1 326 866
M  V30 915 1 326 867
M  V30 916 1 329 868
M  V30 917 1 329 869
M  V30 918 1 329 870
M  V30 919 1 331 871
M  V30 920 1 331 872
M  V30 921 1 331 873
M  V30 922 1 332 874
M  V30 923 1 332 875
M  V30 924 1 332 876
M  V30 925 1 333 877
M  V30 926 1 333 878
M  V30 927 1 333 879
M  V30 928 1 334 880
M  V30 929 1 334 881
M  V30 930 1 334 882
M  V30 931 1 335 883
M  V30 932 1 335 884
M  V30 933 1 335 885
M  V30 934 1 336 886
M  V30 935 1 336 887
M  V30 936 1 336 888
M  V30 937 1 338 889
M  V30 938 1 338 890
M  V30 939 1 339 891
M  V30 940 1 339 892
M  V30 941 1 340 893
M  V30 942 1 341 894
M  V30 943 1 342 895 CFG=1
M  V30 944 1 343 896
M  V30 945 1 343 897
M  V30 946 1 344 898
M  V30 947 1 345 899
M  V30 948 1 346 900
M  V30 949 1 346 901
M  V30 950 1 348 902 CFG=3
M  V30 951 1 349 903 CFG=1
M  V30 952 1 350 904
M  V30 953 1 350 905
M  V30 954 1 351 906
M  V30 955 1 351 907
M  V30 956 1 352 908 CFG=3
M  V30 957 1 353 909
M  V30 958 1 353 910
M  V30 959 1 354 911
M  V30 960 1 354 912
M  V30 961 1 355 913 CFG=3
M  V30 962 1 357 914
M  V30 963 1 357 915
M  V30 964 1 358 916
M  V30 965 1 358 917
M  V30 966 1 359 918
M  V30 967 1 360 919
M  V30 968 1 361 920
M  V30 969 1 361 921
M  V30 970 1 362 922
M  V30 971 1 363 923
M  V30 972 1 364 924
M  V30 973 1 366 925
M  V30 974 1 367 926
M  V30 975 1 367 927
M  V30 976 1 368 928
M  V30 977 1 368 929
M  V30 978 1 369 930
M  V30 979 1 370 931
M  V30 980 1 370 932
M  V30 981 1 371 933
M  V30 982 1 371 934
M  V30 983 1 372 935
M  V30 984 1 372 936
M  V30 985 1 374 937
M  V30 986 1 374 938
M  V30 987 1 374 939
M  V30 988 1 377 940
M  V30 989 1 377 941
M  V30 990 1 377 942
M  V30 991 1 379 943
M  V30 992 1 379 944
M  V30 993 1 379 945
M  V30 994 1 380 946
M  V30 995 1 380 947
M  V30 996 1 380 948
M  V30 997 1 381 949
M  V30 998 1 381 950
M  V30 999 1 381 951
M  V30 1000 1 382 952
M  V30 1001 1 382 953
M  V30 1002 1 382 954
M  V30 1003 1 383 955
M  V30 1004 1 383 956
M  V30 1005 1 383 957
M  V30 1006 1 384 958
M  V30 1007 1 384 959
M  V30 1008 1 384 960
M  V30 END BOND
M  V30 END CTAB
M  END
>  <PDBID>  (1) 
3PEO

>  <PDB ID>  (1) 
3PEO

>  <Generic Name>  (1) 
Metocurine

>  <Brand Name>  (1) 
nan

>  <DrugBank ID>  (1) 
DB01336

>  <ATC Codes>  (1) 
M03AA04

>  <Ligand ID>  (1) 
CU9

>  <Target Name>  (1) 
Neuronal acetylcholine receptor subunit alpha-2

>  <UniProt ID>  (1) 
Q15822

>  <PDB ID.1>  (1) 
3PEO

>  <Seq. Identity>  (1) 
30%

$$$$
