PDB_DB00722_01
     RDKit          3D

 72 73  0  0  0  0  0  0  0  0999 V2000
   -0.0960   -1.6866    2.1917 O   0  0  0  0  0  0  0  0  0  0  0  0
    2.0837   -1.4155    2.4250 O   0  0  0  0  0  0  0  0  0  0  0  0
    0.9118   -0.8539    1.8301 C   0  0  0  0  0  0  0  0  0  0  0  0
    1.1270   -0.5798    0.4182 C   0  0  2  0  0  0  0  0  0  0  0  0
    2.5697   -0.2462    0.0413 C   0  0  0  0  0  0  0  0  0  0  0  0
    3.1470    0.9337    0.7244 C   0  0  0  0  0  0  0  0  0  0  0  0
    4.5726    1.2300    0.3265 C   0  0  0  0  0  0  0  0  0  0  0  0
    4.6753    1.5144   -1.1564 C   0  0  0  0  0  0  0  0  0  0  0  0
    5.9446    2.3212   -1.3728 C   0  0  0  0  0  0  0  0  0  0  0  0
    7.0586    1.6409   -0.6139 C   0  0  0  0  0  0  0  0  0  0  0  0
    6.7093    0.2064   -0.3011 C   0  0  0  0  0  0  0  0  0  0  0  0
    5.5385    0.1375    0.6513 C   0  0  0  0  0  0  0  0  0  0  0  0
    0.1751    0.0684   -0.3440 N   0  0  0  0  0  0  0  0  0  0  0  0
   -3.7709   -5.1970    0.8754 N   0  0  0  0  0  0  0  0  0  0  0  0
   -2.1592    0.4845   -0.9376 C   0  0  0  0  0  0  0  0  0  0  0  0
   -1.0049   -0.4673   -0.8218 C   0  0  2  0  0  0  0  0  0  0  0  0
   -1.6911    1.5240   -1.8408 O   0  0  0  0  0  0  0  0  0  0  0  0
   -1.4369   -1.8404   -0.4725 C   0  0  0  0  0  0  0  0  0  0  0  0
   -2.7492   -2.1683   -1.2093 C   0  0  0  0  0  0  0  0  0  0  0  0
   -3.1542   -3.6085   -0.8862 C   0  0  0  0  0  0  0  0  0  0  0  0
   -3.3458   -3.8286    0.5945 C   0  0  0  0  0  0  0  0  0  0  0  0
   -2.7797    3.7858   -1.0474 O   0  0  0  0  0  0  0  0  0  0  0  0
   -3.6280    3.8658    1.0776 O   0  0  0  0  0  0  0  0  0  0  0  0
   -2.6691    1.1663    0.1438 N   0  0  0  0  0  0  0  0  0  0  0  0
   -3.8759    1.8604   -0.2642 C   0  0  1  0  0  0  0  0  0  0  0  0
   -5.0189    1.2731    0.4994 C   0  0  0  0  0  0  0  0  0  0  0  0
   -4.4133    0.2312    1.4023 C   0  0  0  0  0  0  0  0  0  0  0  0
   -2.9602    0.6359    1.3904 C   0  0  0  0  0  0  0  0  0  0  0  0
   -3.7988    3.3457   -0.2004 C   0  0  0  0  0  0  0  0  0  0  0  0
   -0.6580   -1.3959    2.9415 H   0  0  0  0  0  0  0  0  0  0  0  0
    2.3389   -2.2081    1.9070 H   0  0  0  0  0  0  0  0  0  0  0  0
    0.7414    0.0810    2.4558 H   0  0  0  0  0  0  0  0  0  0  0  0
    1.1196   -1.7160   -0.0245 H   0  0  0  0  0  0  0  0  0  0  0  0
    2.5201   -0.0359   -1.0564 H   0  0  0  0  0  0  0  0  0  0  0  0
    3.2250   -1.1464    0.1131 H   0  0  0  0  0  0  0  0  0  0  0  0
    3.0407    0.8119    1.8227 H   0  0  0  0  0  0  0  0  0  0  0  0
    2.5772    1.8532    0.4741 H   0  0  0  0  0  0  0  0  0  0  0  0
    4.8821    2.1396    0.8676 H   0  0  0  0  0  0  0  0  0  0  0  0
    4.6101    0.6142   -1.7722 H   0  0  0  0  0  0  0  0  0  0  0  0
    3.8175    2.1728   -1.4892 H   0  0  0  0  0  0  0  0  0  0  0  0
    6.1780    2.4514   -2.4538 H   0  0  0  0  0  0  0  0  0  0  0  0
    5.7599    3.3183   -0.8863 H   0  0  0  0  0  0  0  0  0  0  0  0
    7.2523    2.1728    0.3390 H   0  0  0  0  0  0  0  0  0  0  0  0
    7.9574    1.6151   -1.2521 H   0  0  0  0  0  0  0  0  0  0  0  0
    7.5952   -0.2969    0.1506 H   0  0  0  0  0  0  0  0  0  0  0  0
    6.4882   -0.3112   -1.2711 H   0  0  0  0  0  0  0  0  0  0  0  0
    5.1479   -0.8668    0.6314 H   0  0  0  0  0  0  0  0  0  0  0  0
    5.9424    0.3058    1.6862 H   0  0  0  0  0  0  0  0  0  0  0  0
    0.1796    1.1210   -0.2206 H   0  0  0  0  0  0  0  0  0  0  0  0
   -3.6851   -5.2883    1.9307 H   0  0  0  0  0  0  0  0  0  0  0  0
   -4.7698   -5.3713    0.6004 H   0  0  0  0  0  0  0  0  0  0  0  0
   -2.9458    0.0217   -1.5744 H   0  0  0  0  0  0  0  0  0  0  0  0
   -0.7493   -0.6247   -1.9772 H   0  0  0  0  0  0  0  0  0  0  0  0
   -1.7935    1.2339   -2.7687 H   0  0  0  0  0  0  0  0  0  0  0  0
   -0.7242   -2.6342   -0.7486 H   0  0  0  0  0  0  0  0  0  0  0  0
   -1.7574   -1.9702    0.5836 H   0  0  0  0  0  0  0  0  0  0  0  0
   -2.6672   -2.0939   -2.2906 H   0  0  0  0  0  0  0  0  0  0  0  0
   -3.5960   -1.5718   -0.8642 H   0  0  0  0  0  0  0  0  0  0  0  0
   -4.1035   -3.7811   -1.4150 H   0  0  0  0  0  0  0  0  0  0  0  0
   -2.3477   -4.2451   -1.2717 H   0  0  0  0  0  0  0  0  0  0  0  0
   -2.3403   -3.7699    1.1061 H   0  0  0  0  0  0  0  0  0  0  0  0
   -4.0342   -3.1338    1.0691 H   0  0  0  0  0  0  0  0  0  0  0  0
   -3.1341    4.4074   -1.7506 H   0  0  0  0  0  0  0  0  0  0  0  0
   -3.1606    4.7557    1.0435 H   0  0  0  0  0  0  0  0  0  0  0  0
   -4.1040    1.6317   -1.3583 H   0  0  0  0  0  0  0  0  0  0  0  0
   -5.7597    0.7316   -0.1400 H   0  0  0  0  0  0  0  0  0  0  0  0
   -5.5961    2.0033    1.0812 H   0  0  0  0  0  0  0  0  0  0  0  0
   -4.7957    0.3179    2.4414 H   0  0  0  0  0  0  0  0  0  0  0  0
   -4.6222   -0.7960    1.0913 H   0  0  0  0  0  0  0  0  0  0  0  0
   -2.9337    1.5117    2.1374 H   0  0  0  0  0  0  0  0  0  0  0  0
   -2.2957   -0.0933    1.8559 H   0  0  0  0  0  0  0  0  0  0  0  0
   -4.7612    3.7458   -0.5784 H   0  0  0  0  0  0  0  0  0  0  0  0
  1  3  1  0
  3  2  1  0
  3  4  1  0
  4  5  1  0
  5  6  1  0
  6  7  1  0
  7  8  1  0
  8  9  1  0
  9 10  1  0
 10 11  1  0
  7 12  1  0
 11 12  1  0
  4 13  1  0
 13 16  1  0
 15 16  1  0
 15 17  1  0
 16 18  1  0
 18 19  1  0
 19 20  1  0
 14 21  1  0
 20 21  1  0
 15 24  1  0
 24 25  1  0
 25 26  1  0
 26 27  1  0
 24 28  1  0
 27 28  1  0
 22 29  1  0
 23 29  1  0
 25 29  1  0
  1 30  1  0
  2 31  1  0
  3 32  1  0
  4 33  1  6
  5 34  1  0
  5 35  1  0
  6 36  1  0
  6 37  1  0
  7 38  1  0
  8 39  1  0
  8 40  1  0
  9 41  1  0
  9 42  1  0
 10 43  1  0
 10 44  1  0
 11 45  1  0
 11 46  1  0
 12 47  1  0
 12 48  1  0
 13 49  1  0
 14 50  1  0
 14 51  1  0
 15 52  1  0
 16 53  1  6
 17 54  1  0
 18 55  1  0
 18 56  1  0
 19 57  1  0
 19 58  1  0
 20 59  1  0
 20 60  1  0
 21 61  1  0
 21 62  1  0
 22 63  1  0
 23 64  1  0
 25 65  1  6
 26 66  1  0
 26 67  1  0
 27 68  1  0
 27 69  1  0
 28 70  1  0
 28 71  1  0
 29 72  1  0
M  END
>  <PDBID>  (1) 
1O86

>  <PDB ID>  (1) 
1O86

>  <Generic Name>  (1) 
Lisinopril

>  <Brand Name>  (1) 
Act Lisinopril#Apo-lisinopril Tablet (type P) - 10mg#Apo-lisinopril Tablet (type P) - 20mg#Apo-lisinopril Tablet (type P) - 40mg#Apo-lisinopril Tablet (type P) - 5mg#Apo-lisinopril Tablet 10 mg#Apo-lisinopril Tablet 20 mg#Apo-lisinopril Tablet 40 mg#Apo-lisinopril Tablet 5 mg#Apo-lisinopril/hctz#Auro-lisinopril#Ava-lisinopril Hct#Dom-lisinopril#Ipg-lisinopril#Jamp-lisinopril#Lisinopril#Lisinopril 10mg#Lisinopril 2.5mg#Lisinopril 20mg#Lisinopril 40mg#Lisinopril 5mg#Lisinopril Tablets#Lisinopril Tablets USP#Lisinopril With Hydrochlorothiazide#Lisinopril and Hctz#Lisinopril and Hydrochlorothiazide#Lisinopril and Hydrochlorthiazide#Lisinopril/hctz (type Z)#Lisnopril/hctz (type P)#Lytensopril#Lytensopril-90#Mar-lisinopril#Mint-lisinopril#Mylan-lisinopril#Mylan-lisinopril Hctz#Ntp-lisinopril/hctz (type P)#Ntp-lisinopril/hctz (type Z)#Nu-lisinopril#Nu-lisinopril/hctz#PMS-lisinopril#Prinivil#Prinzide#Pro-lisinopril - 10#Pro-lisinopril - 20#Pro-lisinopril - 5#Qbrelis#Ran-lisinopril#Ratio-lisinopril P#Ratio-lisinopril Z#Riva-lisinopril#Sandoz Lisinopril#Sandoz Lisinopril Hct#Teva-lisinopril (type P)#Teva-lisinopril (type Z)#Teva-lisinopril/hctz (type P)#Teva-lisinopril/hctz (type Z)#Zestoretic#Zestoretic Tab 10/12.5mg#Zestoretic Tab 20/12.5mg#Zestoretic Tab 20/25mg#Zestril#Zestril Tab 10mg#Zestril Tab 20mg#Zestril Tab 5mg#Acebitor#Acemin#Acerbon#Acinopril#Bellisin#Biopril#Dapril#Fibsol#Fisopril#Hipril#Linopril#Lisipril#Noperten#Presiten#Ranolip#Ranopril#Rantex#Sinopren#Sinopril#Tensopril

>  <DrugBank ID>  (1) 
DB00722

>  <ATC Codes>  (1) 
C09AA03#C09BB03#C09BA03#C10BX07

>  <Ligand ID>  (1) 
LPR

>  <Target Name>  (1) 
Angiotensin-converting enzyme

>  <UniProt ID>  (1) 
P12821

>  <PDB ID.1>  (1) 
1O86

>  <Seq. Identity>  (1) 
100%

$$$$
