PDB_DB01136_07
     RDKit          3D

148154  0  0  0  0  0  0  0  0999 V2000
   -0.8701    0.7452   -0.9696 O   0  0  0  0  0  0  0  0  0  0  0  0
   -0.4040   -0.5219   -0.7625 C   0  0  2  0  0  0  0  0  0  0  0  0
   -0.8607   -1.1295    0.5102 C   0  0  0  0  0  0  0  0  0  0  0  0
   -2.1984   -1.3423    0.6243 O   0  0  0  0  0  0  0  0  0  0  0  0
   -3.0640   -0.2818    0.6095 C   0  0  2  0  0  0  0  0  0  0  0  0
   -3.8541   -0.3727    1.9054 C   0  0  0  0  0  0  0  0  0  0  0  0
   -4.5395   -1.6951    2.0081 C   0  0  0  0  0  0  0  0  0  0  0  0
   -4.5202   -2.5191    0.7746 C   0  0  0  0  0  0  0  0  0  0  0  0
   -4.7209   -1.7532   -0.4977 C   0  0  0  0  0  0  0  0  0  0  0  0
   -3.9504   -0.4792   -0.5990 C   0  0  0  0  0  0  0  0  0  0  0  0
   -4.9594    0.5343   -0.8756 C   0  0  0  0  0  0  0  0  0  0  0  0
   -4.7874    1.9152   -0.3921 C   0  0  0  0  0  0  0  0  0  0  0  0
   -6.1106    2.4310    0.1336 C   0  0  0  0  0  0  0  0  0  0  0  0
   -7.2871    2.0879   -0.7164 C   0  0  0  0  0  0  0  0  0  0  0  0
   -7.3563    0.6379   -1.1437 C   0  0  0  0  0  0  0  0  0  0  0  0
   -6.2637   -0.0916   -0.3962 C   0  0  0  0  0  0  0  0  0  0  0  0
   -6.1107   -1.4515   -0.7753 N   0  0  0  0  0  0  0  0  0  0  0  0
    1.0134   -0.6649   -1.1528 C   0  0  0  0  0  0  0  0  0  0  0  0
    2.0173    0.1228   -0.5935 N   0  0  0  0  0  0  0  0  0  0  0  0
    2.3967   -0.0064    0.7497 C   0  0  0  0  0  0  0  0  0  0  0  0
    3.6762    0.8251    1.0689 C   0  0  0  0  0  0  0  0  0  0  0  0
    4.6373    0.4744    0.3898 O   0  0  0  0  0  0  0  0  0  0  0  0
    5.5698    0.1406   -0.3761 C   0  0  0  0  0  0  0  0  0  0  0  0
    5.9915   -1.3145   -0.4569 C   0  0  0  0  0  0  0  0  0  0  0  0
    6.9955   -1.7406    0.5333 C   0  0  0  0  0  0  0  0  0  0  0  0
    8.0028   -0.7089    0.9393 C   0  0  0  0  0  0  0  0  0  0  0  0
    7.4617    0.6669    1.0832 C   0  0  0  0  0  0  0  0  0  0  0  0
    6.7980    1.0413   -0.2176 C   0  0  0  0  0  0  0  0  0  0  0  0
    7.6785    0.7038   -1.2381 O   0  0  0  0  0  0  0  0  0  0  0  0
    7.9089    1.8199   -2.0325 C   0  0  0  0  0  0  0  0  0  0  0  0
   -0.0947    0.0972    0.0501 O   0  0  0  0  0  0  0  0  0  0  0  0
   -0.5117   -1.2207    0.1496 C   0  0  2  0  0  0  0  0  0  0  0  0
   -1.0764   -1.6050    1.4713 C   0  0  0  0  0  0  0  0  0  0  0  0
   -2.1904   -0.9304    1.8845 O   0  0  0  0  0  0  0  0  0  0  0  0
   -3.2947   -1.0167    1.0912 C   0  0  1  0  0  0  0  0  0  0  0  0
   -4.3432   -1.8557    1.8796 C   0  0  0  0  0  0  0  0  0  0  0  0
   -5.5905   -2.0176    1.0414 C   0  0  0  0  0  0  0  0  0  0  0  0
   -6.1500   -0.7060    0.5360 C   0  0  0  0  0  0  0  0  0  0  0  0
   -5.0427   -0.0157   -0.2085 C   0  0  0  0  0  0  0  0  0  0  0  0
   -3.9685    0.2726    0.8588 C   0  0  2  0  0  0  0  0  0  0  0  0
   -3.2313    1.3685    0.1921 C   0  0  2  0  0  0  0  0  0  0  0  0
   -2.5602    2.3277    1.1495 C   0  0  0  0  0  0  0  0  0  0  0  0
   -2.9473    3.7496    0.9211 C   0  0  0  0  0  0  0  0  0  0  0  0
   -3.1002    4.1649   -0.5065 C   0  0  0  0  0  0  0  0  0  0  0  0
   -3.9148    3.1451   -1.3132 C   0  0  0  0  0  0  0  0  0  0  0  0
   -4.4403    2.1689   -0.3376 C   0  0  0  0  0  0  0  0  0  0  0  0
   -5.3878    1.2220   -0.8089 N   0  0  0  0  0  0  0  0  0  0  0  0
    0.5968   -2.1476   -0.3035 C   0  0  0  0  0  0  0  0  0  0  0  0
    1.7859   -2.0233    0.4649 N   0  0  0  0  0  0  0  0  0  0  0  0
    2.8067   -2.9036    0.0254 C   0  0  0  0  0  0  0  0  0  0  0  0
    4.0958   -2.7800    0.8013 C   0  0  0  0  0  0  0  0  0  0  0  0
    4.6991   -1.5675    0.7666 O   0  0  0  0  0  0  0  0  0  0  0  0
    5.1032   -1.1350   -0.4964 C   0  0  0  0  0  0  0  0  0  0  0  0
    6.6000   -1.0474   -0.6077 C   0  0  0  0  0  0  0  0  0  0  0  0
    7.1830    0.2973   -0.3406 C   0  0  0  0  0  0  0  0  0  0  0  0
    6.3565    1.4548   -0.7793 C   0  0  0  0  0  0  0  0  0  0  0  0
    4.9099    1.3590   -0.3580 C   0  0  0  0  0  0  0  0  0  0  0  0
    4.3910    0.0873   -0.9802 C   0  0  0  0  0  0  0  0  0  0  0  0
    4.6816    0.1929   -2.3626 O   0  0  0  0  0  0  0  0  0  0  0  0
    3.5091    0.1667   -3.1113 C   0  0  0  0  0  0  0  0  0  0  0  0
   -0.3294    1.3666   -0.4311 H   0  0  0  0  0  0  0  0  0  0  0  0
   -0.9448   -1.2095   -1.5744 H   0  0  0  0  0  0  0  0  0  0  0  0
   -0.3760   -2.1533    0.5802 H   0  0  0  0  0  0  0  0  0  0  0  0
   -0.4397   -0.6001    1.4038 H   0  0  0  0  0  0  0  0  0  0  0  0
   -2.5233    0.6514    0.5274 H   0  0  0  0  0  0  0  0  0  0  0  0
   -4.5445    0.4692    2.0664 H   0  0  0  0  0  0  0  0  0  0  0  0
   -3.0800   -0.2609    2.7225 H   0  0  0  0  0  0  0  0  0  0  0  0
   -5.6001   -1.5671    2.3762 H   0  0  0  0  0  0  0  0  0  0  0  0
   -4.0427   -2.2896    2.8223 H   0  0  0  0  0  0  0  0  0  0  0  0
   -5.3874   -3.2420    0.8472 H   0  0  0  0  0  0  0  0  0  0  0  0
   -3.6350   -3.1787    0.6664 H   0  0  0  0  0  0  0  0  0  0  0  0
   -4.3882   -2.4477   -1.3283 H   0  0  0  0  0  0  0  0  0  0  0  0
   -3.2379   -0.5262   -1.4744 H   0  0  0  0  0  0  0  0  0  0  0  0
   -5.1002    0.6030   -1.9980 H   0  0  0  0  0  0  0  0  0  0  0  0
   -4.4905    2.6236   -1.2225 H   0  0  0  0  0  0  0  0  0  0  0  0
   -4.0179    2.0765    0.3777 H   0  0  0  0  0  0  0  0  0  0  0  0
   -6.0317    3.5584    0.1185 H   0  0  0  0  0  0  0  0  0  0  0  0
   -6.2502    2.1756    1.2066 H   0  0  0  0  0  0  0  0  0  0  0  0
   -8.2010    2.2464   -0.0698 H   0  0  0  0  0  0  0  0  0  0  0  0
   -7.4372    2.7895   -1.5629 H   0  0  0  0  0  0  0  0  0  0  0  0
   -7.0529    0.6320   -2.2328 H   0  0  0  0  0  0  0  0  0  0  0  0
   -8.3526    0.1968   -1.0282 H   0  0  0  0  0  0  0  0  0  0  0  0
   -6.4507    0.0717    0.6791 H   0  0  0  0  0  0  0  0  0  0  0  0
   -6.3672   -1.5605   -1.7837 H   0  0  0  0  0  0  0  0  0  0  0  0
    1.0349   -0.4594   -2.2826 H   0  0  0  0  0  0  0  0  0  0  0  0
    1.3345   -1.7628   -1.1484 H   0  0  0  0  0  0  0  0  0  0  0  0
    2.7230    0.5525   -1.2238 H   0  0  0  0  0  0  0  0  0  0  0  0
    1.5812    0.3856    1.4143 H   0  0  0  0  0  0  0  0  0  0  0  0
    2.5424   -1.0643    1.0269 H   0  0  0  0  0  0  0  0  0  0  0  0
    3.3049    1.8857    0.8286 H   0  0  0  0  0  0  0  0  0  0  0  0
    3.6975    0.8575    2.1949 H   0  0  0  0  0  0  0  0  0  0  0  0
    5.2601    0.3647   -1.4641 H   0  0  0  0  0  0  0  0  0  0  0  0
    5.0662   -1.9150   -0.3392 H   0  0  0  0  0  0  0  0  0  0  0  0
    6.3714   -1.5478   -1.4709 H   0  0  0  0  0  0  0  0  0  0  0  0
    6.5295   -2.1344    1.4704 H   0  0  0  0  0  0  0  0  0  0  0  0
    7.5913   -2.6106    0.1447 H   0  0  0  0  0  0  0  0  0  0  0  0
    8.8491   -0.6717    0.1919 H   0  0  0  0  0  0  0  0  0  0  0  0
    8.4796   -1.0050    1.8988 H   0  0  0  0  0  0  0  0  0  0  0  0
    8.3403    1.3701    1.1679 H   0  0  0  0  0  0  0  0  0  0  0  0
    6.8575    0.8436    1.9687 H   0  0  0  0  0  0  0  0  0  0  0  0
    6.4623    2.0753   -0.2447 H   0  0  0  0  0  0  0  0  0  0  0  0
    8.3504    2.6073   -1.3700 H   0  0  0  0  0  0  0  0  0  0  0  0
    6.9797    2.2054   -2.5300 H   0  0  0  0  0  0  0  0  0  0  0  0
    8.6354    1.5248   -2.8434 H   0  0  0  0  0  0  0  0  0  0  0  0
    0.3100    0.3576    0.9319 H   0  0  0  0  0  0  0  0  0  0  0  0
   -1.3226   -1.3254   -0.6312 H   0  0  0  0  0  0  0  0  0  0  0  0
   -1.1802   -2.7164    1.5494 H   0  0  0  0  0  0  0  0  0  0  0  0
   -0.2750   -1.3730    2.2368 H   0  0  0  0  0  0  0  0  0  0  0  0
   -3.1709   -1.5904    0.1500 H   0  0  0  0  0  0  0  0  0  0  0  0
   -4.6006   -1.2294    2.7557 H   0  0  0  0  0  0  0  0  0  0  0  0
   -3.9655   -2.8446    2.1232 H   0  0  0  0  0  0  0  0  0  0  0  0
   -6.3541   -2.4717    1.7030 H   0  0  0  0  0  0  0  0  0  0  0  0
   -5.3762   -2.6424    0.1448 H   0  0  0  0  0  0  0  0  0  0  0  0
   -6.5551   -0.0859    1.3696 H   0  0  0  0  0  0  0  0  0  0  0  0
   -6.9870   -0.9669   -0.1458 H   0  0  0  0  0  0  0  0  0  0  0  0
   -4.6102   -0.7581   -0.9153 H   0  0  0  0  0  0  0  0  0  0  0  0
   -4.4532    0.6798    1.7756 H   0  0  0  0  0  0  0  0  0  0  0  0
   -2.5689    1.0752   -0.6243 H   0  0  0  0  0  0  0  0  0  0  0  0
   -1.4692    2.1759    1.1231 H   0  0  0  0  0  0  0  0  0  0  0  0
   -2.9432    2.0504    2.1764 H   0  0  0  0  0  0  0  0  0  0  0  0
   -2.0931    4.3721    1.3273 H   0  0  0  0  0  0  0  0  0  0  0  0
   -3.8148    4.0920    1.5527 H   0  0  0  0  0  0  0  0  0  0  0  0
   -3.7079    5.1055   -0.5168 H   0  0  0  0  0  0  0  0  0  0  0  0
   -2.1468    4.4094   -1.0027 H   0  0  0  0  0  0  0  0  0  0  0  0
   -4.7346    3.6132   -1.8661 H   0  0  0  0  0  0  0  0  0  0  0  0
   -3.2039    2.7146   -2.0506 H   0  0  0  0  0  0  0  0  0  0  0  0
   -4.8826    2.7078    0.5256 H   0  0  0  0  0  0  0  0  0  0  0  0
   -5.4247    1.1338   -1.8663 H   0  0  0  0  0  0  0  0  0  0  0  0
    0.8351   -1.8396   -1.3509 H   0  0  0  0  0  0  0  0  0  0  0  0
    0.1855   -3.1580   -0.3512 H   0  0  0  0  0  0  0  0  0  0  0  0
    2.0501   -1.1082    0.8056 H   0  0  0  0  0  0  0  0  0  0  0  0
    2.4414   -3.9570    0.2166 H   0  0  0  0  0  0  0  0  0  0  0  0
    2.9856   -2.8808   -1.0718 H   0  0  0  0  0  0  0  0  0  0  0  0
    3.8212   -3.0053    1.8722 H   0  0  0  0  0  0  0  0  0  0  0  0
    4.7324   -3.6315    0.4942 H   0  0  0  0  0  0  0  0  0  0  0  0
    4.7939   -1.9607   -1.1789 H   0  0  0  0  0  0  0  0  0  0  0  0
    7.0175   -1.7506    0.1447 H   0  0  0  0  0  0  0  0  0  0  0  0
    6.9709   -1.4051   -1.5923 H   0  0  0  0  0  0  0  0  0  0  0  0
    7.4309    0.4537    0.7418 H   0  0  0  0  0  0  0  0  0  0  0  0
    8.1704    0.3868   -0.8614 H   0  0  0  0  0  0  0  0  0  0  0  0
    6.3603    1.5929   -1.8792 H   0  0  0  0  0  0  0  0  0  0  0  0
    6.7830    2.3802   -0.3476 H   0  0  0  0  0  0  0  0  0  0  0  0
    4.3753    2.2054   -0.8614 H   0  0  0  0  0  0  0  0  0  0  0  0
    4.7386    1.4428    0.7112 H   0  0  0  0  0  0  0  0  0  0  0  0
    3.3196    0.0127   -0.8470 H   0  0  0  0  0  0  0  0  0  0  0  0
    2.8612    1.0343   -2.7984 H   0  0  0  0  0  0  0  0  0  0  0  0
    2.9735   -0.7839   -3.0685 H   0  0  0  0  0  0  0  0  0  0  0  0
    3.8098    0.3867   -4.1606 H   0  0  0  0  0  0  0  0  0  0  0  0
  1  2  1  0
  2  3  1  0
  3  4  1  0
  4  5  1  0
  5  6  1  0
  6  7  1  0
  7  8  1  0
  8  9  1  0
  5 10  1  0
  9 10  1  0
 10 11  1  0
 11 12  1  0
 12 13  1  0
 13 14  1  0
 14 15  1  0
 11 16  1  0
 15 16  1  0
  9 17  1  0
 16 17  1  0
  2 18  1  0
 18 19  1  0
 19 20  1  0
 20 21  1  0
 21 22  1  0
 22 23  1  0
 23 24  1  0
 24 25  1  0
 25 26  1  0
 26 27  1  0
 23 28  1  0
 27 28  1  0
 28 29  1  0
 29 30  1  0
 31 32  1  0
 32 33  1  0
 33 34  1  0
 34 35  1  0
 35 36  1  0
 36 37  1  0
 37 38  1  0
 38 39  1  0
 35 40  1  0
 39 40  1  0
 40 41  1  0
 41 42  1  0
 42 43  1  0
 43 44  1  0
 44 45  1  0
 41 46  1  0
 45 46  1  0
 39 47  1  0
 46 47  1  0
 32 48  1  0
 48 49  1  0
 49 50  1  0
 50 51  1  0
 51 52  1  0
 52 53  1  0
 53 54  1  0
 54 55  1  0
 55 56  1  0
 56 57  1  0
 53 58  1  0
 57 58  1  0
 58 59  1  0
 59 60  1  0
  1 61  1  0
  2 62  1  6
  3 63  1  0
  3 64  1  0
  5 65  1  6
  6 66  1  0
  6 67  1  0
  7 68  1  0
  7 69  1  0
  8 70  1  0
  8 71  1  0
  9 72  1  0
 10 73  1  0
 11 74  1  0
 12 75  1  0
 12 76  1  0
 13 77  1  0
 13 78  1  0
 14 79  1  0
 14 80  1  0
 15 81  1  0
 15 82  1  0
 16 83  1  0
 17 84  1  0
 18 85  1  0
 18 86  1  0
 19 87  1  0
 20 88  1  0
 20 89  1  0
 21 90  1  0
 21 91  1  0
 23 92  1  0
 24 93  1  0
 24 94  1  0
 25 95  1  0
 25 96  1  0
 26 97  1  0
 26 98  1  0
 27 99  1  0
 27100  1  0
 28101  1  0
 30102  1  0
 30103  1  0
 30104  1  0
 31105  1  0
 32106  1  6
 33107  1  0
 33108  1  0
 35109  1  6
 36110  1  0
 36111  1  0
 37112  1  0
 37113  1  0
 38114  1  0
 38115  1  0
 39116  1  0
 40117  1  1
 41118  1  6
 42119  1  0
 42120  1  0
 43121  1  0
 43122  1  0
 44123  1  0
 44124  1  0
 45125  1  0
 45126  1  0
 46127  1  0
 47128  1  0
 48129  1  0
 48130  1  0
 49131  1  0
 50132  1  0
 50133  1  0
 51134  1  0
 51135  1  0
 53136  1  0
 54137  1  0
 54138  1  0
 55139  1  0
 55140  1  0
 56141  1  0
 56142  1  0
 57143  1  0
 57144  1  0
 58145  1  0
 60146  1  0
 60147  1  0
 60148  1  0
M  END
>  <PDBID>  (1) 
4AMJ

>  <PDB ID>  (1) 
4AMJ

>  <Generic Name>  (1) 
Carvedilol

>  <Brand Name>  (1) 
Apo-carvedilol#Auro-carvedilol#Ava-carvedilol#Carvedilol#Coreg#Coreg (carvedilol) Tablets, 12.5mg#Coreg (carvedilol) Tablets, 25mg#Coreg (carvedilol) Tablets, 3.125 mg#Coreg (carvedilol) Tablets, 6.25mg#Coreg 12.5mg#Coreg 25mg#Coreg 3.125mg#Coreg 6.25mg#Coreg CR#Coregcr CR#Dilatrend - Tab 25mg#Dilatrend - Tab 50mg#Dom-carvedilol#Hypertenevide-12.5#Jamp-carvedilol#Mylan-carvedilol#Novo-carvedilol Tablets#Ntp-carvedilol#Nu-carvedilol#PMS-carvedilol#Ran-carvedilol#Ratio-carvedilol#Zym-carvedilol#COREGCR

>  <DrugBank ID>  (1) 
DB01136

>  <ATC Codes>  (1) 
C07AG02

>  <Ligand ID>  (1) 
CVD

>  <Target Name>  (1) 
Beta-1 adrenergic receptor

>  <UniProt ID>  (1) 
P08588

>  <PDB ID.1>  (1) 
4AMJ

>  <Seq. Identity>  (1) 
63%

$$$$
