PDB_DB00712_00
     RDKit          3D

 90 92  0  0  0  0  0  0  0  0999 V2000
   -3.9830    1.6057    0.0942 C   0  0  0  0  0  0  0  0  0  0  0  0
   -2.6666    1.3159   -0.6442 C   0  0  0  0  0  0  0  0  0  0  0  0
   -2.1861    0.0057   -0.0784 C   0  0  0  0  0  0  0  0  0  0  0  0
   -3.0317   -1.0821   -0.6829 C   0  0  0  0  0  0  0  0  0  0  0  0
   -4.4519   -0.8524   -0.1667 C   0  0  0  0  0  0  0  0  0  0  0  0
   -4.9495    0.5298   -0.4187 C   0  0  0  0  0  0  0  0  0  0  0  0
   -0.7315   -0.1390   -0.2635 C   0  0  0  0  0  0  0  0  0  0  0  0
   -0.1861   -1.4745    0.2196 C   0  0  0  0  0  0  0  0  0  0  0  0
    1.2852   -1.4906   -0.2027 C   0  0  0  0  0  0  0  0  0  0  0  0
    2.0690   -0.3642    0.3754 C   0  0  0  0  0  0  0  0  0  0  0  0
    1.3766    0.9752    0.1897 C   0  0  0  0  0  0  0  0  0  0  0  0
   -0.0472    0.8741    0.6697 C   0  0  0  0  0  0  0  0  0  0  0  0
    3.3856   -0.2781   -0.3683 C   0  0  2  0  0  0  0  0  0  0  0  0
    4.1983   -1.5403   -0.2521 C   0  0  0  0  0  0  0  0  0  0  0  0
    4.2214    0.8799    0.1121 C   0  0  0  0  0  0  0  0  0  0  0  0
    4.5094    0.7522    1.4662 O   0  0  0  0  0  0  0  0  0  0  0  0
    5.4068    0.8925   -0.6142 O   0  0  0  0  0  0  0  0  0  0  0  0
   -0.0519    0.3094    1.9468 F   0  0  0  0  0  0  0  0  0  0  0  0
   -3.9830    1.6057    0.0942 C   0  0  0  0  0  0  0  0  0  0  0  0
   -2.6666    1.3159   -0.6442 C   0  0  0  0  0  0  0  0  0  0  0  0
   -2.1861    0.0057   -0.0784 C   0  0  0  0  0  0  0  0  0  0  0  0
   -3.0317   -1.0821   -0.6829 C   0  0  0  0  0  0  0  0  0  0  0  0
   -4.4519   -0.8524   -0.1667 C   0  0  0  0  0  0  0  0  0  0  0  0
   -4.9495    0.5298   -0.4187 C   0  0  0  0  0  0  0  0  0  0  0  0
   -0.7315   -0.1390   -0.2635 C   0  0  0  0  0  0  0  0  0  0  0  0
   -0.1861   -1.4745    0.2196 C   0  0  0  0  0  0  0  0  0  0  0  0
    1.2852   -1.4906   -0.2027 C   0  0  0  0  0  0  0  0  0  0  0  0
    2.0690   -0.3642    0.3754 C   0  0  0  0  0  0  0  0  0  0  0  0
    1.3766    0.9752    0.1897 C   0  0  0  0  0  0  0  0  0  0  0  0
   -0.0472    0.8741    0.6697 C   0  0  0  0  0  0  0  0  0  0  0  0
    3.3856   -0.2781   -0.3683 C   0  0  2  0  0  0  0  0  0  0  0  0
    4.1983   -1.5403   -0.2521 C   0  0  0  0  0  0  0  0  0  0  0  0
    4.2214    0.8799    0.1121 C   0  0  0  0  0  0  0  0  0  0  0  0
    4.5094    0.7522    1.4662 O   0  0  0  0  0  0  0  0  0  0  0  0
    5.4068    0.8925   -0.6142 O   0  0  0  0  0  0  0  0  0  0  0  0
   -0.0519    0.3094    1.9468 F   0  0  0  0  0  0  0  0  0  0  0  0
   -3.7742    1.4600    1.1689 H   0  0  0  0  0  0  0  0  0  0  0  0
   -4.3791    2.5828   -0.1676 H   0  0  0  0  0  0  0  0  0  0  0  0
   -1.9717    2.1426   -0.6102 H   0  0  0  0  0  0  0  0  0  0  0  0
   -2.9530    1.1031   -1.7054 H   0  0  0  0  0  0  0  0  0  0  0  0
   -2.4074    0.0146    1.0127 H   0  0  0  0  0  0  0  0  0  0  0  0
   -2.7328   -2.0820   -0.3035 H   0  0  0  0  0  0  0  0  0  0  0  0
   -2.9878   -1.1195   -1.7765 H   0  0  0  0  0  0  0  0  0  0  0  0
   -5.1364   -1.5596   -0.6376 H   0  0  0  0  0  0  0  0  0  0  0  0
   -4.4544   -1.0337    0.9166 H   0  0  0  0  0  0  0  0  0  0  0  0
   -5.0851    0.7540   -1.5052 H   0  0  0  0  0  0  0  0  0  0  0  0
   -5.8772    0.6690    0.1597 H   0  0  0  0  0  0  0  0  0  0  0  0
   -0.3449    0.0241   -1.2797 H   0  0  0  0  0  0  0  0  0  0  0  0
   -0.2050   -1.4645    1.3136 H   0  0  0  0  0  0  0  0  0  0  0  0
   -0.6689   -2.3288   -0.2544 H   0  0  0  0  0  0  0  0  0  0  0  0
    1.7638   -2.4412    0.1183 H   0  0  0  0  0  0  0  0  0  0  0  0
    1.3038   -1.4379   -1.2959 H   0  0  0  0  0  0  0  0  0  0  0  0
    2.2787   -0.5501    1.4483 H   0  0  0  0  0  0  0  0  0  0  0  0
    1.8755    1.7446    0.8016 H   0  0  0  0  0  0  0  0  0  0  0  0
    1.3829    1.2645   -0.8609 H   0  0  0  0  0  0  0  0  0  0  0  0
   -0.5282    1.8368    0.7109 H   0  0  0  0  0  0  0  0  0  0  0  0
    3.1408   -0.1335   -1.4381 H   0  0  0  0  0  0  0  0  0  0  0  0
    5.2907   -1.2942   -0.3392 H   0  0  0  0  0  0  0  0  0  0  0  0
    4.0542   -2.0809    0.6853 H   0  0  0  0  0  0  0  0  0  0  0  0
    3.9759   -2.2078   -1.1072 H   0  0  0  0  0  0  0  0  0  0  0  0
    3.6858    1.8151   -0.1353 H   0  0  0  0  0  0  0  0  0  0  0  0
    4.8304    1.5677    1.8796 H   0  0  0  0  0  0  0  0  0  0  0  0
    5.7567    1.8356   -0.5795 H   0  0  0  0  0  0  0  0  0  0  0  0
   -3.7742    1.4600    1.1689 H   0  0  0  0  0  0  0  0  0  0  0  0
   -4.3791    2.5828   -0.1676 H   0  0  0  0  0  0  0  0  0  0  0  0
   -1.9717    2.1426   -0.6102 H   0  0  0  0  0  0  0  0  0  0  0  0
   -2.9530    1.1031   -1.7054 H   0  0  0  0  0  0  0  0  0  0  0  0
   -2.4074    0.0146    1.0127 H   0  0  0  0  0  0  0  0  0  0  0  0
   -2.7328   -2.0820   -0.3035 H   0  0  0  0  0  0  0  0  0  0  0  0
   -2.9878   -1.1195   -1.7765 H   0  0  0  0  0  0  0  0  0  0  0  0
   -5.1364   -1.5596   -0.6376 H   0  0  0  0  0  0  0  0  0  0  0  0
   -4.4544   -1.0337    0.9166 H   0  0  0  0  0  0  0  0  0  0  0  0
   -5.0851    0.7540   -1.5052 H   0  0  0  0  0  0  0  0  0  0  0  0
   -5.8772    0.6690    0.1597 H   0  0  0  0  0  0  0  0  0  0  0  0
   -0.3449    0.0241   -1.2797 H   0  0  0  0  0  0  0  0  0  0  0  0
   -0.2050   -1.4645    1.3136 H   0  0  0  0  0  0  0  0  0  0  0  0
   -0.6689   -2.3288   -0.2544 H   0  0  0  0  0  0  0  0  0  0  0  0
    1.7638   -2.4412    0.1183 H   0  0  0  0  0  0  0  0  0  0  0  0
    1.3038   -1.4379   -1.2959 H   0  0  0  0  0  0  0  0  0  0  0  0
    2.2787   -0.5501    1.4483 H   0  0  0  0  0  0  0  0  0  0  0  0
    1.8755    1.7446    0.8016 H   0  0  0  0  0  0  0  0  0  0  0  0
    1.3829    1.2645   -0.8609 H   0  0  0  0  0  0  0  0  0  0  0  0
   -0.5282    1.8368    0.7109 H   0  0  0  0  0  0  0  0  0  0  0  0
    3.1408   -0.1335   -1.4381 H   0  0  0  0  0  0  0  0  0  0  0  0
    5.2907   -1.2942   -0.3392 H   0  0  0  0  0  0  0  0  0  0  0  0
    4.0542   -2.0809    0.6853 H   0  0  0  0  0  0  0  0  0  0  0  0
    3.9759   -2.2078   -1.1072 H   0  0  0  0  0  0  0  0  0  0  0  0
    3.6858    1.8151   -0.1353 H   0  0  0  0  0  0  0  0  0  0  0  0
    4.8304    1.5677    1.8796 H   0  0  0  0  0  0  0  0  0  0  0  0
    5.7567    1.8356   -0.5795 H   0  0  0  0  0  0  0  0  0  0  0  0
  1  2  1  0
  2  3  1  0
  3  4  1  0
  4  5  1  0
  1  6  1  0
  5  6  1  0
  3  7  1  0
  7  8  1  0
  8  9  1  0
  9 10  1  0
 10 11  1  0
  7 12  1  0
 11 12  1  0
 10 13  1  0
 13 14  1  0
 13 15  1  0
 15 16  1  0
 15 17  1  0
 12 18  1  0
 19 20  1  0
 20 21  1  0
 21 22  1  0
 22 23  1  0
 19 24  1  0
 23 24  1  0
 21 25  1  0
 25 26  1  0
 26 27  1  0
 27 28  1  0
 28 29  1  0
 25 30  1  0
 29 30  1  0
 28 31  1  0
 31 32  1  0
 31 33  1  0
 33 34  1  0
 33 35  1  0
 30 36  1  0
  1 37  1  0
  1 38  1  0
  2 39  1  0
  2 40  1  0
  3 41  1  0
  4 42  1  0
  4 43  1  0
  5 44  1  0
  5 45  1  0
  6 46  1  0
  6 47  1  0
  7 48  1  0
  8 49  1  0
  8 50  1  0
  9 51  1  0
  9 52  1  0
 10 53  1  0
 11 54  1  0
 11 55  1  0
 12 56  1  0
 13 57  1  6
 14 58  1  0
 14 59  1  0
 14 60  1  0
 15 61  1  0
 16 62  1  0
 17 63  1  0
 19 64  1  0
 19 65  1  0
 20 66  1  0
 20 67  1  0
 21 68  1  0
 22 69  1  0
 22 70  1  0
 23 71  1  0
 23 72  1  0
 24 73  1  0
 24 74  1  0
 25 75  1  0
 26 76  1  0
 26 77  1  0
 27 78  1  0
 27 79  1  0
 28 80  1  0
 29 81  1  0
 29 82  1  0
 30 83  1  0
 31 84  1  6
 32 85  1  0
 32 86  1  0
 32 87  1  0
 33 88  1  0
 34 89  1  0
 35 90  1  0
M  END
>  <PDBID>  (1) 
5JVZ

>  <PDB ID>  (1) 
5JVZ

>  <Generic Name>  (1) 
Flurbiprofen

>  <Brand Name>  (1) 
Ansaid Tablets 100 mg#Ansaid Tablets 50 mg#Antiphlamine Pain Relieving#Apo-flurbiprofen Fc Tablets 100mg#Apo-flurbiprofen Fc Tablets 50mg#Flurbiprofen#Flurbiprofen Sodium#Flurbiprofen-100 Tab 100mg#Flurbiprofen-50 Tab 50mg#Froben#Froben SR#Froben Tab 100mg#Froben Tab 50mg#Froben-SR Cap 200mg#Novo-flurprofen SR#Nu-flurbiprofen Tab 100mg#Nu-flurbiprofen Tab 50mg#Ocufen#Ocufen Oph Soln 0.03%#Ratio-flurbiprofen Tablets 100mg#Ratio-flurbiprofen Tablets 50mg#Teva-flurbiprofen#Acustop Cataplasma#Adofeed#Ansaid#Antadys#Cebutid#Flurofen#Ocuflur#Stayban#Strefen#Strepfen#Strepsils#Strepsils Intensive#TransAct#Urbifen#Zepolas

>  <DrugBank ID>  (1) 
DB00712

>  <ATC Codes>  (1) 
M02AA19#R02AX01#M01AE09#S01BC04

>  <Ligand ID>  (1) 
FLP,FLR

>  <Target Name>  (1) 
Prostaglandin G/H synthase 2

>  <UniProt ID>  (1) 
P35354

>  <PDB ID.1>  (1) 
5JVZ

>  <Seq. Identity>  (1) 
85%

$$$$
