PDB_DB01117_05
     RDKit          3D

 63 66  0  0  0  0  0  0  0  0999 V2000
   -1.8844   -1.0782    1.8164 O   0  0  0  0  0  0  0  0  0  0  0  0
   -3.5530    2.7825   -0.7404 O   0  0  0  0  0  0  0  0  0  0  0  0
   -2.1899   -0.7728    0.5020 C   0  0  0  0  0  0  0  0  0  0  0  0
   -1.5880    0.4962    0.0136 C   0  0  0  0  0  0  0  0  0  0  0  0
   -2.1895    1.6408    0.8008 C   0  0  0  0  0  0  0  0  0  0  0  0
   -3.5901    1.8427    0.3166 C   0  0  0  0  0  0  0  0  0  0  0  0
   -5.6798    0.6566   -0.0495 C   0  0  0  0  0  0  0  0  0  0  0  0
   -6.3108   -0.7104   -0.0193 C   0  0  0  0  0  0  0  0  0  0  0  0
   -5.5612   -1.6271   -0.9650 C   0  0  0  0  0  0  0  0  0  0  0  0
   -4.1915   -1.8438   -0.3936 C   0  0  0  0  0  0  0  0  0  0  0  0
   -3.6905   -0.6683    0.4095 C   0  0  0  0  0  0  0  0  0  0  0  0
   -4.1690    0.5839   -0.2453 C   0  0  0  0  0  0  0  0  0  0  0  0
   -1.4159    2.7923    0.7368 O   0  0  0  0  0  0  0  0  0  0  0  0
    0.5623    0.3375    1.3011 C   0  0  0  0  0  0  0  0  0  0  0  0
    2.0632    0.5700    1.0819 C   0  0  0  0  0  0  0  0  0  0  0  0
    2.6317   -0.4421    0.1162 C   0  0  0  0  0  0  0  0  0  0  0  0
    1.9374   -0.3143   -1.2008 C   0  0  0  0  0  0  0  0  0  0  0  0
    0.4408   -0.3773   -1.0956 C   0  0  0  0  0  0  0  0  0  0  0  0
   -0.1023    0.5378   -0.0164 C   0  0  0  0  0  0  0  0  0  0  0  0
    6.9523    1.9074   -0.0194 Cl  0  0  0  0  0  0  0  0  0  0  0  0
    4.0984   -0.0966   -0.0573 C   0  0  0  0  0  0  0  0  0  0  0  0
    4.8155   -0.1711    1.2747 C   0  0  0  0  0  0  0  0  0  0  0  0
    6.2790   -0.4853    1.1018 C   0  0  0  0  0  0  0  0  0  0  0  0
    6.8587    0.1340   -0.1497 C   0  0  0  0  0  0  0  0  0  0  0  0
    6.1322   -0.3018   -1.3850 C   0  0  0  0  0  0  0  0  0  0  0  0
    4.7988   -0.9760   -1.0385 C   0  0  0  0  0  0  0  0  0  0  0  0
   -2.5071   -0.6426    2.4530 H   0  0  0  0  0  0  0  0  0  0  0  0
   -3.2856    2.3265   -1.6010 H   0  0  0  0  0  0  0  0  0  0  0  0
   -1.8041   -1.6036   -0.1208 H   0  0  0  0  0  0  0  0  0  0  0  0
   -1.9502    0.6394   -1.0438 H   0  0  0  0  0  0  0  0  0  0  0  0
   -2.2622    1.2963    1.8698 H   0  0  0  0  0  0  0  0  0  0  0  0
   -4.2308    2.3065    1.1003 H   0  0  0  0  0  0  0  0  0  0  0  0
   -6.1591    1.3070   -0.8209 H   0  0  0  0  0  0  0  0  0  0  0  0
   -5.9132    1.1459    0.9355 H   0  0  0  0  0  0  0  0  0  0  0  0
   -6.2936   -1.1216    1.0120 H   0  0  0  0  0  0  0  0  0  0  0  0
   -7.3761   -0.6566   -0.3252 H   0  0  0  0  0  0  0  0  0  0  0  0
   -5.5607   -1.1638   -1.9669 H   0  0  0  0  0  0  0  0  0  0  0  0
   -6.0959   -2.5884   -0.9987 H   0  0  0  0  0  0  0  0  0  0  0  0
   -4.1654   -2.7902    0.1916 H   0  0  0  0  0  0  0  0  0  0  0  0
   -3.4827   -1.9822   -1.2582 H   0  0  0  0  0  0  0  0  0  0  0  0
   -4.1849   -0.7342    1.4069 H   0  0  0  0  0  0  0  0  0  0  0  0
   -4.0118    0.4795   -1.3391 H   0  0  0  0  0  0  0  0  0  0  0  0
   -1.2731    3.1423    1.6552 H   0  0  0  0  0  0  0  0  0  0  0  0
    0.4122   -0.6636    1.7347 H   0  0  0  0  0  0  0  0  0  0  0  0
    0.2519    1.1661    1.9721 H   0  0  0  0  0  0  0  0  0  0  0  0
    2.1470    1.6140    0.6976 H   0  0  0  0  0  0  0  0  0  0  0  0
    2.5637    0.5437    2.0580 H   0  0  0  0  0  0  0  0  0  0  0  0
    2.5407   -1.4290    0.5727 H   0  0  0  0  0  0  0  0  0  0  0  0
    2.2691    0.5938   -1.7065 H   0  0  0  0  0  0  0  0  0  0  0  0
    2.2446   -1.1929   -1.8400 H   0  0  0  0  0  0  0  0  0  0  0  0
    0.0474   -1.3798   -0.9407 H   0  0  0  0  0  0  0  0  0  0  0  0
    0.0183    0.0000   -2.0586 H   0  0  0  0  0  0  0  0  0  0  0  0
    0.1764    1.5805   -0.3570 H   0  0  0  0  0  0  0  0  0  0  0  0
    4.2163    0.9575   -0.4102 H   0  0  0  0  0  0  0  0  0  0  0  0
    4.3669   -1.0155    1.8578 H   0  0  0  0  0  0  0  0  0  0  0  0
    4.6866    0.7648    1.8703 H   0  0  0  0  0  0  0  0  0  0  0  0
    6.4616   -1.5807    1.0395 H   0  0  0  0  0  0  0  0  0  0  0  0
    6.8925   -0.1155    1.9490 H   0  0  0  0  0  0  0  0  0  0  0  0
    7.9048   -0.2298   -0.2261 H   0  0  0  0  0  0  0  0  0  0  0  0
    6.7267   -0.9395   -2.0603 H   0  0  0  0  0  0  0  0  0  0  0  0
    5.8531    0.6145   -1.9562 H   0  0  0  0  0  0  0  0  0  0  0  0
    4.2779   -1.1218   -1.9861 H   0  0  0  0  0  0  0  0  0  0  0  0
    5.0443   -1.9438   -0.5351 H   0  0  0  0  0  0  0  0  0  0  0  0
  1  3  1  0
  3  4  1  0
  4  5  1  0
  2  6  1  0
  5  6  1  0
  7  8  1  0
  8  9  1  0
  9 10  1  0
  3 11  1  0
 10 11  1  0
  6 12  1  0
  7 12  1  0
 11 12  1  0
  5 13  1  0
 14 15  1  0
 15 16  1  0
 16 17  1  0
 17 18  1  0
  4 19  1  0
 14 19  1  0
 18 19  1  0
 16 21  1  0
 21 22  1  0
 22 23  1  0
 20 24  1  0
 23 24  1  0
 24 25  1  0
 21 26  1  0
 25 26  1  0
  1 27  1  0
  2 28  1  0
  3 29  1  0
  4 30  1  0
  5 31  1  0
  6 32  1  0
  7 33  1  0
  7 34  1  0
  8 35  1  0
  8 36  1  0
  9 37  1  0
  9 38  1  0
 10 39  1  0
 10 40  1  0
 11 41  1  0
 12 42  1  0
 13 43  1  0
 14 44  1  0
 14 45  1  0
 15 46  1  0
 15 47  1  0
 16 48  1  0
 17 49  1  0
 17 50  1  0
 18 51  1  0
 18 52  1  0
 19 53  1  0
 21 54  1  0
 22 55  1  0
 22 56  1  0
 23 57  1  0
 23 58  1  0
 24 59  1  0
 25 60  1  0
 25 61  1  0
 26 62  1  0
 26 63  1  0
M  END
>  <PDBID>  (1) 
4PD4

>  <PDB ID>  (1) 
4PD4

>  <Generic Name>  (1) 
Atovaquone

>  <Brand Name>  (1) 
Atovaquone#Atovaquone Proguanil#Atovaquone and Proguanil HCl#Atovaquone and Proguanil Hydrochloride#Atovaquone and Proguanil Hydrochloride Pediatric#Malarone#Malarone Pediatric#Mepron#Mepron Tab 250mg#Mylan-atovaquone/proguanil#Teva-atovaquone Proguanil

>  <DrugBank ID>  (1) 
DB01117

>  <ATC Codes>  (1) 
P01AX06

>  <Ligand ID>  (1) 
AOQ

>  <Target Name>  (1) 
Cytochrome b

>  <UniProt ID>  (1) 
Q02768

>  <PDB ID.1>  (1) 
4PD4

>  <Seq. Identity>  (1) 
42%

$$$$
