PDB_DB01606_09
     RDKit          3D

 42 44  0  0  0  0  0  0  0  0999 V2000
   -0.5821   -1.3089   -0.6147 S   0  0  0  0  0  0  0  0  0  0  0  0
    0.0879    0.3359    0.4066 C   0  0  1  0  0  0  0  0  0  0  0  0
   -1.2351    0.9558    0.1978 C   0  0  2  0  0  0  0  0  0  0  0  0
   -2.0783   -1.2319    0.3159 C   0  0  2  0  0  0  0  0  0  0  0  0
   -3.3379   -1.1054   -0.4592 C   0  0  0  0  0  0  0  0  0  0  0  0
   -3.5362    0.1510    0.3976 C   0  0  2  0  0  0  0  0  0  0  0  0
   -1.3698    2.3377    0.7292 C   0  0  0  0  0  0  0  0  0  0  0  0
   -2.1680    0.0888    0.8424 N   0  0  0  0  0  0  0  0  0  0  0  0
    0.3336   -0.3396    1.6771 C   0  0  0  0  0  0  0  0  0  0  0  0
    1.1943    0.7234   -0.4484 C   0  0  0  0  0  0  0  0  0  0  0  0
    4.3454   -0.9631   -0.8364 C   0  0  0  0  0  0  0  0  0  0  0  0
    3.2633   -0.0544   -1.3895 C   0  0  0  0  0  0  0  0  0  0  0  0
    2.1591   -0.3865   -0.5082 N   0  0  0  0  0  0  0  0  0  0  0  0
    2.7449   -0.5824    0.7556 N   0  0  0  0  0  0  0  0  0  0  0  0
    3.9009   -1.3489    0.5006 N   0  0  0  0  0  0  0  0  0  0  0  0
   -0.8440   -0.6129   -2.3074 O   0  0  0  0  0  0  0  0  0  0  0  0
    0.5051   -2.4579   -0.5741 O   0  0  0  0  0  0  0  0  0  0  0  0
   -4.4044   -0.0612    1.4816 O   0  0  0  0  0  0  0  0  0  0  0  0
   -0.4476    3.2010    0.0939 O   0  0  0  0  0  0  0  0  0  0  0  0
   -2.6169    2.8701    0.5066 O   0  0  0  0  0  0  0  0  0  0  0  0
   -1.4840    0.9447   -0.9011 H   0  0  0  0  0  0  0  0  0  0  0  0
   -2.0539   -2.0496    1.0821 H   0  0  0  0  0  0  0  0  0  0  0  0
   -4.0769   -1.8735   -0.1586 H   0  0  0  0  0  0  0  0  0  0  0  0
   -3.2657   -0.8983   -1.5351 H   0  0  0  0  0  0  0  0  0  0  0  0
   -3.8190    0.9822   -0.2480 H   0  0  0  0  0  0  0  0  0  0  0  0
   -1.0758    2.3469    1.8026 H   0  0  0  0  0  0  0  0  0  0  0  0
    1.0580    0.1778    2.3164 H   0  0  0  0  0  0  0  0  0  0  0  0
    0.6895   -1.4085    1.5973 H   0  0  0  0  0  0  0  0  0  0  0  0
   -0.6251   -0.4166    2.2470 H   0  0  0  0  0  0  0  0  0  0  0  0
    1.7776    1.5776   -0.0646 H   0  0  0  0  0  0  0  0  0  0  0  0
    0.9241    0.9928   -1.4982 H   0  0  0  0  0  0  0  0  0  0  0  0
    5.2981   -0.3989   -0.7809 H   0  0  0  0  0  0  0  0  0  0  0  0
    4.4151   -1.8575   -1.4867 H   0  0  0  0  0  0  0  0  0  0  0  0
    3.5274    1.0049   -1.1908 H   0  0  0  0  0  0  0  0  0  0  0  0
    3.0506   -0.2112   -2.4447 H   0  0  0  0  0  0  0  0  0  0  0  0
    3.0613    0.3893    1.0427 H   0  0  0  0  0  0  0  0  0  0  0  0
    4.6274   -1.0023    1.1908 H   0  0  0  0  0  0  0  0  0  0  0  0
   -1.1723   -1.4406   -2.6998 H   0  0  0  0  0  0  0  0  0  0  0  0
    0.9334   -2.7135   -1.4239 H   0  0  0  0  0  0  0  0  0  0  0  0
   -4.1321   -0.8407    1.9902 H   0  0  0  0  0  0  0  0  0  0  0  0
   -0.6215    3.0927   -0.8787 H   0  0  0  0  0  0  0  0  0  0  0  0
   -2.9504    3.3917    1.2752 H   0  0  0  0  0  0  0  0  0  0  0  0
  1  2  1  0
  2  3  1  0
  1  4  1  0
  4  5  1  0
  5  6  1  0
  3  7  1  0
  3  8  1  0
  4  8  1  0
  6  8  1  0
  2  9  1  1
  2 10  1  0
 11 12  1  0
 10 13  1  0
 12 13  1  0
 13 14  1  0
 11 15  1  0
 14 15  1  0
  1 16  1  0
  1 17  1  0
  6 18  1  0
  7 19  1  0
  7 20  1  0
  3 21  1  6
  4 22  1  1
  5 23  1  0
  5 24  1  0
  6 25  1  6
  7 26  1  0
  9 27  1  0
  9 28  1  0
  9 29  1  0
 10 30  1  0
 10 31  1  0
 11 32  1  0
 11 33  1  0
 12 34  1  0
 12 35  1  0
 14 36  1  0
 15 37  1  0
 16 38  1  0
 17 39  1  0
 18 40  1  0
 19 41  1  0
 20 42  1  0
M  END
>  <PDBID>  (1) 
1VM1

>  <PDB ID>  (1) 
1VM1

>  <Generic Name>  (1) 
Tazobactam

>  <Brand Name>  (1) 
Jamp-pip/taz#Mylan-piperacillin and Tazobactam for Injection#Piperacillin / Tazobactam Powder for Injection#Piperacillin Sodium/tazobactam Sodium Powder for Injection#Piperacillin and Tazobactam#Piperacillin and Tazobactam for Injection#Piperacillin, Tazobactam#Piperacillin/tazobactam for Injection#Tazocin#Tazocin Pws IV 2g Piperacillin-.25g Tazobac.#Tazocin Pws IV 3g Piperacillin-.375g Tazobac#Tazocin Pws IV 4g Piperacillin-.5g Tazobac.#Vpi-piperacillin and Tazobactam for Injection#Zerbaxa#Zosyn#Zosyn In Galaxy Containers#Zosyn Pharmacy Bulk Package

>  <DrugBank ID>  (1) 
DB01606

>  <ATC Codes>  (1) 
J01CG02

>  <Ligand ID>  (1) 
TAZ

>  <Target Name>  (1) 
Beta-lactamase TEM

>  <UniProt ID>  (1) 
P62594

>  <PDB ID.1>  (1) 
1VM1

>  <Seq. Identity>  (1) 
66%

$$$$
