PDB_DB09053_02
     RDKit          3D

 81 85  0  0  0  0  0  0  0  0999 V2000
   -1.5261   -3.6142   -2.1113 N   0  0  0  0  0  0  0  0  0  0  0  0
   -2.4691   -4.0021   -1.0788 C   0  0  0  0  0  0  0  0  0  0  0  0
   -2.6382   -2.9608   -0.0941 N   0  0  0  0  0  0  0  0  0  0  0  0
   -2.2738   -1.6552   -0.6093 C   0  0  0  0  0  0  0  0  0  0  0  0
   -0.7557   -1.6909   -0.9627 C   0  0  0  0  0  0  0  0  0  0  0  0
   -0.3471   -3.0255   -1.4006 C   0  0  1  0  0  0  0  0  0  0  0  0
   -7.1686    3.0486    1.2701 C   0  0  0  0  0  0  0  0  0  0  0  0
    0.0091   -3.9931   -0.4335 N   0  0  0  0  0  0  0  0  0  0  0  0
   -5.0022    3.3235   -0.5490 O   0  0  0  0  0  0  0  0  0  0  0  0
   -7.2445    2.7357   -0.1912 C   0  0  0  0  0  0  0  0  0  0  0  0
    8.5778    2.3037    0.1017 C   0  0  0  0  0  0  0  0  0  0  0  0
    8.2316    1.0488   -0.6441 C   0  0  0  0  0  0  0  0  0  0  0  0
    7.2818    2.9571    0.5355 C   0  0  0  0  0  0  0  0  0  0  0  0
    7.3875    0.1013    0.1518 C   0  0  0  0  0  0  0  0  0  0  0  0
    6.5886    2.0111    1.4661 C   0  0  0  0  0  0  0  0  0  0  0  0
    3.5360   -0.6681   -0.7310 C   0  0  0  0  0  0  0  0  0  0  0  0
    2.8852    1.1991    0.7360 C   0  0  0  0  0  0  0  0  0  0  0  0
    2.2922   -1.4129   -0.2434 C   0  0  0  0  0  0  0  0  0  0  0  0
    1.6408    0.4503    1.1627 C   0  0  0  0  0  0  0  0  0  0  0  0
   -5.5669   -1.2982    0.0969 C   0  0  0  0  0  0  0  0  0  0  0  0
   -4.5418   -0.9911    1.1637 C   0  0  0  0  0  0  0  0  0  0  0  0
   -6.3198   -0.0352   -0.3066 C   0  0  0  0  0  0  0  0  0  0  0  0
   -4.0985    0.7313   -0.4785 C   0  0  0  0  0  0  0  0  0  0  0  0
   -1.1330    0.0730    0.3979 N   0  0  0  0  0  0  0  0  0  0  0  0
    5.1116    0.9105   -0.0075 O   0  0  0  0  0  0  0  0  0  0  0  0
   -5.9080    2.2859   -0.7495 C   0  0  0  0  0  0  0  0  0  0  0  0
    6.2098    0.7179    0.8290 C   0  0  0  0  0  0  0  0  0  0  0  0
    4.0028    0.2134    0.3995 C   0  0  0  0  0  0  0  0  0  0  0  0
    1.2159   -0.4063   -0.0243 C   0  0  0  0  0  0  0  0  0  0  0  0
   -0.1209   -0.9969    0.1502 C   0  0  0  0  0  0  0  0  0  0  0  0
   -3.4946   -0.0066    0.6900 C   0  0  2  0  0  0  0  0  0  0  0  0
   -2.2919   -0.6857    0.4173 N   0  0  0  0  0  0  0  0  0  0  0  0
   -5.4528    1.0817   -0.1001 N   0  0  0  0  0  0  0  0  0  0  0  0
   -1.1640   -4.4615   -2.5934 H   0  0  0  0  0  0  0  0  0  0  0  0
   -2.0217   -4.8774   -0.5669 H   0  0  0  0  0  0  0  0  0  0  0  0
   -3.4087   -4.3209   -1.5397 H   0  0  0  0  0  0  0  0  0  0  0  0
   -2.1572   -3.1766    0.8060 H   0  0  0  0  0  0  0  0  0  0  0  0
   -2.8716   -1.4234   -1.5069 H   0  0  0  0  0  0  0  0  0  0  0  0
   -0.6930   -1.0111   -1.8690 H   0  0  0  0  0  0  0  0  0  0  0  0
    0.4114   -2.9487   -2.2241 H   0  0  0  0  0  0  0  0  0  0  0  0
   -6.1660    2.8588    1.7049 H   0  0  0  0  0  0  0  0  0  0  0  0
   -7.3886    4.1157    1.4570 H   0  0  0  0  0  0  0  0  0  0  0  0
   -7.9110    2.3847    1.7951 H   0  0  0  0  0  0  0  0  0  0  0  0
    0.7119   -4.6866   -0.7959 H   0  0  0  0  0  0  0  0  0  0  0  0
    0.2623   -3.6225    0.5031 H   0  0  0  0  0  0  0  0  0  0  0  0
   -5.3316    3.9763    0.1291 H   0  0  0  0  0  0  0  0  0  0  0  0
   -8.0529    2.0076   -0.4232 H   0  0  0  0  0  0  0  0  0  0  0  0
   -7.5109    3.6638   -0.7360 H   0  0  0  0  0  0  0  0  0  0  0  0
    9.0775    2.9957   -0.6006 H   0  0  0  0  0  0  0  0  0  0  0  0
    9.2430    2.1274    0.9598 H   0  0  0  0  0  0  0  0  0  0  0  0
    9.1293    0.4959   -0.9774 H   0  0  0  0  0  0  0  0  0  0  0  0
    7.6622    1.3497   -1.5587 H   0  0  0  0  0  0  0  0  0  0  0  0
    7.5580    3.8654    1.1113 H   0  0  0  0  0  0  0  0  0  0  0  0
    6.7060    3.1712   -0.3746 H   0  0  0  0  0  0  0  0  0  0  0  0
    8.0072   -0.4147    0.9347 H   0  0  0  0  0  0  0  0  0  0  0  0
    7.0897   -0.7212   -0.5453 H   0  0  0  0  0  0  0  0  0  0  0  0
    7.2944    1.8206    2.3197 H   0  0  0  0  0  0  0  0  0  0  0  0
    5.6489    2.4878    1.8406 H   0  0  0  0  0  0  0  0  0  0  0  0
    3.2502   -0.0303   -1.5748 H   0  0  0  0  0  0  0  0  0  0  0  0
    4.2748   -1.4235   -1.0016 H   0  0  0  0  0  0  0  0  0  0  0  0
    3.2385    1.8896    1.5092 H   0  0  0  0  0  0  0  0  0  0  0  0
    2.6020    1.7852   -0.1867 H   0  0  0  0  0  0  0  0  0  0  0  0
    2.5942   -1.7616    0.7989 H   0  0  0  0  0  0  0  0  0  0  0  0
    2.0719   -2.2590   -0.8742 H   0  0  0  0  0  0  0  0  0  0  0  0
    1.8176   -0.1498    2.0735 H   0  0  0  0  0  0  0  0  0  0  0  0
    0.8558    1.2190    1.3499 H   0  0  0  0  0  0  0  0  0  0  0  0
   -5.1462   -1.7169   -0.8200 H   0  0  0  0  0  0  0  0  0  0  0  0
   -6.2447   -2.0643    0.5186 H   0  0  0  0  0  0  0  0  0  0  0  0
   -4.0924   -1.9479    1.4818 H   0  0  0  0  0  0  0  0  0  0  0  0
   -5.0941   -0.6113    2.0492 H   0  0  0  0  0  0  0  0  0  0  0  0
   -6.6567   -0.1056   -1.3812 H   0  0  0  0  0  0  0  0  0  0  0  0
   -7.2416   -0.0197    0.3162 H   0  0  0  0  0  0  0  0  0  0  0  0
   -4.1431    0.1626   -1.4038 H   0  0  0  0  0  0  0  0  0  0  0  0
   -3.5380    1.6796   -0.7067 H   0  0  0  0  0  0  0  0  0  0  0  0
   -1.0609    0.6971   -0.4608 H   0  0  0  0  0  0  0  0  0  0  0  0
   -6.0750    2.1013   -1.8306 H   0  0  0  0  0  0  0  0  0  0  0  0
    5.9249    0.0178    1.6705 H   0  0  0  0  0  0  0  0  0  0  0  0
    4.1770   -0.3797    1.3245 H   0  0  0  0  0  0  0  0  0  0  0  0
    1.2447    0.3114   -0.8956 H   0  0  0  0  0  0  0  0  0  0  0  0
   -0.1254   -1.5457    1.1221 H   0  0  0  0  0  0  0  0  0  0  0  0
   -3.3754    0.7455    1.5002 H   0  0  0  0  0  0  0  0  0  0  0  0
  1  2  1  0
  2  3  1  0
  3  4  1  0
  4  5  1  0
  1  6  1  0
  5  6  1  0
  6  8  1  0
  7 10  1  0
 11 12  1  0
 11 13  1  0
 12 14  1  0
 13 15  1  0
 16 18  1  0
 17 19  1  0
 20 21  1  0
 20 22  1  0
  9 26  1  0
 10 26  1  0
 14 27  1  0
 15 27  1  0
 25 27  1  0
 16 28  1  0
 17 28  1  0
 25 28  1  0
 18 29  1  0
 19 29  1  0
  5 30  1  0
 24 30  1  0
 29 30  1  0
 21 31  1  0
 23 31  1  0
  4 32  1  0
 24 32  1  0
 31 32  1  0
 22 33  1  0
 23 33  1  0
 26 33  1  0
  1 34  1  0
  2 35  1  0
  2 36  1  0
  3 37  1  0
  4 38  1  0
  5 39  1  0
  6 40  1  6
  7 41  1  0
  7 42  1  0
  7 43  1  0
  8 44  1  0
  8 45  1  0
  9 46  1  0
 10 47  1  0
 10 48  1  0
 11 49  1  0
 11 50  1  0
 12 51  1  0
 12 52  1  0
 13 53  1  0
 13 54  1  0
 14 55  1  0
 14 56  1  0
 15 57  1  0
 15 58  1  0
 16 59  1  0
 16 60  1  0
 17 61  1  0
 17 62  1  0
 18 63  1  0
 18 64  1  0
 19 65  1  0
 19 66  1  0
 20 67  1  0
 20 68  1  0
 21 69  1  0
 21 70  1  0
 22 71  1  0
 22 72  1  0
 23 73  1  0
 23 74  1  0
 24 75  1  0
 26 76  1  0
 27 77  1  0
 28 78  1  0
 29 79  1  0
 30 80  1  0
 31 81  1  1
M  END
>  <PDBID>  (1) 
5P9I

>  <PDB ID>  (1) 
5P9I

>  <Generic Name>  (1) 
Ibrutinib

>  <Brand Name>  (1) 
Imbruvica

>  <DrugBank ID>  (1) 
DB09053

>  <ATC Codes>  (1) 
L01XE27

>  <Ligand ID>  (1) 
100000000

>  <Target Name>  (1) 
Tyrosine-protein kinase BTK

>  <UniProt ID>  (1) 
Q06187

>  <PDB ID.1>  (1) 
5P9I

>  <Seq. Identity>  (1) 
100%

$$$$
