PDB_DB01254_01
     RDKit          3D

154160  0  0  0  0  0  0  0  0999 V2000
    1.6171    0.2778   -2.2873 C   0  0  0  0  0  0  0  0  0  0  0  0
    2.7195   -0.6583   -1.8058 C   0  0  0  0  0  0  0  0  0  0  0  0
    3.7405    0.0864   -0.9386 C   0  0  0  0  0  0  0  0  0  0  0  0
   -6.3348    0.3208   -1.0361 N   0  0  0  0  0  0  0  0  0  0  0  0
    8.6283    0.3391    0.3633 C   0  0  0  0  0  0  0  0  0  0  0  0
    8.1013    0.6744   -1.0043 C   0  0  0  0  0  0  0  0  0  0  0  0
    6.8750   -0.1364   -1.3869 C   0  0  0  0  0  0  0  0  0  0  0  0
    6.2608    0.5420   -2.5674 C   0  0  0  0  0  0  0  0  0  0  0  0
   -1.0996    0.4101    0.9912 C   0  0  0  0  0  0  0  0  0  0  0  0
   -2.4156   -0.0244    0.4744 C   0  0  0  0  0  0  0  0  0  0  0  0
   -3.3770   -0.4601    1.5405 C   0  0  0  0  0  0  0  0  0  0  0  0
   -1.9539    0.1537    3.2517 C   0  0  0  0  0  0  0  0  0  0  0  0
   -1.8309    0.6761    4.6443 C   0  0  0  0  0  0  0  0  0  0  0  0
   -5.0662   -1.4397    0.1216 C   0  0  0  0  0  0  0  0  0  0  0  0
   -5.4817    0.6752    1.2356 C   0  0  0  0  0  0  0  0  0  0  0  0
   -7.7369    0.0896   -1.0870 C   0  0  0  0  0  0  0  0  0  0  0  0
   -8.1263   -0.3057   -2.4867 C   0  0  0  0  0  0  0  0  0  0  0  0
   -0.0439   -0.5297    0.7460 N   0  0  0  0  0  0  0  0  0  0  0  0
    0.2284   -0.7200   -0.6486 C   0  0  1  0  0  0  0  0  0  0  0  0
    0.6905    0.4783   -1.2463 N   0  0  0  0  0  0  0  0  0  0  0  0
    1.7174   -1.8082   -0.8333 S   0  0  0  0  0  0  0  0  0  0  0  0
    4.7039   -0.8301   -0.5158 N   0  0  0  0  0  0  0  0  0  0  0  0
    6.0282   -0.5197   -0.2559 C   0  0  2  0  0  0  0  0  0  0  0  0
    6.1842    0.5374    0.8462 C   0  0  0  0  0  0  0  0  0  0  0  0
    7.5658    0.3549    1.4231 C   0  0  0  0  0  0  0  0  0  0  0  0
    5.8963    2.1702    0.2740 Cl  0  0  0  0  0  0  0  0  0  0  0  0
    2.9483    0.5482    0.1552 O   0  0  0  0  0  0  0  0  0  0  0  0
   -3.3152    0.3749    2.7436 N   0  0  0  0  0  0  0  0  0  0  0  0
   -1.0839    0.8589    2.3723 N   0  0  0  0  0  0  0  0  0  0  0  0
   -4.7399   -0.5251    1.1467 N   0  0  0  0  0  0  0  0  0  0  0  0
   -5.4964   -0.8200   -1.1892 C   0  0  0  0  0  0  0  0  0  0  0  0
   -5.8905    1.2756   -0.0815 C   0  0  0  0  0  0  0  0  0  0  0  0
   -9.5206   -0.5166   -2.4719 O   0  0  0  0  0  0  0  0  0  0  0  0
    3.1177   -1.1676    0.0215 C   0  0  0  0  0  0  0  0  0  0  0  0
    2.8354   -0.0810   -0.8880 C   0  0  0  0  0  0  0  0  0  0  0  0
    3.6474    1.1165   -1.0821 C   0  0  0  0  0  0  0  0  0  0  0  0
   -7.1689    0.2276   -0.5059 N   0  0  0  0  0  0  0  0  0  0  0  0
    8.3211   -0.2059    0.5467 C   0  0  0  0  0  0  0  0  0  0  0  0
    8.4789    0.7957   -0.5615 C   0  0  0  0  0  0  0  0  0  0  0  0
    7.1645    1.3944   -0.9070 C   0  0  0  0  0  0  0  0  0  0  0  0
    7.2603    1.9508   -2.3139 C   0  0  0  0  0  0  0  0  0  0  0  0
   -1.3777   -0.3891    0.6602 C   0  0  0  0  0  0  0  0  0  0  0  0
   -2.7170   -1.0221    0.8085 C   0  0  0  0  0  0  0  0  0  0  0  0
   -3.7562    0.0428    1.0770 C   0  0  2  0  0  0  0  0  0  0  0  0
   -2.0750    0.4705    2.6747 C   0  0  0  0  0  0  0  0  0  0  0  0
   -1.5877    1.1085    3.9302 C   0  0  0  0  0  0  0  0  0  0  0  0
   -5.5761   -1.3070    0.2640 C   0  0  0  0  0  0  0  0  0  0  0  0
   -6.0217    0.5888    1.6071 C   0  0  0  0  0  0  0  0  0  0  0  0
   -7.9593    0.6895   -1.5848 C   0  0  0  0  0  0  0  0  0  0  0  0
   -8.6867   -0.4320   -2.3007 C   0  0  0  0  0  0  0  0  0  0  0  0
   -0.3219   -1.2886    1.1879 N   0  0  0  0  0  0  0  0  0  0  0  0
    0.7569   -1.3327    0.2182 C   0  0  2  0  0  0  0  0  0  0  0  0
    2.0180   -1.6257    0.8053 N   0  0  0  0  0  0  0  0  0  0  0  0
    1.1002    0.3730   -0.3876 S   0  0  0  0  0  0  0  0  0  0  0  0
    4.9471    0.9180   -1.5299 N   0  0  0  0  0  0  0  0  0  0  0  0
    5.9901    0.3954   -0.7823 C   0  0  0  0  0  0  0  0  0  0  0  0
    6.5327   -0.9519   -1.0748 C   0  0  0  0  0  0  0  0  0  0  0  0
    7.5090   -1.3522    0.0307 C   0  0  0  0  0  0  0  0  0  0  0  0
    7.2613   -1.1398   -2.6733 Cl  0  0  0  0  0  0  0  0  0  0  0  0
    3.5700    2.0011    0.0296 O   0  0  0  0  0  0  0  0  0  0  0  0
   -3.4170    0.8389    2.2683 N   0  0  0  0  0  0  0  0  0  0  0  0
   -1.2460    0.7785    1.5094 N   0  0  0  0  0  0  0  0  0  0  0  0
   -5.0765   -0.4822    1.3370 N   0  0  0  0  0  0  0  0  0  0  0  0
   -6.0259   -0.5501   -0.9518 C   0  0  0  0  0  0  0  0  0  0  0  0
   -6.6993    1.1792    0.4285 C   0  0  0  0  0  0  0  0  0  0  0  0
   -9.4307    0.1445   -3.3402 O   0  0  0  0  0  0  0  0  0  0  0  0
    2.0277    1.2637   -2.5795 H   0  0  0  0  0  0  0  0  0  0  0  0
    1.1419   -0.1698   -3.1797 H   0  0  0  0  0  0  0  0  0  0  0  0
    3.1890   -1.1534   -2.6743 H   0  0  0  0  0  0  0  0  0  0  0  0
    4.0352    0.9667   -1.5036 H   0  0  0  0  0  0  0  0  0  0  0  0
    9.3706    1.1301    0.6250 H   0  0  0  0  0  0  0  0  0  0  0  0
    9.1909   -0.6016    0.3023 H   0  0  0  0  0  0  0  0  0  0  0  0
    7.9416    1.7589   -1.1669 H   0  0  0  0  0  0  0  0  0  0  0  0
    8.9076    0.3989   -1.7214 H   0  0  0  0  0  0  0  0  0  0  0  0
    7.2903   -1.1229   -1.8233 H   0  0  0  0  0  0  0  0  0  0  0  0
    5.4465   -0.0379   -3.0482 H   0  0  0  0  0  0  0  0  0  0  0  0
    6.0387    1.6215   -2.4305 H   0  0  0  0  0  0  0  0  0  0  0  0
    7.0548    0.5662   -3.4029 H   0  0  0  0  0  0  0  0  0  0  0  0
   -0.8282    1.3570    0.4147 H   0  0  0  0  0  0  0  0  0  0  0  0
   -2.8605    0.7422   -0.1952 H   0  0  0  0  0  0  0  0  0  0  0  0
   -2.2649   -0.9361   -0.1739 H   0  0  0  0  0  0  0  0  0  0  0  0
   -3.0561   -1.4950    1.8586 H   0  0  0  0  0  0  0  0  0  0  0  0
   -1.7661   -0.9353    3.2730 H   0  0  0  0  0  0  0  0  0  0  0  0
   -2.4183    1.6298    4.7501 H   0  0  0  0  0  0  0  0  0  0  0  0
   -2.1927   -0.0735    5.3996 H   0  0  0  0  0  0  0  0  0  0  0  0
   -0.7777    0.9184    4.8569 H   0  0  0  0  0  0  0  0  0  0  0  0
   -4.1211   -2.0134   -0.1204 H   0  0  0  0  0  0  0  0  0  0  0  0
   -5.7837   -2.2089    0.4742 H   0  0  0  0  0  0  0  0  0  0  0  0
   -6.3789    0.4951    1.8755 H   0  0  0  0  0  0  0  0  0  0  0  0
   -4.8733    1.4439    1.7710 H   0  0  0  0  0  0  0  0  0  0  0  0
   -8.2488    1.0712   -0.8729 H   0  0  0  0  0  0  0  0  0  0  0  0
   -8.1053   -0.6593   -0.3709 H   0  0  0  0  0  0  0  0  0  0  0  0
   -7.9646    0.5292   -3.1959 H   0  0  0  0  0  0  0  0  0  0  0  0
   -7.6778   -1.2556   -2.8067 H   0  0  0  0  0  0  0  0  0  0  0  0
   -0.2050   -1.4442    1.2117 H   0  0  0  0  0  0  0  0  0  0  0  0
   -0.6224   -1.1908   -1.1973 H   0  0  0  0  0  0  0  0  0  0  0  0
    0.8988    1.2198   -0.5916 H   0  0  0  0  0  0  0  0  0  0  0  0
    4.4842   -1.8288   -0.7370 H   0  0  0  0  0  0  0  0  0  0  0  0
    6.5001   -1.4416    0.2303 H   0  0  0  0  0  0  0  0  0  0  0  0
    5.4617    0.3279    1.6690 H   0  0  0  0  0  0  0  0  0  0  0  0
    7.7723    1.0944    2.2345 H   0  0  0  0  0  0  0  0  0  0  0  0
    7.5708   -0.6370    1.9246 H   0  0  0  0  0  0  0  0  0  0  0  0
    2.8510   -0.1607    0.8076 H   0  0  0  0  0  0  0  0  0  0  0  0
   -3.9844   -0.0172    3.4200 H   0  0  0  0  0  0  0  0  0  0  0  0
   -1.1216    1.8654    2.5035 H   0  0  0  0  0  0  0  0  0  0  0  0
   -5.9605   -1.5950   -1.7907 H   0  0  0  0  0  0  0  0  0  0  0  0
   -4.5683   -0.5034   -1.7169 H   0  0  0  0  0  0  0  0  0  0  0  0
   -6.7057    1.9921    0.1288 H   0  0  0  0  0  0  0  0  0  0  0  0
   -5.0653    1.8878   -0.5320 H   0  0  0  0  0  0  0  0  0  0  0  0
  -10.0148    0.3464   -2.3863 H   0  0  0  0  0  0  0  0  0  0  0  0
    3.9123   -0.8919    0.7555 H   0  0  0  0  0  0  0  0  0  0  0  0
    3.5524   -2.0886   -0.4915 H   0  0  0  0  0  0  0  0  0  0  0  0
    2.6378   -0.5463   -1.9255 H   0  0  0  0  0  0  0  0  0  0  0  0
    3.1136    1.7412   -1.8905 H   0  0  0  0  0  0  0  0  0  0  0  0
    7.9523    0.2400    1.4700 H   0  0  0  0  0  0  0  0  0  0  0  0
    9.3648   -0.5685    0.7951 H   0  0  0  0  0  0  0  0  0  0  0  0
    9.2263    1.5597   -0.2455 H   0  0  0  0  0  0  0  0  0  0  0  0
    8.9441    0.2564   -1.4330 H   0  0  0  0  0  0  0  0  0  0  0  0
    6.9310    2.2191   -0.2162 H   0  0  0  0  0  0  0  0  0  0  0  0
    6.8379    1.3075   -3.0842 H   0  0  0  0  0  0  0  0  0  0  0  0
    6.7608    2.9424   -2.4193 H   0  0  0  0  0  0  0  0  0  0  0  0
    8.3308    2.1217   -2.5995 H   0  0  0  0  0  0  0  0  0  0  0  0
   -1.1331   -0.1384   -0.4056 H   0  0  0  0  0  0  0  0  0  0  0  0
   -3.0145   -1.4414   -0.2057 H   0  0  0  0  0  0  0  0  0  0  0  0
   -2.8027   -1.8068    1.5711 H   0  0  0  0  0  0  0  0  0  0  0  0
   -3.8184    0.7012    0.2007 H   0  0  0  0  0  0  0  0  0  0  0  0
   -2.0622   -0.6275    2.8695 H   0  0  0  0  0  0  0  0  0  0  0  0
   -1.9728    2.0947    4.1678 H   0  0  0  0  0  0  0  0  0  0  0  0
   -1.8566    0.4361    4.7995 H   0  0  0  0  0  0  0  0  0  0  0  0
   -0.4638    1.0421    3.8966 H   0  0  0  0  0  0  0  0  0  0  0  0
   -6.5028   -1.7980    0.6863 H   0  0  0  0  0  0  0  0  0  0  0  0
   -4.9267   -2.1117   -0.0291 H   0  0  0  0  0  0  0  0  0  0  0  0
   -6.7557    0.2673    2.3745 H   0  0  0  0  0  0  0  0  0  0  0  0
   -5.4327    1.4401    2.0708 H   0  0  0  0  0  0  0  0  0  0  0  0
   -7.2690    1.1221   -2.3516 H   0  0  0  0  0  0  0  0  0  0  0  0
   -8.6915    1.4171   -1.2346 H   0  0  0  0  0  0  0  0  0  0  0  0
   -8.0357   -1.1851   -2.7448 H   0  0  0  0  0  0  0  0  0  0  0  0
   -9.4342   -0.9220   -1.6225 H   0  0  0  0  0  0  0  0  0  0  0  0
   -0.7207   -2.2829    1.1944 H   0  0  0  0  0  0  0  0  0  0  0  0
    0.5493   -2.0145   -0.6110 H   0  0  0  0  0  0  0  0  0  0  0  0
    2.0773   -1.3017    1.7941 H   0  0  0  0  0  0  0  0  0  0  0  0
    5.0196    0.6376   -2.5506 H   0  0  0  0  0  0  0  0  0  0  0  0
    5.7350    0.4044    0.3168 H   0  0  0  0  0  0  0  0  0  0  0  0
    5.7423   -1.7605   -1.0161 H   0  0  0  0  0  0  0  0  0  0  0  0
    6.9678   -1.8197    0.8639 H   0  0  0  0  0  0  0  0  0  0  0  0
    8.2003   -2.0904   -0.4330 H   0  0  0  0  0  0  0  0  0  0  0  0
    2.7722    1.7037    0.5804 H   0  0  0  0  0  0  0  0  0  0  0  0
   -4.0417    0.5358    3.0315 H   0  0  0  0  0  0  0  0  0  0  0  0
   -1.4743    1.6747    1.0579 H   0  0  0  0  0  0  0  0  0  0  0  0
   -6.3135   -1.2839   -1.7028 H   0  0  0  0  0  0  0  0  0  0  0  0
   -5.2385    0.1537   -1.3218 H   0  0  0  0  0  0  0  0  0  0  0  0
   -7.6003    1.7363    0.8267 H   0  0  0  0  0  0  0  0  0  0  0  0
   -6.0313    1.9182   -0.0761 H   0  0  0  0  0  0  0  0  0  0  0  0
  -10.4019    0.0158   -3.2333 H   0  0  0  0  0  0  0  0  0  0  0  0
  1  2  1  0
  2  3  1  0
  5  6  1  0
  6  7  1  0
  7  8  1  0
  9 10  1  0
 10 11  1  0
 12 13  1  0
  4 16  1  0
 16 17  1  0
  9 18  1  0
 18 19  1  0
  1 20  1  0
 19 20  1  0
  2 21  1  0
 19 21  1  0
  3 22  1  0
  7 23  1  0
 22 23  1  0
 23 24  1  0
  5 25  1  0
 24 25  1  0
 24 26  1  0
  3 27  1  0
 11 28  1  0
 12 28  1  0
  9 29  1  0
 12 29  1  0
 11 30  1  0
 14 30  1  0
 15 30  1  0
  4 31  1  0
 14 31  1  0
  4 32  1  0
 15 32  1  0
 17 33  1  0
 34 35  1  0
 35 36  1  0
 38 39  1  0
 39 40  1  0
 40 41  1  0
 42 43  1  0
 43 44  1  0
 45 46  1  0
 37 49  1  0
 49 50  1  0
 42 51  1  0
 51 52  1  0
 34 53  1  0
 52 53  1  0
 35 54  1  0
 52 54  1  0
 36 55  1  0
 40 56  1  0
 55 56  1  0
 56 57  1  0
 38 58  1  0
 57 58  1  0
 57 59  1  0
 36 60  1  0
 44 61  1  0
 45 61  1  0
 42 62  1  0
 45 62  1  0
 44 63  1  0
 47 63  1  0
 48 63  1  0
 37 64  1  0
 47 64  1  0
 37 65  1  0
 48 65  1  0
 50 66  1  0
  1 67  1  0
  1 68  1  0
  2 69  1  0
  3 70  1  0
  5 71  1  0
  5 72  1  0
  6 73  1  0
  6 74  1  0
  7 75  1  0
  8 76  1  0
  8 77  1  0
  8 78  1  0
  9 79  1  0
 10 80  1  0
 10 81  1  0
 11 82  1  0
 12 83  1  0
 13 84  1  0
 13 85  1  0
 13 86  1  0
 14 87  1  0
 14 88  1  0
 15 89  1  0
 15 90  1  0
 16 91  1  0
 16 92  1  0
 17 93  1  0
 17 94  1  0
 18 95  1  0
 19 96  1  6
 20 97  1  0
 22 98  1  0
 23 99  1  1
 24100  1  0
 25101  1  0
 25102  1  0
 27103  1  0
 28104  1  0
 29105  1  0
 31106  1  0
 31107  1  0
 32108  1  0
 32109  1  0
 33110  1  0
 34111  1  0
 34112  1  0
 35113  1  0
 36114  1  0
 38115  1  0
 38116  1  0
 39117  1  0
 39118  1  0
 40119  1  0
 41120  1  0
 41121  1  0
 41122  1  0
 42123  1  0
 43124  1  0
 43125  1  0
 44126  1  6
 45127  1  0
 46128  1  0
 46129  1  0
 46130  1  0
 47131  1  0
 47132  1  0
 48133  1  0
 48134  1  0
 49135  1  0
 49136  1  0
 50137  1  0
 50138  1  0
 51139  1  0
 52140  1  6
 53141  1  0
 55142  1  0
 56143  1  0
 57144  1  0
 58145  1  0
 58146  1  0
 60147  1  0
 61148  1  0
 62149  1  0
 64150  1  0
 64151  1  0
 65152  1  0
 65153  1  0
 66154  1  0
M  END
>  <PDBID>  (1) 
2GQG

>  <PDB ID>  (1) 
2GQG

>  <Generic Name>  (1) 
Dasatinib

>  <Brand Name>  (1) 
Sprycel

>  <DrugBank ID>  (1) 
DB01254

>  <ATC Codes>  (1) 
L01XE06

>  <Ligand ID>  (1) 
1N1

>  <Target Name>  (1) 
Tyrosine-protein kinase ABL1

>  <UniProt ID>  (1) 
P00519

>  <PDB ID.1>  (1) 
2GQG

>  <Seq. Identity>  (1) 
96%

$$$$
