PDB_DB00273_05
     RDKit          3D

 45 47  0  0  0  0  0  0  0  0999 V2000
   -0.3760   -3.1052    1.0605 C   0  0  0  0  0  0  0  0  0  0  0  0
    0.5946   -2.4969    0.0712 C   0  0  0  0  0  0  0  0  0  0  0  0
    1.4522   -3.5964   -0.5213 C   0  0  0  0  0  0  0  0  0  0  0  0
    1.3968   -1.5377    0.6869 O   0  0  0  0  0  0  0  0  0  0  0  0
   -0.0564   -1.8747   -0.9800 O   0  0  0  0  0  0  0  0  0  0  0  0
   -0.2250   -0.5330   -0.6222 C   0  0  1  0  0  0  0  0  0  0  0  0
   -1.6288   -0.3146   -0.2002 C   0  0  2  0  0  0  0  0  0  0  0  0
   -2.3251    0.5235   -1.0858 O   0  0  0  0  0  0  0  0  0  0  0  0
   -3.3604    1.0927   -0.3665 C   0  0  0  0  0  0  0  0  0  0  0  0
   -4.6239    0.2619   -0.4067 C   0  0  0  0  0  0  0  0  0  0  0  0
   -3.7034    2.4886   -0.8307 C   0  0  0  0  0  0  0  0  0  0  0  0
   -2.9369    1.2015    0.9564 O   0  0  0  0  0  0  0  0  0  0  0  0
   -1.8029    0.4233    1.0935 C   0  0  2  0  0  0  0  0  0  0  0  0
   -0.5404    1.2598    1.2716 C   0  0  0  0  0  0  0  0  0  0  0  0
    0.4551    0.3087    1.5499 O   0  0  0  0  0  0  0  0  0  0  0  0
    0.8333   -0.3097    0.3852 C   0  0  1  0  0  0  0  0  0  0  0  0
    1.9317    0.5464   -0.2355 C   0  0  0  0  0  0  0  0  0  0  0  0
    2.7398    1.0544    0.7763 O   0  0  0  0  0  0  0  0  0  0  0  0
    4.1539    1.4033    0.5145 S   0  0  0  0  0  0  0  0  0  0  0  0
    5.1889    1.1218    1.8082 O   0  0  0  0  0  0  0  0  0  0  0  0
    4.8267    0.4177   -0.6825 O   0  0  0  0  0  0  0  0  0  0  0  0
    4.4606    2.9666    0.0309 N   0  0  0  0  0  0  0  0  0  0  0  0
    0.1499   -3.9198    1.5803 H   0  0  0  0  0  0  0  0  0  0  0  0
   -1.2984   -3.4603    0.5660 H   0  0  0  0  0  0  0  0  0  0  0  0
   -0.6339   -2.3067    1.7992 H   0  0  0  0  0  0  0  0  0  0  0  0
    0.8344   -4.1228   -1.2700 H   0  0  0  0  0  0  0  0  0  0  0  0
    1.7975   -4.3263    0.2341 H   0  0  0  0  0  0  0  0  0  0  0  0
    2.3389   -3.1552   -1.0076 H   0  0  0  0  0  0  0  0  0  0  0  0
   -0.0325    0.0501   -1.5561 H   0  0  0  0  0  0  0  0  0  0  0  0
   -2.1971   -1.2656   -0.1257 H   0  0  0  0  0  0  0  0  0  0  0  0
   -5.3880    0.7633   -1.0494 H   0  0  0  0  0  0  0  0  0  0  0  0
   -4.4518   -0.7374   -0.8451 H   0  0  0  0  0  0  0  0  0  0  0  0
   -5.0681    0.1698    0.6152 H   0  0  0  0  0  0  0  0  0  0  0  0
   -4.2527    2.5160   -1.7818 H   0  0  0  0  0  0  0  0  0  0  0  0
   -4.3478    2.9358   -0.0324 H   0  0  0  0  0  0  0  0  0  0  0  0
   -2.7791    3.0861   -0.8433 H   0  0  0  0  0  0  0  0  0  0  0  0
   -1.8516   -0.2662    1.9693 H   0  0  0  0  0  0  0  0  0  0  0  0
   -0.6853    1.9451    2.1193 H   0  0  0  0  0  0  0  0  0  0  0  0
   -0.2912    1.7997    0.3225 H   0  0  0  0  0  0  0  0  0  0  0  0
    2.5383   -0.0811   -0.9263 H   0  0  0  0  0  0  0  0  0  0  0  0
    1.4989    1.4017   -0.7895 H   0  0  0  0  0  0  0  0  0  0  0  0
    4.9983    0.2312    2.1748 H   0  0  0  0  0  0  0  0  0  0  0  0
    4.5458    0.7943   -1.5426 H   0  0  0  0  0  0  0  0  0  0  0  0
    3.7606    3.6132    0.4384 H   0  0  0  0  0  0  0  0  0  0  0  0
    4.3603    3.0331   -1.0125 H   0  0  0  0  0  0  0  0  0  0  0  0
  2  1  1  0
  2  3  1  0
  2  4  1  0
  2  5  1  0
  5  6  1  0
  6  7  1  0
  7  8  1  0
  8  9  1  0
  9 10  1  0
  9 11  1  0
  9 12  1  0
  7 13  1  0
 12 13  1  0
 13 14  1  0
 14 15  1  0
  4 16  1  0
  6 16  1  0
 15 16  1  0
 16 17  1  6
 17 18  1  0
 19 18  1  0
 19 20  1  0
 19 21  1  0
 19 22  1  0
  1 23  1  0
  1 24  1  0
  1 25  1  0
  3 26  1  0
  3 27  1  0
  3 28  1  0
  6 29  1  6
  7 30  1  1
 10 31  1  0
 10 32  1  0
 10 33  1  0
 11 34  1  0
 11 35  1  0
 11 36  1  0
 13 37  1  1
 14 38  1  0
 14 39  1  0
 17 40  1  0
 17 41  1  0
 20 42  1  0
 21 43  1  0
 22 44  1  0
 22 45  1  0
M  END
>  <PDBID>  (1) 
3HKU

>  <PDB ID>  (1) 
3HKU

>  <Generic Name>  (1) 
Topiramate

>  <Brand Name>  (1) 
Abbott-topiramate#Accel-topiramate#Act Topiramate#Apo-topiramate#Auro-topiramate#Ava-topiramate#Dom-topiramate#Gd-topiramate#Ipg-topiramate#Jamp-topiramate#Mar-topiramate#Mint-topiramate#Mylan-topiramate#Nu-topiramate#PHL-topiramate#PMS-topiramate#Pro-topiramate#Q-topiramate#Qsymia#Qudexy XR#Ran-topiramate#Ratio-topiramate#Sandoz Topiramate#Sandoz Topiramate Tablets#Teva-topiramate#Topamax#Topamax 100mg#Topamax 200mg#Topamax 25mg#Topiramate#Topiramate Tablets#Topiramate Tablets USP#Trokendi XR#Van-topiramate#Zym-topiramate

>  <DrugBank ID>  (1) 
DB00273

>  <ATC Codes>  (1) 
N03AX11

>  <Ligand ID>  (1) 
TOR

>  <Target Name>  (1) 
Carbonic anhydrase 2

>  <UniProt ID>  (1) 
P00918

>  <PDB ID.1>  (1) 
3HKU

>  <Seq. Identity>  (1) 
100%

$$$$
