PDB_DB01194_04
     RDKit          3D

 52 53  0  0  0  0  0  0  0  0999 V2000
    3.7831   -0.3082    0.3567 C   0  0  0  0  0  0  0  0  0  0  0  0
   -1.3646    0.2890   -0.1237 C   0  0  0  0  0  0  0  0  0  0  0  0
   -0.5065    1.3924    0.4650 C   0  0  1  0  0  0  0  0  0  0  0  0
   -0.7217   -0.3325   -1.3332 C   0  0  2  0  0  0  0  0  0  0  0  0
    0.6562    0.2399   -1.4692 C   0  0  0  0  0  0  0  0  0  0  0  0
   -4.0017    0.1466    1.7394 S   0  0  0  0  0  0  0  0  0  0  0  0
    5.1994    0.1813    0.1557 C   0  0  0  0  0  0  0  0  0  0  0  0
   -1.8267   -2.5068   -3.1433 C   0  0  0  0  0  0  0  0  0  0  0  0
   -1.4253   -1.0739   -3.5338 C   0  0  0  0  0  0  0  0  0  0  0  0
   -1.6838    1.9783    1.7469 S   0  0  0  0  0  0  0  0  0  0  0  0
   -5.2107   -0.4733    0.8822 N   0  0  0  0  0  0  0  0  0  0  0  0
   -3.1426   -0.9159    2.5071 O   0  0  0  0  0  0  0  0  0  0  0  0
   -4.9189    0.9494    3.0583 O   0  0  0  0  0  0  0  0  0  0  0  0
   -3.2051    1.3656    0.9687 C   0  0  0  0  0  0  0  0  0  0  0  0
   -2.6707    0.9380   -0.4098 C   0  0  0  0  0  0  0  0  0  0  0  0
    0.9050    0.6786    1.0831 S   0  0  0  0  0  0  0  0  0  0  0  0
    0.4402   -0.5883    2.3768 O   0  0  0  0  0  0  0  0  0  0  0  0
    2.0401    1.8093    1.7770 O   0  0  0  0  0  0  0  0  0  0  0  0
    1.4922   -0.1979   -0.3564 N   0  0  0  0  0  0  0  0  0  0  0  0
   -1.5760   -0.2014   -2.4375 N   0  0  0  0  0  0  0  0  0  0  0  0
    2.8299    0.3041   -0.6532 C   0  0  0  0  0  0  0  0  0  0  0  0
    6.0986   -0.3819    1.0130 O   0  0  0  0  0  0  0  0  0  0  0  0
    5.8853   -0.2151    2.3532 C   0  0  0  0  0  0  0  0  0  0  0  0
    3.3819   -0.0523    1.3609 H   0  0  0  0  0  0  0  0  0  0  0  0
    3.7341   -1.4182    0.1981 H   0  0  0  0  0  0  0  0  0  0  0  0
   -1.5511   -0.4341    0.7018 H   0  0  0  0  0  0  0  0  0  0  0  0
   -0.2954    2.2202   -0.1993 H   0  0  0  0  0  0  0  0  0  0  0  0
   -0.5947   -1.4229   -1.0835 H   0  0  0  0  0  0  0  0  0  0  0  0
    1.1558   -0.2380   -2.3739 H   0  0  0  0  0  0  0  0  0  0  0  0
    0.7098    1.3102   -1.6764 H   0  0  0  0  0  0  0  0  0  0  0  0
    5.1545    1.3033    0.3038 H   0  0  0  0  0  0  0  0  0  0  0  0
    5.4645    0.0331   -0.9102 H   0  0  0  0  0  0  0  0  0  0  0  0
   -0.9836   -2.9277   -2.5274 H   0  0  0  0  0  0  0  0  0  0  0  0
   -2.7879   -2.4949   -2.5873 H   0  0  0  0  0  0  0  0  0  0  0  0
   -1.8501   -3.0974   -4.0688 H   0  0  0  0  0  0  0  0  0  0  0  0
   -2.1641   -0.7555   -4.3294 H   0  0  0  0  0  0  0  0  0  0  0  0
   -0.4482   -1.1353   -4.0175 H   0  0  0  0  0  0  0  0  0  0  0  0
   -5.8651    0.1392    0.3845 H   0  0  0  0  0  0  0  0  0  0  0  0
   -5.0474   -1.3869    0.4254 H   0  0  0  0  0  0  0  0  0  0  0  0
   -3.4983   -1.1078    3.4402 H   0  0  0  0  0  0  0  0  0  0  0  0
   -4.8744    1.9076    2.8394 H   0  0  0  0  0  0  0  0  0  0  0  0
   -3.8488    2.2505    0.7787 H   0  0  0  0  0  0  0  0  0  0  0  0
   -2.5198    1.8849   -0.9767 H   0  0  0  0  0  0  0  0  0  0  0  0
   -3.4226    0.2793   -0.8453 H   0  0  0  0  0  0  0  0  0  0  0  0
   -0.0718   -1.2184    1.8468 H   0  0  0  0  0  0  0  0  0  0  0  0
    1.7729    1.9871    2.6855 H   0  0  0  0  0  0  0  0  0  0  0  0
   -2.2408    0.5609   -2.4868 H   0  0  0  0  0  0  0  0  0  0  0  0
    3.1171   -0.0055   -1.6548 H   0  0  0  0  0  0  0  0  0  0  0  0
    2.8695    1.4125   -0.5750 H   0  0  0  0  0  0  0  0  0  0  0  0
    6.7366   -0.7454    2.8771 H   0  0  0  0  0  0  0  0  0  0  0  0
    5.9132    0.8325    2.7089 H   0  0  0  0  0  0  0  0  0  0  0  0
    4.9783   -0.7588    2.7383 H   0  0  0  0  0  0  0  0  0  0  0  0
  2  3  1  0
  2  4  1  0
  4  5  1  0
  1  7  1  0
  8  9  1  0
  3 10  1  0
  6 11  1  0
  6 12  1  0
  6 13  1  0
  6 14  1  0
 10 14  1  0
  2 15  1  0
 14 15  1  0
  3 16  1  0
 16 17  1  0
 16 18  1  0
  5 19  1  0
 16 19  1  0
  4 20  1  0
  9 20  1  0
  1 21  1  0
 19 21  1  0
  7 22  1  0
 22 23  1  0
  1 24  1  0
  1 25  1  0
  2 26  1  0
  3 27  1  6
  4 28  1  1
  5 29  1  0
  5 30  1  0
  7 31  1  0
  7 32  1  0
  8 33  1  0
  8 34  1  0
  8 35  1  0
  9 36  1  0
  9 37  1  0
 11 38  1  0
 11 39  1  0
 12 40  1  0
 13 41  1  0
 14 42  1  0
 15 43  1  0
 15 44  1  0
 17 45  1  0
 18 46  1  0
 20 47  1  0
 21 48  1  0
 21 49  1  0
 23 50  1  0
 23 51  1  0
 23 52  1  0
M  END
>  <PDBID>  (1) 
4M2R

>  <PDB ID>  (1) 
4M2R

>  <Generic Name>  (1) 
Brinzolamide

>  <Brand Name>  (1) 
Azarga#Azopt#Sandoz Brinzolamide#Simbrinza

>  <DrugBank ID>  (1) 
DB01194

>  <ATC Codes>  (1) 
S01EC54#S01EC04

>  <Ligand ID>  (1) 
BZ1

>  <Target Name>  (1) 
Carbonic anhydrase 2

>  <UniProt ID>  (1) 
P00918

>  <PDB ID.1>  (1) 
4M2R

>  <Seq. Identity>  (1) 
100%

$$$$
