PDB_DB08912_05
     RDKit          3D

316328  0  0  0  0  0  0  0  0999 V2000
   -3.6743   -2.8645   -0.2555 C   0  0  0  0  0  0  0  0  0  0  0  0
   -2.4013   -1.3875    1.1444 C   0  0  2  0  0  0  0  0  0  0  0  0
   -3.2122   -1.5095   -0.0485 N   0  0  0  0  0  0  0  0  0  0  0  0
   -2.9987   -2.0639    2.3363 C   0  0  0  0  0  0  0  0  0  0  0  0
   -4.6182   -3.1380    0.8104 N   0  0  0  0  0  0  0  0  0  0  0  0
   -3.9053   -3.2008    2.0413 C   0  0  0  0  0  0  0  0  0  0  0  0
   -2.5950   -3.8062   -0.2573 N   0  0  0  0  0  0  0  0  0  0  0  0
   -2.0634    0.0331    1.4560 C   0  0  0  0  0  0  0  0  0  0  0  0
   -3.5957    1.0197    1.7402 S   0  0  0  0  0  0  0  0  0  0  0  0
   -3.3904    2.1254    0.3128 C   0  0  1  0  0  0  0  0  0  0  0  0
   -2.6013    1.2202   -0.5517 N   0  0  0  0  0  0  0  0  0  0  0  0
   -1.5155    0.8218    0.2814 C   0  0  0  0  0  0  0  0  0  0  0  0
   -4.6594    2.5621   -0.3087 C   0  0  0  0  0  0  0  0  0  0  0  0
   -5.4545    3.3044    0.7573 C   0  0  0  0  0  0  0  0  0  0  0  0
   -5.4977    1.4894   -0.9155 C   0  0  0  0  0  0  0  0  0  0  0  0
   -4.3004    3.6243   -1.3526 C   0  0  0  0  0  0  0  0  0  0  0  0
   -0.3601    0.1560   -0.3795 C   0  0  2  0  0  0  0  0  0  0  0  0
    1.9914    0.7926    0.2394 C   0  0  2  0  0  0  0  0  0  0  0  0
    0.7643    0.0035    0.6183 C   0  0  0  0  0  0  0  0  0  0  0  0
    1.6565    2.1585   -0.2682 C   0  0  0  0  0  0  0  0  0  0  0  0
    0.0737    0.7955   -1.6566 C   0  0  0  0  0  0  0  0  0  0  0  0
    0.8905    2.0153   -1.5314 C   0  0  0  0  0  0  0  0  0  0  0  0
    1.1597   -1.3067    0.7909 F   0  0  0  0  0  0  0  0  0  0  0  0
    2.8724    0.0573   -0.6486 N   0  0  0  0  0  0  0  0  0  0  0  0
    4.1312    0.4661   -1.2372 S   0  0  0  0  0  0  0  0  0  0  0  0
    5.6395   -0.2133   -0.8351 C   0  0  0  0  0  0  0  0  0  0  0  0
    5.4307   -2.5380    0.0861 C   0  0  0  0  0  0  0  0  0  0  0  0
    5.7861   -1.6784   -1.1320 C   0  0  0  0  0  0  0  0  0  0  0  0
    6.5681   -2.3705    1.0718 C   0  0  0  0  0  0  0  0  0  0  0  0
    6.0232    0.0010    0.6068 C   0  0  0  0  0  0  0  0  0  0  0  0
    7.1360   -0.9818    0.9696 C   0  0  0  0  0  0  0  0  0  0  0  0
    5.0129   -0.1966    1.4937 F   0  0  0  0  0  0  0  0  0  0  0  0
    5.0851   -2.0861   -2.2425 F   0  0  0  0  0  0  0  0  0  0  0  0
    4.3940    1.9271   -1.8554 O   0  0  0  0  0  0  0  0  0  0  0  0
    3.9491   -0.4417   -2.9850 O   0  0  0  0  0  0  0  0  0  0  0  0
   -5.9036   -1.7351    0.5960 C   0  0  0  0  0  0  0  0  0  0  0  0
   -3.6109   -1.2114    0.6923 C   0  0  0  0  0  0  0  0  0  0  0  0
   -4.8983   -1.1542    1.4641 N   0  0  0  0  0  0  0  0  0  0  0  0
   -3.2927   -2.6805    0.5050 C   0  0  0  0  0  0  0  0  0  0  0  0
   -5.7250   -3.1612    0.6264 N   0  0  0  0  0  0  0  0  0  0  0  0
   -4.4117   -3.5794    0.9553 C   0  0  0  0  0  0  0  0  0  0  0  0
   -5.7750   -1.2482   -0.7626 N   0  0  0  0  0  0  0  0  0  0  0  0
   -2.5671   -0.4818    1.4725 C   0  0  0  0  0  0  0  0  0  0  0  0
   -3.4554    1.1332    1.8994 S   0  0  0  0  0  0  0  0  0  0  0  0
   -2.8036    2.0736    0.4866 C   0  0  1  0  0  0  0  0  0  0  0  0
   -2.2191    0.9678   -0.2967 N   0  0  0  0  0  0  0  0  0  0  0  0
   -1.4848    0.2111    0.7116 C   0  0  2  0  0  0  0  0  0  0  0  0
   -3.8416    2.8311   -0.2611 C   0  0  0  0  0  0  0  0  0  0  0  0
   -4.5143    3.8313    0.6656 C   0  0  0  0  0  0  0  0  0  0  0  0
   -4.8711    1.9424   -0.9210 C   0  0  0  0  0  0  0  0  0  0  0  0
   -3.1509    3.6062   -1.3614 C   0  0  0  0  0  0  0  0  0  0  0  0
   -0.2893   -0.4959    0.2669 C   0  0  2  0  0  0  0  0  0  0  0  0
    2.0000   -0.0685   -0.6482 C   0  0  0  0  0  0  0  0  0  0  0  0
    0.6676    0.5780   -0.3117 C   0  0  0  0  0  0  0  0  0  0  0  0
    1.6671   -0.8749   -1.9163 C   0  0  0  0  0  0  0  0  0  0  0  0
   -0.3935   -1.6514   -0.6412 C   0  0  0  0  0  0  0  0  0  0  0  0
    0.7903   -1.9856   -1.4893 C   0  0  0  0  0  0  0  0  0  0  0  0
    0.7448    1.6061    0.5643 F   0  0  0  0  0  0  0  0  0  0  0  0
    2.9495    0.9720   -0.8843 N   0  0  0  0  0  0  0  0  0  0  0  0
    4.4557    0.3859   -1.2566 S   0  0  0  0  0  0  0  0  0  0  0  0
    5.6194    0.9294   -0.1562 C   0  0  0  0  0  0  0  0  0  0  0  0
    7.3874   -0.8417   -0.0597 C   0  0  0  0  0  0  0  0  0  0  0  0
    7.0052    0.4929   -0.6451 C   0  0  0  0  0  0  0  0  0  0  0  0
    7.6477   -0.6807    1.4313 C   0  0  0  0  0  0  0  0  0  0  0  0
    5.4692    0.4517    1.2593 C   0  0  0  0  0  0  0  0  0  0  0  0
    6.8251    0.4607    1.9564 C   0  0  0  0  0  0  0  0  0  0  0  0
    4.9667   -0.8422    1.3071 F   0  0  0  0  0  0  0  0  0  0  0  0
    7.0766    0.5213   -2.0044 F   0  0  0  0  0  0  0  0  0  0  0  0
    4.8934    0.7861   -2.7581 O   0  0  0  0  0  0  0  0  0  0  0  0
    4.4572   -1.2705   -1.1043 O   0  0  0  0  0  0  0  0  0  0  0  0
   -5.5034   -2.1227    0.9002 C   0  0  0  0  0  0  0  0  0  0  0  0
   -3.4891   -1.9339   -0.2924 C   0  0  2  0  0  0  0  0  0  0  0  0
   -4.2639   -1.3644    0.7944 N   0  0  0  0  0  0  0  0  0  0  0  0
   -2.8941   -3.2171    0.1985 C   0  0  0  0  0  0  0  0  0  0  0  0
   -5.3182   -3.5038    0.5156 N   0  0  0  0  0  0  0  0  0  0  0  0
   -4.0111   -4.0083    0.8511 C   0  0  0  0  0  0  0  0  0  0  0  0
   -6.4303   -1.5340   -0.0523 N   0  0  0  0  0  0  0  0  0  0  0  0
   -2.5184   -0.9716   -0.8843 C   0  0  1  0  0  0  0  0  0  0  0  0
   -3.4965    0.4478   -1.5237 S   0  0  0  0  0  0  0  0  0  0  0  0
   -2.5689    1.7233   -0.6320 C   0  0  0  0  0  0  0  0  0  0  0  0
   -1.7789    1.0133    0.2609 N   0  0  0  0  0  0  0  0  0  0  0  0
   -1.5713   -0.3264    0.0073 C   0  0  0  0  0  0  0  0  0  0  0  0
   -3.5816    2.6569    0.0088 C   0  0  0  0  0  0  0  0  0  0  0  0
   -2.9121    3.7665    0.7834 C   0  0  0  0  0  0  0  0  0  0  0  0
   -4.4843    1.9216    0.9801 C   0  0  0  0  0  0  0  0  0  0  0  0
   -4.4787    3.2947   -1.0270 C   0  0  0  0  0  0  0  0  0  0  0  0
   -0.1440   -0.5709   -0.5311 C   0  0  2  0  0  0  0  0  0  0  0  0
    1.9783    0.7948   -0.2815 C   0  0  2  0  0  0  0  0  0  0  0  0
    0.8597    0.0545    0.3399 C   0  0  0  0  0  0  0  0  0  0  0  0
    1.4708    1.5362   -1.4889 C   0  0  0  0  0  0  0  0  0  0  0  0
   -0.1423   -0.2477   -1.9654 C   0  0  0  0  0  0  0  0  0  0  0  0
    1.0342    0.5158   -2.4800 C   0  0  0  0  0  0  0  0  0  0  0  0
    1.4236   -0.8793    1.2263 F   0  0  0  0  0  0  0  0  0  0  0  0
    3.1519   -0.0061   -0.5563 N   0  0  0  0  0  0  0  0  0  0  0  0
    4.4256    0.4406   -1.1551 S   0  0  0  0  0  0  0  0  0  0  0  0
    5.8918    0.3115   -0.3054 C   0  0  0  0  0  0  0  0  0  0  0  0
    5.8033   -1.4400    1.4941 C   0  0  0  0  0  0  0  0  0  0  0  0
    6.2715   -1.0979    0.0887 C   0  0  0  0  0  0  0  0  0  0  0  0
    6.7181   -0.6907    2.4443 C   0  0  0  0  0  0  0  0  0  0  0  0
    5.8582    1.1350    0.9592 C   0  0  0  0  0  0  0  0  0  0  0  0
    7.0197    0.6472    1.8334 C   0  0  0  0  0  0  0  0  0  0  0  0
    4.6840    1.0552    1.6403 F   0  0  0  0  0  0  0  0  0  0  0  0
    5.8197   -2.0287   -0.8252 F   0  0  0  0  0  0  0  0  0  0  0  0
    4.4705    1.7842   -2.0301 O   0  0  0  0  0  0  0  0  0  0  0  0
    4.7203   -0.7759   -2.5358 O   0  0  0  0  0  0  0  0  0  0  0  0
   -4.6389   -2.7808    1.3212 C   0  0  0  0  0  0  0  0  0  0  0  0
   -3.2035   -1.9705   -0.3073 C   0  0  2  0  0  0  0  0  0  0  0  0
   -3.7666   -1.6486    0.9915 N   0  0  0  0  0  0  0  0  0  0  0  0
   -2.2419   -3.0899   -0.1357 C   0  0  0  0  0  0  0  0  0  0  0  0
   -3.8503   -3.9779    1.4909 N   0  0  0  0  0  0  0  0  0  0  0  0
   -3.0553   -4.3026    0.3375 C   0  0  0  0  0  0  0  0  0  0  0  0
   -5.5957   -2.8739    0.2513 N   0  0  0  0  0  0  0  0  0  0  0  0
   -2.6213   -0.7620   -1.0057 C   0  0  1  0  0  0  0  0  0  0  0  0
   -4.0574    0.3824   -1.1786 S   0  0  0  0  0  0  0  0  0  0  0  0
   -3.5257    1.4171    0.2495 C   0  0  1  0  0  0  0  0  0  0  0  0
   -2.1109    1.3250    0.0683 N   0  0  0  0  0  0  0  0  0  0  0  0
   -1.6884    0.0165   -0.1873 C   0  0  2  0  0  0  0  0  0  0  0  0
   -4.0670    2.7910    0.0515 C   0  0  0  0  0  0  0  0  0  0  0  0
   -3.6295    3.6597    1.2360 C   0  0  0  0  0  0  0  0  0  0  0  0
   -5.5800    2.7615    0.0965 C   0  0  0  0  0  0  0  0  0  0  0  0
   -3.6251    3.4072   -1.2546 C   0  0  0  0  0  0  0  0  0  0  0  0
   -0.3245    0.0283   -0.8524 C   0  0  2  0  0  0  0  0  0  0  0  0
    1.8828    1.2618   -0.5981 C   0  0  2  0  0  0  0  0  0  0  0  0
    0.6519    0.7422    0.0406 C   0  0  0  0  0  0  0  0  0  0  0  0
    1.6877    1.7852   -1.9891 C   0  0  0  0  0  0  0  0  0  0  0  0
   -0.4109    0.6247   -2.2254 C   0  0  0  0  0  0  0  0  0  0  0  0
    1.0296    0.6538   -2.7735 C   0  0  0  0  0  0  0  0  0  0  0  0
    0.0490    1.7014    0.8308 F   0  0  0  0  0  0  0  0  0  0  0  0
    2.9993    0.3208   -0.5235 N   0  0  0  0  0  0  0  0  0  0  0  0
    4.3665    0.5212   -1.0453 S   0  0  0  0  0  0  0  0  0  0  0  0
    5.7119    0.0927   -0.0400 C   0  0  0  0  0  0  0  0  0  0  0  0
    5.4379   -1.6162    1.7926 C   0  0  0  0  0  0  0  0  0  0  0  0
    5.7840   -1.3519    0.3286 C   0  0  0  0  0  0  0  0  0  0  0  0
    6.4969   -0.9735    2.6578 C   0  0  0  0  0  0  0  0  0  0  0  0
    5.7777    0.9144    1.2162 C   0  0  2  0  0  0  0  0  0  0  0  0
    6.8663    0.3725    2.1170 C   0  0  0  0  0  0  0  0  0  0  0  0
    4.5979    0.9374    1.9176 F   0  0  0  0  0  0  0  0  0  0  0  0
    4.9977   -2.1856   -0.4091 F   0  0  0  0  0  0  0  0  0  0  0  0
    4.8482    1.4691   -2.1589 O   0  0  0  0  0  0  0  0  0  0  0  0
    4.4688   -1.1205   -2.1669 O   0  0  0  0  0  0  0  0  0  0  0  0
   -4.1445   -2.8981   -1.2633 H   0  0  0  0  0  0  0  0  0  0  0  0
   -1.4555   -1.9217    0.9206 H   0  0  0  0  0  0  0  0  0  0  0  0
   -3.9765   -0.8335   -0.1011 H   0  0  0  0  0  0  0  0  0  0  0  0
   -3.5936   -1.2933    2.8986 H   0  0  0  0  0  0  0  0  0  0  0  0
   -2.1922   -2.3683    3.0638 H   0  0  0  0  0  0  0  0  0  0  0  0
   -5.3195   -2.3581    0.8500 H   0  0  0  0  0  0  0  0  0  0  0  0
   -4.6456   -3.3864    2.8731 H   0  0  0  0  0  0  0  0  0  0  0  0
   -3.2850   -4.1393    2.0228 H   0  0  0  0  0  0  0  0  0  0  0  0
   -1.6732   -3.3819   -0.4879 H   0  0  0  0  0  0  0  0  0  0  0  0
   -2.7789   -4.6300   -0.8873 H   0  0  0  0  0  0  0  0  0  0  0  0
   -1.4679    0.1230    2.3634 H   0  0  0  0  0  0  0  0  0  0  0  0
   -2.8034    3.0132    0.5930 H   0  0  0  0  0  0  0  0  0  0  0  0
   -2.2361    1.8588   -1.2921 H   0  0  0  0  0  0  0  0  0  0  0  0
   -1.1511    1.7857    0.7624 H   0  0  0  0  0  0  0  0  0  0  0  0
   -6.0480    4.1375    0.2958 H   0  0  0  0  0  0  0  0  0  0  0  0
   -6.1153    2.5681    1.2513 H   0  0  0  0  0  0  0  0  0  0  0  0
   -4.7857    3.7439    1.5193 H   0  0  0  0  0  0  0  0  0  0  0  0
   -5.7732    0.7712   -0.1322 H   0  0  0  0  0  0  0  0  0  0  0  0
   -6.4451    1.9659   -1.2654 H   0  0  0  0  0  0  0  0  0  0  0  0
   -5.0186    1.0275   -1.7869 H   0  0  0  0  0  0  0  0  0  0  0  0
   -3.8367    4.4927   -0.8417 H   0  0  0  0  0  0  0  0  0  0  0  0
   -5.2522    3.9737   -1.7871 H   0  0  0  0  0  0  0  0  0  0  0  0
   -3.6919    3.2190   -2.1624 H   0  0  0  0  0  0  0  0  0  0  0  0
   -0.6765   -0.8753   -0.6363 H   0  0  0  0  0  0  0  0  0  0  0  0
    2.5969    0.9561    1.1814 H   0  0  0  0  0  0  0  0  0  0  0  0
    0.4293    0.3617    1.6056 H   0  0  0  0  0  0  0  0  0  0  0  0
    1.0486    2.6666    0.5067 H   0  0  0  0  0  0  0  0  0  0  0  0
    2.5828    2.7475   -0.4400 H   0  0  0  0  0  0  0  0  0  0  0  0
   -0.8003    0.9876   -2.2919 H   0  0  0  0  0  0  0  0  0  0  0  0
    0.6898    0.0737   -2.2867 H   0  0  0  0  0  0  0  0  0  0  0  0
    1.5807    2.1265   -2.4212 H   0  0  0  0  0  0  0  0  0  0  0  0
    0.2460    2.9434   -1.6173 H   0  0  0  0  0  0  0  0  0  0  0  0
    2.3810   -0.8564   -0.8609 H   0  0  0  0  0  0  0  0  0  0  0  0
    6.4362    0.3064   -1.4454 H   0  0  0  0  0  0  0  0  0  0  0  0
    4.4969   -2.2203    0.5496 H   0  0  0  0  0  0  0  0  0  0  0  0
    5.3386   -3.5945   -0.2424 H   0  0  0  0  0  0  0  0  0  0  0  0
    6.8564   -1.9005   -1.3348 H   0  0  0  0  0  0  0  0  0  0  0  0
    6.2186   -2.5173    2.1095 H   0  0  0  0  0  0  0  0  0  0  0  0
    7.3786   -3.1043    0.8071 H   0  0  0  0  0  0  0  0  0  0  0  0
    6.4710    1.0242    0.7244 H   0  0  0  0  0  0  0  0  0  0  0  0
    7.5152   -0.6699    1.9634 H   0  0  0  0  0  0  0  0  0  0  0  0
    7.9884   -0.9081    0.2653 H   0  0  0  0  0  0  0  0  0  0  0  0
    4.0313    2.0885   -2.7596 H   0  0  0  0  0  0  0  0  0  0  0  0
    3.1589    0.1046   -3.2373 H   0  0  0  0  0  0  0  0  0  0  0  0
   -6.9032   -1.4512    0.9614 H   0  0  0  0  0  0  0  0  0  0  0  0
   -3.8241   -0.6845   -0.2328 H   0  0  0  0  0  0  0  0  0  0  0  0
   -4.7622   -1.7799    2.2730 H   0  0  0  0  0  0  0  0  0  0  0  0
   -2.9859   -2.9106   -0.5198 H   0  0  0  0  0  0  0  0  0  0  0  0
   -2.4455   -2.8944    1.1845 H   0  0  0  0  0  0  0  0  0  0  0  0
   -6.3783   -3.5274    1.3842 H   0  0  0  0  0  0  0  0  0  0  0  0
   -4.3122   -3.8031    2.0593 H   0  0  0  0  0  0  0  0  0  0  0  0
   -4.2316   -4.5762    0.4623 H   0  0  0  0  0  0  0  0  0  0  0  0
   -6.5773   -0.6425   -1.0419 H   0  0  0  0  0  0  0  0  0  0  0  0
   -5.5856   -2.0229   -1.4360 H   0  0  0  0  0  0  0  0  0  0  0  0
   -2.2617   -0.9544    2.4042 H   0  0  0  0  0  0  0  0  0  0  0  0
   -2.0008    2.7767    0.8052 H   0  0  0  0  0  0  0  0  0  0  0  0
   -1.5486    1.4162   -0.9328 H   0  0  0  0  0  0  0  0  0  0  0  0
   -1.1523    1.0494    1.4342 H   0  0  0  0  0  0  0  0  0  0  0  0
   -3.9742    4.7974    0.6879 H   0  0  0  0  0  0  0  0  0  0  0  0
   -4.5318    3.4447    1.7102 H   0  0  0  0  0  0  0  0  0  0  0  0
   -5.5564    3.9347    0.2872 H   0  0  0  0  0  0  0  0  0  0  0  0
   -4.4106    1.2071   -1.5759 H   0  0  0  0  0  0  0  0  0  0  0  0
   -5.4356    1.4393   -0.1188 H   0  0  0  0  0  0  0  0  0  0  0  0
   -5.6104    2.5255   -1.5012 H   0  0  0  0  0  0  0  0  0  0  0  0
   -2.4927    2.9258   -1.9642 H   0  0  0  0  0  0  0  0  0  0  0  0
   -3.8574    4.1576   -1.9912 H   0  0  0  0  0  0  0  0  0  0  0  0
   -2.4360    4.3271   -0.8733 H   0  0  0  0  0  0  0  0  0  0  0  0
    0.2731   -0.8339    1.1927 H   0  0  0  0  0  0  0  0  0  0  0  0
    2.3496   -0.7611    0.1194 H   0  0  0  0  0  0  0  0  0  0  0  0
    0.2454    0.8927   -1.2791 H   0  0  0  0  0  0  0  0  0  0  0  0
    2.5459   -1.2736   -2.4145 H   0  0  0  0  0  0  0  0  0  0  0  0
    1.1236   -0.1810   -2.6236 H   0  0  0  0  0  0  0  0  0  0  0  0
   -1.2619   -1.5111   -1.3156 H   0  0  0  0  0  0  0  0  0  0  0  0
   -0.5035   -2.5741    0.0079 H   0  0  0  0  0  0  0  0  0  0  0  0
    0.4294   -2.5399   -2.3889 H   0  0  0  0  0  0  0  0  0  0  0  0
    1.4504   -2.7348   -0.9579 H   0  0  0  0  0  0  0  0  0  0  0  0
    2.6114    1.7242   -1.4961 H   0  0  0  0  0  0  0  0  0  0  0  0
    5.6669    2.0437   -0.1497 H   0  0  0  0  0  0  0  0  0  0  0  0
    6.5909   -1.5984   -0.2125 H   0  0  0  0  0  0  0  0  0  0  0  0
    8.3382   -1.1631   -0.5769 H   0  0  0  0  0  0  0  0  0  0  0  0
    7.7648    1.2358   -0.2689 H   0  0  0  0  0  0  0  0  0  0  0  0
    7.3120   -1.6003    1.9798 H   0  0  0  0  0  0  0  0  0  0  0  0
    8.7494   -0.5219    1.5818 H   0  0  0  0  0  0  0  0  0  0  0  0
    4.8114    1.1571    1.8258 H   0  0  0  0  0  0  0  0  0  0  0  0
    6.6695    0.2808    3.0489 H   0  0  0  0  0  0  0  0  0  0  0  0
    7.2988    1.4452    1.8778 H   0  0  0  0  0  0  0  0  0  0  0  0
    4.5245    1.6706   -3.0575 H   0  0  0  0  0  0  0  0  0  0  0  0
    4.8697   -1.7286   -1.8989 H   0  0  0  0  0  0  0  0  0  0  0  0
   -5.9667   -2.0242    1.9021 H   0  0  0  0  0  0  0  0  0  0  0  0
   -4.2271   -2.2021   -1.0863 H   0  0  0  0  0  0  0  0  0  0  0  0
   -3.7321   -1.5427    1.6768 H   0  0  0  0  0  0  0  0  0  0  0  0
   -2.1201   -3.0706    0.9796 H   0  0  0  0  0  0  0  0  0  0  0  0
   -2.5331   -3.8014   -0.6604 H   0  0  0  0  0  0  0  0  0  0  0  0
   -5.6098   -3.7035   -0.4526 H   0  0  0  0  0  0  0  0  0  0  0  0
   -3.9331   -3.9851    1.9645 H   0  0  0  0  0  0  0  0  0  0  0  0
   -3.9826   -5.0753    0.5676 H   0  0  0  0  0  0  0  0  0  0  0  0
   -6.3754   -2.0621   -0.9592 H   0  0  0  0  0  0  0  0  0  0  0  0
   -7.4139   -1.5553    0.2939 H   0  0  0  0  0  0  0  0  0  0  0  0
   -2.0556   -1.4249   -1.7839 H   0  0  0  0  0  0  0  0  0  0  0  0
   -1.9679    2.3578   -1.3242 H   0  0  0  0  0  0  0  0  0  0  0  0
   -1.9481    1.3067    1.2368 H   0  0  0  0  0  0  0  0  0  0  0  0
   -1.5613   -0.8797    0.9953 H   0  0  0  0  0  0  0  0  0  0  0  0
   -3.6755    4.5827    0.8946 H   0  0  0  0  0  0  0  0  0  0  0  0
   -2.0550    4.2034    0.2545 H   0  0  0  0  0  0  0  0  0  0  0  0
   -2.6983    3.3938    1.7909 H   0  0  0  0  0  0  0  0  0  0  0  0
   -3.9140    1.3993    1.7754 H   0  0  0  0  0  0  0  0  0  0  0  0
   -5.1162    2.7026    1.4622 H   0  0  0  0  0  0  0  0  0  0  0  0
   -5.1629    1.2648    0.4280 H   0  0  0  0  0  0  0  0  0  0  0  0
   -4.8733    4.2691   -0.7202 H   0  0  0  0  0  0  0  0  0  0  0  0
   -5.3741    2.6372   -1.2244 H   0  0  0  0  0  0  0  0  0  0  0  0
   -3.9614    3.3522   -2.0290 H   0  0  0  0  0  0  0  0  0  0  0  0
   -0.0357   -1.6931   -0.4330 H   0  0  0  0  0  0  0  0  0  0  0  0
    2.3288    1.5931    0.4387 H   0  0  0  0  0  0  0  0  0  0  0  0
    0.3214    0.7712    1.0302 H   0  0  0  0  0  0  0  0  0  0  0  0
    0.5813    2.1098   -1.1662 H   0  0  0  0  0  0  0  0  0  0  0  0
    2.1902    2.2753   -1.8899 H   0  0  0  0  0  0  0  0  0  0  0  0
   -1.0604    0.3421   -2.2611 H   0  0  0  0  0  0  0  0  0  0  0  0
   -0.2182   -1.1714   -2.6164 H   0  0  0  0  0  0  0  0  0  0  0  0
    0.7322    1.0733   -3.4152 H   0  0  0  0  0  0  0  0  0  0  0  0
    1.8110   -0.2040   -2.7679 H   0  0  0  0  0  0  0  0  0  0  0  0
    2.8410   -1.0037   -0.5371 H   0  0  0  0  0  0  0  0  0  0  0  0
    6.7289    0.7011   -0.9211 H   0  0  0  0  0  0  0  0  0  0  0  0
    4.7453   -1.2395    1.6565 H   0  0  0  0  0  0  0  0  0  0  0  0
    6.0384   -2.5292    1.6280 H   0  0  0  0  0  0  0  0  0  0  0  0
    7.3818   -1.1963    0.1066 H   0  0  0  0  0  0  0  0  0  0  0  0
    6.3271   -0.6147    3.4593 H   0  0  0  0  0  0  0  0  0  0  0  0
    7.6892   -1.2567    2.4977 H   0  0  0  0  0  0  0  0  0  0  0  0
    6.1203    2.2039    0.7192 H   0  0  0  0  0  0  0  0  0  0  0  0
    7.1952    1.4241    2.6114 H   0  0  0  0  0  0  0  0  0  0  0  0
    7.9270    0.6048    1.2117 H   0  0  0  0  0  0  0  0  0  0  0  0
    4.4474    1.7008   -3.0202 H   0  0  0  0  0  0  0  0  0  0  0  0
    4.1514   -0.4137   -3.2321 H   0  0  0  0  0  0  0  0  0  0  0  0
   -5.1017   -2.5507    2.2917 H   0  0  0  0  0  0  0  0  0  0  0  0
   -4.0438   -2.3405   -0.9431 H   0  0  0  0  0  0  0  0  0  0  0  0
   -2.9739   -1.7146    1.6892 H   0  0  0  0  0  0  0  0  0  0  0  0
   -1.4743   -2.9283    0.6466 H   0  0  0  0  0  0  0  0  0  0  0  0
   -1.8056   -3.3802   -1.1124 H   0  0  0  0  0  0  0  0  0  0  0  0
   -4.4989   -4.7689    1.6579 H   0  0  0  0  0  0  0  0  0  0  0  0
   -2.3020   -5.0575    0.6573 H   0  0  0  0  0  0  0  0  0  0  0  0
   -3.6293   -4.7511   -0.4928 H   0  0  0  0  0  0  0  0  0  0  0  0
   -5.6348   -3.8094   -0.2013 H   0  0  0  0  0  0  0  0  0  0  0  0
   -6.5319   -2.4933    0.5017 H   0  0  0  0  0  0  0  0  0  0  0  0
   -2.3231   -1.0675   -2.0022 H   0  0  0  0  0  0  0  0  0  0  0  0
   -3.8930    1.0100    1.1966 H   0  0  0  0  0  0  0  0  0  0  0  0
   -1.7184    2.0720   -0.5409 H   0  0  0  0  0  0  0  0  0  0  0  0
   -1.5288   -0.5068    0.8008 H   0  0  0  0  0  0  0  0  0  0  0  0
   -2.5828    3.9891    1.1174 H   0  0  0  0  0  0  0  0  0  0  0  0
   -3.6669    3.0337    2.1503 H   0  0  0  0  0  0  0  0  0  0  0  0
   -4.3338    4.5009    1.3985 H   0  0  0  0  0  0  0  0  0  0  0  0
   -5.8843    1.9998    0.8360 H   0  0  0  0  0  0  0  0  0  0  0  0
   -5.9649    3.7399    0.5080 H   0  0  0  0  0  0  0  0  0  0  0  0
   -6.0149    2.6016   -0.9014 H   0  0  0  0  0  0  0  0  0  0  0  0
   -2.6771    3.9809   -1.1236 H   0  0  0  0  0  0  0  0  0  0  0  0
   -4.4219    4.0640   -1.6628 H   0  0  0  0  0  0  0  0  0  0  0  0
   -3.4552    2.6146   -2.0351 H   0  0  0  0  0  0  0  0  0  0  0  0
    0.0112   -1.0213   -0.9715 H   0  0  0  0  0  0  0  0  0  0  0  0
    2.2266    2.1469    0.0190 H   0  0  0  0  0  0  0  0  0  0  0  0
    0.9983   -0.0388    0.7878 H   0  0  0  0  0  0  0  0  0  0  0  0
    0.9382    2.6106   -1.9236 H   0  0  0  0  0  0  0  0  0  0  0  0
    2.6259    2.1247   -2.4116 H   0  0  0  0  0  0  0  0  0  0  0  0
   -0.7385    1.6703   -2.2660 H   0  0  0  0  0  0  0  0  0  0  0  0
   -0.9499   -0.0189   -2.9119 H   0  0  0  0  0  0  0  0  0  0  0  0
    1.0472    0.8193   -3.8523 H   0  0  0  0  0  0  0  0  0  0  0  0
    1.4530   -0.3381   -2.4957 H   0  0  0  0  0  0  0  0  0  0  0  0
    2.6147   -0.6141   -0.2610 H   0  0  0  0  0  0  0  0  0  0  0  0
    6.6433    0.3309   -0.6293 H   0  0  0  0  0  0  0  0  0  0  0  0
    4.4159   -1.3438    2.0497 H   0  0  0  0  0  0  0  0  0  0  0  0
    5.5579   -2.7327    1.9112 H   0  0  0  0  0  0  0  0  0  0  0  0
    6.8392   -1.7429    0.2208 H   0  0  0  0  0  0  0  0  0  0  0  0
    6.1031   -0.8175    3.7039 H   0  0  0  0  0  0  0  0  0  0  0  0
    7.3608   -1.6592    2.7641 H   0  0  0  0  0  0  0  0  0  0  0  0
    6.1073    1.9370    0.9146 H   0  0  0  0  0  0  0  0  0  0  0  0
    7.0339    1.0967    2.9572 H   0  0  0  0  0  0  0  0  0  0  0  0
    7.8377    0.2873    1.5907 H   0  0  0  0  0  0  0  0  0  0  0  0
    4.8460    1.2835   -3.1102 H   0  0  0  0  0  0  0  0  0  0  0  0
    3.8277   -0.7500   -2.8254 H   0  0  0  0  0  0  0  0  0  0  0  0
  1  3  1  0
  2  3  1  0
  2  4  1  0
  1  5  1  0
  4  6  1  0
  5  6  1  0
  1  7  1  0
  2  8  1  0
  8  9  1  0
  9 10  1  0
 10 11  1  0
  8 12  1  0
 11 12  1  0
 10 13  1  0
 13 14  1  0
 13 15  1  0
 13 16  1  0
 12 17  1  0
 17 19  1  0
 18 19  1  0
 18 20  1  0
 17 21  1  0
 20 22  1  0
 21 22  1  0
 19 23  1  0
 18 24  1  0
 24 25  1  0
 25 26  1  0
 26 28  1  0
 27 28  1  0
 27 29  1  0
 26 30  1  0
 29 31  1  0
 30 31  1  0
 30 32  1  0
 28 33  1  0
 25 34  1  0
 25 35  1  0
 36 38  1  0
 37 38  1  0
 37 39  1  0
 36 40  1  0
 39 41  1  0
 40 41  1  0
 36 42  1  0
 37 43  1  0
 43 44  1  0
 44 45  1  0
 45 46  1  0
 43 47  1  0
 46 47  1  0
 45 48  1  0
 48 49  1  0
 48 50  1  0
 48 51  1  0
 47 52  1  0
 52 54  1  0
 53 54  1  0
 53 55  1  0
 52 56  1  0
 55 57  1  0
 56 57  1  0
 54 58  1  0
 53 59  1  0
 59 60  1  0
 60 61  1  0
 61 63  1  0
 62 63  1  0
 62 64  1  0
 61 65  1  0
 64 66  1  0
 65 66  1  0
 65 67  1  0
 63 68  1  0
 60 69  1  0
 60 70  1  0
 71 73  1  0
 72 73  1  0
 72 74  1  0
 71 75  1  0
 74 76  1  0
 75 76  1  0
 71 77  1  0
 72 78  1  0
 78 79  1  0
 79 80  1  0
 80 81  1  0
 78 82  1  0
 81 82  1  0
 80 83  1  0
 83 84  1  0
 83 85  1  0
 83 86  1  0
 82 87  1  0
 87 89  1  0
 88 89  1  0
 88 90  1  0
 87 91  1  0
 90 92  1  0
 91 92  1  0
 89 93  1  0
 88 94  1  0
 94 95  1  0
 95 96  1  0
 96 98  1  0
 97 98  1  0
 97 99  1  0
 96100  1  0
 99101  1  0
100101  1  0
100102  1  0
 98103  1  0
 95104  1  0
 95105  1  0
106108  1  0
107108  1  0
107109  1  0
106110  1  0
109111  1  0
110111  1  0
106112  1  0
107113  1  0
113114  1  0
114115  1  0
115116  1  0
113117  1  0
116117  1  0
115118  1  0
118119  1  0
118120  1  0
118121  1  0
117122  1  0
122124  1  0
123124  1  0
123125  1  0
122126  1  0
125127  1  0
126127  1  0
124128  1  0
123129  1  0
129130  1  0
130131  1  0
131133  1  0
132133  1  0
132134  1  0
131135  1  0
134136  1  0
135136  1  0
135137  1  0
133138  1  0
130139  1  0
130140  1  0
  1141  1  0
  2142  1  6
  3143  1  0
  4144  1  0
  4145  1  0
  5146  1  0
  6147  1  0
  6148  1  0
  7149  1  0
  7150  1  0
  8151  1  0
 10152  1  1
 11153  1  0
 12154  1  0
 14155  1  0
 14156  1  0
 14157  1  0
 15158  1  0
 15159  1  0
 15160  1  0
 16161  1  0
 16162  1  0
 16163  1  0
 17164  1  6
 18165  1  1
 19166  1  0
 20167  1  0
 20168  1  0
 21169  1  0
 21170  1  0
 22171  1  0
 22172  1  0
 24173  1  0
 26174  1  0
 27175  1  0
 27176  1  0
 28177  1  0
 29178  1  0
 29179  1  0
 30180  1  0
 31181  1  0
 31182  1  0
 34183  1  0
 35184  1  0
 36185  1  0
 37186  1  0
 38187  1  0
 39188  1  0
 39189  1  0
 40190  1  0
 41191  1  0
 41192  1  0
 42193  1  0
 42194  1  0
 43195  1  0
 45196  1  1
 46197  1  0
 47198  1  1
 49199  1  0
 49200  1  0
 49201  1  0
 50202  1  0
 50203  1  0
 50204  1  0
 51205  1  0
 51206  1  0
 51207  1  0
 52208  1  1
 53209  1  0
 54210  1  0
 55211  1  0
 55212  1  0
 56213  1  0
 56214  1  0
 57215  1  0
 57216  1  0
 59217  1  0
 61218  1  0
 62219  1  0
 62220  1  0
 63221  1  0
 64222  1  0
 64223  1  0
 65224  1  0
 66225  1  0
 66226  1  0
 69227  1  0
 70228  1  0
 71229  1  0
 72230  1  6
 73231  1  0
 74232  1  0
 74233  1  0
 75234  1  0
 76235  1  0
 76236  1  0
 77237  1  0
 77238  1  0
 78239  1  6
 80240  1  0
 81241  1  0
 82242  1  0
 84243  1  0
 84244  1  0
 84245  1  0
 85246  1  0
 85247  1  0
 85248  1  0
 86249  1  0
 86250  1  0
 86251  1  0
 87252  1  6
 88253  1  1
 89254  1  0
 90255  1  0
 90256  1  0
 91257  1  0
 91258  1  0
 92259  1  0
 92260  1  0
 94261  1  0
 96262  1  0
 97263  1  0
 97264  1  0
 98265  1  0
 99266  1  0
 99267  1  0
100268  1  0
101269  1  0
101270  1  0
104271  1  0
105272  1  0
106273  1  0
107274  1  6
108275  1  0
109276  1  0
109277  1  0
110278  1  0
111279  1  0
111280  1  0
112281  1  0
112282  1  0
113283  1  6
115284  1  1
116285  1  0
117286  1  1
119287  1  0
119288  1  0
119289  1  0
120290  1  0
120291  1  0
120292  1  0
121293  1  0
121294  1  0
121295  1  0
122296  1  6
123297  1  1
124298  1  0
125299  1  0
125300  1  0
126301  1  0
126302  1  0
127303  1  0
127304  1  0
129305  1  0
131306  1  0
132307  1  0
132308  1  0
133309  1  0
134310  1  0
134311  1  0
135312  1  6
136313  1  0
136314  1  0
139315  1  0
140316  1  0
M  END
>  <PDBID>  (1) 
5HIE

>  <PDB ID>  (1) 
5HIE

>  <Generic Name>  (1) 
Dabrafenib

>  <Brand Name>  (1) 
Tafinlar

>  <DrugBank ID>  (1) 
DB08912

>  <ATC Codes>  (1) 
L01XE23

>  <Ligand ID>  (1) 
P06

>  <Target Name>  (1) 
RAF proto-oncogene serine/threonine-protein kinase

>  <UniProt ID>  (1) 
P04049

>  <PDB ID.1>  (1) 
5HIE

>  <Seq. Identity>  (1) 
77%

$$$$
