PDB_DB00410_05
     RDKit          3D

 85 86  0  0  0  0  0  0  0  0999 V2000
    2.4955   -1.2689   -4.0080 C   0  0  0  0  0  0  0  0  0  0  0  0
    1.5227   -0.2908   -3.4538 C   0  0  0  0  0  0  0  0  0  0  0  0
    0.1498   -0.8963   -3.1609 C   0  0  0  0  0  0  0  0  0  0  0  0
   -0.6954    0.2358   -2.6405 C   0  0  0  0  0  0  0  0  0  0  0  0
   -2.0912   -0.1407   -2.2625 C   0  0  1  0  0  0  0  0  0  0  0  0
   -2.0027   -1.1772   -1.1611 C   0  0  1  0  0  0  0  0  0  0  0  0
   -3.0964   -0.8978   -0.0987 C   0  0  1  0  0  0  0  0  0  0  0  0
   -4.3196   -0.5237   -0.8526 C   0  0  1  0  0  0  0  0  0  0  0  0
   -5.6126   -0.5166   -0.1450 C   0  0  0  0  0  0  0  0  0  0  0  0
   -5.8429    0.3918    0.9887 C   0  0  1  0  0  0  0  0  0  0  0  0
   -5.0424    0.3468    2.2476 C   0  0  2  0  0  0  0  0  0  0  0  0
   -5.7876    0.5852    3.5376 C   0  0  2  0  0  0  0  0  0  0  0  0
   -6.8467   -0.4135    3.8405 C   0  0  2  0  0  0  0  0  0  0  0  0
   -7.9606   -0.5398    2.8536 C   0  0  0  0  0  0  0  0  0  0  0  0
   -0.4763   -1.4880   -4.3703 C   0  0  0  0  0  0  0  0  0  0  0  0
   -4.0846    0.7969   -1.6011 C   0  0  0  0  0  0  0  0  0  0  0  0
    6.1507    2.3460    4.3815 C   0  0  0  0  0  0  0  0  0  0  0  0
    7.1439    3.3075    4.2396 O   0  0  0  0  0  0  0  0  0  0  0  0
    6.4060    1.6660    5.5965 O   0  0  0  0  0  0  0  0  0  0  0  0
    6.2178    1.3418    3.2766 C   0  0  0  0  0  0  0  0  0  0  0  0
    6.0297    2.0481    1.9257 C   0  0  0  0  0  0  0  0  0  0  0  0
    6.1280    0.9338    0.8882 C   0  0  0  0  0  0  0  0  0  0  0  0
    5.9681    1.5230   -0.4707 C   0  0  0  0  0  0  0  0  0  0  0  0
    6.0547    0.4436   -1.5598 C   0  0  0  0  0  0  0  0  0  0  0  0
    4.9933   -0.5743   -1.4105 C   0  0  0  0  0  0  0  0  0  0  0  0
    4.9608   -1.6924   -2.3622 C   0  0  0  0  0  0  0  0  0  0  0  0
    4.8205   -1.4251   -3.8004 C   0  0  0  0  0  0  0  0  0  0  0  0
    3.7377   -0.7700   -4.2655 O   0  0  0  0  0  0  0  0  0  0  0  0
    1.9548   -1.8738   -5.1974 O   0  0  0  0  0  0  0  0  0  0  0  0
   -2.7017    0.9898   -1.6991 O   0  0  0  0  0  0  0  0  0  0  0  0
   -3.2898   -2.1501    0.5036 O   0  0  0  0  0  0  0  0  0  0  0  0
   -2.1463   -2.4578   -1.6702 O   0  0  0  0  0  0  0  0  0  0  0  0
   -4.8418    1.3302    1.3219 O   0  0  0  0  0  0  0  0  0  0  0  0
   -6.3381    1.9980    3.6042 C   0  0  0  0  0  0  0  0  0  0  0  0
   -7.4512   -0.1560    5.0932 O   0  0  0  0  0  0  0  0  0  0  0  0
    2.5853   -2.1371   -3.3401 H   0  0  0  0  0  0  0  0  0  0  0  0
    1.3297    0.5788   -4.1016 H   0  0  0  0  0  0  0  0  0  0  0  0
    1.8520    0.1299   -2.4756 H   0  0  0  0  0  0  0  0  0  0  0  0
    0.3019   -1.6629   -2.3546 H   0  0  0  0  0  0  0  0  0  0  0  0
   -0.2079    0.7565   -1.7838 H   0  0  0  0  0  0  0  0  0  0  0  0
   -0.7742    1.0193   -3.4409 H   0  0  0  0  0  0  0  0  0  0  0  0
   -2.6897   -0.5612   -3.0704 H   0  0  0  0  0  0  0  0  0  0  0  0
   -1.0438   -1.0482   -0.6207 H   0  0  0  0  0  0  0  0  0  0  0  0
   -2.7217   -0.1751    0.6166 H   0  0  0  0  0  0  0  0  0  0  0  0
   -4.4164   -1.2870   -1.6868 H   0  0  0  0  0  0  0  0  0  0  0  0
   -6.4195   -0.3549   -0.9381 H   0  0  0  0  0  0  0  0  0  0  0  0
   -5.8052   -1.5942    0.1725 H   0  0  0  0  0  0  0  0  0  0  0  0
   -6.8401    0.9267    0.9636 H   0  0  0  0  0  0  0  0  0  0  0  0
   -4.2408   -0.4335    2.3016 H   0  0  0  0  0  0  0  0  0  0  0  0
   -5.0259    0.5130    4.3545 H   0  0  0  0  0  0  0  0  0  0  0  0
   -6.3251   -1.4051    4.0022 H   0  0  0  0  0  0  0  0  0  0  0  0
   -7.6386   -1.0264    1.9167 H   0  0  0  0  0  0  0  0  0  0  0  0
   -8.7457   -1.2283    3.3191 H   0  0  0  0  0  0  0  0  0  0  0  0
   -8.4407    0.4260    2.6146 H   0  0  0  0  0  0  0  0  0  0  0  0
   -0.1736   -1.0326   -5.3379 H   0  0  0  0  0  0  0  0  0  0  0  0
   -1.5789   -1.5089   -4.3962 H   0  0  0  0  0  0  0  0  0  0  0  0
   -0.1836   -2.5847   -4.3830 H   0  0  0  0  0  0  0  0  0  0  0  0
   -4.5600    0.7431   -2.5868 H   0  0  0  0  0  0  0  0  0  0  0  0
   -4.4971    1.6231   -1.0139 H   0  0  0  0  0  0  0  0  0  0  0  0
    5.1634    2.8175    4.4073 H   0  0  0  0  0  0  0  0  0  0  0  0
    7.9704    2.9779    4.6739 H   0  0  0  0  0  0  0  0  0  0  0  0
    7.3814    1.6093    5.7729 H   0  0  0  0  0  0  0  0  0  0  0  0
    7.1832    0.7823    3.2672 H   0  0  0  0  0  0  0  0  0  0  0  0
    5.4080    0.5839    3.3579 H   0  0  0  0  0  0  0  0  0  0  0  0
    5.0265    2.5004    1.8891 H   0  0  0  0  0  0  0  0  0  0  0  0
    6.7889    2.8336    1.7886 H   0  0  0  0  0  0  0  0  0  0  0  0
    5.3617    0.1995    1.1855 H   0  0  0  0  0  0  0  0  0  0  0  0
    7.1698    0.5184    1.0451 H   0  0  0  0  0  0  0  0  0  0  0  0
    6.7620    2.2803   -0.6112 H   0  0  0  0  0  0  0  0  0  0  0  0
    4.9937    2.0533   -0.5262 H   0  0  0  0  0  0  0  0  0  0  0  0
    5.8740    1.0017   -2.5179 H   0  0  0  0  0  0  0  0  0  0  0  0
    7.0745    0.0735   -1.5604 H   0  0  0  0  0  0  0  0  0  0  0  0
    5.0364   -1.0255   -0.3749 H   0  0  0  0  0  0  0  0  0  0  0  0
    3.9934   -0.0552   -1.4159 H   0  0  0  0  0  0  0  0  0  0  0  0
    5.8818   -2.3459   -2.2419 H   0  0  0  0  0  0  0  0  0  0  0  0
    4.1401   -2.4204   -2.0608 H   0  0  0  0  0  0  0  0  0  0  0  0
    5.7280   -0.8309   -4.1402 H   0  0  0  0  0  0  0  0  0  0  0  0
    5.0022   -2.4175   -4.3256 H   0  0  0  0  0  0  0  0  0  0  0  0
    2.4516   -2.7056   -5.4033 H   0  0  0  0  0  0  0  0  0  0  0  0
   -2.7587   -2.2392    1.3266 H   0  0  0  0  0  0  0  0  0  0  0  0
   -1.5796   -3.1335   -1.2060 H   0  0  0  0  0  0  0  0  0  0  0  0
   -6.2654    2.5183    2.6358 H   0  0  0  0  0  0  0  0  0  0  0  0
   -5.8530    2.6052    4.3945 H   0  0  0  0  0  0  0  0  0  0  0  0
   -7.4170    1.9203    3.8801 H   0  0  0  0  0  0  0  0  0  0  0  0
   -8.3638    0.1906    5.0055 H   0  0  0  0  0  0  0  0  0  0  0  0
  1  2  1  0
  2  3  1  0
  3  4  1  0
  4  5  1  0
  5  6  1  0
  6  7  1  0
  7  8  1  0
  8  9  1  0
  9 10  1  0
 10 11  1  0
 11 12  1  0
 12 13  1  0
 13 14  1  0
  3 15  1  0
  8 16  1  0
 17 18  1  0
 17 19  1  0
 17 20  1  0
 20 21  1  0
 21 22  1  0
 22 23  1  0
 23 24  1  0
 24 25  1  0
 25 26  1  0
 26 27  1  0
  1 28  1  0
 27 28  1  0
  1 29  1  0
  5 30  1  0
 16 30  1  0
  7 31  1  0
  6 32  1  0
 10 33  1  0
 11 33  1  0
 12 34  1  0
 13 35  1  0
  1 36  1  0
  2 37  1  0
  2 38  1  0
  3 39  1  0
  4 40  1  0
  4 41  1  0
  5 42  1  6
  6 43  1  1
  7 44  1  1
  8 45  1  6
  9 46  1  0
  9 47  1  0
 10 48  1  1
 11 49  1  1
 12 50  1  1
 13 51  1  1
 14 52  1  0
 14 53  1  0
 14 54  1  0
 15 55  1  0
 15 56  1  0
 15 57  1  0
 16 58  1  0
 16 59  1  0
 17 60  1  0
 18 61  1  0
 19 62  1  0
 20 63  1  0
 20 64  1  0
 21 65  1  0
 21 66  1  0
 22 67  1  0
 22 68  1  0
 23 69  1  0
 23 70  1  0
 24 71  1  0
 24 72  1  0
 25 73  1  0
 25 74  1  0
 26 75  1  0
 26 76  1  0
 27 77  1  0
 27 78  1  0
 29 79  1  0
 31 80  1  0
 32 81  1  0
 34 82  1  0
 34 83  1  0
 34 84  1  0
 35 85  1  0
M  END
>  <PDBID>  (1) 
1FFY

>  <PDB ID>  (1) 
1FFY

>  <Generic Name>  (1) 
Mupirocin

>  <Brand Name>  (1) 
Bactroban#Bactroban Cream#Bactroban Nasal Ointment#Centany#Centany At#Mupirocin#Mupirocin 2%#Mupirocin Calcium#Taro-mupirocin#Bactroban Nasal#Plasimine#Spectroderm#T-Bact#Turixin

>  <DrugBank ID>  (1) 
DB00410

>  <ATC Codes>  (1) 
R01AX06#D06AX09

>  <Ligand ID>  (1) 
MRC

>  <Target Name>  (1) 
Isoleucine--tRNA ligase

>  <UniProt ID>  (1) 
P41972

>  <PDB ID.1>  (1) 
1FFY

>  <Seq. Identity>  (1) 
95%

$$$$
