PDB_DB08915_02
     RDKit          3D

 74 77  0  0  0  0  0  0  0  0999 V2000
    1.5269   -1.1487   -0.7995 C   0  0  0  0  0  0  0  0  0  0  0  0
    2.1577    0.0974   -0.2885 C   0  0  0  0  0  0  0  0  0  0  0  0
    3.2429   -0.2900    0.5499 O   0  0  0  0  0  0  0  0  0  0  0  0
    4.3960    0.1580   -0.0393 C   0  0  0  0  0  0  0  0  0  0  0  0
    5.6055   -0.6867    0.1686 C   0  0  0  0  0  0  0  0  0  0  0  0
    5.8287   -0.7676    1.6799 C   0  0  0  0  0  0  0  0  0  0  0  0
    7.0679   -1.5495    2.0230 C   0  0  0  0  0  0  0  0  0  0  0  0
    7.3248   -2.6715    1.0652 C   0  0  0  0  0  0  0  0  0  0  0  0
    6.0254   -3.1247    0.4498 C   0  0  0  0  0  0  0  0  0  0  0  0
    5.5208   -2.0310   -0.4809 C   0  0  0  0  0  0  0  0  0  0  0  0
    4.0775    0.3065   -1.4746 N   0  0  0  0  0  0  0  0  0  0  0  0
    2.7825    0.9890   -1.3073 C   0  0  0  0  0  0  0  0  0  0  0  0
    2.0443    1.2162   -2.5659 C   0  0  0  0  0  0  0  0  0  0  0  0
    0.7139    1.8637   -2.2569 C   0  0  0  0  0  0  0  0  0  0  0  0
   -0.0059    1.0474   -1.4433 O   0  0  0  0  0  0  0  0  0  0  0  0
   -1.2764    1.5608   -1.0904 C   0  0  0  0  0  0  0  0  0  0  0  0
   -1.2687    1.9315    0.3649 C   0  0  0  0  0  0  0  0  0  0  0  0
   -2.7204    2.3293    0.6779 C   0  0  0  0  0  0  0  0  0  0  0  0
   -2.3837    0.6688   -1.5356 C   0  0  0  0  0  0  0  0  0  0  0  0
   -2.9572    1.2757   -2.7847 C   0  0  0  0  0  0  0  0  0  0  0  0
   -4.2510    0.6591   -3.1265 C   0  0  0  0  0  0  0  0  0  0  0  0
   -3.4243    0.2901   -0.5841 C   0  0  0  0  0  0  0  0  0  0  0  0
   -5.0169    0.6059   -1.4541 S   0  0  0  0  0  0  0  0  0  0  0  0
   -3.4127    0.9554    0.7555 C   0  0  0  0  0  0  0  0  0  0  0  0
   -4.7418    1.1802    1.3806 C   0  0  0  0  0  0  0  0  0  0  0  0
   -5.5923   -0.0332    1.5633 C   0  0  2  0  0  0  0  0  0  0  0  0
   -6.7931    0.4190    2.1658 O   0  0  0  0  0  0  0  0  0  0  0  0
   -7.8977    0.0321    1.4361 C   0  0  0  0  0  0  0  0  0  0  0  0
   -5.0023   -0.9863    2.6120 C   0  0  0  0  0  0  0  0  0  0  0  0
   -5.9440   -1.9994    2.8083 O   0  0  0  0  0  0  0  0  0  0  0  0
   -3.8367   -1.5767    2.2029 O   0  0  0  0  0  0  0  0  0  0  0  0
    2.1728   -2.0256   -0.4895 H   0  0  0  0  0  0  0  0  0  0  0  0
    1.4344   -1.2253   -1.8823 H   0  0  0  0  0  0  0  0  0  0  0  0
    0.5501   -1.3434   -0.2770 H   0  0  0  0  0  0  0  0  0  0  0  0
    1.4591    0.6882    0.3394 H   0  0  0  0  0  0  0  0  0  0  0  0
    4.5768    1.2052    0.3052 H   0  0  0  0  0  0  0  0  0  0  0  0
    6.5013   -0.1109   -0.2073 H   0  0  0  0  0  0  0  0  0  0  0  0
    5.9711    0.3002    2.0078 H   0  0  0  0  0  0  0  0  0  0  0  0
    4.9299   -1.1183    2.2015 H   0  0  0  0  0  0  0  0  0  0  0  0
    7.9288   -0.8503    2.0191 H   0  0  0  0  0  0  0  0  0  0  0  0
    6.9782   -1.9350    3.0568 H   0  0  0  0  0  0  0  0  0  0  0  0
    8.0241   -2.2963    0.2859 H   0  0  0  0  0  0  0  0  0  0  0  0
    7.8164   -3.5537    1.5483 H   0  0  0  0  0  0  0  0  0  0  0  0
    6.1722   -4.0377   -0.1499 H   0  0  0  0  0  0  0  0  0  0  0  0
    5.2841   -3.2771    1.2415 H   0  0  0  0  0  0  0  0  0  0  0  0
    4.5179   -2.2890   -0.8172 H   0  0  0  0  0  0  0  0  0  0  0  0
    6.1790   -2.0704   -1.3967 H   0  0  0  0  0  0  0  0  0  0  0  0
    4.7499    0.9114   -1.9549 H   0  0  0  0  0  0  0  0  0  0  0  0
    3.0235    1.9584   -0.7907 H   0  0  0  0  0  0  0  0  0  0  0  0
    2.6552    1.8692   -3.2407 H   0  0  0  0  0  0  0  0  0  0  0  0
    1.8406    0.2827   -3.1411 H   0  0  0  0  0  0  0  0  0  0  0  0
    0.1844    2.1882   -3.1746 H   0  0  0  0  0  0  0  0  0  0  0  0
    0.9697    2.8281   -1.7254 H   0  0  0  0  0  0  0  0  0  0  0  0
   -1.3169    2.5566   -1.6282 H   0  0  0  0  0  0  0  0  0  0  0  0
   -0.6574    2.8229    0.5011 H   0  0  0  0  0  0  0  0  0  0  0  0
   -1.0075    1.0854    1.0296 H   0  0  0  0  0  0  0  0  0  0  0  0
   -2.8151    2.8148    1.6504 H   0  0  0  0  0  0  0  0  0  0  0  0
   -3.1674    2.8555   -0.1688 H   0  0  0  0  0  0  0  0  0  0  0  0
   -1.8802   -0.2798   -1.9092 H   0  0  0  0  0  0  0  0  0  0  0  0
   -3.1321    2.3595   -2.5622 H   0  0  0  0  0  0  0  0  0  0  0  0
   -2.1850    1.2479   -3.5688 H   0  0  0  0  0  0  0  0  0  0  0  0
   -4.1953   -0.3770   -3.4880 H   0  0  0  0  0  0  0  0  0  0  0  0
   -4.8242    1.3310   -3.7726 H   0  0  0  0  0  0  0  0  0  0  0  0
   -3.4432   -0.8079   -0.4018 H   0  0  0  0  0  0  0  0  0  0  0  0
   -2.7563    0.3615    1.4270 H   0  0  0  0  0  0  0  0  0  0  0  0
   -5.2846    1.9488    0.8132 H   0  0  0  0  0  0  0  0  0  0  0  0
   -4.5652    1.6092    2.3931 H   0  0  0  0  0  0  0  0  0  0  0  0
   -5.7974   -0.6012    0.6359 H   0  0  0  0  0  0  0  0  0  0  0  0
   -8.7888    0.4075    1.9465 H   0  0  0  0  0  0  0  0  0  0  0  0
   -7.8352    0.5696    0.4518 H   0  0  0  0  0  0  0  0  0  0  0  0
   -7.9247   -1.0525    1.2111 H   0  0  0  0  0  0  0  0  0  0  0  0
   -4.9123   -0.3965    3.5380 H   0  0  0  0  0  0  0  0  0  0  0  0
   -5.5202   -2.8747    2.9803 H   0  0  0  0  0  0  0  0  0  0  0  0
   -3.7004   -2.4002    2.7388 H   0  0  0  0  0  0  0  0  0  0  0  0
  1  2  1  0
  2  3  1  0
  3  4  1  0
  4  5  1  0
  5  6  1  0
  6  7  1  0
  7  8  1  0
  8  9  1  0
  5 10  1  0
  9 10  1  0
  4 11  1  0
  2 12  1  0
 11 12  1  0
 12 13  1  0
 13 14  1  0
 14 15  1  0
 15 16  1  0
 16 17  1  0
 17 18  1  0
 16 19  1  0
 19 20  1  0
 20 21  1  0
 19 22  1  0
 21 23  1  0
 22 23  1  0
 18 24  1  0
 22 24  1  0
 24 25  1  0
 25 26  1  0
 26 27  1  0
 27 28  1  0
 26 29  1  0
 29 30  1  0
 29 31  1  0
  1 32  1  0
  1 33  1  0
  1 34  1  0
  2 35  1  0
  4 36  1  0
  5 37  1  0
  6 38  1  0
  6 39  1  0
  7 40  1  0
  7 41  1  0
  8 42  1  0
  8 43  1  0
  9 44  1  0
  9 45  1  0
 10 46  1  0
 10 47  1  0
 11 48  1  0
 12 49  1  0
 13 50  1  0
 13 51  1  0
 14 52  1  0
 14 53  1  0
 16 54  1  0
 17 55  1  0
 17 56  1  0
 18 57  1  0
 18 58  1  0
 19 59  1  0
 20 60  1  0
 20 61  1  0
 21 62  1  0
 21 63  1  0
 22 64  1  0
 24 65  1  0
 25 66  1  0
 25 67  1  0
 26 68  1  6
 28 69  1  0
 28 70  1  0
 28 71  1  0
 29 72  1  0
 30 73  1  0
 31 74  1  0
M  END
>  <PDBID>  (1) 
3G8I

>  <PDB ID>  (1) 
3G8I

>  <Generic Name>  (1) 
Aleglitazar

>  <Brand Name>  (1) 
nan

>  <DrugBank ID>  (1) 
DB08915

>  <ATC Codes>  (1) 
nan

>  <Ligand ID>  (1) 
RO7

>  <Target Name>  (1) 
Peroxisome proliferator-activated receptor alpha

>  <UniProt ID>  (1) 
Q07869

>  <PDB ID.1>  (1) 
3G8I

>  <Seq. Identity>  (1) 
100%

$$$$
