PDB_DB00482_03
     RDKit          3D

116120  0  0  0  0  0  0  0  0999 V2000
    5.3240    1.1334   -0.6012 S   0  0  0  0  0  0  0  0  0  0  0  0
    3.8704    0.2509   -0.3874 C   0  0  0  0  0  0  0  0  0  0  0  0
    3.0061    0.9117    0.6693 C   0  0  0  0  0  0  0  0  0  0  0  0
    1.7853    0.0802    0.9869 C   0  0  0  0  0  0  0  0  0  0  0  0
    0.9887   -0.1528   -0.2808 C   0  0  0  0  0  0  0  0  0  0  0  0
    1.8691   -0.7341   -1.3717 C   0  0  0  0  0  0  0  0  0  0  0  0
    3.0617    0.1133   -1.6615 C   0  0  0  0  0  0  0  0  0  0  0  0
   -0.0675   -1.1205   -0.0721 N   0  0  0  0  0  0  0  0  0  0  0  0
   -1.0558   -0.7220    0.8877 C   0  0  0  0  0  0  0  0  0  0  0  0
   -1.9834    0.3349    0.4224 C   0  0  0  0  0  0  0  0  0  0  0  0
   -2.9594    0.6466    1.5437 C   0  0  0  0  0  0  0  0  0  0  0  0
   -4.2535    1.2024    1.0141 C   0  0  0  0  0  0  0  0  0  0  0  0
   -3.9469    2.0308   -0.2151 C   0  0  0  0  0  0  0  0  0  0  0  0
   -5.2237    2.7969   -0.5564 C   0  0  0  0  0  0  0  0  0  0  0  0
   -3.5609    1.0938   -1.3241 C   0  0  0  0  0  0  0  0  0  0  0  0
   -2.7188   -0.0615   -0.8321 C   0  0  0  0  0  0  0  0  0  0  0  0
   -1.7439   -2.0677    1.1483 C   0  0  0  0  0  0  0  0  0  0  0  0
   -0.4920   -2.9539    1.2219 C   0  0  0  0  0  0  0  0  0  0  0  0
   -0.8027   -4.3533    0.7472 C   0  0  0  0  0  0  0  0  0  0  0  0
    0.3462   -5.1147    0.8293 F   0  0  0  0  0  0  0  0  0  0  0  0
   -1.7976   -4.9645    1.4501 F   0  0  0  0  0  0  0  0  0  0  0  0
   -1.1650   -4.2721   -0.5991 F   0  0  0  0  0  0  0  0  0  0  0  0
    0.4428   -2.3373    0.3354 N   0  0  0  0  0  0  0  0  0  0  0  0
    4.8652    2.6423   -1.1454 N   0  0  0  0  0  0  0  0  0  0  0  0
    5.9745    0.4053   -2.0640 O   0  0  0  0  0  0  0  0  0  0  0  0
    6.2931    1.0860    0.5129 O   0  0  0  0  0  0  0  0  0  0  0  0
    5.3240    1.1334   -0.6012 S   0  0  0  0  0  0  0  0  0  0  0  0
    3.8704    0.2509   -0.3874 C   0  0  0  0  0  0  0  0  0  0  0  0
    3.0061    0.9117    0.6693 C   0  0  0  0  0  0  0  0  0  0  0  0
    1.7853    0.0802    0.9869 C   0  0  0  0  0  0  0  0  0  0  0  0
    0.9887   -0.1528   -0.2808 C   0  0  0  0  0  0  0  0  0  0  0  0
    1.8691   -0.7341   -1.3717 C   0  0  0  0  0  0  0  0  0  0  0  0
    3.0617    0.1133   -1.6615 C   0  0  0  0  0  0  0  0  0  0  0  0
   -0.0675   -1.1205   -0.0721 N   0  0  0  0  0  0  0  0  0  0  0  0
   -1.0558   -0.7220    0.8877 C   0  0  0  0  0  0  0  0  0  0  0  0
   -1.9834    0.3349    0.4224 C   0  0  0  0  0  0  0  0  0  0  0  0
   -2.9594    0.6466    1.5437 C   0  0  0  0  0  0  0  0  0  0  0  0
   -4.2535    1.2024    1.0141 C   0  0  0  0  0  0  0  0  0  0  0  0
   -3.9469    2.0308   -0.2151 C   0  0  0  0  0  0  0  0  0  0  0  0
   -5.2237    2.7969   -0.5564 C   0  0  0  0  0  0  0  0  0  0  0  0
   -3.5609    1.0938   -1.3241 C   0  0  0  0  0  0  0  0  0  0  0  0
   -2.7188   -0.0615   -0.8321 C   0  0  0  0  0  0  0  0  0  0  0  0
   -1.7439   -2.0677    1.1483 C   0  0  0  0  0  0  0  0  0  0  0  0
   -0.4920   -2.9539    1.2219 C   0  0  0  0  0  0  0  0  0  0  0  0
   -0.8027   -4.3533    0.7472 C   0  0  0  0  0  0  0  0  0  0  0  0
    0.3462   -5.1147    0.8293 F   0  0  0  0  0  0  0  0  0  0  0  0
   -1.7976   -4.9645    1.4501 F   0  0  0  0  0  0  0  0  0  0  0  0
   -1.1650   -4.2721   -0.5991 F   0  0  0  0  0  0  0  0  0  0  0  0
    0.4428   -2.3373    0.3354 N   0  0  0  0  0  0  0  0  0  0  0  0
    4.8652    2.6423   -1.1454 N   0  0  0  0  0  0  0  0  0  0  0  0
    5.9745    0.4053   -2.0640 O   0  0  0  0  0  0  0  0  0  0  0  0
    6.2931    1.0860    0.5129 O   0  0  0  0  0  0  0  0  0  0  0  0
    4.0862   -0.7823   -0.0213 H   0  0  0  0  0  0  0  0  0  0  0  0
    2.7376    1.9282    0.3338 H   0  0  0  0  0  0  0  0  0  0  0  0
    3.6374    1.0212    1.5752 H   0  0  0  0  0  0  0  0  0  0  0  0
    2.0928   -0.8616    1.4679 H   0  0  0  0  0  0  0  0  0  0  0  0
    1.1582    0.6661    1.6891 H   0  0  0  0  0  0  0  0  0  0  0  0
    0.5872    0.8176   -0.6131 H   0  0  0  0  0  0  0  0  0  0  0  0
    1.2382   -0.9374   -2.2543 H   0  0  0  0  0  0  0  0  0  0  0  0
    2.2082   -1.7437   -1.0010 H   0  0  0  0  0  0  0  0  0  0  0  0
    3.6923   -0.4190   -2.3981 H   0  0  0  0  0  0  0  0  0  0  0  0
    2.7338    1.0933   -2.0404 H   0  0  0  0  0  0  0  0  0  0  0  0
   -0.5412   -0.4689    1.8325 H   0  0  0  0  0  0  0  0  0  0  0  0
   -1.3728    1.2283    0.1603 H   0  0  0  0  0  0  0  0  0  0  0  0
   -3.1673   -0.2454    2.1774 H   0  0  0  0  0  0  0  0  0  0  0  0
   -2.4506    1.3804    2.1997 H   0  0  0  0  0  0  0  0  0  0  0  0
   -4.9515    0.4082    0.7104 H   0  0  0  0  0  0  0  0  0  0  0  0
   -4.6913    1.8643    1.7862 H   0  0  0  0  0  0  0  0  0  0  0  0
   -3.1402    2.7589    0.0278 H   0  0  0  0  0  0  0  0  0  0  0  0
   -6.0776    2.1661   -0.2435 H   0  0  0  0  0  0  0  0  0  0  0  0
   -5.2372    3.7130    0.0388 H   0  0  0  0  0  0  0  0  0  0  0  0
   -5.3290    2.9560   -1.6448 H   0  0  0  0  0  0  0  0  0  0  0  0
   -4.4918    0.6739   -1.7586 H   0  0  0  0  0  0  0  0  0  0  0  0
   -3.0559    1.6503   -2.1451 H   0  0  0  0  0  0  0  0  0  0  0  0
   -1.9658   -0.2842   -1.6072 H   0  0  0  0  0  0  0  0  0  0  0  0
   -3.3382   -0.9732   -0.7081 H   0  0  0  0  0  0  0  0  0  0  0  0
   -2.3054   -2.0860    2.0813 H   0  0  0  0  0  0  0  0  0  0  0  0
   -2.2998   -2.4252    0.2683 H   0  0  0  0  0  0  0  0  0  0  0  0
   -0.1216   -2.9250    2.2571 H   0  0  0  0  0  0  0  0  0  0  0  0
    0.6063   -2.9327   -0.5124 H   0  0  0  0  0  0  0  0  0  0  0  0
    5.6556    3.2706   -1.4065 H   0  0  0  0  0  0  0  0  0  0  0  0
    4.2797    3.1143   -0.4499 H   0  0  0  0  0  0  0  0  0  0  0  0
    6.4949   -0.3754   -1.6981 H   0  0  0  0  0  0  0  0  0  0  0  0
    7.2731    0.8752    0.4839 H   0  0  0  0  0  0  0  0  0  0  0  0
    4.0862   -0.7823   -0.0213 H   0  0  0  0  0  0  0  0  0  0  0  0
    2.7376    1.9282    0.3338 H   0  0  0  0  0  0  0  0  0  0  0  0
    3.6374    1.0212    1.5752 H   0  0  0  0  0  0  0  0  0  0  0  0
    2.0928   -0.8616    1.4679 H   0  0  0  0  0  0  0  0  0  0  0  0
    1.1582    0.6661    1.6891 H   0  0  0  0  0  0  0  0  0  0  0  0
    0.5872    0.8176   -0.6131 H   0  0  0  0  0  0  0  0  0  0  0  0
    1.2382   -0.9374   -2.2543 H   0  0  0  0  0  0  0  0  0  0  0  0
    2.2082   -1.7437   -1.0010 H   0  0  0  0  0  0  0  0  0  0  0  0
    3.6923   -0.4190   -2.3981 H   0  0  0  0  0  0  0  0  0  0  0  0
    2.7338    1.0933   -2.0404 H   0  0  0  0  0  0  0  0  0  0  0  0
   -0.5412   -0.4689    1.8325 H   0  0  0  0  0  0  0  0  0  0  0  0
   -1.3728    1.2283    0.1603 H   0  0  0  0  0  0  0  0  0  0  0  0
   -3.1673   -0.2454    2.1774 H   0  0  0  0  0  0  0  0  0  0  0  0
   -2.4506    1.3804    2.1997 H   0  0  0  0  0  0  0  0  0  0  0  0
   -4.9515    0.4082    0.7104 H   0  0  0  0  0  0  0  0  0  0  0  0
   -4.6913    1.8643    1.7862 H   0  0  0  0  0  0  0  0  0  0  0  0
   -3.1402    2.7589    0.0278 H   0  0  0  0  0  0  0  0  0  0  0  0
   -6.0776    2.1661   -0.2435 H   0  0  0  0  0  0  0  0  0  0  0  0
   -5.2372    3.7130    0.0388 H   0  0  0  0  0  0  0  0  0  0  0  0
   -5.3290    2.9560   -1.6448 H   0  0  0  0  0  0  0  0  0  0  0  0
   -4.4918    0.6739   -1.7586 H   0  0  0  0  0  0  0  0  0  0  0  0
   -3.0559    1.6503   -2.1451 H   0  0  0  0  0  0  0  0  0  0  0  0
   -1.9658   -0.2842   -1.6072 H   0  0  0  0  0  0  0  0  0  0  0  0
   -3.3382   -0.9732   -0.7081 H   0  0  0  0  0  0  0  0  0  0  0  0
   -2.3054   -2.0860    2.0813 H   0  0  0  0  0  0  0  0  0  0  0  0
   -2.2998   -2.4252    0.2683 H   0  0  0  0  0  0  0  0  0  0  0  0
   -0.1216   -2.9250    2.2571 H   0  0  0  0  0  0  0  0  0  0  0  0
    0.6063   -2.9327   -0.5124 H   0  0  0  0  0  0  0  0  0  0  0  0
    5.6556    3.2706   -1.4065 H   0  0  0  0  0  0  0  0  0  0  0  0
    4.2797    3.1143   -0.4499 H   0  0  0  0  0  0  0  0  0  0  0  0
    6.4949   -0.3754   -1.6981 H   0  0  0  0  0  0  0  0  0  0  0  0
    7.2731    0.8752    0.4839 H   0  0  0  0  0  0  0  0  0  0  0  0
  1  2  1  0
  2  3  1  0
  3  4  1  0
  4  5  1  0
  5  6  1  0
  2  7  1  0
  6  7  1  0
  5  8  1  0
  8  9  1  0
  9 10  1  0
 10 11  1  0
 11 12  1  0
 12 13  1  0
 13 14  1  0
 13 15  1  0
 10 16  1  0
 15 16  1  0
  9 17  1  0
 17 18  1  0
 18 19  1  0
 19 20  1  0
 19 21  1  0
 19 22  1  0
  8 23  1  0
 18 23  1  0
  1 24  1  0
  1 25  1  0
  1 26  1  0
 27 28  1  0
 28 29  1  0
 29 30  1  0
 30 31  1  0
 31 32  1  0
 28 33  1  0
 32 33  1  0
 31 34  1  0
 34 35  1  0
 35 36  1  0
 36 37  1  0
 37 38  1  0
 38 39  1  0
 39 40  1  0
 39 41  1  0
 36 42  1  0
 41 42  1  0
 35 43  1  0
 43 44  1  0
 44 45  1  0
 45 46  1  0
 45 47  1  0
 45 48  1  0
 34 49  1  0
 44 49  1  0
 27 50  1  0
 27 51  1  0
 27 52  1  0
  2 53  1  0
  3 54  1  0
  3 55  1  0
  4 56  1  0
  4 57  1  0
  5 58  1  0
  6 59  1  0
  6 60  1  0
  7 61  1  0
  7 62  1  0
  9 63  1  0
 10 64  1  0
 11 65  1  0
 11 66  1  0
 12 67  1  0
 12 68  1  0
 13 69  1  0
 14 70  1  0
 14 71  1  0
 14 72  1  0
 15 73  1  0
 15 74  1  0
 16 75  1  0
 16 76  1  0
 17 77  1  0
 17 78  1  0
 18 79  1  0
 23 80  1  0
 24 81  1  0
 24 82  1  0
 25 83  1  0
 26 84  1  0
 28 85  1  0
 29 86  1  0
 29 87  1  0
 30 88  1  0
 30 89  1  0
 31 90  1  0
 32 91  1  0
 32 92  1  0
 33 93  1  0
 33 94  1  0
 35 95  1  0
 36 96  1  0
 37 97  1  0
 37 98  1  0
 38 99  1  0
 38100  1  0
 39101  1  0
 40102  1  0
 40103  1  0
 40104  1  0
 41105  1  0
 41106  1  0
 42107  1  0
 42108  1  0
 43109  1  0
 43110  1  0
 44111  1  0
 49112  1  0
 50113  1  0
 50114  1  0
 51115  1  0
 52116  1  0
M  END
>  <PDBID>  (1) 
5JW1

>  <PDB ID>  (1) 
5JW1

>  <Generic Name>  (1) 
Celecoxib

>  <Brand Name>  (1) 
Accel-celecoxib#Act Celecoxib#Ag-celecoxib#Apo-celecoxib#Auro-celecoxib#Bio-celecoxib#Celebrex#Celecoxib#Celecoxib 100 mg#Celecoxib 200 mg#Celecoxib 400 mg#Celecoxib 50 mg#Dom-celecoxib#Gd-celecoxib#Ipg-celecoxib#Jamp-celecoxib#Lupin-celecoxib#Mar-celecoxib#Mint-celecoxib#Mylan-celecoxib#PMS-celecoxib#Priva-celecoxib#Ran-celecoxib#Rbx-celecoxib#Riva-celecox#Riva-celecoxib#Sandoz Celecoxib#Sdz Celecoxib#Teva-celecoxib#Articox#Articoxib#Artiflex#Artilog#Artix#Artrixib#Blockten#Caditar#Cefinix#Celact#Celebra#Onsenal#Valdyne

>  <DrugBank ID>  (1) 
DB00482

>  <ATC Codes>  (1) 
L01XX33#M01AH01

>  <Ligand ID>  (1) 
CEL

>  <Target Name>  (1) 
Prostaglandin G/H synthase 2

>  <UniProt ID>  (1) 
P35354

>  <PDB ID.1>  (1) 
5JW1

>  <Seq. Identity>  (1) 
85%

$$$$
