PDB_DB01157_00
     RDKit          3D

264272  0  0  0  0  0  0  0  0999 V2000
   -5.1711   -0.9798   -0.0535 N   0  0  0  0  0  0  0  0  0  0  0  0
   -6.1424    0.1090   -0.0554 C   0  0  1  0  0  0  0  0  0  0  0  0
   -5.5077    1.4048    0.1321 N   0  0  0  0  0  0  0  0  0  0  0  0
   -4.1637    1.3717   -0.4746 C   0  0  2  0  0  0  0  0  0  0  0  0
   -4.2066   -0.6587    0.9780 C   0  0  0  0  0  0  0  0  0  0  0  0
   -3.3508    0.4835    0.4421 C   0  0  0  0  0  0  0  0  0  0  0  0
   -2.1568   -0.1462   -0.2461 C   0  0  0  0  0  0  0  0  0  0  0  0
   -1.2438   -0.6538    0.8444 C   0  0  0  0  0  0  0  0  0  0  0  0
   -2.0526   -1.2893    1.9718 C   0  0  0  0  0  0  0  0  0  0  0  0
   -3.3168   -1.8283    1.3327 C   0  0  0  0  0  0  0  0  0  0  0  0
   -0.2201   -1.6247    0.3663 C   0  0  0  0  0  0  0  0  0  0  0  0
    0.6315   -1.0431   -0.6028 N   0  0  0  0  0  0  0  0  0  0  0  0
    1.5463   -0.0327   -0.1122 C   0  0  0  0  0  0  0  0  0  0  0  0
    2.1618    0.6293   -1.2913 C   0  0  0  0  0  0  0  0  0  0  0  0
    3.5916    1.0115   -1.1889 C   0  0  0  0  0  0  0  0  0  0  0  0
    4.3442   -0.1894   -0.6253 C   0  0  0  0  0  0  0  0  0  0  0  0
    3.8880   -0.2292    0.8383 C   0  0  0  0  0  0  0  0  0  0  0  0
    2.4829   -0.7120    0.8272 C   0  0  0  0  0  0  0  0  0  0  0  0
   -1.4705    0.8282   -1.1413 C   0  0  0  0  0  0  0  0  0  0  0  0
    3.7117    2.1197   -0.3575 O   0  0  0  0  0  0  0  0  0  0  0  0
    5.6991   -0.1071   -0.7659 O   0  0  0  0  0  0  0  0  0  0  0  0
    4.6646   -1.0754    1.6010 O   0  0  0  0  0  0  0  0  0  0  0  0
    4.3329    3.1333   -1.0782 C   0  0  0  0  0  0  0  0  0  0  0  0
    6.1038   -1.2143   -1.5436 C   0  0  0  0  0  0  0  0  0  0  0  0
    5.2583   -0.3200    2.6091 C   0  0  0  0  0  0  0  0  0  0  0  0
   -6.8100    0.0873   -1.3289 N   0  0  0  0  0  0  0  0  0  0  0  0
   -3.6068    2.7023   -0.4136 N   0  0  0  0  0  0  0  0  0  0  0  0
   -5.4343   -0.7636    0.3287 N   0  0  0  0  0  0  0  0  0  0  0  0
   -6.1659    0.4540    0.4692 C   0  0  1  0  0  0  0  0  0  0  0  0
   -5.4499    1.6337    0.0392 N   0  0  0  0  0  0  0  0  0  0  0  0
   -4.2922    1.2048   -0.7242 C   0  0  0  0  0  0  0  0  0  0  0  0
   -4.1132   -0.5594    0.9447 C   0  0  0  0  0  0  0  0  0  0  0  0
   -3.3539    0.5397    0.2906 C   0  0  0  0  0  0  0  0  0  0  0  0
   -2.0716    0.1391   -0.3523 C   0  0  1  0  0  0  0  0  0  0  0  0
   -1.2240   -0.6230    0.6279 C   0  0  0  0  0  0  0  0  0  0  0  0
   -1.9726   -1.5564    1.5173 C   0  0  0  0  0  0  0  0  0  0  0  0
   -3.3755   -1.8504    1.0968 C   0  0  0  0  0  0  0  0  0  0  0  0
   -0.1461   -1.4390   -0.0908 C   0  0  0  0  0  0  0  0  0  0  0  0
    0.7444   -0.6497   -0.8627 N   0  0  0  0  0  0  0  0  0  0  0  0
    1.6415    0.2072   -0.1174 C   0  0  0  0  0  0  0  0  0  0  0  0
    2.3491    1.0697   -1.1003 C   0  0  0  0  0  0  0  0  0  0  0  0
    3.7824    1.3493   -0.8515 C   0  0  0  0  0  0  0  0  0  0  0  0
    4.4365   -0.0039   -0.5203 C   0  0  0  0  0  0  0  0  0  0  0  0
    3.9151   -0.3184    0.8737 C   0  0  0  0  0  0  0  0  0  0  0  0
    2.4760   -0.6617    0.7440 C   0  0  0  0  0  0  0  0  0  0  0  0
   -2.2204   -0.5106   -1.6897 C   0  0  0  0  0  0  0  0  0  0  0  0
    3.9330    2.2045    0.2427 O   0  0  0  0  0  0  0  0  0  0  0  0
    5.8029    0.0628   -0.5979 O   0  0  0  0  0  0  0  0  0  0  0  0
    4.6173   -1.3417    1.4693 O   0  0  0  0  0  0  0  0  0  0  0  0
    4.6307    3.3514   -0.1494 C   0  0  0  0  0  0  0  0  0  0  0  0
    6.2250   -0.8477   -1.5660 C   0  0  0  0  0  0  0  0  0  0  0  0
    5.2359   -0.8308    2.6086 C   0  0  0  0  0  0  0  0  0  0  0  0
   -7.4332    0.4416   -0.2324 N   0  0  0  0  0  0  0  0  0  0  0  0
   -3.5916    2.3306   -1.3037 N   0  0  0  0  0  0  0  0  0  0  0  0
   -5.4224   -0.6738    0.3194 N   0  0  0  0  0  0  0  0  0  0  0  0
   -6.1730    0.5431    0.3608 C   0  0  0  0  0  0  0  0  0  0  0  0
   -5.3821    1.6998    0.0043 N   0  0  0  0  0  0  0  0  0  0  0  0
   -4.2026    1.2695   -0.7674 C   0  0  2  0  0  0  0  0  0  0  0  0
   -4.1105   -0.4679    0.9333 C   0  0  0  0  0  0  0  0  0  0  0  0
   -3.3012    0.5763    0.2213 C   0  0  0  0  0  0  0  0  0  0  0  0
   -2.0865    0.0066   -0.4794 C   0  0  1  0  0  0  0  0  0  0  0  0
   -1.2218   -0.7123    0.5088 C   0  0  0  0  0  0  0  0  0  0  0  0
   -1.9866   -1.5875    1.4520 C   0  0  0  0  0  0  0  0  0  0  0  0
   -3.4296   -1.7718    1.1488 C   0  0  0  0  0  0  0  0  0  0  0  0
   -0.0848   -1.4909   -0.1043 C   0  0  0  0  0  0  0  0  0  0  0  0
    0.8268   -0.7103   -0.8522 N   0  0  0  0  0  0  0  0  0  0  0  0
    1.6793    0.1927   -0.0615 C   0  0  0  0  0  0  0  0  0  0  0  0
    2.3439    1.0731   -1.0523 C   0  0  0  0  0  0  0  0  0  0  0  0
    3.7856    1.3897   -0.8095 C   0  0  0  0  0  0  0  0  0  0  0  0
    4.4625    0.0608   -0.5195 C   0  0  0  0  0  0  0  0  0  0  0  0
    3.9890   -0.2821    0.8901 C   0  0  0  0  0  0  0  0  0  0  0  0
    2.5453   -0.6007    0.8460 C   0  0  0  0  0  0  0  0  0  0  0  0
   -2.4153   -0.7248   -1.7270 C   0  0  0  0  0  0  0  0  0  0  0  0
    3.8630    2.1853    0.3342 O   0  0  0  0  0  0  0  0  0  0  0  0
    5.8281    0.0923   -0.6440 O   0  0  0  0  0  0  0  0  0  0  0  0
    4.6903   -1.3759    1.3918 O   0  0  0  0  0  0  0  0  0  0  0  0
    4.4363    3.4214    0.0351 C   0  0  0  0  0  0  0  0  0  0  0  0
    6.1862   -0.8879   -1.5958 C   0  0  0  0  0  0  0  0  0  0  0  0
    5.4732   -0.9933    2.4807 C   0  0  0  0  0  0  0  0  0  0  0  0
   -7.3494    0.4669   -0.4863 N   0  0  0  0  0  0  0  0  0  0  0  0
   -3.6342    2.4490   -1.3438 N   0  0  0  0  0  0  0  0  0  0  0  0
   -5.4224   -0.6738    0.3194 N   0  0  0  0  0  0  0  0  0  0  0  0
   -6.1730    0.5431    0.3608 C   0  0  0  0  0  0  0  0  0  0  0  0
   -5.3821    1.6998    0.0043 N   0  0  0  0  0  0  0  0  0  0  0  0
   -4.2026    1.2695   -0.7674 C   0  0  2  0  0  0  0  0  0  0  0  0
   -4.1105   -0.4679    0.9333 C   0  0  0  0  0  0  0  0  0  0  0  0
   -3.3012    0.5763    0.2213 C   0  0  0  0  0  0  0  0  0  0  0  0
   -2.0865    0.0066   -0.4794 C   0  0  1  0  0  0  0  0  0  0  0  0
   -1.2218   -0.7123    0.5088 C   0  0  0  0  0  0  0  0  0  0  0  0
   -1.9866   -1.5875    1.4520 C   0  0  0  0  0  0  0  0  0  0  0  0
   -3.4296   -1.7718    1.1488 C   0  0  0  0  0  0  0  0  0  0  0  0
   -0.0848   -1.4909   -0.1043 C   0  0  0  0  0  0  0  0  0  0  0  0
    0.8268   -0.7103   -0.8522 N   0  0  0  0  0  0  0  0  0  0  0  0
    1.6793    0.1927   -0.0615 C   0  0  0  0  0  0  0  0  0  0  0  0
    2.3439    1.0731   -1.0523 C   0  0  0  0  0  0  0  0  0  0  0  0
    3.7856    1.3897   -0.8095 C   0  0  0  0  0  0  0  0  0  0  0  0
    4.4625    0.0608   -0.5195 C   0  0  0  0  0  0  0  0  0  0  0  0
    3.9890   -0.2821    0.8901 C   0  0  0  0  0  0  0  0  0  0  0  0
    2.5453   -0.6007    0.8460 C   0  0  0  0  0  0  0  0  0  0  0  0
   -2.4153   -0.7248   -1.7270 C   0  0  0  0  0  0  0  0  0  0  0  0
    3.8630    2.1853    0.3342 O   0  0  0  0  0  0  0  0  0  0  0  0
    5.8281    0.0923   -0.6440 O   0  0  0  0  0  0  0  0  0  0  0  0
    4.6903   -1.3759    1.3918 O   0  0  0  0  0  0  0  0  0  0  0  0
    4.4363    3.4214    0.0351 C   0  0  0  0  0  0  0  0  0  0  0  0
    6.1862   -0.8879   -1.5958 C   0  0  0  0  0  0  0  0  0  0  0  0
    5.4732   -0.9933    2.4807 C   0  0  0  0  0  0  0  0  0  0  0  0
   -7.3494    0.4669   -0.4863 N   0  0  0  0  0  0  0  0  0  0  0  0
   -3.6342    2.4490   -1.3438 N   0  0  0  0  0  0  0  0  0  0  0  0
   -4.6577   -1.0205   -0.9660 H   0  0  0  0  0  0  0  0  0  0  0  0
   -6.8257   -0.0980    0.7980 H   0  0  0  0  0  0  0  0  0  0  0  0
   -5.3385    1.5215    1.1615 H   0  0  0  0  0  0  0  0  0  0  0  0
   -4.2320    1.0113   -1.5061 H   0  0  0  0  0  0  0  0  0  0  0  0
   -4.6716   -0.3107    1.9180 H   0  0  0  0  0  0  0  0  0  0  0  0
   -2.9656    1.0876    1.2833 H   0  0  0  0  0  0  0  0  0  0  0  0
   -2.5032   -1.0006   -0.8975 H   0  0  0  0  0  0  0  0  0  0  0  0
   -0.8072    0.2677    1.3125 H   0  0  0  0  0  0  0  0  0  0  0  0
   -1.4575   -2.0910    2.4112 H   0  0  0  0  0  0  0  0  0  0  0  0
   -2.3214   -0.5741    2.7611 H   0  0  0  0  0  0  0  0  0  0  0  0
   -3.8357   -2.4636    2.0743 H   0  0  0  0  0  0  0  0  0  0  0  0
   -3.0696   -2.4667    0.4620 H   0  0  0  0  0  0  0  0  0  0  0  0
    0.3106   -2.0710    1.2342 H   0  0  0  0  0  0  0  0  0  0  0  0
   -0.7683   -2.4699   -0.1450 H   0  0  0  0  0  0  0  0  0  0  0  0
    1.2658   -1.7865   -1.0273 H   0  0  0  0  0  0  0  0  0  0  0  0
    0.9540    0.6858    0.4806 H   0  0  0  0  0  0  0  0  0  0  0  0
    1.5792    1.5771   -1.4970 H   0  0  0  0  0  0  0  0  0  0  0  0
    2.0424    0.0332   -2.2342 H   0  0  0  0  0  0  0  0  0  0  0  0
    4.0057    1.2074   -2.1850 H   0  0  0  0  0  0  0  0  0  0  0  0
    3.8811   -1.0785   -1.1351 H   0  0  0  0  0  0  0  0  0  0  0  0
    3.9268    0.8336    1.2121 H   0  0  0  0  0  0  0  0  0  0  0  0
    2.5244   -1.8198    0.6206 H   0  0  0  0  0  0  0  0  0  0  0  0
    2.1032   -0.6544    1.8848 H   0  0  0  0  0  0  0  0  0  0  0  0
   -2.2570    1.3080   -1.8008 H   0  0  0  0  0  0  0  0  0  0  0  0
   -0.9770    1.6179   -0.5257 H   0  0  0  0  0  0  0  0  0  0  0  0
   -0.8030    0.3182   -1.8429 H   0  0  0  0  0  0  0  0  0  0  0  0
    4.4276    4.0194   -0.4059 H   0  0  0  0  0  0  0  0  0  0  0  0
    5.3197    2.7541   -1.4169 H   0  0  0  0  0  0  0  0  0  0  0  0
    3.7183    3.4484   -1.9499 H   0  0  0  0  0  0  0  0  0  0  0  0
    7.1801   -1.2447   -1.7170 H   0  0  0  0  0  0  0  0  0  0  0  0
    5.4969   -1.1873   -2.4930 H   0  0  0  0  0  0  0  0  0  0  0  0
    5.7111   -2.1165   -0.9991 H   0  0  0  0  0  0  0  0  0  0  0  0
    4.5361    0.1734    3.2751 H   0  0  0  0  0  0  0  0  0  0  0  0
    5.8534    0.4712    2.0717 H   0  0  0  0  0  0  0  0  0  0  0  0
    5.9322   -0.9992    3.1701 H   0  0  0  0  0  0  0  0  0  0  0  0
   -6.7789    1.0404   -1.7695 H   0  0  0  0  0  0  0  0  0  0  0  0
   -7.7726   -0.2577   -1.2394 H   0  0  0  0  0  0  0  0  0  0  0  0
   -4.0777    3.3159    0.2816 H   0  0  0  0  0  0  0  0  0  0  0  0
   -3.6456    3.2089   -1.3232 H   0  0  0  0  0  0  0  0  0  0  0  0
   -5.3848   -1.1643   -0.6083 H   0  0  0  0  0  0  0  0  0  0  0  0
   -6.4014    0.6001    1.5491 H   0  0  0  0  0  0  0  0  0  0  0  0
   -5.0700    2.1708    0.8528 H   0  0  0  0  0  0  0  0  0  0  0  0
   -4.6530    0.5180   -1.4900 H   0  0  0  0  0  0  0  0  0  0  0  0
   -4.3623   -0.2109    1.9923 H   0  0  0  0  0  0  0  0  0  0  0  0
   -3.1009    1.3721    1.0145 H   0  0  0  0  0  0  0  0  0  0  0  0
   -1.5078    1.1036   -0.5506 H   0  0  0  0  0  0  0  0  0  0  0  0
   -0.6586    0.0881    1.2787 H   0  0  0  0  0  0  0  0  0  0  0  0
   -1.3883   -2.4877    1.6941 H   0  0  0  0  0  0  0  0  0  0  0  0
   -2.0574   -1.0884    2.5428 H   0  0  0  0  0  0  0  0  0  0  0  0
   -3.8452   -2.4011    1.9693 H   0  0  0  0  0  0  0  0  0  0  0  0
   -3.4770   -2.5590    0.2571 H   0  0  0  0  0  0  0  0  0  0  0  0
    0.4297   -2.0138    0.6609 H   0  0  0  0  0  0  0  0  0  0  0  0
   -0.5991   -2.1949   -0.7632 H   0  0  0  0  0  0  0  0  0  0  0  0
    1.1621   -1.0681   -1.6934 H   0  0  0  0  0  0  0  0  0  0  0  0
    1.0443    0.8757    0.5542 H   0  0  0  0  0  0  0  0  0  0  0  0
    1.8241    2.0679   -1.1693 H   0  0  0  0  0  0  0  0  0  0  0  0
    2.2631    0.6622   -2.1494 H   0  0  0  0  0  0  0  0  0  0  0  0
    4.2364    1.7731   -1.7621 H   0  0  0  0  0  0  0  0  0  0  0  0
    3.9682   -0.7333   -1.2070 H   0  0  0  0  0  0  0  0  0  0  0  0
    4.0197    0.6464    1.4491 H   0  0  0  0  0  0  0  0  0  0  0  0
    2.4298   -1.7381    0.4159 H   0  0  0  0  0  0  0  0  0  0  0  0
    2.0527   -0.7042    1.7916 H   0  0  0  0  0  0  0  0  0  0  0  0
   -2.8328    0.1789   -2.3202 H   0  0  0  0  0  0  0  0  0  0  0  0
   -1.2105   -0.4977   -2.1876 H   0  0  0  0  0  0  0  0  0  0  0  0
   -2.5712   -1.5357   -1.7014 H   0  0  0  0  0  0  0  0  0  0  0  0
    4.7697    4.0513    0.6946 H   0  0  0  0  0  0  0  0  0  0  0  0
    5.5933    3.0538   -0.5894 H   0  0  0  0  0  0  0  0  0  0  0  0
    4.0364    3.8766   -0.9390 H   0  0  0  0  0  0  0  0  0  0  0  0
    7.3207   -0.8529   -1.6890 H   0  0  0  0  0  0  0  0  0  0  0  0
    5.7039   -0.5828   -2.5310 H   0  0  0  0  0  0  0  0  0  0  0  0
    5.8131   -1.8466   -1.2980 H   0  0  0  0  0  0  0  0  0  0  0  0
    4.5126   -0.4243    3.3455 H   0  0  0  0  0  0  0  0  0  0  0  0
    5.8874    0.0484    2.3276 H   0  0  0  0  0  0  0  0  0  0  0  0
    5.8980   -1.5843    3.0817 H   0  0  0  0  0  0  0  0  0  0  0  0
   -7.2308    0.0456   -1.1861 H   0  0  0  0  0  0  0  0  0  0  0  0
   -8.0847   -0.1778    0.3108 H   0  0  0  0  0  0  0  0  0  0  0  0
   -3.6522    3.1921   -0.7311 H   0  0  0  0  0  0  0  0  0  0  0  0
   -3.8226    2.4770   -2.3110 H   0  0  0  0  0  0  0  0  0  0  0  0
   -5.3913   -1.1487   -0.5845 H   0  0  0  0  0  0  0  0  0  0  0  0
   -6.5306    0.7107    1.4013 H   0  0  0  0  0  0  0  0  0  0  0  0
   -4.9803    2.1517    0.8598 H   0  0  0  0  0  0  0  0  0  0  0  0
   -4.5977    0.5865   -1.5460 H   0  0  0  0  0  0  0  0  0  0  0  0
   -4.3464   -0.0349    1.9508 H   0  0  0  0  0  0  0  0  0  0  0  0
   -2.9231    1.3591    0.9131 H   0  0  0  0  0  0  0  0  0  0  0  0
   -1.4847    0.9130   -0.7972 H   0  0  0  0  0  0  0  0  0  0  0  0
   -0.7204    0.0563    1.1735 H   0  0  0  0  0  0  0  0  0  0  0  0
   -1.4730   -2.5916    1.5317 H   0  0  0  0  0  0  0  0  0  0  0  0
   -1.9349   -1.1995    2.5130 H   0  0  0  0  0  0  0  0  0  0  0  0
   -3.8859   -2.2231    2.0849 H   0  0  0  0  0  0  0  0  0  0  0  0
   -3.6390   -2.5520    0.3836 H   0  0  0  0  0  0  0  0  0  0  0  0
    0.4043   -2.0161    0.7665 H   0  0  0  0  0  0  0  0  0  0  0  0
   -0.4409   -2.3568   -0.7320 H   0  0  0  0  0  0  0  0  0  0  0  0
    0.3712   -0.0786   -1.5459 H   0  0  0  0  0  0  0  0  0  0  0  0
    0.9768    0.8218    0.5375 H   0  0  0  0  0  0  0  0  0  0  0  0
    1.8008    2.0555   -1.1004 H   0  0  0  0  0  0  0  0  0  0  0  0
    2.2530    0.6676   -2.0877 H   0  0  0  0  0  0  0  0  0  0  0  0
    4.1841    1.8725   -1.6996 H   0  0  0  0  0  0  0  0  0  0  0  0
    3.9797   -0.7061   -1.1811 H   0  0  0  0  0  0  0  0  0  0  0  0
    4.2319    0.5991    1.4990 H   0  0  0  0  0  0  0  0  0  0  0  0
    2.4032   -1.6967    0.6656 H   0  0  0  0  0  0  0  0  0  0  0  0
    2.1631   -0.4682    1.9030 H   0  0  0  0  0  0  0  0  0  0  0  0
   -2.5510    0.0156   -2.5486 H   0  0  0  0  0  0  0  0  0  0  0  0
   -1.5551   -1.3415   -2.0401 H   0  0  0  0  0  0  0  0  0  0  0  0
   -3.2723   -1.4230   -1.6691 H   0  0  0  0  0  0  0  0  0  0  0  0
    4.4904    4.0358    0.9534 H   0  0  0  0  0  0  0  0  0  0  0  0
    5.4647    3.2944   -0.3423 H   0  0  0  0  0  0  0  0  0  0  0  0
    3.7690    3.9424   -0.6978 H   0  0  0  0  0  0  0  0  0  0  0  0
    7.2655   -0.9339   -1.7613 H   0  0  0  0  0  0  0  0  0  0  0  0
    5.6223   -0.6885   -2.5206 H   0  0  0  0  0  0  0  0  0  0  0  0
    5.8165   -1.8845   -1.2146 H   0  0  0  0  0  0  0  0  0  0  0  0
    4.9001   -0.5774    3.3146 H   0  0  0  0  0  0  0  0  0  0  0  0
    6.2159   -0.2105    2.1791 H   0  0  0  0  0  0  0  0  0  0  0  0
    6.0836   -1.8422    2.8571 H   0  0  0  0  0  0  0  0  0  0  0  0
   -7.0304    0.0003   -1.3792 H   0  0  0  0  0  0  0  0  0  0  0  0
   -8.0344   -0.1724   -0.0182 H   0  0  0  0  0  0  0  0  0  0  0  0
   -4.2624    3.2550   -1.3864 H   0  0  0  0  0  0  0  0  0  0  0  0
   -2.6517    2.6285   -1.1187 H   0  0  0  0  0  0  0  0  0  0  0  0
   -5.3913   -1.1487   -0.5845 H   0  0  0  0  0  0  0  0  0  0  0  0
   -6.5306    0.7107    1.4013 H   0  0  0  0  0  0  0  0  0  0  0  0
   -4.9803    2.1517    0.8598 H   0  0  0  0  0  0  0  0  0  0  0  0
   -4.5977    0.5865   -1.5460 H   0  0  0  0  0  0  0  0  0  0  0  0
   -4.3464   -0.0349    1.9508 H   0  0  0  0  0  0  0  0  0  0  0  0
   -2.9231    1.3591    0.9131 H   0  0  0  0  0  0  0  0  0  0  0  0
   -1.4847    0.9130   -0.7972 H   0  0  0  0  0  0  0  0  0  0  0  0
   -0.7204    0.0563    1.1735 H   0  0  0  0  0  0  0  0  0  0  0  0
   -1.4730   -2.5916    1.5317 H   0  0  0  0  0  0  0  0  0  0  0  0
   -1.9349   -1.1995    2.5130 H   0  0  0  0  0  0  0  0  0  0  0  0
   -3.8859   -2.2231    2.0849 H   0  0  0  0  0  0  0  0  0  0  0  0
   -3.6390   -2.5520    0.3836 H   0  0  0  0  0  0  0  0  0  0  0  0
    0.4043   -2.0161    0.7665 H   0  0  0  0  0  0  0  0  0  0  0  0
   -0.4409   -2.3568   -0.7320 H   0  0  0  0  0  0  0  0  0  0  0  0
    0.3712   -0.0786   -1.5459 H   0  0  0  0  0  0  0  0  0  0  0  0
    0.9768    0.8218    0.5375 H   0  0  0  0  0  0  0  0  0  0  0  0
    1.8008    2.0555   -1.1004 H   0  0  0  0  0  0  0  0  0  0  0  0
    2.2530    0.6676   -2.0877 H   0  0  0  0  0  0  0  0  0  0  0  0
    4.1841    1.8725   -1.6996 H   0  0  0  0  0  0  0  0  0  0  0  0
    3.9797   -0.7061   -1.1811 H   0  0  0  0  0  0  0  0  0  0  0  0
    4.2319    0.5991    1.4990 H   0  0  0  0  0  0  0  0  0  0  0  0
    2.4032   -1.6967    0.6656 H   0  0  0  0  0  0  0  0  0  0  0  0
    2.1631   -0.4682    1.9030 H   0  0  0  0  0  0  0  0  0  0  0  0
   -2.5510    0.0156   -2.5486 H   0  0  0  0  0  0  0  0  0  0  0  0
   -1.5551   -1.3415   -2.0401 H   0  0  0  0  0  0  0  0  0  0  0  0
   -3.2723   -1.4230   -1.6691 H   0  0  0  0  0  0  0  0  0  0  0  0
    4.4904    4.0358    0.9534 H   0  0  0  0  0  0  0  0  0  0  0  0
    5.4647    3.2944   -0.3423 H   0  0  0  0  0  0  0  0  0  0  0  0
    3.7690    3.9424   -0.6978 H   0  0  0  0  0  0  0  0  0  0  0  0
    7.2655   -0.9339   -1.7613 H   0  0  0  0  0  0  0  0  0  0  0  0
    5.6223   -0.6885   -2.5206 H   0  0  0  0  0  0  0  0  0  0  0  0
    5.8165   -1.8845   -1.2146 H   0  0  0  0  0  0  0  0  0  0  0  0
    4.9001   -0.5774    3.3146 H   0  0  0  0  0  0  0  0  0  0  0  0
    6.2159   -0.2105    2.1791 H   0  0  0  0  0  0  0  0  0  0  0  0
    6.0836   -1.8422    2.8571 H   0  0  0  0  0  0  0  0  0  0  0  0
   -7.0304    0.0003   -1.3792 H   0  0  0  0  0  0  0  0  0  0  0  0
   -8.0344   -0.1724   -0.0182 H   0  0  0  0  0  0  0  0  0  0  0  0
   -4.2624    3.2550   -1.3864 H   0  0  0  0  0  0  0  0  0  0  0  0
   -2.6517    2.6285   -1.1187 H   0  0  0  0  0  0  0  0  0  0  0  0
  1  2  1  0
  2  3  1  0
  3  4  1  0
  1  5  1  0
  4  6  1  0
  5  6  1  0
  6  7  1  0
  7  8  1  0
  8  9  1  0
  5 10  1  0
  9 10  1  0
  8 11  1  0
 11 12  1  0
 12 13  1  0
 13 14  1  0
 14 15  1  0
 15 16  1  0
 16 17  1  0
 13 18  1  0
 17 18  1  0
  7 19  1  0
 15 20  1  0
 16 21  1  0
 17 22  1  0
 20 23  1  0
 21 24  1  0
 22 25  1  0
  2 26  1  0
  4 27  1  0
 28 29  1  0
 29 30  1  0
 30 31  1  0
 28 32  1  0
 31 33  1  0
 32 33  1  0
 33 34  1  0
 34 35  1  0
 35 36  1  0
 32 37  1  0
 36 37  1  0
 35 38  1  0
 38 39  1  0
 39 40  1  0
 40 41  1  0
 41 42  1  0
 42 43  1  0
 43 44  1  0
 40 45  1  0
 44 45  1  0
 34 46  1  0
 42 47  1  0
 43 48  1  0
 44 49  1  0
 47 50  1  0
 48 51  1  0
 49 52  1  0
 29 53  1  0
 31 54  1  0
 55 56  1  0
 56 57  1  0
 57 58  1  0
 55 59  1  0
 58 60  1  0
 59 60  1  0
 60 61  1  0
 61 62  1  0
 62 63  1  0
 59 64  1  0
 63 64  1  0
 62 65  1  0
 65 66  1  0
 66 67  1  0
 67 68  1  0
 68 69  1  0
 69 70  1  0
 70 71  1  0
 67 72  1  0
 71 72  1  0
 61 73  1  0
 69 74  1  0
 70 75  1  0
 71 76  1  0
 74 77  1  0
 75 78  1  0
 76 79  1  0
 56 80  1  0
 58 81  1  0
 82 83  1  0
 83 84  1  0
 84 85  1  0
 82 86  1  0
 85 87  1  0
 86 87  1  0
 87 88  1  0
 88 89  1  0
 89 90  1  0
 86 91  1  0
 90 91  1  0
 89 92  1  0
 92 93  1  0
 93 94  1  0
 94 95  1  0
 95 96  1  0
 96 97  1  0
 97 98  1  0
 94 99  1  0
 98 99  1  0
 88100  1  0
 96101  1  0
 97102  1  0
 98103  1  0
101104  1  0
102105  1  0
103106  1  0
 83107  1  0
 85108  1  0
  1109  1  0
  2110  1  1
  3111  1  0
  4112  1  6
  5113  1  0
  6114  1  0
  7115  1  0
  8116  1  0
  9117  1  0
  9118  1  0
 10119  1  0
 10120  1  0
 11121  1  0
 11122  1  0
 12123  1  0
 13124  1  0
 14125  1  0
 14126  1  0
 15127  1  0
 16128  1  0
 17129  1  0
 18130  1  0
 18131  1  0
 19132  1  0
 19133  1  0
 19134  1  0
 23135  1  0
 23136  1  0
 23137  1  0
 24138  1  0
 24139  1  0
 24140  1  0
 25141  1  0
 25142  1  0
 25143  1  0
 26144  1  0
 26145  1  0
 27146  1  0
 27147  1  0
 28148  1  0
 29149  1  1
 30150  1  0
 31151  1  0
 32152  1  0
 33153  1  0
 34154  1  6
 35155  1  0
 36156  1  0
 36157  1  0
 37158  1  0
 37159  1  0
 38160  1  0
 38161  1  0
 39162  1  0
 40163  1  0
 41164  1  0
 41165  1  0
 42166  1  0
 43167  1  0
 44168  1  0
 45169  1  0
 45170  1  0
 46171  1  0
 46172  1  0
 46173  1  0
 50174  1  0
 50175  1  0
 50176  1  0
 51177  1  0
 51178  1  0
 51179  1  0
 52180  1  0
 52181  1  0
 52182  1  0
 53183  1  0
 53184  1  0
 54185  1  0
 54186  1  0
 55187  1  0
 56188  1  0
 57189  1  0
 58190  1  6
 59191  1  0
 60192  1  0
 61193  1  6
 62194  1  0
 63195  1  0
 63196  1  0
 64197  1  0
 64198  1  0
 65199  1  0
 65200  1  0
 66201  1  0
 67202  1  0
 68203  1  0
 68204  1  0
 69205  1  0
 70206  1  0
 71207  1  0
 72208  1  0
 72209  1  0
 73210  1  0
 73211  1  0
 73212  1  0
 77213  1  0
 77214  1  0
 77215  1  0
 78216  1  0
 78217  1  0
 78218  1  0
 79219  1  0
 79220  1  0
 79221  1  0
 80222  1  0
 80223  1  0
 81224  1  0
 81225  1  0
 82226  1  0
 83227  1  0
 84228  1  0
 85229  1  6
 86230  1  0
 87231  1  0
 88232  1  6
 89233  1  0
 90234  1  0
 90235  1  0
 91236  1  0
 91237  1  0
 92238  1  0
 92239  1  0
 93240  1  0
 94241  1  0
 95242  1  0
 95243  1  0
 96244  1  0
 97245  1  0
 98246  1  0
 99247  1  0
 99248  1  0
100249  1  0
100250  1  0
100251  1  0
104252  1  0
104253  1  0
104254  1  0
105255  1  0
105256  1  0
105257  1  0
106258  1  0
106259  1  0
106260  1  0
107261  1  0
107262  1  0
108263  1  0
108264  1  0
M  END
>  <PDBID>  (1) 
4M2X

>  <PDB ID>  (1) 
4M2X

>  <Generic Name>  (1) 
Trimetrexate

>  <Brand Name>  (1) 
Neutrexin Pws IV 25mg/vial#Neutrexin

>  <DrugBank ID>  (1) 
DB01157

>  <ATC Codes>  (1) 
P01AX07

>  <Ligand ID>  (1) 
TMQ

>  <Target Name>  (1) 
Dihydrofolate reductase

>  <UniProt ID>  (1) 
P00374

>  <PDB ID.1>  (1) 
4M2X

>  <Seq. Identity>  (1) 
31%

$$$$
