PDB_DB01064_08
     RDKit          3D

 76 76  0  0  0  0  0  0  0  0999 V2000
    3.9248    1.4434   -0.2165 C   0  0  0  0  0  0  0  0  0  0  0  0
    3.8033   -0.0527   -0.0513 C   0  0  0  0  0  0  0  0  0  0  0  0
    3.8951   -0.4015    1.4253 C   0  0  0  0  0  0  0  0  0  0  0  0
    2.6214   -0.5677   -0.6806 N   0  0  0  0  0  0  0  0  0  0  0  0
    1.3876   -0.0404   -0.0892 C   0  0  0  0  0  0  0  0  0  0  0  0
    0.2415   -0.6561   -0.8392 C   0  0  2  0  0  0  0  0  0  0  0  0
    0.2753   -0.3300   -2.1770 O   0  0  0  0  0  0  0  0  0  0  0  0
   -1.0983   -0.4734   -0.2175 C   0  0  0  0  0  0  0  0  0  0  0  0
   -1.5246    0.9586   -0.0406 C   0  0  0  0  0  0  0  0  0  0  0  0
   -2.1176   -1.0752   -1.1972 C   0  0  0  0  0  0  0  0  0  0  0  0
   -3.5120   -0.6787   -0.8362 C   0  0  0  0  0  0  0  0  0  0  0  0
   -3.6764   -0.1663    0.5686 C   0  0  0  0  0  0  0  0  0  0  0  0
   -4.9737    0.3243    0.6893 O   0  0  0  0  0  0  0  0  0  0  0  0
   -2.7237    0.9607    0.8873 C   0  0  0  0  0  0  0  0  0  0  0  0
   -2.2877    0.7727    2.1977 O   0  0  0  0  0  0  0  0  0  0  0  0
    3.9248    1.4434   -0.2165 C   0  0  0  0  0  0  0  0  0  0  0  0
    3.8033   -0.0527   -0.0513 C   0  0  0  0  0  0  0  0  0  0  0  0
    3.8951   -0.4015    1.4253 C   0  0  0  0  0  0  0  0  0  0  0  0
    2.6214   -0.5677   -0.6806 N   0  0  0  0  0  0  0  0  0  0  0  0
    1.3876   -0.0404   -0.0892 C   0  0  0  0  0  0  0  0  0  0  0  0
    0.2415   -0.6561   -0.8392 C   0  0  2  0  0  0  0  0  0  0  0  0
    0.2753   -0.3300   -2.1770 O   0  0  0  0  0  0  0  0  0  0  0  0
   -1.0983   -0.4734   -0.2175 C   0  0  0  0  0  0  0  0  0  0  0  0
   -1.5246    0.9586   -0.0406 C   0  0  0  0  0  0  0  0  0  0  0  0
   -2.1176   -1.0752   -1.1972 C   0  0  0  0  0  0  0  0  0  0  0  0
   -3.5120   -0.6787   -0.8362 C   0  0  0  0  0  0  0  0  0  0  0  0
   -3.6764   -0.1663    0.5686 C   0  0  0  0  0  0  0  0  0  0  0  0
   -4.9737    0.3243    0.6893 O   0  0  0  0  0  0  0  0  0  0  0  0
   -2.7237    0.9607    0.8873 C   0  0  0  0  0  0  0  0  0  0  0  0
   -2.2877    0.7727    2.1977 O   0  0  0  0  0  0  0  0  0  0  0  0
    4.9900    1.6832   -0.4795 H   0  0  0  0  0  0  0  0  0  0  0  0
    3.7057    2.0010    0.7186 H   0  0  0  0  0  0  0  0  0  0  0  0
    3.3209    1.8381   -1.0593 H   0  0  0  0  0  0  0  0  0  0  0  0
    4.6657   -0.5354   -0.5527 H   0  0  0  0  0  0  0  0  0  0  0  0
    3.6606    0.5070    2.0564 H   0  0  0  0  0  0  0  0  0  0  0  0
    4.9337   -0.6915    1.7205 H   0  0  0  0  0  0  0  0  0  0  0  0
    3.2230   -1.2350    1.6867 H   0  0  0  0  0  0  0  0  0  0  0  0
    2.6407   -1.5948   -0.7238 H   0  0  0  0  0  0  0  0  0  0  0  0
    1.3771    1.0612   -0.2753 H   0  0  0  0  0  0  0  0  0  0  0  0
    1.4220   -0.2697    0.9713 H   0  0  0  0  0  0  0  0  0  0  0  0
    0.4441   -1.7743   -0.8043 H   0  0  0  0  0  0  0  0  0  0  0  0
    1.1600   -0.6086   -2.5327 H   0  0  0  0  0  0  0  0  0  0  0  0
   -1.2314   -1.0226    0.7292 H   0  0  0  0  0  0  0  0  0  0  0  0
   -0.7550    1.5947    0.4081 H   0  0  0  0  0  0  0  0  0  0  0  0
   -1.8106    1.3982   -1.0132 H   0  0  0  0  0  0  0  0  0  0  0  0
   -1.8708   -0.5734   -2.1795 H   0  0  0  0  0  0  0  0  0  0  0  0
   -1.9648   -2.1584   -1.2712 H   0  0  0  0  0  0  0  0  0  0  0  0
   -4.1494   -1.5966   -0.9180 H   0  0  0  0  0  0  0  0  0  0  0  0
   -3.9576    0.0624   -1.5600 H   0  0  0  0  0  0  0  0  0  0  0  0
   -3.5762   -1.0000    1.3018 H   0  0  0  0  0  0  0  0  0  0  0  0
   -5.0202    1.1709    1.1739 H   0  0  0  0  0  0  0  0  0  0  0  0
   -3.2576    1.9302    0.8506 H   0  0  0  0  0  0  0  0  0  0  0  0
   -2.1849   -0.2039    2.3299 H   0  0  0  0  0  0  0  0  0  0  0  0
    4.9900    1.6832   -0.4795 H   0  0  0  0  0  0  0  0  0  0  0  0
    3.7057    2.0010    0.7186 H   0  0  0  0  0  0  0  0  0  0  0  0
    3.3209    1.8381   -1.0593 H   0  0  0  0  0  0  0  0  0  0  0  0
    4.6657   -0.5354   -0.5527 H   0  0  0  0  0  0  0  0  0  0  0  0
    3.6606    0.5070    2.0564 H   0  0  0  0  0  0  0  0  0  0  0  0
    4.9337   -0.6915    1.7205 H   0  0  0  0  0  0  0  0  0  0  0  0
    3.2230   -1.2350    1.6867 H   0  0  0  0  0  0  0  0  0  0  0  0
    2.6407   -1.5948   -0.7238 H   0  0  0  0  0  0  0  0  0  0  0  0
    1.3771    1.0612   -0.2753 H   0  0  0  0  0  0  0  0  0  0  0  0
    1.4220   -0.2697    0.9713 H   0  0  0  0  0  0  0  0  0  0  0  0
    0.4441   -1.7743   -0.8043 H   0  0  0  0  0  0  0  0  0  0  0  0
    1.1600   -0.6086   -2.5327 H   0  0  0  0  0  0  0  0  0  0  0  0
   -1.2314   -1.0226    0.7292 H   0  0  0  0  0  0  0  0  0  0  0  0
   -0.7550    1.5947    0.4081 H   0  0  0  0  0  0  0  0  0  0  0  0
   -1.8106    1.3982   -1.0132 H   0  0  0  0  0  0  0  0  0  0  0  0
   -1.8708   -0.5734   -2.1795 H   0  0  0  0  0  0  0  0  0  0  0  0
   -1.9648   -2.1584   -1.2712 H   0  0  0  0  0  0  0  0  0  0  0  0
   -4.1494   -1.5966   -0.9180 H   0  0  0  0  0  0  0  0  0  0  0  0
   -3.9576    0.0624   -1.5600 H   0  0  0  0  0  0  0  0  0  0  0  0
   -3.5762   -1.0000    1.3018 H   0  0  0  0  0  0  0  0  0  0  0  0
   -5.0202    1.1709    1.1739 H   0  0  0  0  0  0  0  0  0  0  0  0
   -3.2576    1.9302    0.8506 H   0  0  0  0  0  0  0  0  0  0  0  0
   -2.1849   -0.2039    2.3299 H   0  0  0  0  0  0  0  0  0  0  0  0
  1  2  1  0
  2  3  1  0
  2  4  1  0
  4  5  1  0
  5  6  1  0
  6  7  1  0
  6  8  1  0
  8  9  1  0
  8 10  1  0
 10 11  1  0
 11 12  1  0
 12 13  1  0
  9 14  1  0
 12 14  1  0
 14 15  1  0
 16 17  1  0
 17 18  1  0
 17 19  1  0
 19 20  1  0
 20 21  1  0
 21 22  1  0
 21 23  1  0
 23 24  1  0
 23 25  1  0
 25 26  1  0
 26 27  1  0
 27 28  1  0
 24 29  1  0
 27 29  1  0
 29 30  1  0
  1 31  1  0
  1 32  1  0
  1 33  1  0
  2 34  1  0
  3 35  1  0
  3 36  1  0
  3 37  1  0
  4 38  1  0
  5 39  1  0
  5 40  1  0
  6 41  1  6
  7 42  1  0
  8 43  1  0
  9 44  1  0
  9 45  1  0
 10 46  1  0
 10 47  1  0
 11 48  1  0
 11 49  1  0
 12 50  1  0
 13 51  1  0
 14 52  1  0
 15 53  1  0
 16 54  1  0
 16 55  1  0
 16 56  1  0
 17 57  1  0
 18 58  1  0
 18 59  1  0
 18 60  1  0
 19 61  1  0
 20 62  1  0
 20 63  1  0
 21 64  1  6
 22 65  1  0
 23 66  1  0
 24 67  1  0
 24 68  1  0
 25 69  1  0
 25 70  1  0
 26 71  1  0
 26 72  1  0
 27 73  1  0
 28 74  1  0
 29 75  1  0
 30 76  1  0
M  END
>  <PDBID>  (1) 
2Y03

>  <PDB ID>  (1) 
2Y03

>  <Generic Name>  (1) 
Isoprenaline

>  <Brand Name>  (1) 
Isoproterenol HCl Inj 1:5000#Isoproterenol Hydrochloride Injection USP#Isuprel#Isuprel Inj 0.2mg/ml#Isuprel Liq 0.2mg/ml#Isuprel Liq 0.5%#Isuprel Liq Inh 0.5%#Isuprel Mistometer 125mcg/aem#Isuprel Mistometer Aem 0.25%#Medihaler-Iso#Proternol L#Saventrine

>  <DrugBank ID>  (1) 
DB01064

>  <ATC Codes>  (1) 
R03AK02#R03CB01#R03CB51#R03AB02#C01CA02

>  <Ligand ID>  (1) 
5FW

>  <Target Name>  (1) 
Beta-1 adrenergic receptor

>  <UniProt ID>  (1) 
P08588

>  <PDB ID.1>  (1) 
2Y03

>  <Seq. Identity>  (1) 
63%

$$$$
