PDB_DB00559_04
     RDKit          3D

 94 97  0  0  0  0  0  0  0  0999 V2000
    4.3482   -2.1422   -0.0954 C   0  0  0  0  0  0  0  0  0  0  0  0
   -1.1597    0.8705    0.1511 C   0  0  0  0  0  0  0  0  0  0  0  0
   -3.4586    1.1489    0.6873 C   0  0  0  0  0  0  0  0  0  0  0  0
   -2.1834    3.8195   -1.0867 C   0  0  0  0  0  0  0  0  0  0  0  0
   -1.4686    6.2388   -0.9698 C   0  0  0  0  0  0  0  0  0  0  0  0
   -3.8319    1.9030    2.8444 C   0  0  0  0  0  0  0  0  0  0  0  0
    6.8955   -0.0938   -2.0594 C   0  0  0  0  0  0  0  0  0  0  0  0
    6.4496   -1.2391   -1.1483 C   0  0  0  0  0  0  0  0  0  0  0  0
    7.2038   -1.0886    0.1486 C   0  0  0  0  0  0  0  0  0  0  0  0
    6.8501   -2.5090   -1.8463 C   0  0  0  0  0  0  0  0  0  0  0  0
    4.9596   -1.0829   -0.9748 C   0  0  0  0  0  0  0  0  0  0  0  0
    4.3429   -1.2655   -2.3689 C   0  0  0  0  0  0  0  0  0  0  0  0
    2.8594   -1.1366   -2.2697 C   0  0  0  0  0  0  0  0  0  0  0  0
    2.3527   -0.8569   -0.8770 C   0  0  0  0  0  0  0  0  0  0  0  0
    2.8728   -1.9498    0.0105 C   0  0  0  0  0  0  0  0  0  0  0  0
    0.6272   -0.7476   -0.9151 S   0  0  0  0  0  0  0  0  0  0  0  0
   -0.0349   -1.9639   -1.5065 O   0  0  0  0  0  0  0  0  0  0  0  0
    0.7358    0.4027   -2.5573 O   0  0  0  0  0  0  0  0  0  0  0  0
    0.0623    0.1666    0.0722 N   0  0  0  0  0  0  0  0  0  0  0  0
   -2.4167    0.0839    0.3527 C   0  0  0  0  0  0  0  0  0  0  0  0
   -3.6598    1.9449   -0.4567 N   0  0  0  0  0  0  0  0  0  0  0  0
   -2.5385    2.3504   -1.2034 C   0  0  0  0  0  0  0  0  0  0  0  0
   -1.3586    1.5745   -1.1146 N   0  0  0  0  0  0  0  0  0  0  0  0
   -3.2683    4.6670   -1.5526 N   0  0  0  0  0  0  0  0  0  0  0  0
   -2.9327    6.0382   -1.2495 C   0  0  0  0  0  0  0  0  0  0  0  0
   -0.9806    5.3795    0.1754 C   0  0  0  0  0  0  0  0  0  0  0  0
   -1.8570    4.2229    0.2440 N   0  0  0  0  0  0  0  0  0  0  0  0
   -3.0050    1.9300    1.7316 O   0  0  0  0  0  0  0  0  0  0  0  0
   -3.1814    2.8092    3.8974 C   0  0  0  0  0  0  0  0  0  0  0  0
   -3.9455    2.8485    5.0660 O   0  0  0  0  0  0  0  0  0  0  0  0
   -2.3880   -0.9319    1.2581 O   0  0  0  0  0  0  0  0  0  0  0  0
   -2.7768   -2.1557    0.8725 C   0  0  0  0  0  0  0  0  0  0  0  0
   -4.1030   -2.4710    1.6134 C   0  0  0  0  0  0  0  0  0  0  0  0
   -4.8968   -3.4677    0.7925 C   0  0  0  0  0  0  0  0  0  0  0  0
   -3.9002   -4.5063    0.3086 C   0  0  0  0  0  0  0  0  0  0  0  0
   -2.7154   -4.5984    1.2665 C   0  0  0  0  0  0  0  0  0  0  0  0
   -1.8726   -3.3178    1.2127 C   0  0  0  0  0  0  0  0  0  0  0  0
   -1.2383   -3.1826    2.4420 O   0  0  0  0  0  0  0  0  0  0  0  0
    0.1412   -3.3567    2.2106 C   0  0  0  0  0  0  0  0  0  0  0  0
    4.8686   -2.0579    0.8973 H   0  0  0  0  0  0  0  0  0  0  0  0
    4.6330   -3.1351   -0.5039 H   0  0  0  0  0  0  0  0  0  0  0  0
   -1.1382    1.6790    0.9210 H   0  0  0  0  0  0  0  0  0  0  0  0
   -4.3911    0.6688    0.9718 H   0  0  0  0  0  0  0  0  0  0  0  0
   -1.3271    3.9947   -1.7703 H   0  0  0  0  0  0  0  0  0  0  0  0
   -0.9132    6.0073   -1.9010 H   0  0  0  0  0  0  0  0  0  0  0  0
   -1.3398    7.3277   -0.7370 H   0  0  0  0  0  0  0  0  0  0  0  0
   -3.9232    0.8733    3.2096 H   0  0  0  0  0  0  0  0  0  0  0  0
   -4.8282    2.3140    2.6600 H   0  0  0  0  0  0  0  0  0  0  0  0
    6.1386    0.7223   -2.0723 H   0  0  0  0  0  0  0  0  0  0  0  0
    7.8275    0.3643   -1.6749 H   0  0  0  0  0  0  0  0  0  0  0  0
    7.1321   -0.4493   -3.0824 H   0  0  0  0  0  0  0  0  0  0  0  0
    6.8426   -0.2173    0.7225 H   0  0  0  0  0  0  0  0  0  0  0  0
    8.2768   -0.8635   -0.0944 H   0  0  0  0  0  0  0  0  0  0  0  0
    7.2077   -2.0408    0.7169 H   0  0  0  0  0  0  0  0  0  0  0  0
    6.4279   -3.4193   -1.4186 H   0  0  0  0  0  0  0  0  0  0  0  0
    6.6204   -2.3752   -2.9217 H   0  0  0  0  0  0  0  0  0  0  0  0
    7.9545   -2.5817   -1.7620 H   0  0  0  0  0  0  0  0  0  0  0  0
    4.7833   -0.0601   -0.5981 H   0  0  0  0  0  0  0  0  0  0  0  0
    4.7229   -0.5129   -3.0830 H   0  0  0  0  0  0  0  0  0  0  0  0
    4.6020   -2.3076   -2.6718 H   0  0  0  0  0  0  0  0  0  0  0  0
    2.4566   -0.3638   -2.9626 H   0  0  0  0  0  0  0  0  0  0  0  0
    2.3644   -2.1047   -2.5756 H   0  0  0  0  0  0  0  0  0  0  0  0
    2.7595    0.0949   -0.4503 H   0  0  0  0  0  0  0  0  0  0  0  0
    2.6598   -1.6902    1.0792 H   0  0  0  0  0  0  0  0  0  0  0  0
    2.3820   -2.9387   -0.1745 H   0  0  0  0  0  0  0  0  0  0  0  0
    0.3725   -2.4257   -2.2830 H   0  0  0  0  0  0  0  0  0  0  0  0
    1.1712    1.1257   -2.0171 H   0  0  0  0  0  0  0  0  0  0  0  0
    0.5831    0.3839    0.9857 H   0  0  0  0  0  0  0  0  0  0  0  0
   -2.7421   -0.3152   -0.6270 H   0  0  0  0  0  0  0  0  0  0  0  0
   -4.3164    2.7437   -0.3442 H   0  0  0  0  0  0  0  0  0  0  0  0
   -2.8790    2.2666   -2.2899 H   0  0  0  0  0  0  0  0  0  0  0  0
   -1.3961    0.7725   -1.8279 H   0  0  0  0  0  0  0  0  0  0  0  0
   -3.2994    4.5508   -2.6114 H   0  0  0  0  0  0  0  0  0  0  0  0
   -3.1677    6.6717   -2.1555 H   0  0  0  0  0  0  0  0  0  0  0  0
   -3.5768    6.4550   -0.4367 H   0  0  0  0  0  0  0  0  0  0  0  0
    0.0674    5.1040    0.0057 H   0  0  0  0  0  0  0  0  0  0  0  0
   -1.1204    5.9846    1.0968 H   0  0  0  0  0  0  0  0  0  0  0  0
   -2.7380    4.5946    0.7119 H   0  0  0  0  0  0  0  0  0  0  0  0
   -2.2051    2.3536    4.1361 H   0  0  0  0  0  0  0  0  0  0  0  0
   -3.0983    3.8360    3.5117 H   0  0  0  0  0  0  0  0  0  0  0  0
   -4.6796    2.2051    5.0773 H   0  0  0  0  0  0  0  0  0  0  0  0
   -3.0666   -2.2693   -0.1902 H   0  0  0  0  0  0  0  0  0  0  0  0
   -3.8352   -2.9325    2.5620 H   0  0  0  0  0  0  0  0  0  0  0  0
   -4.6594   -1.5347    1.7766 H   0  0  0  0  0  0  0  0  0  0  0  0
   -5.4532   -3.0032   -0.0214 H   0  0  0  0  0  0  0  0  0  0  0  0
   -5.6150   -3.9602    1.4713 H   0  0  0  0  0  0  0  0  0  0  0  0
   -3.5803   -4.2708   -0.7023 H   0  0  0  0  0  0  0  0  0  0  0  0
   -4.3586   -5.5330    0.3221 H   0  0  0  0  0  0  0  0  0  0  0  0
   -3.0941   -4.8061    2.2741 H   0  0  0  0  0  0  0  0  0  0  0  0
   -2.1103   -5.4614    0.9367 H   0  0  0  0  0  0  0  0  0  0  0  0
   -1.1162   -3.5198    0.4301 H   0  0  0  0  0  0  0  0  0  0  0  0
    0.3383   -4.3710    1.7757 H   0  0  0  0  0  0  0  0  0  0  0  0
    0.5023   -2.6371    1.4729 H   0  0  0  0  0  0  0  0  0  0  0  0
    0.7446   -3.2713    3.1301 H   0  0  0  0  0  0  0  0  0  0  0  0
  8  7  1  0
  8  9  1  0
  8 10  1  0
  1 11  1  0
  8 11  1  0
 11 12  1  0
 12 13  1  0
 13 14  1  0
  1 15  1  0
 14 15  1  0
 14 16  1  0
 16 17  1  0
 16 18  1  0
  2 19  1  0
 16 19  1  0
  2 20  1  0
  3 20  1  0
  3 21  1  0
  4 22  1  0
 21 22  1  0
  2 23  1  0
 22 23  1  0
  4 24  1  0
  5 25  1  0
 24 25  1  0
  5 26  1  0
  4 27  1  0
 26 27  1  0
  3 28  1  0
  6 28  1  0
  6 29  1  0
 29 30  1  0
 20 31  1  0
 31 32  1  0
 32 33  1  0
 33 34  1  0
 34 35  1  0
 35 36  1  0
 32 37  1  0
 36 37  1  0
 37 38  1  0
 38 39  1  0
  1 40  1  0
  1 41  1  0
  2 42  1  0
  3 43  1  0
  4 44  1  0
  5 45  1  0
  5 46  1  0
  6 47  1  0
  6 48  1  0
  7 49  1  0
  7 50  1  0
  7 51  1  0
  9 52  1  0
  9 53  1  0
  9 54  1  0
 10 55  1  0
 10 56  1  0
 10 57  1  0
 11 58  1  0
 12 59  1  0
 12 60  1  0
 13 61  1  0
 13 62  1  0
 14 63  1  0
 15 64  1  0
 15 65  1  0
 17 66  1  0
 18 67  1  0
 19 68  1  0
 20 69  1  0
 21 70  1  0
 22 71  1  0
 23 72  1  0
 24 73  1  0
 25 74  1  0
 25 75  1  0
 26 76  1  0
 26 77  1  0
 27 78  1  0
 29 79  1  0
 29 80  1  0
 30 81  1  0
 32 82  1  0
 33 83  1  0
 33 84  1  0
 34 85  1  0
 34 86  1  0
 35 87  1  0
 35 88  1  0
 36 89  1  0
 36 90  1  0
 37 91  1  0
 39 92  1  0
 39 93  1  0
 39 94  1  0
M  END
>  <PDBID>  (1) 
5XPR

>  <PDB ID>  (1) 
5XPR

>  <Generic Name>  (1) 
Bosentan

>  <Brand Name>  (1) 
Accel-bosentan#Act Bosentan#Apo-bosentan#Bosentan Tablets#Ipg-bosentan#Mar-bosentan#Mylan-bosentan#PMS-bosentan#Sandoz Bosentan#Teva-bosentan#Tracleer

>  <DrugBank ID>  (1) 
DB00559

>  <ATC Codes>  (1) 
C02KX01

>  <Ligand ID>  (1) 
K86

>  <Target Name>  (1) 
Endothelin B receptor

>  <UniProt ID>  (1) 
P24530

>  <PDB ID.1>  (1) 
5XPR

>  <Seq. Identity>  (1) 
85%

$$$$
