PDB_DB00136_08
     RDKit          3D

 80 82  0  0  0  0  0  0  0  0999 V2000
    6.9601   -2.3897    1.6600 O   0  0  0  0  0  0  0  0  0  0  0  0
   -8.5140   -0.6256    1.3597 O   0  0  0  0  0  0  0  0  0  0  0  0
    6.8587   -1.5440   -1.2817 C   0  0  1  0  0  0  0  0  0  0  0  0
    7.7765   -1.0706   -0.1797 C   0  0  0  0  0  0  0  0  0  0  0  0
    7.1108   -1.0926    1.1700 C   0  0  1  0  0  0  0  0  0  0  0  0
    5.8070   -0.3482    1.2011 C   0  0  0  0  0  0  0  0  0  0  0  0
    4.9550   -0.8274    0.0646 C   0  0  1  0  0  0  0  0  0  0  0  0
    3.6253   -0.1112   -0.0209 C   0  0  0  0  0  0  0  0  0  0  0  0
    2.7832   -0.2620    1.1832 C   0  0  0  0  0  0  0  0  0  0  0  0
    1.4605    0.4362    1.1940 C   0  0  0  0  0  0  0  0  0  0  0  0
    0.8815    0.0816    2.5969 C   0  0  0  0  0  0  0  0  0  0  0  0
    5.6316   -0.6631   -1.2814 C   0  0  1  0  0  0  0  0  0  0  0  0
   -0.4021    0.7886    2.8166 C   0  0  0  0  0  0  0  0  0  0  0  0
   -1.4626    0.4109    1.7768 C   0  0  0  0  0  0  0  0  0  0  0  0
   -0.9044    0.6218    0.4311 C   0  0  1  0  0  0  0  0  0  0  0  0
    0.4601   -0.0863    0.2404 C   0  0  1  0  0  0  0  0  0  0  0  0
    0.7266    0.1207   -1.1939 C   0  0  0  0  0  0  0  0  0  0  0  0
   -0.6109    0.4929   -1.8422 C   0  0  0  0  0  0  0  0  0  0  0  0
   -1.6236    0.1003   -0.7514 C   0  0  2  0  0  0  0  0  0  0  0  0
   -0.6985    2.1274    0.2316 C   0  0  0  0  0  0  0  0  0  0  0  0
    5.9606    0.7573   -1.5943 C   0  0  0  0  0  0  0  0  0  0  0  0
   -2.9912    0.5110   -1.0856 C   0  0  1  0  0  0  0  0  0  0  0  0
   -3.4434   -0.1433   -2.4290 C   0  0  0  0  0  0  0  0  0  0  0  0
   -3.9880   -0.0873   -0.1124 C   0  0  0  0  0  0  0  0  0  0  0  0
   -5.4243    0.3109   -0.4468 C   0  0  0  0  0  0  0  0  0  0  0  0
   -6.2828   -0.3581    0.6310 C   0  0  0  0  0  0  0  0  0  0  0  0
   -7.7378   -0.0201    0.3844 C   0  0  0  0  0  0  0  0  0  0  0  0
   -7.9451    1.4822    0.4607 C   0  0  0  0  0  0  0  0  0  0  0  0
   -8.1198   -0.4998   -0.9942 C   0  0  0  0  0  0  0  0  0  0  0  0
    7.4897   -1.3999   -2.4967 O   0  0  0  0  0  0  0  0  0  0  0  0
    7.4128   -3.0518    1.0755 H   0  0  0  0  0  0  0  0  0  0  0  0
   -8.1911   -1.5054    1.6206 H   0  0  0  0  0  0  0  0  0  0  0  0
    6.5503   -2.5791   -1.1001 H   0  0  0  0  0  0  0  0  0  0  0  0
    8.6269   -1.7831   -0.1412 H   0  0  0  0  0  0  0  0  0  0  0  0
    8.1936   -0.0773   -0.3944 H   0  0  0  0  0  0  0  0  0  0  0  0
    7.8013   -0.5756    1.8779 H   0  0  0  0  0  0  0  0  0  0  0  0
    5.9623    0.7446    1.1897 H   0  0  0  0  0  0  0  0  0  0  0  0
    5.2981   -0.6448    2.1425 H   0  0  0  0  0  0  0  0  0  0  0  0
    4.7963   -1.9168    0.2072 H   0  0  0  0  0  0  0  0  0  0  0  0
    3.7993    0.9708   -0.2016 H   0  0  0  0  0  0  0  0  0  0  0  0
    3.1201   -0.5655   -0.8920 H   0  0  0  0  0  0  0  0  0  0  0  0
    2.6196   -1.3650    1.4086 H   0  0  0  0  0  0  0  0  0  0  0  0
    3.3094    0.0891    2.1264 H   0  0  0  0  0  0  0  0  0  0  0  0
    1.6515    1.5207    1.1445 H   0  0  0  0  0  0  0  0  0  0  0  0
    0.6859   -1.0087    2.5771 H   0  0  0  0  0  0  0  0  0  0  0  0
    1.5838    0.3509    3.3841 H   0  0  0  0  0  0  0  0  0  0  0  0
    4.9013   -1.0689   -2.0354 H   0  0  0  0  0  0  0  0  0  0  0  0
   -0.3394    1.8682    2.9425 H   0  0  0  0  0  0  0  0  0  0  0  0
   -0.8211    0.3915    3.7880 H   0  0  0  0  0  0  0  0  0  0  0  0
   -1.9121   -0.5494    2.0070 H   0  0  0  0  0  0  0  0  0  0  0  0
   -2.2396    1.2230    1.9384 H   0  0  0  0  0  0  0  0  0  0  0  0
    0.2495   -1.1437    0.5041 H   0  0  0  0  0  0  0  0  0  0  0  0
    1.0198   -0.8117   -1.7396 H   0  0  0  0  0  0  0  0  0  0  0  0
    1.3798    0.9809   -1.3835 H   0  0  0  0  0  0  0  0  0  0  0  0
   -0.6750    1.5410   -2.1252 H   0  0  0  0  0  0  0  0  0  0  0  0
   -0.8264   -0.1333   -2.7114 H   0  0  0  0  0  0  0  0  0  0  0  0
   -1.5118   -1.0349   -0.7096 H   0  0  0  0  0  0  0  0  0  0  0  0
   -1.4261    2.5308   -0.5118 H   0  0  0  0  0  0  0  0  0  0  0  0
   -0.9013    2.6794    1.1699 H   0  0  0  0  0  0  0  0  0  0  0  0
    0.3001    2.3853   -0.1102 H   0  0  0  0  0  0  0  0  0  0  0  0
    5.8132    1.4484   -0.7406 H   0  0  0  0  0  0  0  0  0  0  0  0
    5.3058    1.1142   -2.4155 H   0  0  0  0  0  0  0  0  0  0  0  0
    7.0094    0.8982   -1.9445 H   0  0  0  0  0  0  0  0  0  0  0  0
   -3.1656    1.5815   -1.1746 H   0  0  0  0  0  0  0  0  0  0  0  0
   -2.7068   -0.0323   -3.2125 H   0  0  0  0  0  0  0  0  0  0  0  0
   -3.7678   -1.1664   -2.2621 H   0  0  0  0  0  0  0  0  0  0  0  0
   -4.3141    0.5022   -2.7516 H   0  0  0  0  0  0  0  0  0  0  0  0
   -3.8050    0.1084    0.9378 H   0  0  0  0  0  0  0  0  0  0  0  0
   -3.8987   -1.2113   -0.2202 H   0  0  0  0  0  0  0  0  0  0  0  0
   -5.5266    1.4018   -0.3210 H   0  0  0  0  0  0  0  0  0  0  0  0
   -5.7189   -0.0028   -1.4442 H   0  0  0  0  0  0  0  0  0  0  0  0
   -6.1721   -1.4616    0.5970 H   0  0  0  0  0  0  0  0  0  0  0  0
   -5.9567   -0.0322    1.6385 H   0  0  0  0  0  0  0  0  0  0  0  0
   -7.4764    2.0000   -0.3970 H   0  0  0  0  0  0  0  0  0  0  0  0
   -7.5984    1.8195    1.4381 H   0  0  0  0  0  0  0  0  0  0  0  0
   -9.0582    1.6405    0.3695 H   0  0  0  0  0  0  0  0  0  0  0  0
   -9.1434   -0.9558   -0.9474 H   0  0  0  0  0  0  0  0  0  0  0  0
   -8.1037    0.3568   -1.7001 H   0  0  0  0  0  0  0  0  0  0  0  0
   -7.4100   -1.2971   -1.2935 H   0  0  0  0  0  0  0  0  0  0  0  0
    6.9373   -0.8859   -3.1439 H   0  0  0  0  0  0  0  0  0  0  0  0
  3  4  1  0
  1  5  1  0
  4  5  1  0
  5  6  1  0
  6  7  1  0
  7  8  1  0
  8  9  1  0
  9 10  1  0
 10 11  1  0
  3 12  1  0
  7 12  1  0
 11 13  1  0
 13 14  1  0
 14 15  1  0
 10 16  1  0
 15 16  1  0
 16 17  1  0
 17 18  1  0
 15 19  1  0
 18 19  1  0
 15 20  1  6
 12 21  1  0
 19 22  1  0
 22 23  1  0
 22 24  1  0
 24 25  1  0
 25 26  1  0
 27  2  1  0
 26 27  1  0
 27 28  1  0
 27 29  1  0
  3 30  1  0
  1 31  1  0
  2 32  1  0
  3 33  1  1
  4 34  1  0
  4 35  1  0
  5 36  1  1
  6 37  1  0
  6 38  1  0
  7 39  1  1
  8 40  1  0
  8 41  1  0
  9 42  1  0
  9 43  1  0
 10 44  1  0
 11 45  1  0
 11 46  1  0
 12 47  1  6
 13 48  1  0
 13 49  1  0
 14 50  1  0
 14 51  1  0
 16 52  1  6
 17 53  1  0
 17 54  1  0
 18 55  1  0
 18 56  1  0
 19 57  1  1
 20 58  1  0
 20 59  1  0
 20 60  1  0
 21 61  1  0
 21 62  1  0
 21 63  1  0
 22 64  1  6
 23 65  1  0
 23 66  1  0
 23 67  1  0
 24 68  1  0
 24 69  1  0
 25 70  1  0
 25 71  1  0
 26 72  1  0
 26 73  1  0
 28 74  1  0
 28 75  1  0
 28 76  1  0
 29 77  1  0
 29 78  1  0
 29 79  1  0
 30 80  1  0
M  END
>  <PDBID>  (1) 
1IE9

>  <PDB ID>  (1) 
1IE9

>  <Generic Name>  (1) 
Calcitriol

>  <Brand Name>  (1) 
Calcijex#Calcitriol#Calcitriol Injection#Calcitriol Injection USP#Calcitriol-odan#Rocaltrol#Rocaltrol Cap 0.25mcg#Rocaltrol Cap 0.5mcg#Rocaltrol Oral Solution 1mcg/ml#Silkis#Vectical#Calcitriol Oral Solution#Decostriol

>  <DrugBank ID>  (1) 
DB00136

>  <ATC Codes>  (1) 
A11CC04#D05AX03

>  <Ligand ID>  (1) 
VDX

>  <Target Name>  (1) 
Vitamin D3 receptor

>  <UniProt ID>  (1) 
P11473

>  <PDB ID.1>  (1) 
1IE9

>  <Seq. Identity>  (1) 
84%

$$$$
