PDB_DB01764_01
     RDKit          3D

354360  0  0  0  0  0  0  0  0999 V2000
   -1.1939   -1.1974   -1.1920 O   0  0  0  0  0  0  0  0  0  0  0  0
   -0.2514   -0.9840   -0.1489 C   0  0  0  0  0  0  0  0  0  0  0  0
    0.9843   -0.7836   -0.7400 N   0  0  0  0  0  0  0  0  0  0  0  0
    1.6165   -1.8575   -1.3960 C   0  0  0  0  0  0  0  0  0  0  0  0
    2.7688   -2.1925   -0.4817 C   0  0  0  0  0  0  0  0  0  0  0  0
    3.1431   -0.8535    0.1759 C   0  0  1  0  0  0  0  0  0  0  0  0
    4.6421   -0.3956   -0.2802 S   0  0  0  0  0  0  0  0  0  0  0  0
    5.6697   -1.8677    0.4116 O   0  0  0  0  0  0  0  0  0  0  0  0
    4.9471   -0.6798   -1.8151 O   0  0  0  0  0  0  0  0  0  0  0  0
    5.4307    0.8203    0.4342 C   0  0  0  0  0  0  0  0  0  0  0  0
    6.8215    1.0922   -0.1684 C   0  0  0  0  0  0  0  0  0  0  0  0
    7.7153    0.0140   -0.0860 N   0  0  0  0  0  0  0  0  0  0  0  0
    8.2129   -0.3514    1.1924 C   0  0  0  0  0  0  0  0  0  0  0  0
    9.1472    0.6793    1.7949 C   0  0  0  0  0  0  0  0  0  0  0  0
    8.7740    0.0669   -1.0529 C   0  0  0  0  0  0  0  0  0  0  0  0
    8.3697   -0.1459   -2.4718 C   0  0  0  0  0  0  0  0  0  0  0  0
    1.9713    0.0427   -0.1829 C   0  0  2  0  0  0  0  0  0  0  0  0
   -0.4403   -2.1464    0.7778 C   0  0  2  0  0  0  0  0  0  0  0  0
   -0.6213   -3.4718    0.1212 C   0  0  0  0  0  0  0  0  0  0  0  0
   -1.5229   -4.1813    0.9370 O   0  0  0  0  0  0  0  0  0  0  0  0
   -1.7787   -1.9511    1.3663 N   0  0  0  0  0  0  0  0  0  0  0  0
   -2.1029   -3.2815    1.7941 C   0  0  0  0  0  0  0  0  0  0  0  0
   -3.5896   -3.5511    1.8367 C   0  0  0  0  0  0  0  0  0  0  0  0
   -4.0959   -3.8362    0.4437 C   0  0  1  0  0  0  0  0  0  0  0  0
   -3.3748   -4.8737   -0.1604 O   0  0  0  0  0  0  0  0  0  0  0  0
   -5.5432   -4.2520    0.4533 C   0  0  0  0  0  0  0  0  0  0  0  0
   -6.3033   -3.3947   -0.5555 C   0  0  2  0  0  0  0  0  0  0  0  0
   -5.5746   -3.3037   -1.7212 O   0  0  0  0  0  0  0  0  0  0  0  0
   -6.4363   -2.0262    0.0434 C   0  0  0  0  0  0  0  0  0  0  0  0
   -7.6770   -1.2934   -0.4476 C   0  0  2  0  0  0  0  0  0  0  0  0
   -7.7716   -1.4029   -1.9616 C   0  0  0  0  0  0  0  0  0  0  0  0
   -7.5648    0.1404    0.0078 C   0  0  0  0  0  0  0  0  0  0  0  0
   -6.7185    0.9333   -0.9374 C   0  0  0  0  0  0  0  0  0  0  0  0
   -5.9094    2.0003   -0.2614 C   0  0  0  0  0  0  0  0  0  0  0  0
   -4.6352    2.0796   -0.9408 N   0  0  0  0  0  0  0  0  0  0  0  0
   -3.5404    1.5987   -0.1227 C   0  0  2  0  0  0  0  0  0  0  0  0
   -4.1020    0.9863    1.0099 O   0  0  0  0  0  0  0  0  0  0  0  0
   -2.6570    2.7615    0.3059 C   0  0  0  0  0  0  0  0  0  0  0  0
   -1.4885    2.8785   -0.6472 C   0  0  0  0  0  0  0  0  0  0  0  0
   -0.3751    3.7177   -0.1037 C   0  0  1  0  0  0  0  0  0  0  0  0
   -0.7716    4.3949    1.1587 C   0  0  0  0  0  0  0  0  0  0  0  0
    0.8780    2.8629    0.0030 C   0  0  1  0  0  0  0  0  0  0  0  0
    2.0962    3.6857    0.2929 C   0  0  0  0  0  0  0  0  0  0  0  0
    2.2667    4.6959   -0.8417 C   0  0  0  0  0  0  0  0  0  0  0  0
    2.1975    4.2683    1.6480 C   0  0  0  0  0  0  0  0  0  0  0  0
    0.6393    1.8242    0.8233 O   0  0  0  0  0  0  0  0  0  0  0  0
    1.5424    0.8449    1.0070 C   0  0  0  0  0  0  0  0  0  0  0  0
    2.6040    1.3004    1.7513 O   0  0  0  0  0  0  0  0  0  0  0  0
   -1.1939   -1.1974   -1.1920 O   0  0  0  0  0  0  0  0  0  0  0  0
   -0.2514   -0.9840   -0.1489 C   0  0  0  0  0  0  0  0  0  0  0  0
    0.9843   -0.7836   -0.7400 N   0  0  0  0  0  0  0  0  0  0  0  0
    1.6165   -1.8575   -1.3960 C   0  0  0  0  0  0  0  0  0  0  0  0
    2.7688   -2.1925   -0.4817 C   0  0  0  0  0  0  0  0  0  0  0  0
    3.1431   -0.8535    0.1759 C   0  0  1  0  0  0  0  0  0  0  0  0
    4.6421   -0.3956   -0.2802 S   0  0  0  0  0  0  0  0  0  0  0  0
    5.6697   -1.8677    0.4116 O   0  0  0  0  0  0  0  0  0  0  0  0
    4.9471   -0.6798   -1.8151 O   0  0  0  0  0  0  0  0  0  0  0  0
    5.4307    0.8203    0.4342 C   0  0  0  0  0  0  0  0  0  0  0  0
    6.8215    1.0922   -0.1684 C   0  0  0  0  0  0  0  0  0  0  0  0
    7.7153    0.0140   -0.0860 N   0  0  0  0  0  0  0  0  0  0  0  0
    8.2129   -0.3514    1.1924 C   0  0  0  0  0  0  0  0  0  0  0  0
    9.1472    0.6793    1.7949 C   0  0  0  0  0  0  0  0  0  0  0  0
    8.7740    0.0669   -1.0529 C   0  0  0  0  0  0  0  0  0  0  0  0
    8.3697   -0.1459   -2.4718 C   0  0  0  0  0  0  0  0  0  0  0  0
    1.9713    0.0427   -0.1829 C   0  0  2  0  0  0  0  0  0  0  0  0
   -0.4403   -2.1464    0.7778 C   0  0  2  0  0  0  0  0  0  0  0  0
   -0.6213   -3.4718    0.1212 C   0  0  0  0  0  0  0  0  0  0  0  0
   -1.5229   -4.1813    0.9370 O   0  0  0  0  0  0  0  0  0  0  0  0
   -1.7787   -1.9511    1.3663 N   0  0  0  0  0  0  0  0  0  0  0  0
   -2.1029   -3.2815    1.7941 C   0  0  0  0  0  0  0  0  0  0  0  0
   -3.5896   -3.5511    1.8367 C   0  0  0  0  0  0  0  0  0  0  0  0
   -4.0959   -3.8362    0.4437 C   0  0  1  0  0  0  0  0  0  0  0  0
   -3.3748   -4.8737   -0.1604 O   0  0  0  0  0  0  0  0  0  0  0  0
   -5.5432   -4.2520    0.4533 C   0  0  0  0  0  0  0  0  0  0  0  0
   -6.3033   -3.3947   -0.5555 C   0  0  2  0  0  0  0  0  0  0  0  0
   -5.5746   -3.3037   -1.7212 O   0  0  0  0  0  0  0  0  0  0  0  0
   -6.4363   -2.0262    0.0434 C   0  0  0  0  0  0  0  0  0  0  0  0
   -7.6770   -1.2934   -0.4476 C   0  0  2  0  0  0  0  0  0  0  0  0
   -7.7716   -1.4029   -1.9616 C   0  0  0  0  0  0  0  0  0  0  0  0
   -7.5648    0.1404    0.0078 C   0  0  0  0  0  0  0  0  0  0  0  0
   -6.7185    0.9333   -0.9374 C   0  0  0  0  0  0  0  0  0  0  0  0
   -5.9094    2.0003   -0.2614 C   0  0  0  0  0  0  0  0  0  0  0  0
   -4.6352    2.0796   -0.9408 N   0  0  0  0  0  0  0  0  0  0  0  0
   -3.5404    1.5987   -0.1227 C   0  0  2  0  0  0  0  0  0  0  0  0
   -4.1020    0.9863    1.0099 O   0  0  0  0  0  0  0  0  0  0  0  0
   -2.6570    2.7615    0.3059 C   0  0  0  0  0  0  0  0  0  0  0  0
   -1.4885    2.8785   -0.6472 C   0  0  0  0  0  0  0  0  0  0  0  0
   -0.3751    3.7177   -0.1037 C   0  0  1  0  0  0  0  0  0  0  0  0
   -0.7716    4.3949    1.1587 C   0  0  0  0  0  0  0  0  0  0  0  0
    0.8780    2.8629    0.0030 C   0  0  1  0  0  0  0  0  0  0  0  0
    2.0962    3.6857    0.2929 C   0  0  0  0  0  0  0  0  0  0  0  0
    2.2667    4.6959   -0.8417 C   0  0  0  0  0  0  0  0  0  0  0  0
    2.1975    4.2683    1.6480 C   0  0  0  0  0  0  0  0  0  0  0  0
    0.6393    1.8242    0.8233 O   0  0  0  0  0  0  0  0  0  0  0  0
    1.5424    0.8449    1.0070 C   0  0  0  0  0  0  0  0  0  0  0  0
    2.6040    1.3004    1.7513 O   0  0  0  0  0  0  0  0  0  0  0  0
   -0.8412   -0.2031    0.3580 O   0  0  0  0  0  0  0  0  0  0  0  0
   -0.0019   -1.1879   -0.2216 C   0  0  1  0  0  0  0  0  0  0  0  0
    1.1630   -0.6144   -0.6178 N   0  0  0  0  0  0  0  0  0  0  0  0
    1.9516   -1.1319   -1.6566 C   0  0  0  0  0  0  0  0  0  0  0  0
    3.4064   -0.9703   -1.1475 C   0  0  0  0  0  0  0  0  0  0  0  0
    3.1695   -0.7068    0.3593 C   0  0  1  0  0  0  0  0  0  0  0  0
    4.4206   -0.2822    1.2878 S   0  0  0  0  0  0  0  0  0  0  0  0
    4.0443   -0.2858    2.8728 O   0  0  0  0  0  0  0  0  0  0  0  0
    5.3519   -1.8815    1.2594 O   0  0  0  0  0  0  0  0  0  0  0  0
    5.5458    0.8004    0.8664 C   0  0  0  0  0  0  0  0  0  0  0  0
    6.4507    0.6062   -0.3170 C   0  0  0  0  0  0  0  0  0  0  0  0
    7.2501   -0.5996   -0.2105 N   0  0  0  0  0  0  0  0  0  0  0  0
    8.2179   -0.5092    0.8645 C   0  0  0  0  0  0  0  0  0  0  0  0
    9.3082    0.4818    0.6354 C   0  0  0  0  0  0  0  0  0  0  0  0
    7.9902   -0.7551   -1.4612 C   0  0  0  0  0  0  0  0  0  0  0  0
    7.0980   -1.0762   -2.6180 C   0  0  0  0  0  0  0  0  0  0  0  0
    1.9763    0.2094    0.1587 C   0  0  2  0  0  0  0  0  0  0  0  0
   -0.0218   -2.3396    0.7158 C   0  0  2  0  0  0  0  0  0  0  0  0
    0.1429   -3.6917    0.1532 C   0  0  0  0  0  0  0  0  0  0  0  0
   -1.1194   -4.3274    0.1764 O   0  0  0  0  0  0  0  0  0  0  0  0
   -1.3944   -2.4182    1.2544 N   0  0  0  0  0  0  0  0  0  0  0  0
   -1.6587   -3.8278    1.3459 C   0  0  1  0  0  0  0  0  0  0  0  0
   -3.1493   -4.0832    1.4066 C   0  0  0  0  0  0  0  0  0  0  0  0
   -3.7720   -3.8177    0.0500 C   0  0  1  0  0  0  0  0  0  0  0  0
   -3.0267   -4.5809   -0.8768 O   0  0  0  0  0  0  0  0  0  0  0  0
   -5.2149   -4.2563    0.0602 C   0  0  0  0  0  0  0  0  0  0  0  0
   -6.0495   -3.3318   -0.8001 C   0  0  2  0  0  0  0  0  0  0  0  0
   -5.3301   -3.1063   -1.9792 O   0  0  0  0  0  0  0  0  0  0  0  0
   -6.2094   -2.0078   -0.0395 C   0  0  0  0  0  0  0  0  0  0  0  0
   -7.4998   -1.3125   -0.4126 C   0  0  2  0  0  0  0  0  0  0  0  0
   -7.7030   -1.3699   -1.9017 C   0  0  0  0  0  0  0  0  0  0  0  0
   -7.4217    0.1130    0.0862 C   0  0  0  0  0  0  0  0  0  0  0  0
   -6.7042    0.9767   -0.9201 C   0  0  0  0  0  0  0  0  0  0  0  0
   -6.1172    2.2300   -0.2953 C   0  0  0  0  0  0  0  0  0  0  0  0
   -4.9059    2.6153   -0.9919 N   0  0  0  0  0  0  0  0  0  0  0  0
   -3.7305    1.9277   -0.4792 C   0  0  2  0  0  0  0  0  0  0  0  0
   -4.2011    0.9962    0.4497 O   0  0  0  0  0  0  0  0  0  0  0  0
   -2.8339    2.9067    0.2228 C   0  0  0  0  0  0  0  0  0  0  0  0
   -1.5946    3.2290   -0.5786 C   0  0  0  0  0  0  0  0  0  0  0  0
   -0.4662    3.7803    0.2613 C   0  0  1  0  0  0  0  0  0  0  0  0
   -0.8892    4.1286    1.6494 C   0  0  0  0  0  0  0  0  0  0  0  0
    0.7536    2.8487    0.2232 C   0  0  1  0  0  0  0  0  0  0  0  0
    1.9582    3.7061    0.3014 C   0  0  0  0  0  0  0  0  0  0  0  0
    1.9031    4.6419   -0.9199 C   0  0  0  0  0  0  0  0  0  0  0  0
    2.0974    4.5351    1.5432 C   0  0  0  0  0  0  0  0  0  0  0  0
    0.5627    1.8768    1.1273 O   0  0  0  0  0  0  0  0  0  0  0  0
    1.5131    0.9264    1.3273 C   0  0  0  0  0  0  0  0  0  0  0  0
    2.6195    1.6258    1.8815 O   0  0  0  0  0  0  0  0  0  0  0  0
   -0.7836   -1.1173   -2.0795 H   0  0  0  0  0  0  0  0  0  0  0  0
   -0.6059   -0.0702    0.3565 H   0  0  0  0  0  0  0  0  0  0  0  0
    1.0228   -2.7106   -1.6926 H   0  0  0  0  0  0  0  0  0  0  0  0
    2.0522   -1.4482   -2.3550 H   0  0  0  0  0  0  0  0  0  0  0  0
    3.5842   -2.5517   -1.1670 H   0  0  0  0  0  0  0  0  0  0  0  0
    2.5791   -2.9823    0.2358 H   0  0  0  0  0  0  0  0  0  0  0  0
    3.0444   -1.0158    1.2781 H   0  0  0  0  0  0  0  0  0  0  0  0
    5.2108   -2.5184   -0.1201 H   0  0  0  0  0  0  0  0  0  0  0  0
    4.2640   -0.3507   -2.4292 H   0  0  0  0  0  0  0  0  0  0  0  0
    4.9276    1.7969    0.4279 H   0  0  0  0  0  0  0  0  0  0  0  0
    5.6535    0.6280    1.5276 H   0  0  0  0  0  0  0  0  0  0  0  0
    6.6969    1.4179   -1.2180 H   0  0  0  0  0  0  0  0  0  0  0  0
    7.2565    2.0133    0.3354 H   0  0  0  0  0  0  0  0  0  0  0  0
    8.7916   -1.3054    1.1448 H   0  0  0  0  0  0  0  0  0  0  0  0
    7.4313   -0.5177    1.9740 H   0  0  0  0  0  0  0  0  0  0  0  0
    8.6175    1.4634    2.3466 H   0  0  0  0  0  0  0  0  0  0  0  0
    9.8506    1.0895    1.0317 H   0  0  0  0  0  0  0  0  0  0  0  0
    9.7792    0.1417    2.5330 H   0  0  0  0  0  0  0  0  0  0  0  0
    9.5767   -0.7026   -0.8253 H   0  0  0  0  0  0  0  0  0  0  0  0
    9.3444    1.0374   -0.9396 H   0  0  0  0  0  0  0  0  0  0  0  0
    9.2529    0.1533   -3.1106 H   0  0  0  0  0  0  0  0  0  0  0  0
    7.4694    0.4051   -2.7388 H   0  0  0  0  0  0  0  0  0  0  0  0
    8.2247   -1.2565   -2.6322 H   0  0  0  0  0  0  0  0  0  0  0  0
    2.3696    0.7033   -1.0104 H   0  0  0  0  0  0  0  0  0  0  0  0
    0.2583   -2.2092    1.6037 H   0  0  0  0  0  0  0  0  0  0  0  0
    0.3119   -4.0860    0.1409 H   0  0  0  0  0  0  0  0  0  0  0  0
   -1.0984   -3.4385   -0.8726 H   0  0  0  0  0  0  0  0  0  0  0  0
   -2.4293   -1.6871    0.5865 H   0  0  0  0  0  0  0  0  0  0  0  0
   -1.7241   -3.3978    2.8463 H   0  0  0  0  0  0  0  0  0  0  0  0
   -4.1277   -2.6271    2.1755 H   0  0  0  0  0  0  0  0  0  0  0  0
   -3.8049   -4.3985    2.5142 H   0  0  0  0  0  0  0  0  0  0  0  0
   -3.9607   -2.9135   -0.1708 H   0  0  0  0  0  0  0  0  0  0  0  0
   -3.8087   -5.7521    0.0811 H   0  0  0  0  0  0  0  0  0  0  0  0
   -5.6826   -5.3039    0.1147 H   0  0  0  0  0  0  0  0  0  0  0  0
   -5.9863   -4.1875    1.4521 H   0  0  0  0  0  0  0  0  0  0  0  0
   -7.2882   -3.8609   -0.7341 H   0  0  0  0  0  0  0  0  0  0  0  0
   -5.5287   -4.1787   -2.2134 H   0  0  0  0  0  0  0  0  0  0  0  0
   -5.5401   -1.4503   -0.2426 H   0  0  0  0  0  0  0  0  0  0  0  0
   -6.4673   -2.1097    1.1378 H   0  0  0  0  0  0  0  0  0  0  0  0
   -8.5530   -1.7937   -0.0107 H   0  0  0  0  0  0  0  0  0  0  0  0
   -8.2473   -2.3760   -2.1787 H   0  0  0  0  0  0  0  0  0  0  0  0
   -6.7775   -1.4163   -2.4352 H   0  0  0  0  0  0  0  0  0  0  0  0
   -8.4014   -0.5674   -2.3266 H   0  0  0  0  0  0  0  0  0  0  0  0
   -7.0813    0.1378    1.0131 H   0  0  0  0  0  0  0  0  0  0  0  0
   -8.5655    0.5826    0.1339 H   0  0  0  0  0  0  0  0  0  0  0  0
   -6.0272    0.2053   -1.4429 H   0  0  0  0  0  0  0  0  0  0  0  0
   -7.3678    1.3771   -1.7154 H   0  0  0  0  0  0  0  0  0  0  0  0
   -5.8076    1.8497    0.8249 H   0  0  0  0  0  0  0  0  0  0  0  0
   -6.4264    2.9837   -0.3865 H   0  0  0  0  0  0  0  0  0  0  0  0
   -4.6161    1.4981   -1.8142 H   0  0  0  0  0  0  0  0  0  0  0  0
   -2.8955    0.8764   -0.6263 H   0  0  0  0  0  0  0  0  0  0  0  0
   -3.9117    1.5364    1.8218 H   0  0  0  0  0  0  0  0  0  0  0  0
   -2.3607    2.5550    1.3485 H   0  0  0  0  0  0  0  0  0  0  0  0
   -3.3151    3.6649    0.2603 H   0  0  0  0  0  0  0  0  0  0  0  0
   -1.1804    1.8565   -0.9271 H   0  0  0  0  0  0  0  0  0  0  0  0
   -1.9103    3.3518   -1.5829 H   0  0  0  0  0  0  0  0  0  0  0  0
   -0.1445    4.5273   -0.8433 H   0  0  0  0  0  0  0  0  0  0  0  0
   -1.8042    4.8210    0.9675 H   0  0  0  0  0  0  0  0  0  0  0  0
   -0.8828    3.7665    2.0401 H   0  0  0  0  0  0  0  0  0  0  0  0
   -0.1684    5.3254    1.3614 H   0  0  0  0  0  0  0  0  0  0  0  0
    1.0307    2.4539   -1.0406 H   0  0  0  0  0  0  0  0  0  0  0  0
    2.9750    3.0022    0.1617 H   0  0  0  0  0  0  0  0  0  0  0  0
    3.3589    4.9890   -0.8381 H   0  0  0  0  0  0  0  0  0  0  0  0
    2.1302    4.1331   -1.7836 H   0  0  0  0  0  0  0  0  0  0  0  0
    1.6124    5.5590   -0.7320 H   0  0  0  0  0  0  0  0  0  0  0  0
    3.2055    4.0691    2.1257 H   0  0  0  0  0  0  0  0  0  0  0  0
    2.2162    5.3930    1.5335 H   0  0  0  0  0  0  0  0  0  0  0  0
    1.4747    3.9241    2.3839 H   0  0  0  0  0  0  0  0  0  0  0  0
    1.0393    0.0831    1.6862 H   0  0  0  0  0  0  0  0  0  0  0  0
    2.2700    1.5159    2.6559 H   0  0  0  0  0  0  0  0  0  0  0  0
   -0.7836   -1.1173   -2.0795 H   0  0  0  0  0  0  0  0  0  0  0  0
   -0.6059   -0.0702    0.3565 H   0  0  0  0  0  0  0  0  0  0  0  0
    1.0228   -2.7106   -1.6926 H   0  0  0  0  0  0  0  0  0  0  0  0
    2.0522   -1.4482   -2.3550 H   0  0  0  0  0  0  0  0  0  0  0  0
    3.5842   -2.5517   -1.1670 H   0  0  0  0  0  0  0  0  0  0  0  0
    2.5791   -2.9823    0.2358 H   0  0  0  0  0  0  0  0  0  0  0  0
    3.0444   -1.0158    1.2781 H   0  0  0  0  0  0  0  0  0  0  0  0
    5.2108   -2.5184   -0.1201 H   0  0  0  0  0  0  0  0  0  0  0  0
    4.2640   -0.3507   -2.4292 H   0  0  0  0  0  0  0  0  0  0  0  0
    4.9276    1.7969    0.4279 H   0  0  0  0  0  0  0  0  0  0  0  0
    5.6535    0.6280    1.5276 H   0  0  0  0  0  0  0  0  0  0  0  0
    6.6969    1.4179   -1.2180 H   0  0  0  0  0  0  0  0  0  0  0  0
    7.2565    2.0133    0.3354 H   0  0  0  0  0  0  0  0  0  0  0  0
    8.7916   -1.3054    1.1448 H   0  0  0  0  0  0  0  0  0  0  0  0
    7.4313   -0.5177    1.9740 H   0  0  0  0  0  0  0  0  0  0  0  0
    8.6175    1.4634    2.3466 H   0  0  0  0  0  0  0  0  0  0  0  0
    9.8506    1.0895    1.0317 H   0  0  0  0  0  0  0  0  0  0  0  0
    9.7792    0.1417    2.5330 H   0  0  0  0  0  0  0  0  0  0  0  0
    9.5767   -0.7026   -0.8253 H   0  0  0  0  0  0  0  0  0  0  0  0
    9.3444    1.0374   -0.9396 H   0  0  0  0  0  0  0  0  0  0  0  0
    9.2529    0.1533   -3.1106 H   0  0  0  0  0  0  0  0  0  0  0  0
    7.4694    0.4051   -2.7388 H   0  0  0  0  0  0  0  0  0  0  0  0
    8.2247   -1.2565   -2.6322 H   0  0  0  0  0  0  0  0  0  0  0  0
    2.3696    0.7033   -1.0104 H   0  0  0  0  0  0  0  0  0  0  0  0
    0.2583   -2.2092    1.6037 H   0  0  0  0  0  0  0  0  0  0  0  0
    0.3119   -4.0860    0.1409 H   0  0  0  0  0  0  0  0  0  0  0  0
   -1.0984   -3.4385   -0.8726 H   0  0  0  0  0  0  0  0  0  0  0  0
   -2.4293   -1.6871    0.5865 H   0  0  0  0  0  0  0  0  0  0  0  0
   -1.7241   -3.3978    2.8463 H   0  0  0  0  0  0  0  0  0  0  0  0
   -4.1277   -2.6271    2.1755 H   0  0  0  0  0  0  0  0  0  0  0  0
   -3.8049   -4.3985    2.5142 H   0  0  0  0  0  0  0  0  0  0  0  0
   -3.9607   -2.9135   -0.1708 H   0  0  0  0  0  0  0  0  0  0  0  0
   -3.8087   -5.7521    0.0811 H   0  0  0  0  0  0  0  0  0  0  0  0
   -5.6826   -5.3039    0.1147 H   0  0  0  0  0  0  0  0  0  0  0  0
   -5.9863   -4.1875    1.4521 H   0  0  0  0  0  0  0  0  0  0  0  0
   -7.2882   -3.8609   -0.7341 H   0  0  0  0  0  0  0  0  0  0  0  0
   -5.5287   -4.1787   -2.2134 H   0  0  0  0  0  0  0  0  0  0  0  0
   -5.5401   -1.4503   -0.2426 H   0  0  0  0  0  0  0  0  0  0  0  0
   -6.4673   -2.1097    1.1378 H   0  0  0  0  0  0  0  0  0  0  0  0
   -8.5530   -1.7937   -0.0107 H   0  0  0  0  0  0  0  0  0  0  0  0
   -8.2473   -2.3760   -2.1787 H   0  0  0  0  0  0  0  0  0  0  0  0
   -6.7775   -1.4163   -2.4352 H   0  0  0  0  0  0  0  0  0  0  0  0
   -8.4014   -0.5674   -2.3266 H   0  0  0  0  0  0  0  0  0  0  0  0
   -7.0813    0.1378    1.0131 H   0  0  0  0  0  0  0  0  0  0  0  0
   -8.5655    0.5826    0.1339 H   0  0  0  0  0  0  0  0  0  0  0  0
   -6.0272    0.2053   -1.4429 H   0  0  0  0  0  0  0  0  0  0  0  0
   -7.3678    1.3771   -1.7154 H   0  0  0  0  0  0  0  0  0  0  0  0
   -5.8076    1.8497    0.8249 H   0  0  0  0  0  0  0  0  0  0  0  0
   -6.4264    2.9837   -0.3865 H   0  0  0  0  0  0  0  0  0  0  0  0
   -4.6161    1.4981   -1.8142 H   0  0  0  0  0  0  0  0  0  0  0  0
   -2.8955    0.8764   -0.6263 H   0  0  0  0  0  0  0  0  0  0  0  0
   -3.9117    1.5364    1.8218 H   0  0  0  0  0  0  0  0  0  0  0  0
   -2.3607    2.5550    1.3485 H   0  0  0  0  0  0  0  0  0  0  0  0
   -3.3151    3.6649    0.2603 H   0  0  0  0  0  0  0  0  0  0  0  0
   -1.1804    1.8565   -0.9271 H   0  0  0  0  0  0  0  0  0  0  0  0
   -1.9103    3.3518   -1.5829 H   0  0  0  0  0  0  0  0  0  0  0  0
   -0.1445    4.5273   -0.8433 H   0  0  0  0  0  0  0  0  0  0  0  0
   -1.8042    4.8210    0.9675 H   0  0  0  0  0  0  0  0  0  0  0  0
   -0.8828    3.7665    2.0401 H   0  0  0  0  0  0  0  0  0  0  0  0
   -0.1684    5.3254    1.3614 H   0  0  0  0  0  0  0  0  0  0  0  0
    1.0307    2.4539   -1.0406 H   0  0  0  0  0  0  0  0  0  0  0  0
    2.9750    3.0022    0.1617 H   0  0  0  0  0  0  0  0  0  0  0  0
    3.3589    4.9890   -0.8381 H   0  0  0  0  0  0  0  0  0  0  0  0
    2.1302    4.1331   -1.7836 H   0  0  0  0  0  0  0  0  0  0  0  0
    1.6124    5.5590   -0.7320 H   0  0  0  0  0  0  0  0  0  0  0  0
    3.2055    4.0691    2.1257 H   0  0  0  0  0  0  0  0  0  0  0  0
    2.2162    5.3930    1.5335 H   0  0  0  0  0  0  0  0  0  0  0  0
    1.4747    3.9241    2.3839 H   0  0  0  0  0  0  0  0  0  0  0  0
    1.0393    0.0831    1.6862 H   0  0  0  0  0  0  0  0  0  0  0  0
    2.2700    1.5159    2.6559 H   0  0  0  0  0  0  0  0  0  0  0  0
   -1.6714   -0.0706   -0.1185 H   0  0  0  0  0  0  0  0  0  0  0  0
   -0.5767   -1.5275   -1.1387 H   0  0  0  0  0  0  0  0  0  0  0  0
    1.7687   -2.1326   -2.0195 H   0  0  0  0  0  0  0  0  0  0  0  0
    1.8411   -0.4570   -2.5571 H   0  0  0  0  0  0  0  0  0  0  0  0
    3.7944   -0.0226   -1.5647 H   0  0  0  0  0  0  0  0  0  0  0  0
    4.0147   -1.8436   -1.3202 H   0  0  0  0  0  0  0  0  0  0  0  0
    2.7812   -1.7416    0.6733 H   0  0  0  0  0  0  0  0  0  0  0  0
    3.3189   -0.8927    3.1406 H   0  0  0  0  0  0  0  0  0  0  0  0
    5.3927   -2.0458    0.2937 H   0  0  0  0  0  0  0  0  0  0  0  0
    5.0958    1.8344    0.7035 H   0  0  0  0  0  0  0  0  0  0  0  0
    6.2648    1.0180    1.7242 H   0  0  0  0  0  0  0  0  0  0  0  0
    5.9645    0.6096   -1.2974 H   0  0  0  0  0  0  0  0  0  0  0  0
    7.2032    1.4536   -0.3809 H   0  0  0  0  0  0  0  0  0  0  0  0
    8.7098   -1.5218    0.9119 H   0  0  0  0  0  0  0  0  0  0  0  0
    7.7701   -0.3508    1.8470 H   0  0  0  0  0  0  0  0  0  0  0  0
    8.9349    1.5402    0.6721 H   0  0  0  0  0  0  0  0  0  0  0  0
    9.9594    0.2813   -0.2209 H   0  0  0  0  0  0  0  0  0  0  0  0
    9.9866    0.4118    1.5373 H   0  0  0  0  0  0  0  0  0  0  0  0
    8.8089   -1.4946   -1.3090 H   0  0  0  0  0  0  0  0  0  0  0  0
    8.5036    0.2309   -1.6423 H   0  0  0  0  0  0  0  0  0  0  0  0
    7.2934   -0.3606   -3.4462 H   0  0  0  0  0  0  0  0  0  0  0  0
    6.0196   -1.1012   -2.3815 H   0  0  0  0  0  0  0  0  0  0  0  0
    7.3595   -2.1123   -2.9533 H   0  0  0  0  0  0  0  0  0  0  0  0
    2.3879    0.9871   -0.5651 H   0  0  0  0  0  0  0  0  0  0  0  0
    0.6220   -2.2333    1.6010 H   0  0  0  0  0  0  0  0  0  0  0  0
    0.7982   -4.3447    0.8009 H   0  0  0  0  0  0  0  0  0  0  0  0
    0.5108   -3.7904   -0.8570 H   0  0  0  0  0  0  0  0  0  0  0  0
   -2.0655   -1.8983    0.6826 H   0  0  0  0  0  0  0  0  0  0  0  0
   -1.1595   -4.2334    2.2477 H   0  0  0  0  0  0  0  0  0  0  0  0
   -3.5787   -3.4844    2.2097 H   0  0  0  0  0  0  0  0  0  0  0  0
   -3.2821   -5.1763    1.5968 H   0  0  0  0  0  0  0  0  0  0  0  0
   -3.7077   -2.7765   -0.2670 H   0  0  0  0  0  0  0  0  0  0  0  0
   -3.0634   -5.5169   -0.5508 H   0  0  0  0  0  0  0  0  0  0  0  0
   -5.3437   -5.3130   -0.2554 H   0  0  0  0  0  0  0  0  0  0  0  0
   -5.5658   -4.1919    1.1059 H   0  0  0  0  0  0  0  0  0  0  0  0
   -7.0413   -3.7584   -0.9761 H   0  0  0  0  0  0  0  0  0  0  0  0
   -5.3403   -3.9426   -2.4768 H   0  0  0  0  0  0  0  0  0  0  0  0
   -5.3213   -1.3957   -0.2789 H   0  0  0  0  0  0  0  0  0  0  0  0
   -6.2311   -2.1868    1.0469 H   0  0  0  0  0  0  0  0  0  0  0  0
   -8.3191   -1.8820    0.0981 H   0  0  0  0  0  0  0  0  0  0  0  0
   -8.1536   -2.3438   -2.1795 H   0  0  0  0  0  0  0  0  0  0  0  0
   -6.7560   -1.2474   -2.4645 H   0  0  0  0  0  0  0  0  0  0  0  0
   -8.4573   -0.5925   -2.1673 H   0  0  0  0  0  0  0  0  0  0  0  0
   -6.9435    0.1592    1.0801 H   0  0  0  0  0  0  0  0  0  0  0  0
   -8.4742    0.4750    0.2462 H   0  0  0  0  0  0  0  0  0  0  0  0
   -5.8702    0.3851   -1.3339 H   0  0  0  0  0  0  0  0  0  0  0  0
   -7.4080    1.2085   -1.7422 H   0  0  0  0  0  0  0  0  0  0  0  0
   -5.9565    2.0545    0.7844 H   0  0  0  0  0  0  0  0  0  0  0  0
   -6.8283    3.0819   -0.3681 H   0  0  0  0  0  0  0  0  0  0  0  0
   -4.9739    2.4030   -1.9983 H   0  0  0  0  0  0  0  0  0  0  0  0
   -3.2094    1.3562   -1.2759 H   0  0  0  0  0  0  0  0  0  0  0  0
   -3.9430    1.2435    1.3778 H   0  0  0  0  0  0  0  0  0  0  0  0
   -2.4621    2.3992    1.1553 H   0  0  0  0  0  0  0  0  0  0  0  0
   -3.4391    3.8128    0.4441 H   0  0  0  0  0  0  0  0  0  0  0  0
   -1.2801    2.3071   -1.1312 H   0  0  0  0  0  0  0  0  0  0  0  0
   -1.9214    3.9434   -1.3815 H   0  0  0  0  0  0  0  0  0  0  0  0
   -0.1722    4.7586   -0.2247 H   0  0  0  0  0  0  0  0  0  0  0  0
   -1.9875    4.2657    1.7760 H   0  0  0  0  0  0  0  0  0  0  0  0
   -0.6271    3.3339    2.4075 H   0  0  0  0  0  0  0  0  0  0  0  0
   -0.4845    5.1327    1.9809 H   0  0  0  0  0  0  0  0  0  0  0  0
    0.7290    2.4095   -0.8010 H   0  0  0  0  0  0  0  0  0  0  0  0
    2.9280    3.1745    0.1775 H   0  0  0  0  0  0  0  0  0  0  0  0
    2.8783    4.7464   -1.4159 H   0  0  0  0  0  0  0  0  0  0  0  0
    1.2015    4.2578   -1.6886 H   0  0  0  0  0  0  0  0  0  0  0  0
    1.6162    5.6671   -0.5895 H   0  0  0  0  0  0  0  0  0  0  0  0
    3.1858    4.6823    1.8208 H   0  0  0  0  0  0  0  0  0  0  0  0
    1.7634    5.5757    1.2998 H   0  0  0  0  0  0  0  0  0  0  0  0
    1.6334    4.1274    2.4383 H   0  0  0  0  0  0  0  0  0  0  0  0
    1.1653    0.2839    2.1807 H   0  0  0  0  0  0  0  0  0  0  0  0
    2.3715    1.8844    2.8236 H   0  0  0  0  0  0  0  0  0  0  0  0
  1  2  1  0
  2  3  1  0
  3  4  1  0
  4  5  1  0
  5  6  1  0
  6  7  1  0
  7  8  1  0
  7  9  1  0
  7 10  1  0
 10 11  1  0
 11 12  1  0
 12 13  1  0
 13 14  1  0
 12 15  1  0
 15 16  1  0
  3 17  1  0
  6 17  1  0
  2 18  1  0
 18 19  1  0
 19 20  1  0
 18 21  1  0
 20 22  1  0
 21 22  1  0
 22 23  1  0
 23 24  1  0
 24 25  1  0
 24 26  1  0
 26 27  1  0
 27 28  1  0
 27 29  1  0
 29 30  1  0
 30 31  1  0
 30 32  1  0
 32 33  1  0
 33 34  1  0
 34 35  1  0
 35 36  1  0
 36 37  1  0
 36 38  1  0
 38 39  1  0
 39 40  1  0
 40 41  1  0
 40 42  1  0
 42 43  1  0
 43 44  1  0
 43 45  1  0
 42 46  1  0
 17 47  1  0
 46 47  1  0
 47 48  1  0
 49 50  1  0
 50 51  1  0
 51 52  1  0
 52 53  1  0
 53 54  1  0
 54 55  1  0
 55 56  1  0
 55 57  1  0
 55 58  1  0
 58 59  1  0
 59 60  1  0
 60 61  1  0
 61 62  1  0
 60 63  1  0
 63 64  1  0
 51 65  1  0
 54 65  1  0
 50 66  1  0
 66 67  1  0
 67 68  1  0
 66 69  1  0
 68 70  1  0
 69 70  1  0
 70 71  1  0
 71 72  1  0
 72 73  1  0
 72 74  1  0
 74 75  1  0
 75 76  1  0
 75 77  1  0
 77 78  1  0
 78 79  1  0
 78 80  1  0
 80 81  1  0
 81 82  1  0
 82 83  1  0
 83 84  1  0
 84 85  1  0
 84 86  1  0
 86 87  1  0
 87 88  1  0
 88 89  1  0
 88 90  1  0
 90 91  1  0
 91 92  1  0
 91 93  1  0
 90 94  1  0
 65 95  1  0
 94 95  1  0
 95 96  1  0
 97 98  1  0
 98 99  1  0
 99100  1  0
100101  1  0
101102  1  0
102103  1  0
103104  1  0
103105  1  0
103106  1  0
106107  1  0
107108  1  0
108109  1  0
109110  1  0
108111  1  0
111112  1  0
 99113  1  0
102113  1  0
 98114  1  0
114115  1  0
115116  1  0
114117  1  0
116118  1  0
117118  1  0
118119  1  0
119120  1  0
120121  1  0
120122  1  0
122123  1  0
123124  1  0
123125  1  0
125126  1  0
126127  1  0
126128  1  0
128129  1  0
129130  1  0
130131  1  0
131132  1  0
132133  1  0
132134  1  0
134135  1  0
135136  1  0
136137  1  0
136138  1  0
138139  1  0
139140  1  0
139141  1  0
138142  1  0
113143  1  0
142143  1  0
143144  1  0
  1145  1  0
  2146  1  0
  4147  1  0
  4148  1  0
  5149  1  0
  5150  1  0
  6151  1  1
  8152  1  0
  9153  1  0
 10154  1  0
 10155  1  0
 11156  1  0
 11157  1  0
 13158  1  0
 13159  1  0
 14160  1  0
 14161  1  0
 14162  1  0
 15163  1  0
 15164  1  0
 16165  1  0
 16166  1  0
 16167  1  0
 17168  1  6
 18169  1  1
 19170  1  0
 19171  1  0
 21172  1  0
 22173  1  0
 23174  1  0
 23175  1  0
 24176  1  6
 25177  1  0
 26178  1  0
 26179  1  0
 27180  1  6
 28181  1  0
 29182  1  0
 29183  1  0
 30184  1  1
 31185  1  0
 31186  1  0
 31187  1  0
 32188  1  0
 32189  1  0
 33190  1  0
 33191  1  0
 34192  1  0
 34193  1  0
 35194  1  0
 36195  1  6
 37196  1  0
 38197  1  0
 38198  1  0
 39199  1  0
 39200  1  0
 40201  1  6
 41202  1  0
 41203  1  0
 41204  1  0
 42205  1  6
 43206  1  0
 44207  1  0
 44208  1  0
 44209  1  0
 45210  1  0
 45211  1  0
 45212  1  0
 47213  1  0
 48214  1  0
 49215  1  0
 50216  1  0
 52217  1  0
 52218  1  0
 53219  1  0
 53220  1  0
 54221  1  1
 56222  1  0
 57223  1  0
 58224  1  0
 58225  1  0
 59226  1  0
 59227  1  0
 61228  1  0
 61229  1  0
 62230  1  0
 62231  1  0
 62232  1  0
 63233  1  0
 63234  1  0
 64235  1  0
 64236  1  0
 64237  1  0
 65238  1  6
 66239  1  1
 67240  1  0
 67241  1  0
 69242  1  0
 70243  1  0
 71244  1  0
 71245  1  0
 72246  1  6
 73247  1  0
 74248  1  0
 74249  1  0
 75250  1  6
 76251  1  0
 77252  1  0
 77253  1  0
 78254  1  1
 79255  1  0
 79256  1  0
 79257  1  0
 80258  1  0
 80259  1  0
 81260  1  0
 81261  1  0
 82262  1  0
 82263  1  0
 83264  1  0
 84265  1  6
 85266  1  0
 86267  1  0
 86268  1  0
 87269  1  0
 87270  1  0
 88271  1  6
 89272  1  0
 89273  1  0
 89274  1  0
 90275  1  6
 91276  1  0
 92277  1  0
 92278  1  0
 92279  1  0
 93280  1  0
 93281  1  0
 93282  1  0
 95283  1  0
 96284  1  0
 97285  1  0
 98286  1  6
100287  1  0
100288  1  0
101289  1  0
101290  1  0
102291  1  1
104292  1  0
105293  1  0
106294  1  0
106295  1  0
107296  1  0
107297  1  0
109298  1  0
109299  1  0
110300  1  0
110301  1  0
110302  1  0
111303  1  0
111304  1  0
112305  1  0
112306  1  0
112307  1  0
113308  1  6
114309  1  1
115310  1  0
115311  1  0
117312  1  0
118313  1  1
119314  1  0
119315  1  0
120316  1  6
121317  1  0
122318  1  0
122319  1  0
123320  1  6
124321  1  0
125322  1  0
125323  1  0
126324  1  1
127325  1  0
127326  1  0
127327  1  0
128328  1  0
128329  1  0
129330  1  0
129331  1  0
130332  1  0
130333  1  0
131334  1  0
132335  1  6
133336  1  0
134337  1  0
134338  1  0
135339  1  0
135340  1  0
136341  1  6
137342  1  0
137343  1  0
137344  1  0
138345  1  6
139346  1  0
140347  1  0
140348  1  0
140349  1  0
141350  1  0
141351  1  0
141352  1  0
143353  1  0
144354  1  0
M  END
>  <PDBID>  (1) 
1MRL

>  <PDB ID>  (1) 
1MRL

>  <Generic Name>  (1) 
Dalfopristin

>  <Brand Name>  (1) 
Synercid

>  <DrugBank ID>  (1) 
DB01764

>  <ATC Codes>  (1) 
nan

>  <Ligand ID>  (1) 
DOL

>  <Target Name>  (1) 
Streptogramin A acetyltransferase

>  <UniProt ID>  (1) 
P50870

>  <PDB ID.1>  (1) 
1MRL

>  <Seq. Identity>  (1) 
100%

$$$$
