PDB_DB00586_03
     RDKit          3D

176180  0  0  0  0  0  0  0  0999 V2000
    3.6959   -0.3623   -1.0951 C   0  0  0  0  0  0  0  0  0  0  0  0
    2.3102   -0.8570   -0.6119 C   0  0  2  0  0  0  0  0  0  0  0  0
    1.6437   -1.6075   -2.1148 Cl  0  0  0  0  0  0  0  0  0  0  0  0
    1.4476    0.3401   -0.2851 C   0  0  0  0  0  0  0  0  0  0  0  0
    2.0746    1.1827    0.7968 C   0  0  0  0  0  0  0  0  0  0  0  0
    1.2867    1.2344    2.3445 Cl  0  0  0  0  0  0  0  0  0  0  0  0
    3.4944    0.7147    1.0466 C   0  0  0  0  0  0  0  0  0  0  0  0
    4.2224    0.7572   -0.2562 C   0  0  0  0  0  0  0  0  0  0  0  0
    0.0642    0.1811   -0.2584 N   0  0  0  0  0  0  0  0  0  0  0  0
   -2.0876   -0.1667    0.7476 C   0  0  2  0  0  0  0  0  0  0  0  0
   -0.6633   -0.5889    0.6255 C   0  0  1  0  0  0  0  0  0  0  0  0
   -0.6900   -2.1017    0.3756 C   0  0  0  0  0  0  0  0  0  0  0  0
   -1.5078   -2.5646   -0.7626 C   0  0  0  0  0  0  0  0  0  0  0  0
   -2.8200   -1.8113   -0.8716 C   0  0  0  0  0  0  0  0  0  0  0  0
   -3.0966   -1.2938    0.5113 C   0  0  0  0  0  0  0  0  0  0  0  0
   -2.6265    0.9987    0.0305 C   0  0  0  0  0  0  0  0  0  0  0  0
   -2.0671    2.3372    0.3616 C   0  0  0  0  0  0  0  0  0  0  0  0
   -0.7387    2.5610    0.1406 O   0  0  0  0  0  0  0  0  0  0  0  0
   -2.7457    3.3077   -0.4374 O   0  0  0  0  0  0  0  0  0  0  0  0
    3.6959   -0.3623   -1.0951 C   0  0  0  0  0  0  0  0  0  0  0  0
    2.3102   -0.8570   -0.6119 C   0  0  2  0  0  0  0  0  0  0  0  0
    1.6437   -1.6075   -2.1148 Cl  0  0  0  0  0  0  0  0  0  0  0  0
    1.4476    0.3401   -0.2851 C   0  0  0  0  0  0  0  0  0  0  0  0
    2.0746    1.1827    0.7968 C   0  0  0  0  0  0  0  0  0  0  0  0
    1.2867    1.2344    2.3445 Cl  0  0  0  0  0  0  0  0  0  0  0  0
    3.4944    0.7147    1.0466 C   0  0  0  0  0  0  0  0  0  0  0  0
    4.2224    0.7572   -0.2562 C   0  0  0  0  0  0  0  0  0  0  0  0
    0.0642    0.1811   -0.2584 N   0  0  0  0  0  0  0  0  0  0  0  0
   -2.0876   -0.1667    0.7476 C   0  0  2  0  0  0  0  0  0  0  0  0
   -0.6633   -0.5889    0.6255 C   0  0  1  0  0  0  0  0  0  0  0  0
   -0.6900   -2.1017    0.3756 C   0  0  0  0  0  0  0  0  0  0  0  0
   -1.5078   -2.5646   -0.7626 C   0  0  0  0  0  0  0  0  0  0  0  0
   -2.8200   -1.8113   -0.8716 C   0  0  0  0  0  0  0  0  0  0  0  0
   -3.0966   -1.2938    0.5113 C   0  0  0  0  0  0  0  0  0  0  0  0
   -2.6265    0.9987    0.0305 C   0  0  0  0  0  0  0  0  0  0  0  0
   -2.0671    2.3372    0.3616 C   0  0  0  0  0  0  0  0  0  0  0  0
   -0.7387    2.5610    0.1406 O   0  0  0  0  0  0  0  0  0  0  0  0
   -2.7457    3.3077   -0.4374 O   0  0  0  0  0  0  0  0  0  0  0  0
    3.6959   -0.3623   -1.0951 C   0  0  0  0  0  0  0  0  0  0  0  0
    2.3102   -0.8570   -0.6119 C   0  0  2  0  0  0  0  0  0  0  0  0
    1.6437   -1.6075   -2.1148 Cl  0  0  0  0  0  0  0  0  0  0  0  0
    1.4476    0.3401   -0.2851 C   0  0  0  0  0  0  0  0  0  0  0  0
    2.0746    1.1827    0.7968 C   0  0  0  0  0  0  0  0  0  0  0  0
    1.2867    1.2344    2.3445 Cl  0  0  0  0  0  0  0  0  0  0  0  0
    3.4944    0.7147    1.0466 C   0  0  0  0  0  0  0  0  0  0  0  0
    4.2224    0.7572   -0.2562 C   0  0  0  0  0  0  0  0  0  0  0  0
    0.0642    0.1811   -0.2584 N   0  0  0  0  0  0  0  0  0  0  0  0
   -2.0876   -0.1667    0.7476 C   0  0  2  0  0  0  0  0  0  0  0  0
   -0.6633   -0.5889    0.6255 C   0  0  1  0  0  0  0  0  0  0  0  0
   -0.6900   -2.1017    0.3756 C   0  0  0  0  0  0  0  0  0  0  0  0
   -1.5078   -2.5646   -0.7626 C   0  0  0  0  0  0  0  0  0  0  0  0
   -2.8200   -1.8113   -0.8716 C   0  0  0  0  0  0  0  0  0  0  0  0
   -3.0966   -1.2938    0.5113 C   0  0  0  0  0  0  0  0  0  0  0  0
   -2.6265    0.9987    0.0305 C   0  0  0  0  0  0  0  0  0  0  0  0
   -2.0671    2.3372    0.3616 C   0  0  0  0  0  0  0  0  0  0  0  0
   -0.7387    2.5610    0.1406 O   0  0  0  0  0  0  0  0  0  0  0  0
   -2.7457    3.3077   -0.4374 O   0  0  0  0  0  0  0  0  0  0  0  0
    3.6959   -0.3623   -1.0951 C   0  0  0  0  0  0  0  0  0  0  0  0
    2.3102   -0.8570   -0.6119 C   0  0  2  0  0  0  0  0  0  0  0  0
    1.6437   -1.6075   -2.1148 Cl  0  0  0  0  0  0  0  0  0  0  0  0
    1.4476    0.3401   -0.2851 C   0  0  0  0  0  0  0  0  0  0  0  0
    2.0746    1.1827    0.7968 C   0  0  0  0  0  0  0  0  0  0  0  0
    1.2867    1.2344    2.3445 Cl  0  0  0  0  0  0  0  0  0  0  0  0
    3.4944    0.7147    1.0466 C   0  0  0  0  0  0  0  0  0  0  0  0
    4.2224    0.7572   -0.2562 C   0  0  0  0  0  0  0  0  0  0  0  0
    0.0642    0.1811   -0.2584 N   0  0  0  0  0  0  0  0  0  0  0  0
   -2.0876   -0.1667    0.7476 C   0  0  2  0  0  0  0  0  0  0  0  0
   -0.6633   -0.5889    0.6255 C   0  0  1  0  0  0  0  0  0  0  0  0
   -0.6900   -2.1017    0.3756 C   0  0  0  0  0  0  0  0  0  0  0  0
   -1.5078   -2.5646   -0.7626 C   0  0  0  0  0  0  0  0  0  0  0  0
   -2.8200   -1.8113   -0.8716 C   0  0  0  0  0  0  0  0  0  0  0  0
   -3.0966   -1.2938    0.5113 C   0  0  0  0  0  0  0  0  0  0  0  0
   -2.6265    0.9987    0.0305 C   0  0  0  0  0  0  0  0  0  0  0  0
   -2.0671    2.3372    0.3616 C   0  0  0  0  0  0  0  0  0  0  0  0
   -0.7387    2.5610    0.1406 O   0  0  0  0  0  0  0  0  0  0  0  0
   -2.7457    3.3077   -0.4374 O   0  0  0  0  0  0  0  0  0  0  0  0
    3.5464   -0.0234   -2.1351 H   0  0  0  0  0  0  0  0  0  0  0  0
    4.3817   -1.2145   -1.0784 H   0  0  0  0  0  0  0  0  0  0  0  0
    2.4349   -1.5770    0.1894 H   0  0  0  0  0  0  0  0  0  0  0  0
    1.6264    0.9879   -1.2228 H   0  0  0  0  0  0  0  0  0  0  0  0
    2.2076    2.2636    0.4840 H   0  0  0  0  0  0  0  0  0  0  0  0
    3.9079    1.4464    1.7913 H   0  0  0  0  0  0  0  0  0  0  0  0
    3.5459   -0.2669    1.5374 H   0  0  0  0  0  0  0  0  0  0  0  0
    3.9986    1.7219   -0.7692 H   0  0  0  0  0  0  0  0  0  0  0  0
    5.3218    0.7254   -0.1044 H   0  0  0  0  0  0  0  0  0  0  0  0
   -0.3223    0.1056   -1.2292 H   0  0  0  0  0  0  0  0  0  0  0  0
   -2.2683    0.0422    1.8891 H   0  0  0  0  0  0  0  0  0  0  0  0
   -0.1939   -0.5838    1.6896 H   0  0  0  0  0  0  0  0  0  0  0  0
   -1.1081   -2.5353    1.3521 H   0  0  0  0  0  0  0  0  0  0  0  0
    0.3015   -2.5553    0.3274 H   0  0  0  0  0  0  0  0  0  0  0  0
   -0.9960   -2.6665   -1.7059 H   0  0  0  0  0  0  0  0  0  0  0  0
   -1.8398   -3.6260   -0.4946 H   0  0  0  0  0  0  0  0  0  0  0  0
   -3.6551   -2.4956   -1.1608 H   0  0  0  0  0  0  0  0  0  0  0  0
   -2.7199   -1.0225   -1.6131 H   0  0  0  0  0  0  0  0  0  0  0  0
   -3.0665   -2.0798    1.2627 H   0  0  0  0  0  0  0  0  0  0  0  0
   -4.0948   -0.8091    0.4897 H   0  0  0  0  0  0  0  0  0  0  0  0
   -2.5263    0.9069   -1.0922 H   0  0  0  0  0  0  0  0  0  0  0  0
   -3.7489    1.0872    0.1478 H   0  0  0  0  0  0  0  0  0  0  0  0
   -2.2740    2.6140    1.4408 H   0  0  0  0  0  0  0  0  0  0  0  0
   -0.5325    3.3249   -0.4502 H   0  0  0  0  0  0  0  0  0  0  0  0
   -3.1228    3.9688    0.1671 H   0  0  0  0  0  0  0  0  0  0  0  0
    3.5464   -0.0234   -2.1351 H   0  0  0  0  0  0  0  0  0  0  0  0
    4.3817   -1.2145   -1.0784 H   0  0  0  0  0  0  0  0  0  0  0  0
    2.4349   -1.5770    0.1894 H   0  0  0  0  0  0  0  0  0  0  0  0
    1.6264    0.9879   -1.2228 H   0  0  0  0  0  0  0  0  0  0  0  0
    2.2076    2.2636    0.4840 H   0  0  0  0  0  0  0  0  0  0  0  0
    3.9079    1.4464    1.7913 H   0  0  0  0  0  0  0  0  0  0  0  0
    3.5459   -0.2669    1.5374 H   0  0  0  0  0  0  0  0  0  0  0  0
    3.9986    1.7219   -0.7692 H   0  0  0  0  0  0  0  0  0  0  0  0
    5.3218    0.7254   -0.1044 H   0  0  0  0  0  0  0  0  0  0  0  0
   -0.3223    0.1056   -1.2292 H   0  0  0  0  0  0  0  0  0  0  0  0
   -2.2683    0.0422    1.8891 H   0  0  0  0  0  0  0  0  0  0  0  0
   -0.1939   -0.5838    1.6896 H   0  0  0  0  0  0  0  0  0  0  0  0
   -1.1081   -2.5353    1.3521 H   0  0  0  0  0  0  0  0  0  0  0  0
    0.3015   -2.5553    0.3274 H   0  0  0  0  0  0  0  0  0  0  0  0
   -0.9960   -2.6665   -1.7059 H   0  0  0  0  0  0  0  0  0  0  0  0
   -1.8398   -3.6260   -0.4946 H   0  0  0  0  0  0  0  0  0  0  0  0
   -3.6551   -2.4956   -1.1608 H   0  0  0  0  0  0  0  0  0  0  0  0
   -2.7199   -1.0225   -1.6131 H   0  0  0  0  0  0  0  0  0  0  0  0
   -3.0665   -2.0798    1.2627 H   0  0  0  0  0  0  0  0  0  0  0  0
   -4.0948   -0.8091    0.4897 H   0  0  0  0  0  0  0  0  0  0  0  0
   -2.5263    0.9069   -1.0922 H   0  0  0  0  0  0  0  0  0  0  0  0
   -3.7489    1.0872    0.1478 H   0  0  0  0  0  0  0  0  0  0  0  0
   -2.2740    2.6140    1.4408 H   0  0  0  0  0  0  0  0  0  0  0  0
   -0.5325    3.3249   -0.4502 H   0  0  0  0  0  0  0  0  0  0  0  0
   -3.1228    3.9688    0.1671 H   0  0  0  0  0  0  0  0  0  0  0  0
    3.5464   -0.0234   -2.1351 H   0  0  0  0  0  0  0  0  0  0  0  0
    4.3817   -1.2145   -1.0784 H   0  0  0  0  0  0  0  0  0  0  0  0
    2.4349   -1.5770    0.1894 H   0  0  0  0  0  0  0  0  0  0  0  0
    1.6264    0.9879   -1.2228 H   0  0  0  0  0  0  0  0  0  0  0  0
    2.2076    2.2636    0.4840 H   0  0  0  0  0  0  0  0  0  0  0  0
    3.9079    1.4464    1.7913 H   0  0  0  0  0  0  0  0  0  0  0  0
    3.5459   -0.2669    1.5374 H   0  0  0  0  0  0  0  0  0  0  0  0
    3.9986    1.7219   -0.7692 H   0  0  0  0  0  0  0  0  0  0  0  0
    5.3218    0.7254   -0.1044 H   0  0  0  0  0  0  0  0  0  0  0  0
   -0.3223    0.1056   -1.2292 H   0  0  0  0  0  0  0  0  0  0  0  0
   -2.2683    0.0422    1.8891 H   0  0  0  0  0  0  0  0  0  0  0  0
   -0.1939   -0.5838    1.6896 H   0  0  0  0  0  0  0  0  0  0  0  0
   -1.1081   -2.5353    1.3521 H   0  0  0  0  0  0  0  0  0  0  0  0
    0.3015   -2.5553    0.3274 H   0  0  0  0  0  0  0  0  0  0  0  0
   -0.9960   -2.6665   -1.7059 H   0  0  0  0  0  0  0  0  0  0  0  0
   -1.8398   -3.6260   -0.4946 H   0  0  0  0  0  0  0  0  0  0  0  0
   -3.6551   -2.4956   -1.1608 H   0  0  0  0  0  0  0  0  0  0  0  0
   -2.7199   -1.0225   -1.6131 H   0  0  0  0  0  0  0  0  0  0  0  0
   -3.0665   -2.0798    1.2627 H   0  0  0  0  0  0  0  0  0  0  0  0
   -4.0948   -0.8091    0.4897 H   0  0  0  0  0  0  0  0  0  0  0  0
   -2.5263    0.9069   -1.0922 H   0  0  0  0  0  0  0  0  0  0  0  0
   -3.7489    1.0872    0.1478 H   0  0  0  0  0  0  0  0  0  0  0  0
   -2.2740    2.6140    1.4408 H   0  0  0  0  0  0  0  0  0  0  0  0
   -0.5325    3.3249   -0.4502 H   0  0  0  0  0  0  0  0  0  0  0  0
   -3.1228    3.9688    0.1671 H   0  0  0  0  0  0  0  0  0  0  0  0
    3.5464   -0.0234   -2.1351 H   0  0  0  0  0  0  0  0  0  0  0  0
    4.3817   -1.2145   -1.0784 H   0  0  0  0  0  0  0  0  0  0  0  0
    2.4349   -1.5770    0.1894 H   0  0  0  0  0  0  0  0  0  0  0  0
    1.6264    0.9879   -1.2228 H   0  0  0  0  0  0  0  0  0  0  0  0
    2.2076    2.2636    0.4840 H   0  0  0  0  0  0  0  0  0  0  0  0
    3.9079    1.4464    1.7913 H   0  0  0  0  0  0  0  0  0  0  0  0
    3.5459   -0.2669    1.5374 H   0  0  0  0  0  0  0  0  0  0  0  0
    3.9986    1.7219   -0.7692 H   0  0  0  0  0  0  0  0  0  0  0  0
    5.3218    0.7254   -0.1044 H   0  0  0  0  0  0  0  0  0  0  0  0
   -0.3223    0.1056   -1.2292 H   0  0  0  0  0  0  0  0  0  0  0  0
   -2.2683    0.0422    1.8891 H   0  0  0  0  0  0  0  0  0  0  0  0
   -0.1939   -0.5838    1.6896 H   0  0  0  0  0  0  0  0  0  0  0  0
   -1.1081   -2.5353    1.3521 H   0  0  0  0  0  0  0  0  0  0  0  0
    0.3015   -2.5553    0.3274 H   0  0  0  0  0  0  0  0  0  0  0  0
   -0.9960   -2.6665   -1.7059 H   0  0  0  0  0  0  0  0  0  0  0  0
   -1.8398   -3.6260   -0.4946 H   0  0  0  0  0  0  0  0  0  0  0  0
   -3.6551   -2.4956   -1.1608 H   0  0  0  0  0  0  0  0  0  0  0  0
   -2.7199   -1.0225   -1.6131 H   0  0  0  0  0  0  0  0  0  0  0  0
   -3.0665   -2.0798    1.2627 H   0  0  0  0  0  0  0  0  0  0  0  0
   -4.0948   -0.8091    0.4897 H   0  0  0  0  0  0  0  0  0  0  0  0
   -2.5263    0.9069   -1.0922 H   0  0  0  0  0  0  0  0  0  0  0  0
   -3.7489    1.0872    0.1478 H   0  0  0  0  0  0  0  0  0  0  0  0
   -2.2740    2.6140    1.4408 H   0  0  0  0  0  0  0  0  0  0  0  0
   -0.5325    3.3249   -0.4502 H   0  0  0  0  0  0  0  0  0  0  0  0
   -3.1228    3.9688    0.1671 H   0  0  0  0  0  0  0  0  0  0  0  0
  1  2  1  0
  2  3  1  0
  2  4  1  0
  4  5  1  0
  5  6  1  0
  5  7  1  0
  1  8  1  0
  7  8  1  0
  4  9  1  0
  9 11  1  0
 10 11  1  0
 11 12  1  0
 12 13  1  0
 13 14  1  0
 10 15  1  0
 14 15  1  0
 10 16  1  0
 16 17  1  0
 17 18  1  0
 17 19  1  0
 20 21  1  0
 21 22  1  0
 21 23  1  0
 23 24  1  0
 24 25  1  0
 24 26  1  0
 20 27  1  0
 26 27  1  0
 23 28  1  0
 28 30  1  0
 29 30  1  0
 30 31  1  0
 31 32  1  0
 32 33  1  0
 29 34  1  0
 33 34  1  0
 29 35  1  0
 35 36  1  0
 36 37  1  0
 36 38  1  0
 39 40  1  0
 40 41  1  0
 40 42  1  0
 42 43  1  0
 43 44  1  0
 43 45  1  0
 39 46  1  0
 45 46  1  0
 42 47  1  0
 47 49  1  0
 48 49  1  0
 49 50  1  0
 50 51  1  0
 51 52  1  0
 48 53  1  0
 52 53  1  0
 48 54  1  0
 54 55  1  0
 55 56  1  0
 55 57  1  0
 58 59  1  0
 59 60  1  0
 59 61  1  0
 61 62  1  0
 62 63  1  0
 62 64  1  0
 58 65  1  0
 64 65  1  0
 61 66  1  0
 66 68  1  0
 67 68  1  0
 68 69  1  0
 69 70  1  0
 70 71  1  0
 67 72  1  0
 71 72  1  0
 67 73  1  0
 73 74  1  0
 74 75  1  0
 74 76  1  0
  1 77  1  0
  1 78  1  0
  2 79  1  1
  4 80  1  0
  5 81  1  0
  7 82  1  0
  7 83  1  0
  8 84  1  0
  8 85  1  0
  9 86  1  0
 10 87  1  1
 11 88  1  1
 12 89  1  0
 12 90  1  0
 13 91  1  0
 13 92  1  0
 14 93  1  0
 14 94  1  0
 15 95  1  0
 15 96  1  0
 16 97  1  0
 16 98  1  0
 17 99  1  0
 18100  1  0
 19101  1  0
 20102  1  0
 20103  1  0
 21104  1  1
 23105  1  0
 24106  1  0
 26107  1  0
 26108  1  0
 27109  1  0
 27110  1  0
 28111  1  0
 29112  1  1
 30113  1  1
 31114  1  0
 31115  1  0
 32116  1  0
 32117  1  0
 33118  1  0
 33119  1  0
 34120  1  0
 34121  1  0
 35122  1  0
 35123  1  0
 36124  1  0
 37125  1  0
 38126  1  0
 39127  1  0
 39128  1  0
 40129  1  1
 42130  1  0
 43131  1  0
 45132  1  0
 45133  1  0
 46134  1  0
 46135  1  0
 47136  1  0
 48137  1  1
 49138  1  1
 50139  1  0
 50140  1  0
 51141  1  0
 51142  1  0
 52143  1  0
 52144  1  0
 53145  1  0
 53146  1  0
 54147  1  0
 54148  1  0
 55149  1  0
 56150  1  0
 57151  1  0
 58152  1  0
 58153  1  0
 59154  1  1
 61155  1  0
 62156  1  0
 64157  1  0
 64158  1  0
 65159  1  0
 65160  1  0
 66161  1  0
 67162  1  1
 68163  1  1
 69164  1  0
 69165  1  0
 70166  1  0
 70167  1  0
 71168  1  0
 71169  1  0
 72170  1  0
 72171  1  0
 73172  1  0
 73173  1  0
 74174  1  0
 75175  1  0
 76176  1  0
M  END
>  <PDBID>  (1) 
1PXX

>  <PDB ID>  (1) 
1PXX

>  <Generic Name>  (1) 
Diclofenac

>  <Brand Name>  (1) 
Act Diclo-miso#Apo-diclo#Apo-diclo Rapide 50 Mg Tablets#Apo-diclo SR#Apo-diclofenac#Apo-diclofenac Ophthalmic#Arthrotec#Arthrotec 50#Arthrotec 75#Ava-diclofenac#Ava-diclofenac SR#Cambia#Cataflam#Diclo Gel 1% With Xrylix Sheets#Diclofenac#Diclofenac EC#Diclofenac Ect 25mg#Diclofenac Ect 50mg#Diclofenac K#Diclofenac Misoprostol#Diclofenac Potassium#Diclofenac Potassium for Oral Solution#Diclofenac SR#Diclofenac Sodium#Diclofenac Sodium 3 Percent#Diclofenac Sodium D/r#Diclofenac Sodium Delayed Release#Diclofenac Sodium Delayed Release Delayed Release#Diclofenac Sodium Dr#Diclofenac Sodium Extended-release#Diclofenac Sodium and Misoprostol#Diclofenac Sodium and Misoprostol Delayed-release#Diclofenac Topical Solution#Diclofenac-SR#Diclotec#Diclozor#Dipentocaine Topical Cream Compounding Kit#Dom-diclofenac#Dom-diclofenac-SR#Dyloject#Flector#Gapeam Budibac#Gd-diclofenac/misoprostol 50#Gd-diclofenac/misoprostol 75#Infla-eze#Klofensaid II#Lexixryl#Ntp-diclofenac Potassium#Ntp-diclofenac Sodium#Ntp-diclofenac Sodium SR#Nu-diclo Enteric Coated Tab 25mg#Nu-diclo Enteric Coated Tab 50mg#Nu-diclo Rapide#Nu-diclo SR - Srt 100mg#Nu-diclo SR - Srt 75mg#PMS-diclofenac#PMS-diclofenac K#PMS-diclofenac-SR#PMS-diclofenac-misoprostol#Pennsaid#Penta-diclofenac - 25mg#Penta-diclofenac - 50mg#Previdolrx Analgesic Pak#Previdolrx Plus Analgesic Pak#Pro-diclo Rapide - 50#Rho-diclofenac#Riva-diclofenac 100mg SR Tablets#Riva-diclofenac 50mg Tablets#Riva-diclofenac 75mg SR Tablets#Riva-diclofenac-K 50mg Tablets#Sandoz Diclofenac#Sandoz Diclofenac Misoprostol#Sandoz Diclofenac Ophtha#Sandoz-diclofenac#Sandoz-diclofenac Rapide#Sandoz-diclofenac SR#Solaraze#Taro-diclofenac#Taro-diclofenac Tab 25mg#Taro-diclofenac Tab 50mg#Teva-diclofenac#Teva-diclofenac EC#Teva-diclofenac SR#Teva-diclofenac-K#Vofenal 0.1%#Voltaren#Voltaren Emulgel#Voltaren Emulgel Extra Strength#Voltaren Emulgel Joint Pain#Voltaren Ophtha#Voltaren Rapide Tablets 50mg#Voltaren SR 75 Tab#Voltaren SR Tab 100mg#Voltaren Sup 100mg#Voltaren Sup 50mg#Voltaren Tab 25mg#Voltaren Tab 50mg#Voltaren XR#Xrylix#Zipsor#Zorvolex#Aclonac#Allvoran#Ecofenac#Effekton#Nu-Diclo#Primofenac#Prophenatin#Rhumalgan#Voltaren Emulgel#Voltarol

>  <DrugBank ID>  (1) 
DB00586

>  <ATC Codes>  (1) 
M01AB05#S01BC03#M01AB55#M02AA15#D11AX18#S01CC01

>  <Ligand ID>  (1) 
DIF

>  <Target Name>  (1) 
Prostaglandin G/H synthase 1

>  <UniProt ID>  (1) 
P23219

>  <PDB ID.1>  (1) 
1PXX

>  <Seq. Identity>  (1) 
61%

$$$$
