PDB_DB00443_06
     RDKit          3D

130136  0  0  0  0  0  0  0  0999 V2000
    3.4853    0.6896   -0.4120 C   0  0  0  0  0  0  0  0  0  0  0  0
    4.9350    0.4281   -0.1054 C   0  0  0  0  0  0  0  0  0  0  0  0
    5.0685    0.1033    1.3654 C   0  0  0  0  0  0  0  0  0  0  0  0
    4.3197   -1.2176    1.5866 C   0  0  0  0  0  0  0  0  0  0  0  0
    2.8821   -0.9651    1.3288 C   0  0  0  0  0  0  0  0  0  0  0  0
    2.0260   -2.1719    1.6163 C   0  0  0  0  0  0  0  0  0  0  0  0
    0.5673   -1.8781    1.4455 C   0  0  0  0  0  0  0  0  0  0  0  0
    0.2280   -1.2122    0.1392 C   0  0  2  0  0  0  0  0  0  0  0  0
    1.1682   -0.0232   -0.0547 C   0  0  1  0  0  0  0  0  0  0  0  0
    2.5911   -0.4652   -0.0644 C   0  0  1  0  0  0  0  0  0  0  0  0
    0.7741    0.8299   -1.2213 C   0  0  2  0  0  0  0  0  0  0  0  0
   -0.6107    1.3920   -1.0008 C   0  0  0  0  0  0  0  0  0  0  0  0
   -1.5700    0.2559   -0.8303 C   0  0  1  0  0  0  0  0  0  0  0  0
   -1.1251   -0.6077    0.3007 C   0  0  1  0  0  0  0  0  0  0  0  0
   -2.2619   -1.5780    0.3927 C   0  0  0  0  0  0  0  0  0  0  0  0
   -3.4380   -0.5938    0.2463 C   0  0  2  0  0  0  0  0  0  0  0  0
   -2.9091    0.6935   -0.2506 C   0  0  2  0  0  0  0  0  0  0  0  0
   -1.8434   -0.4898   -2.0972 C   0  0  0  0  0  0  0  0  0  0  0  0
    2.8637   -1.5705   -1.0617 C   0  0  0  0  0  0  0  0  0  0  0  0
   -3.7444    1.3895   -1.2912 C   0  0  0  0  0  0  0  0  0  0  0  0
   -4.9534    2.0003   -0.6382 C   0  0  0  0  0  0  0  0  0  0  0  0
   -4.2613   -0.5601    1.4933 C   0  0  0  0  0  0  0  0  0  0  0  0
    0.9933    0.7659    1.0921 F   0  0  0  0  0  0  0  0  0  0  0  0
    6.3698    0.0412    1.7979 O   0  0  0  0  0  0  0  0  0  0  0  0
    0.9438    0.2383   -2.4467 O   0  0  0  0  0  0  0  0  0  0  0  0
   -2.5661    1.6251    0.7288 O   0  0  0  0  0  0  0  0  0  0  0  0
   -4.1689    0.5663   -2.3216 O   0  0  0  0  0  0  0  0  0  0  0  0
   -5.8578    1.1077   -0.1278 O   0  0  0  0  0  0  0  0  0  0  0  0
   -1.1188    0.0020    1.2243 H   0  0  0  0  0  0  0  0  0  0  0  0
    3.3206    0.9193   -1.0295 C   0  0  0  0  0  0  0  0  0  0  0  0
    4.8123    0.6293   -0.8070 C   0  0  0  0  0  0  0  0  0  0  0  0
    5.1891    0.6824    0.6347 C   0  0  0  0  0  0  0  0  0  0  0  0
    4.0295    0.2237    1.4571 C   0  0  0  0  0  0  0  0  0  0  0  0
    3.2302   -0.7939    0.6718 C   0  0  0  0  0  0  0  0  0  0  0  0
    2.4322   -1.6031    1.6388 C   0  0  0  0  0  0  0  0  0  0  0  0
    1.1347   -0.9011    2.0443 C   0  0  0  0  0  0  0  0  0  0  0  0
    0.3768   -0.7204    0.7692 C   0  0  2  0  0  0  0  0  0  0  0  0
    1.1494    0.3193   -0.0642 C   0  0  1  0  0  0  0  0  0  0  0  0
    2.4703   -0.2223   -0.4723 C   0  0  1  0  0  0  0  0  0  0  0  0
    0.2585    0.7947   -1.1304 C   0  0  2  0  0  0  0  0  0  0  0  0
   -0.8554   -0.1397   -1.5404 C   0  0  0  0  0  0  0  0  0  0  0  0
   -1.6907   -0.6465   -0.4466 C   0  0  1  0  0  0  0  0  0  0  0  0
   -0.9865   -0.2367    0.8623 C   0  0  1  0  0  0  0  0  0  0  0  0
   -1.9338   -0.7856    1.8334 C   0  0  0  0  0  0  0  0  0  0  0  0
   -3.2755   -0.3118    1.2467 C   0  0  2  0  0  0  0  0  0  0  0  0
   -3.0013    0.0425   -0.2091 C   0  0  2  0  0  0  0  0  0  0  0  0
   -1.9707   -2.1216   -0.4871 C   0  0  0  0  0  0  0  0  0  0  0  0
    2.3810   -1.2711   -1.5564 C   0  0  0  0  0  0  0  0  0  0  0  0
   -4.0754   -0.5050   -1.1196 C   0  0  0  0  0  0  0  0  0  0  0  0
   -5.3978    0.1701   -0.9288 C   0  0  0  0  0  0  0  0  0  0  0  0
   -3.7200    0.8849    2.0365 C   0  0  0  0  0  0  0  0  0  0  0  0
    1.4029    1.3611    0.8424 F   0  0  0  0  0  0  0  0  0  0  0  0
    6.2793   -0.1819    0.8876 O   0  0  0  0  0  0  0  0  0  0  0  0
    0.9010    1.1821   -2.3129 O   0  0  0  0  0  0  0  0  0  0  0  0
   -2.8635    1.3846   -0.4244 O   0  0  0  0  0  0  0  0  0  0  0  0
   -3.6672   -0.2554   -2.4363 O   0  0  0  0  0  0  0  0  0  0  0  0
   -5.2960    1.5547   -1.1395 O   0  0  0  0  0  0  0  0  0  0  0  0
    3.4126    0.8992   -1.4988 H   0  0  0  0  0  0  0  0  0  0  0  0
    3.1586    1.5686    0.1696 H   0  0  0  0  0  0  0  0  0  0  0  0
    5.4829    1.3745   -0.2912 H   0  0  0  0  0  0  0  0  0  0  0  0
    5.3496   -0.4192   -0.6698 H   0  0  0  0  0  0  0  0  0  0  0  0
    4.4843    0.8847    1.9332 H   0  0  0  0  0  0  0  0  0  0  0  0
    4.7685   -1.9877    0.9613 H   0  0  0  0  0  0  0  0  0  0  0  0
    4.4388   -1.4308    2.6764 H   0  0  0  0  0  0  0  0  0  0  0  0
    2.5356   -0.1607    2.0279 H   0  0  0  0  0  0  0  0  0  0  0  0
    2.3598   -3.0595    1.0356 H   0  0  0  0  0  0  0  0  0  0  0  0
    2.1872   -2.4282    2.6889 H   0  0  0  0  0  0  0  0  0  0  0  0
    0.0234   -2.8651    1.4775 H   0  0  0  0  0  0  0  0  0  0  0  0
    0.2291   -1.2354    2.2904 H   0  0  0  0  0  0  0  0  0  0  0  0
    0.2901   -1.9281   -0.7022 H   0  0  0  0  0  0  0  0  0  0  0  0
    1.4666    1.7194   -1.1954 H   0  0  0  0  0  0  0  0  0  0  0  0
   -0.8475    2.0179   -1.8849 H   0  0  0  0  0  0  0  0  0  0  0  0
   -0.6001    2.0254   -0.1123 H   0  0  0  0  0  0  0  0  0  0  0  0
   -2.2595   -2.3544   -0.3668 H   0  0  0  0  0  0  0  0  0  0  0  0
   -2.3276   -2.0106    1.4065 H   0  0  0  0  0  0  0  0  0  0  0  0
   -4.0660   -1.0327   -0.5670 H   0  0  0  0  0  0  0  0  0  0  0  0
   -0.9567   -1.1188   -2.4136 H   0  0  0  0  0  0  0  0  0  0  0  0
   -2.6783   -1.1819   -2.0481 H   0  0  0  0  0  0  0  0  0  0  0  0
   -1.9626    0.2179   -2.9423 H   0  0  0  0  0  0  0  0  0  0  0  0
    3.9261   -1.8932   -0.8934 H   0  0  0  0  0  0  0  0  0  0  0  0
    2.7384   -1.2146   -2.0880 H   0  0  0  0  0  0  0  0  0  0  0  0
    2.2479   -2.4602   -0.9133 H   0  0  0  0  0  0  0  0  0  0  0  0
   -3.1684    2.2477   -1.7472 H   0  0  0  0  0  0  0  0  0  0  0  0
   -5.5115    2.6618   -1.3432 H   0  0  0  0  0  0  0  0  0  0  0  0
   -4.6207    2.6418    0.2316 H   0  0  0  0  0  0  0  0  0  0  0  0
   -3.7148   -1.2172    2.2429 H   0  0  0  0  0  0  0  0  0  0  0  0
   -5.2068   -1.1042    1.3246 H   0  0  0  0  0  0  0  0  0  0  0  0
   -4.3479    0.3992    1.9991 H   0  0  0  0  0  0  0  0  0  0  0  0
    6.8977   -0.4818    1.1736 H   0  0  0  0  0  0  0  0  0  0  0  0
    1.4228    0.7830   -3.1099 H   0  0  0  0  0  0  0  0  0  0  0  0
   -2.5919    1.3201    1.6403 H   0  0  0  0  0  0  0  0  0  0  0  0
   -5.0702    0.2112   -2.0535 H   0  0  0  0  0  0  0  0  0  0  0  0
   -6.2764    1.3797    0.7274 H   0  0  0  0  0  0  0  0  0  0  0  0
    3.0700    1.8362   -0.4764 H   0  0  0  0  0  0  0  0  0  0  0  0
    3.2179    1.0121   -2.1305 H   0  0  0  0  0  0  0  0  0  0  0  0
    5.3498    1.4434   -1.3423 H   0  0  0  0  0  0  0  0  0  0  0  0
    5.1033   -0.3122   -1.3137 H   0  0  0  0  0  0  0  0  0  0  0  0
    5.5581    1.6973    0.9448 H   0  0  0  0  0  0  0  0  0  0  0  0
    3.4472    1.0601    1.8336 H   0  0  0  0  0  0  0  0  0  0  0  0
    4.4275   -0.3375    2.3529 H   0  0  0  0  0  0  0  0  0  0  0  0
    4.0006   -1.4958    0.2318 H   0  0  0  0  0  0  0  0  0  0  0  0
    2.1149   -2.5444    1.1240 H   0  0  0  0  0  0  0  0  0  0  0  0
    3.0590   -1.8300    2.5091 H   0  0  0  0  0  0  0  0  0  0  0  0
    1.3701    0.0457    2.5597 H   0  0  0  0  0  0  0  0  0  0  0  0
    0.5820   -1.5859    2.7088 H   0  0  0  0  0  0  0  0  0  0  0  0
    0.5102   -1.6744    0.1788 H   0  0  0  0  0  0  0  0  0  0  0  0
   -0.2639    1.7344   -0.7763 H   0  0  0  0  0  0  0  0  0  0  0  0
   -1.4206    0.3802   -2.3464 H   0  0  0  0  0  0  0  0  0  0  0  0
   -0.3658   -1.0128   -2.0533 H   0  0  0  0  0  0  0  0  0  0  0  0
   -1.0221    0.8740    0.9105 H   0  0  0  0  0  0  0  0  0  0  0  0
   -1.9012   -1.8660    1.9665 H   0  0  0  0  0  0  0  0  0  0  0  0
   -1.7872   -0.3291    2.8389 H   0  0  0  0  0  0  0  0  0  0  0  0
   -3.9682   -1.1435    1.3668 H   0  0  0  0  0  0  0  0  0  0  0  0
   -2.2657   -2.3583   -1.5347 H   0  0  0  0  0  0  0  0  0  0  0  0
   -2.8122   -2.3624    0.2113 H   0  0  0  0  0  0  0  0  0  0  0  0
   -1.1481   -2.7743   -0.2269 H   0  0  0  0  0  0  0  0  0  0  0  0
    1.8842   -2.1874   -1.2368 H   0  0  0  0  0  0  0  0  0  0  0  0
    1.9859   -0.8803   -2.5097 H   0  0  0  0  0  0  0  0  0  0  0  0
    3.4492   -1.5628   -1.7819 H   0  0  0  0  0  0  0  0  0  0  0  0
   -4.2244   -1.5849   -1.0354 H   0  0  0  0  0  0  0  0  0  0  0  0
   -5.8734   -0.0169    0.0385 H   0  0  0  0  0  0  0  0  0  0  0  0
   -6.0912   -0.2006   -1.7115 H   0  0  0  0  0  0  0  0  0  0  0  0
   -2.8797    1.5222    2.3635 H   0  0  0  0  0  0  0  0  0  0  0  0
   -4.5196    1.4632    1.5497 H   0  0  0  0  0  0  0  0  0  0  0  0
   -4.1762    0.4844    2.9875 H   0  0  0  0  0  0  0  0  0  0  0  0
    6.4472   -0.7608    0.0783 H   0  0  0  0  0  0  0  0  0  0  0  0
    1.0447    2.1640   -2.3587 H   0  0  0  0  0  0  0  0  0  0  0  0
   -2.9286    1.9506    0.3690 H   0  0  0  0  0  0  0  0  0  0  0  0
   -4.4492   -0.4602   -3.0099 H   0  0  0  0  0  0  0  0  0  0  0  0
   -5.1581    1.7234   -2.1001 H   0  0  0  0  0  0  0  0  0  0  0  0
  1  2  1  0
  2  3  1  0
  3  4  1  0
  4  5  1  0
  5  6  1  0
  6  7  1  0
  7  8  1  0
  8  9  1  0
  1 10  1  0
  5 10  1  0
  9 10  1  0
  9 11  1  0
 11 12  1  0
 12 13  1  0
  8 14  1  0
 13 14  1  0
 14 15  1  0
 15 16  1  0
 13 17  1  0
 16 17  1  0
 13 18  1  6
 10 19  1  6
 17 20  1  0
 20 21  1  0
 16 22  1  0
  9 23  1  1
  3 24  1  0
 11 25  1  0
 17 26  1  1
 20 27  1  0
 21 28  1  0
 14 29  1  1
 30 31  1  0
 31 32  1  0
 32 33  1  0
 33 34  1  0
 34 35  1  0
 35 36  1  0
 36 37  1  0
 37 38  1  0
 30 39  1  0
 34 39  1  0
 38 39  1  0
 38 40  1  0
 40 41  1  0
 41 42  1  0
 37 43  1  0
 42 43  1  0
 43 44  1  0
 44 45  1  0
 42 46  1  0
 45 46  1  0
 42 47  1  6
 39 48  1  6
 46 49  1  0
 49 50  1  0
 45 51  1  0
 38 52  1  1
 32 53  1  0
 40 54  1  0
 46 55  1  1
 49 56  1  0
 50 57  1  0
  1 58  1  0
  1 59  1  0
  2 60  1  0
  2 61  1  0
  3 62  1  0
  4 63  1  0
  4 64  1  0
  5 65  1  0
  6 66  1  0
  6 67  1  0
  7 68  1  0
  7 69  1  0
  8 70  1  6
 11 71  1  6
 12 72  1  0
 12 73  1  0
 15 74  1  0
 15 75  1  0
 16 76  1  6
 18 77  1  0
 18 78  1  0
 18 79  1  0
 19 80  1  0
 19 81  1  0
 19 82  1  0
 20 83  1  0
 21 84  1  0
 21 85  1  0
 22 86  1  0
 22 87  1  0
 22 88  1  0
 24 89  1  0
 25 90  1  0
 26 91  1  0
 27 92  1  0
 28 93  1  0
 30 94  1  0
 30 95  1  0
 31 96  1  0
 31 97  1  0
 32 98  1  0
 33 99  1  0
 33100  1  0
 34101  1  0
 35102  1  0
 35103  1  0
 36104  1  0
 36105  1  0
 37106  1  6
 40107  1  1
 41108  1  0
 41109  1  0
 43110  1  6
 44111  1  0
 44112  1  0
 45113  1  6
 47114  1  0
 47115  1  0
 47116  1  0
 48117  1  0
 48118  1  0
 48119  1  0
 49120  1  0
 50121  1  0
 50122  1  0
 51123  1  0
 51124  1  0
 51125  1  0
 53126  1  0
 54127  1  0
 55128  1  0
 56129  1  0
 57130  1  0
M  END
>  <PDBID>  (1) 
1M2Z

>  <PDB ID>  (1) 
1M2Z

>  <Generic Name>  (1) 
Betamethasone

>  <Brand Name>  (1) 
Beben Gel 0.025%#Beta 1 Kit#Betacort Scalp Lotion 0.1%#Betaderm Crm 0.05%#Betaderm Crm 0.1%#Betaderm Lotion 0.1%#Betaderm Ont 0.05%#Betaderm Ont 0.1%#Betagel - 0.1%#Betaject#Betaloan Suik#Betamethasone#Betamethasone Clotrimazole#Betamethasone Combo 6mg/ml PF#Betamethasone Combo 7mg/ml#Betamethasone Dipropionate#Betamethasone Dipropionate Augmented#Betamethasone Sodium Phosphate and Betamethasone Acetate#Betamethasone Sp 24mg/2ml PF#Betamethasone Valerate#Betamethasone Valerate Lot 0.1% USP#Betamycin Ophthalmic/otic Solution#Betaprolene Cream 0.05%#Betaprolene Ointment 0.05%#Betaprone Cream 0.05%#Betaprone Lotion 0.05%#Betaprone Ointment 0.05%#Beteflam#Betnesol Eye and Ear Drops#Betnesol Eye and Ear Drops 0.1%#Betnesol Pellets 0.1mg#Betnesol Retention Enema 5mg/100ml#Betnesol Retention Enemas#Betnesol Tab 0.5mg#Betnesol Tablets#Betnovate 1/2 Crm 0.05%#Betnovate 1/2 Lot 0.05%#Betnovate 1/2 Ont 0.05%#Betnovate Crm 0.1%#Betnovate Lot 0.1%#Betnovate Lotion 0.1%#Betnovate Ont 0.1%#Calcipotriene 0.005% and Betamethasone Dipropionate 0.064%#Calcipotriene and Betamethasone Dipropionate#Celestoderm V#Celestoderm V Crm 0.1%#Celestoderm V Ont 0.1%#Celestoderm V/2#Celestoderm V/2 Cream .05%#Celestoderm V/2 Ointment 0.05%#Celestone Repetabs 1mg#Celestone Soluspan#Celestone Tab 0.5mg#Clotrimazole and Betamethasone Dipropionate#Dermacinrx Therazole Pak#Diprogen Cream#Diprogen Ointment#Diprolene#Diprolene AF#Diprosalic#Diprosone Cream 0.05%#Diprosone Lotion 0.05%#Diprosone Ointment 0.05%#Dom-gentamicin-betamethasone#Dovobet Gel#Dovobet Ointment#Dr. Throwers Beta#Dr. Throwers Pbc No. 1#Enstilar#Garasone Ophthalmic Ointment#Garasone Ophthalmic and Otic Solution#Lotriderm Cream#Lotrisone#Luxiq#Marbeta 25 Kit#Occlucort Film Forming Lot 0.05#PMS-clotrimazole-betamethasone#PMS-gentamicin-betamethasone#Prevex B Cream 0.1%#Pro-lene Glycol Cream - 0.05%#Pro-lene Glycol Lotion - 0.05%#Pro-lene Glycol Ointment - 0.05%#Pro-sone Cream - 0.05%#Pro-sone Lotion -  0.05%#Pro-sone Ointment - 0.05%#Ratio-ectosone#Ratio-ectosone Mild Cream 0.05%#Ratio-ectosone Mild Lotion 0.05%#Ratio-ectosone Regular Cream 0.1%#Ratio-ectosone Regular Lotion 0.1%#Ratio-topilene#Ratio-topisalic#Ratio-topisone#Readysharp Betamethasone#Rhoprolene Glycol Cream 0.5mg/gm#Rhoprolene Glycol Lotion 0.5mg/gm#Rhoprolene Glycol Ointment 0.5mg/gm#Rhoprosone Cream 0.05%#Rhoprosone Lotion 0.05%#Rhoprosone Oint 0.05%#Rivasone Scalp Lot 0.1%#Rolene Cream 0.05%#Rolene Lotion 0.05%#Rolene Ointment 0.05%#Rosone Cream 0.05%#Rosone Lotion 0.05%#Rosone Ointment 0.05%#Sandoz Pentasone#Sernivo#Taclonex#Taclonex Scalp#Taro Sone Lot 0.05%#Taro Sone Ont#Taro-sone Cream 0.05%#Valisone Scalp Lotion#Valisone-G Cream#Valisone-G Ointment#Bentelan#Betnovate#Celestamine#Celestone#Diprosone#Fucibet#Procort#Rinderon

>  <DrugBank ID>  (1) 
DB00443

>  <ATC Codes>  (1) 
S01BB04#R03BA04#S01CA05#H02AB01#R01AD06#D07BC01#C05AA05#D07CC01#D07AC01#S01CB04#D07XC01#S02BA07#A07EA04#S03BA03#S01BA06#S03CA06

>  <Ligand ID>  (1) 
DEX

>  <Target Name>  (1) 
Glucocorticoid receptor

>  <UniProt ID>  (1) 
P04150

>  <PDB ID.1>  (1) 
1M2Z

>  <Seq. Identity>  (1) 
100%

$$$$
