PDB_DB00390_04
     RDKit          3D

246260  0  0  0  0  0  0  0  0999 V2000
   -3.2967   -2.0858    1.3167 C   0  0  0  0  0  0  0  0  0  0  0  0
   -1.7985   -2.1933    1.2177 C   0  0  0  0  0  0  0  0  0  0  0  0
   -1.2839   -1.8236   -0.1536 C   0  0  2  0  0  0  0  0  0  0  0  0
   -0.4543   -0.7202   -0.0088 O   0  0  0  0  0  0  0  0  0  0  0  0
   -2.4877   -1.3183   -0.9423 C   0  0  0  0  0  0  0  0  0  0  0  0
   -3.0032   -0.1227   -0.1343 C   0  0  1  0  0  0  0  0  0  0  0  0
   -3.7686    0.8032   -1.0362 C   0  0  0  0  0  0  0  0  0  0  0  0
   -4.8445    1.5735   -0.3145 C   0  0  0  0  0  0  0  0  0  0  0  0
   -5.7202    0.7175    0.5301 C   0  0  2  0  0  0  0  0  0  0  0  0
   -5.2439   -0.6958    0.6201 C   0  0  1  0  0  0  0  0  0  0  0  0
   -3.7868   -0.6769    1.0071 C   0  0  1  0  0  0  0  0  0  0  0  0
   -6.0867   -1.3614    1.6829 C   0  0  0  0  0  0  0  0  0  0  0  0
   -7.5170   -1.3793    1.3193 C   0  0  1  0  0  0  0  0  0  0  0  0
   -8.2588   -1.7651    2.4405 O   0  0  0  0  0  0  0  0  0  0  0  0
   -8.1021   -0.0859    0.8133 C   0  0  1  0  0  0  0  0  0  0  0  0
   -7.1510    0.7847    0.0943 C   0  0  1  0  0  0  0  0  0  0  0  0
   -7.5341    2.1303    0.3107 O   0  0  0  0  0  0  0  0  0  0  0  0
   -7.3184    0.5000   -1.3832 C   0  0  0  0  0  0  0  0  0  0  0  0
   -8.7425    0.0258   -1.5409 C   0  0  0  0  0  0  0  0  0  0  0  0
   -9.1763   -0.4488   -0.1697 C   0  0  2  0  0  0  0  0  0  0  0  0
   -8.5973    0.6637    2.0299 C   0  0  0  0  0  0  0  0  0  0  0  0
   -3.5175    0.1607    2.2396 C   0  0  0  0  0  0  0  0  0  0  0  0
    0.7928   -0.8701   -0.5367 C   0  0  1  0  0  0  0  0  0  0  0  0
    5.5530    1.0491   -0.2666 C   0  0  2  0  0  0  0  0  0  0  0  0
   10.5210   -0.3435   -0.1252 C   0  0  2  0  0  0  0  0  0  0  0  0
  -10.5606   -0.0332    0.1720 C   0  0  1  0  0  0  0  0  0  0  0  0
  -10.8614    1.4050    0.2727 C   0  0  0  0  0  0  0  0  0  0  0  0
  -12.1657    1.6097   -0.1965 O   0  0  0  0  0  0  0  0  0  0  0  0
  -11.5152   -0.4927   -0.9410 C   0  0  0  0  0  0  0  0  0  0  0  0
  -12.4538    0.6501   -1.1269 C   0  0  0  0  0  0  0  0  0  0  0  0
  -12.3576    1.2121   -2.4065 O   0  0  0  0  0  0  0  0  0  0  0  0
    1.1463    0.0864   -1.6455 C   0  0  0  0  0  0  0  0  0  0  0  0
    6.3348    1.0975    1.0004 C   0  0  0  0  0  0  0  0  0  0  0  0
   11.4852    0.0659   -1.1656 C   0  0  0  0  0  0  0  0  0  0  0  0
    2.6645    0.1585   -1.6979 C   0  0  2  0  0  0  0  0  0  0  0  0
    3.1939   -1.1123   -1.9156 O   0  0  0  0  0  0  0  0  0  0  0  0
    7.4119    0.0703    1.0616 C   0  0  2  0  0  0  0  0  0  0  0  0
    8.2176    0.3804    2.1753 O   0  0  0  0  0  0  0  0  0  0  0  0
   12.7229   -0.8378   -1.0772 C   0  0  2  0  0  0  0  0  0  0  0  0
   12.3719   -2.1833   -1.1594 O   0  0  0  0  0  0  0  0  0  0  0  0
    3.2586    0.6870   -0.4143 C   0  0  2  0  0  0  0  0  0  0  0  0
    4.5254    0.1201   -0.2876 O   0  0  0  0  0  0  0  0  0  0  0  0
    8.2379    0.0891   -0.2074 C   0  0  2  0  0  0  0  0  0  0  0  0
    9.4920    0.5576    0.0973 O   0  0  0  0  0  0  0  0  0  0  0  0
   13.3974   -0.6407    0.2721 C   0  0  2  0  0  0  0  0  0  0  0  0
   14.1282   -1.7473    0.6811 O   0  0  0  0  0  0  0  0  0  0  0  0
    2.3578    0.3191    0.7233 C   0  0  2  0  0  0  0  0  0  0  0  0
    1.7074   -0.8591    0.4930 O   0  0  0  0  0  0  0  0  0  0  0  0
    7.6528    0.9900   -1.2703 C   0  0  2  0  0  0  0  0  0  0  0  0
    6.2988    0.8480   -1.4126 O   0  0  0  0  0  0  0  0  0  0  0  0
   12.3698   -0.1985    1.3019 C   0  0  2  0  0  0  0  0  0  0  0  0
   11.1245   -0.6913    1.0386 O   0  0  0  0  0  0  0  0  0  0  0  0
    1.4383    1.4764    1.0565 C   0  0  0  0  0  0  0  0  0  0  0  0
    8.2991    0.6109   -2.5904 C   0  0  0  0  0  0  0  0  0  0  0  0
   12.3835    1.3013    1.4772 C   0  0  0  0  0  0  0  0  0  0  0  0
   -3.2967   -2.0858    1.3167 C   0  0  0  0  0  0  0  0  0  0  0  0
   -1.7985   -2.1933    1.2177 C   0  0  0  0  0  0  0  0  0  0  0  0
   -1.2839   -1.8236   -0.1536 C   0  0  2  0  0  0  0  0  0  0  0  0
   -0.4543   -0.7202   -0.0088 O   0  0  0  0  0  0  0  0  0  0  0  0
   -2.4877   -1.3183   -0.9423 C   0  0  0  0  0  0  0  0  0  0  0  0
   -3.0032   -0.1227   -0.1343 C   0  0  1  0  0  0  0  0  0  0  0  0
   -3.7686    0.8032   -1.0362 C   0  0  0  0  0  0  0  0  0  0  0  0
   -4.8445    1.5735   -0.3145 C   0  0  0  0  0  0  0  0  0  0  0  0
   -5.7202    0.7175    0.5301 C   0  0  2  0  0  0  0  0  0  0  0  0
   -5.2439   -0.6958    0.6201 C   0  0  1  0  0  0  0  0  0  0  0  0
   -3.7868   -0.6769    1.0071 C   0  0  1  0  0  0  0  0  0  0  0  0
   -6.0867   -1.3614    1.6829 C   0  0  0  0  0  0  0  0  0  0  0  0
   -7.5170   -1.3793    1.3193 C   0  0  1  0  0  0  0  0  0  0  0  0
   -8.2588   -1.7651    2.4405 O   0  0  0  0  0  0  0  0  0  0  0  0
   -8.1021   -0.0859    0.8133 C   0  0  1  0  0  0  0  0  0  0  0  0
   -7.1510    0.7847    0.0943 C   0  0  1  0  0  0  0  0  0  0  0  0
   -7.5341    2.1303    0.3107 O   0  0  0  0  0  0  0  0  0  0  0  0
   -7.3184    0.5000   -1.3832 C   0  0  0  0  0  0  0  0  0  0  0  0
   -8.7425    0.0258   -1.5409 C   0  0  0  0  0  0  0  0  0  0  0  0
   -9.1763   -0.4488   -0.1697 C   0  0  2  0  0  0  0  0  0  0  0  0
   -8.5973    0.6637    2.0299 C   0  0  0  0  0  0  0  0  0  0  0  0
   -3.5175    0.1607    2.2396 C   0  0  0  0  0  0  0  0  0  0  0  0
    0.7928   -0.8701   -0.5367 C   0  0  1  0  0  0  0  0  0  0  0  0
    5.5530    1.0491   -0.2666 C   0  0  2  0  0  0  0  0  0  0  0  0
   10.5210   -0.3435   -0.1252 C   0  0  2  0  0  0  0  0  0  0  0  0
  -10.5606   -0.0332    0.1720 C   0  0  1  0  0  0  0  0  0  0  0  0
  -10.8614    1.4050    0.2727 C   0  0  0  0  0  0  0  0  0  0  0  0
  -12.1657    1.6097   -0.1965 O   0  0  0  0  0  0  0  0  0  0  0  0
  -11.5152   -0.4927   -0.9410 C   0  0  0  0  0  0  0  0  0  0  0  0
  -12.4538    0.6501   -1.1269 C   0  0  0  0  0  0  0  0  0  0  0  0
  -12.3576    1.2121   -2.4065 O   0  0  0  0  0  0  0  0  0  0  0  0
    1.1463    0.0864   -1.6455 C   0  0  0  0  0  0  0  0  0  0  0  0
    6.3348    1.0975    1.0004 C   0  0  0  0  0  0  0  0  0  0  0  0
   11.4852    0.0659   -1.1656 C   0  0  0  0  0  0  0  0  0  0  0  0
    2.6645    0.1585   -1.6979 C   0  0  2  0  0  0  0  0  0  0  0  0
    3.1939   -1.1123   -1.9156 O   0  0  0  0  0  0  0  0  0  0  0  0
    7.4119    0.0703    1.0616 C   0  0  2  0  0  0  0  0  0  0  0  0
    8.2176    0.3804    2.1753 O   0  0  0  0  0  0  0  0  0  0  0  0
   12.7229   -0.8378   -1.0772 C   0  0  2  0  0  0  0  0  0  0  0  0
   12.3719   -2.1833   -1.1594 O   0  0  0  0  0  0  0  0  0  0  0  0
    3.2586    0.6870   -0.4143 C   0  0  2  0  0  0  0  0  0  0  0  0
    4.5254    0.1201   -0.2876 O   0  0  0  0  0  0  0  0  0  0  0  0
    8.2379    0.0891   -0.2074 C   0  0  2  0  0  0  0  0  0  0  0  0
    9.4920    0.5576    0.0973 O   0  0  0  0  0  0  0  0  0  0  0  0
   13.3974   -0.6407    0.2721 C   0  0  2  0  0  0  0  0  0  0  0  0
   14.1282   -1.7473    0.6811 O   0  0  0  0  0  0  0  0  0  0  0  0
    2.3578    0.3191    0.7233 C   0  0  2  0  0  0  0  0  0  0  0  0
    1.7074   -0.8591    0.4930 O   0  0  0  0  0  0  0  0  0  0  0  0
    7.6528    0.9900   -1.2703 C   0  0  2  0  0  0  0  0  0  0  0  0
    6.2988    0.8480   -1.4126 O   0  0  0  0  0  0  0  0  0  0  0  0
   12.3698   -0.1985    1.3019 C   0  0  2  0  0  0  0  0  0  0  0  0
   11.1245   -0.6913    1.0386 O   0  0  0  0  0  0  0  0  0  0  0  0
    1.4383    1.4764    1.0565 C   0  0  0  0  0  0  0  0  0  0  0  0
    8.2991    0.6109   -2.5904 C   0  0  0  0  0  0  0  0  0  0  0  0
   12.3835    1.3013    1.4772 C   0  0  0  0  0  0  0  0  0  0  0  0
   -3.8276   -2.8567    0.7328 H   0  0  0  0  0  0  0  0  0  0  0  0
   -3.5541   -2.2924    2.3893 H   0  0  0  0  0  0  0  0  0  0  0  0
   -1.3409   -1.5890    2.0244 H   0  0  0  0  0  0  0  0  0  0  0  0
   -1.5510   -3.2610    1.4719 H   0  0  0  0  0  0  0  0  0  0  0  0
   -0.8119   -2.6595   -0.6764 H   0  0  0  0  0  0  0  0  0  0  0  0
   -3.2617   -2.0885   -1.0689 H   0  0  0  0  0  0  0  0  0  0  0  0
   -2.1064   -0.9881   -1.9288 H   0  0  0  0  0  0  0  0  0  0  0  0
   -2.1307    0.4341    0.2846 H   0  0  0  0  0  0  0  0  0  0  0  0
   -3.0567    1.5480   -1.4514 H   0  0  0  0  0  0  0  0  0  0  0  0
   -4.1574    0.2351   -1.9047 H   0  0  0  0  0  0  0  0  0  0  0  0
   -4.3321    2.3810    0.2872 H   0  0  0  0  0  0  0  0  0  0  0  0
   -5.4274    2.1252   -1.0782 H   0  0  0  0  0  0  0  0  0  0  0  0
   -5.6836    1.1251    1.5826 H   0  0  0  0  0  0  0  0  0  0  0  0
   -5.3337   -1.2622   -0.3080 H   0  0  0  0  0  0  0  0  0  0  0  0
   -5.7373   -2.4313    1.7164 H   0  0  0  0  0  0  0  0  0  0  0  0
   -5.9611   -0.9622    2.6876 H   0  0  0  0  0  0  0  0  0  0  0  0
   -7.6841   -2.2003    0.5620 H   0  0  0  0  0  0  0  0  0  0  0  0
   -8.5493   -2.7108    2.4007 H   0  0  0  0  0  0  0  0  0  0  0  0
   -6.9652    2.5626    0.9876 H   0  0  0  0  0  0  0  0  0  0  0  0
   -6.6618   -0.3181   -1.6749 H   0  0  0  0  0  0  0  0  0  0  0  0
   -7.0887    1.3844   -1.9793 H   0  0  0  0  0  0  0  0  0  0  0  0
   -8.8542   -0.7558   -2.3177 H   0  0  0  0  0  0  0  0  0  0  0  0
   -9.3612    0.8871   -1.8917 H   0  0  0  0  0  0  0  0  0  0  0  0
   -9.2297   -1.5825   -0.2868 H   0  0  0  0  0  0  0  0  0  0  0  0
   -9.4962    0.2313    2.4867 H   0  0  0  0  0  0  0  0  0  0  0  0
   -8.6013    1.7581    1.8970 H   0  0  0  0  0  0  0  0  0  0  0  0
   -7.7865    0.4949    2.8079 H   0  0  0  0  0  0  0  0  0  0  0  0
   -3.0764    1.1492    1.9226 H   0  0  0  0  0  0  0  0  0  0  0  0
   -2.7116   -0.3138    2.8550 H   0  0  0  0  0  0  0  0  0  0  0  0
   -4.3746    0.2886    2.8995 H   0  0  0  0  0  0  0  0  0  0  0  0
    0.8421   -1.9077   -0.9800 H   0  0  0  0  0  0  0  0  0  0  0  0
    5.0545    2.0595   -0.3645 H   0  0  0  0  0  0  0  0  0  0  0  0
    9.9973   -1.2728   -0.5119 H   0  0  0  0  0  0  0  0  0  0  0  0
  -10.9539   -0.5399    1.0846 H   0  0  0  0  0  0  0  0  0  0  0  0
  -10.1841    2.0956   -0.2636 H   0  0  0  0  0  0  0  0  0  0  0  0
  -10.8954    1.7495    1.3323 H   0  0  0  0  0  0  0  0  0  0  0  0
  -10.9362   -0.6399   -1.8801 H   0  0  0  0  0  0  0  0  0  0  0  0
  -12.0649   -1.4122   -0.6644 H   0  0  0  0  0  0  0  0  0  0  0  0
  -13.5163    0.3302   -1.0190 H   0  0  0  0  0  0  0  0  0  0  0  0
  -13.1751    1.7180   -2.6437 H   0  0  0  0  0  0  0  0  0  0  0  0
    0.6788    1.0648   -1.5772 H   0  0  0  0  0  0  0  0  0  0  0  0
    0.8258   -0.3702   -2.6022 H   0  0  0  0  0  0  0  0  0  0  0  0
    5.6409    0.9137    1.8594 H   0  0  0  0  0  0  0  0  0  0  0  0
    6.7705    2.1271    1.0976 H   0  0  0  0  0  0  0  0  0  0  0  0
   11.1071   -0.0875   -2.2114 H   0  0  0  0  0  0  0  0  0  0  0  0
   11.8755    1.1059   -1.0370 H   0  0  0  0  0  0  0  0  0  0  0  0
    2.9917    0.7636   -2.5893 H   0  0  0  0  0  0  0  0  0  0  0  0
    2.4794   -1.7472   -2.2085 H   0  0  0  0  0  0  0  0  0  0  0  0
    6.9838   -0.9287    1.2864 H   0  0  0  0  0  0  0  0  0  0  0  0
    8.7137   -0.4529    2.3953 H   0  0  0  0  0  0  0  0  0  0  0  0
   13.4346   -0.6356   -1.9025 H   0  0  0  0  0  0  0  0  0  0  0  0
   12.2304   -2.4591   -2.0976 H   0  0  0  0  0  0  0  0  0  0  0  0
    3.4073    1.7869   -0.4581 H   0  0  0  0  0  0  0  0  0  0  0  0
    8.2223   -0.9431   -0.5954 H   0  0  0  0  0  0  0  0  0  0  0  0
   14.1069    0.1980    0.1533 H   0  0  0  0  0  0  0  0  0  0  0  0
   13.9899   -1.8809    1.6666 H   0  0  0  0  0  0  0  0  0  0  0  0
    2.9563    0.1443    1.6712 H   0  0  0  0  0  0  0  0  0  0  0  0
    7.9256    2.0543   -1.0522 H   0  0  0  0  0  0  0  0  0  0  0  0
   12.7038   -0.6330    2.2694 H   0  0  0  0  0  0  0  0  0  0  0  0
    1.4911    2.2959    0.3158 H   0  0  0  0  0  0  0  0  0  0  0  0
    1.6950    1.9584    2.0422 H   0  0  0  0  0  0  0  0  0  0  0  0
    0.4149    1.0741    1.2000 H   0  0  0  0  0  0  0  0  0  0  0  0
    7.5477    0.6607   -3.4069 H   0  0  0  0  0  0  0  0  0  0  0  0
    9.1088    1.3074   -2.8762 H   0  0  0  0  0  0  0  0  0  0  0  0
    8.6294   -0.4390   -2.5342 H   0  0  0  0  0  0  0  0  0  0  0  0
   13.1590    1.8024    0.8603 H   0  0  0  0  0  0  0  0  0  0  0  0
   12.5935    1.6053    2.5310 H   0  0  0  0  0  0  0  0  0  0  0  0
   11.3801    1.7446    1.2344 H   0  0  0  0  0  0  0  0  0  0  0  0
   -3.8276   -2.8567    0.7328 H   0  0  0  0  0  0  0  0  0  0  0  0
   -3.5541   -2.2924    2.3893 H   0  0  0  0  0  0  0  0  0  0  0  0
   -1.3409   -1.5890    2.0244 H   0  0  0  0  0  0  0  0  0  0  0  0
   -1.5510   -3.2610    1.4719 H   0  0  0  0  0  0  0  0  0  0  0  0
   -0.8119   -2.6595   -0.6764 H   0  0  0  0  0  0  0  0  0  0  0  0
   -3.2617   -2.0885   -1.0689 H   0  0  0  0  0  0  0  0  0  0  0  0
   -2.1064   -0.9881   -1.9288 H   0  0  0  0  0  0  0  0  0  0  0  0
   -2.1307    0.4341    0.2846 H   0  0  0  0  0  0  0  0  0  0  0  0
   -3.0567    1.5480   -1.4514 H   0  0  0  0  0  0  0  0  0  0  0  0
   -4.1574    0.2351   -1.9047 H   0  0  0  0  0  0  0  0  0  0  0  0
   -4.3321    2.3810    0.2872 H   0  0  0  0  0  0  0  0  0  0  0  0
   -5.4274    2.1252   -1.0782 H   0  0  0  0  0  0  0  0  0  0  0  0
   -5.6836    1.1251    1.5826 H   0  0  0  0  0  0  0  0  0  0  0  0
   -5.3337   -1.2622   -0.3080 H   0  0  0  0  0  0  0  0  0  0  0  0
   -5.7373   -2.4313    1.7164 H   0  0  0  0  0  0  0  0  0  0  0  0
   -5.9611   -0.9622    2.6876 H   0  0  0  0  0  0  0  0  0  0  0  0
   -7.6841   -2.2003    0.5620 H   0  0  0  0  0  0  0  0  0  0  0  0
   -8.5493   -2.7108    2.4007 H   0  0  0  0  0  0  0  0  0  0  0  0
   -6.9652    2.5626    0.9876 H   0  0  0  0  0  0  0  0  0  0  0  0
   -6.6618   -0.3181   -1.6749 H   0  0  0  0  0  0  0  0  0  0  0  0
   -7.0887    1.3844   -1.9793 H   0  0  0  0  0  0  0  0  0  0  0  0
   -8.8542   -0.7558   -2.3177 H   0  0  0  0  0  0  0  0  0  0  0  0
   -9.3612    0.8871   -1.8917 H   0  0  0  0  0  0  0  0  0  0  0  0
   -9.2297   -1.5825   -0.2868 H   0  0  0  0  0  0  0  0  0  0  0  0
   -9.4962    0.2313    2.4867 H   0  0  0  0  0  0  0  0  0  0  0  0
   -8.6013    1.7581    1.8970 H   0  0  0  0  0  0  0  0  0  0  0  0
   -7.7865    0.4949    2.8079 H   0  0  0  0  0  0  0  0  0  0  0  0
   -3.0764    1.1492    1.9226 H   0  0  0  0  0  0  0  0  0  0  0  0
   -2.7116   -0.3138    2.8550 H   0  0  0  0  0  0  0  0  0  0  0  0
   -4.3746    0.2886    2.8995 H   0  0  0  0  0  0  0  0  0  0  0  0
    0.8421   -1.9077   -0.9800 H   0  0  0  0  0  0  0  0  0  0  0  0
    5.0545    2.0595   -0.3645 H   0  0  0  0  0  0  0  0  0  0  0  0
    9.9973   -1.2728   -0.5119 H   0  0  0  0  0  0  0  0  0  0  0  0
  -10.9539   -0.5399    1.0846 H   0  0  0  0  0  0  0  0  0  0  0  0
  -10.1841    2.0956   -0.2636 H   0  0  0  0  0  0  0  0  0  0  0  0
  -10.8954    1.7495    1.3323 H   0  0  0  0  0  0  0  0  0  0  0  0
  -10.9362   -0.6399   -1.8801 H   0  0  0  0  0  0  0  0  0  0  0  0
  -12.0649   -1.4122   -0.6644 H   0  0  0  0  0  0  0  0  0  0  0  0
  -13.5163    0.3302   -1.0190 H   0  0  0  0  0  0  0  0  0  0  0  0
  -13.1751    1.7180   -2.6437 H   0  0  0  0  0  0  0  0  0  0  0  0
    0.6788    1.0648   -1.5772 H   0  0  0  0  0  0  0  0  0  0  0  0
    0.8258   -0.3702   -2.6022 H   0  0  0  0  0  0  0  0  0  0  0  0
    5.6409    0.9137    1.8594 H   0  0  0  0  0  0  0  0  0  0  0  0
    6.7705    2.1271    1.0976 H   0  0  0  0  0  0  0  0  0  0  0  0
   11.1071   -0.0875   -2.2114 H   0  0  0  0  0  0  0  0  0  0  0  0
   11.8755    1.1059   -1.0370 H   0  0  0  0  0  0  0  0  0  0  0  0
    2.9917    0.7636   -2.5893 H   0  0  0  0  0  0  0  0  0  0  0  0
    2.4794   -1.7472   -2.2085 H   0  0  0  0  0  0  0  0  0  0  0  0
    6.9838   -0.9287    1.2864 H   0  0  0  0  0  0  0  0  0  0  0  0
    8.7137   -0.4529    2.3953 H   0  0  0  0  0  0  0  0  0  0  0  0
   13.4346   -0.6356   -1.9025 H   0  0  0  0  0  0  0  0  0  0  0  0
   12.2304   -2.4591   -2.0976 H   0  0  0  0  0  0  0  0  0  0  0  0
    3.4073    1.7869   -0.4581 H   0  0  0  0  0  0  0  0  0  0  0  0
    8.2223   -0.9431   -0.5954 H   0  0  0  0  0  0  0  0  0  0  0  0
   14.1069    0.1980    0.1533 H   0  0  0  0  0  0  0  0  0  0  0  0
   13.9899   -1.8809    1.6666 H   0  0  0  0  0  0  0  0  0  0  0  0
    2.9563    0.1443    1.6712 H   0  0  0  0  0  0  0  0  0  0  0  0
    7.9256    2.0543   -1.0522 H   0  0  0  0  0  0  0  0  0  0  0  0
   12.7038   -0.6330    2.2694 H   0  0  0  0  0  0  0  0  0  0  0  0
    1.4911    2.2959    0.3158 H   0  0  0  0  0  0  0  0  0  0  0  0
    1.6950    1.9584    2.0422 H   0  0  0  0  0  0  0  0  0  0  0  0
    0.4149    1.0741    1.2000 H   0  0  0  0  0  0  0  0  0  0  0  0
    7.5477    0.6607   -3.4069 H   0  0  0  0  0  0  0  0  0  0  0  0
    9.1088    1.3074   -2.8762 H   0  0  0  0  0  0  0  0  0  0  0  0
    8.6294   -0.4390   -2.5342 H   0  0  0  0  0  0  0  0  0  0  0  0
   13.1590    1.8024    0.8603 H   0  0  0  0  0  0  0  0  0  0  0  0
   12.5935    1.6053    2.5310 H   0  0  0  0  0  0  0  0  0  0  0  0
   11.3801    1.7446    1.2344 H   0  0  0  0  0  0  0  0  0  0  0  0
  1  2  1  0
  2  3  1  0
  3  4  1  0
  3  5  1  0
  5  6  1  0
  6  7  1  0
  7  8  1  0
  8  9  1  0
  9 10  1  0
  1 11  1  0
  6 11  1  0
 10 11  1  0
 10 12  1  0
 12 13  1  0
 13 14  1  0
 13 15  1  0
  9 16  1  0
 15 16  1  0
 16 17  1  6
 16 18  1  0
 18 19  1  0
 15 20  1  0
 19 20  1  0
 15 21  1  1
 11 22  1  1
  4 23  1  0
 20 26  1  0
 26 27  1  0
 27 28  1  0
 26 29  1  0
 28 30  1  0
 29 30  1  0
 30 31  1  0
 23 32  1  0
 24 33  1  0
 25 34  1  0
 32 35  1  0
 35 36  1  0
 33 37  1  0
 37 38  1  0
 34 39  1  0
 39 40  1  0
 35 41  1  0
 24 42  1  0
 41 42  1  0
 37 43  1  0
 25 44  1  0
 43 44  1  0
 39 45  1  0
 45 46  1  0
 41 47  1  0
 23 48  1  0
 47 48  1  0
 43 49  1  0
 24 50  1  0
 49 50  1  0
 45 51  1  0
 25 52  1  0
 51 52  1  0
 47 53  1  0
 49 54  1  0
 51 55  1  0
 56 57  1  0
 57 58  1  0
 58 59  1  0
 58 60  1  0
 60 61  1  0
 61 62  1  0
 62 63  1  0
 63 64  1  0
 64 65  1  0
 56 66  1  0
 61 66  1  0
 65 66  1  0
 65 67  1  0
 67 68  1  0
 68 69  1  0
 68 70  1  0
 64 71  1  0
 70 71  1  0
 71 72  1  6
 71 73  1  0
 73 74  1  0
 70 75  1  0
 74 75  1  0
 70 76  1  1
 66 77  1  1
 59 78  1  0
 75 81  1  0
 81 82  1  0
 82 83  1  0
 81 84  1  0
 83 85  1  0
 84 85  1  0
 85 86  1  0
 78 87  1  0
 79 88  1  0
 80 89  1  0
 87 90  1  0
 90 91  1  0
 88 92  1  0
 92 93  1  0
 89 94  1  0
 94 95  1  0
 90 96  1  0
 79 97  1  0
 96 97  1  0
 92 98  1  0
 80 99  1  0
 98 99  1  0
 94100  1  0
100101  1  0
 96102  1  0
 78103  1  0
102103  1  0
 98104  1  0
 79105  1  0
104105  1  0
100106  1  0
 80107  1  0
106107  1  0
102108  1  0
104109  1  0
106110  1  0
  1111  1  0
  1112  1  0
  2113  1  0
  2114  1  0
  3115  1  6
  5116  1  0
  5117  1  0
  6118  1  1
  7119  1  0
  7120  1  0
  8121  1  0
  8122  1  0
  9123  1  1
 10124  1  6
 12125  1  0
 12126  1  0
 13127  1  6
 14128  1  0
 17129  1  0
 18130  1  0
 18131  1  0
 19132  1  0
 19133  1  0
 20134  1  6
 21135  1  0
 21136  1  0
 21137  1  0
 22138  1  0
 22139  1  0
 22140  1  0
 23141  1  6
 24142  1  6
 25143  1  6
 26144  1  1
 27145  1  0
 27146  1  0
 29147  1  0
 29148  1  0
 30149  1  0
 31150  1  0
 32151  1  0
 32152  1  0
 33153  1  0
 33154  1  0
 34155  1  0
 34156  1  0
 35157  1  6
 36158  1  0
 37159  1  1
 38160  1  0
 39161  1  6
 40162  1  0
 41163  1  6
 43164  1  6
 45165  1  6
 46166  1  0
 47167  1  1
 49168  1  1
 51169  1  1
 53170  1  0
 53171  1  0
 53172  1  0
 54173  1  0
 54174  1  0
 54175  1  0
 55176  1  0
 55177  1  0
 55178  1  0
 56179  1  0
 56180  1  0
 57181  1  0
 57182  1  0
 58183  1  6
 60184  1  0
 60185  1  0
 61186  1  1
 62187  1  0
 62188  1  0
 63189  1  0
 63190  1  0
 64191  1  1
 65192  1  6
 67193  1  0
 67194  1  0
 68195  1  6
 69196  1  0
 72197  1  0
 73198  1  0
 73199  1  0
 74200  1  0
 74201  1  0
 75202  1  6
 76203  1  0
 76204  1  0
 76205  1  0
 77206  1  0
 77207  1  0
 77208  1  0
 78209  1  6
 79210  1  6
 80211  1  6
 81212  1  1
 82213  1  0
 82214  1  0
 84215  1  0
 84216  1  0
 85217  1  0
 86218  1  0
 87219  1  0
 87220  1  0
 88221  1  0
 88222  1  0
 89223  1  0
 89224  1  0
 90225  1  6
 91226  1  0
 92227  1  1
 93228  1  0
 94229  1  6
 95230  1  0
 96231  1  6
 98232  1  6
100233  1  6
101234  1  0
102235  1  1
104236  1  1
106237  1  1
108238  1  0
108239  1  0
108240  1  0
109241  1  0
109242  1  0
109243  1  0
110244  1  0
110245  1  0
110246  1  0
M  END
>  <PDBID>  (1) 
4RET

>  <PDB ID>  (1) 
4RET

>  <Generic Name>  (1) 
Digoxin

>  <Brand Name>  (1) 
Apo-digoxin#Digitek#Digox#Digoxin#Digoxin Injection C.S.D.#Lanoxin#Lanoxin Elx 0.05mg/ml Pediatric#Lanoxin Inj 0.05mg/ml Pediatric#Lanoxin Inj 0.25mg/ml#Lanoxin Tab 0.0625mg#Lanoxin Tab 0.125mg#Lanoxin Tab 0.25mg#Novo-digoxin Tab 0.25mg#PMS-digoxin#Pediatric Digoxin Injection C.S.D.#Toloxin#Agoxin#Cardiacin#Cardiogoxin#Cardioxin#Cardoxin#Celoxin#Centoxin#Digacin#Digocard-G#Digoxina#Eudigox#Lanacordin#Lanacrist#Lanicor#Lanoxicaps#Lenoxin

>  <DrugBank ID>  (1) 
DB00390

>  <ATC Codes>  (1) 
C01AA05

>  <Ligand ID>  (1) 
DGX

>  <Target Name>  (1) 
Sodium/potassium-transporting ATPase subunit alpha-1

>  <UniProt ID>  (1) 
P05023

>  <PDB ID.1>  (1) 
4RET

>  <Seq. Identity>  (1) 
94%

$$$$
