PDB_DB00619_07
     RDKit          3D

 94 98  0  0  0  0  0  0  0  0999 V2000
   -8.7479    0.1423    0.6738 C   0  0  0  0  0  0  0  0  0  0  0  0
   -7.4737    0.4614   -0.0413 C   0  0  0  0  0  0  0  0  0  0  0  0
   -6.9357   -0.5711   -0.9311 C   0  0  0  0  0  0  0  0  0  0  0  0
   -7.9601   -1.5105   -1.5178 C   0  0  0  0  0  0  0  0  0  0  0  0
   -9.2917   -0.9408   -1.3902 N   0  0  0  0  0  0  0  0  0  0  0  0
   -9.5620   -0.9403    0.0571 C   0  0  0  0  0  0  0  0  0  0  0  0
   -5.7599   -1.3771   -0.4202 C   0  0  0  0  0  0  0  0  0  0  0  0
   -6.0316   -2.1384    0.8433 C   0  0  0  0  0  0  0  0  0  0  0  0
   -5.7201   -1.4375    2.1123 C   0  0  0  0  0  0  0  0  0  0  0  0
   -4.6535   -0.4637    1.9901 N   0  0  0  0  0  0  0  0  0  0  0  0
   -3.8447   -0.7485    0.8101 C   0  0  0  0  0  0  0  0  0  0  0  0
   -4.5597   -0.5914   -0.4108 N   0  0  0  0  0  0  0  0  0  0  0  0
   -2.5665   -0.1588    0.9058 N   0  0  0  0  0  0  0  0  0  0  0  0
   -2.4087    1.2390    1.0190 C   0  0  0  0  0  0  0  0  0  0  0  0
   -2.8517    1.9762   -0.1891 C   0  0  0  0  0  0  0  0  0  0  0  0
   -1.7365    2.5350   -1.0509 C   0  0  0  0  0  0  0  0  0  0  0  0
   -0.4456    1.7659   -0.7032 C   0  0  0  0  0  0  0  0  0  0  0  0
   -0.0964    2.2142    0.6693 C   0  0  1  0  0  0  0  0  0  0  0  0
   -1.1080    1.6511    1.6310 C   0  0  0  0  0  0  0  0  0  0  0  0
    1.2242    2.0517    1.0466 N   0  0  0  0  0  0  0  0  0  0  0  0
    1.9230    0.8875    1.2584 C   0  0  0  0  0  0  0  0  0  0  0  0
    2.1915    0.0007    0.1103 C   0  0  0  0  0  0  0  0  0  0  0  0
    2.9340   -1.2700    0.5108 C   0  0  0  0  0  0  0  0  0  0  0  0
    4.2543   -0.9637    1.0649 C   0  0  0  0  0  0  0  0  0  0  0  0
    5.1383   -0.0696    0.2599 C   0  0  0  0  0  0  0  0  0  0  0  0
    4.4463    0.9212   -0.5893 C   0  0  0  0  0  0  0  0  0  0  0  0
    3.0498    0.6232   -0.9579 C   0  0  0  0  0  0  0  0  0  0  0  0
    6.1395   -0.9168   -0.4901 C   0  0  0  0  0  0  0  0  0  0  0  0
    7.0552   -0.1927   -1.3087 N   0  0  0  0  0  0  0  0  0  0  0  0
    7.9881    0.6152   -0.5819 C   0  0  0  0  0  0  0  0  0  0  0  0
    8.9256   -0.1890    0.2815 C   0  0  0  0  0  0  0  0  0  0  0  0
    9.6734   -1.1097   -0.5259 N   0  0  0  0  0  0  0  0  0  0  0  0
    9.7397   -2.3763    0.1299 C   0  0  0  0  0  0  0  0  0  0  0  0
    9.2636   -1.1320   -1.8915 C   0  0  0  0  0  0  0  0  0  0  0  0
    7.7862   -1.1554   -2.1136 C   0  0  0  0  0  0  0  0  0  0  0  0
    3.2335    1.3133    1.7066 O   0  0  0  0  0  0  0  0  0  0  0  0
   -3.8699    3.0909    0.1212 C   0  0  0  0  0  0  0  0  0  0  0  0
   -9.4103    1.0613    0.7271 H   0  0  0  0  0  0  0  0  0  0  0  0
   -8.5940   -0.1128    1.7452 H   0  0  0  0  0  0  0  0  0  0  0  0
   -7.6671    1.4302   -0.6076 H   0  0  0  0  0  0  0  0  0  0  0  0
   -6.7162    0.7606    0.7026 H   0  0  0  0  0  0  0  0  0  0  0  0
   -6.5041   -0.0365   -1.8394 H   0  0  0  0  0  0  0  0  0  0  0  0
   -7.9334   -2.4675   -0.9714 H   0  0  0  0  0  0  0  0  0  0  0  0
   -7.7912   -1.7252   -2.5898 H   0  0  0  0  0  0  0  0  0  0  0  0
   -9.2221    0.0729   -1.6888 H   0  0  0  0  0  0  0  0  0  0  0  0
   -9.3133   -1.9281    0.4562 H   0  0  0  0  0  0  0  0  0  0  0  0
  -10.6472   -0.7436    0.2420 H   0  0  0  0  0  0  0  0  0  0  0  0
   -5.6052   -2.1464   -1.2718 H   0  0  0  0  0  0  0  0  0  0  0  0
   -7.0646   -2.5033    0.8977 H   0  0  0  0  0  0  0  0  0  0  0  0
   -5.4080   -3.0780    0.7648 H   0  0  0  0  0  0  0  0  0  0  0  0
   -6.6139   -1.0686    2.6099 H   0  0  0  0  0  0  0  0  0  0  0  0
   -5.3072   -2.2262    2.8213 H   0  0  0  0  0  0  0  0  0  0  0  0
   -4.0492   -0.4094    2.8071 H   0  0  0  0  0  0  0  0  0  0  0  0
   -3.6559   -1.8829    0.8824 H   0  0  0  0  0  0  0  0  0  0  0  0
   -3.9167   -0.9854   -1.1642 H   0  0  0  0  0  0  0  0  0  0  0  0
   -1.8492   -0.7149    0.4457 H   0  0  0  0  0  0  0  0  0  0  0  0
   -3.2221    1.5345    1.8149 H   0  0  0  0  0  0  0  0  0  0  0  0
   -3.3998    1.2907   -0.8569 H   0  0  0  0  0  0  0  0  0  0  0  0
   -1.9145    2.4867   -2.1196 H   0  0  0  0  0  0  0  0  0  0  0  0
   -1.5612    3.5776   -0.7445 H   0  0  0  0  0  0  0  0  0  0  0  0
    0.3252    2.1359   -1.4370 H   0  0  0  0  0  0  0  0  0  0  0  0
   -0.5920    0.7075   -0.8592 H   0  0  0  0  0  0  0  0  0  0  0  0
   -0.3252    3.3465    0.6704 H   0  0  0  0  0  0  0  0  0  0  0  0
   -0.7215    0.7460    2.1598 H   0  0  0  0  0  0  0  0  0  0  0  0
   -1.2815    2.3988    2.4279 H   0  0  0  0  0  0  0  0  0  0  0  0
    1.7475    2.9497    1.2520 H   0  0  0  0  0  0  0  0  0  0  0  0
    1.5911    0.3009    2.1746 H   0  0  0  0  0  0  0  0  0  0  0  0
    1.2716   -0.3463   -0.3973 H   0  0  0  0  0  0  0  0  0  0  0  0
    2.3110   -1.7319    1.3175 H   0  0  0  0  0  0  0  0  0  0  0  0
    2.9459   -1.9091   -0.3958 H   0  0  0  0  0  0  0  0  0  0  0  0
    4.8016   -1.9706    1.1420 H   0  0  0  0  0  0  0  0  0  0  0  0
    4.1952   -0.6595    2.1277 H   0  0  0  0  0  0  0  0  0  0  0  0
    5.7653    0.5017    1.0093 H   0  0  0  0  0  0  0  0  0  0  0  0
    5.0307    0.9968   -1.5542 H   0  0  0  0  0  0  0  0  0  0  0  0
    4.4670    1.9601   -0.1731 H   0  0  0  0  0  0  0  0  0  0  0  0
    2.5519    1.5325   -1.3357 H   0  0  0  0  0  0  0  0  0  0  0  0
    3.0184   -0.1024   -1.8242 H   0  0  0  0  0  0  0  0  0  0  0  0
    5.5796   -1.6367   -1.1253 H   0  0  0  0  0  0  0  0  0  0  0  0
    6.7049   -1.5449    0.2593 H   0  0  0  0  0  0  0  0  0  0  0  0
    8.6032    1.1588   -1.3333 H   0  0  0  0  0  0  0  0  0  0  0  0
    7.5229    1.3766    0.0632 H   0  0  0  0  0  0  0  0  0  0  0  0
    9.6705    0.5437    0.6927 H   0  0  0  0  0  0  0  0  0  0  0  0
    8.3864   -0.7049    1.0767 H   0  0  0  0  0  0  0  0  0  0  0  0
    8.8141   -2.5519    0.7189 H   0  0  0  0  0  0  0  0  0  0  0  0
   10.5804   -2.3744    0.8682 H   0  0  0  0  0  0  0  0  0  0  0  0
    9.9225   -3.2269   -0.5644 H   0  0  0  0  0  0  0  0  0  0  0  0
    9.6914   -2.0169   -2.4061 H   0  0  0  0  0  0  0  0  0  0  0  0
    9.6703   -0.2435   -2.4031 H   0  0  0  0  0  0  0  0  0  0  0  0
    7.4457   -2.2028   -1.8708 H   0  0  0  0  0  0  0  0  0  0  0  0
    7.5917   -1.0211   -3.1926 H   0  0  0  0  0  0  0  0  0  0  0  0
    3.1412    2.1435    2.2170 H   0  0  0  0  0  0  0  0  0  0  0  0
   -3.7871    3.7888   -0.7330 H   0  0  0  0  0  0  0  0  0  0  0  0
   -4.9033    2.6822    0.0687 H   0  0  0  0  0  0  0  0  0  0  0  0
   -3.7122    3.5520    1.0922 H   0  0  0  0  0  0  0  0  0  0  0  0
  1  2  1  0
  2  3  1  0
  3  4  1  0
  4  5  1  0
  1  6  1  0
  5  6  1  0
  3  7  1  0
  7  8  1  0
  8  9  1  0
  9 10  1  0
 10 11  1  0
  7 12  1  0
 11 12  1  0
 11 13  1  0
 13 14  1  0
 14 15  1  0
 15 16  1  0
 16 17  1  0
 17 18  1  0
 14 19  1  0
 18 19  1  0
 18 20  1  0
 20 21  1  0
 21 22  1  0
 22 23  1  0
 23 24  1  0
 24 25  1  0
 25 26  1  0
 22 27  1  0
 26 27  1  0
 25 28  1  0
 28 29  1  0
 29 30  1  0
 30 31  1  0
 31 32  1  0
 32 33  1  0
 32 34  1  0
 29 35  1  0
 34 35  1  0
 21 36  1  0
 15 37  1  0
  1 38  1  0
  1 39  1  0
  2 40  1  0
  2 41  1  0
  3 42  1  0
  4 43  1  0
  4 44  1  0
  5 45  1  0
  6 46  1  0
  6 47  1  0
  7 48  1  0
  8 49  1  0
  8 50  1  0
  9 51  1  0
  9 52  1  0
 10 53  1  0
 11 54  1  0
 12 55  1  0
 13 56  1  0
 14 57  1  0
 15 58  1  0
 16 59  1  0
 16 60  1  0
 17 61  1  0
 17 62  1  0
 18 63  1  6
 19 64  1  0
 19 65  1  0
 20 66  1  0
 21 67  1  0
 22 68  1  0
 23 69  1  0
 23 70  1  0
 24 71  1  0
 24 72  1  0
 25 73  1  0
 26 74  1  0
 26 75  1  0
 27 76  1  0
 27 77  1  0
 28 78  1  0
 28 79  1  0
 30 80  1  0
 30 81  1  0
 31 82  1  0
 31 83  1  0
 33 84  1  0
 33 85  1  0
 33 86  1  0
 34 87  1  0
 34 88  1  0
 35 89  1  0
 35 90  1  0
 36 91  1  0
 37 92  1  0
 37 93  1  0
 37 94  1  0
M  END
>  <PDBID>  (1) 
1T46

>  <PDB ID>  (1) 
1T46

>  <Generic Name>  (1) 
Imatinib

>  <Brand Name>  (1) 
Apo-imatinib#Gleevec#Imatinib Mesylate#Mylan-imatinib#Nat-imatinib#PMS-imatinib#Ran-imatinib#Teva-imatinib#Celonib#Enliven#Glivec#Imatib#Mesylonib#Mitinab#Plivatinib#Shantinib

>  <DrugBank ID>  (1) 
DB00619

>  <ATC Codes>  (1) 
L01XE01

>  <Ligand ID>  (1) 
STI

>  <Target Name>  (1) 
Mast/stem cell growth factor receptor Kit

>  <UniProt ID>  (1) 
P10721

>  <PDB ID.1>  (1) 
1T46

>  <Seq. Identity>  (1) 
90%

$$$$
