PDB_DB00939_03
     RDKit          3D

 88 90  0  0  0  0  0  0  0  0999 V2000
   -1.5062    2.1697   -1.4834 O   0  0  0  0  0  0  0  0  0  0  0  0
   -2.3244    2.0396   -0.3783 C   0  0  0  0  0  0  0  0  0  0  0  0
   -3.5644    2.5957   -0.6825 O   0  0  0  0  0  0  0  0  0  0  0  0
   -2.4812    0.6126    0.0852 C   0  0  0  0  0  0  0  0  0  0  0  0
   -3.0727   -0.2902   -0.9489 C   0  0  0  0  0  0  0  0  0  0  0  0
   -3.3772   -1.6180   -0.2546 C   0  0  0  0  0  0  0  0  0  0  0  0
   -2.1737   -2.1952    0.4200 C   0  0  0  0  0  0  0  0  0  0  0  0
   -1.5885   -1.1905    1.4107 C   0  0  0  0  0  0  0  0  0  0  0  0
   -1.1749    0.0197    0.5542 C   0  0  0  0  0  0  0  0  0  0  0  0
   -0.3662   -0.4913   -0.5018 N   0  0  0  0  0  0  0  0  0  0  0  0
    1.0000   -0.6712   -0.0099 C   0  0  0  0  0  0  0  0  0  0  0  0
    1.6103    0.6444    0.3990 C   0  0  0  0  0  0  0  0  0  0  0  0
    1.8284    0.7513    2.1613 Cl  0  0  0  0  0  0  0  0  0  0  0  0
    2.9555    0.9006   -0.2384 C   0  0  0  0  0  0  0  0  0  0  0  0
    3.5830    2.0848    0.4800 C   0  0  0  0  0  0  0  0  0  0  0  0
    3.8469   -0.2812   -0.0308 C   0  0  0  0  0  0  0  0  0  0  0  0
    3.2237   -1.5783   -0.4668 C   0  0  0  0  0  0  0  0  0  0  0  0
    1.8377   -1.4373   -1.0070 C   0  0  0  0  0  0  0  0  0  0  0  0
    1.7650   -0.7588   -2.6294 Cl  0  0  0  0  0  0  0  0  0  0  0  0
   -2.4007   -0.4500   -1.8167 H   0  0  0  0  0  0  0  0  0  0  0  0
   -4.1515   -1.3860    0.5082 H   0  0  0  0  0  0  0  0  0  0  0  0
   -2.4917   -3.0930    0.9657 H   0  0  0  0  0  0  0  0  0  0  0  0
   -0.7481   -1.5848    1.9734 H   0  0  0  0  0  0  0  0  0  0  0  0
   -0.4022    0.0213   -1.3850 H   0  0  0  0  0  0  0  0  0  0  0  0
    2.8198    2.8022    0.8507 H   0  0  0  0  0  0  0  0  0  0  0  0
    4.2259    2.6898   -0.2197 H   0  0  0  0  0  0  0  0  0  0  0  0
    4.1725    1.7761    1.3629 H   0  0  0  0  0  0  0  0  0  0  0  0
    4.0719   -0.3222    1.0749 H   0  0  0  0  0  0  0  0  0  0  0  0
    3.9094   -2.0530   -1.2185 H   0  0  0  0  0  0  0  0  0  0  0  0
   -1.5062    2.1697   -1.4834 O   0  0  0  0  0  0  0  0  0  0  0  0
   -2.3244    2.0396   -0.3783 C   0  0  0  0  0  0  0  0  0  0  0  0
   -3.5644    2.5957   -0.6825 O   0  0  0  0  0  0  0  0  0  0  0  0
   -2.4812    0.6126    0.0852 C   0  0  0  0  0  0  0  0  0  0  0  0
   -3.0727   -0.2902   -0.9489 C   0  0  0  0  0  0  0  0  0  0  0  0
   -3.3772   -1.6180   -0.2546 C   0  0  0  0  0  0  0  0  0  0  0  0
   -2.1737   -2.1952    0.4200 C   0  0  0  0  0  0  0  0  0  0  0  0
   -1.5885   -1.1905    1.4107 C   0  0  0  0  0  0  0  0  0  0  0  0
   -1.1749    0.0197    0.5542 C   0  0  0  0  0  0  0  0  0  0  0  0
   -0.3662   -0.4913   -0.5018 N   0  0  0  0  0  0  0  0  0  0  0  0
    1.0000   -0.6712   -0.0099 C   0  0  0  0  0  0  0  0  0  0  0  0
    1.6103    0.6444    0.3990 C   0  0  0  0  0  0  0  0  0  0  0  0
    1.8284    0.7513    2.1613 Cl  0  0  0  0  0  0  0  0  0  0  0  0
    2.9555    0.9006   -0.2384 C   0  0  0  0  0  0  0  0  0  0  0  0
    3.5830    2.0848    0.4800 C   0  0  0  0  0  0  0  0  0  0  0  0
    3.8469   -0.2812   -0.0308 C   0  0  0  0  0  0  0  0  0  0  0  0
    3.2237   -1.5783   -0.4668 C   0  0  0  0  0  0  0  0  0  0  0  0
    1.8377   -1.4373   -1.0070 C   0  0  0  0  0  0  0  0  0  0  0  0
    1.7650   -0.7588   -2.6294 Cl  0  0  0  0  0  0  0  0  0  0  0  0
   -2.4007   -0.4500   -1.8167 H   0  0  0  0  0  0  0  0  0  0  0  0
   -4.1515   -1.3860    0.5082 H   0  0  0  0  0  0  0  0  0  0  0  0
   -2.4917   -3.0930    0.9657 H   0  0  0  0  0  0  0  0  0  0  0  0
   -0.7481   -1.5848    1.9734 H   0  0  0  0  0  0  0  0  0  0  0  0
   -0.4022    0.0213   -1.3850 H   0  0  0  0  0  0  0  0  0  0  0  0
    2.8198    2.8022    0.8507 H   0  0  0  0  0  0  0  0  0  0  0  0
    4.2259    2.6898   -0.2197 H   0  0  0  0  0  0  0  0  0  0  0  0
    4.1725    1.7761    1.3629 H   0  0  0  0  0  0  0  0  0  0  0  0
    4.0719   -0.3222    1.0749 H   0  0  0  0  0  0  0  0  0  0  0  0
    3.9094   -2.0530   -1.2185 H   0  0  0  0  0  0  0  0  0  0  0  0
   -1.7629    3.0351   -1.9332 H   0  0  0  0  0  0  0  0  0  0  0  0
   -1.9132    2.6462    0.4608 H   0  0  0  0  0  0  0  0  0  0  0  0
   -4.1856    2.2880    0.0474 H   0  0  0  0  0  0  0  0  0  0  0  0
   -3.1667    0.6242    0.9568 H   0  0  0  0  0  0  0  0  0  0  0  0
   -4.0388    0.1450   -1.2698 H   0  0  0  0  0  0  0  0  0  0  0  0
   -3.7672   -2.3631   -0.9742 H   0  0  0  0  0  0  0  0  0  0  0  0
   -1.3945   -2.4481   -0.3346 H   0  0  0  0  0  0  0  0  0  0  0  0
   -2.4093   -0.8531    2.0826 H   0  0  0  0  0  0  0  0  0  0  0  0
   -0.5678    0.7020    1.1730 H   0  0  0  0  0  0  0  0  0  0  0  0
    0.9632   -1.3024    0.9087 H   0  0  0  0  0  0  0  0  0  0  0  0
    0.9605    1.5147    0.1130 H   0  0  0  0  0  0  0  0  0  0  0  0
    2.8490    1.1461   -1.3303 H   0  0  0  0  0  0  0  0  0  0  0  0
    4.8189   -0.0858   -0.5216 H   0  0  0  0  0  0  0  0  0  0  0  0
    3.1877   -2.2791    0.3890 H   0  0  0  0  0  0  0  0  0  0  0  0
    1.4004   -2.4764   -1.0367 H   0  0  0  0  0  0  0  0  0  0  0  0
   -1.7629    3.0351   -1.9332 H   0  0  0  0  0  0  0  0  0  0  0  0
   -1.9132    2.6462    0.4608 H   0  0  0  0  0  0  0  0  0  0  0  0
   -4.1856    2.2880    0.0474 H   0  0  0  0  0  0  0  0  0  0  0  0
   -3.1667    0.6242    0.9568 H   0  0  0  0  0  0  0  0  0  0  0  0
   -4.0388    0.1450   -1.2698 H   0  0  0  0  0  0  0  0  0  0  0  0
   -3.7672   -2.3631   -0.9742 H   0  0  0  0  0  0  0  0  0  0  0  0
   -1.3945   -2.4481   -0.3346 H   0  0  0  0  0  0  0  0  0  0  0  0
   -2.4093   -0.8531    2.0826 H   0  0  0  0  0  0  0  0  0  0  0  0
   -0.5678    0.7020    1.1730 H   0  0  0  0  0  0  0  0  0  0  0  0
    0.9632   -1.3024    0.9087 H   0  0  0  0  0  0  0  0  0  0  0  0
    0.9605    1.5147    0.1130 H   0  0  0  0  0  0  0  0  0  0  0  0
    2.8490    1.1461   -1.3303 H   0  0  0  0  0  0  0  0  0  0  0  0
    4.8189   -0.0858   -0.5216 H   0  0  0  0  0  0  0  0  0  0  0  0
    3.1877   -2.2791    0.3890 H   0  0  0  0  0  0  0  0  0  0  0  0
    1.4004   -2.4764   -1.0367 H   0  0  0  0  0  0  0  0  0  0  0  0
  1  2  1  0
  2  3  1  0
  2  4  1  0
  4  5  1  0
  5  6  1  0
  6  7  1  0
  7  8  1  0
  4  9  1  0
  8  9  1  0
  9 10  1  0
 10 11  1  0
 11 12  1  0
 12 13  1  0
 12 14  1  0
 14 15  1  0
 14 16  1  0
 16 17  1  0
 11 18  1  0
 17 18  1  0
 18 19  1  0
  5 20  1  0
  6 21  1  0
  7 22  1  0
  8 23  1  0
 10 24  1  0
 15 25  1  0
 15 26  1  0
 15 27  1  0
 16 28  1  0
 17 29  1  0
 30 31  1  0
 31 32  1  0
 31 33  1  0
 33 34  1  0
 34 35  1  0
 35 36  1  0
 36 37  1  0
 33 38  1  0
 37 38  1  0
 38 39  1  0
 39 40  1  0
 40 41  1  0
 41 42  1  0
 41 43  1  0
 43 44  1  0
 43 45  1  0
 45 46  1  0
 40 47  1  0
 46 47  1  0
 47 48  1  0
 34 49  1  0
 35 50  1  0
 36 51  1  0
 37 52  1  0
 39 53  1  0
 44 54  1  0
 44 55  1  0
 44 56  1  0
 45 57  1  0
 46 58  1  0
  1 59  1  0
  2 60  1  0
  3 61  1  0
  4 62  1  0
  5 63  1  0
  6 64  1  0
  7 65  1  0
  8 66  1  0
  9 67  1  0
 11 68  1  0
 12 69  1  0
 14 70  1  0
 16 71  1  0
 17 72  1  0
 18 73  1  0
 30 74  1  0
 31 75  1  0
 32 76  1  0
 33 77  1  0
 34 78  1  0
 35 79  1  0
 36 80  1  0
 37 81  1  0
 38 82  1  0
 40 83  1  0
 41 84  1  0
 43 85  1  0
 45 86  1  0
 46 87  1  0
 47 88  1  0
M  END
>  <PDBID>  (1) 
5IKQ

>  <PDB ID>  (1) 
5IKQ

>  <Generic Name>  (1) 
Meclofenamic acid

>  <Brand Name>  (1) 
Meclofenamate Sodium#Ethos#Eucome#Meclomen

>  <DrugBank ID>  (1) 
DB00939

>  <ATC Codes>  (1) 
M01AG04#M02AA18

>  <Ligand ID>  (1) 
JMS

>  <Target Name>  (1) 
Prostaglandin G/H synthase 1

>  <UniProt ID>  (1) 
P23219

>  <PDB ID.1>  (1) 
5IKQ

>  <Seq. Identity>  (1) 
61%

$$$$
