PDB_DB00619_09
     RDKit          3D

 94 98  0  0  0  0  0  0  0  0999 V2000
   -9.2963    0.7403   -0.6722 C   0  0  0  0  0  0  0  0  0  0  0  0
   -8.5810   -0.5972   -0.8029 C   0  0  0  0  0  0  0  0  0  0  0  0
   -7.4219   -0.5932    0.1800 C   0  0  0  0  0  0  0  0  0  0  0  0
   -7.9839   -0.4347    1.5894 C   0  0  0  0  0  0  0  0  0  0  0  0
   -8.7624    0.7864    1.7022 N   0  0  0  0  0  0  0  0  0  0  0  0
   -8.7972    1.5540    0.4918 C   0  0  0  0  0  0  0  0  0  0  0  0
   -6.5694   -1.8218    0.0677 C   0  0  0  0  0  0  0  0  0  0  0  0
   -5.9710   -1.9854   -1.3158 C   0  0  0  0  0  0  0  0  0  0  0  0
   -4.6083   -2.5911   -1.2970 C   0  0  0  0  0  0  0  0  0  0  0  0
   -3.7018   -2.1235   -0.2991 N   0  0  0  0  0  0  0  0  0  0  0  0
   -4.3088   -1.3303    0.7466 C   0  0  0  0  0  0  0  0  0  0  0  0
   -5.5869   -1.8470    1.0826 N   0  0  0  0  0  0  0  0  0  0  0  0
   -4.2784    0.0749    0.5024 N   0  0  0  0  0  0  0  0  0  0  0  0
   -2.9698    0.6456    0.5868 C   0  0  0  0  0  0  0  0  0  0  0  0
   -2.8149    1.8083   -0.3851 C   0  0  0  0  0  0  0  0  0  0  0  0
   -1.9086    1.4032   -1.5364 C   0  0  0  0  0  0  0  0  0  0  0  0
   -0.4647    1.2833   -1.0053 C   0  0  0  0  0  0  0  0  0  0  0  0
   -0.5278    0.6253    0.3087 C   0  0  1  0  0  0  0  0  0  0  0  0
   -1.8081   -0.2601    0.3601 C   0  0  0  0  0  0  0  0  0  0  0  0
    0.5703   -0.0343    0.8786 N   0  0  0  0  0  0  0  0  0  0  0  0
    1.7004    0.7080    1.2234 C   0  0  0  0  0  0  0  0  0  0  0  0
    2.5410    1.2126    0.1037 C   0  0  0  0  0  0  0  0  0  0  0  0
    3.1373    0.1059   -0.6734 C   0  0  0  0  0  0  0  0  0  0  0  0
    4.5497   -0.2461   -0.3830 C   0  0  0  0  0  0  0  0  0  0  0  0
    5.3194    0.7480    0.3825 C   0  0  0  0  0  0  0  0  0  0  0  0
    4.8208    2.1460   -0.0721 C   0  0  0  0  0  0  0  0  0  0  0  0
    3.4708    2.2606    0.6271 C   0  0  0  0  0  0  0  0  0  0  0  0
    6.7947    0.6980    0.2194 C   0  0  0  0  0  0  0  0  0  0  0  0
    7.5329   -0.4263    0.5472 N   0  0  0  0  0  0  0  0  0  0  0  0
    7.5487   -1.5949   -0.2221 C   0  0  0  0  0  0  0  0  0  0  0  0
    8.7701   -1.6178   -1.1699 C   0  0  0  0  0  0  0  0  0  0  0  0
    9.9627   -1.7423   -0.3976 N   0  0  0  0  0  0  0  0  0  0  0  0
   11.0826   -1.1119   -1.0762 C   0  0  0  0  0  0  0  0  0  0  0  0
    9.7922   -1.2745    0.9392 C   0  0  0  0  0  0  0  0  0  0  0  0
    8.8241   -0.1317    1.0878 C   0  0  0  0  0  0  0  0  0  0  0  0
    2.4945   -0.1292    2.0720 O   0  0  0  0  0  0  0  0  0  0  0  0
   -4.0950    2.3507   -0.8988 C   0  0  0  0  0  0  0  0  0  0  0  0
  -10.3929    0.6029   -0.5542 H   0  0  0  0  0  0  0  0  0  0  0  0
   -9.1770    1.3713   -1.5855 H   0  0  0  0  0  0  0  0  0  0  0  0
   -9.3144   -1.3723   -0.5883 H   0  0  0  0  0  0  0  0  0  0  0  0
   -8.1772   -0.6314   -1.8420 H   0  0  0  0  0  0  0  0  0  0  0  0
   -6.8819    0.3523   -0.0181 H   0  0  0  0  0  0  0  0  0  0  0  0
   -8.5320   -1.3318    1.8802 H   0  0  0  0  0  0  0  0  0  0  0  0
   -7.1057   -0.3067    2.2635 H   0  0  0  0  0  0  0  0  0  0  0  0
   -9.7376    0.5121    1.9462 H   0  0  0  0  0  0  0  0  0  0  0  0
   -9.5835    2.3457    0.6521 H   0  0  0  0  0  0  0  0  0  0  0  0
   -7.8544    2.0944    0.2665 H   0  0  0  0  0  0  0  0  0  0  0  0
   -7.2481   -2.7109    0.2410 H   0  0  0  0  0  0  0  0  0  0  0  0
   -6.6267   -2.6923   -1.9019 H   0  0  0  0  0  0  0  0  0  0  0  0
   -5.9558   -1.0483   -1.9061 H   0  0  0  0  0  0  0  0  0  0  0  0
   -4.1438   -2.4115   -2.2974 H   0  0  0  0  0  0  0  0  0  0  0  0
   -4.7102   -3.7095   -1.2231 H   0  0  0  0  0  0  0  0  0  0  0  0
   -3.2084   -2.9343    0.1248 H   0  0  0  0  0  0  0  0  0  0  0  0
   -3.6594   -1.4922    1.6623 H   0  0  0  0  0  0  0  0  0  0  0  0
   -5.8880   -1.8574    2.0220 H   0  0  0  0  0  0  0  0  0  0  0  0
   -4.6089    0.3137   -0.4744 H   0  0  0  0  0  0  0  0  0  0  0  0
   -2.8406    1.0455    1.6432 H   0  0  0  0  0  0  0  0  0  0  0  0
   -2.2743    2.6130    0.1668 H   0  0  0  0  0  0  0  0  0  0  0  0
   -2.2211    0.5456   -2.1021 H   0  0  0  0  0  0  0  0  0  0  0  0
   -1.8981    2.2874   -2.2187 H   0  0  0  0  0  0  0  0  0  0  0  0
    0.0958    0.7054   -1.7418 H   0  0  0  0  0  0  0  0  0  0  0  0
   -0.1005    2.3543   -0.9073 H   0  0  0  0  0  0  0  0  0  0  0  0
   -0.8299    1.4822    1.0450 H   0  0  0  0  0  0  0  0  0  0  0  0
   -1.6881   -1.0284    1.1699 H   0  0  0  0  0  0  0  0  0  0  0  0
   -1.8679   -0.7242   -0.6349 H   0  0  0  0  0  0  0  0  0  0  0  0
    0.6560   -1.0267    0.6495 H   0  0  0  0  0  0  0  0  0  0  0  0
    1.4305    1.5579    1.9366 H   0  0  0  0  0  0  0  0  0  0  0  0
    1.8938    1.7890   -0.6503 H   0  0  0  0  0  0  0  0  0  0  0  0
    2.9670    0.2788   -1.7766 H   0  0  0  0  0  0  0  0  0  0  0  0
    2.5364   -0.8540   -0.4162 H   0  0  0  0  0  0  0  0  0  0  0  0
    4.6227   -1.2812    0.0925 H   0  0  0  0  0  0  0  0  0  0  0  0
    5.0506   -0.3189   -1.4100 H   0  0  0  0  0  0  0  0  0  0  0  0
    5.0374    0.7431    1.4909 H   0  0  0  0  0  0  0  0  0  0  0  0
    5.4783    2.9396    0.3083 H   0  0  0  0  0  0  0  0  0  0  0  0
    4.7271    2.1821   -1.1498 H   0  0  0  0  0  0  0  0  0  0  0  0
    3.6511    2.1509    1.7151 H   0  0  0  0  0  0  0  0  0  0  0  0
    3.0678    3.2601    0.4719 H   0  0  0  0  0  0  0  0  0  0  0  0
    7.2724    1.5869    0.7531 H   0  0  0  0  0  0  0  0  0  0  0  0
    7.0299    0.9613   -0.8758 H   0  0  0  0  0  0  0  0  0  0  0  0
    7.6591   -2.4715    0.4828 H   0  0  0  0  0  0  0  0  0  0  0  0
    6.7055   -1.8465   -0.8566 H   0  0  0  0  0  0  0  0  0  0  0  0
    8.6040   -2.4194   -1.9130 H   0  0  0  0  0  0  0  0  0  0  0  0
    8.7087   -0.6693   -1.7407 H   0  0  0  0  0  0  0  0  0  0  0  0
   11.6442   -1.9021   -1.6327 H   0  0  0  0  0  0  0  0  0  0  0  0
   11.6977   -0.6092   -0.3065 H   0  0  0  0  0  0  0  0  0  0  0  0
   10.7496   -0.3746   -1.8529 H   0  0  0  0  0  0  0  0  0  0  0  0
    9.4825   -2.1352    1.5670 H   0  0  0  0  0  0  0  0  0  0  0  0
   10.7765   -0.9081    1.3296 H   0  0  0  0  0  0  0  0  0  0  0  0
    8.7042    0.0142    2.2001 H   0  0  0  0  0  0  0  0  0  0  0  0
    9.2650    0.7948    0.6881 H   0  0  0  0  0  0  0  0  0  0  0  0
    1.8544   -0.6542    2.6194 H   0  0  0  0  0  0  0  0  0  0  0  0
   -4.4745    1.8473   -1.8031 H   0  0  0  0  0  0  0  0  0  0  0  0
   -3.9478    3.4479   -1.0862 H   0  0  0  0  0  0  0  0  0  0  0  0
   -4.8755    2.2847   -0.0959 H   0  0  0  0  0  0  0  0  0  0  0  0
  1  2  1  0
  2  3  1  0
  3  4  1  0
  4  5  1  0
  1  6  1  0
  5  6  1  0
  3  7  1  0
  7  8  1  0
  8  9  1  0
  9 10  1  0
 10 11  1  0
  7 12  1  0
 11 12  1  0
 11 13  1  0
 13 14  1  0
 14 15  1  0
 15 16  1  0
 16 17  1  0
 17 18  1  0
 14 19  1  0
 18 19  1  0
 18 20  1  0
 20 21  1  0
 21 22  1  0
 22 23  1  0
 23 24  1  0
 24 25  1  0
 25 26  1  0
 22 27  1  0
 26 27  1  0
 25 28  1  0
 28 29  1  0
 29 30  1  0
 30 31  1  0
 31 32  1  0
 32 33  1  0
 32 34  1  0
 29 35  1  0
 34 35  1  0
 21 36  1  0
 15 37  1  0
  1 38  1  0
  1 39  1  0
  2 40  1  0
  2 41  1  0
  3 42  1  0
  4 43  1  0
  4 44  1  0
  5 45  1  0
  6 46  1  0
  6 47  1  0
  7 48  1  0
  8 49  1  0
  8 50  1  0
  9 51  1  0
  9 52  1  0
 10 53  1  0
 11 54  1  0
 12 55  1  0
 13 56  1  0
 14 57  1  0
 15 58  1  0
 16 59  1  0
 16 60  1  0
 17 61  1  0
 17 62  1  0
 18 63  1  1
 19 64  1  0
 19 65  1  0
 20 66  1  0
 21 67  1  0
 22 68  1  0
 23 69  1  0
 23 70  1  0
 24 71  1  0
 24 72  1  0
 25 73  1  0
 26 74  1  0
 26 75  1  0
 27 76  1  0
 27 77  1  0
 28 78  1  0
 28 79  1  0
 30 80  1  0
 30 81  1  0
 31 82  1  0
 31 83  1  0
 33 84  1  0
 33 85  1  0
 33 86  1  0
 34 87  1  0
 34 88  1  0
 35 89  1  0
 35 90  1  0
 36 91  1  0
 37 92  1  0
 37 93  1  0
 37 94  1  0
M  END
>  <PDBID>  (1) 
1T46

>  <PDB ID>  (1) 
1T46

>  <Generic Name>  (1) 
Imatinib

>  <Brand Name>  (1) 
Apo-imatinib#Gleevec#Imatinib Mesylate#Mylan-imatinib#Nat-imatinib#PMS-imatinib#Ran-imatinib#Teva-imatinib#Celonib#Enliven#Glivec#Imatib#Mesylonib#Mitinab#Plivatinib#Shantinib

>  <DrugBank ID>  (1) 
DB00619

>  <ATC Codes>  (1) 
L01XE01

>  <Ligand ID>  (1) 
STI

>  <Target Name>  (1) 
Mast/stem cell growth factor receptor Kit

>  <UniProt ID>  (1) 
P10721

>  <PDB ID.1>  (1) 
1T46

>  <Seq. Identity>  (1) 
90%

$$$$
