PDB_DB01167_05
     RDKit          3D

113119  0  0  0  0  0  0  0  0999 V2000
   -6.7715    0.7481   -0.6798 C   0  0  0  0  0  0  0  0  0  0  0  0
   -7.6409   -0.4635   -0.6444 C   0  0  0  0  0  0  0  0  0  0  0  0
  -13.1084    2.4477    0.6696 C   0  0  0  0  0  0  0  0  0  0  0  0
  -12.4778    1.9269   -0.6005 C   0  0  0  0  0  0  0  0  0  0  0  0
  -10.9993    1.6808   -0.3672 C   0  0  1  0  0  0  0  0  0  0  0  0
  -10.2938    2.9670    0.0385 C   0  0  0  0  0  0  0  0  0  0  0  0
  -10.7882    0.6493    0.6297 N   0  0  0  0  0  0  0  0  0  0  0  0
   -9.3465    0.5087    0.7888 C   0  0  0  0  0  0  0  0  0  0  0  0
   -9.1878   -0.3670    1.8920 O   0  0  0  0  0  0  0  0  0  0  0  0
   -8.9909   -0.1266   -0.4397 N   0  0  0  0  0  0  0  0  0  0  0  0
   -9.9630   -1.1662   -0.5268 C   0  0  0  0  0  0  0  0  0  0  0  0
  -11.1601   -0.5786    0.0814 N   0  0  0  0  0  0  0  0  0  0  0  0
   -5.3899    0.5035   -0.0614 C   0  0  0  0  0  0  0  0  0  0  0  0
   -4.8931   -0.7839   -0.6683 C   0  0  0  0  0  0  0  0  0  0  0  0
   -5.7522   -1.9639   -0.2938 C   0  0  0  0  0  0  0  0  0  0  0  0
   -7.0688   -1.4689    0.3222 C   0  0  0  0  0  0  0  0  0  0  0  0
   -3.5286   -1.0555   -0.4257 N   0  0  0  0  0  0  0  0  0  0  0  0
   -3.1089   -1.2357    0.9180 C   0  0  0  0  0  0  0  0  0  0  0  0
   -1.6236   -1.6303    0.8767 C   0  0  0  0  0  0  0  0  0  0  0  0
   -0.9656   -0.9688   -0.2130 N   0  0  0  0  0  0  0  0  0  0  0  0
   -1.4457   -1.3503   -1.5156 C   0  0  0  0  0  0  0  0  0  0  0  0
   -2.8611   -1.8835   -1.3794 C   0  0  0  0  0  0  0  0  0  0  0  0
    0.4503   -1.1278   -0.1065 C   0  0  0  0  0  0  0  0  0  0  0  0
    0.9847   -0.4876    1.1473 C   0  0  0  0  0  0  0  0  0  0  0  0
    2.4755   -0.2118    0.9737 C   0  0  0  0  0  0  0  0  0  0  0  0
    3.1019   -1.2726    0.0754 C   0  0  0  0  0  0  0  0  0  0  0  0
    2.5790   -1.0535   -1.3299 C   0  0  0  0  0  0  0  0  0  0  0  0
    1.1660   -0.4721   -1.2824 C   0  0  0  0  0  0  0  0  0  0  0  0
    4.4711   -1.0477    0.0619 O   0  0  0  0  0  0  0  0  0  0  0  0
    5.1516   -2.1753    0.5259 C   0  0  0  0  0  0  0  0  0  0  0  0
    6.6501   -1.9078    0.4876 C   0  0  1  0  0  0  0  0  0  0  0  0
    7.0192   -1.5504   -0.9363 C   0  0  0  0  0  0  0  0  0  0  0  0
    7.1574   -0.1622   -0.8448 O   0  0  0  0  0  0  0  0  0  0  0  0
    7.7157    0.0508    0.4218 C   0  0  2  0  0  0  0  0  0  0  0  0
    7.0091   -0.8409    1.2700 O   0  0  0  0  0  0  0  0  0  0  0  0
    7.4049    1.4173    0.9005 C   0  0  0  0  0  0  0  0  0  0  0  0
    7.8883    2.4914    0.0709 N   0  0  0  0  0  0  0  0  0  0  0  0
    7.2210    2.5695   -1.1979 C   0  0  0  0  0  0  0  0  0  0  0  0
    7.3995    3.9625   -1.5611 N   0  0  0  0  0  0  0  0  0  0  0  0
    7.7178    4.6636   -0.3317 C   0  0  0  0  0  0  0  0  0  0  0  0
    7.4965    3.6819    0.6924 N   0  0  0  0  0  0  0  0  0  0  0  0
    9.1302   -0.3821    0.4520 C   0  0  0  0  0  0  0  0  0  0  0  0
    9.8506   -0.1910    1.7488 C   0  0  0  0  0  0  0  0  0  0  0  0
   11.1212   -1.0193    1.7137 C   0  0  0  0  0  0  0  0  0  0  0  0
   11.9491   -0.7733    0.4888 C   0  0  0  0  0  0  0  0  0  0  0  0
   11.1539   -0.8685   -0.7949 C   0  0  0  0  0  0  0  0  0  0  0  0
   10.0098    0.1474   -0.6491 C   0  0  0  0  0  0  0  0  0  0  0  0
   13.2573   -1.9790    0.4597 Cl  0  0  0  0  0  0  0  0  0  0  0  0
   10.2425    1.5042    2.0964 Cl  0  0  0  0  0  0  0  0  0  0  0  0
   -6.5955    1.1159   -1.7277 H   0  0  0  0  0  0  0  0  0  0  0  0
   -7.2001    1.6094   -0.1389 H   0  0  0  0  0  0  0  0  0  0  0  0
   -7.5561   -0.9445   -1.6630 H   0  0  0  0  0  0  0  0  0  0  0  0
  -12.5856    2.0108    1.5432 H   0  0  0  0  0  0  0  0  0  0  0  0
  -14.1631    2.1595    0.6693 H   0  0  0  0  0  0  0  0  0  0  0  0
  -13.0250    3.5593    0.7641 H   0  0  0  0  0  0  0  0  0  0  0  0
  -12.6299    2.6731   -1.4022 H   0  0  0  0  0  0  0  0  0  0  0  0
  -12.9381    0.9764   -0.9077 H   0  0  0  0  0  0  0  0  0  0  0  0
  -10.5205    1.3312   -1.3030 H   0  0  0  0  0  0  0  0  0  0  0  0
  -10.8821    3.8053   -0.3662 H   0  0  0  0  0  0  0  0  0  0  0  0
  -10.2446    2.9657    1.1582 H   0  0  0  0  0  0  0  0  0  0  0  0
   -9.2572    2.9977   -0.3248 H   0  0  0  0  0  0  0  0  0  0  0  0
   -8.8639    1.4756    0.9875 H   0  0  0  0  0  0  0  0  0  0  0  0
   -8.8249    0.1727    2.6289 H   0  0  0  0  0  0  0  0  0  0  0  0
   -9.6580   -1.9860    0.1826 H   0  0  0  0  0  0  0  0  0  0  0  0
  -10.1367   -1.5886   -1.5147 H   0  0  0  0  0  0  0  0  0  0  0  0
  -11.5389   -1.1552    0.8586 H   0  0  0  0  0  0  0  0  0  0  0  0
   -4.7441    1.3124   -0.4571 H   0  0  0  0  0  0  0  0  0  0  0  0
   -5.4792    0.4797    1.0223 H   0  0  0  0  0  0  0  0  0  0  0  0
   -5.0024   -0.6375   -1.7836 H   0  0  0  0  0  0  0  0  0  0  0  0
   -6.0124   -2.5853   -1.2004 H   0  0  0  0  0  0  0  0  0  0  0  0
   -5.2579   -2.6742    0.3945 H   0  0  0  0  0  0  0  0  0  0  0  0
   -7.6946   -2.3485    0.4537 H   0  0  0  0  0  0  0  0  0  0  0  0
   -6.8000   -1.0431    1.3054 H   0  0  0  0  0  0  0  0  0  0  0  0
   -3.1588   -0.3251    1.5412 H   0  0  0  0  0  0  0  0  0  0  0  0
   -3.6165   -2.0642    1.4230 H   0  0  0  0  0  0  0  0  0  0  0  0
   -1.1663   -1.2874    1.8226 H   0  0  0  0  0  0  0  0  0  0  0  0
   -1.5168   -2.7324    0.8454 H   0  0  0  0  0  0  0  0  0  0  0  0
   -0.8009   -2.0725   -2.0376 H   0  0  0  0  0  0  0  0  0  0  0  0
   -1.4804   -0.4280   -2.1336 H   0  0  0  0  0  0  0  0  0  0  0  0
   -3.4130   -1.8807   -2.3338 H   0  0  0  0  0  0  0  0  0  0  0  0
   -2.8305   -2.9253   -1.0070 H   0  0  0  0  0  0  0  0  0  0  0  0
    0.6870   -2.2310   -0.0736 H   0  0  0  0  0  0  0  0  0  0  0  0
    0.4712    0.4818    1.3022 H   0  0  0  0  0  0  0  0  0  0  0  0
    0.8475   -1.1577    2.0408 H   0  0  0  0  0  0  0  0  0  0  0  0
    2.9770   -0.2818    1.9683 H   0  0  0  0  0  0  0  0  0  0  0  0
    2.6588    0.7823    0.5383 H   0  0  0  0  0  0  0  0  0  0  0  0
    2.8424   -2.2791    0.4442 H   0  0  0  0  0  0  0  0  0  0  0  0
    3.2603   -0.3838   -1.8496 H   0  0  0  0  0  0  0  0  0  0  0  0
    2.5737   -2.0332   -1.8433 H   0  0  0  0  0  0  0  0  0  0  0  0
    1.2039    0.6034   -1.0826 H   0  0  0  0  0  0  0  0  0  0  0  0
    0.6880   -0.6736   -2.2477 H   0  0  0  0  0  0  0  0  0  0  0  0
    4.7826   -2.3961    1.5370 H   0  0  0  0  0  0  0  0  0  0  0  0
    4.9520   -2.9991   -0.1903 H   0  0  0  0  0  0  0  0  0  0  0  0
    7.1379   -2.8382    0.8330 H   0  0  0  0  0  0  0  0  0  0  0  0
    7.9265   -2.0644   -1.2533 H   0  0  0  0  0  0  0  0  0  0  0  0
    6.1989   -1.8423   -1.6111 H   0  0  0  0  0  0  0  0  0  0  0  0
    6.2860    1.5290    0.9180 H   0  0  0  0  0  0  0  0  0  0  0  0
    7.7127    1.5436    1.9556 H   0  0  0  0  0  0  0  0  0  0  0  0
    6.1625    2.3142   -1.1436 H   0  0  0  0  0  0  0  0  0  0  0  0
    7.7646    1.9492   -1.9701 H   0  0  0  0  0  0  0  0  0  0  0  0
    8.1698    4.1222   -2.2398 H   0  0  0  0  0  0  0  0  0  0  0  0
    7.0420    5.5341   -0.1753 H   0  0  0  0  0  0  0  0  0  0  0  0
    8.7628    4.9892   -0.2851 H   0  0  0  0  0  0  0  0  0  0  0  0
    8.1231    3.8005    1.5191 H   0  0  0  0  0  0  0  0  0  0  0  0
    9.1128   -1.5071    0.2967 H   0  0  0  0  0  0  0  0  0  0  0  0
    9.2149   -0.5747    2.5647 H   0  0  0  0  0  0  0  0  0  0  0  0
   10.9572   -2.0882    1.8433 H   0  0  0  0  0  0  0  0  0  0  0  0
   11.7265   -0.6732    2.5952 H   0  0  0  0  0  0  0  0  0  0  0  0
   12.3979    0.2588    0.5054 H   0  0  0  0  0  0  0  0  0  0  0  0
   10.6911   -1.8733   -0.8881 H   0  0  0  0  0  0  0  0  0  0  0  0
   11.8164   -0.6159   -1.6334 H   0  0  0  0  0  0  0  0  0  0  0  0
    9.5236    0.1872   -1.6294 H   0  0  0  0  0  0  0  0  0  0  0  0
   10.5138    1.0957   -0.3688 H   0  0  0  0  0  0  0  0  0  0  0  0
  1  2  1  0
  3  4  1  0
  4  5  1  0
  5  6  1  0
  5  7  1  0
  7  8  1  0
  8  9  1  0
  2 10  1  0
  8 10  1  0
 10 11  1  0
  7 12  1  0
 11 12  1  0
  1 13  1  0
 13 14  1  0
 14 15  1  0
  2 16  1  0
 15 16  1  0
 14 17  1  0
 17 18  1  0
 18 19  1  0
 19 20  1  0
 20 21  1  0
 17 22  1  0
 21 22  1  0
 20 23  1  0
 23 24  1  0
 24 25  1  0
 25 26  1  0
 26 27  1  0
 23 28  1  0
 27 28  1  0
 26 29  1  0
 29 30  1  0
 30 31  1  0
 31 32  1  0
 32 33  1  0
 33 34  1  0
 31 35  1  0
 34 35  1  0
 34 36  1  1
 36 37  1  0
 37 38  1  0
 38 39  1  0
 40 39  1  0
 37 41  1  0
 40 41  1  0
 34 42  1  0
 42 43  1  0
 43 44  1  0
 44 45  1  0
 45 46  1  0
 42 47  1  0
 46 47  1  0
 45 48  1  0
 43 49  1  0
  1 50  1  0
  1 51  1  0
  2 52  1  0
  3 53  1  0
  3 54  1  0
  3 55  1  0
  4 56  1  0
  4 57  1  0
  5 58  1  6
  6 59  1  0
  6 60  1  0
  6 61  1  0
  8 62  1  0
  9 63  1  0
 11 64  1  0
 11 65  1  0
 12 66  1  0
 13 67  1  0
 13 68  1  0
 14 69  1  0
 15 70  1  0
 15 71  1  0
 16 72  1  0
 16 73  1  0
 18 74  1  0
 18 75  1  0
 19 76  1  0
 19 77  1  0
 21 78  1  0
 21 79  1  0
 22 80  1  0
 22 81  1  0
 23 82  1  0
 24 83  1  0
 24 84  1  0
 25 85  1  0
 25 86  1  0
 26 87  1  0
 27 88  1  0
 27 89  1  0
 28 90  1  0
 28 91  1  0
 30 92  1  0
 30 93  1  0
 31 94  1  1
 32 95  1  0
 32 96  1  0
 36 97  1  0
 36 98  1  0
 38 99  1  0
 38100  1  0
 39101  1  0
 40102  1  0
 40103  1  0
 41104  1  0
 42105  1  0
 43106  1  0
 44107  1  0
 44108  1  0
 45109  1  0
 46110  1  0
 46111  1  0
 47112  1  0
 47113  1  0
M  END
>  <PDBID>  (1) 
5JLC

>  <PDB ID>  (1) 
5JLC

>  <Generic Name>  (1) 
Itraconazole

>  <Brand Name>  (1) 
Itraconazole#Onmel#Sporanox#Sporanox Oral Solution 10mg/ml#Itrizole#Oriconazole#Sporal

>  <DrugBank ID>  (1) 
DB01167

>  <ATC Codes>  (1) 
J02AC02

>  <Ligand ID>  (1) 
1YN

>  <Target Name>  (1) 
Lanosterol 14-alpha demethylase

>  <UniProt ID>  (1) 
P50859

>  <PDB ID.1>  (1) 
5JLC

>  <Seq. Identity>  (1) 
97%

$$$$
