PDB_DB00703_01
     RDKit          3D

 30 30  0  0  0  0  0  0  0  0999 V2000
    3.1910   -1.4078   -1.7373 N   0  0  0  0  0  0  0  0  0  0  0  0
    2.8984   -1.0984   -0.0853 S   0  0  0  0  0  0  0  0  0  0  0  0
    3.3462   -1.9249    0.9079 O   0  0  0  0  0  0  0  0  0  0  0  0
    4.3322    0.3419   -0.1215 O   0  0  0  0  0  0  0  0  0  0  0  0
    1.7156   -0.0132   -0.0009 C   0  0  1  0  0  0  0  0  0  0  0  0
    0.1517   -0.6255   -0.7600 S   0  0  0  0  0  0  0  0  0  0  0  0
   -0.9141    0.4361    0.2740 C   0  0  2  0  0  0  0  0  0  0  0  0
    0.0216    1.0807    1.1184 N   0  0  0  0  0  0  0  0  0  0  0  0
    0.3048    2.4331    0.6936 C   0  0  0  0  0  0  0  0  0  0  0  0
    1.1424    0.3154    1.3012 N   0  0  0  0  0  0  0  0  0  0  0  0
   -1.9219   -0.3273    0.9606 N   0  0  0  0  0  0  0  0  0  0  0  0
   -2.7857   -1.0223    0.0429 C   0  0  0  0  0  0  0  0  0  0  0  0
   -3.6823   -1.7956    0.7780 O   0  0  0  0  0  0  0  0  0  0  0  0
   -3.5648   -0.1083   -0.8509 C   0  0  0  0  0  0  0  0  0  0  0  0
    3.1074   -0.4982   -2.2756 H   0  0  0  0  0  0  0  0  0  0  0  0
    2.4094   -1.9992   -2.0779 H   0  0  0  0  0  0  0  0  0  0  0  0
    4.0320   -1.8025    1.6319 H   0  0  0  0  0  0  0  0  0  0  0  0
    4.1700    0.4664    0.8390 H   0  0  0  0  0  0  0  0  0  0  0  0
    1.8812    0.9677   -0.4890 H   0  0  0  0  0  0  0  0  0  0  0  0
   -1.3541    1.1850   -0.4132 H   0  0  0  0  0  0  0  0  0  0  0  0
    1.2415    2.8415    1.0937 H   0  0  0  0  0  0  0  0  0  0  0  0
    0.3011    2.4068   -0.4358 H   0  0  0  0  0  0  0  0  0  0  0  0
   -0.5973    3.0388    0.9550 H   0  0  0  0  0  0  0  0  0  0  0  0
    0.9943   -0.5061    1.8966 H   0  0  0  0  0  0  0  0  0  0  0  0
   -2.4691    0.2150    1.6349 H   0  0  0  0  0  0  0  0  0  0  0  0
   -2.1822   -1.7251   -0.5943 H   0  0  0  0  0  0  0  0  0  0  0  0
   -4.3837   -1.2033    1.1481 H   0  0  0  0  0  0  0  0  0  0  0  0
   -3.0918   -0.0017   -1.8641 H   0  0  0  0  0  0  0  0  0  0  0  0
   -4.5626   -0.5569   -1.0297 H   0  0  0  0  0  0  0  0  0  0  0  0
   -3.7311    0.8877   -0.3838 H   0  0  0  0  0  0  0  0  0  0  0  0
  1  2  1  0
  2  3  1  0
  2  4  1  0
  2  5  1  0
  5  6  1  0
  6  7  1  0
  7  8  1  0
  8  9  1  0
  5 10  1  0
  8 10  1  0
  7 11  1  0
 11 12  1  0
 12 13  1  0
 12 14  1  0
  1 15  1  0
  1 16  1  0
  3 17  1  0
  4 18  1  0
  5 19  1  6
  7 20  1  6
  9 21  1  0
  9 22  1  0
  9 23  1  0
 10 24  1  0
 11 25  1  0
 12 26  1  0
 13 27  1  0
 14 28  1  0
 14 29  1  0
 14 30  1  0
M  END
>  <PDBID>  (1) 
1BZM

>  <PDB ID>  (1) 
1BZM

>  <Generic Name>  (1) 
Methazolamide

>  <Brand Name>  (1) 
Methazolamide#Neptazane#Neptazane Tablets 25mg#Neptazane Tablets 25mg USP#Neptazane Tablets 50mg#Naptazane

>  <DrugBank ID>  (1) 
DB00703

>  <ATC Codes>  (1) 
S01EC05

>  <Ligand ID>  (1) 
MZM

>  <Target Name>  (1) 
Carbonic anhydrase 1

>  <UniProt ID>  (1) 
P00915

>  <PDB ID.1>  (1) 
1BZM

>  <Seq. Identity>  (1) 
100%

$$$$
