PDB_DB01044_05
     RDKit          3D

122128  0  0  0  0  0  0  0  0999 V2000
    5.9178    0.7776   -1.4069 C   0  0  0  0  0  0  0  0  0  0  0  0
    4.7301    0.9890   -0.4439 C   0  0  1  0  0  0  0  0  0  0  0  0
    3.5904    0.2283   -1.0507 C   0  0  0  0  0  0  0  0  0  0  0  0
    2.5702   -0.2067   -0.1555 N   0  0  0  0  0  0  0  0  0  0  0  0
    2.8394    0.3571    1.1340 C   0  0  0  0  0  0  0  0  0  0  0  0
    4.2141   -0.2159    1.5263 C   0  0  0  0  0  0  0  0  0  0  0  0
    5.1868    0.5504    0.8304 N   0  0  0  0  0  0  0  0  0  0  0  0
    1.2284    0.0637   -0.6455 C   0  0  0  0  0  0  0  0  0  0  0  0
    0.8898    1.4885   -0.8019 C   0  0  0  0  0  0  0  0  0  0  0  0
   -0.6114    1.5952   -1.0439 C   0  0  0  0  0  0  0  0  0  0  0  0
   -1.1522    1.1738    0.3439 C   0  0  0  0  0  0  0  0  0  0  0  0
   -1.1187   -0.3477    0.2949 C   0  0  0  0  0  0  0  0  0  0  0  0
    0.2633   -0.8319    0.0718 C   0  0  0  0  0  0  0  0  0  0  0  0
    0.2545   -2.0593   -0.5834 O   0  0  0  0  0  0  0  0  0  0  0  0
    0.9585   -3.0572    0.0286 C   0  0  0  0  0  0  0  0  0  0  0  0
   -2.0572   -0.9187   -0.6052 N   0  0  0  0  0  0  0  0  0  0  0  0
   -3.2034   -0.1307   -0.9668 C   0  0  0  0  0  0  0  0  0  0  0  0
   -3.1560    1.3252   -0.9044 C   0  0  0  0  0  0  0  0  0  0  0  0
   -2.5255    1.7419    0.4154 C   0  0  0  0  0  0  0  0  0  0  0  0
   -3.3069    1.2725    1.4475 O   0  0  0  0  0  0  0  0  0  0  0  0
   -4.5735    1.8751   -0.8700 C   0  0  0  0  0  0  0  0  0  0  0  0
   -5.2218    1.4728   -2.0171 O   0  0  0  0  0  0  0  0  0  0  0  0
   -5.2804    1.3963    0.2305 O   0  0  0  0  0  0  0  0  0  0  0  0
   -2.6285   -2.1865   -0.1892 C   0  0  0  0  0  0  0  0  0  0  0  0
   -3.5305   -2.1538    1.0083 C   0  0  0  0  0  0  0  0  0  0  0  0
   -2.2652   -2.9383    0.9922 C   0  0  0  0  0  0  0  0  0  0  0  0
    1.0905    2.2924    0.3037 F   0  0  0  0  0  0  0  0  0  0  0  0
    5.5606    0.6704   -2.4404 H   0  0  0  0  0  0  0  0  0  0  0  0
    6.4179   -0.1643   -1.0628 H   0  0  0  0  0  0  0  0  0  0  0  0
    6.6586    1.5794   -1.2794 H   0  0  0  0  0  0  0  0  0  0  0  0
    4.5216    2.0876   -0.3864 H   0  0  0  0  0  0  0  0  0  0  0  0
    4.0214   -0.7049   -1.5121 H   0  0  0  0  0  0  0  0  0  0  0  0
    3.1830    0.8562   -1.8799 H   0  0  0  0  0  0  0  0  0  0  0  0
    2.1670    0.0320    1.9480 H   0  0  0  0  0  0  0  0  0  0  0  0
    3.0170    1.4598    1.1284 H   0  0  0  0  0  0  0  0  0  0  0  0
    4.2618   -1.2995    1.3161 H   0  0  0  0  0  0  0  0  0  0  0  0
    4.3258    0.0088    2.6253 H   0  0  0  0  0  0  0  0  0  0  0  0
    6.1221    0.0968    0.8418 H   0  0  0  0  0  0  0  0  0  0  0  0
   -0.8958    2.6432   -1.2825 H   0  0  0  0  0  0  0  0  0  0  0  0
    0.6071   -3.2550    1.0305 H   0  0  0  0  0  0  0  0  0  0  0  0
    2.0614   -2.9252   -0.0522 H   0  0  0  0  0  0  0  0  0  0  0  0
    0.7251   -3.9965   -0.5600 H   0  0  0  0  0  0  0  0  0  0  0  0
   -4.1473   -0.4642   -0.4238 H   0  0  0  0  0  0  0  0  0  0  0  0
   -3.0237   -2.7582   -1.0767 H   0  0  0  0  0  0  0  0  0  0  0  0
   -4.5173   -2.6892    0.9079 H   0  0  0  0  0  0  0  0  0  0  0  0
   -3.5567   -1.3660    1.7487 H   0  0  0  0  0  0  0  0  0  0  0  0
   -2.4289   -4.0430    0.9593 H   0  0  0  0  0  0  0  0  0  0  0  0
   -1.4792   -2.6788    1.7324 H   0  0  0  0  0  0  0  0  0  0  0  0
    5.9178    0.7776   -1.4069 C   0  0  0  0  0  0  0  0  0  0  0  0
    4.7301    0.9890   -0.4439 C   0  0  1  0  0  0  0  0  0  0  0  0
    3.5904    0.2283   -1.0507 C   0  0  0  0  0  0  0  0  0  0  0  0
    2.5702   -0.2067   -0.1555 N   0  0  0  0  0  0  0  0  0  0  0  0
    2.8394    0.3571    1.1340 C   0  0  0  0  0  0  0  0  0  0  0  0
    4.2141   -0.2159    1.5263 C   0  0  0  0  0  0  0  0  0  0  0  0
    5.1868    0.5504    0.8304 N   0  0  0  0  0  0  0  0  0  0  0  0
    1.2284    0.0637   -0.6455 C   0  0  0  0  0  0  0  0  0  0  0  0
    0.8898    1.4885   -0.8019 C   0  0  0  0  0  0  0  0  0  0  0  0
   -0.6114    1.5952   -1.0439 C   0  0  0  0  0  0  0  0  0  0  0  0
   -1.1522    1.1738    0.3439 C   0  0  0  0  0  0  0  0  0  0  0  0
   -1.1187   -0.3477    0.2949 C   0  0  0  0  0  0  0  0  0  0  0  0
    0.2633   -0.8319    0.0718 C   0  0  0  0  0  0  0  0  0  0  0  0
    0.2545   -2.0593   -0.5834 O   0  0  0  0  0  0  0  0  0  0  0  0
    0.9585   -3.0572    0.0286 C   0  0  0  0  0  0  0  0  0  0  0  0
   -2.0572   -0.9187   -0.6052 N   0  0  0  0  0  0  0  0  0  0  0  0
   -3.2034   -0.1307   -0.9668 C   0  0  0  0  0  0  0  0  0  0  0  0
   -3.1560    1.3252   -0.9044 C   0  0  0  0  0  0  0  0  0  0  0  0
   -2.5255    1.7419    0.4154 C   0  0  0  0  0  0  0  0  0  0  0  0
   -3.3069    1.2725    1.4475 O   0  0  0  0  0  0  0  0  0  0  0  0
   -4.5735    1.8751   -0.8700 C   0  0  0  0  0  0  0  0  0  0  0  0
   -5.2218    1.4728   -2.0171 O   0  0  0  0  0  0  0  0  0  0  0  0
   -5.2804    1.3963    0.2305 O   0  0  0  0  0  0  0  0  0  0  0  0
   -2.6285   -2.1865   -0.1892 C   0  0  0  0  0  0  0  0  0  0  0  0
   -3.5305   -2.1538    1.0083 C   0  0  0  0  0  0  0  0  0  0  0  0
   -2.2652   -2.9383    0.9922 C   0  0  0  0  0  0  0  0  0  0  0  0
    1.0905    2.2924    0.3037 F   0  0  0  0  0  0  0  0  0  0  0  0
    5.5606    0.6704   -2.4404 H   0  0  0  0  0  0  0  0  0  0  0  0
    6.4179   -0.1643   -1.0628 H   0  0  0  0  0  0  0  0  0  0  0  0
    6.6586    1.5794   -1.2794 H   0  0  0  0  0  0  0  0  0  0  0  0
    4.5216    2.0876   -0.3864 H   0  0  0  0  0  0  0  0  0  0  0  0
    4.0214   -0.7049   -1.5121 H   0  0  0  0  0  0  0  0  0  0  0  0
    3.1830    0.8562   -1.8799 H   0  0  0  0  0  0  0  0  0  0  0  0
    2.1670    0.0320    1.9480 H   0  0  0  0  0  0  0  0  0  0  0  0
    3.0170    1.4598    1.1284 H   0  0  0  0  0  0  0  0  0  0  0  0
    4.2618   -1.2995    1.3161 H   0  0  0  0  0  0  0  0  0  0  0  0
    4.3258    0.0088    2.6253 H   0  0  0  0  0  0  0  0  0  0  0  0
    6.1221    0.0968    0.8418 H   0  0  0  0  0  0  0  0  0  0  0  0
   -0.8958    2.6432   -1.2825 H   0  0  0  0  0  0  0  0  0  0  0  0
    0.6071   -3.2550    1.0305 H   0  0  0  0  0  0  0  0  0  0  0  0
    2.0614   -2.9252   -0.0522 H   0  0  0  0  0  0  0  0  0  0  0  0
    0.7251   -3.9965   -0.5600 H   0  0  0  0  0  0  0  0  0  0  0  0
   -4.1473   -0.4642   -0.4238 H   0  0  0  0  0  0  0  0  0  0  0  0
   -3.0237   -2.7582   -1.0767 H   0  0  0  0  0  0  0  0  0  0  0  0
   -4.5173   -2.6892    0.9079 H   0  0  0  0  0  0  0  0  0  0  0  0
   -3.5567   -1.3660    1.7487 H   0  0  0  0  0  0  0  0  0  0  0  0
   -2.4289   -4.0430    0.9593 H   0  0  0  0  0  0  0  0  0  0  0  0
   -1.4792   -2.6788    1.7324 H   0  0  0  0  0  0  0  0  0  0  0  0
    1.2798   -0.3223   -1.7166 H   0  0  0  0  0  0  0  0  0  0  0  0
    1.3671    1.9216   -1.7016 H   0  0  0  0  0  0  0  0  0  0  0  0
   -0.8743    0.8561   -1.8099 H   0  0  0  0  0  0  0  0  0  0  0  0
   -0.5290    1.5269    1.1577 H   0  0  0  0  0  0  0  0  0  0  0  0
   -1.4727   -0.6423    1.3324 H   0  0  0  0  0  0  0  0  0  0  0  0
    0.7486   -1.0602    1.0613 H   0  0  0  0  0  0  0  0  0  0  0  0
   -3.4393   -0.4301   -2.0367 H   0  0  0  0  0  0  0  0  0  0  0  0
   -2.6679    1.8211   -1.7757 H   0  0  0  0  0  0  0  0  0  0  0  0
   -2.4062    2.8555    0.4518 H   0  0  0  0  0  0  0  0  0  0  0  0
   -2.7535    0.8536    2.1577 H   0  0  0  0  0  0  0  0  0  0  0  0
   -4.5425    2.9860   -0.7836 H   0  0  0  0  0  0  0  0  0  0  0  0
   -6.0091    0.8762   -1.8092 H   0  0  0  0  0  0  0  0  0  0  0  0
   -5.4048    2.1155    0.8968 H   0  0  0  0  0  0  0  0  0  0  0  0
    1.2798   -0.3223   -1.7166 H   0  0  0  0  0  0  0  0  0  0  0  0
    1.3671    1.9216   -1.7016 H   0  0  0  0  0  0  0  0  0  0  0  0
   -0.8743    0.8561   -1.8099 H   0  0  0  0  0  0  0  0  0  0  0  0
   -0.5290    1.5269    1.1577 H   0  0  0  0  0  0  0  0  0  0  0  0
   -1.4727   -0.6423    1.3324 H   0  0  0  0  0  0  0  0  0  0  0  0
    0.7486   -1.0602    1.0613 H   0  0  0  0  0  0  0  0  0  0  0  0
   -3.4393   -0.4301   -2.0367 H   0  0  0  0  0  0  0  0  0  0  0  0
   -2.6679    1.8211   -1.7757 H   0  0  0  0  0  0  0  0  0  0  0  0
   -2.4062    2.8555    0.4518 H   0  0  0  0  0  0  0  0  0  0  0  0
   -2.7535    0.8536    2.1577 H   0  0  0  0  0  0  0  0  0  0  0  0
   -4.5425    2.9860   -0.7836 H   0  0  0  0  0  0  0  0  0  0  0  0
   -6.0091    0.8762   -1.8092 H   0  0  0  0  0  0  0  0  0  0  0  0
   -5.4048    2.1155    0.8968 H   0  0  0  0  0  0  0  0  0  0  0  0
  1  2  1  0
  2  3  1  0
  3  4  1  0
  4  5  1  0
  5  6  1  0
  2  7  1  0
  6  7  1  0
  4  8  1  0
  8  9  1  0
  9 10  1  0
 10 11  1  0
 11 12  1  0
  8 13  1  0
 12 13  1  0
 13 14  1  0
 14 15  1  0
 12 16  1  0
 16 17  1  0
 17 18  1  0
 11 19  1  0
 18 19  1  0
 19 20  1  0
 18 21  1  0
 21 22  1  0
 21 23  1  0
 16 24  1  0
 24 25  1  0
 24 26  1  0
 25 26  1  0
  9 27  1  0
  1 28  1  0
  1 29  1  0
  1 30  1  0
  2 31  1  1
  3 32  1  0
  3 33  1  0
  5 34  1  0
  5 35  1  0
  6 36  1  0
  6 37  1  0
  7 38  1  0
 10 39  1  0
 15 40  1  0
 15 41  1  0
 15 42  1  0
 17 43  1  0
 24 44  1  0
 25 45  1  0
 25 46  1  0
 26 47  1  0
 26 48  1  0
 49 50  1  0
 50 51  1  0
 51 52  1  0
 52 53  1  0
 53 54  1  0
 50 55  1  0
 54 55  1  0
 52 56  1  0
 56 57  1  0
 57 58  1  0
 58 59  1  0
 59 60  1  0
 56 61  1  0
 60 61  1  0
 61 62  1  0
 62 63  1  0
 60 64  1  0
 64 65  1  0
 65 66  1  0
 59 67  1  0
 66 67  1  0
 67 68  1  0
 66 69  1  0
 69 70  1  0
 69 71  1  0
 64 72  1  0
 72 73  1  0
 72 74  1  0
 73 74  1  0
 57 75  1  0
 49 76  1  0
 49 77  1  0
 49 78  1  0
 50 79  1  1
 51 80  1  0
 51 81  1  0
 53 82  1  0
 53 83  1  0
 54 84  1  0
 54 85  1  0
 55 86  1  0
 58 87  1  0
 63 88  1  0
 63 89  1  0
 63 90  1  0
 65 91  1  0
 72 92  1  0
 73 93  1  0
 73 94  1  0
 74 95  1  0
 74 96  1  0
  8 97  1  0
  9 98  1  0
 10 99  1  0
 11100  1  0
 12101  1  0
 13102  1  0
 17103  1  0
 18104  1  0
 19105  1  0
 20106  1  0
 21107  1  0
 22108  1  0
 23109  1  0
 56110  1  0
 57111  1  0
 58112  1  0
 59113  1  0
 60114  1  0
 61115  1  0
 65116  1  0
 66117  1  0
 67118  1  0
 68119  1  0
 69120  1  0
 70121  1  0
 71122  1  0
M  END
>  <PDBID>  (1) 
5BTF

>  <PDB ID>  (1) 
5BTF

>  <Generic Name>  (1) 
Gatifloxacin

>  <Brand Name>  (1) 
Apo-gatifloxacin#Gatifloxacin#Tequin#Tequin IV#Zymar#Zymaxid

>  <DrugBank ID>  (1) 
DB01044

>  <ATC Codes>  (1) 
S01AE06#J01MA16

>  <Ligand ID>  (1) 
GFN

>  <Target Name>  (1) 
DNA gyrase subunit A

>  <UniProt ID>  (1) 
P72524

>  <PDB ID.1>  (1) 
5BTF

>  <Seq. Identity>  (1) 
53%

$$$$
