PDB_DB03849_05
     RDKit          3D

124128  0  0  0  0  0  0  0  0999 V2000
   -5.7723    1.4121    1.0661 O   0  0  0  0  0  0  0  0  0  0  0  0
   -5.8247    0.0342    1.3070 C   0  0  0  0  0  0  0  0  0  0  0  0
   -6.1477   -0.2281    2.6178 O   0  0  0  0  0  0  0  0  0  0  0  0
   -4.5125   -0.6468    0.9003 C   0  0  0  0  0  0  0  0  0  0  0  0
   -3.4177   -0.0512    1.6982 C   0  0  0  0  0  0  0  0  0  0  0  0
   -2.0344   -0.3787    1.2139 C   0  0  0  0  0  0  0  0  0  0  0  0
   -4.3645   -0.4665   -0.5789 C   0  0  0  0  0  0  0  0  0  0  0  0
   -2.9846   -0.8895   -0.9871 C   0  0  0  0  0  0  0  0  0  0  0  0
   -1.8732   -0.1424   -0.2689 C   0  0  0  0  0  0  0  0  0  0  0  0
   -2.0823    1.3328   -0.5283 C   0  0  0  0  0  0  0  0  0  0  0  0
   -1.1688    2.1944    0.1555 N   0  0  0  0  0  0  0  0  0  0  0  0
   -0.5624   -0.5948   -0.8071 C   0  0  0  0  0  0  0  0  0  0  0  0
   -0.3010   -2.0707   -0.6332 C   0  0  0  0  0  0  0  0  0  0  0  0
    0.8382   -2.3510   -1.6304 C   0  0  0  0  0  0  0  0  0  0  0  0
    2.1079   -1.7574   -1.0743 C   0  0  0  0  0  0  0  0  0  0  0  0
    2.6353   -2.7344   -0.2293 O   0  0  0  0  0  0  0  0  0  0  0  0
    3.7985   -3.2787   -0.7465 C   0  0  0  0  0  0  0  0  0  0  0  0
    1.9457   -0.4724   -0.3567 C   0  0  0  0  0  0  0  0  0  0  0  0
    0.6144    0.1802   -0.3429 C   0  0  0  0  0  0  0  0  0  0  0  0
    2.8600    0.5021   -0.7551 O   0  0  0  0  0  0  0  0  0  0  0  0
    3.7729    0.9033    0.1610 C   0  0  0  0  0  0  0  0  0  0  0  0
    3.5072    2.3768    0.4627 C   0  0  0  0  0  0  0  0  0  0  0  0
    4.7414    3.1416    0.1260 C   0  0  0  0  0  0  0  0  0  0  0  0
    5.4296    2.2839   -0.8936 C   0  0  0  0  0  0  0  0  0  0  0  0
    5.1966    0.9010   -0.3196 C   0  0  0  0  0  0  0  0  0  0  0  0
   -5.7723    1.4121    1.0661 O   0  0  0  0  0  0  0  0  0  0  0  0
   -5.8247    0.0342    1.3070 C   0  0  0  0  0  0  0  0  0  0  0  0
   -6.1477   -0.2281    2.6178 O   0  0  0  0  0  0  0  0  0  0  0  0
   -4.5125   -0.6468    0.9003 C   0  0  0  0  0  0  0  0  0  0  0  0
   -3.4177   -0.0512    1.6982 C   0  0  0  0  0  0  0  0  0  0  0  0
   -2.0344   -0.3787    1.2139 C   0  0  0  0  0  0  0  0  0  0  0  0
   -4.3645   -0.4665   -0.5789 C   0  0  0  0  0  0  0  0  0  0  0  0
   -2.9846   -0.8895   -0.9871 C   0  0  0  0  0  0  0  0  0  0  0  0
   -1.8732   -0.1424   -0.2689 C   0  0  0  0  0  0  0  0  0  0  0  0
   -2.0823    1.3328   -0.5283 C   0  0  0  0  0  0  0  0  0  0  0  0
   -1.1688    2.1944    0.1555 N   0  0  0  0  0  0  0  0  0  0  0  0
   -0.5624   -0.5948   -0.8071 C   0  0  0  0  0  0  0  0  0  0  0  0
   -0.3010   -2.0707   -0.6332 C   0  0  0  0  0  0  0  0  0  0  0  0
    0.8382   -2.3510   -1.6304 C   0  0  0  0  0  0  0  0  0  0  0  0
    2.1079   -1.7574   -1.0743 C   0  0  0  0  0  0  0  0  0  0  0  0
    2.6353   -2.7344   -0.2293 O   0  0  0  0  0  0  0  0  0  0  0  0
    3.7985   -3.2787   -0.7465 C   0  0  0  0  0  0  0  0  0  0  0  0
    1.9457   -0.4724   -0.3567 C   0  0  0  0  0  0  0  0  0  0  0  0
    0.6144    0.1802   -0.3429 C   0  0  0  0  0  0  0  0  0  0  0  0
    2.8600    0.5021   -0.7551 O   0  0  0  0  0  0  0  0  0  0  0  0
    3.7729    0.9033    0.1610 C   0  0  0  0  0  0  0  0  0  0  0  0
    3.5072    2.3768    0.4627 C   0  0  0  0  0  0  0  0  0  0  0  0
    4.7414    3.1416    0.1260 C   0  0  0  0  0  0  0  0  0  0  0  0
    5.4296    2.2839   -0.8936 C   0  0  0  0  0  0  0  0  0  0  0  0
    5.1966    0.9010   -0.3196 C   0  0  0  0  0  0  0  0  0  0  0  0
   -6.6492    1.8053    0.8480 H   0  0  0  0  0  0  0  0  0  0  0  0
   -6.6689   -0.3523    0.6746 H   0  0  0  0  0  0  0  0  0  0  0  0
   -5.6081   -0.9712    3.0105 H   0  0  0  0  0  0  0  0  0  0  0  0
   -4.6465   -1.7230    1.1449 H   0  0  0  0  0  0  0  0  0  0  0  0
   -3.5933    1.0507    1.7830 H   0  0  0  0  0  0  0  0  0  0  0  0
   -3.4861   -0.4306    2.7459 H   0  0  0  0  0  0  0  0  0  0  0  0
   -1.3420    0.3191    1.7346 H   0  0  0  0  0  0  0  0  0  0  0  0
   -1.8390   -1.4353    1.4425 H   0  0  0  0  0  0  0  0  0  0  0  0
   -5.0558   -1.2029   -1.0907 H   0  0  0  0  0  0  0  0  0  0  0  0
   -4.6925    0.5114   -0.9392 H   0  0  0  0  0  0  0  0  0  0  0  0
   -2.8990   -0.7799   -2.0784 H   0  0  0  0  0  0  0  0  0  0  0  0
   -2.9187   -1.9738   -0.6705 H   0  0  0  0  0  0  0  0  0  0  0  0
   -1.9445    1.5395   -1.6321 H   0  0  0  0  0  0  0  0  0  0  0  0
   -3.1543    1.6409   -0.3465 H   0  0  0  0  0  0  0  0  0  0  0  0
   -0.8455    3.0169   -0.4222 H   0  0  0  0  0  0  0  0  0  0  0  0
   -1.6215    2.5309    1.0345 H   0  0  0  0  0  0  0  0  0  0  0  0
   -0.6269   -0.4561   -1.9309 H   0  0  0  0  0  0  0  0  0  0  0  0
    0.0984   -2.3124    0.3726 H   0  0  0  0  0  0  0  0  0  0  0  0
   -1.1028   -2.7304   -0.9581 H   0  0  0  0  0  0  0  0  0  0  0  0
    0.9149   -3.4127   -1.8592 H   0  0  0  0  0  0  0  0  0  0  0  0
    0.5560   -1.8157   -2.5587 H   0  0  0  0  0  0  0  0  0  0  0  0
    2.8118   -1.7079   -1.9448 H   0  0  0  0  0  0  0  0  0  0  0  0
    3.6062   -3.7542   -1.7385 H   0  0  0  0  0  0  0  0  0  0  0  0
    4.2747   -4.0024   -0.0657 H   0  0  0  0  0  0  0  0  0  0  0  0
    4.5395   -2.4608   -0.8936 H   0  0  0  0  0  0  0  0  0  0  0  0
    2.2438   -0.6689    0.7215 H   0  0  0  0  0  0  0  0  0  0  0  0
    0.6238    1.1365   -0.9551 H   0  0  0  0  0  0  0  0  0  0  0  0
    0.4396    0.5761    0.7050 H   0  0  0  0  0  0  0  0  0  0  0  0
    3.6549    0.3736    1.1361 H   0  0  0  0  0  0  0  0  0  0  0  0
    2.6662    2.7875   -0.1350 H   0  0  0  0  0  0  0  0  0  0  0  0
    3.2506    2.5574    1.5146 H   0  0  0  0  0  0  0  0  0  0  0  0
    5.4304    3.2992    0.9669 H   0  0  0  0  0  0  0  0  0  0  0  0
    4.5409    4.1213   -0.3616 H   0  0  0  0  0  0  0  0  0  0  0  0
    4.8920    2.3098   -1.8720 H   0  0  0  0  0  0  0  0  0  0  0  0
    6.5109    2.5038   -1.0090 H   0  0  0  0  0  0  0  0  0  0  0  0
    5.3884    0.1898   -1.1429 H   0  0  0  0  0  0  0  0  0  0  0  0
    5.8495    0.7208    0.5446 H   0  0  0  0  0  0  0  0  0  0  0  0
   -6.6492    1.8053    0.8480 H   0  0  0  0  0  0  0  0  0  0  0  0
   -6.6689   -0.3523    0.6746 H   0  0  0  0  0  0  0  0  0  0  0  0
   -5.6081   -0.9712    3.0105 H   0  0  0  0  0  0  0  0  0  0  0  0
   -4.6465   -1.7230    1.1449 H   0  0  0  0  0  0  0  0  0  0  0  0
   -3.5933    1.0507    1.7830 H   0  0  0  0  0  0  0  0  0  0  0  0
   -3.4861   -0.4306    2.7459 H   0  0  0  0  0  0  0  0  0  0  0  0
   -1.3420    0.3191    1.7346 H   0  0  0  0  0  0  0  0  0  0  0  0
   -1.8390   -1.4353    1.4425 H   0  0  0  0  0  0  0  0  0  0  0  0
   -5.0558   -1.2029   -1.0907 H   0  0  0  0  0  0  0  0  0  0  0  0
   -4.6925    0.5114   -0.9392 H   0  0  0  0  0  0  0  0  0  0  0  0
   -2.8990   -0.7799   -2.0784 H   0  0  0  0  0  0  0  0  0  0  0  0
   -2.9187   -1.9738   -0.6705 H   0  0  0  0  0  0  0  0  0  0  0  0
   -1.9445    1.5395   -1.6321 H   0  0  0  0  0  0  0  0  0  0  0  0
   -3.1543    1.6409   -0.3465 H   0  0  0  0  0  0  0  0  0  0  0  0
   -0.8455    3.0169   -0.4222 H   0  0  0  0  0  0  0  0  0  0  0  0
   -1.6215    2.5309    1.0345 H   0  0  0  0  0  0  0  0  0  0  0  0
   -0.6269   -0.4561   -1.9309 H   0  0  0  0  0  0  0  0  0  0  0  0
    0.0984   -2.3124    0.3726 H   0  0  0  0  0  0  0  0  0  0  0  0
   -1.1028   -2.7304   -0.9581 H   0  0  0  0  0  0  0  0  0  0  0  0
    0.9149   -3.4127   -1.8592 H   0  0  0  0  0  0  0  0  0  0  0  0
    0.5560   -1.8157   -2.5587 H   0  0  0  0  0  0  0  0  0  0  0  0
    2.8118   -1.7079   -1.9448 H   0  0  0  0  0  0  0  0  0  0  0  0
    3.6062   -3.7542   -1.7385 H   0  0  0  0  0  0  0  0  0  0  0  0
    4.2747   -4.0024   -0.0657 H   0  0  0  0  0  0  0  0  0  0  0  0
    4.5395   -2.4608   -0.8936 H   0  0  0  0  0  0  0  0  0  0  0  0
    2.2438   -0.6689    0.7215 H   0  0  0  0  0  0  0  0  0  0  0  0
    0.6238    1.1365   -0.9551 H   0  0  0  0  0  0  0  0  0  0  0  0
    0.4396    0.5761    0.7050 H   0  0  0  0  0  0  0  0  0  0  0  0
    3.6549    0.3736    1.1361 H   0  0  0  0  0  0  0  0  0  0  0  0
    2.6662    2.7875   -0.1350 H   0  0  0  0  0  0  0  0  0  0  0  0
    3.2506    2.5574    1.5146 H   0  0  0  0  0  0  0  0  0  0  0  0
    5.4304    3.2992    0.9669 H   0  0  0  0  0  0  0  0  0  0  0  0
    4.5409    4.1213   -0.3616 H   0  0  0  0  0  0  0  0  0  0  0  0
    4.8920    2.3098   -1.8720 H   0  0  0  0  0  0  0  0  0  0  0  0
    6.5109    2.5038   -1.0090 H   0  0  0  0  0  0  0  0  0  0  0  0
    5.3884    0.1898   -1.1429 H   0  0  0  0  0  0  0  0  0  0  0  0
    5.8495    0.7208    0.5446 H   0  0  0  0  0  0  0  0  0  0  0  0
  1  2  1  0
  2  3  1  0
  2  4  1  0
  4  5  1  0
  5  6  1  0
  4  7  1  0
  7  8  1  0
  6  9  1  0
  8  9  1  0
  9 10  1  0
 10 11  1  0
  9 12  1  0
 12 13  1  0
 13 14  1  0
 14 15  1  0
 15 16  1  0
 16 17  1  0
 15 18  1  0
 12 19  1  0
 18 19  1  0
 18 20  1  0
 20 21  1  0
 21 22  1  0
 22 23  1  0
 23 24  1  0
 21 25  1  0
 24 25  1  0
 26 27  1  0
 27 28  1  0
 27 29  1  0
 29 30  1  0
 30 31  1  0
 29 32  1  0
 32 33  1  0
 31 34  1  0
 33 34  1  0
 34 35  1  0
 35 36  1  0
 34 37  1  0
 37 38  1  0
 38 39  1  0
 39 40  1  0
 40 41  1  0
 41 42  1  0
 40 43  1  0
 37 44  1  0
 43 44  1  0
 43 45  1  0
 45 46  1  0
 46 47  1  0
 47 48  1  0
 48 49  1  0
 46 50  1  0
 49 50  1  0
  1 51  1  0
  2 52  1  0
  3 53  1  0
  4 54  1  0
  5 55  1  0
  5 56  1  0
  6 57  1  0
  6 58  1  0
  7 59  1  0
  7 60  1  0
  8 61  1  0
  8 62  1  0
 10 63  1  0
 10 64  1  0
 11 65  1  0
 11 66  1  0
 12 67  1  0
 13 68  1  0
 13 69  1  0
 14 70  1  0
 14 71  1  0
 15 72  1  0
 17 73  1  0
 17 74  1  0
 17 75  1  0
 18 76  1  0
 19 77  1  0
 19 78  1  0
 21 79  1  0
 22 80  1  0
 22 81  1  0
 23 82  1  0
 23 83  1  0
 24 84  1  0
 24 85  1  0
 25 86  1  0
 25 87  1  0
 26 88  1  0
 27 89  1  0
 28 90  1  0
 29 91  1  0
 30 92  1  0
 30 93  1  0
 31 94  1  0
 31 95  1  0
 32 96  1  0
 32 97  1  0
 33 98  1  0
 33 99  1  0
 35100  1  0
 35101  1  0
 36102  1  0
 36103  1  0
 37104  1  0
 38105  1  0
 38106  1  0
 39107  1  0
 39108  1  0
 40109  1  0
 42110  1  0
 42111  1  0
 42112  1  0
 43113  1  0
 44114  1  0
 44115  1  0
 46116  1  0
 47117  1  0
 47118  1  0
 48119  1  0
 48120  1  0
 49121  1  0
 49122  1  0
 50123  1  0
 50124  1  0
M  END
>  <PDBID>  (1) 
1XLX

>  <PDB ID>  (1) 
1XLX

>  <Generic Name>  (1) 
Cilomilast

>  <Brand Name>  (1) 
nan

>  <DrugBank ID>  (1) 
DB03849

>  <ATC Codes>  (1) 
nan

>  <Ligand ID>  (1) 
CIO

>  <Target Name>  (1) 
cAMP-specific 3',5'-cyclic phosphodiesterase 4B

>  <UniProt ID>  (1) 
Q07343

>  <PDB ID.1>  (1) 
1XLX

>  <Seq. Identity>  (1) 
97%

$$$$
