PDB_DB00215_01
     RDKit          3D

 61 63  0  0  0  0  0  0  0  0999 V2000
   -0.0599    1.9010   -0.3802 C   0  0  0  0  0  0  0  0  0  0  0  0
    1.8398   -0.8883   -1.1354 C   0  0  0  0  0  0  0  0  0  0  0  0
    0.9037    2.7638    0.3817 C   0  0  0  0  0  0  0  0  0  0  0  0
    3.3363   -1.1401   -1.1211 C   0  0  0  0  0  0  0  0  0  0  0  0
   -1.1601    3.9878   -0.8739 C   0  0  0  0  0  0  0  0  0  0  0  0
   -0.6570    4.7389    0.3353 C   0  0  0  0  0  0  0  0  0  0  0  0
   -5.0550   -0.6572   -1.0494 C   0  0  0  0  0  0  0  0  0  0  0  0
    3.7713   -3.3829   -0.2597 C   0  0  0  0  0  0  0  0  0  0  0  0
   -0.1619    5.9443   -0.1209 F   0  0  0  0  0  0  0  0  0  0  0  0
   -0.1066    0.5131    1.4683 O   0  0  0  0  0  0  0  0  0  0  0  0
   -4.3408   -1.7174   -0.3760 N   0  0  0  0  0  0  0  0  0  0  0  0
    4.8601   -3.5120   -1.2126 N   0  0  0  0  0  0  0  0  0  0  0  0
    0.1012    0.4918    0.0478 C   0  0  1  0  0  0  0  0  0  0  0  0
   -0.7954   -0.5690   -0.4209 C   0  0  0  0  0  0  0  0  0  0  0  0
    1.5693    0.1422   -0.0682 C   0  0  0  0  0  0  0  0  0  0  0  0
    1.9690   -0.4241    1.2516 C   0  0  0  0  0  0  0  0  0  0  0  0
   -2.2452   -0.4822   -0.0606 C   0  0  0  0  0  0  0  0  0  0  0  0
    0.6661   -0.4676    2.0093 C   0  0  0  0  0  0  0  0  0  0  0  0
   -2.9287   -1.7044   -0.6675 C   0  0  0  0  0  0  0  0  0  0  0  0
    2.5116   -1.8347    1.1407 C   0  0  0  0  0  0  0  0  0  0  0  0
   -1.3995    2.4990   -0.4925 C   0  0  0  0  0  0  0  0  0  0  0  0
    3.6320   -1.9289    0.1355 C   0  0  0  0  0  0  0  0  0  0  0  0
    0.3689    3.9489    1.0933 C   0  0  0  0  0  0  0  0  0  0  0  0
   -4.6337   -1.7960    1.0189 C   0  0  0  0  0  0  0  0  0  0  0  0
    0.3318    1.9356   -1.4722 H   0  0  0  0  0  0  0  0  0  0  0  0
    1.3730   -1.8734   -0.9333 H   0  0  0  0  0  0  0  0  0  0  0  0
    1.5331   -0.4673   -2.1157 H   0  0  0  0  0  0  0  0  0  0  0  0
    1.7460    3.0167   -0.2860 H   0  0  0  0  0  0  0  0  0  0  0  0
    1.3788    2.1140    1.1753 H   0  0  0  0  0  0  0  0  0  0  0  0
    3.6547   -1.6974   -2.0423 H   0  0  0  0  0  0  0  0  0  0  0  0
    3.8469   -0.1672   -1.0525 H   0  0  0  0  0  0  0  0  0  0  0  0
   -0.3469    3.9710   -1.6225 H   0  0  0  0  0  0  0  0  0  0  0  0
   -2.0613    4.4473   -1.2828 H   0  0  0  0  0  0  0  0  0  0  0  0
   -1.5472    4.9788    0.9477 H   0  0  0  0  0  0  0  0  0  0  0  0
   -4.7953   -0.6735   -2.1202 H   0  0  0  0  0  0  0  0  0  0  0  0
   -4.8898    0.3238   -0.5715 H   0  0  0  0  0  0  0  0  0  0  0  0
   -6.1390   -0.8849   -0.9611 H   0  0  0  0  0  0  0  0  0  0  0  0
    3.9908   -4.0194    0.6407 H   0  0  0  0  0  0  0  0  0  0  0  0
    2.8550   -3.7911   -0.7226 H   0  0  0  0  0  0  0  0  0  0  0  0
    5.7672   -3.5847   -0.7159 H   0  0  0  0  0  0  0  0  0  0  0  0
    4.6777   -4.2469   -1.9041 H   0  0  0  0  0  0  0  0  0  0  0  0
   -0.4514   -1.5281    0.0901 H   0  0  0  0  0  0  0  0  0  0  0  0
   -0.6512   -0.8510   -1.4995 H   0  0  0  0  0  0  0  0  0  0  0  0
    2.2108    1.0106   -0.3068 H   0  0  0  0  0  0  0  0  0  0  0  0
    2.6764    0.2234    1.8164 H   0  0  0  0  0  0  0  0  0  0  0  0
   -2.7758    0.4271   -0.2442 H   0  0  0  0  0  0  0  0  0  0  0  0
   -2.3366   -0.6570    1.0629 H   0  0  0  0  0  0  0  0  0  0  0  0
    0.8421   -0.1660    3.0890 H   0  0  0  0  0  0  0  0  0  0  0  0
    0.2309   -1.4889    1.9910 H   0  0  0  0  0  0  0  0  0  0  0  0
   -2.7525   -1.6781   -1.7453 H   0  0  0  0  0  0  0  0  0  0  0  0
   -2.4703   -2.5889   -0.1812 H   0  0  0  0  0  0  0  0  0  0  0  0
    2.9385   -2.0873    2.1332 H   0  0  0  0  0  0  0  0  0  0  0  0
    1.7166   -2.5766    0.9467 H   0  0  0  0  0  0  0  0  0  0  0  0
   -2.0232    2.5538    0.3917 H   0  0  0  0  0  0  0  0  0  0  0  0
   -1.9730    2.1705   -1.3959 H   0  0  0  0  0  0  0  0  0  0  0  0
    4.5744   -1.6087    0.5929 H   0  0  0  0  0  0  0  0  0  0  0  0
    1.2122    4.6330    1.3175 H   0  0  0  0  0  0  0  0  0  0  0  0
   -0.0697    3.6836    2.0760 H   0  0  0  0  0  0  0  0  0  0  0  0
   -5.4711   -2.5016    1.2492 H   0  0  0  0  0  0  0  0  0  0  0  0
   -5.0270   -0.7889    1.3412 H   0  0  0  0  0  0  0  0  0  0  0  0
   -3.7613   -1.9884    1.6708 H   0  0  0  0  0  0  0  0  0  0  0  0
  1  3  1  0
  2  4  1  0
  5  6  1  0
  6  9  1  0
  7 11  1  0
  8 12  1  0
  1 13  1  0
 10 13  1  0
 13 14  1  6
  2 15  1  0
 13 15  1  0
 15 16  1  0
 14 17  1  0
 10 18  1  0
 16 18  1  0
 11 19  1  0
 17 19  1  0
 16 20  1  0
  1 21  1  0
  5 21  1  0
  4 22  1  0
  8 22  1  0
 20 22  1  0
  3 23  1  0
  6 23  1  0
 11 24  1  0
  1 25  1  0
  2 26  1  0
  2 27  1  0
  3 28  1  0
  3 29  1  0
  4 30  1  0
  4 31  1  0
  5 32  1  0
  5 33  1  0
  6 34  1  0
  7 35  1  0
  7 36  1  0
  7 37  1  0
  8 38  1  0
  8 39  1  0
 12 40  1  0
 12 41  1  0
 14 42  1  0
 14 43  1  0
 15 44  1  0
 16 45  1  0
 17 46  1  0
 17 47  1  0
 18 48  1  0
 18 49  1  0
 19 50  1  0
 19 51  1  0
 20 52  1  0
 20 53  1  0
 21 54  1  0
 21 55  1  0
 22 56  1  0
 23 57  1  0
 23 58  1  0
 24 59  1  0
 24 60  1  0
 24 61  1  0
M  END
>  <PDBID>  (1) 
5I71

>  <PDB ID>  (1) 
5I71

>  <Generic Name>  (1) 
Citalopram

>  <Brand Name>  (1) 
Abbott-citalopram#Accel-citalopram Tablets#Act Citalopram#Ag-citalopram#Apo-citalopram#Auro-citalopram#Ava-citalopram#Bio-citalopram#Celexa#Celexa 10 mg#Celexa 20 mg#Celexa 40 mg#Citalopram#Citalopram Hydrobromide#Citalopram Tablets#Citalopram Tablets USP#Citalopram-10#Citalopram-20#Citalopram-40#Citalopram-odan#Ctp 30#Dom-citalopram#Ecl-citalopram#Ipg-citalopram#Jamp-citalopram#Manda-citalopram#Mar-citalopram#Mint-citalopram#Mylan-citalopram#Nat-citalopram#Nat-citalopram Tablets#Ng Citalopram#Novo-citalopram#Ntp-citalopram#Nu-citalopram#PHL-citalopram#PMS-citalopram#Pendo-citalopram#Perrigo Citalopram#Priva-citalopram#Q-citalopram#Ran-citalo#Ran-citalopram#Ratio-citalopram#Riva-citalopram#Sandoz Citalopram#Sentralopram Am-10#Septa-citalopram#Teva-citalopram#Van-citalopram#Akarin#Celapram#Ciazil#Cilift#Cipram#Cipramil#Ciprapine#Citabax#Citalec#Citol#Citopam#Citox#Citrol#Dalsan#Elopram#Humorup#Oropram#Pramcit#Recital#Seropram#Talam#Talohexal#Temperax#Vodelax#Zentius#Zetalo

>  <DrugBank ID>  (1) 
DB00215

>  <ATC Codes>  (1) 
N06AB04

>  <Ligand ID>  (1) 
68P

>  <Target Name>  (1) 
Sodium-dependent serotonin transporter

>  <UniProt ID>  (1) 
P31645

>  <PDB ID.1>  (1) 
5I71

>  <Seq. Identity>  (1) 
99%

$$$$
