PDB_DB01194_08
     RDKit          3D

 52 53  0  0  0  0  0  0  0  0999 V2000
    3.2012   -0.2880    0.0237 C   0  0  0  0  0  0  0  0  0  0  0  0
   -1.6797   -0.1663   -0.4805 C   0  0  0  0  0  0  0  0  0  0  0  0
   -1.2995    1.2759   -0.1861 C   0  0  1  0  0  0  0  0  0  0  0  0
   -0.4913   -1.0574   -0.6269 C   0  0  2  0  0  0  0  0  0  0  0  0
    0.3562   -1.1152    0.6267 C   0  0  0  0  0  0  0  0  0  0  0  0
   -5.0423    0.0759    1.4450 S   0  0  0  0  0  0  0  0  0  0  0  0
    4.6633   -0.3146    0.4055 C   0  0  0  0  0  0  0  0  0  0  0  0
    0.7832   -0.3284   -4.0507 C   0  0  0  0  0  0  0  0  0  0  0  0
   -0.2399   -0.7543   -3.0192 C   0  0  0  0  0  0  0  0  0  0  0  0
   -2.8298    1.8771    0.6375 S   0  0  0  0  0  0  0  0  0  0  0  0
   -5.2318    0.1001    2.8632 N   0  0  0  0  0  0  0  0  0  0  0  0
   -6.0101   -1.1221    0.6722 O   0  0  0  0  0  0  0  0  0  0  0  0
   -6.0715    1.5157    0.8149 O   0  0  0  0  0  0  0  0  0  0  0  0
   -3.7718    0.3033    0.5023 C   0  0  0  0  0  0  0  0  0  0  0  0
   -2.5623   -0.6283    0.6643 C   0  0  0  0  0  0  0  0  0  0  0  0
    0.1132    1.4818    0.7037 S   0  0  0  0  0  0  0  0  0  0  0  0
    1.2581    2.8722   -0.0642 O   0  0  0  0  0  0  0  0  0  0  0  0
   -0.1931    2.4464    2.3610 O   0  0  0  0  0  0  0  0  0  0  0  0
    0.9333    0.1690    0.8423 N   0  0  0  0  0  0  0  0  0  0  0  0
    0.3649   -0.6715   -1.7102 N   0  0  0  0  0  0  0  0  0  0  0  0
    2.3336    0.1402    1.1620 C   0  0  0  0  0  0  0  0  0  0  0  0
    5.0728    0.9557    0.8159 O   0  0  0  0  0  0  0  0  0  0  0  0
    6.4414    0.8883    1.1430 C   0  0  0  0  0  0  0  0  0  0  0  0
    2.9512   -1.2668   -0.3905 H   0  0  0  0  0  0  0  0  0  0  0  0
    3.0792    0.4594   -0.8079 H   0  0  0  0  0  0  0  0  0  0  0  0
   -2.2952   -0.2608   -1.3943 H   0  0  0  0  0  0  0  0  0  0  0  0
   -1.2947    1.7951   -1.1764 H   0  0  0  0  0  0  0  0  0  0  0  0
   -0.8894   -2.0672   -0.8897 H   0  0  0  0  0  0  0  0  0  0  0  0
    1.1712   -1.8656    0.4049 H   0  0  0  0  0  0  0  0  0  0  0  0
   -0.2267   -1.4876    1.4951 H   0  0  0  0  0  0  0  0  0  0  0  0
    4.8542   -1.0951    1.1933 H   0  0  0  0  0  0  0  0  0  0  0  0
    5.3035   -0.5956   -0.4715 H   0  0  0  0  0  0  0  0  0  0  0  0
    1.2379   -1.2129   -4.5751 H   0  0  0  0  0  0  0  0  0  0  0  0
    0.4042    0.4357   -4.7383 H   0  0  0  0  0  0  0  0  0  0  0  0
    1.6586    0.1503   -3.5268 H   0  0  0  0  0  0  0  0  0  0  0  0
   -0.4182   -1.8574   -3.1952 H   0  0  0  0  0  0  0  0  0  0  0  0
   -1.2035   -0.2640   -3.1233 H   0  0  0  0  0  0  0  0  0  0  0  0
   -4.5570   -0.1339    3.6190 H   0  0  0  0  0  0  0  0  0  0  0  0
   -6.0032    0.6471    3.3535 H   0  0  0  0  0  0  0  0  0  0  0  0
   -5.6287   -1.3007   -0.2255 H   0  0  0  0  0  0  0  0  0  0  0  0
   -6.0866    1.2744   -0.1368 H   0  0  0  0  0  0  0  0  0  0  0  0
   -3.9953    0.2192   -0.6075 H   0  0  0  0  0  0  0  0  0  0  0  0
   -2.1095   -0.4138    1.6459 H   0  0  0  0  0  0  0  0  0  0  0  0
   -2.8195   -1.6672    0.4902 H   0  0  0  0  0  0  0  0  0  0  0  0
    1.2101    2.5382   -0.9738 H   0  0  0  0  0  0  0  0  0  0  0  0
   -0.7668    1.7454    2.7629 H   0  0  0  0  0  0  0  0  0  0  0  0
    0.8316    0.2523   -1.5522 H   0  0  0  0  0  0  0  0  0  0  0  0
    2.6228    1.1494    1.5158 H   0  0  0  0  0  0  0  0  0  0  0  0
    2.5282   -0.5807    1.9981 H   0  0  0  0  0  0  0  0  0  0  0  0
    7.0323    0.5827    0.2538 H   0  0  0  0  0  0  0  0  0  0  0  0
    6.5675    0.1004    1.9418 H   0  0  0  0  0  0  0  0  0  0  0  0
    6.7438    1.8501    1.5652 H   0  0  0  0  0  0  0  0  0  0  0  0
  2  3  1  0
  2  4  1  0
  4  5  1  0
  1  7  1  0
  8  9  1  0
  3 10  1  0
  6 11  1  0
  6 12  1  0
  6 13  1  0
  6 14  1  0
 10 14  1  0
  2 15  1  0
 14 15  1  0
  3 16  1  0
 16 17  1  0
 16 18  1  0
  5 19  1  0
 16 19  1  0
  4 20  1  0
  9 20  1  0
  1 21  1  0
 19 21  1  0
  7 22  1  0
 22 23  1  0
  1 24  1  0
  1 25  1  0
  2 26  1  0
  3 27  1  6
  4 28  1  6
  5 29  1  0
  5 30  1  0
  7 31  1  0
  7 32  1  0
  8 33  1  0
  8 34  1  0
  8 35  1  0
  9 36  1  0
  9 37  1  0
 11 38  1  0
 11 39  1  0
 12 40  1  0
 13 41  1  0
 14 42  1  0
 15 43  1  0
 15 44  1  0
 17 45  1  0
 18 46  1  0
 20 47  1  0
 21 48  1  0
 21 49  1  0
 23 50  1  0
 23 51  1  0
 23 52  1  0
M  END
>  <PDBID>  (1) 
4M2R

>  <PDB ID>  (1) 
4M2R

>  <Generic Name>  (1) 
Brinzolamide

>  <Brand Name>  (1) 
Azarga#Azopt#Sandoz Brinzolamide#Simbrinza

>  <DrugBank ID>  (1) 
DB01194

>  <ATC Codes>  (1) 
S01EC54#S01EC04

>  <Ligand ID>  (1) 
BZ1

>  <Target Name>  (1) 
Carbonic anhydrase 2

>  <UniProt ID>  (1) 
P00918

>  <PDB ID.1>  (1) 
4M2R

>  <Seq. Identity>  (1) 
100%

$$$$
