PDB_DB00619_06
     RDKit          3D

 94 98  0  0  0  0  0  0  0  0999 V2000
  -10.0337   -0.5236    0.9052 C   0  0  0  0  0  0  0  0  0  0  0  0
   -8.5665   -0.2389    0.5723 C   0  0  0  0  0  0  0  0  0  0  0  0
   -7.7864   -1.4386    0.9920 C   0  0  0  0  0  0  0  0  0  0  0  0
   -7.8614   -1.5129    2.5017 C   0  0  0  0  0  0  0  0  0  0  0  0
   -9.2134   -1.6469    2.9300 N   0  0  0  0  0  0  0  0  0  0  0  0
  -10.1970   -1.6252    1.8978 C   0  0  0  0  0  0  0  0  0  0  0  0
   -6.3593   -1.4405    0.5018 C   0  0  0  0  0  0  0  0  0  0  0  0
   -6.3568   -1.3751   -1.0045 C   0  0  0  0  0  0  0  0  0  0  0  0
   -4.9514   -1.6732   -1.4737 C   0  0  0  0  0  0  0  0  0  0  0  0
   -4.0274   -1.2829   -0.4603 N   0  0  0  0  0  0  0  0  0  0  0  0
   -4.4034   -0.0943    0.2219 C   0  0  0  0  0  0  0  0  0  0  0  0
   -5.5917   -0.3562    1.0151 N   0  0  0  0  0  0  0  0  0  0  0  0
   -3.4452    0.4799    1.0691 N   0  0  0  0  0  0  0  0  0  0  0  0
   -2.2358    0.9989    0.5778 C   0  0  0  0  0  0  0  0  0  0  0  0
   -2.3470    2.1538   -0.3652 C   0  0  0  0  0  0  0  0  0  0  0  0
   -1.6740    2.0500   -1.6627 C   0  0  0  0  0  0  0  0  0  0  0  0
   -0.6053    1.0461   -1.8650 C   0  0  0  0  0  0  0  0  0  0  0  0
   -0.0735    0.5326   -0.5782 C   0  0  1  0  0  0  0  0  0  0  0  0
   -1.3392   -0.0985    0.0851 C   0  0  0  0  0  0  0  0  0  0  0  0
    0.8402   -0.5507   -0.7519 N   0  0  0  0  0  0  0  0  0  0  0  0
    1.9929   -0.1558   -1.5083 C   0  0  0  0  0  0  0  0  0  0  0  0
    2.7385    0.9250   -0.7781 C   0  0  0  0  0  0  0  0  0  0  0  0
    3.1948    0.4235    0.5749 C   0  0  0  0  0  0  0  0  0  0  0  0
    4.2475    1.3847    1.0570 C   0  0  0  0  0  0  0  0  0  0  0  0
    5.5302    1.1644    0.2348 C   0  0  0  0  0  0  0  0  0  0  0  0
    5.2182    0.7918   -1.1666 C   0  0  0  0  0  0  0  0  0  0  0  0
    3.8896    1.4326   -1.6051 C   0  0  0  0  0  0  0  0  0  0  0  0
    6.3520    0.1952    1.0149 C   0  0  0  0  0  0  0  0  0  0  0  0
    7.6106   -0.1811    0.4825 N   0  0  0  0  0  0  0  0  0  0  0  0
    7.5139   -1.0070   -0.6653 C   0  0  0  0  0  0  0  0  0  0  0  0
    8.8139   -1.8307   -0.7244 C   0  0  0  0  0  0  0  0  0  0  0  0
    9.9343   -0.9847   -0.3477 N   0  0  0  0  0  0  0  0  0  0  0  0
    9.9045    0.3091   -0.9899 C   0  0  0  0  0  0  0  0  0  0  0  0
    9.8845   -0.8524    1.1021 C   0  0  0  0  0  0  0  0  0  0  0  0
    8.4320   -0.7395    1.5292 C   0  0  0  0  0  0  0  0  0  0  0  0
    2.8231   -1.2970   -1.6286 O   0  0  0  0  0  0  0  0  0  0  0  0
   -1.9744    3.4721    0.2913 C   0  0  0  0  0  0  0  0  0  0  0  0
  -10.4950   -0.8624   -0.0597 H   0  0  0  0  0  0  0  0  0  0  0  0
  -10.5602    0.4130    1.1811 H   0  0  0  0  0  0  0  0  0  0  0  0
   -8.2786    0.6152    1.2347 H   0  0  0  0  0  0  0  0  0  0  0  0
   -8.4517    0.0202   -0.5015 H   0  0  0  0  0  0  0  0  0  0  0  0
   -8.2791   -2.3430    0.5895 H   0  0  0  0  0  0  0  0  0  0  0  0
   -7.1513   -2.2267    2.9281 H   0  0  0  0  0  0  0  0  0  0  0  0
   -7.5125   -0.4987    2.8625 H   0  0  0  0  0  0  0  0  0  0  0  0
   -9.4565   -1.0600    3.7595 H   0  0  0  0  0  0  0  0  0  0  0  0
  -10.3153   -2.6394    1.4176 H   0  0  0  0  0  0  0  0  0  0  0  0
  -11.1955   -1.4715    2.4054 H   0  0  0  0  0  0  0  0  0  0  0  0
   -5.9324   -2.4235    0.8606 H   0  0  0  0  0  0  0  0  0  0  0  0
   -6.5943   -0.3009   -1.2614 H   0  0  0  0  0  0  0  0  0  0  0  0
   -7.1043   -2.0590   -1.4453 H   0  0  0  0  0  0  0  0  0  0  0  0
   -4.7867   -1.1008   -2.4139 H   0  0  0  0  0  0  0  0  0  0  0  0
   -4.9305   -2.7506   -1.7313 H   0  0  0  0  0  0  0  0  0  0  0  0
   -3.6783   -2.0509    0.1324 H   0  0  0  0  0  0  0  0  0  0  0  0
   -4.7789    0.6168   -0.5834 H   0  0  0  0  0  0  0  0  0  0  0  0
   -6.2271    0.4961    1.0247 H   0  0  0  0  0  0  0  0  0  0  0  0
   -3.9011    0.9788    1.8485 H   0  0  0  0  0  0  0  0  0  0  0  0
   -1.6926    1.4085    1.4889 H   0  0  0  0  0  0  0  0  0  0  0  0
   -3.4606    2.2577   -0.5603 H   0  0  0  0  0  0  0  0  0  0  0  0
   -1.2376    3.0542   -1.9739 H   0  0  0  0  0  0  0  0  0  0  0  0
   -2.4210    1.8820   -2.5030 H   0  0  0  0  0  0  0  0  0  0  0  0
    0.2285    1.4610   -2.4750 H   0  0  0  0  0  0  0  0  0  0  0  0
   -0.9791    0.1632   -2.4652 H   0  0  0  0  0  0  0  0  0  0  0  0
    0.2874    1.3487    0.0845 H   0  0  0  0  0  0  0  0  0  0  0  0
   -1.7499   -0.7324   -0.7020 H   0  0  0  0  0  0  0  0  0  0  0  0
   -0.9350   -0.7506    0.8810 H   0  0  0  0  0  0  0  0  0  0  0  0
    0.3764   -1.3904   -1.1473 H   0  0  0  0  0  0  0  0  0  0  0  0
    1.7042    0.1959   -2.5176 H   0  0  0  0  0  0  0  0  0  0  0  0
    2.0800    1.8142   -0.5887 H   0  0  0  0  0  0  0  0  0  0  0  0
    3.6084   -0.5854    0.5369 H   0  0  0  0  0  0  0  0  0  0  0  0
    2.3219    0.4711    1.2853 H   0  0  0  0  0  0  0  0  0  0  0  0
    4.4965    1.2515    2.1321 H   0  0  0  0  0  0  0  0  0  0  0  0
    3.9072    2.4289    0.9039 H   0  0  0  0  0  0  0  0  0  0  0  0
    6.0406    2.1653    0.2130 H   0  0  0  0  0  0  0  0  0  0  0  0
    5.0900   -0.2779   -1.3739 H   0  0  0  0  0  0  0  0  0  0  0  0
    5.9607    1.2627   -1.8892 H   0  0  0  0  0  0  0  0  0  0  0  0
    3.7247    1.0920   -2.6521 H   0  0  0  0  0  0  0  0  0  0  0  0
    3.9526    2.5238   -1.6191 H   0  0  0  0  0  0  0  0  0  0  0  0
    5.7474   -0.7343    1.1885 H   0  0  0  0  0  0  0  0  0  0  0  0
    6.5038    0.6673    2.0398 H   0  0  0  0  0  0  0  0  0  0  0  0
    6.7160   -1.7781   -0.5665 H   0  0  0  0  0  0  0  0  0  0  0  0
    7.4645   -0.4804   -1.6350 H   0  0  0  0  0  0  0  0  0  0  0  0
    8.7155   -2.6093    0.0567 H   0  0  0  0  0  0  0  0  0  0  0  0
    8.9138   -2.2489   -1.7394 H   0  0  0  0  0  0  0  0  0  0  0  0
   10.9739    0.6320   -1.1340 H   0  0  0  0  0  0  0  0  0  0  0  0
    9.4439    1.0993   -0.3589 H   0  0  0  0  0  0  0  0  0  0  0  0
    9.4626    0.3008   -1.9900 H   0  0  0  0  0  0  0  0  0  0  0  0
   10.2771   -1.8032    1.5198 H   0  0  0  0  0  0  0  0  0  0  0  0
   10.4862    0.0061    1.4534 H   0  0  0  0  0  0  0  0  0  0  0  0
    8.0019   -1.7193    1.7939 H   0  0  0  0  0  0  0  0  0  0  0  0
    8.3631   -0.0864    2.4017 H   0  0  0  0  0  0  0  0  0  0  0  0
    2.9450   -1.4520   -2.5868 H   0  0  0  0  0  0  0  0  0  0  0  0
   -1.0348    3.8953   -0.1046 H   0  0  0  0  0  0  0  0  0  0  0  0
   -1.7632    3.2434    1.3724 H   0  0  0  0  0  0  0  0  0  0  0  0
   -2.7684    4.2172    0.2923 H   0  0  0  0  0  0  0  0  0  0  0  0
  1  2  1  0
  2  3  1  0
  3  4  1  0
  4  5  1  0
  1  6  1  0
  5  6  1  0
  3  7  1  0
  7  8  1  0
  8  9  1  0
  9 10  1  0
 10 11  1  0
  7 12  1  0
 11 12  1  0
 11 13  1  0
 13 14  1  0
 14 15  1  0
 15 16  1  0
 16 17  1  0
 17 18  1  0
 14 19  1  0
 18 19  1  0
 18 20  1  0
 20 21  1  0
 21 22  1  0
 22 23  1  0
 23 24  1  0
 24 25  1  0
 25 26  1  0
 22 27  1  0
 26 27  1  0
 25 28  1  0
 28 29  1  0
 29 30  1  0
 30 31  1  0
 31 32  1  0
 32 33  1  0
 32 34  1  0
 29 35  1  0
 34 35  1  0
 21 36  1  0
 15 37  1  0
  1 38  1  0
  1 39  1  0
  2 40  1  0
  2 41  1  0
  3 42  1  0
  4 43  1  0
  4 44  1  0
  5 45  1  0
  6 46  1  0
  6 47  1  0
  7 48  1  0
  8 49  1  0
  8 50  1  0
  9 51  1  0
  9 52  1  0
 10 53  1  0
 11 54  1  0
 12 55  1  0
 13 56  1  0
 14 57  1  0
 15 58  1  0
 16 59  1  0
 16 60  1  0
 17 61  1  0
 17 62  1  0
 18 63  1  1
 19 64  1  0
 19 65  1  0
 20 66  1  0
 21 67  1  0
 22 68  1  0
 23 69  1  0
 23 70  1  0
 24 71  1  0
 24 72  1  0
 25 73  1  0
 26 74  1  0
 26 75  1  0
 27 76  1  0
 27 77  1  0
 28 78  1  0
 28 79  1  0
 30 80  1  0
 30 81  1  0
 31 82  1  0
 31 83  1  0
 33 84  1  0
 33 85  1  0
 33 86  1  0
 34 87  1  0
 34 88  1  0
 35 89  1  0
 35 90  1  0
 36 91  1  0
 37 92  1  0
 37 93  1  0
 37 94  1  0
M  END
>  <PDBID>  (1) 
1T46

>  <PDB ID>  (1) 
1T46

>  <Generic Name>  (1) 
Imatinib

>  <Brand Name>  (1) 
Apo-imatinib#Gleevec#Imatinib Mesylate#Mylan-imatinib#Nat-imatinib#PMS-imatinib#Ran-imatinib#Teva-imatinib#Celonib#Enliven#Glivec#Imatib#Mesylonib#Mitinab#Plivatinib#Shantinib

>  <DrugBank ID>  (1) 
DB00619

>  <ATC Codes>  (1) 
L01XE01

>  <Ligand ID>  (1) 
STI

>  <Target Name>  (1) 
Mast/stem cell growth factor receptor Kit

>  <UniProt ID>  (1) 
P10721

>  <PDB ID.1>  (1) 
1T46

>  <Seq. Identity>  (1) 
90%

$$$$
