PDB_DB05812_01
     RDKit          3D

268284  0  0  0  0  0  0  0  0999 V2000
    3.5062    0.5849    1.7542 C   0  0  0  0  0  0  0  0  0  0  0  0
    4.8457    1.2172    1.5367 C   0  0  0  0  0  0  0  0  0  0  0  0
    5.7738    0.4296    0.6805 C   0  0  2  0  0  0  0  0  0  0  0  0
    6.7980    1.3031    0.2565 O   0  0  0  0  0  0  0  0  0  0  0  0
    5.1459   -0.1491   -0.5487 C   0  0  0  0  0  0  0  0  0  0  0  0
    3.7725   -0.7084   -0.2573 C   0  0  0  0  0  0  0  0  0  0  0  0
    3.1829   -1.3833   -1.4402 C   0  0  0  0  0  0  0  0  0  0  0  0
    1.8793   -2.0526   -0.9778 C   0  0  0  0  0  0  0  0  0  0  0  0
    0.9486   -0.9048   -0.6541 C   0  0  2  0  0  0  0  0  0  0  0  0
    1.5283   -0.2564    0.6185 C   0  0  1  0  0  0  0  0  0  0  0  0
    2.8808    0.3297    0.3762 C   0  0  1  0  0  0  0  0  0  0  0  0
    0.5526    0.6432    1.2763 C   0  0  0  0  0  0  0  0  0  0  0  0
   -0.6454    1.0203    0.4915 C   0  0  0  0  0  0  0  0  0  0  0  0
   -1.2839   -0.0073   -0.3274 C   0  0  1  0  0  0  0  0  0  0  0  0
   -0.4078   -1.2746   -0.2962 C   0  0  1  0  0  0  0  0  0  0  0  0
   -1.2065   -2.1885   -1.1097 C   0  0  0  0  0  0  0  0  0  0  0  0
   -2.6438   -1.8583   -0.6579 C   0  0  0  0  0  0  0  0  0  0  0  0
   -2.5212   -0.6397    0.2193 C   0  0  0  0  0  0  0  0  0  0  0  0
   -1.4948    0.4503   -1.7490 C   0  0  0  0  0  0  0  0  0  0  0  0
    2.8457    1.6217   -0.3823 C   0  0  0  0  0  0  0  0  0  0  0  0
   -3.7098    0.1645    0.4087 C   0  0  0  0  0  0  0  0  0  0  0  0
   -4.3657    0.8430   -0.7151 C   0  0  0  0  0  0  0  0  0  0  0  0
   -5.8302    0.8162   -0.5401 N   0  0  0  0  0  0  0  0  0  0  0  0
   -6.1472    1.2542    0.8068 C   0  0  0  0  0  0  0  0  0  0  0  0
   -5.7788    0.1630    1.8174 C   0  0  0  0  0  0  0  0  0  0  0  0
   -4.7540   -0.7086    1.1243 C   0  0  0  0  0  0  0  0  0  0  0  0
    3.5062    0.5849    1.7542 C   0  0  0  0  0  0  0  0  0  0  0  0
    4.8457    1.2172    1.5367 C   0  0  0  0  0  0  0  0  0  0  0  0
    5.7738    0.4296    0.6805 C   0  0  2  0  0  0  0  0  0  0  0  0
    6.7980    1.3031    0.2565 O   0  0  0  0  0  0  0  0  0  0  0  0
    5.1459   -0.1491   -0.5487 C   0  0  0  0  0  0  0  0  0  0  0  0
    3.7725   -0.7084   -0.2573 C   0  0  0  0  0  0  0  0  0  0  0  0
    3.1829   -1.3833   -1.4402 C   0  0  0  0  0  0  0  0  0  0  0  0
    1.8793   -2.0526   -0.9778 C   0  0  0  0  0  0  0  0  0  0  0  0
    0.9486   -0.9048   -0.6541 C   0  0  2  0  0  0  0  0  0  0  0  0
    1.5283   -0.2564    0.6185 C   0  0  1  0  0  0  0  0  0  0  0  0
    2.8808    0.3297    0.3762 C   0  0  1  0  0  0  0  0  0  0  0  0
    0.5526    0.6432    1.2763 C   0  0  0  0  0  0  0  0  0  0  0  0
   -0.6454    1.0203    0.4915 C   0  0  0  0  0  0  0  0  0  0  0  0
   -1.2839   -0.0073   -0.3274 C   0  0  1  0  0  0  0  0  0  0  0  0
   -0.4078   -1.2746   -0.2962 C   0  0  1  0  0  0  0  0  0  0  0  0
   -1.2065   -2.1885   -1.1097 C   0  0  0  0  0  0  0  0  0  0  0  0
   -2.6438   -1.8583   -0.6579 C   0  0  0  0  0  0  0  0  0  0  0  0
   -2.5212   -0.6397    0.2193 C   0  0  0  0  0  0  0  0  0  0  0  0
   -1.4948    0.4503   -1.7490 C   0  0  0  0  0  0  0  0  0  0  0  0
    2.8457    1.6217   -0.3823 C   0  0  0  0  0  0  0  0  0  0  0  0
   -3.7098    0.1645    0.4087 C   0  0  0  0  0  0  0  0  0  0  0  0
   -4.3657    0.8430   -0.7151 C   0  0  0  0  0  0  0  0  0  0  0  0
   -5.8302    0.8162   -0.5401 N   0  0  0  0  0  0  0  0  0  0  0  0
   -6.1472    1.2542    0.8068 C   0  0  0  0  0  0  0  0  0  0  0  0
   -5.7788    0.1630    1.8174 C   0  0  0  0  0  0  0  0  0  0  0  0
   -4.7540   -0.7086    1.1243 C   0  0  0  0  0  0  0  0  0  0  0  0
    3.4338    0.1938    1.8403 C   0  0  0  0  0  0  0  0  0  0  0  0
    4.7215    0.9477    1.7660 C   0  0  0  0  0  0  0  0  0  0  0  0
    5.6142    0.6160    0.6308 C   0  0  2  0  0  0  0  0  0  0  0  0
    6.3560    1.7780    0.3149 O   0  0  0  0  0  0  0  0  0  0  0  0
    4.9438    0.1684   -0.6166 C   0  0  0  0  0  0  0  0  0  0  0  0
    3.7031   -0.6317   -0.3930 C   0  0  0  0  0  0  0  0  0  0  0  0
    3.1455   -1.1135   -1.6751 C   0  0  0  0  0  0  0  0  0  0  0  0
    1.8278   -1.8759   -1.4584 C   0  0  0  0  0  0  0  0  0  0  0  0
    0.9146   -0.8736   -0.8239 C   0  0  2  0  0  0  0  0  0  0  0  0
    1.4827   -0.5948    0.5788 C   0  0  1  0  0  0  0  0  0  0  0  0
    2.7583    0.1691    0.4776 C   0  0  1  0  0  0  0  0  0  0  0  0
    0.4442   -0.0893    1.4914 C   0  0  0  0  0  0  0  0  0  0  0  0
   -0.7504    0.5893    0.8958 C   0  0  0  0  0  0  0  0  0  0  0  0
   -1.2506    0.0266   -0.3939 C   0  0  1  0  0  0  0  0  0  0  0  0
   -0.4647   -1.2766   -0.5889 C   0  0  1  0  0  0  0  0  0  0  0  0
   -1.2283   -1.9845   -1.6131 C   0  0  0  0  0  0  0  0  0  0  0  0
   -2.6399   -1.8440   -0.9962 C   0  0  0  0  0  0  0  0  0  0  0  0
   -2.6424   -0.3904   -0.4964 C   0  0  1  0  0  0  0  0  0  0  0  0
   -0.8957    1.0171   -1.5047 C   0  0  0  0  0  0  0  0  0  0  0  0
    2.6066    1.5830    0.0200 C   0  0  0  0  0  0  0  0  0  0  0  0
   -3.5605   -0.1619    0.6470 C   0  0  1  0  0  0  0  0  0  0  0  0
   -3.7324    1.3150    0.9162 C   0  0  0  0  0  0  0  0  0  0  0  0
   -4.9897    1.8209    0.3520 N   0  0  0  0  0  0  0  0  0  0  0  0
   -6.1546    1.3043    0.9911 C   0  0  0  0  0  0  0  0  0  0  0  0
   -5.9218   -0.1466    1.3494 C   0  0  0  0  0  0  0  0  0  0  0  0
   -4.9468   -0.7084    0.3333 C   0  0  0  0  0  0  0  0  0  0  0  0
    3.6139    0.3218    1.6692 C   0  0  0  0  0  0  0  0  0  0  0  0
    5.1198    0.4587    1.6218 C   0  0  0  0  0  0  0  0  0  0  0  0
    5.7698   -0.5429    0.7112 C   0  0  2  0  0  0  0  0  0  0  0  0
    6.4935    0.1090   -0.3134 O   0  0  0  0  0  0  0  0  0  0  0  0
    4.6483   -1.2939   -0.0178 C   0  0  0  0  0  0  0  0  0  0  0  0
    3.8159   -0.1970   -0.6953 C   0  0  1  0  0  0  0  0  0  0  0  0
    3.0862   -0.7939   -1.8363 C   0  0  0  0  0  0  0  0  0  0  0  0
    1.7602   -1.3800   -1.4046 C   0  0  0  0  0  0  0  0  0  0  0  0
    0.9420   -0.1947   -0.9341 C   0  0  2  0  0  0  0  0  0  0  0  0
    1.5759    0.2748    0.3625 C   0  0  1  0  0  0  0  0  0  0  0  0
    3.0097    0.5701    0.2782 C   0  0  1  0  0  0  0  0  0  0  0  0
    0.7449    1.4418    0.8547 C   0  0  0  0  0  0  0  0  0  0  0  0
   -0.6839    1.0353    1.1045 C   0  0  0  0  0  0  0  0  0  0  0  0
   -1.3501    0.4189   -0.0631 C   0  0  1  0  0  0  0  0  0  0  0  0
   -0.4019   -0.6629   -0.6146 C   0  0  1  0  0  0  0  0  0  0  0  0
   -1.2389   -1.2559   -1.6748 C   0  0  0  0  0  0  0  0  0  0  0  0
   -2.6389   -1.2604   -1.0345 C   0  0  0  0  0  0  0  0  0  0  0  0
   -2.4684   -0.5262    0.2668 C   0  0  0  0  0  0  0  0  0  0  0  0
   -1.6270    1.3508   -1.1983 C   0  0  0  0  0  0  0  0  0  0  0  0
    3.1756    2.0790    0.0469 C   0  0  0  0  0  0  0  0  0  0  0  0
   -3.6378   -0.0345    0.9493 C   0  0  0  0  0  0  0  0  0  0  0  0
   -4.4835    1.0235    0.3747 C   0  0  0  0  0  0  0  0  0  0  0  0
   -5.5818    0.5687   -0.4487 N   0  0  0  0  0  0  0  0  0  0  0  0
   -6.5237   -0.2594    0.2171 C   0  0  0  0  0  0  0  0  0  0  0  0
   -5.9395   -0.7502    1.5481 C   0  0  0  0  0  0  0  0  0  0  0  0
   -4.5494   -1.2421    1.2342 C   0  0  0  0  0  0  0  0  0  0  0  0
    2.9068    1.2368    2.3795 H   0  0  0  0  0  0  0  0  0  0  0  0
    3.5879   -0.4239    2.2245 H   0  0  0  0  0  0  0  0  0  0  0  0
    5.3278    1.3015    2.5549 H   0  0  0  0  0  0  0  0  0  0  0  0
    4.6917    2.2551    1.2038 H   0  0  0  0  0  0  0  0  0  0  0  0
    6.2873   -0.3726    1.2551 H   0  0  0  0  0  0  0  0  0  0  0  0
    6.3570    2.1766    0.0786 H   0  0  0  0  0  0  0  0  0  0  0  0
    5.7782   -1.0379   -0.8425 H   0  0  0  0  0  0  0  0  0  0  0  0
    5.1609    0.5274   -1.4251 H   0  0  0  0  0  0  0  0  0  0  0  0
    3.9308   -1.4988    0.5341 H   0  0  0  0  0  0  0  0  0  0  0  0
    3.8660   -2.1572   -1.7915 H   0  0  0  0  0  0  0  0  0  0  0  0
    2.8819   -0.6654   -2.2306 H   0  0  0  0  0  0  0  0  0  0  0  0
    2.1461   -2.6471   -0.0935 H   0  0  0  0  0  0  0  0  0  0  0  0
    1.4704   -2.6405   -1.8171 H   0  0  0  0  0  0  0  0  0  0  0  0
    1.1011   -0.1535   -1.4388 H   0  0  0  0  0  0  0  0  0  0  0  0
    1.6864   -1.1405    1.3074 H   0  0  0  0  0  0  0  0  0  0  0  0
    0.1924    0.2450    2.2710 H   0  0  0  0  0  0  0  0  0  0  0  0
    1.0789    1.6027    1.5589 H   0  0  0  0  0  0  0  0  0  0  0  0
   -0.3511    1.8855   -0.1741 H   0  0  0  0  0  0  0  0  0  0  0  0
   -1.3787    1.4897    1.2115 H   0  0  0  0  0  0  0  0  0  0  0  0
   -0.4674   -1.6096    0.7771 H   0  0  0  0  0  0  0  0  0  0  0  0
   -1.0064   -3.2431   -0.7984 H   0  0  0  0  0  0  0  0  0  0  0  0
   -1.0983   -2.1294   -2.1876 H   0  0  0  0  0  0  0  0  0  0  0  0
   -3.2260   -1.7175   -1.5615 H   0  0  0  0  0  0  0  0  0  0  0  0
   -3.0635   -2.6862   -0.0498 H   0  0  0  0  0  0  0  0  0  0  0  0
   -2.2233   -1.0425    1.2372 H   0  0  0  0  0  0  0  0  0  0  0  0
   -2.0249   -0.2882   -2.3754 H   0  0  0  0  0  0  0  0  0  0  0  0
   -2.0037    1.4347   -1.6956 H   0  0  0  0  0  0  0  0  0  0  0  0
   -0.5446    0.6594   -2.2878 H   0  0  0  0  0  0  0  0  0  0  0  0
    2.1375    1.6475   -1.2139 H   0  0  0  0  0  0  0  0  0  0  0  0
    2.4998    2.4153    0.3414 H   0  0  0  0  0  0  0  0  0  0  0  0
    3.8732    1.9112   -0.6583 H   0  0  0  0  0  0  0  0  0  0  0  0
   -3.4648    0.9541    1.1823 H   0  0  0  0  0  0  0  0  0  0  0  0
   -4.1289    1.9485   -0.7313 H   0  0  0  0  0  0  0  0  0  0  0  0
   -4.1940    0.4709   -1.7187 H   0  0  0  0  0  0  0  0  0  0  0  0
   -6.2050    1.5364   -1.1933 H   0  0  0  0  0  0  0  0  0  0  0  0
   -7.2652    1.3708    0.8357 H   0  0  0  0  0  0  0  0  0  0  0  0
   -5.6535    2.2171    1.0572 H   0  0  0  0  0  0  0  0  0  0  0  0
   -5.3493    0.5964    2.7334 H   0  0  0  0  0  0  0  0  0  0  0  0
   -6.6527   -0.4691    2.0424 H   0  0  0  0  0  0  0  0  0  0  0  0
   -4.2531   -1.4047    1.8031 H   0  0  0  0  0  0  0  0  0  0  0  0
   -5.2785   -1.2642    0.3246 H   0  0  0  0  0  0  0  0  0  0  0  0
    2.9068    1.2368    2.3795 H   0  0  0  0  0  0  0  0  0  0  0  0
    3.5879   -0.4239    2.2245 H   0  0  0  0  0  0  0  0  0  0  0  0
    5.3278    1.3015    2.5549 H   0  0  0  0  0  0  0  0  0  0  0  0
    4.6917    2.2551    1.2038 H   0  0  0  0  0  0  0  0  0  0  0  0
    6.2873   -0.3726    1.2551 H   0  0  0  0  0  0  0  0  0  0  0  0
    6.3570    2.1766    0.0786 H   0  0  0  0  0  0  0  0  0  0  0  0
    5.7782   -1.0379   -0.8425 H   0  0  0  0  0  0  0  0  0  0  0  0
    5.1609    0.5274   -1.4251 H   0  0  0  0  0  0  0  0  0  0  0  0
    3.9308   -1.4988    0.5341 H   0  0  0  0  0  0  0  0  0  0  0  0
    3.8660   -2.1572   -1.7915 H   0  0  0  0  0  0  0  0  0  0  0  0
    2.8819   -0.6654   -2.2306 H   0  0  0  0  0  0  0  0  0  0  0  0
    2.1461   -2.6471   -0.0935 H   0  0  0  0  0  0  0  0  0  0  0  0
    1.4704   -2.6405   -1.8171 H   0  0  0  0  0  0  0  0  0  0  0  0
    1.1011   -0.1535   -1.4388 H   0  0  0  0  0  0  0  0  0  0  0  0
    1.6864   -1.1405    1.3074 H   0  0  0  0  0  0  0  0  0  0  0  0
    0.1924    0.2450    2.2710 H   0  0  0  0  0  0  0  0  0  0  0  0
    1.0789    1.6027    1.5589 H   0  0  0  0  0  0  0  0  0  0  0  0
   -0.3511    1.8855   -0.1741 H   0  0  0  0  0  0  0  0  0  0  0  0
   -1.3787    1.4897    1.2115 H   0  0  0  0  0  0  0  0  0  0  0  0
   -0.4674   -1.6096    0.7771 H   0  0  0  0  0  0  0  0  0  0  0  0
   -1.0064   -3.2431   -0.7984 H   0  0  0  0  0  0  0  0  0  0  0  0
   -1.0983   -2.1294   -2.1876 H   0  0  0  0  0  0  0  0  0  0  0  0
   -3.2260   -1.7175   -1.5615 H   0  0  0  0  0  0  0  0  0  0  0  0
   -3.0635   -2.6862   -0.0498 H   0  0  0  0  0  0  0  0  0  0  0  0
   -2.2233   -1.0425    1.2372 H   0  0  0  0  0  0  0  0  0  0  0  0
   -2.0249   -0.2882   -2.3754 H   0  0  0  0  0  0  0  0  0  0  0  0
   -2.0037    1.4347   -1.6956 H   0  0  0  0  0  0  0  0  0  0  0  0
   -0.5446    0.6594   -2.2878 H   0  0  0  0  0  0  0  0  0  0  0  0
    2.1375    1.6475   -1.2139 H   0  0  0  0  0  0  0  0  0  0  0  0
    2.4998    2.4153    0.3414 H   0  0  0  0  0  0  0  0  0  0  0  0
    3.8732    1.9112   -0.6583 H   0  0  0  0  0  0  0  0  0  0  0  0
   -3.4648    0.9541    1.1823 H   0  0  0  0  0  0  0  0  0  0  0  0
   -4.1289    1.9485   -0.7313 H   0  0  0  0  0  0  0  0  0  0  0  0
   -4.1940    0.4709   -1.7187 H   0  0  0  0  0  0  0  0  0  0  0  0
   -6.2050    1.5364   -1.1933 H   0  0  0  0  0  0  0  0  0  0  0  0
   -7.2652    1.3708    0.8357 H   0  0  0  0  0  0  0  0  0  0  0  0
   -5.6535    2.2171    1.0572 H   0  0  0  0  0  0  0  0  0  0  0  0
   -5.3493    0.5964    2.7334 H   0  0  0  0  0  0  0  0  0  0  0  0
   -6.6527   -0.4691    2.0424 H   0  0  0  0  0  0  0  0  0  0  0  0
   -4.2531   -1.4047    1.8031 H   0  0  0  0  0  0  0  0  0  0  0  0
   -5.2785   -1.2642    0.3246 H   0  0  0  0  0  0  0  0  0  0  0  0
    2.8304    0.6341    2.6332 H   0  0  0  0  0  0  0  0  0  0  0  0
    3.6801   -0.8874    2.0554 H   0  0  0  0  0  0  0  0  0  0  0  0
    4.5244    2.0468    1.8904 H   0  0  0  0  0  0  0  0  0  0  0  0
    5.2878    0.6857    2.7106 H   0  0  0  0  0  0  0  0  0  0  0  0
    6.3914   -0.1429    0.9284 H   0  0  0  0  0  0  0  0  0  0  0  0
    5.9009    2.2426   -0.4420 H   0  0  0  0  0  0  0  0  0  0  0  0
    5.6651   -0.4871   -1.1782 H   0  0  0  0  0  0  0  0  0  0  0  0
    4.7462    1.0201   -1.3310 H   0  0  0  0  0  0  0  0  0  0  0  0
    3.9940   -1.5285    0.2170 H   0  0  0  0  0  0  0  0  0  0  0  0
    3.8417   -1.8565   -2.0991 H   0  0  0  0  0  0  0  0  0  0  0  0
    3.0217   -0.3235   -2.4406 H   0  0  0  0  0  0  0  0  0  0  0  0
    2.0613   -2.7446   -0.8278 H   0  0  0  0  0  0  0  0  0  0  0  0
    1.4912   -2.1743   -2.4756 H   0  0  0  0  0  0  0  0  0  0  0  0
    1.0426    0.0702   -1.3847 H   0  0  0  0  0  0  0  0  0  0  0  0
    1.7850   -1.6278    0.9377 H   0  0  0  0  0  0  0  0  0  0  0  0
    0.0435   -0.9271    2.1427 H   0  0  0  0  0  0  0  0  0  0  0  0
    0.8405    0.6343    2.2667 H   0  0  0  0  0  0  0  0  0  0  0  0
   -0.4941    1.6676    0.7858 H   0  0  0  0  0  0  0  0  0  0  0  0
   -1.5287    0.5791    1.7190 H   0  0  0  0  0  0  0  0  0  0  0  0
   -0.5950   -1.8184    0.3798 H   0  0  0  0  0  0  0  0  0  0  0  0
   -0.9956   -3.0728   -1.6540 H   0  0  0  0  0  0  0  0  0  0  0  0
   -1.2004   -1.5989   -2.6262 H   0  0  0  0  0  0  0  0  0  0  0  0
   -3.4241   -2.0420   -1.7206 H   0  0  0  0  0  0  0  0  0  0  0  0
   -2.6281   -2.5066   -0.1080 H   0  0  0  0  0  0  0  0  0  0  0  0
   -3.1008    0.1647   -1.3854 H   0  0  0  0  0  0  0  0  0  0  0  0
   -1.7986    1.6534   -1.6989 H   0  0  0  0  0  0  0  0  0  0  0  0
   -0.1107    1.7238   -1.1860 H   0  0  0  0  0  0  0  0  0  0  0  0
   -0.5999    0.5381   -2.4417 H   0  0  0  0  0  0  0  0  0  0  0  0
    2.2783    1.6753   -1.0339 H   0  0  0  0  0  0  0  0  0  0  0  0
    1.8645    2.0817    0.6606 H   0  0  0  0  0  0  0  0  0  0  0  0
    3.5661    2.1056    0.0972 H   0  0  0  0  0  0  0  0  0  0  0  0
   -3.2556   -0.7070    1.5742 H   0  0  0  0  0  0  0  0  0  0  0  0
   -3.6793    1.5681    1.9954 H   0  0  0  0  0  0  0  0  0  0  0  0
   -2.9455    1.8889    0.3713 H   0  0  0  0  0  0  0  0  0  0  0  0
   -5.0224    1.6175   -0.6541 H   0  0  0  0  0  0  0  0  0  0  0  0
   -7.0346    1.2966    0.2899 H   0  0  0  0  0  0  0  0  0  0  0  0
   -6.4879    1.9020    1.8636 H   0  0  0  0  0  0  0  0  0  0  0  0
   -5.5605   -0.2565    2.3857 H   0  0  0  0  0  0  0  0  0  0  0  0
   -6.8833   -0.7296    1.2895 H   0  0  0  0  0  0  0  0  0  0  0  0
   -5.3095   -0.3901   -0.6653 H   0  0  0  0  0  0  0  0  0  0  0  0
   -4.9766   -1.8127    0.4549 H   0  0  0  0  0  0  0  0  0  0  0  0
    3.2359    1.0977    2.3579 H   0  0  0  0  0  0  0  0  0  0  0  0
    3.2976   -0.6539    2.0744 H   0  0  0  0  0  0  0  0  0  0  0  0
    5.4887    0.2745    2.6451 H   0  0  0  0  0  0  0  0  0  0  0  0
    5.3696    1.5081    1.3763 H   0  0  0  0  0  0  0  0  0  0  0  0
    6.3834   -1.2924    1.2283 H   0  0  0  0  0  0  0  0  0  0  0  0
    6.4942    1.1009   -0.1547 H   0  0  0  0  0  0  0  0  0  0  0  0
    5.0877   -1.9356   -0.8019 H   0  0  0  0  0  0  0  0  0  0  0  0
    4.0557   -1.9116    0.6525 H   0  0  0  0  0  0  0  0  0  0  0  0
    4.5918    0.5044   -1.1253 H   0  0  0  0  0  0  0  0  0  0  0  0
    3.7093   -1.5595   -2.3250 H   0  0  0  0  0  0  0  0  0  0  0  0
    2.8500    0.0178   -2.5714 H   0  0  0  0  0  0  0  0  0  0  0  0
    1.9510   -2.0274   -0.5299 H   0  0  0  0  0  0  0  0  0  0  0  0
    1.2801   -1.9394   -2.2073 H   0  0  0  0  0  0  0  0  0  0  0  0
    1.0681    0.5936   -1.6640 H   0  0  0  0  0  0  0  0  0  0  0  0
    1.3903   -0.5597    1.1012 H   0  0  0  0  0  0  0  0  0  0  0  0
    1.1890    1.7471    1.8330 H   0  0  0  0  0  0  0  0  0  0  0  0
    0.8091    2.3161    0.1915 H   0  0  0  0  0  0  0  0  0  0  0  0
   -1.2383    1.9680    1.3775 H   0  0  0  0  0  0  0  0  0  0  0  0
   -0.7612    0.3684    1.9722 H   0  0  0  0  0  0  0  0  0  0  0  0
   -0.3275   -1.4085    0.2215 H   0  0  0  0  0  0  0  0  0  0  0  0
   -0.9277   -2.3059   -1.8413 H   0  0  0  0  0  0  0  0  0  0  0  0
   -1.2449   -0.7149   -2.6317 H   0  0  0  0  0  0  0  0  0  0  0  0
   -3.3174   -0.8128   -1.7497 H   0  0  0  0  0  0  0  0  0  0  0  0
   -2.9348   -2.3281   -0.8197 H   0  0  0  0  0  0  0  0  0  0  0  0
   -1.9799   -1.2970    0.9486 H   0  0  0  0  0  0  0  0  0  0  0  0
   -2.4783    1.0399   -1.8383 H   0  0  0  0  0  0  0  0  0  0  0  0
   -1.7358    2.4186   -0.8414 H   0  0  0  0  0  0  0  0  0  0  0  0
   -0.7635    1.4265   -1.9265 H   0  0  0  0  0  0  0  0  0  0  0  0
    4.2558    2.2317   -0.1722 H   0  0  0  0  0  0  0  0  0  0  0  0
    2.6274    2.4117   -0.8467 H   0  0  0  0  0  0  0  0  0  0  0  0
    2.9257    2.6424    0.9598 H   0  0  0  0  0  0  0  0  0  0  0  0
   -3.3202    0.2904    1.9887 H   0  0  0  0  0  0  0  0  0  0  0  0
   -5.0003    1.5612    1.2325 H   0  0  0  0  0  0  0  0  0  0  0  0
   -3.9522    1.8497   -0.1410 H   0  0  0  0  0  0  0  0  0  0  0  0
   -5.3680    0.3750   -1.4229 H   0  0  0  0  0  0  0  0  0  0  0  0
   -6.7965   -1.1832   -0.3384 H   0  0  0  0  0  0  0  0  0  0  0  0
   -7.4705    0.2473    0.4826 H   0  0  0  0  0  0  0  0  0  0  0  0
   -5.8680    0.0499    2.2909 H   0  0  0  0  0  0  0  0  0  0  0  0
   -6.5249   -1.6290    1.9229 H   0  0  0  0  0  0  0  0  0  0  0  0
   -4.1247   -1.8102    2.0808 H   0  0  0  0  0  0  0  0  0  0  0  0
   -4.5569   -1.9304    0.3476 H   0  0  0  0  0  0  0  0  0  0  0  0
  1  2  1  0
  2  3  1  0
  3  4  1  0
  3  5  1  0
  5  6  1  0
  6  7  1  0
  7  8  1  0
  8  9  1  0
  9 10  1  0
  1 11  1  0
  6 11  1  0
 10 11  1  0
 10 12  1  0
 12 13  1  0
 13 14  1  0
  9 15  1  0
 14 15  1  0
 15 16  1  0
 16 17  1  0
 14 18  1  0
 17 18  1  0
 14 19  1  6
 11 20  1  6
 18 21  1  0
 21 22  1  0
 22 23  1  0
 24 23  1  0
 24 25  1  0
 21 26  1  0
 25 26  1  0
 27 28  1  0
 28 29  1  0
 29 30  1  0
 29 31  1  0
 31 32  1  0
 32 33  1  0
 33 34  1  0
 34 35  1  0
 35 36  1  0
 27 37  1  0
 32 37  1  0
 36 37  1  0
 36 38  1  0
 38 39  1  0
 39 40  1  0
 35 41  1  0
 40 41  1  0
 41 42  1  0
 42 43  1  0
 40 44  1  0
 43 44  1  0
 40 45  1  6
 37 46  1  6
 44 47  1  0
 47 48  1  0
 48 49  1  0
 50 49  1  0
 50 51  1  0
 47 52  1  0
 51 52  1  0
 53 54  1  0
 54 55  1  0
 55 56  1  0
 55 57  1  0
 57 58  1  0
 58 59  1  0
 59 60  1  0
 60 61  1  0
 61 62  1  0
 53 63  1  0
 58 63  1  0
 62 63  1  0
 62 64  1  0
 64 65  1  0
 65 66  1  0
 61 67  1  0
 66 67  1  0
 67 68  1  0
 68 69  1  0
 66 70  1  0
 69 70  1  0
 66 71  1  6
 63 72  1  6
 70 73  1  0
 73 74  1  0
 74 75  1  0
 76 75  1  0
 76 77  1  0
 73 78  1  0
 77 78  1  0
 79 80  1  0
 80 81  1  0
 81 82  1  0
 81 83  1  0
 83 84  1  0
 84 85  1  0
 85 86  1  0
 86 87  1  0
 87 88  1  0
 79 89  1  0
 84 89  1  0
 88 89  1  0
 88 90  1  0
 90 91  1  0
 91 92  1  0
 87 93  1  0
 92 93  1  0
 93 94  1  0
 94 95  1  0
 92 96  1  0
 95 96  1  0
 92 97  1  6
 89 98  1  6
 96 99  1  0
 99100  1  0
100101  1  0
102101  1  0
102103  1  0
 99104  1  0
103104  1  0
  1105  1  0
  1106  1  0
  2107  1  0
  2108  1  0
  3109  1  1
  4110  1  0
  5111  1  0
  5112  1  0
  6113  1  0
  7114  1  0
  7115  1  0
  8116  1  0
  8117  1  0
  9118  1  6
 10119  1  1
 12120  1  0
 12121  1  0
 13122  1  0
 13123  1  0
 15124  1  1
 16125  1  0
 16126  1  0
 17127  1  0
 17128  1  0
 18129  1  0
 19130  1  0
 19131  1  0
 19132  1  0
 20133  1  0
 20134  1  0
 20135  1  0
 21136  1  0
 22137  1  0
 22138  1  0
 23139  1  0
 24140  1  0
 24141  1  0
 25142  1  0
 25143  1  0
 26144  1  0
 26145  1  0
 27146  1  0
 27147  1  0
 28148  1  0
 28149  1  0
 29150  1  1
 30151  1  0
 31152  1  0
 31153  1  0
 32154  1  0
 33155  1  0
 33156  1  0
 34157  1  0
 34158  1  0
 35159  1  6
 36160  1  1
 38161  1  0
 38162  1  0
 39163  1  0
 39164  1  0
 41165  1  1
 42166  1  0
 42167  1  0
 43168  1  0
 43169  1  0
 44170  1  0
 45171  1  0
 45172  1  0
 45173  1  0
 46174  1  0
 46175  1  0
 46176  1  0
 47177  1  0
 48178  1  0
 48179  1  0
 49180  1  0
 50181  1  0
 50182  1  0
 51183  1  0
 51184  1  0
 52185  1  0
 52186  1  0
 53187  1  0
 53188  1  0
 54189  1  0
 54190  1  0
 55191  1  1
 56192  1  0
 57193  1  0
 57194  1  0
 58195  1  0
 59196  1  0
 59197  1  0
 60198  1  0
 60199  1  0
 61200  1  6
 62201  1  1
 64202  1  0
 64203  1  0
 65204  1  0
 65205  1  0
 67206  1  1
 68207  1  0
 68208  1  0
 69209  1  0
 69210  1  0
 70211  1  6
 71212  1  0
 71213  1  0
 71214  1  0
 72215  1  0
 72216  1  0
 72217  1  0
 73218  1  1
 74219  1  0
 74220  1  0
 75221  1  0
 76222  1  0
 76223  1  0
 77224  1  0
 77225  1  0
 78226  1  0
 78227  1  0
 79228  1  0
 79229  1  0
 80230  1  0
 80231  1  0
 81232  1  1
 82233  1  0
 83234  1  0
 83235  1  0
 84236  1  6
 85237  1  0
 85238  1  0
 86239  1  0
 86240  1  0
 87241  1  6
 88242  1  1
 90243  1  0
 90244  1  0
 91245  1  0
 91246  1  0
 93247  1  1
 94248  1  0
 94249  1  0
 95250  1  0
 95251  1  0
 96252  1  0
 97253  1  0
 97254  1  0
 97255  1  0
 98256  1  0
 98257  1  0
 98258  1  0
 99259  1  0
100260  1  0
100261  1  0
101262  1  0
102263  1  0
102264  1  0
103265  1  0
103266  1  0
104267  1  0
104268  1  0
M  END
>  <PDBID>  (1) 
3RUK

>  <PDB ID>  (1) 
3RUK

>  <Generic Name>  (1) 
Abiraterone

>  <Brand Name>  (1) 
Zytiga

>  <DrugBank ID>  (1) 
DB05812

>  <ATC Codes>  (1) 
L02BX03

>  <Ligand ID>  (1) 
AER

>  <Target Name>  (1) 
Steroid 17-alpha-hydroxylase/17,20 lyase

>  <UniProt ID>  (1) 
P05093

>  <PDB ID.1>  (1) 
3RUK

>  <Seq. Identity>  (1) 
97%

$$$$
