PDB_DB06228_09
     RDKit          3D

 63 66  0  0  0  0  0  0  0  0999 V2000
   -5.6003    0.3738   -1.2570 C   0  0  0  0  0  0  0  0  0  0  0  0
   -4.6227   -0.0009   -0.2819 N   0  0  0  0  0  0  0  0  0  0  0  0
   -7.0289    0.1415   -0.7647 C   0  0  0  0  0  0  0  0  0  0  0  0
   -5.1513   -1.1107    0.4926 C   0  0  0  0  0  0  0  0  0  0  0  0
   -7.2733   -1.2106   -0.5095 O   0  0  0  0  0  0  0  0  0  0  0  0
   -6.1202   -1.9429   -0.3249 C   0  0  0  0  0  0  0  0  0  0  0  0
   -1.3494    1.1556    0.2130 C   0  0  0  0  0  0  0  0  0  0  0  0
   -2.2943    1.7981   -0.7744 C   0  0  0  0  0  0  0  0  0  0  0  0
   -1.9986   -0.1068    0.7168 C   0  0  0  0  0  0  0  0  0  0  0  0
   -3.5477    2.2012    0.0094 C   0  0  0  0  0  0  0  0  0  0  0  0
   -3.1968    0.3676    1.5620 C   0  0  0  0  0  0  0  0  0  0  0  0
   -4.2253    1.0117    0.6409 C   0  0  0  0  0  0  0  0  0  0  0  0
   -5.8766   -0.5431    1.5430 O   0  0  0  0  0  0  0  0  0  0  0  0
   -0.0324    0.9763   -0.2826 N   0  0  0  0  0  0  0  0  0  0  0  0
    0.1477    0.1222   -1.3871 C   0  0  0  0  0  0  0  0  0  0  0  0
    0.9567    0.6553    0.6594 C   0  0  0  0  0  0  0  0  0  0  0  0
    0.7548   -1.0227   -0.8850 O   0  0  0  0  0  0  0  0  0  0  0  0
    1.5466   -0.6417    0.1950 C   0  0  1  0  0  0  0  0  0  0  0  0
    1.0186    0.7557   -2.3034 O   0  0  0  0  0  0  0  0  0  0  0  0
    2.9450   -0.4185   -0.3534 C   0  0  0  0  0  0  0  0  0  0  0  0
    3.8567   -0.0176    0.7107 N   0  0  0  0  0  0  0  0  0  0  0  0
    5.0938    0.4849    0.1882 C   0  0  0  0  0  0  0  0  0  0  0  0
    7.3729    0.1626   -1.3068 S   0  0  0  0  0  0  0  0  0  0  0  0
    8.5282   -0.4630   -0.0594 C   0  0  0  0  0  0  0  0  0  0  0  0
    5.8163   -0.5396   -0.6089 C   0  0  0  0  0  0  0  0  0  0  0  0
    7.6413   -1.2415    0.8683 C   0  0  0  0  0  0  0  0  0  0  0  0
    6.3987   -1.6804    0.1638 C   0  0  0  0  0  0  0  0  0  0  0  0
    5.8511    0.8960    1.3102 O   0  0  0  0  0  0  0  0  0  0  0  0
    9.7359   -1.4819   -0.8762 Cl  0  0  0  0  0  0  0  0  0  0  0  0
   -5.4900   -0.3447   -2.1132 H   0  0  0  0  0  0  0  0  0  0  0  0
   -5.5002    1.3728   -1.6676 H   0  0  0  0  0  0  0  0  0  0  0  0
   -7.7005    0.4098   -1.6089 H   0  0  0  0  0  0  0  0  0  0  0  0
   -7.3030    0.7981    0.0624 H   0  0  0  0  0  0  0  0  0  0  0  0
   -4.3555   -1.7856    0.8425 H   0  0  0  0  0  0  0  0  0  0  0  0
   -6.2907   -2.8830    0.2179 H   0  0  0  0  0  0  0  0  0  0  0  0
   -5.6803   -2.2299   -1.3109 H   0  0  0  0  0  0  0  0  0  0  0  0
   -1.3012    1.8652    1.0901 H   0  0  0  0  0  0  0  0  0  0  0  0
   -1.8327    2.7916   -1.0537 H   0  0  0  0  0  0  0  0  0  0  0  0
   -2.5298    1.1934   -1.6501 H   0  0  0  0  0  0  0  0  0  0  0  0
   -2.3658   -0.6852   -0.1514 H   0  0  0  0  0  0  0  0  0  0  0  0
   -1.3785   -0.7053    1.3731 H   0  0  0  0  0  0  0  0  0  0  0  0
   -4.1842    2.8566   -0.5716 H   0  0  0  0  0  0  0  0  0  0  0  0
   -3.1569    2.8211    0.8593 H   0  0  0  0  0  0  0  0  0  0  0  0
   -3.5941   -0.4335    2.1843 H   0  0  0  0  0  0  0  0  0  0  0  0
   -2.8070    1.1606    2.2303 H   0  0  0  0  0  0  0  0  0  0  0  0
   -5.0354    1.3783    1.2829 H   0  0  0  0  0  0  0  0  0  0  0  0
   -5.9005   -1.1082    2.3396 H   0  0  0  0  0  0  0  0  0  0  0  0
   -0.7949   -0.1820   -1.8930 H   0  0  0  0  0  0  0  0  0  0  0  0
    1.7691    1.4391    0.5800 H   0  0  0  0  0  0  0  0  0  0  0  0
    0.6563    0.6931    1.7156 H   0  0  0  0  0  0  0  0  0  0  0  0
    1.5023   -1.4681    0.9331 H   0  0  0  0  0  0  0  0  0  0  0  0
    1.1840    1.6988   -2.0639 H   0  0  0  0  0  0  0  0  0  0  0  0
    2.9660    0.3121   -1.1571 H   0  0  0  0  0  0  0  0  0  0  0  0
    3.2888   -1.4019   -0.7827 H   0  0  0  0  0  0  0  0  0  0  0  0
    4.0189   -0.8512    1.3089 H   0  0  0  0  0  0  0  0  0  0  0  0
    4.9587    1.3890   -0.4528 H   0  0  0  0  0  0  0  0  0  0  0  0
    9.0283    0.3693    0.4938 H   0  0  0  0  0  0  0  0  0  0  0  0
    5.2340   -0.8640   -1.4984 H   0  0  0  0  0  0  0  0  0  0  0  0
    7.4761   -0.6643    1.7822 H   0  0  0  0  0  0  0  0  0  0  0  0
    8.2154   -2.1839    1.0851 H   0  0  0  0  0  0  0  0  0  0  0  0
    5.6714   -1.9734    0.9542 H   0  0  0  0  0  0  0  0  0  0  0  0
    6.6438   -2.5296   -0.5272 H   0  0  0  0  0  0  0  0  0  0  0  0
    5.2419    1.0642    2.0604 H   0  0  0  0  0  0  0  0  0  0  0  0
  1  2  1  0
  1  3  1  0
  2  4  1  0
  3  5  1  0
  4  6  1  0
  5  6  1  0
  7  8  1  0
  7  9  1  0
  8 10  1  0
  9 11  1  0
  2 12  1  0
 10 12  1  0
 11 12  1  0
  4 13  1  0
  7 14  1  0
 14 15  1  0
 14 16  1  0
 15 17  1  0
 16 18  1  0
 17 18  1  0
 15 19  1  0
 18 20  1  0
 20 21  1  0
 21 22  1  0
 23 24  1  0
 22 25  1  0
 23 25  1  0
 24 26  1  0
 25 27  1  0
 26 27  1  0
 22 28  1  0
 24 29  1  0
  1 30  1  0
  1 31  1  0
  3 32  1  0
  3 33  1  0
  4 34  1  0
  6 35  1  0
  6 36  1  0
  7 37  1  0
  8 38  1  0
  8 39  1  0
  9 40  1  0
  9 41  1  0
 10 42  1  0
 10 43  1  0
 11 44  1  0
 11 45  1  0
 12 46  1  0
 13 47  1  0
 15 48  1  0
 16 49  1  0
 16 50  1  0
 18 51  1  1
 19 52  1  0
 20 53  1  0
 20 54  1  0
 21 55  1  0
 22 56  1  0
 24 57  1  0
 25 58  1  0
 26 59  1  0
 26 60  1  0
 27 61  1  0
 27 62  1  0
 28 63  1  0
M  END
>  <PDBID>  (1) 
2W26

>  <PDB ID>  (1) 
2W26

>  <Generic Name>  (1) 
Rivaroxaban

>  <Brand Name>  (1) 
Xarelto

>  <DrugBank ID>  (1) 
DB06228

>  <ATC Codes>  (1) 
B01AF01

>  <Ligand ID>  (1) 
RIV

>  <Target Name>  (1) 
Coagulation factor X

>  <UniProt ID>  (1) 
P00742

>  <PDB ID.1>  (1) 
2W26

>  <Seq. Identity>  (1) 
100%

$$$$
