PDB_DB00234_06
     RDKit          3D

 58 60  0  0  0  0  0  0  0  0999 V2000
    3.3068   -2.7035   -1.3243 C   0  0  0  0  0  0  0  0  0  0  0  0
    2.4766   -1.5988   -1.8662 C   0  0  0  0  0  0  0  0  0  0  0  0
    2.6838   -0.3557   -1.3676 O   0  0  0  0  0  0  0  0  0  0  0  0
    2.5053   -0.1303   -0.0554 C   0  0  0  0  0  0  0  0  0  0  0  0
    3.7517    0.5371    0.5063 C   0  0  0  0  0  0  0  0  0  0  0  0
    4.2058    1.5405   -0.5390 C   0  0  0  0  0  0  0  0  0  0  0  0
    3.0721    2.1905   -1.2551 C   0  0  0  0  0  0  0  0  0  0  0  0
    1.7892    2.2279   -0.4806 C   0  0  0  0  0  0  0  0  0  0  0  0
    1.4034    0.9038    0.1152 C   0  0  0  0  0  0  0  0  0  0  0  0
    0.2037    0.5145   -0.4169 O   0  0  0  0  0  0  0  0  0  0  0  0
   -0.7942    0.3645    0.5951 C   0  0  2  0  0  0  0  0  0  0  0  0
   -1.1204   -1.0894    0.5278 C   0  0  0  0  0  0  0  0  0  0  0  0
   -2.1391   -1.6285    1.4685 C   0  0  0  0  0  0  0  0  0  0  0  0
   -1.7885   -3.1386    1.6023 C   0  0  0  0  0  0  0  0  0  0  0  0
   -2.0996   -3.7418    0.2489 C   0  0  0  0  0  0  0  0  0  0  0  0
   -1.3411   -3.0729   -0.8483 C   0  0  0  0  0  0  0  0  0  0  0  0
   -1.5260   -1.5601   -0.8617 C   0  0  0  0  0  0  0  0  0  0  0  0
   -1.9182    1.3193    0.3120 C   0  0  2  0  0  0  0  0  0  0  0  0
   -1.3917    2.6363    0.2234 O   0  0  0  0  0  0  0  0  0  0  0  0
   -2.3355    3.4816   -0.2918 C   0  0  0  0  0  0  0  0  0  0  0  0
   -3.3312    3.7303    0.8543 C   0  0  0  0  0  0  0  0  0  0  0  0
   -3.8991    2.4583    1.1576 N   0  0  0  0  0  0  0  0  0  0  0  0
   -2.9419    1.4008    1.4179 C   0  0  0  0  0  0  0  0  0  0  0  0
    3.5122   -2.6674   -0.2516 H   0  0  0  0  0  0  0  0  0  0  0  0
    2.8160   -3.6794   -1.5284 H   0  0  0  0  0  0  0  0  0  0  0  0
    4.3012   -2.7568   -1.8375 H   0  0  0  0  0  0  0  0  0  0  0  0
    2.6208   -1.5617   -2.9679 H   0  0  0  0  0  0  0  0  0  0  0  0
    1.4043   -1.8683   -1.7167 H   0  0  0  0  0  0  0  0  0  0  0  0
    2.1907   -0.9980    0.5539 H   0  0  0  0  0  0  0  0  0  0  0  0
    3.4860    1.1451    1.4151 H   0  0  0  0  0  0  0  0  0  0  0  0
    4.5627   -0.1560    0.7071 H   0  0  0  0  0  0  0  0  0  0  0  0
    4.9175    2.2810   -0.0772 H   0  0  0  0  0  0  0  0  0  0  0  0
    4.8183    0.9994   -1.3189 H   0  0  0  0  0  0  0  0  0  0  0  0
    2.8864    1.7882   -2.2760 H   0  0  0  0  0  0  0  0  0  0  0  0
    3.3686    3.2671   -1.4279 H   0  0  0  0  0  0  0  0  0  0  0  0
    1.9194    2.9632    0.3408 H   0  0  0  0  0  0  0  0  0  0  0  0
    0.9994    2.5997   -1.1975 H   0  0  0  0  0  0  0  0  0  0  0  0
    1.2635    0.9990    1.2308 H   0  0  0  0  0  0  0  0  0  0  0  0
   -0.3717    0.5968    1.5829 H   0  0  0  0  0  0  0  0  0  0  0  0
   -0.1690   -1.6981    0.7308 H   0  0  0  0  0  0  0  0  0  0  0  0
   -2.1838   -1.1749    2.4608 H   0  0  0  0  0  0  0  0  0  0  0  0
   -3.1547   -1.6869    0.9649 H   0  0  0  0  0  0  0  0  0  0  0  0
   -2.3609   -3.6132    2.3946 H   0  0  0  0  0  0  0  0  0  0  0  0
   -0.6907   -3.1879    1.7442 H   0  0  0  0  0  0  0  0  0  0  0  0
   -3.2009   -3.6676    0.0921 H   0  0  0  0  0  0  0  0  0  0  0  0
   -1.8448   -4.8095    0.2397 H   0  0  0  0  0  0  0  0  0  0  0  0
   -1.6292   -3.4869   -1.8240 H   0  0  0  0  0  0  0  0  0  0  0  0
   -0.2558   -3.2617   -0.6861 H   0  0  0  0  0  0  0  0  0  0  0  0
   -2.6141   -1.3909   -1.0441 H   0  0  0  0  0  0  0  0  0  0  0  0
   -0.8884   -1.1630   -1.6544 H   0  0  0  0  0  0  0  0  0  0  0  0
   -2.4498    1.1530   -0.6355 H   0  0  0  0  0  0  0  0  0  0  0  0
   -1.8230    4.4413   -0.5589 H   0  0  0  0  0  0  0  0  0  0  0  0
   -2.8541    3.1120   -1.1767 H   0  0  0  0  0  0  0  0  0  0  0  0
   -2.7398    4.1702    1.6670 H   0  0  0  0  0  0  0  0  0  0  0  0
   -4.0970    4.3877    0.4462 H   0  0  0  0  0  0  0  0  0  0  0  0
   -4.4906    2.5526    2.0161 H   0  0  0  0  0  0  0  0  0  0  0  0
   -2.4804    1.6080    2.4046 H   0  0  0  0  0  0  0  0  0  0  0  0
   -3.5399    0.4778    1.4652 H   0  0  0  0  0  0  0  0  0  0  0  0
  1  2  1  0
  2  3  1  0
  3  4  1  0
  4  5  1  0
  5  6  1  0
  6  7  1  0
  7  8  1  0
  4  9  1  0
  8  9  1  0
  9 10  1  0
 10 11  1  0
 11 12  1  0
 12 13  1  0
 13 14  1  0
 14 15  1  0
 15 16  1  0
 12 17  1  0
 16 17  1  0
 11 18  1  0
 18 19  1  0
 19 20  1  0
 20 21  1  0
 21 22  1  0
 18 23  1  0
 22 23  1  0
  1 24  1  0
  1 25  1  0
  1 26  1  0
  2 27  1  0
  2 28  1  0
  4 29  1  0
  5 30  1  0
  5 31  1  0
  6 32  1  0
  6 33  1  0
  7 34  1  0
  7 35  1  0
  8 36  1  0
  8 37  1  0
  9 38  1  0
 11 39  1  1
 12 40  1  0
 13 41  1  0
 13 42  1  0
 14 43  1  0
 14 44  1  0
 15 45  1  0
 15 46  1  0
 16 47  1  0
 16 48  1  0
 17 49  1  0
 17 50  1  0
 18 51  1  6
 20 52  1  0
 20 53  1  0
 21 54  1  0
 21 55  1  0
 22 56  1  0
 23 57  1  0
 23 58  1  0
M  END
>  <PDBID>  (1) 
4XNX

>  <PDB ID>  (1) 
4XNX

>  <Generic Name>  (1) 
Reboxetine

>  <Brand Name>  (1) 
Davedax#Edronax#Norebox#Prolift#Solvex#Vestra

>  <DrugBank ID>  (1) 
DB00234

>  <ATC Codes>  (1) 
N06AX18

>  <Ligand ID>  (1) 
41X

>  <Target Name>  (1) 
Sodium-dependent noradrenaline transporter

>  <UniProt ID>  (1) 
P23975

>  <PDB ID.1>  (1) 
4XNX

>  <Seq. Identity>  (1) 
58%

$$$$
