PDB_DB00311_09
     RDKit          3D

 36 37  0  0  0  0  0  0  0  0999 V2000
   -4.6611    0.8001   -1.6156 N   0  0  0  0  0  0  0  0  0  0  0  0
   -0.6407   -0.1556    0.4333 C   0  0  2  0  0  0  0  0  0  0  0  0
    0.0020    1.0373   -0.2980 C   0  0  1  0  0  0  0  0  0  0  0  0
    0.9976    0.4665   -1.2406 C   0  0  0  0  0  0  0  0  0  0  0  0
    2.0644   -0.1430   -0.3112 C   0  0  0  0  0  0  0  0  0  0  0  0
    4.2395    0.3876   -0.2987 C   0  0  0  0  0  0  0  0  0  0  0  0
   -3.1557   -1.3791   -1.1429 O   0  0  0  0  0  0  0  0  0  0  0  0
   -4.8376   -0.5263    0.7041 O   0  0  0  0  0  0  0  0  0  0  0  0
   -3.7797   -0.1465   -0.3828 S   0  0  0  0  0  0  0  0  0  0  0  0
   -2.6584    0.9332    0.1674 C   0  0  0  0  0  0  0  0  0  0  0  0
   -1.7329    0.4222    1.1422 N   0  0  0  0  0  0  0  0  0  0  0  0
   -1.5293    1.6118   -1.1250 S   0  0  0  0  0  0  0  0  0  0  0  0
    1.4344   -1.3917    0.2621 C   0  0  0  0  0  0  0  0  0  0  0  0
    0.3445   -0.9020    1.2306 C   0  0  0  0  0  0  0  0  0  0  0  0
    3.2479   -0.3438   -0.9433 O   0  0  0  0  0  0  0  0  0  0  0  0
    4.4331    0.0122    1.1417 C   0  0  0  0  0  0  0  0  0  0  0  0
   -5.2016    1.5189   -1.0492 H   0  0  0  0  0  0  0  0  0  0  0  0
   -3.9075    1.3410   -2.1321 H   0  0  0  0  0  0  0  0  0  0  0  0
   -1.0201   -0.8236   -0.3793 H   0  0  0  0  0  0  0  0  0  0  0  0
    0.3936    1.7797    0.3933 H   0  0  0  0  0  0  0  0  0  0  0  0
    0.5154   -0.3796   -1.7903 H   0  0  0  0  0  0  0  0  0  0  0  0
    1.4407    1.1727   -1.9479 H   0  0  0  0  0  0  0  0  0  0  0  0
    2.2145    0.5463    0.5434 H   0  0  0  0  0  0  0  0  0  0  0  0
    5.1860    0.3041   -0.8705 H   0  0  0  0  0  0  0  0  0  0  0  0
    3.9955    1.4907   -0.3083 H   0  0  0  0  0  0  0  0  0  0  0  0
   -3.7755   -2.1650   -1.2316 H   0  0  0  0  0  0  0  0  0  0  0  0
   -5.7538   -0.6915    0.3900 H   0  0  0  0  0  0  0  0  0  0  0  0
   -3.1402    1.8537    0.6115 H   0  0  0  0  0  0  0  0  0  0  0  0
   -2.2137   -0.3431    1.6727 H   0  0  0  0  0  0  0  0  0  0  0  0
    0.9634   -2.0194   -0.5218 H   0  0  0  0  0  0  0  0  0  0  0  0
    2.1809   -2.0056    0.7686 H   0  0  0  0  0  0  0  0  0  0  0  0
   -0.1254   -1.7630    1.7024 H   0  0  0  0  0  0  0  0  0  0  0  0
    0.8863   -0.2553    1.9623 H   0  0  0  0  0  0  0  0  0  0  0  0
    3.7836    0.5690    1.8430 H   0  0  0  0  0  0  0  0  0  0  0  0
    4.3224   -1.0778    1.3197 H   0  0  0  0  0  0  0  0  0  0  0  0
    5.4876    0.2648    1.4017 H   0  0  0  0  0  0  0  0  0  0  0  0
  2  3  1  0
  3  4  1  0
  4  5  1  0
  1  9  1  0
  9  7  1  0
  8  9  1  0
  9 10  1  0
  2 11  1  0
 10 11  1  0
  3 12  1  0
 10 12  1  0
  5 13  1  0
  2 14  1  0
 13 14  1  0
  5 15  1  0
  6 15  1  0
  6 16  1  0
  1 17  1  0
  1 18  1  0
  2 19  1  6
  3 20  1  1
  4 21  1  0
  4 22  1  0
  5 23  1  0
  6 24  1  0
  6 25  1  0
  7 26  1  0
  8 27  1  0
 10 28  1  0
 11 29  1  0
 13 30  1  0
 13 31  1  0
 14 32  1  0
 14 33  1  0
 16 34  1  0
 16 35  1  0
 16 36  1  0
M  END
>  <PDBID>  (1) 
3DD0

>  <PDB ID>  (1) 
3DD0

>  <Generic Name>  (1) 
Ethoxzolamide

>  <Brand Name>  (1) 
Cardrase#Ethamide

>  <DrugBank ID>  (1) 
DB00311

>  <ATC Codes>  (1) 
nan

>  <Ligand ID>  (1) 
EZL

>  <Target Name>  (1) 
Carbonic anhydrase 1

>  <UniProt ID>  (1) 
P00915

>  <PDB ID.1>  (1) 
3DD0

>  <Seq. Identity>  (1) 
61%

$$$$
