PDB_DB00624_01
     RDKit          3D

 53 56  0  0  0  0  0  0  0  0999 V2000
   -2.4224    0.0281    1.4158 C   0  0  0  0  0  0  0  0  0  0  0  0
   -3.9167   -0.1382    1.2177 C   0  0  0  0  0  0  0  0  0  0  0  0
   -4.3926    0.6471    0.0250 C   0  0  0  0  0  0  0  0  0  0  0  0
   -4.0182    1.9794    0.1266 O   0  0  0  0  0  0  0  0  0  0  0  0
   -3.6735    0.0636   -1.1968 C   0  0  0  0  0  0  0  0  0  0  0  0
   -2.2108    0.2873   -0.9919 C   0  0  0  0  0  0  0  0  0  0  0  0
   -1.3991   -0.0027   -2.2422 C   0  0  0  0  0  0  0  0  0  0  0  0
   -0.0194    0.6136   -1.9906 C   0  0  0  0  0  0  0  0  0  0  0  0
    0.6323   -0.1716   -0.8595 C   0  0  2  0  0  0  0  0  0  0  0  0
   -0.2309   -0.0435    0.3909 C   0  0  1  0  0  0  0  0  0  0  0  0
   -1.6397   -0.4360    0.1952 C   0  0  1  0  0  0  0  0  0  0  0  0
    0.4673   -0.7864    1.4992 C   0  0  0  0  0  0  0  0  0  0  0  0
    1.7914   -0.1250    1.8385 C   0  0  0  0  0  0  0  0  0  0  0  0
    2.6469   -0.1292    0.6328 C   0  0  1  0  0  0  0  0  0  0  0  0
    1.8950    0.5224   -0.4981 C   0  0  1  0  0  0  0  0  0  0  0  0
    2.9115    0.6781   -1.5448 C   0  0  0  0  0  0  0  0  0  0  0  0
    4.1267    1.1578   -0.7481 C   0  0  0  0  0  0  0  0  0  0  0  0
    3.8356    0.8121    0.7045 C   0  0  2  0  0  0  0  0  0  0  0  0
    4.9306    0.2489    1.3145 O   0  0  0  0  0  0  0  0  0  0  0  0
    3.1677   -1.4909    0.3061 C   0  0  0  0  0  0  0  0  0  0  0  0
   -1.8367   -1.9322    0.1000 C   0  0  0  0  0  0  0  0  0  0  0  0
   -2.1641   -0.5521    2.3237 H   0  0  0  0  0  0  0  0  0  0  0  0
   -2.2423    1.1194    1.5849 H   0  0  0  0  0  0  0  0  0  0  0  0
   -4.3974    0.1813    2.1558 H   0  0  0  0  0  0  0  0  0  0  0  0
   -4.1304   -1.2175    1.0252 H   0  0  0  0  0  0  0  0  0  0  0  0
   -5.4787    0.5057   -0.0625 H   0  0  0  0  0  0  0  0  0  0  0  0
   -4.4752    2.4784   -0.5979 H   0  0  0  0  0  0  0  0  0  0  0  0
   -3.9976    0.6728   -2.0523 H   0  0  0  0  0  0  0  0  0  0  0  0
   -3.9731   -0.9711   -1.3524 H   0  0  0  0  0  0  0  0  0  0  0  0
   -2.0718    1.3821   -0.7924 H   0  0  0  0  0  0  0  0  0  0  0  0
   -1.3144   -1.0855   -2.4084 H   0  0  0  0  0  0  0  0  0  0  0  0
   -1.8653    0.5411   -3.0892 H   0  0  0  0  0  0  0  0  0  0  0  0
   -0.1767    1.6459   -1.5977 H   0  0  0  0  0  0  0  0  0  0  0  0
    0.6070    0.6171   -2.8796 H   0  0  0  0  0  0  0  0  0  0  0  0
    0.7652   -1.2302   -1.1379 H   0  0  0  0  0  0  0  0  0  0  0  0
   -0.1981    1.0388    0.6632 H   0  0  0  0  0  0  0  0  0  0  0  0
   -0.1487   -0.8402    2.4243 H   0  0  0  0  0  0  0  0  0  0  0  0
    0.6268   -1.8237    1.1725 H   0  0  0  0  0  0  0  0  0  0  0  0
    2.2778   -0.7593    2.6187 H   0  0  0  0  0  0  0  0  0  0  0  0
    1.5998    0.8636    2.2588 H   0  0  0  0  0  0  0  0  0  0  0  0
    1.6122    1.5493   -0.1241 H   0  0  0  0  0  0  0  0  0  0  0  0
    2.5740    1.4837   -2.2601 H   0  0  0  0  0  0  0  0  0  0  0  0
    3.1307   -0.1949   -2.1533 H   0  0  0  0  0  0  0  0  0  0  0  0
    4.1306    2.2652   -0.8286 H   0  0  0  0  0  0  0  0  0  0  0  0
    5.0539    0.6900   -1.1093 H   0  0  0  0  0  0  0  0  0  0  0  0
    3.4667    1.7185    1.2579 H   0  0  0  0  0  0  0  0  0  0  0  0
    5.7332    0.7642    1.0088 H   0  0  0  0  0  0  0  0  0  0  0  0
    3.9719   -1.7207    1.0664 H   0  0  0  0  0  0  0  0  0  0  0  0
    2.4442   -2.3017    0.3812 H   0  0  0  0  0  0  0  0  0  0  0  0
    3.6601   -1.5569   -0.6702 H   0  0  0  0  0  0  0  0  0  0  0  0
   -0.8743   -2.4542   -0.0555 H   0  0  0  0  0  0  0  0  0  0  0  0
   -2.4965   -2.2327   -0.7310 H   0  0  0  0  0  0  0  0  0  0  0  0
   -2.2942   -2.3590    1.0251 H   0  0  0  0  0  0  0  0  0  0  0  0
  1  2  1  0
  2  3  1  0
  3  4  1  0
  3  5  1  0
  5  6  1  0
  6  7  1  0
  7  8  1  0
  8  9  1  0
  9 10  1  0
  1 11  1  0
  6 11  1  0
 10 11  1  0
 10 12  1  0
 12 13  1  0
 13 14  1  0
  9 15  1  0
 14 15  1  0
 15 16  1  0
 16 17  1  0
 14 18  1  0
 17 18  1  0
 18 19  1  0
 14 20  1  6
 11 21  1  6
  1 22  1  0
  1 23  1  0
  2 24  1  0
  2 25  1  0
  3 26  1  0
  4 27  1  0
  5 28  1  0
  5 29  1  0
  6 30  1  0
  7 31  1  0
  7 32  1  0
  8 33  1  0
  8 34  1  0
  9 35  1  6
 10 36  1  1
 12 37  1  0
 12 38  1  0
 13 39  1  0
 13 40  1  0
 15 41  1  1
 16 42  1  0
 16 43  1  0
 17 44  1  0
 17 45  1  0
 18 46  1  1
 19 47  1  0
 20 48  1  0
 20 49  1  0
 20 50  1  0
 21 51  1  0
 21 52  1  0
 21 53  1  0
M  END
>  <PDBID>  (1) 
2AM9

>  <PDB ID>  (1) 
2AM9

>  <Generic Name>  (1) 
Testosterone

>  <Brand Name>  (1) 
Andriol#Androderm#Androgel#Aveed#Axiron#Delatestryl#Depo-testosterone#Depo-testosterone Inj 100mg/ml#Fortesta#Malogen Aqueous 100 Sus 100mg/ml#Malogex La200 Liq 200mg/ml#Natesto#Neo Pause Injection#PMS-testosterone#PMS-testosterone Enanthate Inj 200mg/ml USP#Scheinpharm Testone-cyp Inject.- Im 100mg/ml#Striant#Taro-testosterone#Testim#Testim 1%#Testopel#Testosterone#Testosterone Cypionate#Testosterone Cypionate Injection USP#Testosterone Cypionate Injection, USP#Testosterone Enanthate#Testosterone Enanthate Inj 200mg/ml#Vogelxo#Andronate 100#Andronate 200#Andropatch#Andropository 200#Andryl 200#Bio-T-Gel#Fortigel#Intrinsa#Livensa#Nebido#Sustanon#Testamone 100#Testaqua IM#Testoderm#Testoderm TTS#Testogel#Testolin#Testopatch#Testopel Pellets#Testrin-P.A#Testro AQ#Tostrelle#Tostrex#Virormone

>  <DrugBank ID>  (1) 
DB00624

>  <ATC Codes>  (1) 
G03EA02#G03BA03

>  <Ligand ID>  (1) 
TES

>  <Target Name>  (1) 
Androgen receptor

>  <UniProt ID>  (1) 
P10275

>  <PDB ID.1>  (1) 
2AM9

>  <Seq. Identity>  (1) 
100%

$$$$
