PDB_DB08865_01
     RDKit          3D

 68 71  0  0  0  0  0  0  0  0999 V2000
   -6.6369    0.0756   -0.8368 Cl  0  0  0  0  0  0  0  0  0  0  0  0
   -5.2847    1.0729   -0.3931 C   0  0  0  0  0  0  0  0  0  0  0  0
   -5.2983    1.3947    1.0877 C   0  0  0  0  0  0  0  0  0  0  0  0
   -4.3400    2.5216    1.3264 C   0  0  0  0  0  0  0  0  0  0  0  0
   -2.9792    2.2729    0.7573 C   0  0  0  0  0  0  0  0  0  0  0  0
   -2.2307    1.5225    1.6358 F   0  0  0  0  0  0  0  0  0  0  0  0
   -3.9317    0.6063   -0.8454 C   0  0  0  0  0  0  0  0  0  0  0  0
   -2.9723    1.7553   -0.6441 C   0  0  0  0  0  0  0  0  0  0  0  0
   -3.6010    3.0939   -1.6744 Cl  0  0  0  0  0  0  0  0  0  0  0  0
   -3.5156   -0.6814   -0.2445 C   0  0  1  0  0  0  0  0  0  0  0  0
   -4.5354   -1.7517   -0.6621 C   0  0  0  0  0  0  0  0  0  0  0  0
   -2.2886   -1.1673   -0.6058 O   0  0  0  0  0  0  0  0  0  0  0  0
   -1.4295   -1.4347    0.4610 C   0  0  0  0  0  0  0  0  0  0  0  0
   -0.1050   -0.7724    0.3489 C   0  0  0  0  0  0  0  0  0  0  0  0
   -1.3235   -2.9490    0.5342 C   0  0  0  0  0  0  0  0  0  0  0  0
   -0.4081   -3.2709    1.6325 N   0  0  0  0  0  0  0  0  0  0  0  0
   -0.7227   -3.3407   -0.7124 N   0  0  0  0  0  0  0  0  0  0  0  0
    0.6903   -2.9813   -0.5965 C   0  0  0  0  0  0  0  0  0  0  0  0
    0.9582   -1.5507   -0.3586 C   0  0  0  0  0  0  0  0  0  0  0  0
    1.3563   -0.7506   -1.5859 C   0  0  0  0  0  0  0  0  0  0  0  0
    2.4195   -1.3684   -2.4197 C   0  0  0  0  0  0  0  0  0  0  0  0
    2.1710    0.4399   -1.0205 C   0  0  0  0  0  0  0  0  0  0  0  0
    3.3355   -0.2848   -0.6381 N   0  0  0  0  0  0  0  0  0  0  0  0
    3.6099   -1.2240   -1.6070 N   0  0  0  0  0  0  0  0  0  0  0  0
    4.4014    0.3916   -0.0400 C   0  0  0  0  0  0  0  0  0  0  0  0
    3.8921    0.9709    1.2886 C   0  0  0  0  0  0  0  0  0  0  0  0
    5.1192    1.3474    2.0767 C   0  0  0  0  0  0  0  0  0  0  0  0
    5.8828    2.3385    1.3649 N   0  0  0  0  0  0  0  0  0  0  0  0
    5.2639    2.7375    0.1184 C   0  0  0  0  0  0  0  0  0  0  0  0
    4.9774    1.5575   -0.7925 C   0  0  0  0  0  0  0  0  0  0  0  0
   -5.4317    2.0784   -0.8969 H   0  0  0  0  0  0  0  0  0  0  0  0
   -5.0768    0.5035    1.6878 H   0  0  0  0  0  0  0  0  0  0  0  0
   -6.3218    1.7732    1.3224 H   0  0  0  0  0  0  0  0  0  0  0  0
   -4.7691    3.4392    0.8910 H   0  0  0  0  0  0  0  0  0  0  0  0
   -4.2313    2.6676    2.4217 H   0  0  0  0  0  0  0  0  0  0  0  0
   -2.4681    3.2809    0.7228 H   0  0  0  0  0  0  0  0  0  0  0  0
   -4.0043    0.4549   -1.9586 H   0  0  0  0  0  0  0  0  0  0  0  0
   -1.9657    1.5697   -0.9837 H   0  0  0  0  0  0  0  0  0  0  0  0
   -3.5305   -0.5803    0.8728 H   0  0  0  0  0  0  0  0  0  0  0  0
   -4.9442   -1.5645   -1.6733 H   0  0  0  0  0  0  0  0  0  0  0  0
   -5.3406   -1.8855    0.0542 H   0  0  0  0  0  0  0  0  0  0  0  0
   -4.0314   -2.7532   -0.7547 H   0  0  0  0  0  0  0  0  0  0  0  0
   -1.9927   -1.1529    1.3829 H   0  0  0  0  0  0  0  0  0  0  0  0
   -0.2593    0.2281   -0.0976 H   0  0  0  0  0  0  0  0  0  0  0  0
    0.2081   -0.5336    1.4122 H   0  0  0  0  0  0  0  0  0  0  0  0
   -2.3026   -3.3559    0.7503 H   0  0  0  0  0  0  0  0  0  0  0  0
   -0.6252   -4.1748    2.0699 H   0  0  0  0  0  0  0  0  0  0  0  0
   -0.3856   -2.4890    2.3277 H   0  0  0  0  0  0  0  0  0  0  0  0
   -1.1014   -2.8622   -1.5451 H   0  0  0  0  0  0  0  0  0  0  0  0
    1.0429   -3.5992    0.2846 H   0  0  0  0  0  0  0  0  0  0  0  0
    1.1816   -3.4217   -1.4633 H   0  0  0  0  0  0  0  0  0  0  0  0
    1.8803   -1.5213    0.3030 H   0  0  0  0  0  0  0  0  0  0  0  0
    0.4798   -0.3911   -2.1506 H   0  0  0  0  0  0  0  0  0  0  0  0
    2.5703   -0.6874   -3.2921 H   0  0  0  0  0  0  0  0  0  0  0  0
    2.2499   -2.3542   -2.8135 H   0  0  0  0  0  0  0  0  0  0  0  0
    2.3266    1.0979   -1.9084 H   0  0  0  0  0  0  0  0  0  0  0  0
    1.6578    0.9226   -0.1891 H   0  0  0  0  0  0  0  0  0  0  0  0
    3.8266   -2.1436   -1.1853 H   0  0  0  0  0  0  0  0  0  0  0  0
    5.1834   -0.3446    0.2388 H   0  0  0  0  0  0  0  0  0  0  0  0
    3.2968    0.2162    1.8428 H   0  0  0  0  0  0  0  0  0  0  0  0
    3.2612    1.8629    1.1163 H   0  0  0  0  0  0  0  0  0  0  0  0
    5.7513    0.4163    2.1235 H   0  0  0  0  0  0  0  0  0  0  0  0
    4.8850    1.6304    3.1180 H   0  0  0  0  0  0  0  0  0  0  0  0
    5.8746    3.2048    1.9717 H   0  0  0  0  0  0  0  0  0  0  0  0
    4.3627    3.3454    0.2511 H   0  0  0  0  0  0  0  0  0  0  0  0
    6.0162    3.3722   -0.4214 H   0  0  0  0  0  0  0  0  0  0  0  0
    5.9562    1.2394   -1.2080 H   0  0  0  0  0  0  0  0  0  0  0  0
    4.2965    1.9405   -1.5791 H   0  0  0  0  0  0  0  0  0  0  0  0
  1  2  1  0
  2  3  1  0
  3  4  1  0
  4  5  1  0
  5  6  1  0
  2  7  1  0
  5  8  1  0
  7  8  1  0
  8  9  1  0
  7 10  1  0
 10 11  1  0
 10 12  1  0
 12 13  1  0
 13 14  1  0
 13 15  1  0
 15 16  1  0
 15 17  1  0
 17 18  1  0
 14 19  1  0
 18 19  1  0
 19 20  1  0
 20 21  1  0
 20 22  1  0
 22 23  1  0
 21 24  1  0
 23 24  1  0
 23 25  1  0
 25 26  1  0
 26 27  1  0
 27 28  1  0
 28 29  1  0
 25 30  1  0
 29 30  1  0
  2 31  1  0
  3 32  1  0
  3 33  1  0
  4 34  1  0
  4 35  1  0
  5 36  1  0
  7 37  1  0
  8 38  1  0
 10 39  1  1
 11 40  1  0
 11 41  1  0
 11 42  1  0
 13 43  1  0
 14 44  1  0
 14 45  1  0
 15 46  1  0
 16 47  1  0
 16 48  1  0
 17 49  1  0
 18 50  1  0
 18 51  1  0
 19 52  1  0
 20 53  1  0
 21 54  1  0
 21 55  1  0
 22 56  1  0
 22 57  1  0
 24 58  1  0
 25 59  1  0
 26 60  1  0
 26 61  1  0
 27 62  1  0
 27 63  1  0
 28 64  1  0
 29 65  1  0
 29 66  1  0
 30 67  1  0
 30 68  1  0
M  END
>  <PDBID>  (1) 
4ANQ

>  <PDB ID>  (1) 
4ANQ

>  <Generic Name>  (1) 
Crizotinib

>  <Brand Name>  (1) 
Xalkori

>  <DrugBank ID>  (1) 
DB08865

>  <ATC Codes>  (1) 
L01XE16

>  <Ligand ID>  (1) 
VGH

>  <Target Name>  (1) 
ALK tyrosine kinase receptor

>  <UniProt ID>  (1) 
Q9UM73

>  <PDB ID.1>  (1) 
4ANQ

>  <Seq. Identity>  (1) 
100%

$$$$
