PDB_DB06605_08
     RDKit          3D

 81 85  0  0  0  0  0  0  0  0999 V2000
   -6.2008    1.9672   -1.4356 C   0  0  0  0  0  0  0  0  0  0  0  0
   -5.9083    0.9660   -2.4994 C   0  0  0  0  0  0  0  0  0  0  0  0
   -4.7768    0.0791   -2.1518 C   0  0  0  0  0  0  0  0  0  0  0  0
   -7.1545    2.9064   -1.8793 O   0  0  0  0  0  0  0  0  0  0  0  0
   -3.4998   -1.7393   -0.1021 N   0  0  0  0  0  0  0  0  0  0  0  0
    1.6848   -0.9955   -0.1452 C   0  0  0  0  0  0  0  0  0  0  0  0
   -0.6685   -0.6023   -0.4926 C   0  0  0  0  0  0  0  0  0  0  0  0
   -2.7137   -2.0353    1.0902 C   0  0  2  0  0  0  0  0  0  0  0  0
   -3.6521   -2.5855    2.1432 C   0  0  0  0  0  0  0  0  0  0  0  0
   -2.1544   -0.7022    1.4734 C   0  0  0  0  0  0  0  0  0  0  0  0
   -1.9324   -0.0629    0.1292 C   0  0  0  0  0  0  0  0  0  0  0  0
    4.0506   -1.5679    0.1405 C   0  0  0  0  0  0  0  0  0  0  0  0
   -8.2781    2.9712   -1.1021 C   0  0  0  0  0  0  0  0  0  0  0  0
    4.5460   -0.3273   -0.5474 C   0  0  0  0  0  0  0  0  0  0  0  0
    6.8469   -0.7425   -0.0035 C   0  0  0  0  0  0  0  0  0  0  0  0
    6.1457    1.4208   -0.5762 C   0  0  0  0  0  0  0  0  0  0  0  0
    7.2346    2.1642    0.1754 C   0  0  0  0  0  0  0  0  0  0  0  0
    2.1860   -0.0040   -1.1430 C   0  0  0  0  0  0  0  0  0  0  0  0
    0.3328   -0.5759    1.7474 C   0  0  0  0  0  0  0  0  0  0  0  0
   -4.1545    0.3764   -0.7730 C   0  0  0  0  0  0  0  0  0  0  0  0
   -3.8020    1.8250   -0.7874 C   0  0  0  0  0  0  0  0  0  0  0  0
   -4.9631    2.7233   -1.0837 C   0  0  0  0  0  0  0  0  0  0  0  0
   -3.0901   -0.5344   -0.5803 N   0  0  0  0  0  0  0  0  0  0  0  0
    0.4115   -0.6354    0.3636 N   0  0  0  0  0  0  0  0  0  0  0  0
    2.7276   -1.3381    0.8806 C   0  0  0  0  0  0  0  0  0  0  0  0
    5.7488    0.1943    0.0782 N   0  0  0  0  0  0  0  0  0  0  0  0
    3.4744    0.6956   -0.6898 C   0  0  0  0  0  0  0  0  0  0  0  0
   -0.9233   -1.7878   -1.1980 O   0  0  0  0  0  0  0  0  0  0  0  0
    8.3299    1.2087    0.5070 C   0  0  0  0  0  0  0  0  0  0  0  0
    6.9821   -1.3256    1.2731 O   0  0  0  0  0  0  0  0  0  0  0  0
    8.1764   -0.0687   -0.2882 C   0  0  0  0  0  0  0  0  0  0  0  0
   -4.6378   -1.6130    2.4199 O   0  0  0  0  0  0  0  0  0  0  0  0
   -2.9993   -2.8519    3.3964 N   0  0  0  0  0  0  0  0  0  0  0  0
   -1.0055   -0.6925    2.3840 C   0  0  0  0  0  0  0  0  0  0  0  0
   -6.6408    1.5007   -0.5334 H   0  0  0  0  0  0  0  0  0  0  0  0
   -5.6314    1.5702   -3.4207 H   0  0  0  0  0  0  0  0  0  0  0  0
   -6.8529    0.4130   -2.7322 H   0  0  0  0  0  0  0  0  0  0  0  0
   -5.1315   -0.9808   -2.1707 H   0  0  0  0  0  0  0  0  0  0  0  0
   -3.9503    0.1618   -2.8997 H   0  0  0  0  0  0  0  0  0  0  0  0
   -3.4784   -2.5209   -0.7882 H   0  0  0  0  0  0  0  0  0  0  0  0
    1.5437   -1.9677   -0.7296 H   0  0  0  0  0  0  0  0  0  0  0  0
   -0.4355    0.1417   -1.3279 H   0  0  0  0  0  0  0  0  0  0  0  0
   -1.9492   -2.8056    0.9266 H   0  0  0  0  0  0  0  0  0  0  0  0
   -4.1073   -3.5449    1.8187 H   0  0  0  0  0  0  0  0  0  0  0  0
   -3.0237   -0.1370    1.9312 H   0  0  0  0  0  0  0  0  0  0  0  0
   -1.8228    1.0115    0.2163 H   0  0  0  0  0  0  0  0  0  0  0  0
    4.7416   -1.9784    0.9046 H   0  0  0  0  0  0  0  0  0  0  0  0
    3.8464   -2.4151   -0.5606 H   0  0  0  0  0  0  0  0  0  0  0  0
   -8.7485    1.9591   -1.0973 H   0  0  0  0  0  0  0  0  0  0  0  0
   -8.0082    3.3057   -0.0897 H   0  0  0  0  0  0  0  0  0  0  0  0
   -9.0289    3.6996   -1.4857 H   0  0  0  0  0  0  0  0  0  0  0  0
    4.8524   -0.6552   -1.5728 H   0  0  0  0  0  0  0  0  0  0  0  0
    6.7251   -1.5164   -0.7894 H   0  0  0  0  0  0  0  0  0  0  0  0
    5.2790    2.1462   -0.5882 H   0  0  0  0  0  0  0  0  0  0  0  0
    6.4716    1.2351   -1.6301 H   0  0  0  0  0  0  0  0  0  0  0  0
    7.5631    2.9766   -0.5079 H   0  0  0  0  0  0  0  0  0  0  0  0
    6.8076    2.6267    1.0863 H   0  0  0  0  0  0  0  0  0  0  0  0
    1.4462    0.8108   -1.3927 H   0  0  0  0  0  0  0  0  0  0  0  0
    2.4164   -0.4575   -2.1425 H   0  0  0  0  0  0  0  0  0  0  0  0
    1.0211   -1.3464    2.1914 H   0  0  0  0  0  0  0  0  0  0  0  0
    0.7980    0.3945    2.0900 H   0  0  0  0  0  0  0  0  0  0  0  0
   -4.9171    0.1835    0.0132 H   0  0  0  0  0  0  0  0  0  0  0  0
   -3.0306    2.0354   -1.5871 H   0  0  0  0  0  0  0  0  0  0  0  0
   -3.4000    2.1814    0.2089 H   0  0  0  0  0  0  0  0  0  0  0  0
   -5.2376    3.3577   -0.1801 H   0  0  0  0  0  0  0  0  0  0  0  0
   -4.7107    3.4819   -1.8572 H   0  0  0  0  0  0  0  0  0  0  0  0
    2.4928   -2.3676    1.2800 H   0  0  0  0  0  0  0  0  0  0  0  0
    2.9184   -0.5898    1.6411 H   0  0  0  0  0  0  0  0  0  0  0  0
    3.7012    1.3907   -1.5579 H   0  0  0  0  0  0  0  0  0  0  0  0
    3.3081    1.3218    0.1837 H   0  0  0  0  0  0  0  0  0  0  0  0
   -0.3888   -2.5151   -0.8476 H   0  0  0  0  0  0  0  0  0  0  0  0
    8.4274    0.9803    1.5826 H   0  0  0  0  0  0  0  0  0  0  0  0
    9.2985    1.6644    0.1840 H   0  0  0  0  0  0  0  0  0  0  0  0
    6.9133   -0.5768    1.9167 H   0  0  0  0  0  0  0  0  0  0  0  0
    8.9775   -0.7800    0.0729 H   0  0  0  0  0  0  0  0  0  0  0  0
    8.3189    0.0698   -1.3604 H   0  0  0  0  0  0  0  0  0  0  0  0
   -5.5012   -2.0986    2.4834 H   0  0  0  0  0  0  0  0  0  0  0  0
   -2.3543   -3.6575    3.3779 H   0  0  0  0  0  0  0  0  0  0  0  0
   -3.7006   -2.9243    4.1520 H   0  0  0  0  0  0  0  0  0  0  0  0
   -1.0284   -1.6211    3.0038 H   0  0  0  0  0  0  0  0  0  0  0  0
   -1.1526    0.1265    3.1516 H   0  0  0  0  0  0  0  0  0  0  0  0
  1  2  1  0
  2  3  1  0
  1  4  1  0
  5  8  1  0
  8  9  1  0
  8 10  1  0
  7 11  1  0
 10 11  1  0
  4 13  1  0
 12 14  1  0
 16 17  1  0
  6 18  1  0
  3 20  1  0
 20 21  1  0
  1 22  1  0
 21 22  1  0
  5 23  1  0
 11 23  1  0
 20 23  1  0
  6 24  1  0
  7 24  1  0
 19 24  1  0
  6 25  1  0
 12 25  1  0
 14 26  1  0
 15 26  1  0
 16 26  1  0
 14 27  1  0
 18 27  1  0
  7 28  1  0
 17 29  1  0
 15 30  1  0
 15 31  1  0
 29 31  1  0
  9 32  1  0
  9 33  1  0
 10 34  1  0
 19 34  1  0
  1 35  1  0
  2 36  1  0
  2 37  1  0
  3 38  1  0
  3 39  1  0
  5 40  1  0
  6 41  1  0
  7 42  1  0
  8 43  1  6
  9 44  1  0
 10 45  1  0
 11 46  1  0
 12 47  1  0
 12 48  1  0
 13 49  1  0
 13 50  1  0
 13 51  1  0
 14 52  1  0
 15 53  1  0
 16 54  1  0
 16 55  1  0
 17 56  1  0
 17 57  1  0
 18 58  1  0
 18 59  1  0
 19 60  1  0
 19 61  1  0
 20 62  1  0
 21 63  1  0
 21 64  1  0
 22 65  1  0
 22 66  1  0
 25 67  1  0
 25 68  1  0
 27 69  1  0
 27 70  1  0
 28 71  1  0
 29 72  1  0
 29 73  1  0
 30 74  1  0
 31 75  1  0
 31 76  1  0
 32 77  1  0
 33 78  1  0
 33 79  1  0
 34 80  1  0
 34 81  1  0
M  END
>  <PDBID>  (1) 
2P16

>  <PDB ID>  (1) 
2P16

>  <Generic Name>  (1) 
Apixaban

>  <Brand Name>  (1) 
Eliquis

>  <DrugBank ID>  (1) 
DB06605

>  <ATC Codes>  (1) 
B01AF02

>  <Ligand ID>  (1) 
GG2

>  <Target Name>  (1) 
Coagulation factor X

>  <UniProt ID>  (1) 
P00742

>  <PDB ID.1>  (1) 
2P16

>  <Seq. Identity>  (1) 
100%

$$$$
