PDB_DB00159_07
     RDKit          3D

 64 63  0  0  0  0  0  0  0  0999 V2000
    9.0972    0.6113    0.2429 C   0  0  0  0  0  0  0  0  0  0  0  0
    8.9776    1.6825   -0.6042 O   0  0  0  0  0  0  0  0  0  0  0  0
    9.7274   -0.4630   -0.4025 O   0  0  0  0  0  0  0  0  0  0  0  0
    7.8578    0.1952    0.9512 C   0  0  0  0  0  0  0  0  0  0  0  0
    6.7216   -0.2231    0.0896 C   0  0  0  0  0  0  0  0  0  0  0  0
    6.2255    0.8370   -0.8555 C   0  0  0  0  0  0  0  0  0  0  0  0
    5.0679    0.2979   -1.6697 C   0  0  0  0  0  0  0  0  0  0  0  0
    3.8954   -0.1363   -0.8226 C   0  0  0  0  0  0  0  0  0  0  0  0
    3.3452    0.9996   -0.0029 C   0  0  0  0  0  0  0  0  0  0  0  0
    2.1859    0.5233    0.8317 C   0  0  0  0  0  0  0  0  0  0  0  0
    1.0914   -0.0020   -0.0375 C   0  0  0  0  0  0  0  0  0  0  0  0
   -0.1023   -0.4801    0.7879 C   0  0  0  0  0  0  0  0  0  0  0  0
   -1.1274   -0.9818   -0.2058 C   0  0  0  0  0  0  0  0  0  0  0  0
   -2.3744   -1.4883    0.5243 C   0  0  0  0  0  0  0  0  0  0  0  0
   -3.3868   -1.9840   -0.4684 C   0  0  0  0  0  0  0  0  0  0  0  0
   -4.6181   -2.4863    0.2404 C   0  0  0  0  0  0  0  0  0  0  0  0
   -5.2640   -1.3943    1.0619 C   0  0  0  0  0  0  0  0  0  0  0  0
   -5.6477   -0.2732    0.1209 C   0  0  0  0  0  0  0  0  0  0  0  0
   -6.3074    0.8712    0.8587 C   0  0  0  0  0  0  0  0  0  0  0  0
   -6.6517    1.9382   -0.1483 C   0  0  0  0  0  0  0  0  0  0  0  0
   -7.5845    1.4693   -1.2121 C   0  0  0  0  0  0  0  0  0  0  0  0
   -8.9040    0.9823   -0.7049 C   0  0  0  0  0  0  0  0  0  0  0  0
    9.8298    0.9256    1.0443 H   0  0  0  0  0  0  0  0  0  0  0  0
    9.1422    2.5240   -0.1320 H   0  0  0  0  0  0  0  0  0  0  0  0
   10.0161   -1.1015    0.3131 H   0  0  0  0  0  0  0  0  0  0  0  0
    7.5152    1.0515    1.5725 H   0  0  0  0  0  0  0  0  0  0  0  0
    8.1206   -0.6586    1.6156 H   0  0  0  0  0  0  0  0  0  0  0  0
    5.8544   -0.4381    0.7837 H   0  0  0  0  0  0  0  0  0  0  0  0
    6.8942   -1.1977   -0.4249 H   0  0  0  0  0  0  0  0  0  0  0  0
    7.0158    1.0852   -1.6230 H   0  0  0  0  0  0  0  0  0  0  0  0
    5.9643    1.7338   -0.2607 H   0  0  0  0  0  0  0  0  0  0  0  0
    5.4493   -0.6222   -2.1723 H   0  0  0  0  0  0  0  0  0  0  0  0
    4.7656    0.9906   -2.4726 H   0  0  0  0  0  0  0  0  0  0  0  0
    4.1660   -0.9754   -0.1846 H   0  0  0  0  0  0  0  0  0  0  0  0
    3.1380   -0.5297   -1.5429 H   0  0  0  0  0  0  0  0  0  0  0  0
    2.9813    1.8356   -0.6590 H   0  0  0  0  0  0  0  0  0  0  0  0
    4.1754    1.3846    0.6323 H   0  0  0  0  0  0  0  0  0  0  0  0
    1.8344    1.3346    1.5079 H   0  0  0  0  0  0  0  0  0  0  0  0
    2.5713   -0.3244    1.4494 H   0  0  0  0  0  0  0  0  0  0  0  0
    1.4242   -0.9266   -0.5874 H   0  0  0  0  0  0  0  0  0  0  0  0
    0.7149    0.7708   -0.7247 H   0  0  0  0  0  0  0  0  0  0  0  0
    0.1711   -1.3170    1.4551 H   0  0  0  0  0  0  0  0  0  0  0  0
   -0.5255    0.3452    1.3932 H   0  0  0  0  0  0  0  0  0  0  0  0
   -0.7044   -1.8825   -0.7129 H   0  0  0  0  0  0  0  0  0  0  0  0
   -1.3788   -0.2551   -0.9784 H   0  0  0  0  0  0  0  0  0  0  0  0
   -2.1103   -2.3147    1.2131 H   0  0  0  0  0  0  0  0  0  0  0  0
   -2.7290   -0.6466    1.1308 H   0  0  0  0  0  0  0  0  0  0  0  0
   -2.9464   -2.8852   -0.9903 H   0  0  0  0  0  0  0  0  0  0  0  0
   -3.6185   -1.2769   -1.2623 H   0  0  0  0  0  0  0  0  0  0  0  0
   -5.3745   -2.8274   -0.4934 H   0  0  0  0  0  0  0  0  0  0  0  0
   -4.3166   -3.3535    0.8749 H   0  0  0  0  0  0  0  0  0  0  0  0
   -6.2163   -1.8183    1.4488 H   0  0  0  0  0  0  0  0  0  0  0  0
   -4.5759   -1.1012    1.8530 H   0  0  0  0  0  0  0  0  0  0  0  0
   -4.8100    0.1487   -0.4377 H   0  0  0  0  0  0  0  0  0  0  0  0
   -6.3837   -0.6947   -0.5966 H   0  0  0  0  0  0  0  0  0  0  0  0
   -7.1644    0.5061    1.4195 H   0  0  0  0  0  0  0  0  0  0  0  0
   -5.5624    1.2409    1.5925 H   0  0  0  0  0  0  0  0  0  0  0  0
   -5.7383    2.3252   -0.6446 H   0  0  0  0  0  0  0  0  0  0  0  0
   -7.0715    2.7926    0.4198 H   0  0  0  0  0  0  0  0  0  0  0  0
   -7.1439    0.6983   -1.8640 H   0  0  0  0  0  0  0  0  0  0  0  0
   -7.8109    2.3529   -1.8776 H   0  0  0  0  0  0  0  0  0  0  0  0
   -8.8795   -0.0977   -0.4596 H   0  0  0  0  0  0  0  0  0  0  0  0
   -9.6507    1.0996   -1.5173 H   0  0  0  0  0  0  0  0  0  0  0  0
   -9.2571    1.6039    0.1435 H   0  0  0  0  0  0  0  0  0  0  0  0
  1  2  1  0
  1  3  1  0
  1  4  1  0
  4  5  1  0
  5  6  1  0
  6  7  1  0
  7  8  1  0
  8  9  1  0
  9 10  1  0
 10 11  1  0
 11 12  1  0
 12 13  1  0
 13 14  1  0
 14 15  1  0
 15 16  1  0
 16 17  1  0
 17 18  1  0
 18 19  1  0
 19 20  1  0
 20 21  1  0
 21 22  1  0
  1 23  1  0
  2 24  1  0
  3 25  1  0
  4 26  1  0
  4 27  1  0
  5 28  1  0
  5 29  1  0
  6 30  1  0
  6 31  1  0
  7 32  1  0
  7 33  1  0
  8 34  1  0
  8 35  1  0
  9 36  1  0
  9 37  1  0
 10 38  1  0
 10 39  1  0
 11 40  1  0
 11 41  1  0
 12 42  1  0
 12 43  1  0
 13 44  1  0
 13 45  1  0
 14 46  1  0
 14 47  1  0
 15 48  1  0
 15 49  1  0
 16 50  1  0
 16 51  1  0
 17 52  1  0
 17 53  1  0
 18 54  1  0
 18 55  1  0
 19 56  1  0
 19 57  1  0
 20 58  1  0
 20 59  1  0
 21 60  1  0
 21 61  1  0
 22 62  1  0
 22 63  1  0
 22 64  1  0
M  END
>  <PDBID>  (1) 
1IGX

>  <PDB ID>  (1) 
1IGX

>  <Generic Name>  (1) 
Icosapent

>  <Brand Name>  (1) 
Animi-3#Animi-3 With Vitamin D#Citranatal Assure#Folcaps Care One#Folcaps Omega-3#Gesticare DHA#Herbalifeline#Natelle One#Prenate Essential#Se-tan DHA#Ultimatecare One Nf#Virt-PN Plus#Virt-bal DHA Plus#Vp-CH-pnv

>  <DrugBank ID>  (1) 
DB00159

>  <ATC Codes>  (1) 
nan

>  <Ligand ID>  (1) 
EPA

>  <Target Name>  (1) 
Prostaglandin G/H synthase 1

>  <UniProt ID>  (1) 
P23219

>  <PDB ID.1>  (1) 
1IGX

>  <Seq. Identity>  (1) 
89%

$$$$
