PDB_DB00530_01
     RDKit          3D

 72 74  0  0  0  0  0  0  0  0999 V2000
    6.8388   -1.2559    0.4259 C   0  0  0  0  0  0  0  0  0  0  0  0
    5.3284   -1.2882    0.2103 C   0  0  0  0  0  0  0  0  0  0  0  0
    4.7666   -0.0555    0.9044 C   0  0  0  0  0  0  0  0  0  0  0  0
    3.2911    0.0337    0.7697 C   0  0  0  0  0  0  0  0  0  0  0  0
    2.6816    1.2078    0.1529 C   0  0  0  0  0  0  0  0  0  0  0  0
    1.4613    1.0468   -0.5126 N   0  0  0  0  0  0  0  0  0  0  0  0
    1.4116    0.3193   -1.7121 C   0  0  0  0  0  0  0  0  0  0  0  0
    0.0444   -0.2897   -1.9914 C   0  0  0  0  0  0  0  0  0  0  0  0
   -0.9862    0.7793   -1.8224 C   0  0  0  0  0  0  0  0  0  0  0  0
   -1.8774    0.6686   -0.6539 C   0  0  0  0  0  0  0  0  0  0  0  0
   -3.0937    1.3321   -0.7990 O   0  0  0  0  0  0  0  0  0  0  0  0
   -3.3584    2.2243    0.2401 C   0  0  0  0  0  0  0  0  0  0  0  0
   -4.6811    2.9011   -0.0360 C   0  0  0  0  0  0  0  0  0  0  0  0
   -4.9830    3.7888    0.9673 O   0  0  0  0  0  0  0  0  0  0  0  0
   -5.1012    3.2567    2.2192 C   0  0  0  0  0  0  0  0  0  0  0  0
   -2.2449   -0.7691   -0.2973 C   0  0  0  0  0  0  0  0  0  0  0  0
   -3.1506   -0.8273    0.7161 O   0  0  0  0  0  0  0  0  0  0  0  0
   -4.3213   -1.5306    0.3268 C   0  0  0  0  0  0  0  0  0  0  0  0
   -5.2745   -1.5664    1.4774 C   0  0  0  0  0  0  0  0  0  0  0  0
   -6.4369   -2.2341    1.1509 O   0  0  0  0  0  0  0  0  0  0  0  0
   -6.1844   -3.5430    0.7967 C   0  0  0  0  0  0  0  0  0  0  0  0
   -0.8810   -1.3732    0.0994 C   0  0  0  0  0  0  0  0  0  0  0  0
   -0.2279   -1.5521   -1.2416 C   0  0  0  0  0  0  0  0  0  0  0  0
    0.9840   -2.3334   -1.0738 N   0  0  0  0  0  0  0  0  0  0  0  0
    1.9417   -1.9484   -2.0969 C   0  0  0  0  0  0  0  0  0  0  0  0
    2.4354   -0.6435   -1.8286 N   0  0  0  0  0  0  0  0  0  0  0  0
    3.7164    1.9490   -0.7046 C   0  0  0  0  0  0  0  0  0  0  0  0
    4.7808    2.3788    0.2983 C   0  0  0  0  0  0  0  0  0  0  0  0
    5.5860    1.1213    0.5452 C   0  0  0  0  0  0  0  0  0  0  0  0
    7.1515   -0.5024    1.1622 H   0  0  0  0  0  0  0  0  0  0  0  0
    7.2184   -2.2441    0.7642 H   0  0  0  0  0  0  0  0  0  0  0  0
    7.3425   -1.0213   -0.5427 H   0  0  0  0  0  0  0  0  0  0  0  0
    4.9067   -2.1791    0.7288 H   0  0  0  0  0  0  0  0  0  0  0  0
    5.1390   -1.3135   -0.8623 H   0  0  0  0  0  0  0  0  0  0  0  0
    4.9929   -0.2635    1.9971 H   0  0  0  0  0  0  0  0  0  0  0  0
    2.9208   -0.9045    0.3333 H   0  0  0  0  0  0  0  0  0  0  0  0
    2.8304   -0.0263    1.8323 H   0  0  0  0  0  0  0  0  0  0  0  0
    2.4871    1.9847    0.9812 H   0  0  0  0  0  0  0  0  0  0  0  0
    0.7772    1.7782   -0.3285 H   0  0  0  0  0  0  0  0  0  0  0  0
    1.4896    1.0731   -2.6079 H   0  0  0  0  0  0  0  0  0  0  0  0
    0.0766   -0.5410   -3.0725 H   0  0  0  0  0  0  0  0  0  0  0  0
   -0.5496    1.7994   -1.8392 H   0  0  0  0  0  0  0  0  0  0  0  0
   -1.6729    0.8037   -2.7285 H   0  0  0  0  0  0  0  0  0  0  0  0
   -1.4118    1.0637    0.2704 H   0  0  0  0  0  0  0  0  0  0  0  0
   -2.6062    2.9929    0.3947 H   0  0  0  0  0  0  0  0  0  0  0  0
   -3.5342    1.5634    1.1284 H   0  0  0  0  0  0  0  0  0  0  0  0
   -5.4699    2.1410   -0.1481 H   0  0  0  0  0  0  0  0  0  0  0  0
   -4.5717    3.4727   -0.9906 H   0  0  0  0  0  0  0  0  0  0  0  0
   -4.1862    2.7796    2.5779 H   0  0  0  0  0  0  0  0  0  0  0  0
   -5.9116    2.4704    2.2787 H   0  0  0  0  0  0  0  0  0  0  0  0
   -5.3517    4.0602    2.9445 H   0  0  0  0  0  0  0  0  0  0  0  0
   -2.6330   -1.2842   -1.1981 H   0  0  0  0  0  0  0  0  0  0  0  0
   -4.8222   -1.0867   -0.5355 H   0  0  0  0  0  0  0  0  0  0  0  0
   -3.9228   -2.5678    0.1383 H   0  0  0  0  0  0  0  0  0  0  0  0
   -5.5317   -0.5615    1.8648 H   0  0  0  0  0  0  0  0  0  0  0  0
   -4.8413   -2.1220    2.3627 H   0  0  0  0  0  0  0  0  0  0  0  0
   -5.6872   -4.1311    1.6056 H   0  0  0  0  0  0  0  0  0  0  0  0
   -5.5904   -3.6293   -0.1171 H   0  0  0  0  0  0  0  0  0  0  0  0
   -7.1736   -4.0477    0.5591 H   0  0  0  0  0  0  0  0  0  0  0  0
   -1.0314   -2.3675    0.5492 H   0  0  0  0  0  0  0  0  0  0  0  0
   -0.3637   -0.6497    0.7534 H   0  0  0  0  0  0  0  0  0  0  0  0
   -0.9136   -2.1851   -1.8365 H   0  0  0  0  0  0  0  0  0  0  0  0
    0.8018   -3.3533   -1.1996 H   0  0  0  0  0  0  0  0  0  0  0  0
    1.4057   -2.0349   -3.0660 H   0  0  0  0  0  0  0  0  0  0  0  0
    2.7316   -2.7301   -2.1303 H   0  0  0  0  0  0  0  0  0  0  0  0
    3.1263   -0.4259   -2.6041 H   0  0  0  0  0  0  0  0  0  0  0  0
    4.2072    1.3171   -1.4370 H   0  0  0  0  0  0  0  0  0  0  0  0
    3.3338    2.8559   -1.1629 H   0  0  0  0  0  0  0  0  0  0  0  0
    5.4686    3.1363   -0.1373 H   0  0  0  0  0  0  0  0  0  0  0  0
    4.3848    2.7549    1.2377 H   0  0  0  0  0  0  0  0  0  0  0  0
    6.1496    0.9385   -0.4193 H   0  0  0  0  0  0  0  0  0  0  0  0
    6.3689    1.3899    1.2841 H   0  0  0  0  0  0  0  0  0  0  0  0
  1  2  1  0
  2  3  1  0
  3  4  1  0
  4  5  1  0
  5  6  1  0
  6  7  1  0
  7  8  1  0
  8  9  1  0
  9 10  1  0
 10 11  1  0
 11 12  1  0
 12 13  1  0
 13 14  1  0
 14 15  1  0
 10 16  1  0
 16 17  1  0
 17 18  1  0
 18 19  1  0
 19 20  1  0
 20 21  1  0
 16 22  1  0
  8 23  1  0
 22 23  1  0
 23 24  1  0
 24 25  1  0
  7 26  1  0
 25 26  1  0
  5 27  1  0
 27 28  1  0
  3 29  1  0
 28 29  1  0
  1 30  1  0
  1 31  1  0
  1 32  1  0
  2 33  1  0
  2 34  1  0
  3 35  1  0
  4 36  1  0
  4 37  1  0
  5 38  1  0
  6 39  1  0
  7 40  1  0
  8 41  1  0
  9 42  1  0
  9 43  1  0
 10 44  1  0
 12 45  1  0
 12 46  1  0
 13 47  1  0
 13 48  1  0
 15 49  1  0
 15 50  1  0
 15 51  1  0
 16 52  1  0
 18 53  1  0
 18 54  1  0
 19 55  1  0
 19 56  1  0
 21 57  1  0
 21 58  1  0
 21 59  1  0
 22 60  1  0
 22 61  1  0
 23 62  1  0
 24 63  1  0
 25 64  1  0
 25 65  1  0
 26 66  1  0
 27 67  1  0
 27 68  1  0
 28 69  1  0
 28 70  1  0
 29 71  1  0
 29 72  1  0
M  END
>  <PDBID>  (1) 
1M17

>  <PDB ID>  (1) 
1M17

>  <Generic Name>  (1) 
Erlotinib

>  <Brand Name>  (1) 
PMS-erlotinib#Tarceva#Teva-erlotinib

>  <DrugBank ID>  (1) 
DB00530

>  <ATC Codes>  (1) 
L01XE03

>  <Ligand ID>  (1) 
AQ4

>  <Target Name>  (1) 
Epidermal growth factor receptor

>  <UniProt ID>  (1) 
P00533

>  <PDB ID.1>  (1) 
1M17

>  <Seq. Identity>  (1) 
96%

$$$$
