PDB_DB06228_00
     RDKit          3D

 63 66  0  0  0  0  0  0  0  0999 V2000
   -5.5898   -1.0941   -0.8688 C   0  0  0  0  0  0  0  0  0  0  0  0
   -5.1681   -0.5256    0.3407 N   0  0  0  0  0  0  0  0  0  0  0  0
   -7.1321   -1.1504   -0.8301 C   0  0  0  0  0  0  0  0  0  0  0  0
   -6.0914    0.3157    1.0374 C   0  0  0  0  0  0  0  0  0  0  0  0
   -7.6831    0.1068   -0.7715 O   0  0  0  0  0  0  0  0  0  0  0  0
   -6.9348    1.0090   -0.0466 C   0  0  0  0  0  0  0  0  0  0  0  0
   -1.0510   -0.1976   -0.5482 C   0  0  0  0  0  0  0  0  0  0  0  0
   -1.8769    1.0016   -0.1514 C   0  0  0  0  0  0  0  0  0  0  0  0
   -1.5215   -1.3527    0.3014 C   0  0  0  0  0  0  0  0  0  0  0  0
   -3.3563    0.7590   -0.4754 C   0  0  0  0  0  0  0  0  0  0  0  0
   -3.0369   -1.5352    0.1927 C   0  0  0  0  0  0  0  0  0  0  0  0
   -3.7984   -0.2762    0.5428 C   0  0  0  0  0  0  0  0  0  0  0  0
   -6.9746   -0.3464    1.8656 O   0  0  0  0  0  0  0  0  0  0  0  0
    0.3029    0.1149   -0.4593 N   0  0  0  0  0  0  0  0  0  0  0  0
    1.2307   -0.5834    0.2749 C   0  0  0  0  0  0  0  0  0  0  0  0
    0.6319    1.5082   -0.2865 C   0  0  0  0  0  0  0  0  0  0  0  0
    1.7207    0.2691    1.2558 O   0  0  0  0  0  0  0  0  0  0  0  0
    1.9031    1.4413    0.5461 C   0  0  1  0  0  0  0  0  0  0  0  0
    0.9465   -1.8018    0.8271 O   0  0  0  0  0  0  0  0  0  0  0  0
    3.1412    1.5010   -0.2836 C   0  0  0  0  0  0  0  0  0  0  0  0
    4.2962    1.3815    0.5701 N   0  0  0  0  0  0  0  0  0  0  0  0
    5.5014    1.3112   -0.1862 C   0  0  0  0  0  0  0  0  0  0  0  0
    7.1780    0.0256   -1.9520 S   0  0  0  0  0  0  0  0  0  0  0  0
    8.1711   -1.0393   -0.8283 C   0  0  0  0  0  0  0  0  0  0  0  0
    5.6251    0.0521   -1.0096 C   0  0  0  0  0  0  0  0  0  0  0  0
    7.2446   -1.2083    0.3312 C   0  0  0  0  0  0  0  0  0  0  0  0
    5.8272   -1.1472   -0.0964 C   0  0  0  0  0  0  0  0  0  0  0  0
    6.5790    1.5020    0.6522 O   0  0  0  0  0  0  0  0  0  0  0  0
    8.6133   -2.5684   -1.6156 Cl  0  0  0  0  0  0  0  0  0  0  0  0
   -5.2006   -2.1167   -1.0734 H   0  0  0  0  0  0  0  0  0  0  0  0
   -5.3385   -0.4551   -1.7299 H   0  0  0  0  0  0  0  0  0  0  0  0
   -7.4516   -1.7309    0.0531 H   0  0  0  0  0  0  0  0  0  0  0  0
   -7.4993   -1.6567   -1.7448 H   0  0  0  0  0  0  0  0  0  0  0  0
   -5.5470    1.0367    1.6559 H   0  0  0  0  0  0  0  0  0  0  0  0
   -6.1823    1.4312   -0.7416 H   0  0  0  0  0  0  0  0  0  0  0  0
   -7.5203    1.8626    0.3663 H   0  0  0  0  0  0  0  0  0  0  0  0
   -1.3152   -0.4466   -1.5937 H   0  0  0  0  0  0  0  0  0  0  0  0
   -1.6389    1.8927   -0.8048 H   0  0  0  0  0  0  0  0  0  0  0  0
   -1.8252    1.2100    0.9195 H   0  0  0  0  0  0  0  0  0  0  0  0
   -1.2088   -1.2681    1.3618 H   0  0  0  0  0  0  0  0  0  0  0  0
   -1.1116   -2.2808   -0.1841 H   0  0  0  0  0  0  0  0  0  0  0  0
   -3.8457    1.7251   -0.3500 H   0  0  0  0  0  0  0  0  0  0  0  0
   -3.4966    0.3346   -1.4775 H   0  0  0  0  0  0  0  0  0  0  0  0
   -3.2126   -1.7205   -0.8927 H   0  0  0  0  0  0  0  0  0  0  0  0
   -3.3193   -2.4235    0.7544 H   0  0  0  0  0  0  0  0  0  0  0  0
   -3.5661    0.0963    1.5640 H   0  0  0  0  0  0  0  0  0  0  0  0
   -7.6524    0.3250    2.1687 H   0  0  0  0  0  0  0  0  0  0  0  0
    2.1333   -0.7681   -0.4004 H   0  0  0  0  0  0  0  0  0  0  0  0
   -0.0790    2.0734    0.3491 H   0  0  0  0  0  0  0  0  0  0  0  0
    0.7950    1.9798   -1.2706 H   0  0  0  0  0  0  0  0  0  0  0  0
    1.9463    2.2913    1.2805 H   0  0  0  0  0  0  0  0  0  0  0  0
    1.2353   -2.5225    0.2062 H   0  0  0  0  0  0  0  0  0  0  0  0
    3.0958    0.7665   -1.0984 H   0  0  0  0  0  0  0  0  0  0  0  0
    3.1517    2.4950   -0.8247 H   0  0  0  0  0  0  0  0  0  0  0  0
    4.2875    2.1043    1.2975 H   0  0  0  0  0  0  0  0  0  0  0  0
    5.4944    2.1440   -0.9323 H   0  0  0  0  0  0  0  0  0  0  0  0
    9.0692   -0.4346   -0.5339 H   0  0  0  0  0  0  0  0  0  0  0  0
    4.7443   -0.1028   -1.6295 H   0  0  0  0  0  0  0  0  0  0  0  0
    7.4216   -2.2509    0.7061 H   0  0  0  0  0  0  0  0  0  0  0  0
    7.4974   -0.5466    1.1902 H   0  0  0  0  0  0  0  0  0  0  0  0
    5.4344   -2.0816   -0.4939 H   0  0  0  0  0  0  0  0  0  0  0  0
    5.2302   -0.9091    0.8188 H   0  0  0  0  0  0  0  0  0  0  0  0
    6.7766    2.4745    0.6749 H   0  0  0  0  0  0  0  0  0  0  0  0
  1  2  1  0
  1  3  1  0
  2  4  1  0
  3  5  1  0
  4  6  1  0
  5  6  1  0
  7  8  1  0
  7  9  1  0
  8 10  1  0
  9 11  1  0
  2 12  1  0
 10 12  1  0
 11 12  1  0
  4 13  1  0
  7 14  1  0
 14 15  1  0
 14 16  1  0
 15 17  1  0
 16 18  1  0
 17 18  1  0
 15 19  1  0
 18 20  1  0
 20 21  1  0
 21 22  1  0
 23 24  1  0
 22 25  1  0
 23 25  1  0
 24 26  1  0
 25 27  1  0
 26 27  1  0
 22 28  1  0
 24 29  1  0
  1 30  1  0
  1 31  1  0
  3 32  1  0
  3 33  1  0
  4 34  1  0
  6 35  1  0
  6 36  1  0
  7 37  1  0
  8 38  1  0
  8 39  1  0
  9 40  1  0
  9 41  1  0
 10 42  1  0
 10 43  1  0
 11 44  1  0
 11 45  1  0
 12 46  1  0
 13 47  1  0
 15 48  1  0
 16 49  1  0
 16 50  1  0
 18 51  1  1
 19 52  1  0
 20 53  1  0
 20 54  1  0
 21 55  1  0
 22 56  1  0
 24 57  1  0
 25 58  1  0
 26 59  1  0
 26 60  1  0
 27 61  1  0
 27 62  1  0
 28 63  1  0
M  END
>  <PDBID>  (1) 
2W26

>  <PDB ID>  (1) 
2W26

>  <Generic Name>  (1) 
Rivaroxaban

>  <Brand Name>  (1) 
Xarelto

>  <DrugBank ID>  (1) 
DB06228

>  <ATC Codes>  (1) 
B01AF01

>  <Ligand ID>  (1) 
RIV

>  <Target Name>  (1) 
Coagulation factor X

>  <UniProt ID>  (1) 
P00742

>  <PDB ID.1>  (1) 
2W26

>  <Seq. Identity>  (1) 
100%

$$$$
