PDB_DB01601_07
     RDKit          3D

118121  0  0  0  0  0  0  0  0999 V2000
   -4.3173   -3.2415   -3.4036 C   0  0  0  0  0  0  0  0  0  0  0  0
   -3.1540   -1.1755   -2.8398 C   0  0  0  0  0  0  0  0  0  0  0  0
   -4.3125   -0.8522   -2.1020 N   0  0  0  0  0  0  0  0  0  0  0  0
   -5.4585   -1.2189   -2.7894 C   0  0  0  0  0  0  0  0  0  0  0  0
   -5.5219   -2.6870   -2.8329 N   0  0  0  0  0  0  0  0  0  0  0  0
    2.0603    0.6486   -2.2732 C   0  0  0  0  0  0  0  0  0  0  0  0
    1.6339    0.6366   -3.7370 C   0  0  0  0  0  0  0  0  0  0  0  0
    2.5917    1.4885   -4.5310 C   0  0  0  0  0  0  0  0  0  0  0  0
    2.2794    2.9556   -4.2271 C   0  0  0  0  0  0  0  0  0  0  0  0
    2.2839    3.1028   -2.7362 C   0  0  0  0  0  0  0  0  0  0  0  0
    2.8711    1.8751   -2.0515 C   0  0  0  0  0  0  0  0  0  0  0  0
   -5.3075   -0.8410   -4.1441 O   0  0  0  0  0  0  0  0  0  0  0  0
   -4.2459   -0.0231   -0.9947 C   0  0  2  0  0  0  0  0  0  0  0  0
   -3.3727   -0.6519    0.0671 C   0  0  0  0  0  0  0  0  0  0  0  0
   -3.1508    0.0650    1.2534 N   0  0  0  0  0  0  0  0  0  0  0  0
   -2.4934    1.3067    1.2092 C   0  0  1  0  0  0  0  0  0  0  0  0
   -5.5935    0.4096   -0.4824 C   0  0  0  0  0  0  0  0  0  0  0  0
   -6.5052   -0.6825   -0.0516 C   0  0  0  0  0  0  0  0  0  0  0  0
   -6.3029    1.3307   -1.4835 C   0  0  0  0  0  0  0  0  0  0  0  0
   -3.9677   -1.8820    0.4069 O   0  0  0  0  0  0  0  0  0  0  0  0
   -4.0119    2.5926    5.6866 C   0  0  0  0  0  0  0  0  0  0  0  0
   -3.6745    1.1406    5.8615 C   0  0  0  0  0  0  0  0  0  0  0  0
   -4.2046    0.3144    4.7336 C   0  0  0  0  0  0  0  0  0  0  0  0
   -4.6415    1.1445    3.5505 C   0  0  0  0  0  0  0  0  0  0  0  0
   -3.7297    2.2574    3.2214 C   0  0  0  0  0  0  0  0  0  0  0  0
   -3.4546    3.1687    4.4035 C   0  0  0  0  0  0  0  0  0  0  0  0
   -2.4393    1.9519    2.5605 C   0  0  0  0  0  0  0  0  0  0  0  0
   -1.1844    1.3359    0.4579 C   0  0  0  0  0  0  0  0  0  0  0  0
   -0.1152    0.4386    0.9255 C   0  0  1  0  0  0  0  0  0  0  0  0
    1.1557    0.5631    0.1003 C   0  0  1  0  0  0  0  0  0  0  0  0
    2.1466   -0.4109    0.4200 N   0  0  0  0  0  0  0  0  0  0  0  0
    2.6903   -0.3965    1.7359 C   0  0  0  0  0  0  0  0  0  0  0  0
    3.9596   -1.2476    1.6943 C   0  0  0  0  0  0  0  0  0  0  0  0
    4.9009   -0.7599    0.8054 O   0  0  0  0  0  0  0  0  0  0  0  0
    6.0158   -1.5584    0.7761 C   0  0  0  0  0  0  0  0  0  0  0  0
    0.2031    0.6563    2.2509 O   0  0  0  0  0  0  0  0  0  0  0  0
    0.8735    0.5527   -1.3692 C   0  0  0  0  0  0  0  0  0  0  0  0
    2.8900    0.8453    2.2854 O   0  0  0  0  0  0  0  0  0  0  0  0
    7.2207   -0.7840    1.2698 C   0  0  0  0  0  0  0  0  0  0  0  0
    8.4336   -1.6855    1.3840 C   0  0  0  0  0  0  0  0  0  0  0  0
    8.6864   -2.4558    0.1250 C   0  0  0  0  0  0  0  0  0  0  0  0
    7.4495   -3.1757   -0.3141 C   0  0  0  0  0  0  0  0  0  0  0  0
    6.3679   -2.1169   -0.5631 C   0  0  0  0  0  0  0  0  0  0  0  0
    5.2366   -2.7847   -1.2738 C   0  0  0  0  0  0  0  0  0  0  0  0
    7.5831    0.3401    0.3540 C   0  0  0  0  0  0  0  0  0  0  0  0
   -3.0445   -2.7070   -2.8410 C   0  0  0  0  0  0  0  0  0  0  0  0
   -4.3090   -3.1940   -4.5231 H   0  0  0  0  0  0  0  0  0  0  0  0
   -4.3427   -4.3406   -3.1727 H   0  0  0  0  0  0  0  0  0  0  0  0
   -3.2671   -0.9076   -3.9137 H   0  0  0  0  0  0  0  0  0  0  0  0
   -2.2168   -0.7099   -2.5034 H   0  0  0  0  0  0  0  0  0  0  0  0
   -6.4372   -0.8731   -2.4985 H   0  0  0  0  0  0  0  0  0  0  0  0
   -6.3149   -2.9703   -3.4492 H   0  0  0  0  0  0  0  0  0  0  0  0
    2.6960   -0.2819   -2.1846 H   0  0  0  0  0  0  0  0  0  0  0  0
    0.6255    1.0775   -3.8650 H   0  0  0  0  0  0  0  0  0  0  0  0
    1.6388   -0.3786   -4.1711 H   0  0  0  0  0  0  0  0  0  0  0  0
    3.6483    1.2512   -4.3807 H   0  0  0  0  0  0  0  0  0  0  0  0
    2.3843    1.3984   -5.6393 H   0  0  0  0  0  0  0  0  0  0  0  0
    1.2810    3.1995   -4.6294 H   0  0  0  0  0  0  0  0  0  0  0  0
    2.9991    3.6341   -4.7162 H   0  0  0  0  0  0  0  0  0  0  0  0
    2.9885    3.9407   -2.4713 H   0  0  0  0  0  0  0  0  0  0  0  0
    1.3115    3.3669   -2.3242 H   0  0  0  0  0  0  0  0  0  0  0  0
    3.9117    1.7800   -2.4457 H   0  0  0  0  0  0  0  0  0  0  0  0
    2.9267    2.1102   -0.9821 H   0  0  0  0  0  0  0  0  0  0  0  0
   -5.0078    0.0787   -4.2512 H   0  0  0  0  0  0  0  0  0  0  0  0
   -3.7041    0.9351   -1.2945 H   0  0  0  0  0  0  0  0  0  0  0  0
   -2.3688   -0.8438   -0.4190 H   0  0  0  0  0  0  0  0  0  0  0  0
   -2.9146   -0.5303    2.0818 H   0  0  0  0  0  0  0  0  0  0  0  0
   -3.1269    2.0683    0.5903 H   0  0  0  0  0  0  0  0  0  0  0  0
   -5.4036    1.0237    0.4639 H   0  0  0  0  0  0  0  0  0  0  0  0
   -6.1429   -1.6744   -0.3040 H   0  0  0  0  0  0  0  0  0  0  0  0
   -7.5556   -0.4966   -0.4304 H   0  0  0  0  0  0  0  0  0  0  0  0
   -6.6697   -0.7140    1.0704 H   0  0  0  0  0  0  0  0  0  0  0  0
   -5.7512    1.4172   -2.4364 H   0  0  0  0  0  0  0  0  0  0  0  0
   -7.3751    1.1065   -1.5806 H   0  0  0  0  0  0  0  0  0  0  0  0
   -6.2736    2.3759   -1.0530 H   0  0  0  0  0  0  0  0  0  0  0  0
   -3.4367   -2.3435    1.1033 H   0  0  0  0  0  0  0  0  0  0  0  0
   -3.5404    3.1380    6.5356 H   0  0  0  0  0  0  0  0  0  0  0  0
   -5.1172    2.6834    5.7455 H   0  0  0  0  0  0  0  0  0  0  0  0
   -4.1706    0.7965    6.7925 H   0  0  0  0  0  0  0  0  0  0  0  0
   -2.5752    0.9837    6.0347 H   0  0  0  0  0  0  0  0  0  0  0  0
   -5.0283   -0.3716    5.0231 H   0  0  0  0  0  0  0  0  0  0  0  0
   -3.3774   -0.3418    4.3982 H   0  0  0  0  0  0  0  0  0  0  0  0
   -4.9148    0.5587    2.6930 H   0  0  0  0  0  0  0  0  0  0  0  0
   -5.6141    1.6294    3.8979 H   0  0  0  0  0  0  0  0  0  0  0  0
   -4.2986    2.9175    2.4870 H   0  0  0  0  0  0  0  0  0  0  0  0
   -3.9262    4.1649    4.2848 H   0  0  0  0  0  0  0  0  0  0  0  0
   -2.3718    3.3430    4.5342 H   0  0  0  0  0  0  0  0  0  0  0  0
   -1.8699    2.9287    2.5173 H   0  0  0  0  0  0  0  0  0  0  0  0
   -1.7825    1.3342    3.2524 H   0  0  0  0  0  0  0  0  0  0  0  0
   -1.4411    1.0596   -0.6149 H   0  0  0  0  0  0  0  0  0  0  0  0
   -0.7707    2.3839    0.4322 H   0  0  0  0  0  0  0  0  0  0  0  0
   -0.3999   -0.6627    0.7929 H   0  0  0  0  0  0  0  0  0  0  0  0
    1.5490    1.5973    0.3313 H   0  0  0  0  0  0  0  0  0  0  0  0
    2.9625   -0.2975   -0.2419 H   0  0  0  0  0  0  0  0  0  0  0  0
    2.0204   -0.9790    2.4296 H   0  0  0  0  0  0  0  0  0  0  0  0
    4.4070   -1.3280    2.7052 H   0  0  0  0  0  0  0  0  0  0  0  0
    3.6280   -2.2917    1.4250 H   0  0  0  0  0  0  0  0  0  0  0  0
    5.8886   -2.4253    1.4821 H   0  0  0  0  0  0  0  0  0  0  0  0
   -0.0561   -0.1050    2.8366 H   0  0  0  0  0  0  0  0  0  0  0  0
    0.1816    1.3808   -1.6714 H   0  0  0  0  0  0  0  0  0  0  0  0
    0.3103   -0.3760   -1.6810 H   0  0  0  0  0  0  0  0  0  0  0  0
    3.6515    0.8889    2.9122 H   0  0  0  0  0  0  0  0  0  0  0  0
    6.9940   -0.3851    2.2689 H   0  0  0  0  0  0  0  0  0  0  0  0
    9.3098   -1.0508    1.5915 H   0  0  0  0  0  0  0  0  0  0  0  0
    8.3114   -2.4092    2.2291 H   0  0  0  0  0  0  0  0  0  0  0  0
    9.0774   -1.8125   -0.6893 H   0  0  0  0  0  0  0  0  0  0  0  0
    9.4728   -3.2126    0.3578 H   0  0  0  0  0  0  0  0  0  0  0  0
    7.5988   -3.7976   -1.1982 H   0  0  0  0  0  0  0  0  0  0  0  0
    7.0637   -3.7899    0.5319 H   0  0  0  0  0  0  0  0  0  0  0  0
    6.7682   -1.3255   -1.2271 H   0  0  0  0  0  0  0  0  0  0  0  0
    5.6794   -3.6049   -1.9078 H   0  0  0  0  0  0  0  0  0  0  0  0
    4.7168   -2.1212   -1.9964 H   0  0  0  0  0  0  0  0  0  0  0  0
    4.5196   -3.2966   -0.5920 H   0  0  0  0  0  0  0  0  0  0  0  0
    7.9654    1.1855    0.9845 H   0  0  0  0  0  0  0  0  0  0  0  0
    6.7274    0.7457   -0.2196 H   0  0  0  0  0  0  0  0  0  0  0  0
    8.4271    0.0969   -0.3326 H   0  0  0  0  0  0  0  0  0  0  0  0
   -2.2079   -3.0325   -3.4906 H   0  0  0  0  0  0  0  0  0  0  0  0
   -2.8907   -3.0877   -1.8120 H   0  0  0  0  0  0  0  0  0  0  0  0
  2  3  1  0
  3  4  1  0
  1  5  1  0
  4  5  1  0
  6  7  1  0
  7  8  1  0
  8  9  1  0
  9 10  1  0
  6 11  1  0
 10 11  1  0
  4 12  1  0
  3 13  1  0
 13 14  1  0
 14 15  1  0
 15 16  1  0
 13 17  1  0
 17 18  1  0
 17 19  1  0
 14 20  1  0
 21 22  1  0
 22 23  1  0
 23 24  1  0
 24 25  1  0
 21 26  1  0
 25 26  1  0
 16 27  1  0
 25 27  1  0
 16 28  1  0
 28 29  1  0
 29 30  1  0
 30 31  1  0
 31 32  1  0
 32 33  1  0
 33 34  1  0
 34 35  1  0
 29 36  1  0
  6 37  1  0
 30 37  1  0
 32 38  1  0
 35 39  1  0
 39 40  1  0
 40 41  1  0
 41 42  1  0
 35 43  1  0
 42 43  1  0
 43 44  1  0
 39 45  1  0
  1 46  1  0
  2 46  1  0
  1 47  1  0
  1 48  1  0
  2 49  1  0
  2 50  1  0
  4 51  1  0
  5 52  1  0
  6 53  1  0
  7 54  1  0
  7 55  1  0
  8 56  1  0
  8 57  1  0
  9 58  1  0
  9 59  1  0
 10 60  1  0
 10 61  1  0
 11 62  1  0
 11 63  1  0
 12 64  1  0
 13 65  1  6
 14 66  1  0
 15 67  1  0
 16 68  1  6
 17 69  1  0
 18 70  1  0
 18 71  1  0
 18 72  1  0
 19 73  1  0
 19 74  1  0
 19 75  1  0
 20 76  1  0
 21 77  1  0
 21 78  1  0
 22 79  1  0
 22 80  1  0
 23 81  1  0
 23 82  1  0
 24 83  1  0
 24 84  1  0
 25 85  1  0
 26 86  1  0
 26 87  1  0
 27 88  1  0
 27 89  1  0
 28 90  1  0
 28 91  1  0
 29 92  1  1
 30 93  1  1
 31 94  1  0
 32 95  1  0
 33 96  1  0
 33 97  1  0
 35 98  1  0
 36 99  1  0
 37100  1  0
 37101  1  0
 38102  1  0
 39103  1  0
 40104  1  0
 40105  1  0
 41106  1  0
 41107  1  0
 42108  1  0
 42109  1  0
 43110  1  0
 44111  1  0
 44112  1  0
 44113  1  0
 45114  1  0
 45115  1  0
 45116  1  0
 46117  1  0
 46118  1  0
M  END
>  <PDBID>  (1) 
1MUI

>  <PDB ID>  (1) 
1MUI

>  <Generic Name>  (1) 
Lopinavir

>  <Brand Name>  (1) 
Kaletra#Lopinavir-ritonavir#Aluviran#Koletra

>  <DrugBank ID>  (1) 
DB01601

>  <ATC Codes>  (1) 
J05AR10

>  <Ligand ID>  (1) 
AB1

>  <Target Name>  (1) 
Pol polyprotein

>  <UniProt ID>  (1) 
Q72874

>  <PDB ID.1>  (1) 
1MUI

>  <Seq. Identity>  (1) 
99%

$$$$
