PDB_DB00482_02
     RDKit          3D

116120  0  0  0  0  0  0  0  0999 V2000
   -5.2859    1.0396   -0.1023 S   0  0  0  0  0  0  0  0  0  0  0  0
   -3.7532    0.3681   -0.8642 C   0  0  0  0  0  0  0  0  0  0  0  0
   -2.6943    1.3392   -0.4937 C   0  0  0  0  0  0  0  0  0  0  0  0
   -1.2887    0.7918   -0.4837 C   0  0  0  0  0  0  0  0  0  0  0  0
   -1.2209   -0.6588   -0.1608 C   0  0  0  0  0  0  0  0  0  0  0  0
   -2.4400   -1.0071    0.6871 C   0  0  0  0  0  0  0  0  0  0  0  0
   -3.6120   -1.0020   -0.2936 C   0  0  0  0  0  0  0  0  0  0  0  0
   -0.0010   -1.0227    0.4972 N   0  0  0  0  0  0  0  0  0  0  0  0
    1.1874   -0.8584   -0.2533 C   0  0  0  0  0  0  0  0  0  0  0  0
    1.9419    0.4051   -0.1042 C   0  0  0  0  0  0  0  0  0  0  0  0
    2.3745    0.7327    1.2923 C   0  0  0  0  0  0  0  0  0  0  0  0
    3.0692    2.0833    1.3152 C   0  0  0  0  0  0  0  0  0  0  0  0
    4.1583    2.1824    0.2834 C   0  0  0  0  0  0  0  0  0  0  0  0
    5.4510    1.5501    0.7523 C   0  0  0  0  0  0  0  0  0  0  0  0
    3.8053    1.6389   -1.0554 C   0  0  0  0  0  0  0  0  0  0  0  0
    3.2188    0.2488   -0.9628 C   0  0  0  0  0  0  0  0  0  0  0  0
    2.0568   -2.0135    0.2150 C   0  0  0  0  0  0  0  0  0  0  0  0
    0.9943   -3.0907    0.4266 C   0  0  0  0  0  0  0  0  0  0  0  0
    0.7809   -3.9056   -0.8056 C   0  0  0  0  0  0  0  0  0  0  0  0
    0.3692   -3.1823   -1.8844 F   0  0  0  0  0  0  0  0  0  0  0  0
    1.9563   -4.5933   -1.0584 F   0  0  0  0  0  0  0  0  0  0  0  0
   -0.2553   -4.8016   -0.5124 F   0  0  0  0  0  0  0  0  0  0  0  0
   -0.1416   -2.3623    0.8837 N   0  0  0  0  0  0  0  0  0  0  0  0
   -5.5712    2.4411   -0.6165 N   0  0  0  0  0  0  0  0  0  0  0  0
   -5.3472    0.6343    1.3576 O   0  0  0  0  0  0  0  0  0  0  0  0
   -6.4709   -0.0168   -0.9508 O   0  0  0  0  0  0  0  0  0  0  0  0
   -5.2859    1.0396   -0.1023 S   0  0  0  0  0  0  0  0  0  0  0  0
   -3.7532    0.3681   -0.8642 C   0  0  0  0  0  0  0  0  0  0  0  0
   -2.6943    1.3392   -0.4937 C   0  0  0  0  0  0  0  0  0  0  0  0
   -1.2887    0.7918   -0.4837 C   0  0  0  0  0  0  0  0  0  0  0  0
   -1.2209   -0.6588   -0.1608 C   0  0  0  0  0  0  0  0  0  0  0  0
   -2.4400   -1.0071    0.6871 C   0  0  0  0  0  0  0  0  0  0  0  0
   -3.6120   -1.0020   -0.2936 C   0  0  0  0  0  0  0  0  0  0  0  0
   -0.0010   -1.0227    0.4972 N   0  0  0  0  0  0  0  0  0  0  0  0
    1.1874   -0.8584   -0.2533 C   0  0  0  0  0  0  0  0  0  0  0  0
    1.9419    0.4051   -0.1042 C   0  0  0  0  0  0  0  0  0  0  0  0
    2.3745    0.7327    1.2923 C   0  0  0  0  0  0  0  0  0  0  0  0
    3.0692    2.0833    1.3152 C   0  0  0  0  0  0  0  0  0  0  0  0
    4.1583    2.1824    0.2834 C   0  0  0  0  0  0  0  0  0  0  0  0
    5.4510    1.5501    0.7523 C   0  0  0  0  0  0  0  0  0  0  0  0
    3.8053    1.6389   -1.0554 C   0  0  0  0  0  0  0  0  0  0  0  0
    3.2188    0.2488   -0.9628 C   0  0  0  0  0  0  0  0  0  0  0  0
    2.0568   -2.0135    0.2150 C   0  0  0  0  0  0  0  0  0  0  0  0
    0.9943   -3.0907    0.4266 C   0  0  0  0  0  0  0  0  0  0  0  0
    0.7809   -3.9056   -0.8056 C   0  0  0  0  0  0  0  0  0  0  0  0
    0.3692   -3.1823   -1.8844 F   0  0  0  0  0  0  0  0  0  0  0  0
    1.9563   -4.5933   -1.0584 F   0  0  0  0  0  0  0  0  0  0  0  0
   -0.2553   -4.8016   -0.5124 F   0  0  0  0  0  0  0  0  0  0  0  0
   -0.1416   -2.3623    0.8837 N   0  0  0  0  0  0  0  0  0  0  0  0
   -5.5712    2.4411   -0.6165 N   0  0  0  0  0  0  0  0  0  0  0  0
   -5.3472    0.6343    1.3576 O   0  0  0  0  0  0  0  0  0  0  0  0
   -6.4709   -0.0168   -0.9508 O   0  0  0  0  0  0  0  0  0  0  0  0
   -3.9591    0.3594   -1.9606 H   0  0  0  0  0  0  0  0  0  0  0  0
   -2.9246    1.7598    0.4876 H   0  0  0  0  0  0  0  0  0  0  0  0
   -2.7194    2.1850   -1.2403 H   0  0  0  0  0  0  0  0  0  0  0  0
   -0.7540    1.3510    0.3277 H   0  0  0  0  0  0  0  0  0  0  0  0
   -0.7463    1.0127   -1.4230 H   0  0  0  0  0  0  0  0  0  0  0  0
   -1.3670   -1.2799   -1.0989 H   0  0  0  0  0  0  0  0  0  0  0  0
   -2.3228   -1.9772    1.1873 H   0  0  0  0  0  0  0  0  0  0  0  0
   -2.6434   -0.2426    1.4516 H   0  0  0  0  0  0  0  0  0  0  0  0
   -4.5245   -1.3994    0.1945 H   0  0  0  0  0  0  0  0  0  0  0  0
   -3.3565   -1.7242   -1.1245 H   0  0  0  0  0  0  0  0  0  0  0  0
    0.9592   -1.0299   -1.3484 H   0  0  0  0  0  0  0  0  0  0  0  0
    1.4382    1.2904   -0.5228 H   0  0  0  0  0  0  0  0  0  0  0  0
    3.0037   -0.0119    1.7769 H   0  0  0  0  0  0  0  0  0  0  0  0
    1.4580    0.8513    1.9092 H   0  0  0  0  0  0  0  0  0  0  0  0
    3.5381    2.1980    2.3135 H   0  0  0  0  0  0  0  0  0  0  0  0
    2.3350    2.8928    1.1955 H   0  0  0  0  0  0  0  0  0  0  0  0
    4.3766    3.2813    0.1540 H   0  0  0  0  0  0  0  0  0  0  0  0
    5.9254    0.9330   -0.0486 H   0  0  0  0  0  0  0  0  0  0  0  0
    6.2054    2.3069    1.0362 H   0  0  0  0  0  0  0  0  0  0  0  0
    5.2706    0.8608    1.6006 H   0  0  0  0  0  0  0  0  0  0  0  0
    3.1606    2.3260   -1.6677 H   0  0  0  0  0  0  0  0  0  0  0  0
    4.7655    1.5312   -1.6316 H   0  0  0  0  0  0  0  0  0  0  0  0
    2.8818   -0.0987   -1.9418 H   0  0  0  0  0  0  0  0  0  0  0  0
    3.9508   -0.3908   -0.4624 H   0  0  0  0  0  0  0  0  0  0  0  0
    2.8007   -2.3148   -0.5528 H   0  0  0  0  0  0  0  0  0  0  0  0
    2.4868   -1.8328    1.1984 H   0  0  0  0  0  0  0  0  0  0  0  0
    1.3184   -3.7665    1.2501 H   0  0  0  0  0  0  0  0  0  0  0  0
   -0.3893   -2.4875    1.8741 H   0  0  0  0  0  0  0  0  0  0  0  0
   -4.9028    3.2167   -0.7773 H   0  0  0  0  0  0  0  0  0  0  0  0
   -6.4947    2.7654   -1.0341 H   0  0  0  0  0  0  0  0  0  0  0  0
   -5.4874    1.2902    2.1119 H   0  0  0  0  0  0  0  0  0  0  0  0
   -6.5643   -0.7961   -0.3427 H   0  0  0  0  0  0  0  0  0  0  0  0
   -3.9591    0.3594   -1.9606 H   0  0  0  0  0  0  0  0  0  0  0  0
   -2.9246    1.7598    0.4876 H   0  0  0  0  0  0  0  0  0  0  0  0
   -2.7194    2.1850   -1.2403 H   0  0  0  0  0  0  0  0  0  0  0  0
   -0.7540    1.3510    0.3277 H   0  0  0  0  0  0  0  0  0  0  0  0
   -0.7463    1.0127   -1.4230 H   0  0  0  0  0  0  0  0  0  0  0  0
   -1.3670   -1.2799   -1.0989 H   0  0  0  0  0  0  0  0  0  0  0  0
   -2.3228   -1.9772    1.1873 H   0  0  0  0  0  0  0  0  0  0  0  0
   -2.6434   -0.2426    1.4516 H   0  0  0  0  0  0  0  0  0  0  0  0
   -4.5245   -1.3994    0.1945 H   0  0  0  0  0  0  0  0  0  0  0  0
   -3.3565   -1.7242   -1.1245 H   0  0  0  0  0  0  0  0  0  0  0  0
    0.9592   -1.0299   -1.3484 H   0  0  0  0  0  0  0  0  0  0  0  0
    1.4382    1.2904   -0.5228 H   0  0  0  0  0  0  0  0  0  0  0  0
    3.0037   -0.0119    1.7769 H   0  0  0  0  0  0  0  0  0  0  0  0
    1.4580    0.8513    1.9092 H   0  0  0  0  0  0  0  0  0  0  0  0
    3.5381    2.1980    2.3135 H   0  0  0  0  0  0  0  0  0  0  0  0
    2.3350    2.8928    1.1955 H   0  0  0  0  0  0  0  0  0  0  0  0
    4.3766    3.2813    0.1540 H   0  0  0  0  0  0  0  0  0  0  0  0
    5.9254    0.9330   -0.0486 H   0  0  0  0  0  0  0  0  0  0  0  0
    6.2054    2.3069    1.0362 H   0  0  0  0  0  0  0  0  0  0  0  0
    5.2706    0.8608    1.6006 H   0  0  0  0  0  0  0  0  0  0  0  0
    3.1606    2.3260   -1.6677 H   0  0  0  0  0  0  0  0  0  0  0  0
    4.7655    1.5312   -1.6316 H   0  0  0  0  0  0  0  0  0  0  0  0
    2.8818   -0.0987   -1.9418 H   0  0  0  0  0  0  0  0  0  0  0  0
    3.9508   -0.3908   -0.4624 H   0  0  0  0  0  0  0  0  0  0  0  0
    2.8007   -2.3148   -0.5528 H   0  0  0  0  0  0  0  0  0  0  0  0
    2.4868   -1.8328    1.1984 H   0  0  0  0  0  0  0  0  0  0  0  0
    1.3184   -3.7665    1.2501 H   0  0  0  0  0  0  0  0  0  0  0  0
   -0.3893   -2.4875    1.8741 H   0  0  0  0  0  0  0  0  0  0  0  0
   -4.9028    3.2167   -0.7773 H   0  0  0  0  0  0  0  0  0  0  0  0
   -6.4947    2.7654   -1.0341 H   0  0  0  0  0  0  0  0  0  0  0  0
   -5.4874    1.2902    2.1119 H   0  0  0  0  0  0  0  0  0  0  0  0
   -6.5643   -0.7961   -0.3427 H   0  0  0  0  0  0  0  0  0  0  0  0
  1  2  1  0
  2  3  1  0
  3  4  1  0
  4  5  1  0
  5  6  1  0
  2  7  1  0
  6  7  1  0
  5  8  1  0
  8  9  1  0
  9 10  1  0
 10 11  1  0
 11 12  1  0
 12 13  1  0
 13 14  1  0
 13 15  1  0
 10 16  1  0
 15 16  1  0
  9 17  1  0
 17 18  1  0
 18 19  1  0
 19 20  1  0
 19 21  1  0
 19 22  1  0
  8 23  1  0
 18 23  1  0
  1 24  1  0
  1 25  1  0
  1 26  1  0
 27 28  1  0
 28 29  1  0
 29 30  1  0
 30 31  1  0
 31 32  1  0
 28 33  1  0
 32 33  1  0
 31 34  1  0
 34 35  1  0
 35 36  1  0
 36 37  1  0
 37 38  1  0
 38 39  1  0
 39 40  1  0
 39 41  1  0
 36 42  1  0
 41 42  1  0
 35 43  1  0
 43 44  1  0
 44 45  1  0
 45 46  1  0
 45 47  1  0
 45 48  1  0
 34 49  1  0
 44 49  1  0
 27 50  1  0
 27 51  1  0
 27 52  1  0
  2 53  1  0
  3 54  1  0
  3 55  1  0
  4 56  1  0
  4 57  1  0
  5 58  1  0
  6 59  1  0
  6 60  1  0
  7 61  1  0
  7 62  1  0
  9 63  1  0
 10 64  1  0
 11 65  1  0
 11 66  1  0
 12 67  1  0
 12 68  1  0
 13 69  1  0
 14 70  1  0
 14 71  1  0
 14 72  1  0
 15 73  1  0
 15 74  1  0
 16 75  1  0
 16 76  1  0
 17 77  1  0
 17 78  1  0
 18 79  1  0
 23 80  1  0
 24 81  1  0
 24 82  1  0
 25 83  1  0
 26 84  1  0
 28 85  1  0
 29 86  1  0
 29 87  1  0
 30 88  1  0
 30 89  1  0
 31 90  1  0
 32 91  1  0
 32 92  1  0
 33 93  1  0
 33 94  1  0
 35 95  1  0
 36 96  1  0
 37 97  1  0
 37 98  1  0
 38 99  1  0
 38100  1  0
 39101  1  0
 40102  1  0
 40103  1  0
 40104  1  0
 41105  1  0
 41106  1  0
 42107  1  0
 42108  1  0
 43109  1  0
 43110  1  0
 44111  1  0
 49112  1  0
 50113  1  0
 50114  1  0
 51115  1  0
 52116  1  0
M  END
>  <PDBID>  (1) 
5JW1

>  <PDB ID>  (1) 
5JW1

>  <Generic Name>  (1) 
Celecoxib

>  <Brand Name>  (1) 
Accel-celecoxib#Act Celecoxib#Ag-celecoxib#Apo-celecoxib#Auro-celecoxib#Bio-celecoxib#Celebrex#Celecoxib#Celecoxib 100 mg#Celecoxib 200 mg#Celecoxib 400 mg#Celecoxib 50 mg#Dom-celecoxib#Gd-celecoxib#Ipg-celecoxib#Jamp-celecoxib#Lupin-celecoxib#Mar-celecoxib#Mint-celecoxib#Mylan-celecoxib#PMS-celecoxib#Priva-celecoxib#Ran-celecoxib#Rbx-celecoxib#Riva-celecox#Riva-celecoxib#Sandoz Celecoxib#Sdz Celecoxib#Teva-celecoxib#Articox#Articoxib#Artiflex#Artilog#Artix#Artrixib#Blockten#Caditar#Cefinix#Celact#Celebra#Onsenal#Valdyne

>  <DrugBank ID>  (1) 
DB00482

>  <ATC Codes>  (1) 
L01XX33#M01AH01

>  <Ligand ID>  (1) 
CEL

>  <Target Name>  (1) 
Prostaglandin G/H synthase 2

>  <UniProt ID>  (1) 
P35354

>  <PDB ID.1>  (1) 
5JW1

>  <Seq. Identity>  (1) 
85%

$$$$
