PDB_DB01030_08
     RDKit          3D

 72 76  0  0  0  0  0  0  0  0999 V2000
   -4.9509    1.6581    0.9382 C   0  0  0  0  0  0  0  0  0  0  0  0
   -6.3164    2.2400    0.5407 C   0  0  0  0  0  0  0  0  0  0  0  0
   -4.9240    0.2421    0.4424 C   0  0  2  0  0  0  0  0  0  0  0  0
   -6.0329   -0.3757    1.0929 O   0  0  0  0  0  0  0  0  0  0  0  0
   -3.6660   -0.5228    0.8561 C   0  0  0  0  0  0  0  0  0  0  0  0
   -5.2068    0.2329   -1.0126 C   0  0  0  0  0  0  0  0  0  0  0  0
   -3.5192   -1.7952    0.0781 C   0  0  0  0  0  0  0  0  0  0  0  0
   -2.4464    0.2842    1.0175 C   0  0  0  0  0  0  0  0  0  0  0  0
   -4.9632    1.4617   -1.6226 O   0  0  0  0  0  0  0  0  0  0  0  0
   -4.4981   -0.7259   -1.7274 O   0  0  0  0  0  0  0  0  0  0  0  0
   -2.2351   -1.9797   -0.6484 C   0  0  0  0  0  0  0  0  0  0  0  0
   -4.6418   -1.9093   -0.9651 C   0  0  0  0  0  0  0  0  0  0  0  0
   -1.3307    0.0366    0.0677 C   0  0  0  0  0  0  0  0  0  0  0  0
   -2.4721   -2.7138   -1.8375 O   0  0  0  0  0  0  0  0  0  0  0  0
   -1.5927   -0.7721   -1.0580 N   0  0  0  0  0  0  0  0  0  0  0  0
   -0.1621   -0.6896    0.7545 C   0  0  0  0  0  0  0  0  0  0  0  0
   -0.2770   -1.1327   -1.5741 C   0  0  0  0  0  0  0  0  0  0  0  0
    0.6928   -1.0225   -0.4137 C   0  0  0  0  0  0  0  0  0  0  0  0
    0.3940    0.2042    1.7187 N   0  0  0  0  0  0  0  0  0  0  0  0
    1.7057    0.0428   -0.7454 C   0  0  0  0  0  0  0  0  0  0  0  0
    1.8484    0.2075    1.7669 C   0  0  0  0  0  0  0  0  0  0  0  0
    2.3240    0.6749    0.4485 C   0  0  0  0  0  0  0  0  0  0  0  0
    2.3913   -1.1125    2.2039 C   0  0  0  0  0  0  0  0  0  0  0  0
    3.8508    0.6145    0.4395 C   0  0  0  0  0  0  0  0  0  0  0  0
    3.7205   -1.4730    1.7172 C   0  0  0  0  0  0  0  0  0  0  0  0
    4.2543   -0.7899    0.4916 C   0  0  0  0  0  0  0  0  0  0  0  0
    4.3985    1.5126   -0.6029 C   0  0  0  0  0  0  0  0  0  0  0  0
    5.7487    1.6535   -0.8430 N   0  0  0  0  0  0  0  0  0  0  0  0
    6.5331    0.6685   -1.4574 C   0  0  0  0  0  0  0  0  0  0  0  0
    6.4957    2.6635   -0.1880 C   0  0  0  0  0  0  0  0  0  0  0  0
    5.6636   -0.9445    0.5895 O   0  0  0  0  0  0  0  0  0  0  0  0
   -4.8607    1.7869    2.0125 H   0  0  0  0  0  0  0  0  0  0  0  0
   -4.2409    2.3151    0.3415 H   0  0  0  0  0  0  0  0  0  0  0  0
   -6.9649    2.3345    1.4593 H   0  0  0  0  0  0  0  0  0  0  0  0
   -6.2284    3.2834    0.1716 H   0  0  0  0  0  0  0  0  0  0  0  0
   -6.8201    1.6636   -0.2379 H   0  0  0  0  0  0  0  0  0  0  0  0
   -6.8773   -0.1489    0.6805 H   0  0  0  0  0  0  0  0  0  0  0  0
   -3.9299   -0.8692    1.9115 H   0  0  0  0  0  0  0  0  0  0  0  0
   -6.2906   -0.0050   -1.2417 H   0  0  0  0  0  0  0  0  0  0  0  0
   -3.6606   -2.7257    0.7058 H   0  0  0  0  0  0  0  0  0  0  0  0
   -1.9821    0.1693    2.0523 H   0  0  0  0  0  0  0  0  0  0  0  0
   -2.6496    1.3744    0.9892 H   0  0  0  0  0  0  0  0  0  0  0  0
   -4.4551    1.4003   -2.4491 H   0  0  0  0  0  0  0  0  0  0  0  0
   -1.5446   -2.6592   -0.0689 H   0  0  0  0  0  0  0  0  0  0  0  0
   -4.4230   -2.7627   -1.6352 H   0  0  0  0  0  0  0  0  0  0  0  0
   -5.6260   -2.0232   -0.5186 H   0  0  0  0  0  0  0  0  0  0  0  0
   -0.8555    0.9919   -0.3093 H   0  0  0  0  0  0  0  0  0  0  0  0
   -2.5722   -3.6780   -1.6417 H   0  0  0  0  0  0  0  0  0  0  0  0
   -0.5236   -1.5814    1.3156 H   0  0  0  0  0  0  0  0  0  0  0  0
   -0.3240   -2.1574   -2.0011 H   0  0  0  0  0  0  0  0  0  0  0  0
    0.0331   -0.4739   -2.4191 H   0  0  0  0  0  0  0  0  0  0  0  0
    1.1918   -2.0314   -0.3457 H   0  0  0  0  0  0  0  0  0  0  0  0
    0.1096    1.2128    1.5986 H   0  0  0  0  0  0  0  0  0  0  0  0
    1.1657    0.7957   -1.3930 H   0  0  0  0  0  0  0  0  0  0  0  0
    2.4598   -0.4126   -1.4437 H   0  0  0  0  0  0  0  0  0  0  0  0
    2.1104    0.9940    2.5288 H   0  0  0  0  0  0  0  0  0  0  0  0
    2.1041    1.7833    0.3926 H   0  0  0  0  0  0  0  0  0  0  0  0
    2.4241   -1.0804    3.3356 H   0  0  0  0  0  0  0  0  0  0  0  0
    1.6180   -1.8918    1.9999 H   0  0  0  0  0  0  0  0  0  0  0  0
    4.1327    1.0782    1.4374 H   0  0  0  0  0  0  0  0  0  0  0  0
    4.5016   -1.3671    2.5278 H   0  0  0  0  0  0  0  0  0  0  0  0
    3.7329   -2.5820    1.4911 H   0  0  0  0  0  0  0  0  0  0  0  0
    3.9711   -1.3927   -0.4085 H   0  0  0  0  0  0  0  0  0  0  0  0
    3.9666    2.5673   -0.4521 H   0  0  0  0  0  0  0  0  0  0  0  0
    3.8994    1.2344   -1.5913 H   0  0  0  0  0  0  0  0  0  0  0  0
    5.9842   -0.1691   -1.9335 H   0  0  0  0  0  0  0  0  0  0  0  0
    7.4480    0.3513   -0.8974 H   0  0  0  0  0  0  0  0  0  0  0  0
    7.0072    1.1820   -2.3766 H   0  0  0  0  0  0  0  0  0  0  0  0
    6.7065    3.5557   -0.8162 H   0  0  0  0  0  0  0  0  0  0  0  0
    7.5064    2.2729    0.1237 H   0  0  0  0  0  0  0  0  0  0  0  0
    6.0417    3.0553    0.7457 H   0  0  0  0  0  0  0  0  0  0  0  0
    5.9277   -1.8286    0.1945 H   0  0  0  0  0  0  0  0  0  0  0  0
  1  2  1  0
  1  3  1  0
  3  4  1  1
  3  5  1  0
  3  6  1  0
  5  7  1  0
  5  8  1  0
  6  9  1  0
  6 10  1  0
  7 11  1  0
  7 12  1  0
 10 12  1  0
  8 13  1  0
 11 14  1  0
 11 15  1  0
 13 15  1  0
 13 16  1  0
 15 17  1  0
 16 18  1  0
 17 18  1  0
 16 19  1  0
 18 20  1  0
 19 21  1  0
 20 22  1  0
 21 22  1  0
 21 23  1  0
 22 24  1  0
 23 25  1  0
 24 26  1  0
 25 26  1  0
 24 27  1  0
 27 28  1  0
 28 29  1  0
 28 30  1  0
 26 31  1  0
  1 32  1  0
  1 33  1  0
  2 34  1  0
  2 35  1  0
  2 36  1  0
  4 37  1  0
  5 38  1  0
  6 39  1  0
  7 40  1  0
  8 41  1  0
  8 42  1  0
  9 43  1  0
 11 44  1  0
 12 45  1  0
 12 46  1  0
 13 47  1  0
 14 48  1  0
 16 49  1  0
 17 50  1  0
 17 51  1  0
 18 52  1  0
 19 53  1  0
 20 54  1  0
 20 55  1  0
 21 56  1  0
 22 57  1  0
 23 58  1  0
 23 59  1  0
 24 60  1  0
 25 61  1  0
 25 62  1  0
 26 63  1  0
 27 64  1  0
 27 65  1  0
 29 66  1  0
 29 67  1  0
 29 68  1  0
 30 69  1  0
 30 70  1  0
 30 71  1  0
 31 72  1  0
M  END
>  <PDBID>  (1) 
1K4T

>  <PDB ID>  (1) 
1K4T

>  <Generic Name>  (1) 
Topotecan

>  <Brand Name>  (1) 
Act Topotecan#Hycamtin#Mylan-topotecan Hydrochloride for Injection#PMS-topotecan#Topotecan#Topotecan Hydrochloride#Topotecan Hydrochloride for Injection#Topotecan Injection#Topotecan for Injection

>  <DrugBank ID>  (1) 
DB01030

>  <ATC Codes>  (1) 
L01XX17

>  <Ligand ID>  (1) 
TTC

>  <Target Name>  (1) 
DNA topoisomerase 1

>  <UniProt ID>  (1) 
P11387

>  <PDB ID.1>  (1) 
1K4T

>  <Seq. Identity>  (1) 
92%

$$$$
