PDB_DB00755_03
     RDKit          3D

124124  0  0  0  0  0  0  0  0999 V2000
   -3.4206   -0.7661   -0.2613 C   0  0  0  0  0  0  0  0  0  0  0  0
   -4.9178   -0.8569   -0.7282 C   0  0  0  0  0  0  0  0  0  0  0  0
   -5.0840    0.2988   -1.6671 C   0  0  0  0  0  0  0  0  0  0  0  0
   -4.9913    1.5499   -0.8761 C   0  0  0  0  0  0  0  0  0  0  0  0
   -3.8919    1.6796    0.0897 C   0  0  0  0  0  0  0  0  0  0  0  0
   -3.3728    0.3567    0.6660 C   0  0  0  0  0  0  0  0  0  0  0  0
   -2.3482    0.5698    1.6773 C   0  0  0  0  0  0  0  0  0  0  0  0
   -0.9373    0.7673    1.4893 C   0  0  0  0  0  0  0  0  0  0  0  0
   -0.0305   -0.2440    0.9010 C   0  0  1  0  0  0  0  0  0  0  0  0
    1.4042    0.3492    0.8708 C   0  0  0  0  0  0  0  0  0  0  0  0
    2.3761   -0.6141    0.2899 C   0  0  0  0  0  0  0  0  0  0  0  0
    3.7426    0.0883    0.3176 C   0  0  0  0  0  0  0  0  0  0  0  0
    4.8169   -0.7700   -0.2396 C   0  0  0  0  0  0  0  0  0  0  0  0
    6.1769   -0.1335   -0.2277 C   0  0  0  0  0  0  0  0  0  0  0  0
    6.2892    1.1380   -1.0121 C   0  0  0  0  0  0  0  0  0  0  0  0
   -3.2249   -2.0716    0.5133 C   0  0  0  0  0  0  0  0  0  0  0  0
   -2.6333   -0.8501   -1.4833 C   0  0  0  0  0  0  0  0  0  0  0  0
   -2.8432    2.6059   -0.4161 C   0  0  0  0  0  0  0  0  0  0  0  0
   -0.0089   -1.5614    1.6244 C   0  0  0  0  0  0  0  0  0  0  0  0
    4.9423   -2.1057    0.4559 C   0  0  0  0  0  0  0  0  0  0  0  0
    5.9665    0.8989   -2.3553 O   0  0  0  0  0  0  0  0  0  0  0  0
    5.6373    2.2086   -0.4574 O   0  0  0  0  0  0  0  0  0  0  0  0
   -4.5298   -0.9574   -0.1048 C   0  0  0  0  0  0  0  0  0  0  0  0
   -5.8670   -0.3023   -0.2522 C   0  0  0  0  0  0  0  0  0  0  0  0
   -5.7405    1.1774   -0.5329 C   0  0  0  0  0  0  0  0  0  0  0  0
   -4.7542    1.7214    0.5096 C   0  0  0  0  0  0  0  0  0  0  0  0
   -3.3703    1.2714    0.1023 C   0  0  0  0  0  0  0  0  0  0  0  0
   -3.3639   -0.1024   -0.4979 C   0  0  0  0  0  0  0  0  0  0  0  0
   -2.0852   -0.8171   -0.1091 C   0  0  0  0  0  0  0  0  0  0  0  0
   -0.8631   -0.0386   -0.4634 C   0  0  0  0  0  0  0  0  0  0  0  0
    0.4165   -0.7479   -0.0847 C   0  0  0  0  0  0  0  0  0  0  0  0
    1.5924    0.1356   -0.4938 C   0  0  0  0  0  0  0  0  0  0  0  0
    2.8586   -0.5574   -0.1232 C   0  0  0  0  0  0  0  0  0  0  0  0
    4.0938    0.2458   -0.4956 C   0  0  0  0  0  0  0  0  0  0  0  0
    5.2915   -0.5412   -0.0802 C   0  0  0  0  0  0  0  0  0  0  0  0
    6.6187    0.0839   -0.3750 C   0  0  0  0  0  0  0  0  0  0  0  0
    6.8779    1.4038    0.2590 C   0  0  0  0  0  0  0  0  0  0  0  0
   -4.4119   -1.4881    1.3061 C   0  0  0  0  0  0  0  0  0  0  0  0
   -4.5206   -2.1627   -1.0556 C   0  0  0  0  0  0  0  0  0  0  0  0
   -2.8673    2.2651   -0.9267 C   0  0  0  0  0  0  0  0  0  0  0  0
    0.5015   -1.1313    1.3605 C   0  0  0  0  0  0  0  0  0  0  0  0
    5.2858   -0.8731    1.4007 C   0  0  0  0  0  0  0  0  0  0  0  0
    5.9907    2.3965   -0.1017 O   0  0  0  0  0  0  0  0  0  0  0  0
    8.1972    1.8342    0.0050 O   0  0  0  0  0  0  0  0  0  0  0  0
   -5.1100   -1.8368   -1.1658 H   0  0  0  0  0  0  0  0  0  0  0  0
   -5.5634   -0.6674    0.1488 H   0  0  0  0  0  0  0  0  0  0  0  0
   -6.1389    0.2211   -2.0696 H   0  0  0  0  0  0  0  0  0  0  0  0
   -4.4502    0.2738   -2.5637 H   0  0  0  0  0  0  0  0  0  0  0  0
   -4.9414    2.3960   -1.6268 H   0  0  0  0  0  0  0  0  0  0  0  0
   -6.0040    1.7122   -0.3981 H   0  0  0  0  0  0  0  0  0  0  0  0
   -4.3217    2.2466    0.9815 H   0  0  0  0  0  0  0  0  0  0  0  0
   -4.2979    0.0946    1.3307 H   0  0  0  0  0  0  0  0  0  0  0  0
   -2.4735   -0.2807    2.4530 H   0  0  0  0  0  0  0  0  0  0  0  0
   -2.7713    1.4303    2.3348 H   0  0  0  0  0  0  0  0  0  0  0  0
   -0.6640    1.7579    0.9922 H   0  0  0  0  0  0  0  0  0  0  0  0
   -0.4860    0.9545    2.5333 H   0  0  0  0  0  0  0  0  0  0  0  0
   -0.2276   -0.4354   -0.1580 H   0  0  0  0  0  0  0  0  0  0  0  0
    1.6814    0.5475    1.9256 H   0  0  0  0  0  0  0  0  0  0  0  0
    1.4160    1.2929    0.3279 H   0  0  0  0  0  0  0  0  0  0  0  0
    2.5034   -1.5155    0.9364 H   0  0  0  0  0  0  0  0  0  0  0  0
    2.0782   -0.8549   -0.7308 H   0  0  0  0  0  0  0  0  0  0  0  0
    3.6874    1.0222   -0.3045 H   0  0  0  0  0  0  0  0  0  0  0  0
    3.9957    0.4131    1.3405 H   0  0  0  0  0  0  0  0  0  0  0  0
    4.6162   -1.0256   -1.3228 H   0  0  0  0  0  0  0  0  0  0  0  0
    6.9455   -0.8629   -0.6177 H   0  0  0  0  0  0  0  0  0  0  0  0
    6.4559    0.0648    0.8384 H   0  0  0  0  0  0  0  0  0  0  0  0
    7.3823    1.4228   -1.0292 H   0  0  0  0  0  0  0  0  0  0  0  0
   -2.2754   -2.5682    0.1872 H   0  0  0  0  0  0  0  0  0  0  0  0
   -3.2413   -1.9204    1.6073 H   0  0  0  0  0  0  0  0  0  0  0  0
   -4.0899   -2.7332    0.2942 H   0  0  0  0  0  0  0  0  0  0  0  0
   -2.2542    0.0456   -1.9573 H   0  0  0  0  0  0  0  0  0  0  0  0
   -1.8159   -1.6342   -1.3819 H   0  0  0  0  0  0  0  0  0  0  0  0
   -3.2701   -1.3364   -2.2901 H   0  0  0  0  0  0  0  0  0  0  0  0
   -2.5033    3.3658    0.3438 H   0  0  0  0  0  0  0  0  0  0  0  0
   -3.3554    3.2651   -1.1841 H   0  0  0  0  0  0  0  0  0  0  0  0
   -2.0022    2.1627   -0.9537 H   0  0  0  0  0  0  0  0  0  0  0  0
    0.0023   -2.3662    0.8665 H   0  0  0  0  0  0  0  0  0  0  0  0
   -0.9331   -1.7061    2.2182 H   0  0  0  0  0  0  0  0  0  0  0  0
    0.9091   -1.7022    2.2319 H   0  0  0  0  0  0  0  0  0  0  0  0
    4.2009   -2.7982    0.0439 H   0  0  0  0  0  0  0  0  0  0  0  0
    4.9226   -2.0069    1.5541 H   0  0  0  0  0  0  0  0  0  0  0  0
    5.9502   -2.5066    0.1939 H   0  0  0  0  0  0  0  0  0  0  0  0
    6.7327    0.4695   -2.8043 H   0  0  0  0  0  0  0  0  0  0  0  0
    6.0638    3.0612   -0.7422 H   0  0  0  0  0  0  0  0  0  0  0  0
   -6.5126   -0.7949   -1.0173 H   0  0  0  0  0  0  0  0  0  0  0  0
   -6.4659   -0.3720    0.7036 H   0  0  0  0  0  0  0  0  0  0  0  0
   -5.3963    1.3865   -1.5542 H   0  0  0  0  0  0  0  0  0  0  0  0
   -6.7248    1.6479   -0.3167 H   0  0  0  0  0  0  0  0  0  0  0  0
   -4.8650    2.8037    0.5614 H   0  0  0  0  0  0  0  0  0  0  0  0
   -5.0476    1.2511    1.4697 H   0  0  0  0  0  0  0  0  0  0  0  0
   -2.7002    1.3250    0.9790 H   0  0  0  0  0  0  0  0  0  0  0  0
   -3.3641   -0.0135   -1.5957 H   0  0  0  0  0  0  0  0  0  0  0  0
   -2.0615   -1.8273   -0.5343 H   0  0  0  0  0  0  0  0  0  0  0  0
   -2.0987   -0.9316    1.0049 H   0  0  0  0  0  0  0  0  0  0  0  0
   -0.7786    0.1505   -1.5674 H   0  0  0  0  0  0  0  0  0  0  0  0
   -0.8341    0.9464    0.0576 H   0  0  0  0  0  0  0  0  0  0  0  0
    0.4837   -1.6433   -0.7418 H   0  0  0  0  0  0  0  0  0  0  0  0
    1.4994    1.0690    0.1237 H   0  0  0  0  0  0  0  0  0  0  0  0
    1.5226    0.4351   -1.5398 H   0  0  0  0  0  0  0  0  0  0  0  0
    2.8991   -0.6210    1.0027 H   0  0  0  0  0  0  0  0  0  0  0  0
    2.9114   -1.5213   -0.6214 H   0  0  0  0  0  0  0  0  0  0  0  0
    4.0752    1.1899    0.1255 H   0  0  0  0  0  0  0  0  0  0  0  0
    4.1520    0.5142   -1.5473 H   0  0  0  0  0  0  0  0  0  0  0  0
    5.2844   -1.5235   -0.6174 H   0  0  0  0  0  0  0  0  0  0  0  0
    6.7307    0.1697   -1.4775 H   0  0  0  0  0  0  0  0  0  0  0  0
    7.3930   -0.6579   -0.0508 H   0  0  0  0  0  0  0  0  0  0  0  0
    6.8229    1.3203    1.3666 H   0  0  0  0  0  0  0  0  0  0  0  0
   -3.9346   -2.5072    1.3136 H   0  0  0  0  0  0  0  0  0  0  0  0
   -3.8888   -0.7873    1.9695 H   0  0  0  0  0  0  0  0  0  0  0  0
   -5.4289   -1.6491    1.7270 H   0  0  0  0  0  0  0  0  0  0  0  0
   -4.1883   -1.8284   -2.0487 H   0  0  0  0  0  0  0  0  0  0  0  0
   -3.9062   -2.9812   -0.6845 H   0  0  0  0  0  0  0  0  0  0  0  0
   -5.5688   -2.5301   -1.1796 H   0  0  0  0  0  0  0  0  0  0  0  0
   -2.0653    2.9140   -0.5452 H   0  0  0  0  0  0  0  0  0  0  0  0
   -3.6847    2.9706   -1.2567 H   0  0  0  0  0  0  0  0  0  0  0  0
   -2.5122    1.7807   -1.8542 H   0  0  0  0  0  0  0  0  0  0  0  0
    0.6739   -0.2900    2.0355 H   0  0  0  0  0  0  0  0  0  0  0  0
    1.3568   -1.8683    1.4322 H   0  0  0  0  0  0  0  0  0  0  0  0
   -0.3728   -1.6930    1.7196 H   0  0  0  0  0  0  0  0  0  0  0  0
    4.6521   -1.7771    1.6165 H   0  0  0  0  0  0  0  0  0  0  0  0
    6.3219   -1.1712    1.6751 H   0  0  0  0  0  0  0  0  0  0  0  0
    5.0063   -0.0326    2.0356 H   0  0  0  0  0  0  0  0  0  0  0  0
    6.4722    3.2608   -0.0942 H   0  0  0  0  0  0  0  0  0  0  0  0
    8.7919    1.0708    0.2335 H   0  0  0  0  0  0  0  0  0  0  0  0
  1  2  1  0
  2  3  1  0
  3  4  1  0
  4  5  1  0
  1  6  1  0
  5  6  1  0
  6  7  1  0
  7  8  1  0
  8  9  1  0
  9 10  1  0
 10 11  1  0
 11 12  1  0
 12 13  1  0
 13 14  1  0
 14 15  1  0
  1 16  1  0
  1 17  1  0
  5 18  1  0
  9 19  1  0
 13 20  1  0
 15 21  1  0
 15 22  1  0
 23 24  1  0
 24 25  1  0
 25 26  1  0
 26 27  1  0
 23 28  1  0
 27 28  1  0
 28 29  1  0
 29 30  1  0
 30 31  1  0
 31 32  1  0
 32 33  1  0
 33 34  1  0
 34 35  1  0
 35 36  1  0
 36 37  1  0
 23 38  1  0
 23 39  1  0
 27 40  1  0
 31 41  1  0
 35 42  1  0
 37 43  1  0
 37 44  1  0
  2 45  1  0
  2 46  1  0
  3 47  1  0
  3 48  1  0
  4 49  1  0
  4 50  1  0
  5 51  1  0
  6 52  1  0
  7 53  1  0
  7 54  1  0
  8 55  1  0
  8 56  1  0
  9 57  1  6
 10 58  1  0
 10 59  1  0
 11 60  1  0
 11 61  1  0
 12 62  1  0
 12 63  1  0
 13 64  1  0
 14 65  1  0
 14 66  1  0
 15 67  1  0
 16 68  1  0
 16 69  1  0
 16 70  1  0
 17 71  1  0
 17 72  1  0
 17 73  1  0
 18 74  1  0
 18 75  1  0
 18 76  1  0
 19 77  1  0
 19 78  1  0
 19 79  1  0
 20 80  1  0
 20 81  1  0
 20 82  1  0
 21 83  1  0
 22 84  1  0
 24 85  1  0
 24 86  1  0
 25 87  1  0
 25 88  1  0
 26 89  1  0
 26 90  1  0
 27 91  1  0
 28 92  1  0
 29 93  1  0
 29 94  1  0
 30 95  1  0
 30 96  1  0
 31 97  1  0
 32 98  1  0
 32 99  1  0
 33100  1  0
 33101  1  0
 34102  1  0
 34103  1  0
 35104  1  0
 36105  1  0
 36106  1  0
 37107  1  0
 38108  1  0
 38109  1  0
 38110  1  0
 39111  1  0
 39112  1  0
 39113  1  0
 40114  1  0
 40115  1  0
 40116  1  0
 41117  1  0
 41118  1  0
 41119  1  0
 42120  1  0
 42121  1  0
 42122  1  0
 43123  1  0
 44124  1  0
M  END
>  <PDBID>  (1) 
3FC6

>  <PDB ID>  (1) 
3FC6

>  <Generic Name>  (1) 
Tretinoin

>  <Brand Name>  (1) 
Atralin#Avita#Biacna Topical Gel#Clindamycin Phosphate and Tretinoin#Dr. Throwers Hydrotet#Dr. Throwers Pbc No. 1#Obagi#Refissa#Rejuva-A#Renova#Retin-A#Retin-A Micro#Retisol-A#Solagé#Stie Vaa Sol 0.05%#Stieva-A Cream#Stieva-A Gel#Stieva-A Solution#Stievaa Gel 0.01%#Stievamycin Forte#Stievamycin Mild#Stievamycin Regular#Tretin.x#Tretinoin#Tretinoin Cream#Tretinoin Gel#Tretinoin Gel Microsphere#Tretinx#Tri-luma#Veltin#Vesanoid#Vitamin A Acid 0.01% Cream#Vitamin A Acid 0.01% Gel#Vitamin A Acid 0.025% Cream#Vitamin A Acid 0.025% Gel#Vitamin A Acid 0.05% Cream#Vitamin A Acid 0.05% Gel#Vitamin A Acid 0.1% Cream#Vitinoin - Crm 0.025%#Vitinoin - Crm 0.05%#Vitinoin - Crm 0.1%#Vitinoin Gel - 0.025%#Ziana#Aberel#Aberela#Airol#Dermairol#Eudyna#Kétrel#Retisol-A#Sotret#Stieva-A#Vitinoin

>  <DrugBank ID>  (1) 
DB00755

>  <ATC Codes>  (1) 
L01XX14#D10AD01#D10AD51

>  <Ligand ID>  (1) 
3KV,REA

>  <Target Name>  (1) 
Retinoic acid receptor RXR-beta

>  <UniProt ID>  (1) 
P28702

>  <PDB ID.1>  (1) 
3FC6

>  <Seq. Identity>  (1) 
87%

$$$$
