PDB_DB00428_07
     RDKit          3D

 37 37  0  0  0  0  0  0  0  0999 V2000
    0.1928   -0.9911   -2.0283 O   0  0  0  0  0  0  0  0  0  0  0  0
    0.8370   -0.8540   -0.7720 C   0  0  1  0  0  0  0  0  0  0  0  0
    2.2650   -0.6218   -1.0703 C   0  0  2  0  0  0  0  0  0  0  0  0
    2.9198   -1.8832   -1.0439 O   0  0  0  0  0  0  0  0  0  0  0  0
    3.0445    0.2841   -0.2042 C   0  0  1  0  0  0  0  0  0  0  0  0
    3.9500    1.1297   -1.0758 C   0  0  0  0  0  0  0  0  0  0  0  0
    4.7922    1.9451   -0.2966 O   0  0  0  0  0  0  0  0  0  0  0  0
    2.2806    1.1569    0.5584 O   0  0  0  0  0  0  0  0  0  0  0  0
    1.2604    0.4856    1.1996 C   0  0  1  0  0  0  0  0  0  0  0  0
    0.6904    1.1860    2.2247 O   0  0  0  0  0  0  0  0  0  0  0  0
    0.2218    0.1789    0.0901 C   0  0  2  0  0  0  0  0  0  0  0  0
   -1.0260   -0.0812    0.6889 N   0  0  0  0  0  0  0  0  0  0  0  0
   -2.1005   -0.2867   -0.1886 C   0  0  0  0  0  0  0  0  0  0  0  0
   -1.9900   -1.4616   -0.8843 O   0  0  0  0  0  0  0  0  0  0  0  0
   -3.4036   -0.3294    0.5035 N   0  0  0  0  0  0  0  0  0  0  0  0
   -4.3825   -0.5523   -0.5627 C   0  0  0  0  0  0  0  0  0  0  0  0
   -3.6949    0.8911    1.0881 N   0  0  0  0  0  0  0  0  0  0  0  0
   -4.8654    1.4200    0.6666 O   0  0  0  0  0  0  0  0  0  0  0  0
    0.2854   -1.9159   -2.3559 H   0  0  0  0  0  0  0  0  0  0  0  0
    0.7018   -1.8553   -0.2970 H   0  0  0  0  0  0  0  0  0  0  0  0
    2.3779   -0.3142   -2.1553 H   0  0  0  0  0  0  0  0  0  0  0  0
    3.2472   -1.9899   -0.1173 H   0  0  0  0  0  0  0  0  0  0  0  0
    3.6959   -0.2897    0.5141 H   0  0  0  0  0  0  0  0  0  0  0  0
    4.5468    0.4520   -1.7287 H   0  0  0  0  0  0  0  0  0  0  0  0
    3.2645    1.7657   -1.7092 H   0  0  0  0  0  0  0  0  0  0  0  0
    5.1723    1.3080    0.3901 H   0  0  0  0  0  0  0  0  0  0  0  0
    1.6672   -0.5114    1.4977 H   0  0  0  0  0  0  0  0  0  0  0  0
    0.9510    0.7275    3.0850 H   0  0  0  0  0  0  0  0  0  0  0  0
    0.1372    1.1259   -0.4950 H   0  0  0  0  0  0  0  0  0  0  0  0
   -1.0371   -0.5493    1.5981 H   0  0  0  0  0  0  0  0  0  0  0  0
   -2.2107    0.6049   -0.8711 H   0  0  0  0  0  0  0  0  0  0  0  0
   -2.2707   -2.2136   -0.2826 H   0  0  0  0  0  0  0  0  0  0  0  0
   -4.4073   -1.5894   -0.9131 H   0  0  0  0  0  0  0  0  0  0  0  0
   -4.0555    0.1091   -1.4136 H   0  0  0  0  0  0  0  0  0  0  0  0
   -5.3953   -0.1985   -0.2703 H   0  0  0  0  0  0  0  0  0  0  0  0
   -2.9276    1.5916    1.0373 H   0  0  0  0  0  0  0  0  0  0  0  0
   -4.7347    2.1265   -0.0196 H   0  0  0  0  0  0  0  0  0  0  0  0
  1  2  1  0
  2  3  1  0
  3  4  1  0
  3  5  1  0
  5  6  1  0
  6  7  1  0
  5  8  1  0
  8  9  1  0
  9 10  1  0
  2 11  1  0
  9 11  1  0
 11 12  1  0
 12 13  1  0
 13 14  1  0
 13 15  1  0
 15 16  1  0
 15 17  1  0
 17 18  1  0
  1 19  1  0
  2 20  1  1
  3 21  1  6
  4 22  1  0
  5 23  1  1
  6 24  1  0
  6 25  1  0
  7 26  1  0
  9 27  1  1
 10 28  1  0
 11 29  1  6
 12 30  1  0
 13 31  1  0
 14 32  1  0
 16 33  1  0
 16 34  1  0
 16 35  1  0
 17 36  1  0
 18 37  1  0
M  END
>  <PDBID>  (1) 
2W4X

>  <PDB ID>  (1) 
2W4X

>  <Generic Name>  (1) 
Streptozocin

>  <Brand Name>  (1) 
Zanosar#Zanosar Sterile Powder

>  <DrugBank ID>  (1) 
DB00428

>  <ATC Codes>  (1) 
L01AD04

>  <Ligand ID>  (1) 
STZ

>  <Target Name>  (1) 
O-GlcNAcase BT_4395

>  <UniProt ID>  (1) 
Q89ZI2

>  <PDB ID.1>  (1) 
2W4X

>  <Seq. Identity>  (1) 
100%

$$$$
