PDB_DB00360_00
     RDKit          3D

 38 39  0  0  0  0  0  0  0  0999 V2000
    2.7411    0.1814    1.0237 N   0  0  0  0  0  0  0  0  0  0  0  0
    3.5082    0.2153   -0.1843 C   0  0  2  0  0  0  0  0  0  0  0  0
    3.6629    1.5766   -0.7008 N   0  0  0  0  0  0  0  0  0  0  0  0
    3.0553   -0.6957   -1.1991 N   0  0  0  0  0  0  0  0  0  0  0  0
    1.6966   -0.5207   -1.5952 C   0  0  1  0  0  0  0  0  0  0  0  0
    1.1359   -1.8088   -1.7588 O   0  0  0  0  0  0  0  0  0  0  0  0
    0.9469    0.1624   -0.5160 C   0  0  2  0  0  0  0  0  0  0  0  0
    1.4400   -0.3754    0.8114 C   0  0  2  0  0  0  0  0  0  0  0  0
   -0.4852   -0.0496   -0.5466 N   0  0  0  0  0  0  0  0  0  0  0  0
    0.5185   -0.1680    1.8794 N   0  0  0  0  0  0  0  0  0  0  0  0
   -1.0238    0.9755    0.3340 C   0  0  2  0  0  0  0  0  0  0  0  0
   -0.4031    0.9230    1.6827 C   0  0  0  0  0  0  0  0  0  0  0  0
   -2.5225    0.9985    0.3264 C   0  0  1  0  0  0  0  0  0  0  0  0
   -2.9587    1.2564   -0.9761 O   0  0  0  0  0  0  0  0  0  0  0  0
   -3.1661   -0.2613    0.7927 C   0  0  2  0  0  0  0  0  0  0  0  0
   -2.9143   -1.4029   -0.1850 C   0  0  0  0  0  0  0  0  0  0  0  0
   -4.5629   -0.0432    0.7508 O   0  0  0  0  0  0  0  0  0  0  0  0
    3.2464   -0.2630    1.8271 H   0  0  0  0  0  0  0  0  0  0  0  0
    4.5516   -0.1078    0.0845 H   0  0  0  0  0  0  0  0  0  0  0  0
    3.5566    2.2730    0.0744 H   0  0  0  0  0  0  0  0  0  0  0  0
    4.5886    1.6588   -1.1771 H   0  0  0  0  0  0  0  0  0  0  0  0
    3.3606   -1.6633   -1.0769 H   0  0  0  0  0  0  0  0  0  0  0  0
    1.6060   -0.0392   -2.5901 H   0  0  0  0  0  0  0  0  0  0  0  0
    1.6573   -2.3186   -2.4467 H   0  0  0  0  0  0  0  0  0  0  0  0
    1.1169    1.2572   -0.5445 H   0  0  0  0  0  0  0  0  0  0  0  0
    1.5650   -1.4749    0.6788 H   0  0  0  0  0  0  0  0  0  0  0  0
   -0.8618    0.1606   -1.5127 H   0  0  0  0  0  0  0  0  0  0  0  0
   -0.0231   -1.0542    2.1006 H   0  0  0  0  0  0  0  0  0  0  0  0
   -0.6996    1.9516   -0.1397 H   0  0  0  0  0  0  0  0  0  0  0  0
   -1.1678    0.8170    2.5089 H   0  0  0  0  0  0  0  0  0  0  0  0
    0.1468    1.8554    1.9398 H   0  0  0  0  0  0  0  0  0  0  0  0
   -2.9202    1.8297    0.9452 H   0  0  0  0  0  0  0  0  0  0  0  0
   -3.9407    1.4462   -0.9085 H   0  0  0  0  0  0  0  0  0  0  0  0
   -2.9395   -0.5391    1.8235 H   0  0  0  0  0  0  0  0  0  0  0  0
   -1.9222   -1.8739   -0.0296 H   0  0  0  0  0  0  0  0  0  0  0  0
   -2.9269   -1.0246   -1.2275 H   0  0  0  0  0  0  0  0  0  0  0  0
   -3.7425   -2.1452   -0.1123 H   0  0  0  0  0  0  0  0  0  0  0  0
   -4.9202   -0.2257   -0.1564 H   0  0  0  0  0  0  0  0  0  0  0  0
  1  2  1  0
  2  3  1  0
  2  4  1  0
  4  5  1  0
  5  6  1  0
  5  7  1  0
  1  8  1  0
  7  8  1  0
  7  9  1  0
  8 10  1  0
  9 11  1  0
 10 12  1  0
 11 12  1  0
 11 13  1  0
 13 14  1  0
 13 15  1  0
 15 16  1  0
 15 17  1  0
  1 18  1  0
  2 19  1  1
  3 20  1  0
  3 21  1  0
  4 22  1  0
  5 23  1  6
  6 24  1  0
  7 25  1  1
  8 26  1  6
  9 27  1  0
 10 28  1  0
 11 29  1  6
 12 30  1  0
 12 31  1  0
 13 32  1  1
 14 33  1  0
 15 34  1  1
 16 35  1  0
 16 36  1  0
 16 37  1  0
 17 38  1  0
M  END
>  <PDBID>  (1) 
1J8U

>  <PDB ID>  (1) 
1J8U

>  <Generic Name>  (1) 
Sapropterin

>  <Brand Name>  (1) 
Kuvan#BH4#Biopten

>  <DrugBank ID>  (1) 
DB00360

>  <ATC Codes>  (1) 
A16AX07

>  <Ligand ID>  (1) 
BH4,BHS,H4B,THB

>  <Target Name>  (1) 
Tryptophan 5-hydroxylase 1

>  <UniProt ID>  (1) 
P17752

>  <PDB ID.1>  (1) 
1J8U

>  <Seq. Identity>  (1) 
65%

$$$$
