PDB_DB01201_00
     RDKit          3D

302312  0  0  0  0  0  0  0  0999 V2000
    1.8843    0.4656    1.1800 C   0  0  0  0  0  0  0  0  0  0  0  0
    2.3465   -0.1124   -0.1730 C   0  0  0  0  0  0  0  0  0  0  0  0
    3.1803    0.9730   -0.7803 C   0  0  2  0  0  0  0  0  0  0  0  0
    2.2080    2.0387   -1.2419 C   0  0  0  0  0  0  0  0  0  0  0  0
    0.8460    3.8783   -0.2175 C   0  0  0  0  0  0  0  0  0  0  0  0
    0.6094    4.5889    1.0807 C   0  0  0  0  0  0  0  0  0  0  0  0
    1.1767    3.8738    2.2631 C   0  0  0  0  0  0  0  0  0  0  0  0
    0.9121    2.4065    2.3095 C   0  0  0  0  0  0  0  0  0  0  0  0
    1.0665    1.7138    0.9729 C   0  0  0  0  0  0  0  0  0  0  0  0
    1.6931    2.6902    0.0324 C   0  0  1  0  0  0  0  0  0  0  0  0
   -0.5068    3.6429   -0.7511 C   0  0  2  0  0  0  0  0  0  0  0  0
   -1.4494    4.0847    0.3331 C   0  0  2  0  0  0  0  0  0  0  0  0
   -2.5232    5.0258   -0.2060 C   0  0  0  0  0  0  0  0  0  0  0  0
    0.5266    4.4918    3.5093 C   0  0  0  0  0  0  0  0  0  0  0  0
    2.4951   -2.5466   -0.3041 C   0  0  0  0  0  0  0  0  0  0  0  0
    1.4032   -2.5599   -1.2943 C   0  0  0  0  0  0  0  0  0  0  0  0
    0.0092   -2.5871   -0.6695 C   0  0  0  0  0  0  0  0  0  0  0  0
   -0.8273   -3.7147   -1.1627 C   0  0  0  0  0  0  0  0  0  0  0  0
   -2.3271   -3.3936   -1.1269 C   0  0  0  0  0  0  0  0  0  0  0  0
   -2.7682   -3.4880    0.3034 C   0  0  1  0  0  0  0  0  0  0  0  0
   -4.1859   -3.1920    0.5742 C   0  0  1  0  0  0  0  0  0  0  0  0
   -5.0618   -2.8681   -0.5966 C   0  0  2  0  0  0  0  0  0  0  0  0
   -5.5211   -1.4581   -0.6881 C   0  0  2  0  0  0  0  0  0  0  0  0
   -6.7612   -1.0713   -0.0235 C   0  0  2  0  0  0  0  0  0  0  0  0
   -6.7908    0.4148    0.3846 C   0  0  1  0  0  0  0  0  0  0  0  0
   -5.7960    0.7991    1.3746 C   0  0  1  0  0  0  0  0  0  0  0  0
   -5.6381    2.3070    1.3661 C   0  0  2  0  0  0  0  0  0  0  0  0
   -4.2172    2.6391    1.7953 C   0  0  0  0  0  0  0  0  0  0  0  0
   -3.2938    2.6720    0.5670 C   0  0  0  0  0  0  0  0  0  0  0  0
    1.5546   -3.8573   -2.1109 C   0  0  0  0  0  0  0  0  0  0  0  0
   -2.3625   -4.8880    0.7846 C   0  0  0  0  0  0  0  0  0  0  0  0
   -6.1861   -3.8812   -0.7848 C   0  0  0  0  0  0  0  0  0  0  0  0
   -7.2898   -1.9104    1.0905 C   0  0  0  0  0  0  0  0  0  0  0  0
   -6.1492    0.4372    2.8120 C   0  0  0  0  0  0  0  0  0  0  0  0
   -7.7682    1.7644   -1.2392 C   0  0  0  0  0  0  0  0  0  0  0  0
   -8.1155    1.1220   -2.5976 C   0  0  0  0  0  0  0  0  0  0  0  0
   -7.4279    3.7407    1.7831 C   0  0  0  0  0  0  0  0  0  0  0  0
    9.7229   -1.3941   -0.1844 C   0  0  0  0  0  0  0  0  0  0  0  0
    7.5554   -2.2282   -0.7779 C   0  0  0  0  0  0  0  0  0  0  0  0
    6.5229   -2.1679   -1.8616 C   0  0  0  0  0  0  0  0  0  0  0  0
    7.0882    0.0921   -2.3280 C   0  0  0  0  0  0  0  0  0  0  0  0
    8.1766   -0.0396   -1.2896 C   0  0  0  0  0  0  0  0  0  0  0  0
    4.1442    0.5433   -1.8101 C   0  0  0  0  0  0  0  0  0  0  0  0
   10.3231   -2.7522    0.0170 C   0  0  0  0  0  0  0  0  0  0  0  0
   10.8707   -0.5658   -0.6673 C   0  0  0  0  0  0  0  0  0  0  0  0
   11.7613   -2.5163    0.4033 C   0  0  0  0  0  0  0  0  0  0  0  0
   12.0192   -1.0340    0.2361 C   0  0  0  0  0  0  0  0  0  0  0  0
    3.0263   -1.3190    0.1068 N   0  0  0  0  0  0  0  0  0  0  0  0
    5.0722   -0.4117   -1.2073 N   0  0  0  0  0  0  0  0  0  0  0  0
    6.0184   -0.8583   -2.1296 N   0  0  0  0  0  0  0  0  0  0  0  0
    8.6733   -1.3860   -1.1795 N   0  0  0  0  0  0  0  0  0  0  0  0
    1.0950   -0.5222    1.7668 O   0  0  0  0  0  0  0  0  0  0  0  0
    1.8298    1.8533    3.2249 O   0  0  0  0  0  0  0  0  0  0  0  0
   -0.7115    4.8153    1.2504 O   0  0  0  0  0  0  0  0  0  0  0  0
   -0.7605    2.3941   -1.2589 O   0  0  0  0  0  0  0  0  0  0  0  0
   -2.0665    3.0694    1.0119 O   0  0  0  0  0  0  0  0  0  0  0  0
   -6.5611    2.8105    2.2913 O   0  0  0  0  0  0  0  0  0  0  0  0
   -6.6408    1.1191   -0.8014 O   0  0  0  0  0  0  0  0  0  0  0  0
   -7.6214    3.1152   -1.5154 O   0  0  0  0  0  0  0  0  0  0  0  0
   -5.6244   -1.1232   -2.0668 O   0  0  0  0  0  0  0  0  0  0  0  0
   -4.7493   -4.3359    1.1892 O   0  0  0  0  0  0  0  0  0  0  0  0
    2.0414   -3.2380    0.8442 O   0  0  0  0  0  0  0  0  0  0  0  0
    2.8987    2.9865   -1.9768 O   0  0  0  0  0  0  0  0  0  0  0  0
    1.8672    0.3962    1.2039 C   0  0  0  0  0  0  0  0  0  0  0  0
    2.3766    0.0879   -0.2116 C   0  0  0  0  0  0  0  0  0  0  0  0
    3.3939    1.1361   -0.5007 C   0  0  2  0  0  0  0  0  0  0  0  0
    2.7033    2.4541   -0.6755 C   0  0  0  0  0  0  0  0  0  0  0  0
    0.9293    3.9303    0.0907 C   0  0  0  0  0  0  0  0  0  0  0  0
    0.3880    4.3219    1.4436 C   0  0  0  0  0  0  0  0  0  0  0  0
    1.2552    3.9062    2.5739 C   0  0  0  0  0  0  0  0  0  0  0  0
    1.7602    2.5018    2.4826 C   0  0  0  0  0  0  0  0  0  0  0  0
    1.2558    1.7686    1.2792 C   0  0  0  0  0  0  0  0  0  0  0  0
    1.3534    2.5064   -0.0096 C   0  0  0  0  0  0  0  0  0  0  0  0
   -0.3086    4.2034   -0.7766 C   0  0  2  0  0  0  0  0  0  0  0  0
   -1.4088    3.8160    0.1987 C   0  0  2  0  0  0  0  0  0  0  0  0
   -2.4551    4.8967    0.1294 C   0  0  0  0  0  0  0  0  0  0  0  0
    0.5037    4.1719    3.8739 C   0  0  0  0  0  0  0  0  0  0  0  0
    2.1222   -2.0529   -1.2683 C   0  0  0  0  0  0  0  0  0  0  0  0
    1.3305   -3.1923   -0.7160 C   0  0  0  0  0  0  0  0  0  0  0  0
   -0.1218   -2.8594   -0.5063 C   0  0  0  0  0  0  0  0  0  0  0  0
   -0.9610   -3.9604   -1.0672 C   0  0  0  0  0  0  0  0  0  0  0  0
   -2.4507   -3.5935   -1.0636 C   0  0  0  0  0  0  0  0  0  0  0  0
   -2.9237   -3.6938    0.3469 C   0  0  1  0  0  0  0  0  0  0  0  0
   -4.3368   -3.3460    0.5962 C   0  0  1  0  0  0  0  0  0  0  0  0
   -5.1469   -2.9348   -0.5939 C   0  0  2  0  0  0  0  0  0  0  0  0
   -5.5081   -1.4928   -0.5622 C   0  0  2  0  0  0  0  0  0  0  0  0
   -6.8296   -1.1237   -0.0461 C   0  0  2  0  0  0  0  0  0  0  0  0
   -6.8739    0.3598    0.3411 C   0  0  1  0  0  0  0  0  0  0  0  0
   -5.9988    0.7323    1.4482 C   0  0  1  0  0  0  0  0  0  0  0  0
   -5.2956    2.0367    1.1443 C   0  0  2  0  0  0  0  0  0  0  0  0
   -3.7872    1.8802    1.0994 C   0  0  0  0  0  0  0  0  0  0  0  0
   -3.2078    2.3988   -0.1992 C   0  0  0  0  0  0  0  0  0  0  0  0
    1.9443   -3.7683    0.5680 C   0  0  0  0  0  0  0  0  0  0  0  0
   -2.5912   -5.1167    0.8217 C   0  0  0  0  0  0  0  0  0  0  0  0
   -6.3208   -3.8571   -0.8550 C   0  0  0  0  0  0  0  0  0  0  0  0
   -7.4285   -1.9554    1.0252 C   0  0  0  0  0  0  0  0  0  0  0  0
   -6.7183    0.9209    2.7822 C   0  0  0  0  0  0  0  0  0  0  0  0
   -7.8232    1.7744   -1.2144 C   0  0  0  0  0  0  0  0  0  0  0  0
   -8.1862    1.2260   -2.6076 C   0  0  0  0  0  0  0  0  0  0  0  0
   -6.3011    4.1033    1.5383 C   0  0  0  0  0  0  0  0  0  0  0  0
    9.3522   -1.4578   -0.2758 C   0  0  0  0  0  0  0  0  0  0  0  0
    7.8441   -2.3200   -1.8975 C   0  0  0  0  0  0  0  0  0  0  0  0
    6.4053   -2.1322   -2.1409 C   0  0  0  0  0  0  0  0  0  0  0  0
    7.0287    0.1393   -2.6096 C   0  0  0  0  0  0  0  0  0  0  0  0
    7.9949    0.0599   -1.4467 C   0  0  0  0  0  0  0  0  0  0  0  0
    4.3329    0.8294   -1.6335 C   0  0  0  0  0  0  0  0  0  0  0  0
   10.3412   -2.5727   -0.3597 C   0  0  0  0  0  0  0  0  0  0  0  0
   10.1704   -0.2652    0.1464 C   0  0  0  0  0  0  0  0  0  0  0  0
   11.5884   -2.1452    0.3685 C   0  0  0  0  0  0  0  0  0  0  0  0
   11.2362   -0.8417    1.0490 C   0  0  0  0  0  0  0  0  0  0  0  0
    2.8221   -1.2655   -0.2714 N   0  0  0  0  0  0  0  0  0  0  0  0
    5.0720   -0.3630   -1.3449 N   0  0  0  0  0  0  0  0  0  0  0  0
    5.9623   -0.7752   -2.3044 N   0  0  0  0  0  0  0  0  0  0  0  0
    8.6295   -1.2157   -1.5041 N   0  0  0  0  0  0  0  0  0  0  0  0
    1.0732   -0.6021    1.7107 O   0  0  0  0  0  0  0  0  0  0  0  0
    3.1251    2.4758    2.6525 O   0  0  0  0  0  0  0  0  0  0  0  0
   -0.8749    3.7955    1.4553 O   0  0  0  0  0  0  0  0  0  0  0  0
   -0.3036    3.3950   -1.8949 O   0  0  0  0  0  0  0  0  0  0  0  0
   -1.8528    2.5681   -0.1334 O   0  0  0  0  0  0  0  0  0  0  0  0
   -5.6814    3.0010    2.0619 O   0  0  0  0  0  0  0  0  0  0  0  0
   -6.6870    1.1248   -0.7857 O   0  0  0  0  0  0  0  0  0  0  0  0
   -7.7282    3.1327   -1.3599 O   0  0  0  0  0  0  0  0  0  0  0  0
   -5.4054   -0.9559   -1.8737 O   0  0  0  0  0  0  0  0  0  0  0  0
   -4.9717   -4.4879    1.1398 O   0  0  0  0  0  0  0  0  0  0  0  0
    2.9993   -2.5317   -2.2398 O   0  0  0  0  0  0  0  0  0  0  0  0
    2.5026    2.6530   -2.0447 O   0  0  0  0  0  0  0  0  0  0  0  0
    2.7712    0.6234    1.7919 H   0  0  0  0  0  0  0  0  0  0  0  0
    1.4012   -0.2316   -0.7444 H   0  0  0  0  0  0  0  0  0  0  0  0
    3.7778    1.4529    0.0509 H   0  0  0  0  0  0  0  0  0  0  0  0
    1.3992    1.5733   -1.8302 H   0  0  0  0  0  0  0  0  0  0  0  0
    1.4457    4.5530   -0.9009 H   0  0  0  0  0  0  0  0  0  0  0  0
    1.1202    5.5980    1.0600 H   0  0  0  0  0  0  0  0  0  0  0  0
    2.2755    4.1135    2.3707 H   0  0  0  0  0  0  0  0  0  0  0  0
   -0.0989    2.2338    2.7392 H   0  0  0  0  0  0  0  0  0  0  0  0
    0.0596    1.3730    0.6669 H   0  0  0  0  0  0  0  0  0  0  0  0
    2.6315    3.0603    0.5482 H   0  0  0  0  0  0  0  0  0  0  0  0
   -0.6754    4.3591   -1.6118 H   0  0  0  0  0  0  0  0  0  0  0  0
   -3.3238    5.1409    0.5224 H   0  0  0  0  0  0  0  0  0  0  0  0
   -2.8310    4.7719   -1.2275 H   0  0  0  0  0  0  0  0  0  0  0  0
   -2.0223    6.0347   -0.2897 H   0  0  0  0  0  0  0  0  0  0  0  0
   -0.5811    4.5371    3.3564 H   0  0  0  0  0  0  0  0  0  0  0  0
    0.8548    5.5418    3.6314 H   0  0  0  0  0  0  0  0  0  0  0  0
    0.8033    3.8719    4.3749 H   0  0  0  0  0  0  0  0  0  0  0  0
    3.3530   -3.1809   -0.6768 H   0  0  0  0  0  0  0  0  0  0  0  0
    1.4722   -1.7555   -2.0826 H   0  0  0  0  0  0  0  0  0  0  0  0
   -0.5318   -1.6358   -0.7856 H   0  0  0  0  0  0  0  0  0  0  0  0
    0.1834   -2.7522    0.4314 H   0  0  0  0  0  0  0  0  0  0  0  0
   -0.6069   -3.8533   -2.2618 H   0  0  0  0  0  0  0  0  0  0  0  0
   -0.6772   -4.6782   -0.6835 H   0  0  0  0  0  0  0  0  0  0  0  0
   -2.7772   -4.2375   -1.7265 H   0  0  0  0  0  0  0  0  0  0  0  0
   -2.4432   -2.4143   -1.5850 H   0  0  0  0  0  0  0  0  0  0  0  0
   -2.0778   -2.7976    0.8770 H   0  0  0  0  0  0  0  0  0  0  0  0
   -4.2329   -2.3068    1.2701 H   0  0  0  0  0  0  0  0  0  0  0  0
   -4.4040   -3.0393   -1.5038 H   0  0  0  0  0  0  0  0  0  0  0  0
   -4.6483   -0.8291   -0.3616 H   0  0  0  0  0  0  0  0  0  0  0  0
   -7.5948   -1.1052   -0.8004 H   0  0  0  0  0  0  0  0  0  0  0  0
   -7.8206    0.5473    0.7885 H   0  0  0  0  0  0  0  0  0  0  0  0
   -4.7745    0.3867    1.2315 H   0  0  0  0  0  0  0  0  0  0  0  0
   -5.7660    2.7475    0.3805 H   0  0  0  0  0  0  0  0  0  0  0  0
   -4.1264    3.6126    2.2791 H   0  0  0  0  0  0  0  0  0  0  0  0
   -3.8438    1.8677    2.4993 H   0  0  0  0  0  0  0  0  0  0  0  0
   -3.7666    3.2865   -0.1948 H   0  0  0  0  0  0  0  0  0  0  0  0
   -3.1926    1.5953    0.2491 H   0  0  0  0  0  0  0  0  0  0  0  0
    1.1476   -4.7210   -1.5892 H   0  0  0  0  0  0  0  0  0  0  0  0
    1.2191   -3.7228   -3.1516 H   0  0  0  0  0  0  0  0  0  0  0  0
    2.6669   -4.0449   -2.1915 H   0  0  0  0  0  0  0  0  0  0  0  0
   -2.4950   -5.5753   -0.0596 H   0  0  0  0  0  0  0  0  0  0  0  0
   -1.3494   -4.8958    1.2281 H   0  0  0  0  0  0  0  0  0  0  0  0
   -3.0581   -5.1371    1.6116 H   0  0  0  0  0  0  0  0  0  0  0  0
   -5.8714   -4.7390   -1.4353 H   0  0  0  0  0  0  0  0  0  0  0  0
   -7.0436   -3.4213   -1.2941 H   0  0  0  0  0  0  0  0  0  0  0  0
   -6.4498   -4.3614    0.1912 H   0  0  0  0  0  0  0  0  0  0  0  0
   -7.9180   -1.2306    1.7446 H   0  0  0  0  0  0  0  0  0  0  0  0
   -8.0547   -2.6714    0.7458 H   0  0  0  0  0  0  0  0  0  0  0  0
   -6.5730   -2.3743    1.7524 H   0  0  0  0  0  0  0  0  0  0  0  0
   -7.1946    0.6377    3.0573 H   0  0  0  0  0  0  0  0  0  0  0  0
   -5.5401    1.1319    3.4524 H   0  0  0  0  0  0  0  0  0  0  0  0
   -5.7854   -0.5694    3.1007 H   0  0  0  0  0  0  0  0  0  0  0  0
   -8.6395    1.6426   -0.5583 H   0  0  0  0  0  0  0  0  0  0  0  0
   -8.6422    1.8632   -3.2426 H   0  0  0  0  0  0  0  0  0  0  0  0
   -7.2028    0.8365   -3.1558 H   0  0  0  0  0  0  0  0  0  0  0  0
   -8.7184    0.2147   -2.4466 H   0  0  0  0  0  0  0  0  0  0  0  0
   -6.9081    4.6517    1.3624 H   0  0  0  0  0  0  0  0  0  0  0  0
   -8.2203    3.3470    1.1440 H   0  0  0  0  0  0  0  0  0  0  0  0
   -7.9722    4.1722    2.6789 H   0  0  0  0  0  0  0  0  0  0  0  0
    9.3760   -0.9734    0.7882 H   0  0  0  0  0  0  0  0  0  0  0  0
    7.0913   -1.8361    0.1575 H   0  0  0  0  0  0  0  0  0  0  0  0
    7.8751   -3.2872   -0.6840 H   0  0  0  0  0  0  0  0  0  0  0  0
    7.0265   -2.5245   -2.8074 H   0  0  0  0  0  0  0  0  0  0  0  0
    5.6764   -2.8693   -1.6994 H   0  0  0  0  0  0  0  0  0  0  0  0
    7.5587   -0.1077   -3.3178 H   0  0  0  0  0  0  0  0  0  0  0  0
    6.7562    1.1281   -2.3276 H   0  0  0  0  0  0  0  0  0  0  0  0
    9.0347    0.5929   -1.6639 H   0  0  0  0  0  0  0  0  0  0  0  0
    7.8921    0.3885   -0.3111 H   0  0  0  0  0  0  0  0  0  0  0  0
    3.7110    0.1157   -2.7236 H   0  0  0  0  0  0  0  0  0  0  0  0
    4.7512    1.4189   -2.1183 H   0  0  0  0  0  0  0  0  0  0  0  0
   10.2400   -3.3953   -0.8778 H   0  0  0  0  0  0  0  0  0  0  0  0
    9.8253   -3.2027    0.9062 H   0  0  0  0  0  0  0  0  0  0  0  0
   10.7662    0.5193   -0.4637 H   0  0  0  0  0  0  0  0  0  0  0  0
   11.0720   -0.7834   -1.7206 H   0  0  0  0  0  0  0  0  0  0  0  0
   12.4787   -3.0485   -0.2589 H   0  0  0  0  0  0  0  0  0  0  0  0
   11.9962   -2.8360    1.4336 H   0  0  0  0  0  0  0  0  0  0  0  0
   12.9966   -0.8016   -0.1963 H   0  0  0  0  0  0  0  0  0  0  0  0
   11.9524   -0.4932    1.2129 H   0  0  0  0  0  0  0  0  0  0  0  0
    3.5530   -1.3290    1.0063 H   0  0  0  0  0  0  0  0  0  0  0  0
    5.5414   -0.0244   -0.3758 H   0  0  0  0  0  0  0  0  0  0  0  0
    0.1448   -0.1995    1.8099 H   0  0  0  0  0  0  0  0  0  0  0  0
    2.6954    2.2861    3.0160 H   0  0  0  0  0  0  0  0  0  0  0  0
   -1.3057    2.4031   -2.0846 H   0  0  0  0  0  0  0  0  0  0  0  0
   -8.4218    3.6498   -1.2769 H   0  0  0  0  0  0  0  0  0  0  0  0
   -6.4677   -1.5729   -2.3577 H   0  0  0  0  0  0  0  0  0  0  0  0
   -4.9651   -4.1157    2.1320 H   0  0  0  0  0  0  0  0  0  0  0  0
    2.6439   -3.0325    1.6211 H   0  0  0  0  0  0  0  0  0  0  0  0
    3.3279    3.6837   -1.4516 H   0  0  0  0  0  0  0  0  0  0  0  0
    2.8062    0.4107    1.8315 H   0  0  0  0  0  0  0  0  0  0  0  0
    1.4970    0.1569   -0.9186 H   0  0  0  0  0  0  0  0  0  0  0  0
    4.0534    1.1951    0.4156 H   0  0  0  0  0  0  0  0  0  0  0  0
    3.3585    3.3036   -0.3310 H   0  0  0  0  0  0  0  0  0  0  0  0
    1.7049    4.6593   -0.2185 H   0  0  0  0  0  0  0  0  0  0  0  0
    0.3135    5.4358    1.4400 H   0  0  0  0  0  0  0  0  0  0  0  0
    2.1321    4.6173    2.5997 H   0  0  0  0  0  0  0  0  0  0  0  0
    1.3325    1.9560    3.3766 H   0  0  0  0  0  0  0  0  0  0  0  0
    0.1546    1.5894    1.4698 H   0  0  0  0  0  0  0  0  0  0  0  0
    0.6467    1.9902   -0.7265 H   0  0  0  0  0  0  0  0  0  0  0  0
   -0.3689    5.2699   -1.0479 H   0  0  0  0  0  0  0  0  0  0  0  0
   -3.2475    4.7892    0.8711 H   0  0  0  0  0  0  0  0  0  0  0  0
   -2.8153    5.0565   -0.9101 H   0  0  0  0  0  0  0  0  0  0  0  0
   -1.9190    5.8569    0.3913 H   0  0  0  0  0  0  0  0  0  0  0  0
   -0.1649    5.0283    3.7990 H   0  0  0  0  0  0  0  0  0  0  0  0
    1.2515    4.3389    4.6857 H   0  0  0  0  0  0  0  0  0  0  0  0
   -0.0237    3.2255    4.1432 H   0  0  0  0  0  0  0  0  0  0  0  0
    1.3936   -1.3819   -1.8058 H   0  0  0  0  0  0  0  0  0  0  0  0
    1.3977   -4.0524   -1.4461 H   0  0  0  0  0  0  0  0  0  0  0  0
   -0.3502   -1.9354   -1.0899 H   0  0  0  0  0  0  0  0  0  0  0  0
   -0.2626   -2.7090    0.5799 H   0  0  0  0  0  0  0  0  0  0  0  0
   -0.7000   -4.0360   -2.1635 H   0  0  0  0  0  0  0  0  0  0  0  0
   -0.7734   -4.9482   -0.6477 H   0  0  0  0  0  0  0  0  0  0  0  0
   -2.9194   -4.3771   -1.7292 H   0  0  0  0  0  0  0  0  0  0  0  0
   -2.4992   -2.5844   -1.5052 H   0  0  0  0  0  0  0  0  0  0  0  0
   -2.2321   -3.0417    0.9606 H   0  0  0  0  0  0  0  0  0  0  0  0
   -4.3789   -2.4903    1.3307 H   0  0  0  0  0  0  0  0  0  0  0  0
   -4.4742   -3.0852   -1.4919 H   0  0  0  0  0  0  0  0  0  0  0  0
   -4.6627   -0.9752   -0.0166 H   0  0  0  0  0  0  0  0  0  0  0  0
   -7.5552   -1.1772   -0.9181 H   0  0  0  0  0  0  0  0  0  0  0  0
   -7.9543    0.5122    0.6389 H   0  0  0  0  0  0  0  0  0  0  0  0
   -5.1858    0.0098    1.6871 H   0  0  0  0  0  0  0  0  0  0  0  0
   -5.5937    2.4116    0.1442 H   0  0  0  0  0  0  0  0  0  0  0  0
   -3.2997    2.3363    1.9842 H   0  0  0  0  0  0  0  0  0  0  0  0
   -3.5649    0.7968    1.1491 H   0  0  0  0  0  0  0  0  0  0  0  0
   -3.7644    3.2810   -0.5771 H   0  0  0  0  0  0  0  0  0  0  0  0
   -3.3963    1.5848   -0.9601 H   0  0  0  0  0  0  0  0  0  0  0  0
    1.5464   -3.2962    1.4658 H   0  0  0  0  0  0  0  0  0  0  0  0
    1.6522   -4.8579    0.6406 H   0  0  0  0  0  0  0  0  0  0  0  0
    3.0353   -3.7677    0.4648 H   0  0  0  0  0  0  0  0  0  0  0  0
   -2.7521   -5.8185   -0.0056 H   0  0  0  0  0  0  0  0  0  0  0  0
   -3.2488   -5.3532    1.7099 H   0  0  0  0  0  0  0  0  0  0  0  0
   -1.5564   -5.1750    1.2214 H   0  0  0  0  0  0  0  0  0  0  0  0
   -6.0309   -4.7084   -1.5419 H   0  0  0  0  0  0  0  0  0  0  0  0
   -7.1074   -3.3138   -1.3759 H   0  0  0  0  0  0  0  0  0  0  0  0
   -6.6636   -4.3768    0.0759 H   0  0  0  0  0  0  0  0  0  0  0  0
   -8.0368   -1.2658    1.6888 H   0  0  0  0  0  0  0  0  0  0  0  0
   -8.2312   -2.6549    0.6383 H   0  0  0  0  0  0  0  0  0  0  0  0
   -6.7420   -2.4629    1.6978 H   0  0  0  0  0  0  0  0  0  0  0  0
   -7.6567    1.4636    2.6872 H   0  0  0  0  0  0  0  0  0  0  0  0
   -6.0308    1.5536    3.3965 H   0  0  0  0  0  0  0  0  0  0  0  0
   -6.7989   -0.0420    3.3406 H   0  0  0  0  0  0  0  0  0  0  0  0
   -8.6925    1.5573   -0.5329 H   0  0  0  0  0  0  0  0  0  0  0  0
   -8.6173    2.0158   -3.2453 H   0  0  0  0  0  0  0  0  0  0  0  0
   -7.2933    0.8251   -3.1241 H   0  0  0  0  0  0  0  0  0  0  0  0
   -8.9653    0.4328   -2.5170 H   0  0  0  0  0  0  0  0  0  0  0  0
   -5.6393    4.6361    0.8017 H   0  0  0  0  0  0  0  0  0  0  0  0
   -7.3303    3.9712    1.2108 H   0  0  0  0  0  0  0  0  0  0  0  0
   -6.3624    4.8488    2.3907 H   0  0  0  0  0  0  0  0  0  0  0  0
    8.6449   -1.6586    0.5802 H   0  0  0  0  0  0  0  0  0  0  0  0
    8.0402   -3.1570   -1.1616 H   0  0  0  0  0  0  0  0  0  0  0  0
    8.2973   -2.7252   -2.8525 H   0  0  0  0  0  0  0  0  0  0  0  0
    6.0302   -2.7172   -3.0063 H   0  0  0  0  0  0  0  0  0  0  0  0
    5.8409   -2.5391   -1.2495 H   0  0  0  0  0  0  0  0  0  0  0  0
    7.5656   -0.2571   -3.5021 H   0  0  0  0  0  0  0  0  0  0  0  0
    6.6152    1.1305   -2.7919 H   0  0  0  0  0  0  0  0  0  0  0  0
    8.7797    0.8406   -1.5123 H   0  0  0  0  0  0  0  0  0  0  0  0
    7.4643    0.2452   -0.4838 H   0  0  0  0  0  0  0  0  0  0  0  0
    3.8544    0.8407   -2.6116 H   0  0  0  0  0  0  0  0  0  0  0  0
    5.0691    1.6878   -1.6429 H   0  0  0  0  0  0  0  0  0  0  0  0
   10.6405   -2.8423   -1.3874 H   0  0  0  0  0  0  0  0  0  0  0  0
    9.9228   -3.4705    0.1744 H   0  0  0  0  0  0  0  0  0  0  0  0
    9.5799    0.4585    0.7536 H   0  0  0  0  0  0  0  0  0  0  0  0
   10.6527    0.2149   -0.7279 H   0  0  0  0  0  0  0  0  0  0  0  0
   12.4411   -1.9727   -0.3323 H   0  0  0  0  0  0  0  0  0  0  0  0
   11.9423   -2.8944    1.0984 H   0  0  0  0  0  0  0  0  0  0  0  0
   10.8931   -1.0173    2.0767 H   0  0  0  0  0  0  0  0  0  0  0  0
   12.1457   -0.2048    1.0571 H   0  0  0  0  0  0  0  0  0  0  0  0
    2.6924   -1.7679    0.6558 H   0  0  0  0  0  0  0  0  0  0  0  0
    5.4735   -0.3579   -0.3957 H   0  0  0  0  0  0  0  0  0  0  0  0
    0.2221   -0.2844    2.1018 H   0  0  0  0  0  0  0  0  0  0  0  0
    3.6222    3.0681    2.0508 H   0  0  0  0  0  0  0  0  0  0  0  0
   -1.1980    3.4625   -2.3126 H   0  0  0  0  0  0  0  0  0  0  0  0
   -8.4804    3.6085   -0.9298 H   0  0  0  0  0  0  0  0  0  0  0  0
   -6.0741   -1.4923   -2.3978 H   0  0  0  0  0  0  0  0  0  0  0  0
   -4.8298   -5.1923    0.4292 H   0  0  0  0  0  0  0  0  0  0  0  0
    3.4154   -3.3742   -1.9206 H   0  0  0  0  0  0  0  0  0  0  0  0
    3.1477    3.3130   -2.4192 H   0  0  0  0  0  0  0  0  0  0  0  0
  1  2  1  0
  2  3  1  0
  3  4  1  0
  5  6  1  0
  6  7  1  0
  7  8  1  0
  1  9  1  0
  8  9  1  0
  4 10  1  0
  5 10  1  0
  9 10  1  0
  5 11  1  0
 11 12  1  0
 12 13  1  6
  7 14  1  0
 15 16  1  0
 16 17  1  0
 17 18  1  0
 18 19  1  0
 19 20  1  0
 20 21  1  0
 21 22  1  0
 22 23  1  0
 23 24  1  0
 24 25  1  0
 25 26  1  0
 26 27  1  0
 27 28  1  0
 28 29  1  0
 16 30  1  0
 20 31  1  0
 22 32  1  0
 24 33  1  0
 26 34  1  0
 35 36  1  0
 39 40  1  0
 41 42  1  0
  3 43  1  0
 38 44  1  0
 38 45  1  0
 44 46  1  0
 45 47  1  0
 46 47  1  0
  2 48  1  0
 15 48  1  0
 43 49  1  0
 40 50  1  0
 41 50  1  0
 49 50  1  0
 38 51  1  0
 39 51  1  0
 42 51  1  0
  1 52  1  0
  8 53  1  0
  6 54  1  0
 12 54  1  0
 11 55  1  0
 12 56  1  0
 29 56  1  0
 27 57  1  0
 37 57  1  0
 25 58  1  0
 35 58  1  0
 35 59  1  0
 23 60  1  0
 21 61  1  0
 15 62  1  0
  4 63  1  0
 64 65  1  0
 65 66  1  0
 66 67  1  0
 68 69  1  0
 69 70  1  0
 70 71  1  0
 64 72  1  0
 71 72  1  0
 67 73  1  0
 68 73  1  0
 72 73  1  0
 68 74  1  0
 74 75  1  0
 75 76  1  1
 70 77  1  0
 78 79  1  0
 79 80  1  0
 80 81  1  0
 81 82  1  0
 82 83  1  0
 83 84  1  0
 84 85  1  0
 85 86  1  0
 86 87  1  0
 87 88  1  0
 88 89  1  0
 89 90  1  0
 90 91  1  0
 91 92  1  0
 79 93  1  0
 83 94  1  0
 85 95  1  0
 87 96  1  0
 89 97  1  0
 98 99  1  0
102103  1  0
104105  1  0
 66106  1  0
101107  1  0
101108  1  0
107109  1  0
108110  1  0
109110  1  0
 65111  1  0
 78111  1  0
106112  1  0
103113  1  0
104113  1  0
112113  1  0
101114  1  0
102114  1  0
105114  1  0
 64115  1  0
 71116  1  0
 69117  1  0
 75117  1  0
 74118  1  0
 75119  1  0
 92119  1  0
 90120  1  0
100120  1  0
 88121  1  0
 98121  1  0
 98122  1  0
 86123  1  0
 84124  1  0
 78125  1  0
 67126  1  0
  1127  1  0
  2128  1  0
  3129  1  1
  4130  1  0
  5131  1  0
  6132  1  0
  7133  1  0
  8134  1  0
  9135  1  0
 10136  1  1
 11137  1  6
 13138  1  0
 13139  1  0
 13140  1  0
 14141  1  0
 14142  1  0
 14143  1  0
 15144  1  0
 16145  1  0
 17146  1  0
 17147  1  0
 18148  1  0
 18149  1  0
 19150  1  0
 19151  1  0
 20152  1  1
 21153  1  1
 22154  1  6
 23155  1  1
 24156  1  6
 25157  1  1
 26158  1  6
 27159  1  6
 28160  1  0
 28161  1  0
 29162  1  0
 29163  1  0
 30164  1  0
 30165  1  0
 30166  1  0
 31167  1  0
 31168  1  0
 31169  1  0
 32170  1  0
 32171  1  0
 32172  1  0
 33173  1  0
 33174  1  0
 33175  1  0
 34176  1  0
 34177  1  0
 34178  1  0
 35179  1  0
 36180  1  0
 36181  1  0
 36182  1  0
 37183  1  0
 37184  1  0
 37185  1  0
 38186  1  0
 39187  1  0
 39188  1  0
 40189  1  0
 40190  1  0
 41191  1  0
 41192  1  0
 42193  1  0
 42194  1  0
 43195  1  0
 43196  1  0
 44197  1  0
 44198  1  0
 45199  1  0
 45200  1  0
 46201  1  0
 46202  1  0
 47203  1  0
 47204  1  0
 48205  1  0
 49206  1  0
 52207  1  0
 53208  1  0
 55209  1  0
 59210  1  0
 60211  1  0
 61212  1  0
 62213  1  0
 63214  1  0
 64215  1  0
 65216  1  0
 66217  1  1
 67218  1  0
 68219  1  0
 69220  1  0
 70221  1  0
 71222  1  0
 72223  1  0
 73224  1  0
 74225  1  6
 76226  1  0
 76227  1  0
 76228  1  0
 77229  1  0
 77230  1  0
 77231  1  0
 78232  1  0
 79233  1  0
 80234  1  0
 80235  1  0
 81236  1  0
 81237  1  0
 82238  1  0
 82239  1  0
 83240  1  1
 84241  1  1
 85242  1  6
 86243  1  1
 87244  1  6
 88245  1  1
 89246  1  1
 90247  1  6
 91248  1  0
 91249  1  0
 92250  1  0
 92251  1  0
 93252  1  0
 93253  1  0
 93254  1  0
 94255  1  0
 94256  1  0
 94257  1  0
 95258  1  0
 95259  1  0
 95260  1  0
 96261  1  0
 96262  1  0
 96263  1  0
 97264  1  0
 97265  1  0
 97266  1  0
 98267  1  0
 99268  1  0
 99269  1  0
 99270  1  0
100271  1  0
100272  1  0
100273  1  0
101274  1  0
102275  1  0
102276  1  0
103277  1  0
103278  1  0
104279  1  0
104280  1  0
105281  1  0
105282  1  0
106283  1  0
106284  1  0
107285  1  0
107286  1  0
108287  1  0
108288  1  0
109289  1  0
109290  1  0
110291  1  0
110292  1  0
111293  1  0
112294  1  0
115295  1  0
116296  1  0
118297  1  0
122298  1  0
123299  1  0
124300  1  0
125301  1  0
126302  1  0
M  END
>  <PDBID>  (1) 
2A69

>  <PDB ID>  (1) 
2A69

>  <Generic Name>  (1) 
Rifapentine

>  <Brand Name>  (1) 
Priftin

>  <DrugBank ID>  (1) 
DB01201

>  <ATC Codes>  (1) 
J04AB05

>  <Ligand ID>  (1) 
RPT

>  <Target Name>  (1) 
DNA-directed RNA polymerase subunit beta'

>  <UniProt ID>  (1) 
P0A674

>  <PDB ID.1>  (1) 
2A69

>  <Seq. Identity>  (1) 
50%

$$$$
