PDB_DB00443_07
     RDKit          3D

130136  0  0  0  0  0  0  0  0999 V2000
   -3.0019    0.5152   -1.3404 C   0  0  0  0  0  0  0  0  0  0  0  0
   -4.3981    1.0593   -1.4177 C   0  0  0  0  0  0  0  0  0  0  0  0
   -5.2478    0.3401   -0.4257 C   0  0  0  0  0  0  0  0  0  0  0  0
   -4.5299   -0.7003    0.3447 C   0  0  0  0  0  0  0  0  0  0  0  0
   -3.1989   -0.2992    0.9219 C   0  0  0  0  0  0  0  0  0  0  0  0
   -2.5148   -1.5750    1.2927 C   0  0  0  0  0  0  0  0  0  0  0  0
   -1.4041   -1.9658    0.3437 C   0  0  0  0  0  0  0  0  0  0  0  0
   -0.4091   -0.8614    0.4819 C   0  0  2  0  0  0  0  0  0  0  0  0
   -0.9630    0.4800    0.0177 C   0  0  1  0  0  0  0  0  0  0  0  0
   -2.4116    0.6398    0.0744 C   0  0  1  0  0  0  0  0  0  0  0  0
   -0.1316    1.4943    0.7682 C   0  0  2  0  0  0  0  0  0  0  0  0
    1.3208    1.3609    0.3221 C   0  0  0  0  0  0  0  0  0  0  0  0
    1.8711   -0.0134    0.4158 C   0  0  1  0  0  0  0  0  0  0  0  0
    0.8678   -1.0094   -0.1799 C   0  0  1  0  0  0  0  0  0  0  0  0
    1.5940   -2.2719   -0.1648 C   0  0  0  0  0  0  0  0  0  0  0  0
    2.9121   -1.8247   -0.7666 C   0  0  2  0  0  0  0  0  0  0  0  0
    3.0169   -0.3126   -0.4784 C   0  0  2  0  0  0  0  0  0  0  0  0
    2.2210   -0.3456    1.8308 C   0  0  0  0  0  0  0  0  0  0  0  0
   -2.7196    2.1003    0.4467 C   0  0  0  0  0  0  0  0  0  0  0  0
    4.3849   -0.0985    0.0760 C   0  0  0  0  0  0  0  0  0  0  0  0
    4.8129    1.3382    0.1982 C   0  0  0  0  0  0  0  0  0  0  0  0
    2.8000   -1.9956   -2.2653 C   0  0  0  0  0  0  0  0  0  0  0  0
   -0.5481    0.6679   -1.3172 F   0  0  0  0  0  0  0  0  0  0  0  0
   -6.2627   -0.3254   -1.1591 O   0  0  0  0  0  0  0  0  0  0  0  0
   -0.2417    1.4792    2.1172 O   0  0  0  0  0  0  0  0  0  0  0  0
    2.9561    0.3941   -1.6898 O   0  0  0  0  0  0  0  0  0  0  0  0
    5.2590   -0.6437   -0.9079 O   0  0  0  0  0  0  0  0  0  0  0  0
    6.1689    1.3137    0.6018 O   0  0  0  0  0  0  0  0  0  0  0  0
    0.7712   -0.6796   -1.2585 H   0  0  0  0  0  0  0  0  0  0  0  0
   -2.9982    1.1127   -1.2358 C   0  0  0  0  0  0  0  0  0  0  0  0
   -4.4749    1.3227   -1.1741 C   0  0  0  0  0  0  0  0  0  0  0  0
   -5.2606    0.1747   -0.6610 C   0  0  0  0  0  0  0  0  0  0  0  0
   -4.6659   -0.5678    0.4786 C   0  0  0  0  0  0  0  0  0  0  0  0
   -3.2004   -0.7670    0.2613 C   0  0  0  0  0  0  0  0  0  0  0  0
   -2.5739   -1.6547    1.3239 C   0  0  0  0  0  0  0  0  0  0  0  0
   -1.2116   -2.0461    0.7538 C   0  0  0  0  0  0  0  0  0  0  0  0
   -0.3916   -0.7654    0.7962 C   0  0  2  0  0  0  0  0  0  0  0  0
   -1.0080    0.3017   -0.1145 C   0  0  1  0  0  0  0  0  0  0  0  0
   -2.4441    0.5080    0.0634 C   0  0  1  0  0  0  0  0  0  0  0  0
   -0.1456    1.5097   -0.0042 C   0  0  2  0  0  0  0  0  0  0  0  0
    1.2734    1.2476   -0.4409 C   0  0  0  0  0  0  0  0  0  0  0  0
    1.9215    0.1238    0.3498 C   0  0  1  0  0  0  0  0  0  0  0  0
    0.9193   -1.0330    0.2071 C   0  0  1  0  0  0  0  0  0  0  0  0
    1.7059   -2.1795    0.6782 C   0  0  0  0  0  0  0  0  0  0  0  0
    2.9438   -1.9905   -0.2190 C   0  0  2  0  0  0  0  0  0  0  0  0
    3.0908   -0.4785   -0.3503 C   0  0  2  0  0  0  0  0  0  0  0  0
    2.1715    0.4880    1.7678 C   0  0  0  0  0  0  0  0  0  0  0  0
   -2.8339    1.4622    1.1647 C   0  0  0  0  0  0  0  0  0  0  0  0
    4.4405   -0.1265    0.1138 C   0  0  0  0  0  0  0  0  0  0  0  0
    4.8282    1.3150    0.0105 C   0  0  0  0  0  0  0  0  0  0  0  0
    2.6199   -2.5433   -1.6025 C   0  0  0  0  0  0  0  0  0  0  0  0
   -0.8142   -0.1998   -1.4144 F   0  0  0  0  0  0  0  0  0  0  0  0
   -5.5928   -0.7453   -1.6780 O   0  0  0  0  0  0  0  0  0  0  0  0
   -0.1258    2.1296    1.2052 O   0  0  0  0  0  0  0  0  0  0  0  0
    2.9995   -0.0863   -1.7053 O   0  0  0  0  0  0  0  0  0  0  0  0
    5.3445   -0.8411   -0.7197 O   0  0  0  0  0  0  0  0  0  0  0  0
    6.1415    1.5084    0.4378 O   0  0  0  0  0  0  0  0  0  0  0  0
   -3.0081   -0.5053   -1.7077 H   0  0  0  0  0  0  0  0  0  0  0  0
   -2.3141    1.0992   -1.9976 H   0  0  0  0  0  0  0  0  0  0  0  0
   -4.4437    2.1750   -1.3316 H   0  0  0  0  0  0  0  0  0  0  0  0
   -4.7212    0.8704   -2.4856 H   0  0  0  0  0  0  0  0  0  0  0  0
   -5.8333    1.0336    0.2478 H   0  0  0  0  0  0  0  0  0  0  0  0
   -5.1706   -1.0201    1.1963 H   0  0  0  0  0  0  0  0  0  0  0  0
   -4.4322   -1.6166   -0.3072 H   0  0  0  0  0  0  0  0  0  0  0  0
   -3.4391    0.2556    1.8775 H   0  0  0  0  0  0  0  0  0  0  0  0
   -3.1954   -2.4449    1.3641 H   0  0  0  0  0  0  0  0  0  0  0  0
   -2.0481   -1.4650    2.2939 H   0  0  0  0  0  0  0  0  0  0  0  0
   -0.9300   -2.8801    0.7907 H   0  0  0  0  0  0  0  0  0  0  0  0
   -1.7141   -2.2227   -0.6541 H   0  0  0  0  0  0  0  0  0  0  0  0
   -0.2171   -0.8008    1.5970 H   0  0  0  0  0  0  0  0  0  0  0  0
   -0.4438    2.5125    0.3904 H   0  0  0  0  0  0  0  0  0  0  0  0
    1.4715    1.8187   -0.6860 H   0  0  0  0  0  0  0  0  0  0  0  0
    1.8676    2.0585    1.0243 H   0  0  0  0  0  0  0  0  0  0  0  0
    1.0938   -2.9862   -0.8744 H   0  0  0  0  0  0  0  0  0  0  0  0
    1.7004   -2.7840    0.7953 H   0  0  0  0  0  0  0  0  0  0  0  0
    3.7672   -2.3832   -0.3451 H   0  0  0  0  0  0  0  0  0  0  0  0
    1.4287   -0.0933    2.5645 H   0  0  0  0  0  0  0  0  0  0  0  0
    3.0929    0.2810    2.1103 H   0  0  0  0  0  0  0  0  0  0  0  0
    2.5132   -1.3807    2.0172 H   0  0  0  0  0  0  0  0  0  0  0  0
   -2.3936    2.7078   -0.4241 H   0  0  0  0  0  0  0  0  0  0  0  0
   -2.2315    2.4288    1.3561 H   0  0  0  0  0  0  0  0  0  0  0  0
   -3.8057    2.2559    0.5967 H   0  0  0  0  0  0  0  0  0  0  0  0
    4.5971   -0.6916    0.9872 H   0  0  0  0  0  0  0  0  0  0  0  0
    4.2427    1.9598    0.8726 H   0  0  0  0  0  0  0  0  0  0  0  0
    4.8223    1.8145   -0.8035 H   0  0  0  0  0  0  0  0  0  0  0  0
    2.3677   -1.1050   -2.7593 H   0  0  0  0  0  0  0  0  0  0  0  0
    2.1563   -2.8576   -2.5470 H   0  0  0  0  0  0  0  0  0  0  0  0
    3.7887   -2.1942   -2.7335 H   0  0  0  0  0  0  0  0  0  0  0  0
   -6.9381   -0.6469   -0.4993 H   0  0  0  0  0  0  0  0  0  0  0  0
   -0.8575    0.8752    2.5459 H   0  0  0  0  0  0  0  0  0  0  0  0
    3.8608    0.5113   -2.0805 H   0  0  0  0  0  0  0  0  0  0  0  0
    6.1564   -0.2344   -0.8286 H   0  0  0  0  0  0  0  0  0  0  0  0
    6.2360    1.0378    1.5551 H   0  0  0  0  0  0  0  0  0  0  0  0
   -2.5020    2.0845   -1.3674 H   0  0  0  0  0  0  0  0  0  0  0  0
   -2.7715    0.3811   -2.0300 H   0  0  0  0  0  0  0  0  0  0  0  0
   -4.8080    1.4981   -2.2418 H   0  0  0  0  0  0  0  0  0  0  0  0
   -4.7549    2.2894   -0.6600 H   0  0  0  0  0  0  0  0  0  0  0  0
   -6.2581    0.5764   -0.3160 H   0  0  0  0  0  0  0  0  0  0  0  0
   -4.9094   -0.1582    1.4810 H   0  0  0  0  0  0  0  0  0  0  0  0
   -5.1299   -1.5992    0.4787 H   0  0  0  0  0  0  0  0  0  0  0  0
   -3.0980   -1.3511   -0.7012 H   0  0  0  0  0  0  0  0  0  0  0  0
   -3.2278   -2.5123    1.4738 H   0  0  0  0  0  0  0  0  0  0  0  0
   -2.4617   -1.1233    2.2918 H   0  0  0  0  0  0  0  0  0  0  0  0
   -0.6947   -2.7819    1.3709 H   0  0  0  0  0  0  0  0  0  0  0  0
   -1.3992   -2.3681   -0.2860 H   0  0  0  0  0  0  0  0  0  0  0  0
   -0.4273   -0.4153    1.8251 H   0  0  0  0  0  0  0  0  0  0  0  0
   -0.5474    2.2591   -0.7512 H   0  0  0  0  0  0  0  0  0  0  0  0
    1.3396    0.9831   -1.5122 H   0  0  0  0  0  0  0  0  0  0  0  0
    1.8017    2.2130   -0.3129 H   0  0  0  0  0  0  0  0  0  0  0  0
    0.7885   -1.1367   -0.9116 H   0  0  0  0  0  0  0  0  0  0  0  0
    1.2188   -3.1469    0.4036 H   0  0  0  0  0  0  0  0  0  0  0  0
    2.0154   -2.1483    1.7214 H   0  0  0  0  0  0  0  0  0  0  0  0
    3.8189   -2.4742    0.2022 H   0  0  0  0  0  0  0  0  0  0  0  0
    1.4335    0.0760    2.4840 H   0  0  0  0  0  0  0  0  0  0  0  0
    2.0554    1.6089    1.8595 H   0  0  0  0  0  0  0  0  0  0  0  0
    3.1568    0.2654    2.1715 H   0  0  0  0  0  0  0  0  0  0  0  0
   -2.4258    2.4868    1.0154 H   0  0  0  0  0  0  0  0  0  0  0  0
   -2.6681    1.0626    2.1756 H   0  0  0  0  0  0  0  0  0  0  0  0
   -3.9537    1.5967    1.0815 H   0  0  0  0  0  0  0  0  0  0  0  0
    4.7130   -0.4970    1.1324 H   0  0  0  0  0  0  0  0  0  0  0  0
    4.1963    1.9923    0.6019 H   0  0  0  0  0  0  0  0  0  0  0  0
    4.7860    1.6837   -1.0369 H   0  0  0  0  0  0  0  0  0  0  0  0
    2.2621   -1.7721   -2.2929 H   0  0  0  0  0  0  0  0  0  0  0  0
    1.7909   -3.2917   -1.5067 H   0  0  0  0  0  0  0  0  0  0  0  0
    3.5135   -3.0086   -2.0709 H   0  0  0  0  0  0  0  0  0  0  0  0
   -5.5242   -0.3311   -2.5751 H   0  0  0  0  0  0  0  0  0  0  0  0
   -0.3409    1.6136    1.9890 H   0  0  0  0  0  0  0  0  0  0  0  0
    3.8980   -0.0464   -2.1164 H   0  0  0  0  0  0  0  0  0  0  0  0
    5.8379   -0.2509   -1.3119 H   0  0  0  0  0  0  0  0  0  0  0  0
    6.6174    2.2071   -0.0506 H   0  0  0  0  0  0  0  0  0  0  0  0
  1  2  1  0
  2  3  1  0
  3  4  1  0
  4  5  1  0
  5  6  1  0
  6  7  1  0
  7  8  1  0
  8  9  1  0
  1 10  1  0
  5 10  1  0
  9 10  1  0
  9 11  1  0
 11 12  1  0
 12 13  1  0
  8 14  1  0
 13 14  1  0
 14 15  1  0
 15 16  1  0
 13 17  1  0
 16 17  1  0
 13 18  1  1
 10 19  1  1
 17 20  1  0
 20 21  1  0
 16 22  1  0
  9 23  1  6
  3 24  1  0
 11 25  1  0
 17 26  1  6
 20 27  1  0
 21 28  1  0
 14 29  1  6
 30 31  1  0
 31 32  1  0
 32 33  1  0
 33 34  1  0
 34 35  1  0
 35 36  1  0
 36 37  1  0
 37 38  1  0
 30 39  1  0
 34 39  1  0
 38 39  1  0
 38 40  1  0
 40 41  1  0
 41 42  1  0
 37 43  1  0
 42 43  1  0
 43 44  1  0
 44 45  1  0
 42 46  1  0
 45 46  1  0
 42 47  1  1
 39 48  1  1
 46 49  1  0
 49 50  1  0
 45 51  1  0
 38 52  1  6
 32 53  1  0
 40 54  1  0
 46 55  1  6
 49 56  1  0
 50 57  1  0
  1 58  1  0
  1 59  1  0
  2 60  1  0
  2 61  1  0
  3 62  1  0
  4 63  1  0
  4 64  1  0
  5 65  1  0
  6 66  1  0
  6 67  1  0
  7 68  1  0
  7 69  1  0
  8 70  1  1
 11 71  1  6
 12 72  1  0
 12 73  1  0
 15 74  1  0
 15 75  1  0
 16 76  1  1
 18 77  1  0
 18 78  1  0
 18 79  1  0
 19 80  1  0
 19 81  1  0
 19 82  1  0
 20 83  1  0
 21 84  1  0
 21 85  1  0
 22 86  1  0
 22 87  1  0
 22 88  1  0
 24 89  1  0
 25 90  1  0
 26 91  1  0
 27 92  1  0
 28 93  1  0
 30 94  1  0
 30 95  1  0
 31 96  1  0
 31 97  1  0
 32 98  1  0
 33 99  1  0
 33100  1  0
 34101  1  0
 35102  1  0
 35103  1  0
 36104  1  0
 36105  1  0
 37106  1  1
 40107  1  6
 41108  1  0
 41109  1  0
 43110  1  6
 44111  1  0
 44112  1  0
 45113  1  1
 47114  1  0
 47115  1  0
 47116  1  0
 48117  1  0
 48118  1  0
 48119  1  0
 49120  1  0
 50121  1  0
 50122  1  0
 51123  1  0
 51124  1  0
 51125  1  0
 53126  1  0
 54127  1  0
 55128  1  0
 56129  1  0
 57130  1  0
M  END
>  <PDBID>  (1) 
1M2Z

>  <PDB ID>  (1) 
1M2Z

>  <Generic Name>  (1) 
Betamethasone

>  <Brand Name>  (1) 
Beben Gel 0.025%#Beta 1 Kit#Betacort Scalp Lotion 0.1%#Betaderm Crm 0.05%#Betaderm Crm 0.1%#Betaderm Lotion 0.1%#Betaderm Ont 0.05%#Betaderm Ont 0.1%#Betagel - 0.1%#Betaject#Betaloan Suik#Betamethasone#Betamethasone Clotrimazole#Betamethasone Combo 6mg/ml PF#Betamethasone Combo 7mg/ml#Betamethasone Dipropionate#Betamethasone Dipropionate Augmented#Betamethasone Sodium Phosphate and Betamethasone Acetate#Betamethasone Sp 24mg/2ml PF#Betamethasone Valerate#Betamethasone Valerate Lot 0.1% USP#Betamycin Ophthalmic/otic Solution#Betaprolene Cream 0.05%#Betaprolene Ointment 0.05%#Betaprone Cream 0.05%#Betaprone Lotion 0.05%#Betaprone Ointment 0.05%#Beteflam#Betnesol Eye and Ear Drops#Betnesol Eye and Ear Drops 0.1%#Betnesol Pellets 0.1mg#Betnesol Retention Enema 5mg/100ml#Betnesol Retention Enemas#Betnesol Tab 0.5mg#Betnesol Tablets#Betnovate 1/2 Crm 0.05%#Betnovate 1/2 Lot 0.05%#Betnovate 1/2 Ont 0.05%#Betnovate Crm 0.1%#Betnovate Lot 0.1%#Betnovate Lotion 0.1%#Betnovate Ont 0.1%#Calcipotriene 0.005% and Betamethasone Dipropionate 0.064%#Calcipotriene and Betamethasone Dipropionate#Celestoderm V#Celestoderm V Crm 0.1%#Celestoderm V Ont 0.1%#Celestoderm V/2#Celestoderm V/2 Cream .05%#Celestoderm V/2 Ointment 0.05%#Celestone Repetabs 1mg#Celestone Soluspan#Celestone Tab 0.5mg#Clotrimazole and Betamethasone Dipropionate#Dermacinrx Therazole Pak#Diprogen Cream#Diprogen Ointment#Diprolene#Diprolene AF#Diprosalic#Diprosone Cream 0.05%#Diprosone Lotion 0.05%#Diprosone Ointment 0.05%#Dom-gentamicin-betamethasone#Dovobet Gel#Dovobet Ointment#Dr. Throwers Beta#Dr. Throwers Pbc No. 1#Enstilar#Garasone Ophthalmic Ointment#Garasone Ophthalmic and Otic Solution#Lotriderm Cream#Lotrisone#Luxiq#Marbeta 25 Kit#Occlucort Film Forming Lot 0.05#PMS-clotrimazole-betamethasone#PMS-gentamicin-betamethasone#Prevex B Cream 0.1%#Pro-lene Glycol Cream - 0.05%#Pro-lene Glycol Lotion - 0.05%#Pro-lene Glycol Ointment - 0.05%#Pro-sone Cream - 0.05%#Pro-sone Lotion -  0.05%#Pro-sone Ointment - 0.05%#Ratio-ectosone#Ratio-ectosone Mild Cream 0.05%#Ratio-ectosone Mild Lotion 0.05%#Ratio-ectosone Regular Cream 0.1%#Ratio-ectosone Regular Lotion 0.1%#Ratio-topilene#Ratio-topisalic#Ratio-topisone#Readysharp Betamethasone#Rhoprolene Glycol Cream 0.5mg/gm#Rhoprolene Glycol Lotion 0.5mg/gm#Rhoprolene Glycol Ointment 0.5mg/gm#Rhoprosone Cream 0.05%#Rhoprosone Lotion 0.05%#Rhoprosone Oint 0.05%#Rivasone Scalp Lot 0.1%#Rolene Cream 0.05%#Rolene Lotion 0.05%#Rolene Ointment 0.05%#Rosone Cream 0.05%#Rosone Lotion 0.05%#Rosone Ointment 0.05%#Sandoz Pentasone#Sernivo#Taclonex#Taclonex Scalp#Taro Sone Lot 0.05%#Taro Sone Ont#Taro-sone Cream 0.05%#Valisone Scalp Lotion#Valisone-G Cream#Valisone-G Ointment#Bentelan#Betnovate#Celestamine#Celestone#Diprosone#Fucibet#Procort#Rinderon

>  <DrugBank ID>  (1) 
DB00443

>  <ATC Codes>  (1) 
S01BB04#R03BA04#S01CA05#H02AB01#R01AD06#D07BC01#C05AA05#D07CC01#D07AC01#S01CB04#D07XC01#S02BA07#A07EA04#S03BA03#S01BA06#S03CA06

>  <Ligand ID>  (1) 
DEX

>  <Target Name>  (1) 
Glucocorticoid receptor

>  <UniProt ID>  (1) 
P04150

>  <PDB ID.1>  (1) 
1M2Z

>  <Seq. Identity>  (1) 
100%

$$$$
