PDB_DB00775_00
     RDKit          3D

 76 77  0  0  0  0  0  0  0  0999 V2000
    5.2228    0.2053   -4.2906 C   0  0  0  0  0  0  0  0  0  0  0  0
    4.8460   -0.6724   -3.0888 C   0  0  0  0  0  0  0  0  0  0  0  0
    5.9911   -0.5445   -2.1106 C   0  0  0  0  0  0  0  0  0  0  0  0
    5.8052   -1.3356   -0.8613 C   0  0  0  0  0  0  0  0  0  0  0  0
    4.4620   -0.9829    0.0968 S   0  0  0  0  0  0  0  0  0  0  0  0
    4.5539   -2.0214    1.3762 O   0  0  0  0  0  0  0  0  0  0  0  0
    3.1681   -1.8900   -0.8553 O   0  0  0  0  0  0  0  0  0  0  0  0
    3.9182    0.3741    0.2305 N   0  0  0  0  0  0  0  0  0  0  0  0
    4.0446    1.3303    1.2709 C   0  0  1  0  0  0  0  0  0  0  0  0
    3.4697    0.9933    2.5932 C   0  0  0  0  0  0  0  0  0  0  0  0
    2.0062    0.7460    2.6476 C   0  0  0  0  0  0  0  0  0  0  0  0
    1.1978    1.9592    2.1896 C   0  0  0  0  0  0  0  0  0  0  0  0
   -0.2171    1.7782    2.6279 C   0  0  0  0  0  0  0  0  0  0  0  0
   -0.8361    0.5015    2.1089 C   0  0  0  0  0  0  0  0  0  0  0  0
   -1.1845    0.5629    0.7885 O   0  0  0  0  0  0  0  0  0  0  0  0
    0.0558   -0.6899    2.3150 C   0  0  0  0  0  0  0  0  0  0  0  0
    1.4984   -0.4450    1.9218 C   0  0  0  0  0  0  0  0  0  0  0  0
    5.5417    1.6223    1.4561 C   0  0  0  0  0  0  0  0  0  0  0  0
    6.0562    2.1244    0.2746 O   0  0  0  0  0  0  0  0  0  0  0  0
    5.7552    2.5400    2.4676 O   0  0  0  0  0  0  0  0  0  0  0  0
   -2.5315    0.3924    0.5116 C   0  0  0  0  0  0  0  0  0  0  0  0
   -3.0700   -0.9267    0.9439 C   0  0  0  0  0  0  0  0  0  0  0  0
   -4.5387   -1.0637    0.6349 C   0  0  0  0  0  0  0  0  0  0  0  0
   -4.7472   -0.9317   -0.8469 C   0  0  0  0  0  0  0  0  0  0  0  0
   -6.2380   -1.0814   -1.1984 C   0  0  0  0  0  0  0  0  0  0  0  0
   -6.9609    0.0196   -0.4626 C   0  0  0  0  0  0  0  0  0  0  0  0
   -8.3261    0.2981   -1.0374 C   0  0  0  0  0  0  0  0  0  0  0  0
   -8.3150    0.3511   -2.4841 N   0  0  0  0  0  0  0  0  0  0  0  0
   -6.9619    0.3802   -3.0118 C   0  0  0  0  0  0  0  0  0  0  0  0
   -6.3467   -0.9769   -2.6837 C   0  0  0  0  0  0  0  0  0  0  0  0
    6.3289    0.2540   -4.3698 H   0  0  0  0  0  0  0  0  0  0  0  0
    4.8733    1.2284   -4.0418 H   0  0  0  0  0  0  0  0  0  0  0  0
    4.7594   -0.1485   -5.2172 H   0  0  0  0  0  0  0  0  0  0  0  0
    3.8822   -0.3604   -2.6932 H   0  0  0  0  0  0  0  0  0  0  0  0
    4.7712   -1.6993   -3.5009 H   0  0  0  0  0  0  0  0  0  0  0  0
    6.8861   -0.9885   -2.6399 H   0  0  0  0  0  0  0  0  0  0  0  0
    6.2728    0.5102   -1.9335 H   0  0  0  0  0  0  0  0  0  0  0  0
    6.7433   -1.2527   -0.2716 H   0  0  0  0  0  0  0  0  0  0  0  0
    5.7675   -2.4225   -1.1707 H   0  0  0  0  0  0  0  0  0  0  0  0
    5.3811   -1.8071    1.8907 H   0  0  0  0  0  0  0  0  0  0  0  0
    2.5656   -2.1597   -0.1333 H   0  0  0  0  0  0  0  0  0  0  0  0
    3.2269    0.7727   -0.4760 H   0  0  0  0  0  0  0  0  0  0  0  0
    3.6172    2.3386    0.9754 H   0  0  0  0  0  0  0  0  0  0  0  0
    3.9768    0.1489    3.1054 H   0  0  0  0  0  0  0  0  0  0  0  0
    3.6660    1.8810    3.2646 H   0  0  0  0  0  0  0  0  0  0  0  0
    1.7136    0.6208    3.7277 H   0  0  0  0  0  0  0  0  0  0  0  0
    1.5823    2.8982    2.6009 H   0  0  0  0  0  0  0  0  0  0  0  0
    1.2320    1.9237    1.0704 H   0  0  0  0  0  0  0  0  0  0  0  0
   -0.2821    1.7427    3.7375 H   0  0  0  0  0  0  0  0  0  0  0  0
   -0.8491    2.6250    2.2959 H   0  0  0  0  0  0  0  0  0  0  0  0
   -1.7402    0.3264    2.7264 H   0  0  0  0  0  0  0  0  0  0  0  0
   -0.0162   -1.0396    3.3834 H   0  0  0  0  0  0  0  0  0  0  0  0
   -0.3476   -1.5231    1.7028 H   0  0  0  0  0  0  0  0  0  0  0  0
    1.5080   -0.2462    0.8486 H   0  0  0  0  0  0  0  0  0  0  0  0
    2.0440   -1.3683    2.2228 H   0  0  0  0  0  0  0  0  0  0  0  0
    6.0568    0.6488    1.6636 H   0  0  0  0  0  0  0  0  0  0  0  0
    5.3726    2.6592   -0.2320 H   0  0  0  0  0  0  0  0  0  0  0  0
    6.0055    2.0985    3.3205 H   0  0  0  0  0  0  0  0  0  0  0  0
   -2.5914    0.4022   -0.6176 H   0  0  0  0  0  0  0  0  0  0  0  0
   -3.1742    1.2114    0.8609 H   0  0  0  0  0  0  0  0  0  0  0  0
   -2.9826   -1.1139    2.0479 H   0  0  0  0  0  0  0  0  0  0  0  0
   -2.5745   -1.7728    0.3831 H   0  0  0  0  0  0  0  0  0  0  0  0
   -5.1431   -0.2762    1.1661 H   0  0  0  0  0  0  0  0  0  0  0  0
   -4.9201   -2.0609    0.9438 H   0  0  0  0  0  0  0  0  0  0  0  0
   -4.4951    0.1214   -1.1715 H   0  0  0  0  0  0  0  0  0  0  0  0
   -4.1127   -1.6090   -1.4259 H   0  0  0  0  0  0  0  0  0  0  0  0
   -6.5251   -2.0900   -0.8574 H   0  0  0  0  0  0  0  0  0  0  0  0
   -7.1060   -0.3259    0.5828 H   0  0  0  0  0  0  0  0  0  0  0  0
   -6.3515    0.9444   -0.3963 H   0  0  0  0  0  0  0  0  0  0  0  0
   -8.6400    1.2991   -0.6748 H   0  0  0  0  0  0  0  0  0  0  0  0
   -9.0653   -0.4267   -0.6373 H   0  0  0  0  0  0  0  0  0  0  0  0
   -8.7184   -0.5787   -2.8077 H   0  0  0  0  0  0  0  0  0  0  0  0
   -6.4349    1.2014   -2.4634 H   0  0  0  0  0  0  0  0  0  0  0  0
   -7.0302    0.5596   -4.0901 H   0  0  0  0  0  0  0  0  0  0  0  0
   -7.0882   -1.7301   -3.0436 H   0  0  0  0  0  0  0  0  0  0  0  0
   -5.3635   -1.1128   -3.1800 H   0  0  0  0  0  0  0  0  0  0  0  0
  1  2  1  0
  2  3  1  0
  3  4  1  0
  4  5  1  0
  5  6  1  0
  5  7  1  0
  5  8  1  0
  8  9  1  0
  9 10  1  0
 10 11  1  0
 11 12  1  0
 12 13  1  0
 13 14  1  0
 14 15  1  0
 14 16  1  0
 11 17  1  0
 16 17  1  0
  9 18  1  0
 18 19  1  0
 18 20  1  0
 15 21  1  0
 21 22  1  0
 22 23  1  0
 23 24  1  0
 24 25  1  0
 25 26  1  0
 26 27  1  0
 27 28  1  0
 28 29  1  0
 25 30  1  0
 29 30  1  0
  1 31  1  0
  1 32  1  0
  1 33  1  0
  2 34  1  0
  2 35  1  0
  3 36  1  0
  3 37  1  0
  4 38  1  0
  4 39  1  0
  6 40  1  0
  7 41  1  0
  8 42  1  0
  9 43  1  6
 10 44  1  0
 10 45  1  0
 11 46  1  0
 12 47  1  0
 12 48  1  0
 13 49  1  0
 13 50  1  0
 14 51  1  0
 16 52  1  0
 16 53  1  0
 17 54  1  0
 17 55  1  0
 18 56  1  0
 19 57  1  0
 20 58  1  0
 21 59  1  0
 21 60  1  0
 22 61  1  0
 22 62  1  0
 23 63  1  0
 23 64  1  0
 24 65  1  0
 24 66  1  0
 25 67  1  0
 26 68  1  0
 26 69  1  0
 27 70  1  0
 27 71  1  0
 28 72  1  0
 29 73  1  0
 29 74  1  0
 30 75  1  0
 30 76  1  0
M  END
>  <PDBID>  (1) 
2VDM

>  <PDB ID>  (1) 
2VDM

>  <Generic Name>  (1) 
Tirofiban

>  <Brand Name>  (1) 
Aggrastat#Aggribloc#Agrastat

>  <DrugBank ID>  (1) 
DB00775

>  <ATC Codes>  (1) 
B01AC17

>  <Ligand ID>  (1) 
AGG

>  <Target Name>  (1) 
Integrin alpha-IIb

>  <UniProt ID>  (1) 
P08514

>  <PDB ID.1>  (1) 
2VDM

>  <Seq. Identity>  (1) 
100%

$$$$
