PDB_DB04786_05
     RDKit          3D

192199  0  0  0  0  0  0  0  0999 V2000
  -17.4397    1.1368    0.0038 O   0  0  0  0  0  0  0  0  0  0  0  0
  -16.2052    2.2484    0.3374 S   0  0  0  0  0  0  0  0  0  0  0  0
  -15.6800    2.9465   -0.7288 O   0  0  0  0  0  0  0  0  0  0  0  0
  -16.7526    3.1535    1.6661 O   0  0  0  0  0  0  0  0  0  0  0  0
  -14.9435    1.1970    1.1792 C   0  0  0  0  0  0  0  0  0  0  0  0
  -13.8468    2.1693    1.4805 C   0  0  0  0  0  0  0  0  0  0  0  0
  -12.5399    1.4449    1.8186 C   0  0  2  0  0  0  0  0  0  0  0  0
  -11.3166    2.7891    1.7631 S   0  0  0  0  0  0  0  0  0  0  0  0
  -12.0368    3.9361    2.9174 O   0  0  0  0  0  0  0  0  0  0  0  0
  -10.0418    2.2687    2.6894 O   0  0  0  0  0  0  0  0  0  0  0  0
  -11.0967    3.3146    0.5140 O   0  0  0  0  0  0  0  0  0  0  0  0
  -14.5885    0.1899    0.1176 C   0  0  0  0  0  0  0  0  0  0  0  0
  -13.3234   -0.5180    0.5287 C   0  0  0  0  0  0  0  0  0  0  0  0
  -12.8052   -1.4513   -0.5635 C   0  0  1  0  0  0  0  0  0  0  0  0
  -14.2073   -2.0061   -1.5036 S   0  0  0  0  0  0  0  0  0  0  0  0
  -14.9710   -1.1424   -2.1963 O   0  0  0  0  0  0  0  0  0  0  0  0
  -14.9753   -3.1258   -0.5037 O   0  0  0  0  0  0  0  0  0  0  0  0
  -13.3196   -3.2087   -2.5460 O   0  0  0  0  0  0  0  0  0  0  0  0
  -11.9015   -0.7118   -1.5260 C   0  0  0  0  0  0  0  0  0  0  0  0
  -10.5771   -0.3174   -0.8461 C   0  0  0  0  0  0  0  0  0  0  0  0
  -12.2421    0.5316    0.6930 C   0  0  0  0  0  0  0  0  0  0  0  0
  -10.8735   -0.0614    0.6499 C   0  0  1  0  0  0  0  0  0  0  0  0
  -10.5918   -1.1808    1.3904 N   0  0  0  0  0  0  0  0  0  0  0  0
   -9.4352   -1.6645    1.9063 C   0  0  0  0  0  0  0  0  0  0  0  0
   -9.7509   -2.9194    2.6052 O   0  0  0  0  0  0  0  0  0  0  0  0
   -8.1604   -1.9222    1.2292 C   0  0  2  0  0  0  0  0  0  0  0  0
   -7.4628   -0.6838    0.6801 C   0  0  0  0  0  0  0  0  0  0  0  0
   -8.0976   -2.9973    0.2004 C   0  0  0  0  0  0  0  0  0  0  0  0
   -7.2731   -2.6850   -1.0129 C   0  0  0  0  0  0  0  0  0  0  0  0
   -5.9574   -2.0226   -0.7736 C   0  0  0  0  0  0  0  0  0  0  0  0
   -4.8519   -3.0642   -0.6852 C   0  0  0  0  0  0  0  0  0  0  0  0
   -6.0077   -1.1225    0.3986 C   0  0  0  0  0  0  0  0  0  0  0  0
   -5.1673    0.0205    0.3930 N   0  0  0  0  0  0  0  0  0  0  0  0
   -5.5057    0.9969   -0.6099 C   0  0  0  0  0  0  0  0  0  0  0  0
   -6.1864    2.0909   -0.0176 O   0  0  0  0  0  0  0  0  0  0  0  0
   -4.2592    1.5573   -1.2339 C   0  0  0  0  0  0  0  0  0  0  0  0
   -3.4565    2.2135   -0.0965 C   0  0  0  0  0  0  0  0  0  0  0  0
   -3.4679    0.5692   -2.0102 C   0  0  0  0  0  0  0  0  0  0  0  0
   -2.3673    1.3174   -2.7433 C   0  0  0  0  0  0  0  0  0  0  0  0
   -2.0840    2.6553   -2.1697 C   0  0  0  0  0  0  0  0  0  0  0  0
   -2.1778    2.7429   -0.6518 C   0  0  0  0  0  0  0  0  0  0  0  0
   -0.9791    2.4071    0.0188 N   0  0  0  0  0  0  0  0  0  0  0  0
   -0.5642    1.0735    0.1253 C   0  0  0  0  0  0  0  0  0  0  0  0
   -1.4857    0.3406    0.9104 O   0  0  0  0  0  0  0  0  0  0  0  0
    0.6840    0.9886    0.8161 N   0  0  0  0  0  0  0  0  0  0  0  0
    1.7682    1.7459    0.2422 C   0  0  0  0  0  0  0  0  0  0  0  0
    2.9838    1.4417    1.0893 C   0  0  0  0  0  0  0  0  0  0  0  0
    1.9533    1.3213   -1.1881 C   0  0  0  0  0  0  0  0  0  0  0  0
    3.1438    2.0900   -1.7195 C   0  0  0  0  0  0  0  0  0  0  0  0
    4.3680    1.6543   -0.9898 C   0  0  0  0  0  0  0  0  0  0  0  0
    4.2835    1.8621    0.4920 C   0  0  2  0  0  0  0  0  0  0  0  0
    5.3970    1.0690    1.1943 C   0  0  0  0  0  0  0  0  0  0  0  0
    5.3467    1.3630    2.5537 O   0  0  0  0  0  0  0  0  0  0  0  0
    5.2279   -0.2956    0.8875 N   0  0  0  0  0  0  0  0  0  0  0  0
    6.3707   -1.0805    0.6420 C   0  0  0  0  0  0  0  0  0  0  0  0
    7.2299   -0.7133   -0.5155 C   0  0  0  0  0  0  0  0  0  0  0  0
    5.8491   -2.5131    0.4021 C   0  0  0  0  0  0  0  0  0  0  0  0
    4.5129   -2.4262   -0.2695 C   0  0  0  0  0  0  0  0  0  0  0  0
    6.8414   -3.2790   -0.4464 C   0  0  0  0  0  0  0  0  0  0  0  0
    8.2233   -2.8984    0.1094 C   0  0  0  0  0  0  0  0  0  0  0  0
    8.5451   -1.5406   -0.4254 C   0  0  0  0  0  0  0  0  0  0  0  0
    9.5061   -0.7639    0.5101 C   0  0  0  0  0  0  0  0  0  0  0  0
    9.6392    0.4680   -0.1355 O   0  0  0  0  0  0  0  0  0  0  0  0
   10.6279   -1.4081    0.9353 N   0  0  0  0  0  0  0  0  0  0  0  0
   11.7843   -1.8223    0.3310 C   0  0  0  0  0  0  0  0  0  0  0  0
   11.8087   -2.7145   -0.8610 C   0  0  0  0  0  0  0  0  0  0  0  0
   12.5105   -2.1233   -2.0620 C   0  0  0  0  0  0  0  0  0  0  0  0
   13.8769   -1.5739   -1.7479 C   0  0  2  0  0  0  0  0  0  0  0  0
   14.9977   -2.7393   -1.2205 S   0  0  0  0  0  0  0  0  0  0  0  0
   14.9036   -3.8093   -2.7655 O   0  0  0  0  0  0  0  0  0  0  0  0
   16.5794   -1.9909   -1.9147 O   0  0  0  0  0  0  0  0  0  0  0  0
   15.1470   -3.3535   -0.1910 O   0  0  0  0  0  0  0  0  0  0  0  0
   12.9493   -0.9183    0.5027 C   0  0  0  0  0  0  0  0  0  0  0  0
   13.6667   -0.4866   -0.7490 C   0  0  0  0  0  0  0  0  0  0  0  0
   13.1146    0.7948   -1.3306 C   0  0  0  0  0  0  0  0  0  0  0  0
   12.7575    0.2943    1.3645 C   0  0  1  0  0  0  0  0  0  0  0  0
   13.0739   -0.0598    3.0468 S   0  0  0  0  0  0  0  0  0  0  0  0
   14.4478   -0.8016    3.2610 O   0  0  0  0  0  0  0  0  0  0  0  0
   11.9358   -0.3692    3.9256 O   0  0  0  0  0  0  0  0  0  0  0  0
   13.5882    1.6350    3.6275 O   0  0  0  0  0  0  0  0  0  0  0  0
   13.7872    1.3627    0.9511 C   0  0  0  0  0  0  0  0  0  0  0  0
   13.5804    1.9123   -0.4092 C   0  0  2  0  0  0  0  0  0  0  0  0
   12.6566    3.3429   -0.4966 S   0  0  0  0  0  0  0  0  0  0  0  0
   12.6788    3.6680   -2.2937 O   0  0  0  0  0  0  0  0  0  0  0  0
   11.4298    3.5910    0.0184 O   0  0  0  0  0  0  0  0  0  0  0  0
   13.8548    4.5597   -0.1472 O   0  0  0  0  0  0  0  0  0  0  0  0
  -18.2338    1.4554    0.5156 H   0  0  0  0  0  0  0  0  0  0  0  0
  -14.8891    2.9648   -1.3249 H   0  0  0  0  0  0  0  0  0  0  0  0
  -16.0863    3.1856    2.3703 H   0  0  0  0  0  0  0  0  0  0  0  0
  -15.4167    0.7724    2.0761 H   0  0  0  0  0  0  0  0  0  0  0  0
  -14.1134    2.7315    2.3961 H   0  0  0  0  0  0  0  0  0  0  0  0
  -13.6294    2.8163    0.6252 H   0  0  0  0  0  0  0  0  0  0  0  0
  -12.5705    1.0170    2.8154 H   0  0  0  0  0  0  0  0  0  0  0  0
  -11.8520    3.5782    3.8164 H   0  0  0  0  0  0  0  0  0  0  0  0
   -9.9796    2.6740    3.5787 H   0  0  0  0  0  0  0  0  0  0  0  0
  -10.3337    3.1805   -0.1212 H   0  0  0  0  0  0  0  0  0  0  0  0
  -15.4516   -0.5154    0.0535 H   0  0  0  0  0  0  0  0  0  0  0  0
  -14.4347    0.7278   -0.8347 H   0  0  0  0  0  0  0  0  0  0  0  0
  -13.5341   -1.0636    1.4736 H   0  0  0  0  0  0  0  0  0  0  0  0
  -12.3702   -2.3600   -0.1445 H   0  0  0  0  0  0  0  0  0  0  0  0
  -15.1236   -0.7713   -3.1184 H   0  0  0  0  0  0  0  0  0  0  0  0
  -14.8892   -2.8138    0.4223 H   0  0  0  0  0  0  0  0  0  0  0  0
  -13.9838   -3.9246   -2.6846 H   0  0  0  0  0  0  0  0  0  0  0  0
  -12.4139    0.1262   -1.9863 H   0  0  0  0  0  0  0  0  0  0  0  0
  -11.6554   -1.4371   -2.3265 H   0  0  0  0  0  0  0  0  0  0  0  0
  -10.2664    0.6314   -1.2807 H   0  0  0  0  0  0  0  0  0  0  0  0
   -9.8721   -1.1092   -1.0164 H   0  0  0  0  0  0  0  0  0  0  0  0
  -12.3348    1.1659   -0.2488 H   0  0  0  0  0  0  0  0  0  0  0  0
  -10.1834    0.8243    0.9308 H   0  0  0  0  0  0  0  0  0  0  0  0
  -11.4365   -1.5479    1.9005 H   0  0  0  0  0  0  0  0  0  0  0  0
   -9.1168   -1.0551    2.8675 H   0  0  0  0  0  0  0  0  0  0  0  0
   -8.9121   -3.2202    3.0063 H   0  0  0  0  0  0  0  0  0  0  0  0
   -7.3995   -2.2738    2.0388 H   0  0  0  0  0  0  0  0  0  0  0  0
   -7.3858    0.0355    1.4937 H   0  0  0  0  0  0  0  0  0  0  0  0
   -7.8985   -0.3772   -0.2447 H   0  0  0  0  0  0  0  0  0  0  0  0
   -7.7549   -3.9775    0.6141 H   0  0  0  0  0  0  0  0  0  0  0  0
   -9.1325   -3.2158   -0.1830 H   0  0  0  0  0  0  0  0  0  0  0  0
   -7.8871   -2.1238   -1.7628 H   0  0  0  0  0  0  0  0  0  0  0  0
   -7.0696   -3.6693   -1.5276 H   0  0  0  0  0  0  0  0  0  0  0  0
   -5.7060   -1.3985   -1.6729 H   0  0  0  0  0  0  0  0  0  0  0  0
   -3.8957   -2.5592   -0.9544 H   0  0  0  0  0  0  0  0  0  0  0  0
   -5.0294   -3.8521   -1.4235 H   0  0  0  0  0  0  0  0  0  0  0  0
   -4.7358   -3.4509    0.3452 H   0  0  0  0  0  0  0  0  0  0  0  0
   -5.7219   -1.7390    1.3028 H   0  0  0  0  0  0  0  0  0  0  0  0
   -4.1803   -0.2656    0.2656 H   0  0  0  0  0  0  0  0  0  0  0  0
   -6.1418    0.5536   -1.4113 H   0  0  0  0  0  0  0  0  0  0  0  0
   -6.0830    2.9149   -0.5202 H   0  0  0  0  0  0  0  0  0  0  0  0
   -4.5139    2.4008   -1.9348 H   0  0  0  0  0  0  0  0  0  0  0  0
   -4.1612    3.0416    0.2453 H   0  0  0  0  0  0  0  0  0  0  0  0
   -3.3852    1.5619    0.7747 H   0  0  0  0  0  0  0  0  0  0  0  0
   -2.9593   -0.1371   -1.3308 H   0  0  0  0  0  0  0  0  0  0  0  0
   -4.1536    0.0676   -2.7172 H   0  0  0  0  0  0  0  0  0  0  0  0
   -1.4801    0.6843   -2.9528 H   0  0  0  0  0  0  0  0  0  0  0  0
   -2.7964    1.4970   -3.7800 H   0  0  0  0  0  0  0  0  0  0  0  0
   -2.8010    3.3986   -2.6149 H   0  0  0  0  0  0  0  0  0  0  0  0
   -1.0284    2.9397   -2.4212 H   0  0  0  0  0  0  0  0  0  0  0  0
   -2.2622    3.8868   -0.4974 H   0  0  0  0  0  0  0  0  0  0  0  0
   -0.7628    2.9517    0.8787 H   0  0  0  0  0  0  0  0  0  0  0  0
   -0.4319    0.5334   -0.8347 H   0  0  0  0  0  0  0  0  0  0  0  0
   -1.0182   -0.4773    1.2133 H   0  0  0  0  0  0  0  0  0  0  0  0
    0.6623    0.9232    1.8305 H   0  0  0  0  0  0  0  0  0  0  0  0
    1.5764    2.8383    0.2506 H   0  0  0  0  0  0  0  0  0  0  0  0
    2.9818    0.3268    1.2366 H   0  0  0  0  0  0  0  0  0  0  0  0
    2.8459    1.9977    2.0475 H   0  0  0  0  0  0  0  0  0  0  0  0
    1.0327    1.5902   -1.7390 H   0  0  0  0  0  0  0  0  0  0  0  0
    2.1601    0.2494   -1.2950 H   0  0  0  0  0  0  0  0  0  0  0  0
    2.9812    3.1707   -1.7296 H   0  0  0  0  0  0  0  0  0  0  0  0
    3.2619    1.7691   -2.7947 H   0  0  0  0  0  0  0  0  0  0  0  0
    5.2042    2.3224   -1.3529 H   0  0  0  0  0  0  0  0  0  0  0  0
    4.6424    0.6372   -1.2884 H   0  0  0  0  0  0  0  0  0  0  0  0
    4.4405    2.9370    0.7017 H   0  0  0  0  0  0  0  0  0  0  0  0
    6.3348    1.5262    0.8196 H   0  0  0  0  0  0  0  0  0  0  0  0
    5.9074    0.7679    3.0819 H   0  0  0  0  0  0  0  0  0  0  0  0
    4.6618   -0.7577    1.6335 H   0  0  0  0  0  0  0  0  0  0  0  0
    6.9420   -1.1540    1.6074 H   0  0  0  0  0  0  0  0  0  0  0  0
    7.5552    0.3221   -0.5299 H   0  0  0  0  0  0  0  0  0  0  0  0
    6.6953   -0.9377   -1.4560 H   0  0  0  0  0  0  0  0  0  0  0  0
    5.7184   -3.0260    1.3732 H   0  0  0  0  0  0  0  0  0  0  0  0
    4.5892   -2.7340   -1.3349 H   0  0  0  0  0  0  0  0  0  0  0  0
    4.0535   -1.4316   -0.2545 H   0  0  0  0  0  0  0  0  0  0  0  0
    3.7661   -3.1106    0.2029 H   0  0  0  0  0  0  0  0  0  0  0  0
    6.7046   -2.9879   -1.4869 H   0  0  0  0  0  0  0  0  0  0  0  0
    6.6408   -4.3573   -0.2972 H   0  0  0  0  0  0  0  0  0  0  0  0
    8.0654   -2.8751    1.2305 H   0  0  0  0  0  0  0  0  0  0  0  0
    8.9271   -3.6631   -0.1880 H   0  0  0  0  0  0  0  0  0  0  0  0
    8.9031   -1.6117   -1.4499 H   0  0  0  0  0  0  0  0  0  0  0  0
    8.8511   -0.5138    1.3791 H   0  0  0  0  0  0  0  0  0  0  0  0
    9.5880    1.2217    0.4855 H   0  0  0  0  0  0  0  0  0  0  0  0
   10.5168   -1.6466    1.9661 H   0  0  0  0  0  0  0  0  0  0  0  0
   12.1006   -2.6716    1.1451 H   0  0  0  0  0  0  0  0  0  0  0  0
   12.2981   -3.7003   -0.7208 H   0  0  0  0  0  0  0  0  0  0  0  0
   10.7949   -2.9396   -1.2049 H   0  0  0  0  0  0  0  0  0  0  0  0
   11.9378   -1.3342   -2.5642 H   0  0  0  0  0  0  0  0  0  0  0  0
   12.6501   -2.9338   -2.8109 H   0  0  0  0  0  0  0  0  0  0  0  0
   14.2422   -1.1007   -2.6819 H   0  0  0  0  0  0  0  0  0  0  0  0
   15.2456   -4.6540   -2.3705 H   0  0  0  0  0  0  0  0  0  0  0  0
   16.6698   -1.2837   -1.1993 H   0  0  0  0  0  0  0  0  0  0  0  0
   15.0891   -3.9328    0.6009 H   0  0  0  0  0  0  0  0  0  0  0  0
   13.8034   -1.4666    1.0765 H   0  0  0  0  0  0  0  0  0  0  0  0
   14.7251   -0.1944   -0.4343 H   0  0  0  0  0  0  0  0  0  0  0  0
   12.0116    0.8357   -1.3625 H   0  0  0  0  0  0  0  0  0  0  0  0
   13.5537    0.9506   -2.3418 H   0  0  0  0  0  0  0  0  0  0  0  0
   11.8013    0.7856    1.3043 H   0  0  0  0  0  0  0  0  0  0  0  0
   14.8970   -0.6277    4.1378 H   0  0  0  0  0  0  0  0  0  0  0  0
   11.0489    0.0651    3.9009 H   0  0  0  0  0  0  0  0  0  0  0  0
   13.7842    1.4017    4.5840 H   0  0  0  0  0  0  0  0  0  0  0  0
   13.5944    2.2116    1.6741 H   0  0  0  0  0  0  0  0  0  0  0  0
   14.8123    1.0400    1.1748 H   0  0  0  0  0  0  0  0  0  0  0  0
   14.6146    2.1646   -0.8081 H   0  0  0  0  0  0  0  0  0  0  0  0
   13.6434    3.5937   -2.4986 H   0  0  0  0  0  0  0  0  0  0  0  0
   11.1317    3.9748    0.8888 H   0  0  0  0  0  0  0  0  0  0  0  0
   13.5419    5.0504    0.6376 H   0  0  0  0  0  0  0  0  0  0  0  0
  2  1  1  0
  2  3  1  0
  2  4  1  0
  2  5  1  0
  5  6  1  0
  6  7  1  0
  7  8  1  0
  8  9  1  0
  8 10  1  0
  8 11  1  0
  5 12  1  0
 12 13  1  0
 13 14  1  0
 14 15  1  0
 15 16  1  0
 15 17  1  0
 15 18  1  0
 14 19  1  0
 19 20  1  0
  7 21  1  0
 13 21  1  0
 20 22  1  0
 21 22  1  0
 22 23  1  0
 23 24  1  0
 24 25  1  0
 24 26  1  0
 26 27  1  0
 26 28  1  0
 28 29  1  0
 29 30  1  0
 30 31  1  0
 27 32  1  0
 30 32  1  0
 32 33  1  0
 33 34  1  0
 34 35  1  0
 34 36  1  0
 36 37  1  0
 36 38  1  0
 38 39  1  0
 39 40  1  0
 37 41  1  0
 40 41  1  0
 41 42  1  0
 42 43  1  0
 43 44  1  0
 43 45  1  0
 45 46  1  0
 46 47  1  0
 46 48  1  0
 48 49  1  0
 49 50  1  0
 47 51  1  0
 50 51  1  0
 51 52  1  0
 52 53  1  0
 52 54  1  0
 54 55  1  0
 55 56  1  0
 55 57  1  0
 57 58  1  0
 57 59  1  0
 59 60  1  0
 56 61  1  0
 60 61  1  0
 61 62  1  0
 62 63  1  0
 62 64  1  0
 64 65  1  0
 65 66  1  0
 66 67  1  0
 67 68  1  0
 68 69  1  0
 69 70  1  0
 69 71  1  0
 69 72  1  0
 65 73  1  0
 68 74  1  0
 73 74  1  0
 74 75  1  0
 73 76  1  0
 76 77  1  0
 77 78  1  0
 77 79  1  0
 77 80  1  0
 76 81  1  0
 75 82  1  0
 81 82  1  0
 82 83  1  0
 83 84  1  0
 83 85  1  0
 83 86  1  0
  1 87  1  0
  3 88  1  0
  4 89  1  0
  5 90  1  0
  6 91  1  0
  6 92  1  0
  7 93  1  1
  9 94  1  0
 10 95  1  0
 11 96  1  0
 12 97  1  0
 12 98  1  0
 13 99  1  0
 14100  1  1
 16101  1  0
 17102  1  0
 18103  1  0
 19104  1  0
 19105  1  0
 20106  1  0
 20107  1  0
 21108  1  0
 22109  1  1
 23110  1  0
 24111  1  0
 25112  1  0
 26113  1  1
 27114  1  0
 27115  1  0
 28116  1  0
 28117  1  0
 29118  1  0
 29119  1  0
 30120  1  0
 31121  1  0
 31122  1  0
 31123  1  0
 32124  1  0
 33125  1  0
 34126  1  0
 35127  1  0
 36128  1  0
 37129  1  0
 37130  1  0
 38131  1  0
 38132  1  0
 39133  1  0
 39134  1  0
 40135  1  0
 40136  1  0
 41137  1  0
 42138  1  0
 43139  1  0
 44140  1  0
 45141  1  0
 46142  1  0
 47143  1  0
 47144  1  0
 48145  1  0
 48146  1  0
 49147  1  0
 49148  1  0
 50149  1  0
 50150  1  0
 51151  1  6
 52152  1  0
 53153  1  0
 54154  1  0
 55155  1  0
 56156  1  0
 56157  1  0
 57158  1  0
 58159  1  0
 58160  1  0
 58161  1  0
 59162  1  0
 59163  1  0
 60164  1  0
 60165  1  0
 61166  1  0
 62167  1  0
 63168  1  0
 64169  1  0
 65170  1  0
 66171  1  0
 66172  1  0
 67173  1  0
 67174  1  0
 68175  1  6
 70176  1  0
 71177  1  0
 72178  1  0
 73179  1  0
 74180  1  0
 75181  1  0
 75182  1  0
 76183  1  1
 78184  1  0
 79185  1  0
 80186  1  0
 81187  1  0
 81188  1  0
 82189  1  6
 84190  1  0
 85191  1  0
 86192  1  0
M  END
>  <PDBID>  (1) 
2NYR

>  <PDB ID>  (1) 
2NYR

>  <Generic Name>  (1) 
Suramin

>  <Brand Name>  (1) 
309 Fourneau#Antrypol#Bayer 205#Belganyl#Germanin#Moranyl#Naganin#Naganine#Naganol#Naphuride

>  <DrugBank ID>  (1) 
DB04786

>  <ATC Codes>  (1) 
P01CX02

>  <Ligand ID>  (1) 
SVR

>  <Target Name>  (1) 
NAD-dependent protein deacylase sirtuin-5, mitochondrial

>  <UniProt ID>  (1) 
Q9NXA8

>  <PDB ID.1>  (1) 
2NYR

>  <Seq. Identity>  (1) 
100%

$$$$
