PDB_DB00834_01
     RDKit          3D

 83 87  0  0  0  0  0  0  0  0999 V2000
    0.2302    6.5925   -0.0781 O   0  0  0  0  0  0  0  0  0  0  0  0
   -0.1989    5.2550    0.0875 C   0  0  0  0  0  0  0  0  0  0  0  0
    0.2433    4.8731    1.5012 C   0  0  0  0  0  0  0  0  0  0  0  0
    0.5271    4.4608   -0.9657 C   0  0  0  0  0  0  0  0  0  0  0  0
    0.0971    2.9960   -0.9732 C   0  0  0  0  0  0  0  0  0  0  0  0
   -1.1394    2.8027   -1.8110 C   0  0  0  0  0  0  0  0  0  0  0  0
   -0.3469    2.6926    0.4350 C   0  0  2  0  0  0  0  0  0  0  0  0
    0.5635    3.3686    1.4014 C   0  0  0  0  0  0  0  0  0  0  0  0
   -0.7313    1.2739    0.6698 C   0  0  0  0  0  0  0  0  0  0  0  0
    0.0418    0.2072    0.0097 C   0  0  1  0  0  0  0  0  0  0  0  0
    1.3707   -0.2233    0.4736 C   0  0  0  0  0  0  0  0  0  0  0  0
    2.5039    0.6835    0.6013 C   0  0  0  0  0  0  0  0  0  0  0  0
    3.7518   -0.1824    0.8902 C   0  0  0  0  0  0  0  0  0  0  0  0
    4.2392   -0.8123   -0.3907 C   0  0  0  0  0  0  0  0  0  0  0  0
    4.9061   -2.0330   -0.0662 N   0  0  0  0  0  0  0  0  0  0  0  0
    5.4262   -2.7483   -1.1983 C   0  0  0  0  0  0  0  0  0  0  0  0
    5.9567   -1.7175    0.8983 C   0  0  0  0  0  0  0  0  0  0  0  0
    3.0368   -0.9916   -1.2731 C   0  0  0  0  0  0  0  0  0  0  0  0
    1.7899   -1.3490   -0.4987 C   0  0  0  0  0  0  0  0  0  0  0  0
   -0.7441   -1.1026   -0.1127 C   0  0  0  0  0  0  0  0  0  0  0  0
   -2.0050   -1.1358    0.6858 C   0  0  2  0  0  0  0  0  0  0  0  0
   -1.8935   -1.0754    2.1506 C   0  0  0  0  0  0  0  0  0  0  0  0
   -2.9198   -2.2651    0.3350 C   0  0  1  0  0  0  0  0  0  0  0  0
   -2.7576   -2.8583   -0.9922 C   0  0  0  0  0  0  0  0  0  0  0  0
   -3.7556   -3.9896   -1.1990 C   0  0  0  0  0  0  0  0  0  0  0  0
   -3.5986   -5.0898   -0.2036 C   0  0  0  0  0  0  0  0  0  0  0  0
   -2.6930   -3.2926    1.2845 O   0  0  0  0  0  0  0  0  0  0  0  0
   -4.2792   -1.7034    0.6501 C   0  0  0  0  0  0  0  0  0  0  0  0
   -4.1160   -0.1750    0.7219 C   0  0  0  0  0  0  0  0  0  0  0  0
   -2.8243   -0.0106    0.0389 C   0  0  1  0  0  0  0  0  0  0  0  0
   -2.1201    1.2370   -0.0364 C   0  0  2  0  0  0  0  0  0  0  0  0
   -2.0238    1.7214   -1.4440 C   0  0  0  0  0  0  0  0  0  0  0  0
    1.2049    6.5540   -0.2129 H   0  0  0  0  0  0  0  0  0  0  0  0
   -1.2836    5.2728   -0.0258 H   0  0  0  0  0  0  0  0  0  0  0  0
   -0.6115    4.9951    2.1748 H   0  0  0  0  0  0  0  0  0  0  0  0
    1.1405    5.4397    1.8019 H   0  0  0  0  0  0  0  0  0  0  0  0
    0.2922    4.8919   -1.9374 H   0  0  0  0  0  0  0  0  0  0  0  0
    1.6097    4.5670   -0.7765 H   0  0  0  0  0  0  0  0  0  0  0  0
    0.9564    2.4236   -1.3147 H   0  0  0  0  0  0  0  0  0  0  0  0
   -0.7809    2.6655   -2.8677 H   0  0  0  0  0  0  0  0  0  0  0  0
   -1.6845    3.7810   -1.8143 H   0  0  0  0  0  0  0  0  0  0  0  0
   -1.2968    3.3163    0.5456 H   0  0  0  0  0  0  0  0  0  0  0  0
    1.5873    3.4026    0.9178 H   0  0  0  0  0  0  0  0  0  0  0  0
    0.6132    2.9108    2.3926 H   0  0  0  0  0  0  0  0  0  0  0  0
   -0.8628    1.1865    1.7569 H   0  0  0  0  0  0  0  0  0  0  0  0
    0.1728    0.5611   -1.0600 H   0  0  0  0  0  0  0  0  0  0  0  0
    1.2675   -0.7420    1.4527 H   0  0  0  0  0  0  0  0  0  0  0  0
    2.4135    1.2211    1.5928 H   0  0  0  0  0  0  0  0  0  0  0  0
    2.7849    1.3177   -0.2284 H   0  0  0  0  0  0  0  0  0  0  0  0
    3.5117   -0.9267    1.6598 H   0  0  0  0  0  0  0  0  0  0  0  0
    4.5272    0.4979    1.2503 H   0  0  0  0  0  0  0  0  0  0  0  0
    4.9412   -0.1233   -0.9026 H   0  0  0  0  0  0  0  0  0  0  0  0
    6.2473   -3.4096   -0.8104 H   0  0  0  0  0  0  0  0  0  0  0  0
    5.8578   -2.1253   -1.9809 H   0  0  0  0  0  0  0  0  0  0  0  0
    4.6410   -3.4521   -1.5610 H   0  0  0  0  0  0  0  0  0  0  0  0
    6.8497   -2.3476    0.7460 H   0  0  0  0  0  0  0  0  0  0  0  0
    5.5101   -1.8040    1.8998 H   0  0  0  0  0  0  0  0  0  0  0  0
    6.2889   -0.6474    0.7599 H   0  0  0  0  0  0  0  0  0  0  0  0
    3.2346   -1.8561   -1.9389 H   0  0  0  0  0  0  0  0  0  0  0  0
    2.8590   -0.1164   -1.9313 H   0  0  0  0  0  0  0  0  0  0  0  0
    1.9451   -2.3054   -0.0039 H   0  0  0  0  0  0  0  0  0  0  0  0
    1.0182   -1.5124   -1.2899 H   0  0  0  0  0  0  0  0  0  0  0  0
   -1.0102   -1.3409   -1.1633 H   0  0  0  0  0  0  0  0  0  0  0  0
   -0.1638   -1.9963    0.2422 H   0  0  0  0  0  0  0  0  0  0  0  0
   -2.2970   -2.0131    2.6518 H   0  0  0  0  0  0  0  0  0  0  0  0
   -2.5019   -0.2795    2.6582 H   0  0  0  0  0  0  0  0  0  0  0  0
   -0.8384   -1.0565    2.5531 H   0  0  0  0  0  0  0  0  0  0  0  0
   -2.7984   -2.2345   -1.8735 H   0  0  0  0  0  0  0  0  0  0  0  0
   -1.7478   -3.3664   -1.0133 H   0  0  0  0  0  0  0  0  0  0  0  0
   -3.5234   -4.4128   -2.2065 H   0  0  0  0  0  0  0  0  0  0  0  0
   -4.7991   -3.6070   -1.2735 H   0  0  0  0  0  0  0  0  0  0  0  0
   -4.2089   -4.9754    0.7029 H   0  0  0  0  0  0  0  0  0  0  0  0
   -3.9668   -6.0364   -0.6967 H   0  0  0  0  0  0  0  0  0  0  0  0
   -2.5286   -5.2565   -0.0160 H   0  0  0  0  0  0  0  0  0  0  0  0
   -1.7010   -3.4611    1.3445 H   0  0  0  0  0  0  0  0  0  0  0  0
   -5.0406   -1.9449   -0.0994 H   0  0  0  0  0  0  0  0  0  0  0  0
   -4.6399   -1.9997    1.6682 H   0  0  0  0  0  0  0  0  0  0  0  0
   -4.9180    0.2991    0.0835 H   0  0  0  0  0  0  0  0  0  0  0  0
   -4.2350    0.2213    1.7166 H   0  0  0  0  0  0  0  0  0  0  0  0
   -3.0046   -0.4142   -1.0086 H   0  0  0  0  0  0  0  0  0  0  0  0
   -2.6924    2.0334    0.5300 H   0  0  0  0  0  0  0  0  0  0  0  0
   -3.0809    1.9831   -1.7522 H   0  0  0  0  0  0  0  0  0  0  0  0
   -1.7952    0.8137   -2.0786 H   0  0  0  0  0  0  0  0  0  0  0  0
  1  2  1  0
  2  3  1  0
  2  4  1  0
  4  5  1  0
  5  6  1  0
  5  7  1  0
  3  8  1  0
  7  8  1  0
  7  9  1  0
  9 10  1  0
 10 11  1  0
 11 12  1  0
 12 13  1  0
 13 14  1  0
 14 15  1  0
 15 16  1  0
 15 17  1  0
 14 18  1  0
 11 19  1  0
 18 19  1  0
 10 20  1  0
 20 21  1  0
 21 22  1  1
 21 23  1  0
 23 24  1  0
 24 25  1  0
 25 26  1  0
 23 27  1  1
 23 28  1  0
 28 29  1  0
 21 30  1  0
 29 30  1  0
  9 31  1  0
 30 31  1  0
  6 32  1  0
 31 32  1  0
  1 33  1  0
  2 34  1  0
  3 35  1  0
  3 36  1  0
  4 37  1  0
  4 38  1  0
  5 39  1  0
  6 40  1  0
  6 41  1  0
  7 42  1  6
  8 43  1  0
  8 44  1  0
  9 45  1  0
 10 46  1  6
 11 47  1  0
 12 48  1  0
 12 49  1  0
 13 50  1  0
 13 51  1  0
 14 52  1  0
 16 53  1  0
 16 54  1  0
 16 55  1  0
 17 56  1  0
 17 57  1  0
 17 58  1  0
 18 59  1  0
 18 60  1  0
 19 61  1  0
 19 62  1  0
 20 63  1  0
 20 64  1  0
 22 65  1  0
 22 66  1  0
 22 67  1  0
 24 68  1  0
 24 69  1  0
 25 70  1  0
 25 71  1  0
 26 72  1  0
 26 73  1  0
 26 74  1  0
 27 75  1  0
 28 76  1  0
 28 77  1  0
 29 78  1  0
 29 79  1  0
 30 80  1  6
 31 81  1  1
 32 82  1  0
 32 83  1  0
M  END
>  <PDBID>  (1) 
2W8Y

>  <PDB ID>  (1) 
2W8Y

>  <Generic Name>  (1) 
Mifepristone

>  <Brand Name>  (1) 
Korlym#Mifegymiso#Corlux#Mefipil#Mifegyne#Mifeprex

>  <DrugBank ID>  (1) 
DB00834

>  <ATC Codes>  (1) 
G03XB01#G03XB51

>  <Ligand ID>  (1) 
486

>  <Target Name>  (1) 
Progesterone receptor

>  <UniProt ID>  (1) 
P06401

>  <PDB ID.1>  (1) 
2W8Y

>  <Seq. Identity>  (1) 
96%

$$$$
