PDB_DB00625_04
     RDKit          3D

 42 44  0  0  0  0  0  0  0  0999 V2000
   -2.3705   -2.3004   -1.9783 Cl  0  0  0  0  0  0  0  0  0  0  0  0
   -0.6299    2.0214   -2.0420 F   0  0  0  0  0  0  0  0  0  0  0  0
    1.5840    2.0034   -1.7340 F   0  0  0  0  0  0  0  0  0  0  0  0
    0.4682    0.1465   -2.5186 F   0  0  0  0  0  0  0  0  0  0  0  0
   -1.0656    3.3220    1.7293 O   0  0  0  0  0  0  0  0  0  0  0  0
    0.0772    1.7080    0.7092 O   0  0  0  0  0  0  0  0  0  0  0  0
   -2.2031    2.0391    0.2372 N   0  0  0  0  0  0  0  0  0  0  0  0
   -2.2510    0.6391    0.4363 C   0  0  1  0  0  0  0  0  0  0  0  0
   -3.5522    0.0496   -0.0540 C   0  0  0  0  0  0  0  0  0  0  0  0
   -3.5796   -1.4326    0.2357 C   0  0  0  0  0  0  0  0  0  0  0  0
   -2.3538   -2.1490   -0.2003 C   0  0  0  0  0  0  0  0  0  0  0  0
   -1.0635   -1.4436    0.2355 C   0  0  0  0  0  0  0  0  0  0  0  0
   -1.1454   -0.0453   -0.3297 C   0  0  0  0  0  0  0  0  0  0  0  0
    0.1874    0.7039   -0.2417 C   0  0  2  0  0  0  0  0  0  0  0  0
    1.2814   -0.2295    0.1785 C   0  0  0  0  0  0  0  0  0  0  0  0
    2.6006    0.4552    0.3209 C   0  0  0  0  0  0  0  0  0  0  0  0
    3.6281   -0.5934    0.7904 C   0  0  0  0  0  0  0  0  0  0  0  0
    3.8588   -1.7732   -0.1000 C   0  0  0  0  0  0  0  0  0  0  0  0
    4.8999   -0.6651    0.0199 C   0  0  0  0  0  0  0  0  0  0  0  0
    0.4507    1.2027   -1.6358 C   0  0  0  0  0  0  0  0  0  0  0  0
   -0.9261    2.6169    0.5071 C   0  0  0  0  0  0  0  0  0  0  0  0
   -0.6282    2.8644    2.4707 H   0  0  0  0  0  0  0  0  0  0  0  0
   -2.7761    2.4565   -0.4882 H   0  0  0  0  0  0  0  0  0  0  0  0
   -2.1829    0.4324    1.5303 H   0  0  0  0  0  0  0  0  0  0  0  0
   -4.3754    0.5188    0.4914 H   0  0  0  0  0  0  0  0  0  0  0  0
   -3.6592    0.2678   -1.1335 H   0  0  0  0  0  0  0  0  0  0  0  0
   -3.8202   -1.5798    1.3174 H   0  0  0  0  0  0  0  0  0  0  0  0
   -4.4382   -1.8497   -0.3301 H   0  0  0  0  0  0  0  0  0  0  0  0
   -2.3845   -3.1762    0.2087 H   0  0  0  0  0  0  0  0  0  0  0  0
   -0.2449   -2.0520   -0.1384 H   0  0  0  0  0  0  0  0  0  0  0  0
   -1.1081   -1.4003    1.3544 H   0  0  0  0  0  0  0  0  0  0  0  0
   -1.4939   -0.1521   -1.3757 H   0  0  0  0  0  0  0  0  0  0  0  0
    1.0205   -0.6618    1.1686 H   0  0  0  0  0  0  0  0  0  0  0  0
    1.4361   -1.0440   -0.5820 H   0  0  0  0  0  0  0  0  0  0  0  0
    3.0287    0.8431   -0.6213 H   0  0  0  0  0  0  0  0  0  0  0  0
    2.5819    1.3089    1.0256 H   0  0  0  0  0  0  0  0  0  0  0  0
    3.6713   -0.7694    1.8781 H   0  0  0  0  0  0  0  0  0  0  0  0
    3.2632   -1.8407   -1.0306 H   0  0  0  0  0  0  0  0  0  0  0  0
    4.0807   -2.7628    0.3426 H   0  0  0  0  0  0  0  0  0  0  0  0
    5.8295   -1.0057    0.5369 H   0  0  0  0  0  0  0  0  0  0  0  0
    5.0185   -0.0834   -0.9126 H   0  0  0  0  0  0  0  0  0  0  0  0
   -0.7141    3.4104   -0.2365 H   0  0  0  0  0  0  0  0  0  0  0  0
  7  8  1  0
  8  9  1  0
  9 10  1  0
  1 11  1  0
 10 11  1  0
 11 12  1  0
  8 13  1  0
 12 13  1  0
  6 14  1  0
 13 14  1  0
 14 15  1  1
 15 16  1  0
 16 17  1  0
 17 18  1  0
 17 19  1  0
 18 19  1  0
 20  2  1  0
  3 20  1  0
  4 20  1  0
 14 20  1  0
  5 21  1  0
  6 21  1  0
  7 21  1  0
  5 22  1  0
  7 23  1  0
  8 24  1  1
  9 25  1  0
  9 26  1  0
 10 27  1  0
 10 28  1  0
 11 29  1  0
 12 30  1  0
 12 31  1  0
 13 32  1  0
 15 33  1  0
 15 34  1  0
 16 35  1  0
 16 36  1  0
 17 37  1  0
 18 38  1  0
 18 39  1  0
 19 40  1  0
 19 41  1  0
 21 42  1  0
M  END
>  <PDBID>  (1) 
1JKH

>  <PDB ID>  (1) 
1JKH

>  <Generic Name>  (1) 
Efavirenz

>  <Brand Name>  (1) 
Atripla#Auro-efavirenz#Mylan-efavirenz#Sustiva#Sustiva 100mg#Sustiva 200mg#Sustiva 50mg#Sustiva Tablets#Teva-efavirenz#E.F#Efavir#Efavirenz#Efcure#Efferven#Estiva#Evirenz#Stocrin#Viranz

>  <DrugBank ID>  (1) 
DB00625

>  <ATC Codes>  (1) 
J05AR06#J05AG03#J05AR11

>  <Ligand ID>  (1) 
EFZ

>  <Target Name>  (1) 
Reverse transcriptase/RNaseH

>  <UniProt ID>  (1) 
Q72547

>  <PDB ID.1>  (1) 
1JKH

>  <Seq. Identity>  (1) 
96%

$$$$
