PDB_DB01601_02
     RDKit          3D

118121  0  0  0  0  0  0  0  0999 V2000
   -5.5177    5.2313    0.2835 C   0  0  0  0  0  0  0  0  0  0  0  0
   -4.6792    3.1112   -0.6157 C   0  0  0  0  0  0  0  0  0  0  0  0
   -4.6622    2.5285    0.6528 N   0  0  0  0  0  0  0  0  0  0  0  0
   -5.1418    3.3236    1.7219 C   0  0  0  0  0  0  0  0  0  0  0  0
   -4.8004    4.7162    1.4062 N   0  0  0  0  0  0  0  0  0  0  0  0
    1.4508   -2.1657    2.6987 C   0  0  0  0  0  0  0  0  0  0  0  0
    1.3177   -0.8796    3.4667 C   0  0  0  0  0  0  0  0  0  0  0  0
    0.5739   -1.1039    4.7623 C   0  0  0  0  0  0  0  0  0  0  0  0
    1.3461   -2.0301    5.6801 C   0  0  0  0  0  0  0  0  0  0  0  0
    1.5366   -3.3258    4.9171 C   0  0  0  0  0  0  0  0  0  0  0  0
    2.2568   -3.0961    3.6349 C   0  0  0  0  0  0  0  0  0  0  0  0
   -4.3503    3.0191    2.8557 O   0  0  0  0  0  0  0  0  0  0  0  0
   -4.6261    1.1240    0.8184 C   0  0  2  0  0  0  0  0  0  0  0  0
   -3.3300    0.6100    0.1954 C   0  0  0  0  0  0  0  0  0  0  0  0
   -3.1321   -0.7657    0.4072 N   0  0  0  0  0  0  0  0  0  0  0  0
   -1.9570   -1.3623   -0.1881 C   0  0  1  0  0  0  0  0  0  0  0  0
   -5.8503    0.3868    0.4547 C   0  0  0  0  0  0  0  0  0  0  0  0
   -6.3029    0.4685   -0.9623 C   0  0  0  0  0  0  0  0  0  0  0  0
   -5.8190   -1.0564    0.8909 C   0  0  0  0  0  0  0  0  0  0  0  0
   -2.3367    1.3114    0.9527 O   0  0  0  0  0  0  0  0  0  0  0  0
   -3.8132   -4.2719   -2.9874 C   0  0  0  0  0  0  0  0  0  0  0  0
   -2.9891   -4.2639   -4.2548 C   0  0  0  0  0  0  0  0  0  0  0  0
   -2.3398   -2.9173   -4.3775 C   0  0  0  0  0  0  0  0  0  0  0  0
   -3.1791   -1.8582   -3.7235 C   0  0  0  0  0  0  0  0  0  0  0  0
   -3.2464   -2.0239   -2.1998 C   0  0  0  0  0  0  0  0  0  0  0  0
   -3.1128   -3.4864   -1.8775 C   0  0  0  0  0  0  0  0  0  0  0  0
   -2.0134   -1.2769   -1.6672 C   0  0  0  0  0  0  0  0  0  0  0  0
   -0.6720   -0.8975    0.4389 C   0  0  0  0  0  0  0  0  0  0  0  0
    0.4847   -1.5564   -0.2020 C   0  0  1  0  0  0  0  0  0  0  0  0
    1.8571   -1.1601    0.3814 C   0  0  1  0  0  0  0  0  0  0  0  0
    2.0169    0.2144    0.4942 N   0  0  0  0  0  0  0  0  0  0  0  0
    3.2341    0.8857    0.2406 C   0  0  0  0  0  0  0  0  0  0  0  0
    3.7943    0.7275   -1.1240 C   0  0  0  0  0  0  0  0  0  0  0  0
    4.9183    1.3657   -1.4814 O   0  0  0  0  0  0  0  0  0  0  0  0
    6.0950    1.2265   -0.8618 C   0  0  0  0  0  0  0  0  0  0  0  0
    0.4086   -2.9340   -0.2595 O   0  0  0  0  0  0  0  0  0  0  0  0
    2.2659   -2.0679    1.4719 C   0  0  0  0  0  0  0  0  0  0  0  0
    4.1584    0.8300    1.2717 O   0  0  0  0  0  0  0  0  0  0  0  0
    6.7032    2.5671   -0.5463 C   0  0  0  0  0  0  0  0  0  0  0  0
    6.8721    3.3547   -1.8599 C   0  0  0  0  0  0  0  0  0  0  0  0
    7.9794    2.7139   -2.6392 C   0  0  0  0  0  0  0  0  0  0  0  0
    7.5316    1.2991   -2.9431 C   0  0  0  0  0  0  0  0  0  0  0  0
    7.1519    0.5239   -1.7388 C   0  0  0  0  0  0  0  0  0  0  0  0
    8.3684    0.3722   -0.8435 C   0  0  0  0  0  0  0  0  0  0  0  0
    5.7377    3.3876    0.2677 C   0  0  0  0  0  0  0  0  0  0  0  0
   -5.8239    4.1328   -0.7065 C   0  0  0  0  0  0  0  0  0  0  0  0
   -6.4593    5.7587    0.5995 H   0  0  0  0  0  0  0  0  0  0  0  0
   -4.9177    6.0263   -0.2501 H   0  0  0  0  0  0  0  0  0  0  0  0
   -3.7555    3.7748   -0.6908 H   0  0  0  0  0  0  0  0  0  0  0  0
   -4.6330    2.4813   -1.4958 H   0  0  0  0  0  0  0  0  0  0  0  0
   -6.2035    3.2263    1.9451 H   0  0  0  0  0  0  0  0  0  0  0  0
   -4.8831    5.2738    2.2800 H   0  0  0  0  0  0  0  0  0  0  0  0
    0.4819   -2.6922    2.5982 H   0  0  0  0  0  0  0  0  0  0  0  0
    0.8329   -0.0599    2.9548 H   0  0  0  0  0  0  0  0  0  0  0  0
    2.3578   -0.5659    3.7579 H   0  0  0  0  0  0  0  0  0  0  0  0
   -0.3950   -1.6221    4.5477 H   0  0  0  0  0  0  0  0  0  0  0  0
    0.4333   -0.1489    5.2606 H   0  0  0  0  0  0  0  0  0  0  0  0
    0.7512   -2.2056    6.5818 H   0  0  0  0  0  0  0  0  0  0  0  0
    2.3152   -1.5871    5.9907 H   0  0  0  0  0  0  0  0  0  0  0  0
    0.5679   -3.8289    4.8133 H   0  0  0  0  0  0  0  0  0  0  0  0
    2.1931   -3.9581    5.5485 H   0  0  0  0  0  0  0  0  0  0  0  0
    3.2293   -2.6412    3.8625 H   0  0  0  0  0  0  0  0  0  0  0  0
    2.4482   -4.0472    3.1314 H   0  0  0  0  0  0  0  0  0  0  0  0
   -4.8669    2.5718    3.5624 H   0  0  0  0  0  0  0  0  0  0  0  0
   -4.4670    0.9494    1.9290 H   0  0  0  0  0  0  0  0  0  0  0  0
   -3.1898    0.9800   -0.8349 H   0  0  0  0  0  0  0  0  0  0  0  0
   -3.1347   -0.9194    1.4632 H   0  0  0  0  0  0  0  0  0  0  0  0
   -2.0257   -2.4664    0.0751 H   0  0  0  0  0  0  0  0  0  0  0  0
   -6.7251    0.8132    1.0637 H   0  0  0  0  0  0  0  0  0  0  0  0
   -6.8557    1.4250   -1.1492 H   0  0  0  0  0  0  0  0  0  0  0  0
   -5.5480    0.3209   -1.7279 H   0  0  0  0  0  0  0  0  0  0  0  0
   -7.0926   -0.3157   -1.1810 H   0  0  0  0  0  0  0  0  0  0  0  0
   -5.2604   -1.7323    0.2286 H   0  0  0  0  0  0  0  0  0  0  0  0
   -5.4411   -1.1637    1.9383 H   0  0  0  0  0  0  0  0  0  0  0  0
   -6.8582   -1.4863    0.9435 H   0  0  0  0  0  0  0  0  0  0  0  0
   -2.4823    0.9627    1.8914 H   0  0  0  0  0  0  0  0  0  0  0  0
   -4.8092   -3.8126   -3.1260 H   0  0  0  0  0  0  0  0  0  0  0  0
   -3.9504   -5.3000   -2.6141 H   0  0  0  0  0  0  0  0  0  0  0  0
   -3.6904   -4.4755   -5.0816 H   0  0  0  0  0  0  0  0  0  0  0  0
   -2.2614   -5.1095   -4.1579 H   0  0  0  0  0  0  0  0  0  0  0  0
   -2.3156   -2.6603   -5.4692 H   0  0  0  0  0  0  0  0  0  0  0  0
   -1.3137   -2.9728   -3.9904 H   0  0  0  0  0  0  0  0  0  0  0  0
   -2.7777   -0.8571   -3.9772 H   0  0  0  0  0  0  0  0  0  0  0  0
   -4.2236   -1.9750   -4.1020 H   0  0  0  0  0  0  0  0  0  0  0  0
   -4.1635   -1.5848   -1.8150 H   0  0  0  0  0  0  0  0  0  0  0  0
   -3.6617   -3.6887   -0.9445 H   0  0  0  0  0  0  0  0  0  0  0  0
   -2.0713   -3.8306   -1.8526 H   0  0  0  0  0  0  0  0  0  0  0  0
   -1.1742   -1.7854   -2.1976 H   0  0  0  0  0  0  0  0  0  0  0  0
   -2.0655   -0.2329   -2.0203 H   0  0  0  0  0  0  0  0  0  0  0  0
   -0.5938    0.2246    0.2602 H   0  0  0  0  0  0  0  0  0  0  0  0
   -0.7867   -0.9942    1.5168 H   0  0  0  0  0  0  0  0  0  0  0  0
    0.4749   -1.2124   -1.2836 H   0  0  0  0  0  0  0  0  0  0  0  0
    2.5412   -1.4798   -0.4860 H   0  0  0  0  0  0  0  0  0  0  0  0
    1.2271    0.8016    0.7755 H   0  0  0  0  0  0  0  0  0  0  0  0
    2.9271    2.0119    0.2643 H   0  0  0  0  0  0  0  0  0  0  0  0
    3.9721   -0.3736   -1.3809 H   0  0  0  0  0  0  0  0  0  0  0  0
    2.9788    1.1014   -1.8322 H   0  0  0  0  0  0  0  0  0  0  0  0
    6.1152    0.6065    0.0719 H   0  0  0  0  0  0  0  0  0  0  0  0
    0.9767   -3.2602   -0.9896 H   0  0  0  0  0  0  0  0  0  0  0  0
    2.2430   -3.1213    1.0024 H   0  0  0  0  0  0  0  0  0  0  0  0
    3.3208   -1.9640    1.7636 H   0  0  0  0  0  0  0  0  0  0  0  0
    4.4463   -0.0185    1.5837 H   0  0  0  0  0  0  0  0  0  0  0  0
    7.6941    2.4704   -0.0442 H   0  0  0  0  0  0  0  0  0  0  0  0
    5.9230    3.1856   -2.4418 H   0  0  0  0  0  0  0  0  0  0  0  0
    7.0727    4.4184   -1.6766 H   0  0  0  0  0  0  0  0  0  0  0  0
    8.0622    3.2412   -3.6316 H   0  0  0  0  0  0  0  0  0  0  0  0
    8.9681    2.7799   -2.1937 H   0  0  0  0  0  0  0  0  0  0  0  0
    8.4302    0.7929   -3.3830 H   0  0  0  0  0  0  0  0  0  0  0  0
    6.7628    1.3280   -3.7334 H   0  0  0  0  0  0  0  0  0  0  0  0
    6.8467   -0.4783   -2.0423 H   0  0  0  0  0  0  0  0  0  0  0  0
    8.1212    0.4724    0.2151 H   0  0  0  0  0  0  0  0  0  0  0  0
    9.1677    1.1045   -1.0731 H   0  0  0  0  0  0  0  0  0  0  0  0
    8.8649   -0.6302   -0.9646 H   0  0  0  0  0  0  0  0  0  0  0  0
    5.6704    3.0905    1.3328 H   0  0  0  0  0  0  0  0  0  0  0  0
    6.1182    4.4504    0.1875 H   0  0  0  0  0  0  0  0  0  0  0  0
    4.7784    3.4047   -0.2722 H   0  0  0  0  0  0  0  0  0  0  0  0
   -6.7888    3.7031   -0.4269 H   0  0  0  0  0  0  0  0  0  0  0  0
   -5.8367    4.5747   -1.7123 H   0  0  0  0  0  0  0  0  0  0  0  0
  2  3  1  0
  3  4  1  0
  1  5  1  0
  4  5  1  0
  6  7  1  0
  7  8  1  0
  8  9  1  0
  9 10  1  0
  6 11  1  0
 10 11  1  0
  4 12  1  0
  3 13  1  0
 13 14  1  0
 14 15  1  0
 15 16  1  0
 13 17  1  0
 17 18  1  0
 17 19  1  0
 14 20  1  0
 21 22  1  0
 22 23  1  0
 23 24  1  0
 24 25  1  0
 21 26  1  0
 25 26  1  0
 16 27  1  0
 25 27  1  0
 16 28  1  0
 28 29  1  0
 29 30  1  0
 30 31  1  0
 31 32  1  0
 32 33  1  0
 33 34  1  0
 34 35  1  0
 29 36  1  0
  6 37  1  0
 30 37  1  0
 32 38  1  0
 35 39  1  0
 39 40  1  0
 40 41  1  0
 41 42  1  0
 35 43  1  0
 42 43  1  0
 43 44  1  0
 39 45  1  0
  1 46  1  0
  2 46  1  0
  1 47  1  0
  1 48  1  0
  2 49  1  0
  2 50  1  0
  4 51  1  0
  5 52  1  0
  6 53  1  0
  7 54  1  0
  7 55  1  0
  8 56  1  0
  8 57  1  0
  9 58  1  0
  9 59  1  0
 10 60  1  0
 10 61  1  0
 11 62  1  0
 11 63  1  0
 12 64  1  0
 13 65  1  1
 14 66  1  0
 15 67  1  0
 16 68  1  6
 17 69  1  0
 18 70  1  0
 18 71  1  0
 18 72  1  0
 19 73  1  0
 19 74  1  0
 19 75  1  0
 20 76  1  0
 21 77  1  0
 21 78  1  0
 22 79  1  0
 22 80  1  0
 23 81  1  0
 23 82  1  0
 24 83  1  0
 24 84  1  0
 25 85  1  0
 26 86  1  0
 26 87  1  0
 27 88  1  0
 27 89  1  0
 28 90  1  0
 28 91  1  0
 29 92  1  6
 30 93  1  6
 31 94  1  0
 32 95  1  0
 33 96  1  0
 33 97  1  0
 35 98  1  0
 36 99  1  0
 37100  1  0
 37101  1  0
 38102  1  0
 39103  1  0
 40104  1  0
 40105  1  0
 41106  1  0
 41107  1  0
 42108  1  0
 42109  1  0
 43110  1  0
 44111  1  0
 44112  1  0
 44113  1  0
 45114  1  0
 45115  1  0
 45116  1  0
 46117  1  0
 46118  1  0
M  END
>  <PDBID>  (1) 
1MUI

>  <PDB ID>  (1) 
1MUI

>  <Generic Name>  (1) 
Lopinavir

>  <Brand Name>  (1) 
Kaletra#Lopinavir-ritonavir#Aluviran#Koletra

>  <DrugBank ID>  (1) 
DB01601

>  <ATC Codes>  (1) 
J05AR10

>  <Ligand ID>  (1) 
AB1

>  <Target Name>  (1) 
Pol polyprotein

>  <UniProt ID>  (1) 
Q72874

>  <PDB ID.1>  (1) 
1MUI

>  <Seq. Identity>  (1) 
99%

$$$$
