PDB_DB00655_01
     RDKit          3D

100106  0  0  0  0  0  0  0  0999 V2000
    0.3138    0.0302    0.8319 C   0  0  2  0  0  0  0  0  0  0  0  0
   -1.8032    1.1925    1.4920 C   0  0  0  0  0  0  0  0  0  0  0  0
   -2.4875    0.5109    0.3544 C   0  0  2  0  0  0  0  0  0  0  0  0
   -2.4803    1.2954   -0.9171 C   0  0  0  0  0  0  0  0  0  0  0  0
   -4.8354    0.9916    0.1386 O   0  0  0  0  0  0  0  0  0  0  0  0
    4.9740    0.4566    1.2733 O   0  0  0  0  0  0  0  0  0  0  0  0
   -3.9097    0.1046    0.6503 C   0  0  1  0  0  0  0  0  0  0  0  0
   -4.1240   -1.2254   -0.0697 C   0  0  0  0  0  0  0  0  0  0  0  0
   -2.7633   -1.5683   -0.6892 C   0  0  0  0  0  0  0  0  0  0  0  0
   -1.8288   -0.8553    0.1963 C   0  0  1  0  0  0  0  0  0  0  0  0
   -0.4331   -0.7026   -0.2841 C   0  0  2  0  0  0  0  0  0  0  0  0
   -0.3467    1.3589    1.1509 C   0  0  0  0  0  0  0  0  0  0  0  0
    0.1947   -2.0850   -0.3650 C   0  0  0  0  0  0  0  0  0  0  0  0
    1.6693   -2.0519   -0.5527 C   0  0  0  0  0  0  0  0  0  0  0  0
    2.2702   -0.6832   -0.5637 C   0  0  0  0  0  0  0  0  0  0  0  0
    1.7573    0.1823    0.5732 C   0  0  0  0  0  0  0  0  0  0  0  0
    3.7712   -0.7792   -0.3477 C   0  0  0  0  0  0  0  0  0  0  0  0
    4.4090    0.5144   -0.0219 C   0  0  0  0  0  0  0  0  0  0  0  0
    3.5802    1.7289   -0.1511 C   0  0  0  0  0  0  0  0  0  0  0  0
    2.1423    1.6060    0.1641 C   0  0  0  0  0  0  0  0  0  0  0  0
    0.3138    0.0302    0.8319 C   0  0  2  0  0  0  0  0  0  0  0  0
   -1.8032    1.1925    1.4920 C   0  0  0  0  0  0  0  0  0  0  0  0
   -2.4875    0.5109    0.3544 C   0  0  2  0  0  0  0  0  0  0  0  0
   -2.4803    1.2954   -0.9171 C   0  0  0  0  0  0  0  0  0  0  0  0
   -4.8354    0.9916    0.1386 O   0  0  0  0  0  0  0  0  0  0  0  0
    4.9740    0.4566    1.2733 O   0  0  0  0  0  0  0  0  0  0  0  0
   -3.9097    0.1046    0.6503 C   0  0  1  0  0  0  0  0  0  0  0  0
   -4.1240   -1.2254   -0.0697 C   0  0  0  0  0  0  0  0  0  0  0  0
   -2.7633   -1.5683   -0.6892 C   0  0  0  0  0  0  0  0  0  0  0  0
   -1.8288   -0.8553    0.1963 C   0  0  1  0  0  0  0  0  0  0  0  0
   -0.4331   -0.7026   -0.2841 C   0  0  2  0  0  0  0  0  0  0  0  0
   -0.3467    1.3589    1.1509 C   0  0  0  0  0  0  0  0  0  0  0  0
    0.1947   -2.0850   -0.3650 C   0  0  0  0  0  0  0  0  0  0  0  0
    1.6693   -2.0519   -0.5527 C   0  0  0  0  0  0  0  0  0  0  0  0
    2.2702   -0.6832   -0.5637 C   0  0  0  0  0  0  0  0  0  0  0  0
    1.7573    0.1823    0.5732 C   0  0  0  0  0  0  0  0  0  0  0  0
    3.7712   -0.7792   -0.3477 C   0  0  0  0  0  0  0  0  0  0  0  0
    4.4090    0.5144   -0.0219 C   0  0  0  0  0  0  0  0  0  0  0  0
    3.5802    1.7289   -0.1511 C   0  0  0  0  0  0  0  0  0  0  0  0
    2.1423    1.6060    0.1641 C   0  0  0  0  0  0  0  0  0  0  0  0
    0.1691   -0.6101    1.7435 H   0  0  0  0  0  0  0  0  0  0  0  0
   -1.8832    0.5226    2.3808 H   0  0  0  0  0  0  0  0  0  0  0  0
   -2.2336    2.1738    1.6990 H   0  0  0  0  0  0  0  0  0  0  0  0
   -2.2703    0.6900   -1.8220 H   0  0  0  0  0  0  0  0  0  0  0  0
   -1.7925    2.1468   -0.9341 H   0  0  0  0  0  0  0  0  0  0  0  0
   -3.5070    1.7307   -1.0956 H   0  0  0  0  0  0  0  0  0  0  0  0
   -5.2843    0.6538   -0.6894 H   0  0  0  0  0  0  0  0  0  0  0  0
    5.0384    1.3599    1.6376 H   0  0  0  0  0  0  0  0  0  0  0  0
   -4.0678    0.0034    1.7383 H   0  0  0  0  0  0  0  0  0  0  0  0
   -4.9128   -1.1688   -0.8200 H   0  0  0  0  0  0  0  0  0  0  0  0
   -4.3996   -1.9951    0.6853 H   0  0  0  0  0  0  0  0  0  0  0  0
   -2.6978   -2.6787   -0.6413 H   0  0  0  0  0  0  0  0  0  0  0  0
   -2.7591   -1.2889   -1.7391 H   0  0  0  0  0  0  0  0  0  0  0  0
   -1.8333   -1.3209    1.1939 H   0  0  0  0  0  0  0  0  0  0  0  0
   -0.3455   -0.1615   -1.2339 H   0  0  0  0  0  0  0  0  0  0  0  0
   -0.2052    2.0874    0.3453 H   0  0  0  0  0  0  0  0  0  0  0  0
    0.1822    1.7571    2.0426 H   0  0  0  0  0  0  0  0  0  0  0  0
   -0.3431   -2.6270   -1.1746 H   0  0  0  0  0  0  0  0  0  0  0  0
   -0.0424   -2.6050    0.5887 H   0  0  0  0  0  0  0  0  0  0  0  0
    1.9175   -2.5347   -1.5290 H   0  0  0  0  0  0  0  0  0  0  0  0
    2.2261   -2.6497    0.2134 H   0  0  0  0  0  0  0  0  0  0  0  0
    2.1317   -0.1751   -1.5490 H   0  0  0  0  0  0  0  0  0  0  0  0
    2.3415   -0.0154    1.5146 H   0  0  0  0  0  0  0  0  0  0  0  0
    4.2447   -1.3029   -1.2258 H   0  0  0  0  0  0  0  0  0  0  0  0
    3.9006   -1.5063    0.5010 H   0  0  0  0  0  0  0  0  0  0  0  0
    5.3060    0.6323   -0.7007 H   0  0  0  0  0  0  0  0  0  0  0  0
    4.0109    2.5157    0.5378 H   0  0  0  0  0  0  0  0  0  0  0  0
    3.7207    2.1750   -1.1785 H   0  0  0  0  0  0  0  0  0  0  0  0
    1.7888    2.3475    0.9320 H   0  0  0  0  0  0  0  0  0  0  0  0
    1.5293    1.8229   -0.7443 H   0  0  0  0  0  0  0  0  0  0  0  0
    0.1691   -0.6101    1.7435 H   0  0  0  0  0  0  0  0  0  0  0  0
   -1.8832    0.5226    2.3808 H   0  0  0  0  0  0  0  0  0  0  0  0
   -2.2336    2.1738    1.6990 H   0  0  0  0  0  0  0  0  0  0  0  0
   -2.2703    0.6900   -1.8220 H   0  0  0  0  0  0  0  0  0  0  0  0
   -1.7925    2.1468   -0.9341 H   0  0  0  0  0  0  0  0  0  0  0  0
   -3.5070    1.7307   -1.0956 H   0  0  0  0  0  0  0  0  0  0  0  0
   -5.2843    0.6538   -0.6894 H   0  0  0  0  0  0  0  0  0  0  0  0
    5.0384    1.3599    1.6376 H   0  0  0  0  0  0  0  0  0  0  0  0
   -4.0678    0.0034    1.7383 H   0  0  0  0  0  0  0  0  0  0  0  0
   -4.9128   -1.1688   -0.8200 H   0  0  0  0  0  0  0  0  0  0  0  0
   -4.3996   -1.9951    0.6853 H   0  0  0  0  0  0  0  0  0  0  0  0
   -2.6978   -2.6787   -0.6413 H   0  0  0  0  0  0  0  0  0  0  0  0
   -2.7591   -1.2889   -1.7391 H   0  0  0  0  0  0  0  0  0  0  0  0
   -1.8333   -1.3209    1.1939 H   0  0  0  0  0  0  0  0  0  0  0  0
   -0.3455   -0.1615   -1.2339 H   0  0  0  0  0  0  0  0  0  0  0  0
   -0.2052    2.0874    0.3453 H   0  0  0  0  0  0  0  0  0  0  0  0
    0.1822    1.7571    2.0426 H   0  0  0  0  0  0  0  0  0  0  0  0
   -0.3431   -2.6270   -1.1746 H   0  0  0  0  0  0  0  0  0  0  0  0
   -0.0424   -2.6050    0.5887 H   0  0  0  0  0  0  0  0  0  0  0  0
    1.9175   -2.5347   -1.5290 H   0  0  0  0  0  0  0  0  0  0  0  0
    2.2261   -2.6497    0.2134 H   0  0  0  0  0  0  0  0  0  0  0  0
    2.1317   -0.1751   -1.5490 H   0  0  0  0  0  0  0  0  0  0  0  0
    2.3415   -0.0154    1.5146 H   0  0  0  0  0  0  0  0  0  0  0  0
    4.2447   -1.3029   -1.2258 H   0  0  0  0  0  0  0  0  0  0  0  0
    3.9006   -1.5063    0.5010 H   0  0  0  0  0  0  0  0  0  0  0  0
    5.3060    0.6323   -0.7007 H   0  0  0  0  0  0  0  0  0  0  0  0
    4.0109    2.5157    0.5378 H   0  0  0  0  0  0  0  0  0  0  0  0
    3.7207    2.1750   -1.1785 H   0  0  0  0  0  0  0  0  0  0  0  0
    1.7888    2.3475    0.9320 H   0  0  0  0  0  0  0  0  0  0  0  0
    1.5293    1.8229   -0.7443 H   0  0  0  0  0  0  0  0  0  0  0  0
  2  3  1  0
  3  4  1  6
  3  7  1  0
  5  7  1  0
  7  8  1  0
  8  9  1  0
  3 10  1  0
  9 10  1  0
  1 11  1  0
 10 11  1  0
  1 12  1  0
  2 12  1  0
 11 13  1  0
 13 14  1  0
 14 15  1  0
  1 16  1  0
 15 16  1  0
 15 17  1  0
  6 18  1  0
 17 18  1  0
 18 19  1  0
 16 20  1  0
 19 20  1  0
 22 23  1  0
 23 24  1  6
 23 27  1  0
 25 27  1  0
 27 28  1  0
 28 29  1  0
 23 30  1  0
 29 30  1  0
 21 31  1  0
 30 31  1  0
 21 32  1  0
 22 32  1  0
 31 33  1  0
 33 34  1  0
 34 35  1  0
 21 36  1  0
 35 36  1  0
 35 37  1  0
 26 38  1  0
 37 38  1  0
 38 39  1  0
 36 40  1  0
 39 40  1  0
  1 41  1  1
  2 42  1  0
  2 43  1  0
  4 44  1  0
  4 45  1  0
  4 46  1  0
  5 47  1  0
  6 48  1  0
  7 49  1  1
  8 50  1  0
  8 51  1  0
  9 52  1  0
  9 53  1  0
 10 54  1  1
 11 55  1  6
 12 56  1  0
 12 57  1  0
 13 58  1  0
 13 59  1  0
 14 60  1  0
 14 61  1  0
 15 62  1  0
 16 63  1  0
 17 64  1  0
 17 65  1  0
 18 66  1  0
 19 67  1  0
 19 68  1  0
 20 69  1  0
 20 70  1  0
 21 71  1  1
 22 72  1  0
 22 73  1  0
 24 74  1  0
 24 75  1  0
 24 76  1  0
 25 77  1  0
 26 78  1  0
 27 79  1  1
 28 80  1  0
 28 81  1  0
 29 82  1  0
 29 83  1  0
 30 84  1  1
 31 85  1  6
 32 86  1  0
 32 87  1  0
 33 88  1  0
 33 89  1  0
 34 90  1  0
 34 91  1  0
 35 92  1  0
 36 93  1  0
 37 94  1  0
 37 95  1  0
 38 96  1  0
 39 97  1  0
 39 98  1  0
 40 99  1  0
 40100  1  0
M  END
>  <PDBID>  (1) 
3HM1

>  <PDB ID>  (1) 
3HM1

>  <Generic Name>  (1) 
Estrone

>  <Brand Name>  (1) 
Estragyn Vaginal Cream#Oestrilin Cones Vaginaux#Oestrilin Creme Vaginale 1mg#Estrone

>  <DrugBank ID>  (1) 
DB00655

>  <ATC Codes>  (1) 
G03CA07#G03CC04

>  <Ligand ID>  (1) 
J3Z

>  <Target Name>  (1) 
Estrogen receptor

>  <UniProt ID>  (1) 
P03372

>  <PDB ID.1>  (1) 
3HM1

>  <Seq. Identity>  (1) 
93%

$$$$
