PDB_DB05015_08
     RDKit          3D

108110  0  0  0  0  0  0  0  0999 V2000
    5.0360    1.4622   -2.3059 O   0  0  0  0  0  0  0  0  0  0  0  0
    5.4137    1.6817   -1.0030 C   0  0  0  0  0  0  0  0  0  0  0  0
    6.5906    0.9196   -0.6970 N   0  0  0  0  0  0  0  0  0  0  0  0
    7.0345    1.0686    0.5515 O   0  0  0  0  0  0  0  0  0  0  0  0
    4.2423    1.3506   -0.1001 C   0  0  0  0  0  0  0  0  0  0  0  0
    3.8209   -0.0951   -0.2565 C   0  0  0  0  0  0  0  0  0  0  0  0
    2.6494   -0.3947    0.6624 C   0  0  0  0  0  0  0  0  0  0  0  0
    1.5127    0.5004    0.2975 C   0  0  0  0  0  0  0  0  0  0  0  0
    2.3105   -1.8576    0.4817 C   0  0  0  0  0  0  0  0  0  0  0  0
    1.0830   -2.2927    1.2041 C   0  0  0  0  0  0  0  0  0  0  0  0
    0.2587   -1.1658    1.7051 C   0  0  0  0  0  0  0  0  0  0  0  0
    0.2122    0.0365    0.8423 C   0  0  2  0  0  0  0  0  0  0  0  0
   -1.0147   -0.1317   -0.4517 S   0  0  0  0  0  0  0  0  0  0  0  0
   -0.3037   -1.4562   -1.4074 O   0  0  0  0  0  0  0  0  0  0  0  0
   -0.9327    1.0878   -1.3438 O   0  0  0  0  0  0  0  0  0  0  0  0
   -2.2870   -0.6622    0.1393 N   0  0  0  0  0  0  0  0  0  0  0  0
   -3.6154   -0.2733   -0.1912 C   0  0  0  0  0  0  0  0  0  0  0  0
   -4.6536   -1.0391    0.6258 C   0  0  0  0  0  0  0  0  0  0  0  0
   -5.9405   -0.2560    0.5371 C   0  0  0  0  0  0  0  0  0  0  0  0
   -6.1007    0.4402   -0.7990 C   0  0  0  0  0  0  0  0  0  0  0  0
   -5.0479    1.5137   -0.9958 C   0  0  0  0  0  0  0  0  0  0  0  0
   -3.9083    1.1785   -0.0238 C   0  0  0  0  0  0  0  0  0  0  0  0
    5.0408    1.4165   -2.3418 O   0  0  0  0  0  0  0  0  0  0  0  0
    5.4204    1.6576   -1.0438 C   0  0  0  0  0  0  0  0  0  0  0  0
    6.5928    0.8943   -0.7239 N   0  0  0  0  0  0  0  0  0  0  0  0
    7.0367    1.0654    0.5229 O   0  0  0  0  0  0  0  0  0  0  0  0
    4.2515    1.3415   -0.1318 C   0  0  0  0  0  0  0  0  0  0  0  0
    3.8301   -0.1067   -0.2621 C   0  0  0  0  0  0  0  0  0  0  0  0
    2.6615   -0.3902    0.6657 C   0  0  0  0  0  0  0  0  0  0  0  0
    1.5233    0.4990    0.2884 C   0  0  0  0  0  0  0  0  0  0  0  0
    2.3208   -1.8552    0.5111 C   0  0  0  0  0  0  0  0  0  0  0  0
    1.0954   -2.2764    1.2454 C   0  0  0  0  0  0  0  0  0  0  0  0
    0.2706   -1.1415    1.7270 C   0  0  0  0  0  0  0  0  0  0  0  0
    0.2241    0.0464    0.8446 C   0  0  2  0  0  0  0  0  0  0  0  0
   -1.0074   -0.1398   -0.4426 S   0  0  0  0  0  0  0  0  0  0  0  0
   -0.2983   -1.4827   -1.3790 O   0  0  0  0  0  0  0  0  0  0  0  0
   -0.9236    1.0623   -1.3561 O   0  0  0  0  0  0  0  0  0  0  0  0
   -2.2780   -0.6600    0.1574 N   0  0  0  0  0  0  0  0  0  0  0  0
   -3.6085   -0.2770   -0.1864 C   0  0  0  0  0  0  0  0  0  0  0  0
   -4.6502   -1.0178    0.6348 C   0  0  0  0  0  0  0  0  0  0  0  0
   -5.9287   -0.2194    0.5591 C   0  0  0  0  0  0  0  0  0  0  0  0
   -6.1097    0.4516   -0.7864 C   0  0  0  0  0  0  0  0  0  0  0  0
   -5.0366    1.4908   -1.0422 C   0  0  0  0  0  0  0  0  0  0  0  0
   -3.8952    1.1822   -0.0646 C   0  0  0  0  0  0  0  0  0  0  0  0
    5.7050    1.8051   -2.9522 H   0  0  0  0  0  0  0  0  0  0  0  0
    5.6599    2.7556   -0.8098 H   0  0  0  0  0  0  0  0  0  0  0  0
    6.5887   -0.0454   -1.0560 H   0  0  0  0  0  0  0  0  0  0  0  0
    7.1370    0.1658    0.9669 H   0  0  0  0  0  0  0  0  0  0  0  0
    4.4526    1.5843    0.9634 H   0  0  0  0  0  0  0  0  0  0  0  0
    3.4191    2.0222   -0.4201 H   0  0  0  0  0  0  0  0  0  0  0  0
    3.5514   -0.2679   -1.3174 H   0  0  0  0  0  0  0  0  0  0  0  0
    4.6785   -0.7654   -0.0443 H   0  0  0  0  0  0  0  0  0  0  0  0
    2.8926   -0.2432    1.7137 H   0  0  0  0  0  0  0  0  0  0  0  0
    1.4112    0.6264   -0.8028 H   0  0  0  0  0  0  0  0  0  0  0  0
    1.7817    1.5312    0.6753 H   0  0  0  0  0  0  0  0  0  0  0  0
    3.2247   -2.4203    0.8346 H   0  0  0  0  0  0  0  0  0  0  0  0
    2.2451   -2.0932   -0.6024 H   0  0  0  0  0  0  0  0  0  0  0  0
    1.4184   -2.8936    2.1004 H   0  0  0  0  0  0  0  0  0  0  0  0
    0.5268   -3.0183    0.5741 H   0  0  0  0  0  0  0  0  0  0  0  0
    0.6750   -0.8494    2.7062 H   0  0  0  0  0  0  0  0  0  0  0  0
   -0.7782   -1.4981    1.9074 H   0  0  0  0  0  0  0  0  0  0  0  0
   -0.2153    0.8752    1.4682 H   0  0  0  0  0  0  0  0  0  0  0  0
   -1.0582   -2.0339   -1.6547 H   0  0  0  0  0  0  0  0  0  0  0  0
   -1.0796    1.0906   -2.3393 H   0  0  0  0  0  0  0  0  0  0  0  0
   -2.3322   -1.6442    0.5287 H   0  0  0  0  0  0  0  0  0  0  0  0
   -3.8074   -0.5690   -1.2611 H   0  0  0  0  0  0  0  0  0  0  0  0
   -4.3067   -0.9769    1.6893 H   0  0  0  0  0  0  0  0  0  0  0  0
   -4.7588   -2.0825    0.2856 H   0  0  0  0  0  0  0  0  0  0  0  0
   -6.7881   -0.9675    0.6268 H   0  0  0  0  0  0  0  0  0  0  0  0
   -6.0599    0.4833    1.3486 H   0  0  0  0  0  0  0  0  0  0  0  0
   -6.0851   -0.3116   -1.6218 H   0  0  0  0  0  0  0  0  0  0  0  0
   -7.0903    0.9332   -0.7848 H   0  0  0  0  0  0  0  0  0  0  0  0
   -4.6070    1.4146   -2.0115 H   0  0  0  0  0  0  0  0  0  0  0  0
   -5.4408    2.5198   -0.7917 H   0  0  0  0  0  0  0  0  0  0  0  0
   -3.0371    1.8362   -0.2011 H   0  0  0  0  0  0  0  0  0  0  0  0
   -4.2834    1.4214    0.9903 H   0  0  0  0  0  0  0  0  0  0  0  0
    5.6939    1.7208   -3.0018 H   0  0  0  0  0  0  0  0  0  0  0  0
    5.6662    2.7347   -0.8670 H   0  0  0  0  0  0  0  0  0  0  0  0
    6.5897   -0.0717   -1.0668 H   0  0  0  0  0  0  0  0  0  0  0  0
    6.7274    0.3047    1.0839 H   0  0  0  0  0  0  0  0  0  0  0  0
    4.4645    1.5931    0.9271 H   0  0  0  0  0  0  0  0  0  0  0  0
    3.4273    2.0071   -0.4611 H   0  0  0  0  0  0  0  0  0  0  0  0
    3.5571   -0.2973   -1.3192 H   0  0  0  0  0  0  0  0  0  0  0  0
    4.6879   -0.7749   -0.0420 H   0  0  0  0  0  0  0  0  0  0  0  0
    2.9076   -0.2195    1.7134 H   0  0  0  0  0  0  0  0  0  0  0  0
    1.4168    0.6064   -0.8130 H   0  0  0  0  0  0  0  0  0  0  0  0
    1.7948    1.5357    0.6488 H   0  0  0  0  0  0  0  0  0  0  0  0
    3.2360   -2.4130    0.8690 H   0  0  0  0  0  0  0  0  0  0  0  0
    2.2519   -2.1072   -0.5693 H   0  0  0  0  0  0  0  0  0  0  0  0
    1.4321   -2.8596    2.1530 H   0  0  0  0  0  0  0  0  0  0  0  0
    0.5387   -3.0145    0.6305 H   0  0  0  0  0  0  0  0  0  0  0  0
    0.6874   -0.8091    2.7226 H   0  0  0  0  0  0  0  0  0  0  0  0
   -0.7656   -1.4622    1.9465 H   0  0  0  0  0  0  0  0  0  0  0  0
   -0.2005    0.8957    1.4582 H   0  0  0  0  0  0  0  0  0  0  0  0
   -1.0659   -2.0743   -1.5838 H   0  0  0  0  0  0  0  0  0  0  0  0
   -1.0302    1.0317   -2.3591 H   0  0  0  0  0  0  0  0  0  0  0  0
   -2.3275   -1.6385    0.5563 H   0  0  0  0  0  0  0  0  0  0  0  0
   -3.7810   -0.5976   -1.2516 H   0  0  0  0  0  0  0  0  0  0  0  0
   -4.2979   -0.9545    1.6969 H   0  0  0  0  0  0  0  0  0  0  0  0
   -4.7754   -2.0610    0.2974 H   0  0  0  0  0  0  0  0  0  0  0  0
   -6.7732   -0.9317    0.6703 H   0  0  0  0  0  0  0  0  0  0  0  0
   -6.0292    0.5260    1.3649 H   0  0  0  0  0  0  0  0  0  0  0  0
   -6.1687   -0.3060   -1.5927 H   0  0  0  0  0  0  0  0  0  0  0  0
   -7.0933    0.9691   -0.7468 H   0  0  0  0  0  0  0  0  0  0  0  0
   -4.6002    1.3224   -2.0571 H   0  0  0  0  0  0  0  0  0  0  0  0
   -5.4179    2.5171   -0.9026 H   0  0  0  0  0  0  0  0  0  0  0  0
   -3.0214    1.8310   -0.2639 H   0  0  0  0  0  0  0  0  0  0  0  0
   -4.2632    1.4563    0.9435 H   0  0  0  0  0  0  0  0  0  0  0  0
  1  2  1  0
  2  3  1  0
  3  4  1  0
  2  5  1  0
  5  6  1  0
  6  7  1  0
  7  8  1  0
  7  9  1  0
  9 10  1  0
 10 11  1  0
  8 12  1  0
 11 12  1  0
 12 13  1  0
 13 14  1  0
 13 15  1  0
 13 16  1  0
 16 17  1  0
 17 18  1  0
 18 19  1  0
 19 20  1  0
 20 21  1  0
 17 22  1  0
 21 22  1  0
 24 23  1  0
 24 25  1  0
 26 25  1  0
 24 27  1  0
 27 28  1  0
 28 29  1  0
 29 30  1  0
 29 31  1  0
 31 32  1  0
 32 33  1  0
 30 34  1  0
 33 34  1  0
 34 35  1  0
 35 36  1  0
 35 37  1  0
 35 38  1  0
 38 39  1  0
 39 40  1  0
 40 41  1  0
 41 42  1  0
 42 43  1  0
 39 44  1  0
 43 44  1  0
  1 45  1  0
  2 46  1  0
  3 47  1  0
  4 48  1  0
  5 49  1  0
  5 50  1  0
  6 51  1  0
  6 52  1  0
  7 53  1  0
  8 54  1  0
  8 55  1  0
  9 56  1  0
  9 57  1  0
 10 58  1  0
 10 59  1  0
 11 60  1  0
 11 61  1  0
 12 62  1  1
 14 63  1  0
 15 64  1  0
 16 65  1  0
 17 66  1  0
 18 67  1  0
 18 68  1  0
 19 69  1  0
 19 70  1  0
 20 71  1  0
 20 72  1  0
 21 73  1  0
 21 74  1  0
 22 75  1  0
 22 76  1  0
 23 77  1  0
 24 78  1  0
 25 79  1  0
 26 80  1  0
 27 81  1  0
 27 82  1  0
 28 83  1  0
 28 84  1  0
 29 85  1  0
 30 86  1  0
 30 87  1  0
 31 88  1  0
 31 89  1  0
 32 90  1  0
 32 91  1  0
 33 92  1  0
 33 93  1  0
 34 94  1  1
 36 95  1  0
 37 96  1  0
 38 97  1  0
 39 98  1  0
 40 99  1  0
 40100  1  0
 41101  1  0
 41102  1  0
 42103  1  0
 42104  1  0
 43105  1  0
 43106  1  0
 44107  1  0
 44108  1  0
M  END
>  <PDBID>  (1) 
5EEN

>  <PDB ID>  (1) 
5EEN

>  <Generic Name>  (1) 
Belinostat

>  <Brand Name>  (1) 
Beleodaq

>  <DrugBank ID>  (1) 
DB05015

>  <ATC Codes>  (1) 
L01XX49

>  <Ligand ID>  (1) 
5OG

>  <Target Name>  (1) 
Histone deacetylase 9

>  <UniProt ID>  (1) 
Q9UKV0

>  <PDB ID.1>  (1) 
5EEN

>  <Seq. Identity>  (1) 
46%

$$$$
