PDB_DB11730_03
     RDKit          3D

 78 82  0  0  0  0  0  0  0  0999 V2000
    0.3631    0.1306   -0.2250 C   0  0  2  0  0  0  0  0  0  0  0  0
   -0.9318   -1.7273   -0.9097 C   0  0  0  0  0  0  0  0  0  0  0  0
   -1.7197   -1.3473    0.3336 C   0  0  0  0  0  0  0  0  0  0  0  0
   -1.9349    0.1252    0.2980 C   0  0  0  0  0  0  0  0  0  0  0  0
    4.6443    1.9126   -0.0870 C   0  0  0  0  0  0  0  0  0  0  0  0
    3.8269    1.0547   -0.8499 N   0  0  0  0  0  0  0  0  0  0  0  0
   -3.0925   -1.9388    0.3268 C   0  0  0  0  0  0  0  0  0  0  0  0
    4.0151    0.8256    1.9631 C   0  0  0  0  0  0  0  0  0  0  0  0
    5.1898    1.1873    1.1402 C   0  0  0  0  0  0  0  0  0  0  0  0
   -4.0249   -0.8247    0.0441 C   0  0  0  0  0  0  0  0  0  0  0  0
    2.7189    0.4233   -0.1800 C   0  0  0  0  0  0  0  0  0  0  0  0
   -4.8769   -1.1675   -1.1584 C   0  0  2  0  0  0  0  0  0  0  0  0
   -4.1625    3.8591    0.6652 C   0  0  0  0  0  0  0  0  0  0  0  0
   -5.4074    3.1322    1.0639 C   0  0  0  0  0  0  0  0  0  0  0  0
   -3.1124    2.7585    0.4122 C   0  0  0  0  0  0  0  0  0  0  0  0
   -5.2480    1.7969    0.3235 C   0  0  0  0  0  0  0  0  0  0  0  0
    5.6823   -0.8857   -0.0577 C   0  0  0  0  0  0  0  0  0  0  0  0
    7.4556    0.5655    0.6199 C   0  0  0  0  0  0  0  0  0  0  0  0
    6.8289   -1.9083   -0.1650 C   0  0  0  0  0  0  0  0  0  0  0  0
    7.9767    0.1228   -0.7264 C   0  0  0  0  0  0  0  0  0  0  0  0
   -3.8112    1.4731    0.6570 C   0  0  0  0  0  0  0  0  0  0  0  0
   -6.6896   -2.2908    0.0046 C   0  0  0  0  0  0  0  0  0  0  0  0
   -5.2451   -3.5488   -1.4866 C   0  0  0  0  0  0  0  0  0  0  0  0
    2.8812    0.1595    1.2664 C   0  0  0  0  0  0  0  0  0  0  0  0
    0.3915   -1.1290   -0.8936 N   0  0  0  0  0  0  0  0  0  0  0  0
   -0.9219    0.7772   -0.5321 N   0  0  0  0  0  0  0  0  0  0  0  0
   -3.2766    0.3782   -0.1023 N   0  0  0  0  0  0  0  0  0  0  0  0
    6.0793    0.1925    0.7323 N   0  0  0  0  0  0  0  0  0  0  0  0
    1.4527    1.0192   -0.5336 N   0  0  0  0  0  0  0  0  0  0  0  0
   -5.6955   -2.3085   -0.9959 N   0  0  0  0  0  0  0  0  0  0  0  0
    8.0025   -1.3275   -0.7343 N   0  0  0  0  0  0  0  0  0  0  0  0
   -4.1123   -1.3417   -2.3115 O   0  0  0  0  0  0  0  0  0  0  0  0
   -0.8444   -2.8147   -1.0230 H   0  0  0  0  0  0  0  0  0  0  0  0
    4.1844    2.8803    0.1941 H   0  0  0  0  0  0  0  0  0  0  0  0
   -3.3424   -2.3794    1.3387 H   0  0  0  0  0  0  0  0  0  0  0  0
    3.6192    1.8028    2.3807 H   0  0  0  0  0  0  0  0  0  0  0  0
   -4.3508    4.4338   -0.2792 H   0  0  0  0  0  0  0  0  0  0  0  0
   -3.8307    4.5956    1.4019 H   0  0  0  0  0  0  0  0  0  0  0  0
   -6.2869    3.6173    0.6166 H   0  0  0  0  0  0  0  0  0  0  0  0
   -5.5140    2.9772    2.1530 H   0  0  0  0  0  0  0  0  0  0  0  0
   -2.3095    2.9842    1.1416 H   0  0  0  0  0  0  0  0  0  0  0  0
   -2.7938    2.8731   -0.6522 H   0  0  0  0  0  0  0  0  0  0  0  0
   -5.9358    1.0922    0.7879 H   0  0  0  0  0  0  0  0  0  0  0  0
   -5.4134    2.0260   -0.7300 H   0  0  0  0  0  0  0  0  0  0  0  0
    5.5198   -0.5647   -1.1077 H   0  0  0  0  0  0  0  0  0  0  0  0
    4.8326   -1.4887    0.3154 H   0  0  0  0  0  0  0  0  0  0  0  0
    7.5500    1.6691    0.7251 H   0  0  0  0  0  0  0  0  0  0  0  0
    8.0998    0.1283    1.4105 H   0  0  0  0  0  0  0  0  0  0  0  0
    6.9771   -2.4577    0.7667 H   0  0  0  0  0  0  0  0  0  0  0  0
    6.4455   -2.6627   -0.9140 H   0  0  0  0  0  0  0  0  0  0  0  0
    7.2414    0.4435   -1.4913 H   0  0  0  0  0  0  0  0  0  0  0  0
    8.9825    0.5479   -0.9428 H   0  0  0  0  0  0  0  0  0  0  0  0
   -3.7935    1.2540    1.7495 H   0  0  0  0  0  0  0  0  0  0  0  0
   -7.3093   -1.3660    0.0222 H   0  0  0  0  0  0  0  0  0  0  0  0
   -7.4088   -3.1380   -0.1778 H   0  0  0  0  0  0  0  0  0  0  0  0
   -6.2353   -2.5139    0.9936 H   0  0  0  0  0  0  0  0  0  0  0  0
   -4.9505   -4.2921   -0.7150 H   0  0  0  0  0  0  0  0  0  0  0  0
   -6.1160   -4.0412   -2.0161 H   0  0  0  0  0  0  0  0  0  0  0  0
   -4.4979   -3.3868   -2.2722 H   0  0  0  0  0  0  0  0  0  0  0  0
    1.9423    0.5381    1.7793 H   0  0  0  0  0  0  0  0  0  0  0  0
    1.3489    1.9045   -0.0052 H   0  0  0  0  0  0  0  0  0  0  0  0
    8.2482   -1.7071   -1.6556 H   0  0  0  0  0  0  0  0  0  0  0  0
    0.3076   -0.0830    0.8610 H   0  0  0  0  0  0  0  0  0  0  0  0
   -1.4310   -1.3134   -1.8060 H   0  0  0  0  0  0  0  0  0  0  0  0
   -1.2053   -1.6988    1.2552 H   0  0  0  0  0  0  0  0  0  0  0  0
   -1.8310    0.4998    1.3589 H   0  0  0  0  0  0  0  0  0  0  0  0
    5.5425    2.1640   -0.6968 H   0  0  0  0  0  0  0  0  0  0  0  0
    3.5288    1.4992   -1.7325 H   0  0  0  0  0  0  0  0  0  0  0  0
   -3.1276   -2.7665   -0.4104 H   0  0  0  0  0  0  0  0  0  0  0  0
    4.2570    0.2428    2.8775 H   0  0  0  0  0  0  0  0  0  0  0  0
    5.7380    2.0016    1.7065 H   0  0  0  0  0  0  0  0  0  0  0  0
   -4.7169   -0.6498    0.9228 H   0  0  0  0  0  0  0  0  0  0  0  0
    2.6736   -0.5989   -0.6836 H   0  0  0  0  0  0  0  0  0  0  0  0
   -5.5258   -0.2689   -1.4058 H   0  0  0  0  0  0  0  0  0  0  0  0
    2.8313   -0.9497    1.5108 H   0  0  0  0  0  0  0  0  0  0  0  0
    1.0982   -1.8061   -0.5153 H   0  0  0  0  0  0  0  0  0  0  0  0
   -0.8012    1.7449   -0.1610 H   0  0  0  0  0  0  0  0  0  0  0  0
   -4.6419   -1.1203   -3.1233 H   0  0  0  0  0  0  0  0  0  0  0  0
  2  3  1  0
  3  4  1  0
  5  6  1  0
  3  7  1  0
  5  9  1  0
  8  9  1  0
  7 10  1  0
  6 11  1  0
 10 12  1  0
 13 14  1  0
 13 15  1  0
 14 16  1  0
 17 19  1  0
 18 20  1  0
 15 21  1  0
 16 21  1  0
  8 24  1  0
 11 24  1  0
  1 25  1  0
  2 25  1  0
  1 26  1  0
  4 26  1  0
  4 27  1  0
 10 27  1  0
 21 27  1  0
  9 28  1  0
 17 28  1  0
 18 28  1  0
  1 29  1  0
 11 29  1  0
 12 30  1  0
 22 30  1  0
 23 30  1  0
 19 31  1  0
 20 31  1  0
 12 32  1  0
  2 33  1  0
  5 34  1  0
  7 35  1  0
  8 36  1  0
 13 37  1  0
 13 38  1  0
 14 39  1  0
 14 40  1  0
 15 41  1  0
 15 42  1  0
 16 43  1  0
 16 44  1  0
 17 45  1  0
 17 46  1  0
 18 47  1  0
 18 48  1  0
 19 49  1  0
 19 50  1  0
 20 51  1  0
 20 52  1  0
 21 53  1  0
 22 54  1  0
 22 55  1  0
 22 56  1  0
 23 57  1  0
 23 58  1  0
 23 59  1  0
 24 60  1  0
 29 61  1  0
 31 62  1  0
  1 63  1  1
  2 64  1  0
  3 65  1  0
  4 66  1  0
  5 67  1  0
  6 68  1  0
  7 69  1  0
  8 70  1  0
  9 71  1  0
 10 72  1  0
 11 73  1  0
 12 74  1  6
 24 75  1  0
 25 76  1  0
 26 77  1  0
 32 78  1  0
M  END
>  <PDBID>  (1) 
5L2T

>  <PDB ID>  (1) 
5L2T

>  <Generic Name>  (1) 
Ribociclib

>  <Brand Name>  (1) 
Kisqali

>  <DrugBank ID>  (1) 
DB11730

>  <ATC Codes>  (1) 
nan

>  <Ligand ID>  (1) 
6ZZ

>  <Target Name>  (1) 
Cyclin-dependent kinase 6

>  <UniProt ID>  (1) 
Q00534

>  <PDB ID.1>  (1) 
5L2T

>  <Seq. Identity>  (1) 
100%

$$$$
