PDB_DB01254_03
     RDKit          3D

154160  0  0  0  0  0  0  0  0999 V2000
   -2.1951   -1.1170   -0.8332 C   0  0  0  0  0  0  0  0  0  0  0  0
   -3.4407   -0.8627    0.0497 C   0  0  0  0  0  0  0  0  0  0  0  0
   -3.9582    0.5097   -0.1424 C   0  0  0  0  0  0  0  0  0  0  0  0
    7.5252    0.7647    1.3370 N   0  0  0  0  0  0  0  0  0  0  0  0
   -8.9289   -0.7667   -0.0303 C   0  0  0  0  0  0  0  0  0  0  0  0
   -8.4928    0.5125   -0.6686 C   0  0  0  0  0  0  0  0  0  0  0  0
   -7.0019    0.5809   -0.9167 C   0  0  0  0  0  0  0  0  0  0  0  0
   -6.6797    1.9878   -1.3805 C   0  0  0  0  0  0  0  0  0  0  0  0
    1.3115   -0.2775    0.5079 C   0  0  0  0  0  0  0  0  0  0  0  0
    2.6342   -0.3718    1.1966 C   0  0  0  0  0  0  0  0  0  0  0  0
    3.7036   -0.4506    0.0961 C   0  0  0  0  0  0  0  0  0  0  0  0
    2.2288   -1.8741   -1.0647 C   0  0  0  0  0  0  0  0  0  0  0  0
    1.5628   -3.1710   -0.6481 C   0  0  0  0  0  0  0  0  0  0  0  0
    5.1552    1.3134    0.8254 C   0  0  0  0  0  0  0  0  0  0  0  0
    6.1201   -0.5846   -0.1586 C   0  0  0  0  0  0  0  0  0  0  0  0
    8.7470    1.4202    1.0607 C   0  0  0  0  0  0  0  0  0  0  0  0
    8.8084    2.1824   -0.2287 C   0  0  0  0  0  0  0  0  0  0  0  0
    0.2161   -0.9091    1.2616 N   0  0  0  0  0  0  0  0  0  0  0  0
   -0.9668   -0.1602    0.9039 C   0  0  1  0  0  0  0  0  0  0  0  0
   -1.2301   -0.1624   -0.4959 N   0  0  0  0  0  0  0  0  0  0  0  0
   -2.4918   -0.8178    1.6444 S   0  0  0  0  0  0  0  0  0  0  0  0
   -5.0886    0.8139    0.6014 N   0  0  0  0  0  0  0  0  0  0  0  0
   -6.3451    0.2829    0.4389 C   0  0  2  0  0  0  0  0  0  0  0  0
   -6.6658   -1.1341    0.7314 C   0  0  0  0  0  0  0  0  0  0  0  0
   -8.1427   -1.1121    1.2156 C   0  0  0  0  0  0  0  0  0  0  0  0
   -6.8081   -2.0965   -0.8028 Cl  0  0  0  0  0  0  0  0  0  0  0  0
   -2.9208    1.3803    0.3214 O   0  0  0  0  0  0  0  0  0  0  0  0
    3.5758   -1.7382   -0.5323 N   0  0  0  0  0  0  0  0  0  0  0  0
    1.3862   -0.7459   -0.8392 N   0  0  0  0  0  0  0  0  0  0  0  0
    4.9819   -0.0523    0.4905 N   0  0  0  0  0  0  0  0  0  0  0  0
    6.3889    1.5269    1.6248 C   0  0  0  0  0  0  0  0  0  0  0  0
    7.3324   -0.5113    0.7473 C   0  0  0  0  0  0  0  0  0  0  0  0
    8.6002    1.3280   -1.3174 O   0  0  0  0  0  0  0  0  0  0  0  0
   -3.0802   -1.7214    1.0019 C   0  0  0  0  0  0  0  0  0  0  0  0
   -3.1866   -0.8640   -0.2093 C   0  0  0  0  0  0  0  0  0  0  0  0
   -3.9147    0.4264    0.2411 C   0  0  0  0  0  0  0  0  0  0  0  0
    7.4752    0.7974    1.2379 N   0  0  0  0  0  0  0  0  0  0  0  0
   -9.0275    0.0894   -0.1379 C   0  0  0  0  0  0  0  0  0  0  0  0
   -8.0894    1.2444   -0.3731 C   0  0  0  0  0  0  0  0  0  0  0  0
   -6.8117    0.6575   -1.0420 C   0  0  0  0  0  0  0  0  0  0  0  0
   -6.0122    1.8634   -1.3922 C   0  0  0  0  0  0  0  0  0  0  0  0
    1.2230   -0.2438    0.3992 C   0  0  0  0  0  0  0  0  0  0  0  0
    2.6011   -0.0578    0.9769 C   0  0  0  0  0  0  0  0  0  0  0  0
    3.5840   -0.0444   -0.1620 C   0  0  2  0  0  0  0  0  0  0  0  0
    2.1467   -1.3456   -1.5190 C   0  0  0  0  0  0  0  0  0  0  0  0
    1.5633   -2.7140   -1.3926 C   0  0  0  0  0  0  0  0  0  0  0  0
    5.1481    1.5583    0.7857 C   0  0  0  0  0  0  0  0  0  0  0  0
    5.9828   -0.3494   -0.3284 C   0  0  0  0  0  0  0  0  0  0  0  0
    8.7529    1.3322    0.9760 C   0  0  0  0  0  0  0  0  0  0  0  0
    8.9233    2.1164   -0.2785 C   0  0  0  0  0  0  0  0  0  0  0  0
    0.5092   -1.4018    0.9644 N   0  0  0  0  0  0  0  0  0  0  0  0
   -0.8609   -0.9674    1.1410 C   0  0  2  0  0  0  0  0  0  0  0  0
   -1.7690   -2.0321    1.3869 N   0  0  0  0  0  0  0  0  0  0  0  0
   -1.4522   -0.3590   -0.4611 S   0  0  0  0  0  0  0  0  0  0  0  0
   -5.1847    0.1588    0.7421 N   0  0  0  0  0  0  0  0  0  0  0  0
   -6.1721   -0.3031   -0.1357 C   0  0  0  0  0  0  0  0  0  0  0  0
   -7.0900   -1.2915    0.5528 C   0  0  0  0  0  0  0  0  0  0  0  0
   -8.4047   -0.7168    0.9947 C   0  0  0  0  0  0  0  0  0  0  0  0
   -7.3972   -2.6856   -0.5274 Cl  0  0  0  0  0  0  0  0  0  0  0  0
   -3.0430    0.9317    1.2550 O   0  0  0  0  0  0  0  0  0  0  0  0
    3.4779   -1.2515   -0.9276 N   0  0  0  0  0  0  0  0  0  0  0  0
    1.2591   -0.3469   -1.0403 N   0  0  0  0  0  0  0  0  0  0  0  0
    4.8896    0.2750    0.2902 N   0  0  0  0  0  0  0  0  0  0  0  0
    6.4173    1.6691    1.5397 C   0  0  0  0  0  0  0  0  0  0  0  0
    7.1329   -0.4444    0.6574 C   0  0  0  0  0  0  0  0  0  0  0  0
    8.6550    1.3680   -1.4148 O   0  0  0  0  0  0  0  0  0  0  0  0
   -1.8804   -2.1571   -0.5831 H   0  0  0  0  0  0  0  0  0  0  0  0
   -2.4719   -1.0401   -1.8798 H   0  0  0  0  0  0  0  0  0  0  0  0
   -4.0978   -1.7001    0.0206 H   0  0  0  0  0  0  0  0  0  0  0  0
   -4.0228    0.7938   -1.2325 H   0  0  0  0  0  0  0  0  0  0  0  0
   -8.9038   -1.6062   -0.7555 H   0  0  0  0  0  0  0  0  0  0  0  0
   -9.9834   -0.6412    0.3067 H   0  0  0  0  0  0  0  0  0  0  0  0
   -8.7153    1.3648    0.0359 H   0  0  0  0  0  0  0  0  0  0  0  0
   -9.0765    0.6685   -1.5985 H   0  0  0  0  0  0  0  0  0  0  0  0
   -6.7395   -0.1883   -1.6746 H   0  0  0  0  0  0  0  0  0  0  0  0
   -7.5861    2.4690   -1.7993 H   0  0  0  0  0  0  0  0  0  0  0  0
   -5.8765    1.9994   -2.1546 H   0  0  0  0  0  0  0  0  0  0  0  0
   -6.3802    2.5524   -0.4540 H   0  0  0  0  0  0  0  0  0  0  0  0
    1.0411    0.8210    0.4600 H   0  0  0  0  0  0  0  0  0  0  0  0
    2.8303    0.4832    1.8652 H   0  0  0  0  0  0  0  0  0  0  0  0
    2.7153   -1.2932    1.8232 H   0  0  0  0  0  0  0  0  0  0  0  0
    3.3183    0.3307   -0.6576 H   0  0  0  0  0  0  0  0  0  0  0  0
    2.3491   -1.9449   -2.1906 H   0  0  0  0  0  0  0  0  0  0  0  0
    2.3644   -3.8819   -0.3409 H   0  0  0  0  0  0  0  0  0  0  0  0
    0.9829   -3.6267   -1.5035 H   0  0  0  0  0  0  0  0  0  0  0  0
    0.8057   -3.0133    0.1420 H   0  0  0  0  0  0  0  0  0  0  0  0
    4.3005    1.7426    1.4015 H   0  0  0  0  0  0  0  0  0  0  0  0
    5.2024    1.8852   -0.1589 H   0  0  0  0  0  0  0  0  0  0  0  0
    5.9464   -1.6976   -0.2872 H   0  0  0  0  0  0  0  0  0  0  0  0
    6.3207   -0.1989   -1.1818 H   0  0  0  0  0  0  0  0  0  0  0  0
    8.9415    2.1539    1.8997 H   0  0  0  0  0  0  0  0  0  0  0  0
    9.5886    0.6931    1.1514 H   0  0  0  0  0  0  0  0  0  0  0  0
    8.0659    3.0093   -0.2187 H   0  0  0  0  0  0  0  0  0  0  0  0
    9.7990    2.6701   -0.2929 H   0  0  0  0  0  0  0  0  0  0  0  0
    0.4183   -0.7089    2.2673 H   0  0  0  0  0  0  0  0  0  0  0  0
   -0.8649    0.8849    1.2498 H   0  0  0  0  0  0  0  0  0  0  0  0
   -1.1511    0.7039   -1.0114 H   0  0  0  0  0  0  0  0  0  0  0  0
   -5.1283    1.8023    0.9853 H   0  0  0  0  0  0  0  0  0  0  0  0
   -7.0316    0.8879    1.1556 H   0  0  0  0  0  0  0  0  0  0  0  0
   -6.0205   -1.6606    1.4329 H   0  0  0  0  0  0  0  0  0  0  0  0
   -8.2668   -0.3504    1.9813 H   0  0  0  0  0  0  0  0  0  0  0  0
   -8.3911   -2.1325    1.5282 H   0  0  0  0  0  0  0  0  0  0  0  0
   -3.2684    2.2349    0.6138 H   0  0  0  0  0  0  0  0  0  0  0  0
    4.2826   -1.8543   -1.3193 H   0  0  0  0  0  0  0  0  0  0  0  0
    1.3797   -0.0240   -1.5660 H   0  0  0  0  0  0  0  0  0  0  0  0
    6.6499    2.6211    1.5184 H   0  0  0  0  0  0  0  0  0  0  0  0
    6.1061    1.4539    2.7209 H   0  0  0  0  0  0  0  0  0  0  0  0
    8.2147   -0.7747    0.1328 H   0  0  0  0  0  0  0  0  0  0  0  0
    7.2418   -1.2827    1.5500 H   0  0  0  0  0  0  0  0  0  0  0  0
    8.0709    1.8643   -1.9902 H   0  0  0  0  0  0  0  0  0  0  0  0
   -3.6077   -1.2156    1.8708 H   0  0  0  0  0  0  0  0  0  0  0  0
   -3.6540   -2.6824    0.8287 H   0  0  0  0  0  0  0  0  0  0  0  0
   -3.6261   -1.3031   -1.0955 H   0  0  0  0  0  0  0  0  0  0  0  0
   -3.7965    1.0906   -0.6156 H   0  0  0  0  0  0  0  0  0  0  0  0
   -9.0804   -0.5630   -1.0569 H   0  0  0  0  0  0  0  0  0  0  0  0
  -10.0305    0.3926    0.1679 H   0  0  0  0  0  0  0  0  0  0  0  0
   -7.7112    1.6022    0.6202 H   0  0  0  0  0  0  0  0  0  0  0  0
   -8.4767    2.0259   -1.0206 H   0  0  0  0  0  0  0  0  0  0  0  0
   -7.1597    0.1412   -1.9895 H   0  0  0  0  0  0  0  0  0  0  0  0
   -6.7515    2.6370   -1.8642 H   0  0  0  0  0  0  0  0  0  0  0  0
   -5.3166    1.6824   -2.1951 H   0  0  0  0  0  0  0  0  0  0  0  0
   -5.5901    2.3602   -0.4952 H   0  0  0  0  0  0  0  0  0  0  0  0
    0.6239    0.6528    0.6309 H   0  0  0  0  0  0  0  0  0  0  0  0
    2.6057    0.8844    1.5610 H   0  0  0  0  0  0  0  0  0  0  0  0
    2.8201   -0.9199    1.6830 H   0  0  0  0  0  0  0  0  0  0  0  0
    3.1973    0.7746   -0.8677 H   0  0  0  0  0  0  0  0  0  0  0  0
    2.2763   -1.1575   -2.6184 H   0  0  0  0  0  0  0  0  0  0  0  0
    2.2959   -3.3491   -0.8291 H   0  0  0  0  0  0  0  0  0  0  0  0
    1.4446   -3.2435   -2.3844 H   0  0  0  0  0  0  0  0  0  0  0  0
    0.5463   -2.7519   -0.9476 H   0  0  0  0  0  0  0  0  0  0  0  0
    4.3083    1.8449    1.4757 H   0  0  0  0  0  0  0  0  0  0  0  0
    5.0810    2.3499   -0.0254 H   0  0  0  0  0  0  0  0  0  0  0  0
    5.7033   -1.4222   -0.5460 H   0  0  0  0  0  0  0  0  0  0  0  0
    6.2606    0.1230   -1.2747 H   0  0  0  0  0  0  0  0  0  0  0  0
    9.0862    1.9640    1.8486 H   0  0  0  0  0  0  0  0  0  0  0  0
    9.4789    0.4604    0.9739 H   0  0  0  0  0  0  0  0  0  0  0  0
    8.3445    3.0633   -0.2365 H   0  0  0  0  0  0  0  0  0  0  0  0
    9.9845    2.4321   -0.3679 H   0  0  0  0  0  0  0  0  0  0  0  0
    0.9777   -1.6529    1.8656 H   0  0  0  0  0  0  0  0  0  0  0  0
   -0.9530   -0.1988    1.9380 H   0  0  0  0  0  0  0  0  0  0  0  0
   -1.4709   -2.9655    1.0964 H   0  0  0  0  0  0  0  0  0  0  0  0
   -5.4504    0.6113    1.6072 H   0  0  0  0  0  0  0  0  0  0  0  0
   -5.6130   -1.0393   -0.8971 H   0  0  0  0  0  0  0  0  0  0  0  0
   -6.5583   -1.6775    1.4445 H   0  0  0  0  0  0  0  0  0  0  0  0
   -8.3377   -0.0851    1.8727 H   0  0  0  0  0  0  0  0  0  0  0  0
   -9.0889   -1.5722    1.2144 H   0  0  0  0  0  0  0  0  0  0  0  0
   -2.4825    1.6632    0.9040 H   0  0  0  0  0  0  0  0  0  0  0  0
    4.1967   -1.2020   -1.7316 H   0  0  0  0  0  0  0  0  0  0  0  0
    1.3304    0.5567   -1.5357 H   0  0  0  0  0  0  0  0  0  0  0  0
    6.7573    2.7478    1.4342 H   0  0  0  0  0  0  0  0  0  0  0  0
    6.2004    1.5898    2.6400 H   0  0  0  0  0  0  0  0  0  0  0  0
    7.9952   -0.8438    0.0878 H   0  0  0  0  0  0  0  0  0  0  0  0
    6.7968   -1.1283    1.4625 H   0  0  0  0  0  0  0  0  0  0  0  0
    8.1988    1.9757   -2.0473 H   0  0  0  0  0  0  0  0  0  0  0  0
  1  2  1  0
  2  3  1  0
  5  6  1  0
  6  7  1  0
  7  8  1  0
  9 10  1  0
 10 11  1  0
 12 13  1  0
  4 16  1  0
 16 17  1  0
  9 18  1  0
 18 19  1  0
  1 20  1  0
 19 20  1  0
  2 21  1  0
 19 21  1  0
  3 22  1  0
  7 23  1  0
 22 23  1  0
 23 24  1  0
  5 25  1  0
 24 25  1  0
 24 26  1  0
  3 27  1  0
 11 28  1  0
 12 28  1  0
  9 29  1  0
 12 29  1  0
 11 30  1  0
 14 30  1  0
 15 30  1  0
  4 31  1  0
 14 31  1  0
  4 32  1  0
 15 32  1  0
 17 33  1  0
 34 35  1  0
 35 36  1  0
 38 39  1  0
 39 40  1  0
 40 41  1  0
 42 43  1  0
 43 44  1  0
 45 46  1  0
 37 49  1  0
 49 50  1  0
 42 51  1  0
 51 52  1  0
 34 53  1  0
 52 53  1  0
 35 54  1  0
 52 54  1  0
 36 55  1  0
 40 56  1  0
 55 56  1  0
 56 57  1  0
 38 58  1  0
 57 58  1  0
 57 59  1  0
 36 60  1  0
 44 61  1  0
 45 61  1  0
 42 62  1  0
 45 62  1  0
 44 63  1  0
 47 63  1  0
 48 63  1  0
 37 64  1  0
 47 64  1  0
 37 65  1  0
 48 65  1  0
 50 66  1  0
  1 67  1  0
  1 68  1  0
  2 69  1  0
  3 70  1  0
  5 71  1  0
  5 72  1  0
  6 73  1  0
  6 74  1  0
  7 75  1  0
  8 76  1  0
  8 77  1  0
  8 78  1  0
  9 79  1  0
 10 80  1  0
 10 81  1  0
 11 82  1  0
 12 83  1  0
 13 84  1  0
 13 85  1  0
 13 86  1  0
 14 87  1  0
 14 88  1  0
 15 89  1  0
 15 90  1  0
 16 91  1  0
 16 92  1  0
 17 93  1  0
 17 94  1  0
 18 95  1  0
 19 96  1  1
 20 97  1  0
 22 98  1  0
 23 99  1  1
 24100  1  0
 25101  1  0
 25102  1  0
 27103  1  0
 28104  1  0
 29105  1  0
 31106  1  0
 31107  1  0
 32108  1  0
 32109  1  0
 33110  1  0
 34111  1  0
 34112  1  0
 35113  1  0
 36114  1  0
 38115  1  0
 38116  1  0
 39117  1  0
 39118  1  0
 40119  1  0
 41120  1  0
 41121  1  0
 41122  1  0
 42123  1  0
 43124  1  0
 43125  1  0
 44126  1  6
 45127  1  0
 46128  1  0
 46129  1  0
 46130  1  0
 47131  1  0
 47132  1  0
 48133  1  0
 48134  1  0
 49135  1  0
 49136  1  0
 50137  1  0
 50138  1  0
 51139  1  0
 52140  1  1
 53141  1  0
 55142  1  0
 56143  1  0
 57144  1  0
 58145  1  0
 58146  1  0
 60147  1  0
 61148  1  0
 62149  1  0
 64150  1  0
 64151  1  0
 65152  1  0
 65153  1  0
 66154  1  0
M  END
>  <PDBID>  (1) 
2GQG

>  <PDB ID>  (1) 
2GQG

>  <Generic Name>  (1) 
Dasatinib

>  <Brand Name>  (1) 
Sprycel

>  <DrugBank ID>  (1) 
DB01254

>  <ATC Codes>  (1) 
L01XE06

>  <Ligand ID>  (1) 
1N1

>  <Target Name>  (1) 
Tyrosine-protein kinase ABL1

>  <UniProt ID>  (1) 
P00519

>  <PDB ID.1>  (1) 
2GQG

>  <Seq. Identity>  (1) 
96%

$$$$
