PDB_DB00939_09
     RDKit          3D

 88 90  0  0  0  0  0  0  0  0999 V2000
   -3.9128    0.3661   -2.2368 O   0  0  0  0  0  0  0  0  0  0  0  0
   -2.5750    0.3102   -1.8317 C   0  0  0  0  0  0  0  0  0  0  0  0
   -2.0339    1.5682   -1.9606 O   0  0  0  0  0  0  0  0  0  0  0  0
   -2.5398   -0.2359   -0.4229 C   0  0  0  0  0  0  0  0  0  0  0  0
   -3.3496    0.7252    0.4496 C   0  0  0  0  0  0  0  0  0  0  0  0
   -3.1304    0.2825    1.8735 C   0  0  0  0  0  0  0  0  0  0  0  0
   -2.6193   -1.1251    1.9781 C   0  0  0  0  0  0  0  0  0  0  0  0
   -1.2024   -1.1206    1.3948 C   0  0  0  0  0  0  0  0  0  0  0  0
   -1.1523   -0.2625    0.1437 C   0  0  0  0  0  0  0  0  0  0  0  0
   -0.1500   -0.6934   -0.7775 N   0  0  0  0  0  0  0  0  0  0  0  0
    1.1323   -0.7355   -0.1114 C   0  0  0  0  0  0  0  0  0  0  0  0
    1.6030    0.6231    0.3643 C   0  0  0  0  0  0  0  0  0  0  0  0
    1.2336    1.9230   -0.7589 Cl  0  0  0  0  0  0  0  0  0  0  0  0
    3.1268    0.4843    0.4998 C   0  0  0  0  0  0  0  0  0  0  0  0
    3.7402    1.5796    1.3092 C   0  0  0  0  0  0  0  0  0  0  0  0
    3.6603    0.4937   -0.9269 C   0  0  0  0  0  0  0  0  0  0  0  0
    3.1454   -0.7314   -1.6212 C   0  0  0  0  0  0  0  0  0  0  0  0
    2.1753   -1.5211   -0.8211 C   0  0  0  0  0  0  0  0  0  0  0  0
    1.3797   -2.6820   -1.9300 Cl  0  0  0  0  0  0  0  0  0  0  0  0
   -4.4299    0.6638    0.2209 H   0  0  0  0  0  0  0  0  0  0  0  0
   -2.3047    0.9430    2.2749 H   0  0  0  0  0  0  0  0  0  0  0  0
   -3.2556   -1.8675    1.4785 H   0  0  0  0  0  0  0  0  0  0  0  0
   -0.5576   -0.7018    2.2101 H   0  0  0  0  0  0  0  0  0  0  0  0
   -0.3141   -1.5802   -1.2631 H   0  0  0  0  0  0  0  0  0  0  0  0
    4.7079    1.1684    1.7275 H   0  0  0  0  0  0  0  0  0  0  0  0
    4.0503    2.4475    0.6708 H   0  0  0  0  0  0  0  0  0  0  0  0
    3.1352    1.8996    2.1603 H   0  0  0  0  0  0  0  0  0  0  0  0
    4.7671    0.5265   -0.8479 H   0  0  0  0  0  0  0  0  0  0  0  0
    4.0445   -1.3955   -1.8015 H   0  0  0  0  0  0  0  0  0  0  0  0
   -3.9128    0.3661   -2.2368 O   0  0  0  0  0  0  0  0  0  0  0  0
   -2.5750    0.3102   -1.8317 C   0  0  0  0  0  0  0  0  0  0  0  0
   -2.0339    1.5682   -1.9606 O   0  0  0  0  0  0  0  0  0  0  0  0
   -2.5398   -0.2359   -0.4229 C   0  0  0  0  0  0  0  0  0  0  0  0
   -3.3496    0.7252    0.4496 C   0  0  0  0  0  0  0  0  0  0  0  0
   -3.1304    0.2825    1.8735 C   0  0  0  0  0  0  0  0  0  0  0  0
   -2.6193   -1.1251    1.9781 C   0  0  0  0  0  0  0  0  0  0  0  0
   -1.2024   -1.1206    1.3948 C   0  0  0  0  0  0  0  0  0  0  0  0
   -1.1523   -0.2625    0.1437 C   0  0  0  0  0  0  0  0  0  0  0  0
   -0.1500   -0.6934   -0.7775 N   0  0  0  0  0  0  0  0  0  0  0  0
    1.1323   -0.7355   -0.1114 C   0  0  0  0  0  0  0  0  0  0  0  0
    1.6030    0.6231    0.3643 C   0  0  0  0  0  0  0  0  0  0  0  0
    1.2336    1.9230   -0.7589 Cl  0  0  0  0  0  0  0  0  0  0  0  0
    3.1268    0.4843    0.4998 C   0  0  0  0  0  0  0  0  0  0  0  0
    3.7402    1.5796    1.3092 C   0  0  0  0  0  0  0  0  0  0  0  0
    3.6603    0.4937   -0.9269 C   0  0  0  0  0  0  0  0  0  0  0  0
    3.1454   -0.7314   -1.6212 C   0  0  0  0  0  0  0  0  0  0  0  0
    2.1753   -1.5211   -0.8211 C   0  0  0  0  0  0  0  0  0  0  0  0
    1.3797   -2.6820   -1.9300 Cl  0  0  0  0  0  0  0  0  0  0  0  0
   -4.4299    0.6638    0.2209 H   0  0  0  0  0  0  0  0  0  0  0  0
   -2.3047    0.9430    2.2749 H   0  0  0  0  0  0  0  0  0  0  0  0
   -3.2556   -1.8675    1.4785 H   0  0  0  0  0  0  0  0  0  0  0  0
   -0.5576   -0.7018    2.2101 H   0  0  0  0  0  0  0  0  0  0  0  0
   -0.3141   -1.5802   -1.2631 H   0  0  0  0  0  0  0  0  0  0  0  0
    4.7079    1.1684    1.7275 H   0  0  0  0  0  0  0  0  0  0  0  0
    4.0503    2.4475    0.6708 H   0  0  0  0  0  0  0  0  0  0  0  0
    3.1352    1.8996    2.1603 H   0  0  0  0  0  0  0  0  0  0  0  0
    4.7671    0.5265   -0.8479 H   0  0  0  0  0  0  0  0  0  0  0  0
    4.0445   -1.3955   -1.8015 H   0  0  0  0  0  0  0  0  0  0  0  0
   -4.2766    1.2710   -1.9995 H   0  0  0  0  0  0  0  0  0  0  0  0
   -2.0896   -0.4116   -2.5426 H   0  0  0  0  0  0  0  0  0  0  0  0
   -1.9180    1.7274   -2.9437 H   0  0  0  0  0  0  0  0  0  0  0  0
   -3.0241   -1.2303   -0.4407 H   0  0  0  0  0  0  0  0  0  0  0  0
   -2.9333    1.7335    0.2561 H   0  0  0  0  0  0  0  0  0  0  0  0
   -3.9998    0.4880    2.5248 H   0  0  0  0  0  0  0  0  0  0  0  0
   -2.5937   -1.3823    3.0627 H   0  0  0  0  0  0  0  0  0  0  0  0
   -0.9687   -2.1803    1.1803 H   0  0  0  0  0  0  0  0  0  0  0  0
   -0.8930    0.7663    0.4762 H   0  0  0  0  0  0  0  0  0  0  0  0
    0.9325   -1.2959    0.8556 H   0  0  0  0  0  0  0  0  0  0  0  0
    1.2272    0.8961    1.3550 H   0  0  0  0  0  0  0  0  0  0  0  0
    3.3291   -0.4942    0.9641 H   0  0  0  0  0  0  0  0  0  0  0  0
    3.2932    1.4106   -1.4439 H   0  0  0  0  0  0  0  0  0  0  0  0
    2.7701   -0.4950   -2.6449 H   0  0  0  0  0  0  0  0  0  0  0  0
    2.7705   -2.1556   -0.1040 H   0  0  0  0  0  0  0  0  0  0  0  0
   -4.2766    1.2710   -1.9995 H   0  0  0  0  0  0  0  0  0  0  0  0
   -2.0896   -0.4116   -2.5426 H   0  0  0  0  0  0  0  0  0  0  0  0
   -1.9180    1.7274   -2.9437 H   0  0  0  0  0  0  0  0  0  0  0  0
   -3.0241   -1.2303   -0.4407 H   0  0  0  0  0  0  0  0  0  0  0  0
   -2.9333    1.7335    0.2561 H   0  0  0  0  0  0  0  0  0  0  0  0
   -3.9998    0.4880    2.5248 H   0  0  0  0  0  0  0  0  0  0  0  0
   -2.5937   -1.3823    3.0627 H   0  0  0  0  0  0  0  0  0  0  0  0
   -0.9687   -2.1803    1.1803 H   0  0  0  0  0  0  0  0  0  0  0  0
   -0.8930    0.7663    0.4762 H   0  0  0  0  0  0  0  0  0  0  0  0
    0.9325   -1.2959    0.8556 H   0  0  0  0  0  0  0  0  0  0  0  0
    1.2272    0.8961    1.3550 H   0  0  0  0  0  0  0  0  0  0  0  0
    3.3291   -0.4942    0.9641 H   0  0  0  0  0  0  0  0  0  0  0  0
    3.2932    1.4106   -1.4439 H   0  0  0  0  0  0  0  0  0  0  0  0
    2.7701   -0.4950   -2.6449 H   0  0  0  0  0  0  0  0  0  0  0  0
    2.7705   -2.1556   -0.1040 H   0  0  0  0  0  0  0  0  0  0  0  0
  1  2  1  0
  2  3  1  0
  2  4  1  0
  4  5  1  0
  5  6  1  0
  6  7  1  0
  7  8  1  0
  4  9  1  0
  8  9  1  0
  9 10  1  0
 10 11  1  0
 11 12  1  0
 12 13  1  0
 12 14  1  0
 14 15  1  0
 14 16  1  0
 16 17  1  0
 11 18  1  0
 17 18  1  0
 18 19  1  0
  5 20  1  0
  6 21  1  0
  7 22  1  0
  8 23  1  0
 10 24  1  0
 15 25  1  0
 15 26  1  0
 15 27  1  0
 16 28  1  0
 17 29  1  0
 30 31  1  0
 31 32  1  0
 31 33  1  0
 33 34  1  0
 34 35  1  0
 35 36  1  0
 36 37  1  0
 33 38  1  0
 37 38  1  0
 38 39  1  0
 39 40  1  0
 40 41  1  0
 41 42  1  0
 41 43  1  0
 43 44  1  0
 43 45  1  0
 45 46  1  0
 40 47  1  0
 46 47  1  0
 47 48  1  0
 34 49  1  0
 35 50  1  0
 36 51  1  0
 37 52  1  0
 39 53  1  0
 44 54  1  0
 44 55  1  0
 44 56  1  0
 45 57  1  0
 46 58  1  0
  1 59  1  0
  2 60  1  0
  3 61  1  0
  4 62  1  0
  5 63  1  0
  6 64  1  0
  7 65  1  0
  8 66  1  0
  9 67  1  0
 11 68  1  0
 12 69  1  0
 14 70  1  0
 16 71  1  0
 17 72  1  0
 18 73  1  0
 30 74  1  0
 31 75  1  0
 32 76  1  0
 33 77  1  0
 34 78  1  0
 35 79  1  0
 36 80  1  0
 37 81  1  0
 38 82  1  0
 40 83  1  0
 41 84  1  0
 43 85  1  0
 45 86  1  0
 46 87  1  0
 47 88  1  0
M  END
>  <PDBID>  (1) 
5IKQ

>  <PDB ID>  (1) 
5IKQ

>  <Generic Name>  (1) 
Meclofenamic acid

>  <Brand Name>  (1) 
Meclofenamate Sodium#Ethos#Eucome#Meclomen

>  <DrugBank ID>  (1) 
DB00939

>  <ATC Codes>  (1) 
M01AG04#M02AA18

>  <Ligand ID>  (1) 
JMS

>  <Target Name>  (1) 
Prostaglandin G/H synthase 1

>  <UniProt ID>  (1) 
P23219

>  <PDB ID.1>  (1) 
5IKQ

>  <Seq. Identity>  (1) 
61%

$$$$
