PDB_DB00685_03
     RDKit          3D

124132  0  0  0  0  0  0  0  0999 V2000
   -3.4958    1.0647    0.7702 C   0  0  0  0  0  0  0  0  0  0  0  0
   -4.2572    2.1663    0.1053 C   0  0  0  0  0  0  0  0  0  0  0  0
   -3.5635    3.4900    0.1031 C   0  0  0  0  0  0  0  0  0  0  0  0
   -3.6640    4.1464    1.3091 F   0  0  0  0  0  0  0  0  0  0  0  0
   -2.1565    3.3520   -0.3850 C   0  0  0  0  0  0  0  0  0  0  0  0
   -1.8095    1.9065   -0.7581 C   0  0  0  0  0  0  0  0  0  0  0  0
   -2.5433    1.4684   -1.8362 F   0  0  0  0  0  0  0  0  0  0  0  0
   -2.0039    1.0850    0.4716 C   0  0  0  0  0  0  0  0  0  0  0  0
   -1.5206   -0.2098    0.4774 N   0  0  0  0  0  0  0  0  0  0  0  0
   -0.4217   -0.6109   -0.2571 C   0  0  0  0  0  0  0  0  0  0  0  0
    0.7933   -0.3439    0.5218 N   0  0  0  0  0  0  0  0  0  0  0  0
    1.9298   -0.3965   -0.3588 C   0  0  0  0  0  0  0  0  0  0  0  0
    3.1482   -0.0451    0.3191 N   0  0  0  0  0  0  0  0  0  0  0  0
    3.1329    1.2485    0.9318 C   0  0  0  0  0  0  0  0  0  0  0  0
    4.0667    2.1467    0.1837 C   0  0  1  0  0  0  0  0  0  0  0  0
    5.5248    1.8971    0.2586 C   0  0  0  0  0  0  0  0  0  0  0  0
    6.4654    2.8871   -0.1984 N   0  0  0  0  0  0  0  0  0  0  0  0
    4.6863    1.3125   -0.8564 C   0  0  1  0  0  0  0  0  0  0  0  0
    4.2437   -0.0992   -0.6093 C   0  0  0  0  0  0  0  0  0  0  0  0
    2.1293   -1.7906   -0.9381 C   0  0  0  0  0  0  0  0  0  0  0  0
    1.0009   -2.6682   -0.4924 C   0  0  0  0  0  0  0  0  0  0  0  0
   -0.3692   -2.0310   -0.7277 C   0  0  0  0  0  0  0  0  0  0  0  0
   -1.3590   -2.9589   -0.1023 C   0  0  0  0  0  0  0  0  0  0  0  0
   -2.6367   -2.2675    0.3338 C   0  0  0  0  0  0  0  0  0  0  0  0
   -2.1785   -1.1778    1.2828 C   0  0  0  0  0  0  0  0  0  0  0  0
   -3.5802   -3.2402    0.9457 C   0  0  0  0  0  0  0  0  0  0  0  0
   -3.8835   -4.1980   -0.0235 O   0  0  0  0  0  0  0  0  0  0  0  0
   -4.7813   -2.5846    1.2406 O   0  0  0  0  0  0  0  0  0  0  0  0
   -1.6077   -4.0486   -0.9255 O   0  0  0  0  0  0  0  0  0  0  0  0
    3.2949   -2.3778   -0.4473 F   0  0  0  0  0  0  0  0  0  0  0  0
   -3.6818    1.1117    1.8643 H   0  0  0  0  0  0  0  0  0  0  0  0
   -4.6068    1.8717   -0.9175 H   0  0  0  0  0  0  0  0  0  0  0  0
   -1.9200    4.0299   -1.2375 H   0  0  0  0  0  0  0  0  0  0  0  0
    2.1152    1.6896    0.9943 H   0  0  0  0  0  0  0  0  0  0  0  0
    3.4897    1.1458    1.9794 H   0  0  0  0  0  0  0  0  0  0  0  0
    3.7748    3.1980   -0.0149 H   0  0  0  0  0  0  0  0  0  0  0  0
    5.9455    1.2116    1.0235 H   0  0  0  0  0  0  0  0  0  0  0  0
    6.0527    3.8184   -0.3726 H   0  0  0  0  0  0  0  0  0  0  0  0
    7.3622    2.8901    0.3145 H   0  0  0  0  0  0  0  0  0  0  0  0
    4.7427    1.7265   -1.8712 H   0  0  0  0  0  0  0  0  0  0  0  0
    5.0741   -0.6837   -0.1434 H   0  0  0  0  0  0  0  0  0  0  0  0
    3.9562   -0.5180   -1.6070 H   0  0  0  0  0  0  0  0  0  0  0  0
    1.0231   -3.6298   -1.0503 H   0  0  0  0  0  0  0  0  0  0  0  0
   -2.9509   -0.7925    1.9332 H   0  0  0  0  0  0  0  0  0  0  0  0
   -3.4962    1.0055    0.7714 C   0  0  0  0  0  0  0  0  0  0  0  0
   -4.2211    2.1156    0.0796 C   0  0  0  0  0  0  0  0  0  0  0  0
   -3.5495    3.4496    0.2287 C   0  0  0  0  0  0  0  0  0  0  0  0
   -3.6866    3.8667    1.5298 F   0  0  0  0  0  0  0  0  0  0  0  0
   -2.1424    3.3416   -0.2271 C   0  0  0  0  0  0  0  0  0  0  0  0
   -1.7465    1.9248   -0.6427 C   0  0  0  0  0  0  0  0  0  0  0  0
   -2.3447    1.5357   -1.8070 F   0  0  0  0  0  0  0  0  0  0  0  0
   -1.9984    1.0062    0.5030 C   0  0  0  0  0  0  0  0  0  0  0  0
   -1.5499   -0.2969    0.4000 N   0  0  0  0  0  0  0  0  0  0  0  0
   -0.4067   -0.6432   -0.3322 C   0  0  0  0  0  0  0  0  0  0  0  0
    0.7863   -0.3978    0.4944 N   0  0  0  0  0  0  0  0  0  0  0  0
    1.9202   -0.4104   -0.4058 C   0  0  0  0  0  0  0  0  0  0  0  0
    3.1526   -0.0473    0.2351 N   0  0  0  0  0  0  0  0  0  0  0  0
    3.1140    1.2413    0.8745 C   0  0  0  0  0  0  0  0  0  0  0  0
    4.0570    2.1559    0.1595 C   0  0  1  0  0  0  0  0  0  0  0  0
    5.5173    1.9044    0.2162 C   0  0  0  0  0  0  0  0  0  0  0  0
    6.4256    2.9415   -0.1777 N   0  0  0  0  0  0  0  0  0  0  0  0
    4.6674    1.3653   -0.9159 C   0  0  1  0  0  0  0  0  0  0  0  0
    4.2064   -0.0476   -0.7269 C   0  0  0  0  0  0  0  0  0  0  0  0
    2.1243   -1.7872   -1.0303 C   0  0  0  0  0  0  0  0  0  0  0  0
    0.9967   -2.6553   -0.5836 C   0  0  0  0  0  0  0  0  0  0  0  0
   -0.3803   -2.0374   -0.8726 C   0  0  0  0  0  0  0  0  0  0  0  0
   -1.3971   -2.9852   -0.3725 C   0  0  0  0  0  0  0  0  0  0  0  0
   -2.6237   -2.3886    0.2463 C   0  0  0  0  0  0  0  0  0  0  0  0
   -2.1434   -1.3019    1.1817 C   0  0  0  0  0  0  0  0  0  0  0  0
   -3.3877   -3.4622    0.9833 C   0  0  0  0  0  0  0  0  0  0  0  0
   -3.7514   -4.4518    0.0709 O   0  0  0  0  0  0  0  0  0  0  0  0
   -4.5394   -2.9272    1.5252 O   0  0  0  0  0  0  0  0  0  0  0  0
   -1.7895   -3.8743   -1.4063 O   0  0  0  0  0  0  0  0  0  0  0  0
    3.2933   -2.3826   -0.5389 F   0  0  0  0  0  0  0  0  0  0  0  0
   -3.6893    1.1255    1.8768 H   0  0  0  0  0  0  0  0  0  0  0  0
   -4.4590    1.8499   -0.9711 H   0  0  0  0  0  0  0  0  0  0  0  0
   -1.8814    4.0181   -1.0678 H   0  0  0  0  0  0  0  0  0  0  0  0
    2.1021    1.6782    0.9379 H   0  0  0  0  0  0  0  0  0  0  0  0
    3.4702    1.1005    1.9204 H   0  0  0  0  0  0  0  0  0  0  0  0
    3.7449    3.1970    0.0513 H   0  0  0  0  0  0  0  0  0  0  0  0
    5.9509    1.1734    0.9486 H   0  0  0  0  0  0  0  0  0  0  0  0
    6.0718    3.8971   -0.0307 H   0  0  0  0  0  0  0  0  0  0  0  0
    7.3974    2.7739    0.1405 H   0  0  0  0  0  0  0  0  0  0  0  0
    4.7760    1.7969   -1.9309 H   0  0  0  0  0  0  0  0  0  0  0  0
    5.0831   -0.6132   -0.3057 H   0  0  0  0  0  0  0  0  0  0  0  0
    3.9223   -0.4511   -1.7169 H   0  0  0  0  0  0  0  0  0  0  0  0
    1.0034   -3.6182   -1.1646 H   0  0  0  0  0  0  0  0  0  0  0  0
   -2.8958   -0.9442    1.8779 H   0  0  0  0  0  0  0  0  0  0  0  0
   -3.9709    0.1104    0.4245 H   0  0  0  0  0  0  0  0  0  0  0  0
   -5.2037    2.2992    0.6934 H   0  0  0  0  0  0  0  0  0  0  0  0
   -4.0975    4.1345   -0.6427 H   0  0  0  0  0  0  0  0  0  0  0  0
   -1.4868    3.5908    0.4800 H   0  0  0  0  0  0  0  0  0  0  0  0
   -0.7422    1.9829   -1.0880 H   0  0  0  0  0  0  0  0  0  0  0  0
   -1.5442    1.6603    1.3209 H   0  0  0  0  0  0  0  0  0  0  0  0
   -0.3022    0.0184   -1.1800 H   0  0  0  0  0  0  0  0  0  0  0  0
    0.8805   -0.9684    1.3402 H   0  0  0  0  0  0  0  0  0  0  0  0
    1.7495    0.2743   -1.2146 H   0  0  0  0  0  0  0  0  0  0  0  0
    2.2420   -1.7710   -2.0409 H   0  0  0  0  0  0  0  0  0  0  0  0
    1.0915   -2.8663    0.5842 H   0  0  0  0  0  0  0  0  0  0  0  0
   -0.5259   -2.1151   -1.8391 H   0  0  0  0  0  0  0  0  0  0  0  0
   -0.9001   -3.3676    0.8348 H   0  0  0  0  0  0  0  0  0  0  0  0
   -3.0887   -1.8631   -0.5979 H   0  0  0  0  0  0  0  0  0  0  0  0
   -1.4038   -1.6553    1.9405 H   0  0  0  0  0  0  0  0  0  0  0  0
   -3.1545   -3.7605    1.8222 H   0  0  0  0  0  0  0  0  0  0  0  0
   -3.4446   -5.0647    0.1431 H   0  0  0  0  0  0  0  0  0  0  0  0
   -1.0593   -4.8311   -0.6596 H   0  0  0  0  0  0  0  0  0  0  0  0
   -3.9704    0.0507    0.4327 H   0  0  0  0  0  0  0  0  0  0  0  0
   -5.2224    2.2089    0.5845 H   0  0  0  0  0  0  0  0  0  0  0  0
   -4.0873    4.1737   -0.4211 H   0  0  0  0  0  0  0  0  0  0  0  0
   -1.4745    3.6082    0.6180 H   0  0  0  0  0  0  0  0  0  0  0  0
   -0.6446    2.0254   -0.8749 H   0  0  0  0  0  0  0  0  0  0  0  0
   -1.5214    1.4919    1.4057 H   0  0  0  0  0  0  0  0  0  0  0  0
   -0.2908    0.0392   -1.2031 H   0  0  0  0  0  0  0  0  0  0  0  0
    0.8590   -1.0429    1.2855 H   0  0  0  0  0  0  0  0  0  0  0  0
    1.7151    0.2939   -1.2112 H   0  0  0  0  0  0  0  0  0  0  0  0
    2.2352   -1.7431   -2.1152 H   0  0  0  0  0  0  0  0  0  0  0  0
    1.0782   -2.9053    0.4851 H   0  0  0  0  0  0  0  0  0  0  0  0
   -0.4285   -2.0502   -2.0036 H   0  0  0  0  0  0  0  0  0  0  0  0
   -0.9386   -3.6299    0.4299 H   0  0  0  0  0  0  0  0  0  0  0  0
   -3.2617   -2.0108   -0.5747 H   0  0  0  0  0  0  0  0  0  0  0  0
   -1.3503   -1.7951    1.8186 H   0  0  0  0  0  0  0  0  0  0  0  0
   -2.7267   -3.9264    1.7471 H   0  0  0  0  0  0  0  0  0  0  0  0
   -4.4813   -2.8778    2.5161 H   0  0  0  0  0  0  0  0  0  0  0  0
   -1.1919   -4.6516   -1.3906 H   0  0  0  0  0  0  0  0  0  0  0  0
  1  2  1  0
  2  3  1  0
  3  4  1  0
  3  5  1  0
  5  6  1  0
  6  7  1  0
  1  8  1  0
  6  8  1  0
  8  9  1  0
  9 10  1  0
 10 11  1  0
 11 12  1  0
 12 13  1  0
 13 14  1  0
 14 15  1  0
 15 16  1  0
 16 17  1  0
 15 18  1  0
 16 18  1  0
 13 19  1  0
 18 19  1  0
 12 20  1  0
 20 21  1  0
 10 22  1  0
 21 22  1  0
 22 23  1  0
 23 24  1  0
  9 25  1  0
 24 25  1  0
 24 26  1  0
 26 27  1  0
 26 28  1  0
 23 29  1  0
 20 30  1  0
  1 31  1  0
  2 32  1  0
  5 33  1  0
 14 34  1  0
 14 35  1  0
 15 36  1  6
 16 37  1  0
 17 38  1  0
 17 39  1  0
 18 40  1  6
 19 41  1  0
 19 42  1  0
 21 43  1  0
 25 44  1  0
 45 46  1  0
 46 47  1  0
 47 48  1  0
 47 49  1  0
 49 50  1  0
 50 51  1  0
 45 52  1  0
 50 52  1  0
 52 53  1  0
 53 54  1  0
 54 55  1  0
 55 56  1  0
 56 57  1  0
 57 58  1  0
 58 59  1  0
 59 60  1  0
 60 61  1  0
 59 62  1  0
 60 62  1  0
 57 63  1  0
 62 63  1  0
 56 64  1  0
 64 65  1  0
 54 66  1  0
 65 66  1  0
 66 67  1  0
 67 68  1  0
 53 69  1  0
 68 69  1  0
 68 70  1  0
 70 71  1  0
 70 72  1  0
 67 73  1  0
 64 74  1  0
 45 75  1  0
 46 76  1  0
 49 77  1  0
 58 78  1  0
 58 79  1  0
 59 80  1  6
 60 81  1  0
 61 82  1  0
 61 83  1  0
 62 84  1  6
 63 85  1  0
 63 86  1  0
 65 87  1  0
 69 88  1  0
  1 89  1  0
  2 90  1  0
  3 91  1  0
  5 92  1  0
  6 93  1  0
  8 94  1  0
 10 95  1  0
 11 96  1  0
 12 97  1  0
 20 98  1  0
 21 99  1  0
 22100  1  0
 23101  1  0
 24102  1  0
 25103  1  0
 26104  1  0
 27105  1  0
 29106  1  0
 45107  1  0
 46108  1  0
 47109  1  0
 49110  1  0
 50111  1  0
 52112  1  0
 54113  1  0
 55114  1  0
 56115  1  0
 64116  1  0
 65117  1  0
 66118  1  0
 67119  1  0
 68120  1  0
 69121  1  0
 70122  1  0
 72123  1  0
 73124  1  0
M  CHG  2  28  -1  71  -1
M  END
>  <PDBID>  (1) 
4Z2E

>  <PDB ID>  (1) 
4Z2E

>  <Generic Name>  (1) 
Trovafloxacin

>  <Brand Name>  (1) 
Trovan I.V.#Trovan Tablets 100mg#Trovan Tablets 200mg#Trovan

>  <DrugBank ID>  (1) 
DB00685

>  <ATC Codes>  (1) 
J01MA13

>  <Ligand ID>  (1) 
TR6

>  <Target Name>  (1) 
DNA gyrase subunit A

>  <UniProt ID>  (1) 
P43700

>  <PDB ID.1>  (1) 
4Z2E

>  <Seq. Identity>  (1) 
50%

$$$$
