PDB_DB11363_04
     RDKit          3D

 90 95  0  0  0  0  0  0  0  0999 V2000
   -5.4122   -0.5190   -1.5592 C   0  0  0  0  0  0  0  0  0  0  0  0
   -6.9009    0.9494   -0.1462 C   0  0  0  0  0  0  0  0  0  0  0  0
   -6.7906    0.0376   -1.2962 C   0  0  0  0  0  0  0  0  0  0  0  0
   -3.5162   -1.6164   -0.2815 C   0  0  0  0  0  0  0  0  0  0  0  0
   -3.1268   -1.4344    1.1636 C   0  0  0  0  0  0  0  0  0  0  0  0
    1.4948   -0.4267   -0.1572 C   0  0  0  0  0  0  0  0  0  0  0  0
   -0.2339   -0.6710   -1.9536 C   0  0  0  0  0  0  0  0  0  0  0  0
   -1.1082   -1.2054   -0.8783 C   0  0  0  0  0  0  0  0  0  0  0  0
   -1.6833   -1.4819    1.4567 C   0  0  0  0  0  0  0  0  0  0  0  0
   -1.1944   -2.8915    1.4054 C   0  0  0  0  0  0  0  0  0  0  0  0
   -1.4300   -0.9050    2.8292 C   0  0  0  0  0  0  0  0  0  0  0  0
    0.2073    1.9635   -2.8474 C   0  0  0  0  0  0  0  0  0  0  0  0
    5.3946    0.5910    1.2550 C   0  0  0  0  0  0  0  0  0  0  0  0
    4.4109   -0.4686    1.6937 C   0  0  0  0  0  0  0  0  0  0  0  0
   -6.9989    3.1900    0.6605 N   0  0  0  0  0  0  0  0  0  0  0  0
   -6.8834    2.4253   -0.5735 C   0  0  0  0  0  0  0  0  0  0  0  0
   -5.9304    0.7925    0.9536 C   0  0  0  0  0  0  0  0  0  0  0  0
   -4.5909    0.2789    0.5548 C   0  0  0  0  0  0  0  0  0  0  0  0
   -4.8697   -0.9921   -0.2656 C   0  0  0  0  0  0  0  0  0  0  0  0
   -3.7952   -0.2229    1.6171 N   0  0  0  0  0  0  0  0  0  0  0  0
   -0.9455   -0.5722    0.4633 C   0  0  0  0  0  0  0  0  0  0  0  0
   -2.5815   -1.0278   -1.2693 C   0  0  0  0  0  0  0  0  0  0  0  0
   -2.7217   -1.7603   -2.4723 O   0  0  0  0  0  0  0  0  0  0  0  0
    0.4556   -0.4263    0.9255 C   0  0  0  0  0  0  0  0  0  0  0  0
    0.9859    0.0771   -1.4747 C   0  0  0  0  0  0  0  0  0  0  0  0
    0.7125    1.5603   -1.4688 C   0  0  0  0  0  0  0  0  0  0  0  0
    2.6288    0.3355    0.2475 N   0  0  0  0  0  0  0  0  0  0  0  0
    3.7521    0.3045   -0.6357 C   0  0  0  0  0  0  0  0  0  0  0  0
    4.8376    1.1937   -0.0156 C   0  0  0  0  0  0  0  0  0  0  0  0
    3.0306    0.1997    1.6095 C   0  0  0  0  0  0  0  0  0  0  0  0
    6.7332    0.0702    1.0691 N   0  0  0  0  0  0  0  0  0  0  0  0
    7.6361    1.1811    0.8533 C   0  0  0  0  0  0  0  0  0  0  0  0
    8.4451    0.9450   -0.3793 C   0  0  0  0  0  0  0  0  0  0  0  0
    9.0768   -0.2864   -0.3978 O   0  0  0  0  0  0  0  0  0  0  0  0
    8.2480   -1.3460   -0.1158 C   0  0  0  0  0  0  0  0  0  0  0  0
    6.7875   -0.8872   -0.0193 C   0  0  0  0  0  0  0  0  0  0  0  0
   -4.8009    0.2964   -1.9629 H   0  0  0  0  0  0  0  0  0  0  0  0
   -5.5281   -1.3052   -2.3312 H   0  0  0  0  0  0  0  0  0  0  0  0
   -7.9343    0.8150    0.2969 H   0  0  0  0  0  0  0  0  0  0  0  0
   -7.4659   -0.8550   -1.1515 H   0  0  0  0  0  0  0  0  0  0  0  0
   -7.1801    0.5419   -2.2046 H   0  0  0  0  0  0  0  0  0  0  0  0
   -3.6204   -2.7181   -0.4744 H   0  0  0  0  0  0  0  0  0  0  0  0
   -3.6248   -2.2718    1.7354 H   0  0  0  0  0  0  0  0  0  0  0  0
    1.8551   -1.4813   -0.3403 H   0  0  0  0  0  0  0  0  0  0  0  0
    0.0888   -1.5040   -2.6471 H   0  0  0  0  0  0  0  0  0  0  0  0
   -0.8087    0.0147   -2.6096 H   0  0  0  0  0  0  0  0  0  0  0  0
   -0.9705   -2.3245   -0.8370 H   0  0  0  0  0  0  0  0  0  0  0  0
   -1.1159   -3.3397    2.4392 H   0  0  0  0  0  0  0  0  0  0  0  0
   -1.9358   -3.5270    0.8410 H   0  0  0  0  0  0  0  0  0  0  0  0
   -0.2289   -3.0402    0.9256 H   0  0  0  0  0  0  0  0  0  0  0  0
   -2.3181   -1.1549    3.4465 H   0  0  0  0  0  0  0  0  0  0  0  0
   -1.3334    0.1946    2.7334 H   0  0  0  0  0  0  0  0  0  0  0  0
   -0.4858   -1.2891    3.2527 H   0  0  0  0  0  0  0  0  0  0  0  0
    0.5191    1.1977   -3.5961 H   0  0  0  0  0  0  0  0  0  0  0  0
    0.6749    2.9364   -3.1665 H   0  0  0  0  0  0  0  0  0  0  0  0
   -0.8977    2.0264   -2.8920 H   0  0  0  0  0  0  0  0  0  0  0  0
    5.4456    1.3483    2.0614 H   0  0  0  0  0  0  0  0  0  0  0  0
    4.3783   -1.3554    1.0640 H   0  0  0  0  0  0  0  0  0  0  0  0
    4.5978   -0.7475    2.7501 H   0  0  0  0  0  0  0  0  0  0  0  0
   -6.1387    3.7074    0.8882 H   0  0  0  0  0  0  0  0  0  0  0  0
   -7.7816    3.8844    0.6268 H   0  0  0  0  0  0  0  0  0  0  0  0
   -5.9947    2.6700   -1.1555 H   0  0  0  0  0  0  0  0  0  0  0  0
   -7.8441    2.5731   -1.1191 H   0  0  0  0  0  0  0  0  0  0  0  0
   -6.3197    0.1211    1.7652 H   0  0  0  0  0  0  0  0  0  0  0  0
   -5.7668    1.7780    1.4727 H   0  0  0  0  0  0  0  0  0  0  0  0
   -4.0579    0.9569   -0.1280 H   0  0  0  0  0  0  0  0  0  0  0  0
   -5.5707   -1.6526    0.2884 H   0  0  0  0  0  0  0  0  0  0  0  0
   -4.2538   -0.3187    2.5280 H   0  0  0  0  0  0  0  0  0  0  0  0
   -1.5349    0.3810    0.5016 H   0  0  0  0  0  0  0  0  0  0  0  0
   -2.7763    0.0204   -1.5414 H   0  0  0  0  0  0  0  0  0  0  0  0
   -3.1111   -1.2309   -3.1906 H   0  0  0  0  0  0  0  0  0  0  0  0
    0.7086   -1.2980    1.5905 H   0  0  0  0  0  0  0  0  0  0  0  0
    0.5383    0.5431    1.4815 H   0  0  0  0  0  0  0  0  0  0  0  0
    1.7850   -0.0931   -2.2297 H   0  0  0  0  0  0  0  0  0  0  0  0
    1.5683    2.1674   -1.1707 H   0  0  0  0  0  0  0  0  0  0  0  0
   -0.1291    1.8245   -0.7725 H   0  0  0  0  0  0  0  0  0  0  0  0
    4.1244   -0.7113   -0.8495 H   0  0  0  0  0  0  0  0  0  0  0  0
    3.4851    0.8098   -1.5852 H   0  0  0  0  0  0  0  0  0  0  0  0
    4.3113    2.1306    0.2768 H   0  0  0  0  0  0  0  0  0  0  0  0
    5.5960    1.4514   -0.7547 H   0  0  0  0  0  0  0  0  0  0  0  0
    2.3743   -0.3593    2.2689 H   0  0  0  0  0  0  0  0  0  0  0  0
    3.1443    1.2450    2.0202 H   0  0  0  0  0  0  0  0  0  0  0  0
    7.1507    2.1539    0.8026 H   0  0  0  0  0  0  0  0  0  0  0  0
    8.3269    1.1945    1.7248 H   0  0  0  0  0  0  0  0  0  0  0  0
    9.2739    1.7114   -0.3877 H   0  0  0  0  0  0  0  0  0  0  0  0
    7.8942    1.0581   -1.3189 H   0  0  0  0  0  0  0  0  0  0  0  0
    8.4981   -1.7099    0.9201 H   0  0  0  0  0  0  0  0  0  0  0  0
    8.3481   -2.2093   -0.7770 H   0  0  0  0  0  0  0  0  0  0  0  0
    6.5045   -0.4423   -0.9786 H   0  0  0  0  0  0  0  0  0  0  0  0
    6.2137   -1.7689    0.2833 H   0  0  0  0  0  0  0  0  0  0  0  0
  1  3  1  0
  2  3  1  0
  4  5  1  0
  7  8  1  0
  5  9  1  0
  9 10  1  0
  9 11  1  0
 13 14  1  0
  2 16  1  0
 15 16  1  0
  2 17  1  0
 17 18  1  0
  1 19  1  0
  4 19  1  0
 18 19  1  0
  5 20  1  0
 18 20  1  0
  8 21  1  0
  9 21  1  0
  4 22  1  0
  8 22  1  0
 22 23  1  0
  6 24  1  0
 21 24  1  0
  6 25  1  0
  7 25  1  0
 12 26  1  0
 25 26  1  0
  6 27  1  0
 27 28  1  0
 13 29  1  0
 28 29  1  0
 14 30  1  0
 27 30  1  0
 13 31  1  0
 31 32  1  0
 32 33  1  0
 33 34  1  0
 34 35  1  0
 31 36  1  0
 35 36  1  0
  1 37  1  0
  1 38  1  0
  2 39  1  0
  3 40  1  0
  3 41  1  0
  4 42  1  0
  5 43  1  0
  6 44  1  0
  7 45  1  0
  7 46  1  0
  8 47  1  0
 10 48  1  0
 10 49  1  0
 10 50  1  0
 11 51  1  0
 11 52  1  0
 11 53  1  0
 12 54  1  0
 12 55  1  0
 12 56  1  0
 13 57  1  0
 14 58  1  0
 14 59  1  0
 15 60  1  0
 15 61  1  0
 16 62  1  0
 16 63  1  0
 17 64  1  0
 17 65  1  0
 18 66  1  0
 19 67  1  0
 20 68  1  0
 21 69  1  0
 22 70  1  0
 23 71  1  0
 24 72  1  0
 24 73  1  0
 25 74  1  0
 26 75  1  0
 26 76  1  0
 28 77  1  0
 28 78  1  0
 29 79  1  0
 29 80  1  0
 30 81  1  0
 30 82  1  0
 32 83  1  0
 32 84  1  0
 33 85  1  0
 33 86  1  0
 35 87  1  0
 35 88  1  0
 36 89  1  0
 36 90  1  0
M  END
>  <PDBID>  (1) 
3AOX

>  <PDB ID>  (1) 
3AOX

>  <Generic Name>  (1) 
Alectinib

>  <Brand Name>  (1) 
Alecensa#Alecensaro

>  <DrugBank ID>  (1) 
DB11363

>  <ATC Codes>  (1) 
nan

>  <Ligand ID>  (1) 
EMH

>  <Target Name>  (1) 
ALK tyrosine kinase receptor

>  <UniProt ID>  (1) 
Q9UM73

>  <PDB ID.1>  (1) 
3AOX

>  <Seq. Identity>  (1) 
100%

$$$$
