PDB_DB04835_03
     RDKit          3D

180188  0  0  0  0  0  0  0  0999 V2000
   -2.0581    4.5502    0.1513 F   0  0  0  0  0  0  0  0  0  0  0  0
   -4.2368    0.0311    0.8645 O   0  0  0  0  0  0  0  0  0  0  0  0
    3.7502   -0.3375    0.7947 C   0  0  0  0  0  0  0  0  0  0  0  0
    4.9595   -0.0083    0.1422 N   0  0  0  0  0  0  0  0  0  0  0  0
   -0.1423   -0.6772   -0.1412 C   0  0  0  0  0  0  0  0  0  0  0  0
    4.7870    2.3090   -0.8058 C   0  0  0  0  0  0  0  0  0  0  0  0
   -1.3461   -1.5466    0.1226 C   0  0  0  0  0  0  0  0  0  0  0  0
   -2.4871   -1.3273   -0.8060 C   0  0  1  0  0  0  0  0  0  0  0  0
    6.1341   -1.8497    1.3444 C   0  0  0  0  0  0  0  0  0  0  0  0
   -3.6108   -2.2882   -0.4185 C   0  0  0  0  0  0  0  0  0  0  0  0
   -3.4435    0.7735   -0.0109 C   0  0  2  0  0  0  0  0  0  0  0  0
   -4.4280    1.7718   -0.6605 C   0  0  0  0  0  0  0  0  0  0  0  0
   -3.4406    4.5048    0.0712 C   0  0  0  0  0  0  0  0  0  0  0  0
    5.0384    1.8157   -2.2353 C   0  0  0  0  0  0  0  0  0  0  0  0
   -3.8723    5.8063    0.3028 F   0  0  0  0  0  0  0  0  0  0  0  0
    0.9338   -0.8123    0.6669 N   0  0  0  0  0  0  0  0  0  0  0  0
    1.7821   -1.9086    0.7615 C   0  0  1  0  0  0  0  0  0  0  0  0
    5.6357    3.6025   -0.7204 C   0  0  0  0  0  0  0  0  0  0  0  0
   -5.0072    2.5823    0.4762 C   0  0  0  0  0  0  0  0  0  0  0  0
   -3.6076    2.6534   -1.5561 C   0  0  0  0  0  0  0  0  0  0  0  0
   -4.0387    3.5568    1.0620 C   0  0  0  0  0  0  0  0  0  0  0  0
   -3.9012    4.1438   -1.3188 C   0  0  0  0  0  0  0  0  0  0  0  0
   -4.8155   -2.1003   -1.2916 C   0  0  0  0  0  0  0  0  0  0  0  0
   -3.1609   -3.7267   -0.6169 C   0  0  0  0  0  0  0  0  0  0  0  0
   -4.9659   -3.2081   -2.3121 C   0  0  0  0  0  0  0  0  0  0  0  0
   -4.4150   -4.5730   -0.3653 C   0  0  0  0  0  0  0  0  0  0  0  0
   -5.2521   -4.5310   -1.6114 C   0  0  0  0  0  0  0  0  0  0  0  0
    1.4597    0.1647    1.5148 C   0  0  2  0  0  0  0  0  0  0  0  0
    5.3196    1.6761    1.5244 N   0  0  0  0  0  0  0  0  0  0  0  0
    5.3713    1.3613    0.1166 C   0  0  1  0  0  0  0  0  0  0  0  0
    5.7921    0.4783    2.1282 N   0  0  0  0  0  0  0  0  0  0  0  0
   -2.9164   -0.0181   -1.0549 N   0  0  0  0  0  0  0  0  0  0  0  0
    3.0816   -1.5089    0.0723 C   0  0  0  0  0  0  0  0  0  0  0  0
    2.6946    0.7490    0.7990 C   0  0  0  0  0  0  0  0  0  0  0  0
    6.0747   -0.4229    1.0281 C   0  0  0  0  0  0  0  0  0  0  0  0
    2.1327   -2.0402    2.2546 C   0  0  0  0  0  0  0  0  0  0  0  0
    1.8614   -0.6479    2.7349 C   0  0  0  0  0  0  0  0  0  0  0  0
   -2.3894    4.7717    0.1985 F   0  0  0  0  0  0  0  0  0  0  0  0
   -4.0848   -0.1707    1.0375 O   0  0  0  0  0  0  0  0  0  0  0  0
    3.6322    0.0618    0.8608 C   0  0  0  0  0  0  0  0  0  0  0  0
    4.9113    0.4517    0.8959 N   0  0  0  0  0  0  0  0  0  0  0  0
   -0.2572   -0.4135   -0.6072 C   0  0  0  0  0  0  0  0  0  0  0  0
    5.5042    2.3690   -0.6611 C   0  0  0  0  0  0  0  0  0  0  0  0
   -1.2674   -1.4192   -0.1547 C   0  0  0  0  0  0  0  0  0  0  0  0
   -2.5650   -1.3424   -0.9218 C   0  0  1  0  0  0  0  0  0  0  0  0
    5.3363   -1.2533    2.6745 C   0  0  0  0  0  0  0  0  0  0  0  0
   -3.5574   -2.3799   -0.4399 C   0  0  0  0  0  0  0  0  0  0  0  0
   -3.4877    0.6518    0.1178 C   0  0  2  0  0  0  0  0  0  0  0  0
   -4.5691    1.6649   -0.2955 C   0  0  0  0  0  0  0  0  0  0  0  0
   -3.7420    4.4893    0.3329 C   0  0  0  0  0  0  0  0  0  0  0  0
    4.7002    2.0363   -1.8569 C   0  0  0  0  0  0  0  0  0  0  0  0
   -4.3638    5.7001    0.6364 F   0  0  0  0  0  0  0  0  0  0  0  0
    0.9540   -0.4000    0.0224 N   0  0  0  0  0  0  0  0  0  0  0  0
    1.8806   -1.4529   -0.1065 C   0  0  1  0  0  0  0  0  0  0  0  0
    6.8865    2.8007   -1.2177 C   0  0  0  0  0  0  0  0  0  0  0  0
   -4.9731    2.3877    0.9551 C   0  0  0  0  0  0  0  0  0  0  0  0
   -3.9804    2.6030   -1.2992 C   0  0  0  0  0  0  0  0  0  0  0  0
   -3.9965    3.4515    1.3835 C   0  0  0  0  0  0  0  0  0  0  0  0
   -4.3512    4.0377   -0.9863 C   0  0  0  0  0  0  0  0  0  0  0  0
   -4.8140   -2.2359   -1.2458 C   0  0  0  0  0  0  0  0  0  0  0  0
   -2.9603   -3.7412   -0.8260 C   0  0  0  0  0  0  0  0  0  0  0  0
   -4.9142   -3.2412   -2.3687 C   0  0  0  0  0  0  0  0  0  0  0  0
   -4.0675   -4.7748   -0.6724 C   0  0  0  0  0  0  0  0  0  0  0  0
   -4.9639   -4.6697   -1.8642 C   0  0  0  0  0  0  0  0  0  0  0  0
    1.2124    0.1986    1.2511 C   0  0  2  0  0  0  0  0  0  0  0  0
    6.8214    1.5389    1.2097 N   0  0  0  0  0  0  0  0  0  0  0  0
    5.7666    1.2353    0.2160 C   0  0  0  0  0  0  0  0  0  0  0  0
    6.9211    0.3812    1.9284 N   0  0  0  0  0  0  0  0  0  0  0  0
   -3.1084   -0.0371   -1.0629 N   0  0  0  0  0  0  0  0  0  0  0  0
    3.2354   -0.7483   -0.3527 C   0  0  0  0  0  0  0  0  0  0  0  0
    2.5007    1.0289    1.0735 C   0  0  0  0  0  0  0  0  0  0  0  0
    5.8640   -0.5029    1.5007 C   0  0  0  0  0  0  0  0  0  0  0  0
    1.8641   -2.0789    1.2701 C   0  0  0  0  0  0  0  0  0  0  0  0
    1.3976   -0.9695    2.1734 C   0  0  0  0  0  0  0  0  0  0  0  0
   -4.0227    0.1845    1.8059 H   0  0  0  0  0  0  0  0  0  0  0  0
    3.9262   -0.5648    1.8671 H   0  0  0  0  0  0  0  0  0  0  0  0
    0.1396   -0.8828   -1.2181 H   0  0  0  0  0  0  0  0  0  0  0  0
   -0.5061    0.3798   -0.1548 H   0  0  0  0  0  0  0  0  0  0  0  0
    3.7831    2.6866   -0.6790 H   0  0  0  0  0  0  0  0  0  0  0  0
   -1.0112   -2.6022   -0.0106 H   0  0  0  0  0  0  0  0  0  0  0  0
   -1.6313   -1.4805    1.2094 H   0  0  0  0  0  0  0  0  0  0  0  0
   -2.1377   -1.7466   -1.8100 H   0  0  0  0  0  0  0  0  0  0  0  0
    6.0599   -2.4323    0.4029 H   0  0  0  0  0  0  0  0  0  0  0  0
    5.5238   -2.2284    2.1587 H   0  0  0  0  0  0  0  0  0  0  0  0
    7.2000   -2.0507    1.6751 H   0  0  0  0  0  0  0  0  0  0  0  0
   -3.7864   -2.1789    0.6601 H   0  0  0  0  0  0  0  0  0  0  0  0
   -2.7123    1.4234    0.5139 H   0  0  0  0  0  0  0  0  0  0  0  0
   -5.2394    1.2462   -1.1928 H   0  0  0  0  0  0  0  0  0  0  0  0
    5.9224    2.2460   -2.6990 H   0  0  0  0  0  0  0  0  0  0  0  0
    5.0966    0.7147   -2.2658 H   0  0  0  0  0  0  0  0  0  0  0  0
    4.1598    2.0916   -2.8715 H   0  0  0  0  0  0  0  0  0  0  0  0
    1.4439   -2.8609    0.3481 H   0  0  0  0  0  0  0  0  0  0  0  0
    5.6139    3.9911    0.3157 H   0  0  0  0  0  0  0  0  0  0  0  0
    5.3124    4.3375   -1.4724 H   0  0  0  0  0  0  0  0  0  0  0  0
    6.6919    3.2668   -0.9118 H   0  0  0  0  0  0  0  0  0  0  0  0
   -5.9776    3.0468    0.2030 H   0  0  0  0  0  0  0  0  0  0  0  0
   -5.2508    1.8303    1.2829 H   0  0  0  0  0  0  0  0  0  0  0  0
   -2.5164    2.5358   -1.4067 H   0  0  0  0  0  0  0  0  0  0  0  0
   -3.7843    2.4239   -2.6385 H   0  0  0  0  0  0  0  0  0  0  0  0
   -3.2791    3.0098    1.6758 H   0  0  0  0  0  0  0  0  0  0  0  0
   -4.6242    4.1571    1.8200 H   0  0  0  0  0  0  0  0  0  0  0  0
   -3.2758    4.7035   -2.0469 H   0  0  0  0  0  0  0  0  0  0  0  0
   -4.9672    4.3504   -1.3872 H   0  0  0  0  0  0  0  0  0  0  0  0
   -4.8145   -1.1164   -1.8284 H   0  0  0  0  0  0  0  0  0  0  0  0
   -5.7238   -2.1693   -0.6318 H   0  0  0  0  0  0  0  0  0  0  0  0
   -2.7409   -3.9099   -1.6050 H   0  0  0  0  0  0  0  0  0  0  0  0
   -2.4249   -4.0711    0.1205 H   0  0  0  0  0  0  0  0  0  0  0  0
   -4.1079   -3.3187   -2.9838 H   0  0  0  0  0  0  0  0  0  0  0  0
   -5.8912   -3.0024   -2.9027 H   0  0  0  0  0  0  0  0  0  0  0  0
   -4.9042   -4.1179    0.5217 H   0  0  0  0  0  0  0  0  0  0  0  0
   -4.0724   -5.6063   -0.1099 H   0  0  0  0  0  0  0  0  0  0  0  0
   -6.3210   -4.6521   -1.3559 H   0  0  0  0  0  0  0  0  0  0  0  0
   -4.9359   -5.3994   -2.2536 H   0  0  0  0  0  0  0  0  0  0  0  0
    0.7759    0.9672    1.8337 H   0  0  0  0  0  0  0  0  0  0  0  0
    5.9835    2.4204    1.7524 H   0  0  0  0  0  0  0  0  0  0  0  0
    6.4858    1.3469   -0.1160 H   0  0  0  0  0  0  0  0  0  0  0  0
    6.5668    0.6335    2.7750 H   0  0  0  0  0  0  0  0  0  0  0  0
   -2.6335    0.4575   -1.9083 H   0  0  0  0  0  0  0  0  0  0  0  0
    3.7322   -2.3481   -0.1221 H   0  0  0  0  0  0  0  0  0  0  0  0
    2.7692   -1.0830   -0.9199 H   0  0  0  0  0  0  0  0  0  0  0  0
    2.9505    1.6378    1.3774 H   0  0  0  0  0  0  0  0  0  0  0  0
    2.2986    0.9331   -0.2244 H   0  0  0  0  0  0  0  0  0  0  0  0
    7.0130   -0.1280    0.5135 H   0  0  0  0  0  0  0  0  0  0  0  0
    3.1658   -2.3959    2.4077 H   0  0  0  0  0  0  0  0  0  0  0  0
    1.4820   -2.7953    2.7486 H   0  0  0  0  0  0  0  0  0  0  0  0
    0.9213   -0.6878    3.3660 H   0  0  0  0  0  0  0  0  0  0  0  0
    2.6119   -0.1904    3.3646 H   0  0  0  0  0  0  0  0  0  0  0  0
   -3.7662   -0.0251    1.9655 H   0  0  0  0  0  0  0  0  0  0  0  0
    3.4751   -0.6758    1.7387 H   0  0  0  0  0  0  0  0  0  0  0  0
   -0.1003   -0.6068   -1.7127 H   0  0  0  0  0  0  0  0  0  0  0  0
   -0.7269    0.5924   -0.5872 H   0  0  0  0  0  0  0  0  0  0  0  0
    5.1733    3.3050   -0.1457 H   0  0  0  0  0  0  0  0  0  0  0  0
   -0.8844   -2.4680   -0.2833 H   0  0  0  0  0  0  0  0  0  0  0  0
   -1.4464   -1.3317    0.9566 H   0  0  0  0  0  0  0  0  0  0  0  0
   -2.3001   -1.6767   -1.9718 H   0  0  0  0  0  0  0  0  0  0  0  0
    4.9609   -2.2553    2.4866 H   0  0  0  0  0  0  0  0  0  0  0  0
    4.6767   -0.6653    3.3530 H   0  0  0  0  0  0  0  0  0  0  0  0
    6.2493   -1.4315    3.3313 H   0  0  0  0  0  0  0  0  0  0  0  0
   -3.6983   -2.4208    0.6368 H   0  0  0  0  0  0  0  0  0  0  0  0
   -2.6901    1.2929    0.5721 H   0  0  0  0  0  0  0  0  0  0  0  0
   -5.4637    1.1198   -0.6613 H   0  0  0  0  0  0  0  0  0  0  0  0
    4.9946    2.6176   -2.7690 H   0  0  0  0  0  0  0  0  0  0  0  0
    4.8930    0.9674   -2.1684 H   0  0  0  0  0  0  0  0  0  0  0  0
    3.6100    2.1959   -1.7582 H   0  0  0  0  0  0  0  0  0  0  0  0
    1.7114   -2.1545   -0.9160 H   0  0  0  0  0  0  0  0  0  0  0  0
    7.5447    2.8194   -0.3007 H   0  0  0  0  0  0  0  0  0  0  0  0
    6.8302    3.8279   -1.5832 H   0  0  0  0  0  0  0  0  0  0  0  0
    7.2816    2.0604   -1.9096 H   0  0  0  0  0  0  0  0  0  0  0  0
   -5.9779    2.8433    0.8773 H   0  0  0  0  0  0  0  0  0  0  0  0
   -4.9984    1.6398    1.7893 H   0  0  0  0  0  0  0  0  0  0  0  0
   -2.8742    2.5677   -1.3293 H   0  0  0  0  0  0  0  0  0  0  0  0
   -4.3209    2.4021   -2.3333 H   0  0  0  0  0  0  0  0  0  0  0  0
   -3.0597    3.0257    1.8155 H   0  0  0  0  0  0  0  0  0  0  0  0
   -4.4895    3.9823    2.2495 H   0  0  0  0  0  0  0  0  0  0  0  0
   -3.8919    4.6598   -1.7815 H   0  0  0  0  0  0  0  0  0  0  0  0
   -5.4354    4.2055   -0.9185 H   0  0  0  0  0  0  0  0  0  0  0  0
   -4.9097   -1.2393   -1.6875 H   0  0  0  0  0  0  0  0  0  0  0  0
   -5.6754   -2.4415   -0.5636 H   0  0  0  0  0  0  0  0  0  0  0  0
   -2.5572   -3.7098   -1.8413 H   0  0  0  0  0  0  0  0  0  0  0  0
   -2.1594   -4.0476   -0.1352 H   0  0  0  0  0  0  0  0  0  0  0  0
   -4.1109   -3.1547   -3.1180 H   0  0  0  0  0  0  0  0  0  0  0  0
   -5.8868   -3.0599   -2.8798 H   0  0  0  0  0  0  0  0  0  0  0  0
   -4.6518   -4.5199    0.2396 H   0  0  0  0  0  0  0  0  0  0  0  0
   -3.6347   -5.7930   -0.5255 H   0  0  0  0  0  0  0  0  0  0  0  0
   -6.0146   -4.9790   -1.6552 H   0  0  0  0  0  0  0  0  0  0  0  0
   -4.5667   -5.3531   -2.6484 H   0  0  0  0  0  0  0  0  0  0  0  0
    0.4079    0.8867    1.5500 H   0  0  0  0  0  0  0  0  0  0  0  0
    6.6305    2.3886    1.7317 H   0  0  0  0  0  0  0  0  0  0  0  0
    6.3749    0.5188   -0.4648 H   0  0  0  0  0  0  0  0  0  0  0  0
    6.9226    0.5041    2.9622 H   0  0  0  0  0  0  0  0  0  0  0  0
   -2.7008    0.5337   -1.8030 H   0  0  0  0  0  0  0  0  0  0  0  0
    3.9851   -1.4324   -0.7097 H   0  0  0  0  0  0  0  0  0  0  0  0
    2.9935   -0.0317   -1.1688 H   0  0  0  0  0  0  0  0  0  0  0  0
    2.5791    1.6396    1.9622 H   0  0  0  0  0  0  0  0  0  0  0  0
    2.3058    1.5755    0.1295 H   0  0  0  0  0  0  0  0  0  0  0  0
    6.1711   -1.2137    0.7237 H   0  0  0  0  0  0  0  0  0  0  0  0
    2.8024   -2.5620    1.5591 H   0  0  0  0  0  0  0  0  0  0  0  0
    1.1131   -2.9316    1.2949 H   0  0  0  0  0  0  0  0  0  0  0  0
    0.3545   -1.2242    2.5377 H   0  0  0  0  0  0  0  0  0  0  0  0
    1.9761   -0.7958    3.0690 H   0  0  0  0  0  0  0  0  0  0  0  0
  3  4  1  0
  5  7  1  0
  7  8  1  0
  8 10  1  0
  2 11  1  0
 11 12  1  0
 13  1  1  0
  6 14  1  0
 13 15  1  0
  5 16  1  0
 16 17  1  0
  6 18  1  0
 12 19  1  0
 12 20  1  0
 13 21  1  0
 19 21  1  0
 13 22  1  0
 20 22  1  0
 10 23  1  0
 10 24  1  0
 23 25  1  0
 24 26  1  0
 25 27  1  0
 26 27  1  0
 16 28  1  0
  4 30  1  0
  6 30  1  0
 29 30  1  0
 29 31  1  0
  8 32  1  0
 11 32  1  0
  3 33  1  0
 17 33  1  0
  3 34  1  0
 28 34  1  0
  4 35  1  0
  9 35  1  0
 31 35  1  0
 17 36  1  0
 28 37  1  0
 36 37  1  0
 40 41  1  0
 42 44  1  0
 44 45  1  0
 45 47  1  0
 39 48  1  0
 48 49  1  0
 50 38  1  0
 43 51  1  0
 50 52  1  0
 42 53  1  0
 53 54  1  0
 43 55  1  0
 49 56  1  0
 49 57  1  0
 50 58  1  0
 56 58  1  0
 50 59  1  0
 57 59  1  0
 47 60  1  0
 47 61  1  0
 60 62  1  0
 61 63  1  0
 62 64  1  0
 63 64  1  0
 53 65  1  0
 41 67  1  0
 43 67  1  0
 66 67  1  0
 66 68  1  0
 45 69  1  0
 48 69  1  0
 40 70  1  0
 54 70  1  0
 40 71  1  0
 65 71  1  0
 41 72  1  0
 46 72  1  0
 68 72  1  0
 54 73  1  0
 65 74  1  0
 73 74  1  0
  2 75  1  0
  3 76  1  0
  5 77  1  0
  5 78  1  0
  6 79  1  0
  7 80  1  0
  7 81  1  0
  8 82  1  6
  9 83  1  0
  9 84  1  0
  9 85  1  0
 10 86  1  0
 11 87  1  1
 12 88  1  0
 14 89  1  0
 14 90  1  0
 14 91  1  0
 17 92  1  6
 18 93  1  0
 18 94  1  0
 18 95  1  0
 19 96  1  0
 19 97  1  0
 20 98  1  0
 20 99  1  0
 21100  1  0
 21101  1  0
 22102  1  0
 22103  1  0
 23104  1  0
 23105  1  0
 24106  1  0
 24107  1  0
 25108  1  0
 25109  1  0
 26110  1  0
 26111  1  0
 27112  1  0
 27113  1  0
 28114  1  1
 29115  1  0
 30116  1  6
 31117  1  0
 32118  1  0
 33119  1  0
 33120  1  0
 34121  1  0
 34122  1  0
 35123  1  0
 36124  1  0
 36125  1  0
 37126  1  0
 37127  1  0
 39128  1  0
 40129  1  0
 42130  1  0
 42131  1  0
 43132  1  0
 44133  1  0
 44134  1  0
 45135  1  6
 46136  1  0
 46137  1  0
 46138  1  0
 47139  1  0
 48140  1  1
 49141  1  0
 51142  1  0
 51143  1  0
 51144  1  0
 54145  1  6
 55146  1  0
 55147  1  0
 55148  1  0
 56149  1  0
 56150  1  0
 57151  1  0
 57152  1  0
 58153  1  0
 58154  1  0
 59155  1  0
 59156  1  0
 60157  1  0
 60158  1  0
 61159  1  0
 61160  1  0
 62161  1  0
 62162  1  0
 63163  1  0
 63164  1  0
 64165  1  0
 64166  1  0
 65167  1  1
 66168  1  0
 67169  1  0
 68170  1  0
 69171  1  0
 70172  1  0
 70173  1  0
 71174  1  0
 71175  1  0
 72176  1  0
 73177  1  0
 73178  1  0
 74179  1  0
 74180  1  0
M  END
>  <PDBID>  (1) 
4MBS

>  <PDB ID>  (1) 
4MBS

>  <Generic Name>  (1) 
Maraviroc

>  <Brand Name>  (1) 
Celsentri#Selzentry

>  <DrugBank ID>  (1) 
DB04835

>  <ATC Codes>  (1) 
J05AX09

>  <Ligand ID>  (1) 
MRV

>  <Target Name>  (1) 
C-C chemokine receptor type 5

>  <UniProt ID>  (1) 
P51681

>  <PDB ID.1>  (1) 
4MBS

>  <Seq. Identity>  (1) 
74%

$$$$
