PDB_DB00275_07
     RDKit          3D

 81 84  0  0  0  0  0  0  0  0999 V2000
    2.0660   -1.3837   -0.8097 C   0  0  0  0  0  0  0  0  0  0  0  0
    0.7630   -1.5331   -0.0824 C   0  0  0  0  0  0  0  0  0  0  0  0
   -6.2562    0.0041   -0.8916 O   0  0  0  0  0  0  0  0  0  0  0  0
   -0.3262   -0.6247   -0.6561 C   0  0  0  0  0  0  0  0  0  0  0  0
   -2.7970   -2.3596   -1.6567 O   0  0  0  0  0  0  0  0  0  0  0  0
   -1.3685   -0.5102    0.4161 C   0  0  0  0  0  0  0  0  0  0  0  0
   -4.5174   -1.2503   -2.5857 O   0  0  0  0  0  0  0  0  0  0  0  0
   -3.2214    4.4329    0.4139 C   0  0  0  0  0  0  0  0  0  0  0  0
   -3.4743    2.9332    0.2027 C   0  0  0  0  0  0  0  0  0  0  0  0
   -2.9108    2.2437    1.4117 C   0  0  0  0  0  0  0  0  0  0  0  0
   -3.1329    0.7711    1.3015 C   0  0  0  0  0  0  0  0  0  0  0  0
   -4.5039    0.3849    1.2142 N   0  0  0  0  0  0  0  0  0  0  0  0
   -4.4490   -0.8431    0.3568 C   0  0  0  0  0  0  0  0  0  0  0  0
   -5.8383   -1.0598   -0.0983 C   0  0  0  0  0  0  0  0  0  0  0  0
   -6.7734   -0.9085    1.1646 C   0  0  0  0  0  0  0  0  0  0  0  0
   -6.1720   -2.3786   -0.6917 C   0  0  0  0  0  0  0  0  0  0  0  0
   -3.5328   -0.2286   -0.7201 C   0  0  0  0  0  0  0  0  0  0  0  0
   -3.3173   -1.1211   -1.8479 C   0  0  0  0  0  0  0  0  0  0  0  0
   -2.4604    0.2918    0.0573 N   0  0  0  0  0  0  0  0  0  0  0  0
    0.2111    0.7627   -0.9069 C   0  0  0  0  0  0  0  0  0  0  0  0
    1.5733    1.0358   -0.3908 C   0  0  0  0  0  0  0  0  0  0  0  0
    2.6068    0.0178   -0.7579 C   0  0  0  0  0  0  0  0  0  0  0  0
    3.8634    0.1058    0.1025 C   0  0  0  0  0  0  0  0  0  0  0  0
    3.5693   -0.3368    1.5302 C   0  0  0  0  0  0  0  0  0  0  0  0
    4.8340   -0.0683    2.3219 C   0  0  0  0  0  0  0  0  0  0  0  0
    5.8376   -1.1351    1.9087 C   0  0  0  0  0  0  0  0  0  0  0  0
    5.5236   -1.7281    0.5812 C   0  0  0  0  0  0  0  0  0  0  0  0
    4.9556   -0.7561   -0.4217 C   0  0  0  0  0  0  0  0  0  0  0  0
    6.0718   -0.0446   -1.1002 C   0  0  0  0  0  0  0  0  0  0  0  0
    5.6815    0.7232   -2.2641 N   0  0  0  0  0  0  0  0  0  0  0  0
    6.9299    1.3660   -2.5170 N   0  0  0  0  0  0  0  0  0  0  0  0
    7.1859    1.9285   -1.2370 N   0  0  0  0  0  0  0  0  0  0  0  0
    6.7356    0.9625   -0.3188 N   0  0  0  0  0  0  0  0  0  0  0  0
    2.7882   -2.0621   -0.3465 H   0  0  0  0  0  0  0  0  0  0  0  0
    1.9116   -1.7073   -1.8569 H   0  0  0  0  0  0  0  0  0  0  0  0
    0.8066   -1.3481    0.9871 H   0  0  0  0  0  0  0  0  0  0  0  0
    0.4046   -2.5697   -0.2382 H   0  0  0  0  0  0  0  0  0  0  0  0
   -7.2168    0.1597   -0.8219 H   0  0  0  0  0  0  0  0  0  0  0  0
   -0.6183   -1.0495   -1.6053 H   0  0  0  0  0  0  0  0  0  0  0  0
   -2.9266   -2.7712   -0.7922 H   0  0  0  0  0  0  0  0  0  0  0  0
   -1.6386   -1.5219    0.8079 H   0  0  0  0  0  0  0  0  0  0  0  0
   -0.9028   -0.0256    1.3356 H   0  0  0  0  0  0  0  0  0  0  0  0
   -4.3263   -1.6654   -3.4590 H   0  0  0  0  0  0  0  0  0  0  0  0
   -3.3636    4.6232    1.4990 H   0  0  0  0  0  0  0  0  0  0  0  0
   -2.1840    4.6298    0.1253 H   0  0  0  0  0  0  0  0  0  0  0  0
   -3.9741    4.9814   -0.1978 H   0  0  0  0  0  0  0  0  0  0  0  0
   -4.5347    2.7510    0.0091 H   0  0  0  0  0  0  0  0  0  0  0  0
   -2.9131    2.6361   -0.7327 H   0  0  0  0  0  0  0  0  0  0  0  0
   -3.2801    2.6653    2.3591 H   0  0  0  0  0  0  0  0  0  0  0  0
   -1.8022    2.4554    1.4179 H   0  0  0  0  0  0  0  0  0  0  0  0
   -2.6080    0.2417    2.1465 H   0  0  0  0  0  0  0  0  0  0  0  0
   -4.9077    0.1153    2.1440 H   0  0  0  0  0  0  0  0  0  0  0  0
   -3.9735   -1.6008    0.9546 H   0  0  0  0  0  0  0  0  0  0  0  0
   -6.8107    0.1570    1.4205 H   0  0  0  0  0  0  0  0  0  0  0  0
   -7.7322   -1.3387    0.8365 H   0  0  0  0  0  0  0  0  0  0  0  0
   -6.3140   -1.5646    1.9111 H   0  0  0  0  0  0  0  0  0  0  0  0
   -5.3072   -3.0812   -0.8088 H   0  0  0  0  0  0  0  0  0  0  0  0
   -6.7806   -2.2907   -1.6134 H   0  0  0  0  0  0  0  0  0  0  0  0
   -6.8573   -2.9667    0.0098 H   0  0  0  0  0  0  0  0  0  0  0  0
   -4.1360    0.6432   -1.0825 H   0  0  0  0  0  0  0  0  0  0  0  0
   -2.6466   -0.5990   -2.5974 H   0  0  0  0  0  0  0  0  0  0  0  0
    0.2591    0.8944   -2.0260 H   0  0  0  0  0  0  0  0  0  0  0  0
   -0.5532    1.4915   -0.5862 H   0  0  0  0  0  0  0  0  0  0  0  0
    1.8685    2.0484   -0.7665 H   0  0  0  0  0  0  0  0  0  0  0  0
    1.5159    1.1281    0.7122 H   0  0  0  0  0  0  0  0  0  0  0  0
    2.9497    0.2658   -1.7812 H   0  0  0  0  0  0  0  0  0  0  0  0
    4.1018    1.1830    0.1666 H   0  0  0  0  0  0  0  0  0  0  0  0
    2.7702    0.2167    2.0171 H   0  0  0  0  0  0  0  0  0  0  0  0
    3.4125   -1.4483    1.5634 H   0  0  0  0  0  0  0  0  0  0  0  0
    5.2801    0.9173    2.0586 H   0  0  0  0  0  0  0  0  0  0  0  0
    4.6424   -0.1102    3.4194 H   0  0  0  0  0  0  0  0  0  0  0  0
    6.8873   -0.8004    2.0294 H   0  0  0  0  0  0  0  0  0  0  0  0
    5.7160   -1.9630    2.6682 H   0  0  0  0  0  0  0  0  0  0  0  0
    6.4910   -2.1138    0.1402 H   0  0  0  0  0  0  0  0  0  0  0  0
    4.8900   -2.6596    0.6567 H   0  0  0  0  0  0  0  0  0  0  0  0
    4.4945   -1.4150   -1.2226 H   0  0  0  0  0  0  0  0  0  0  0  0
    6.8604   -0.7519   -1.4332 H   0  0  0  0  0  0  0  0  0  0  0  0
    5.0385    1.5160   -2.0364 H   0  0  0  0  0  0  0  0  0  0  0  0
    7.6492    0.5899   -2.6069 H   0  0  0  0  0  0  0  0  0  0  0  0
    6.6410    2.8181   -1.1884 H   0  0  0  0  0  0  0  0  0  0  0  0
    7.5729    0.6026    0.1908 H   0  0  0  0  0  0  0  0  0  0  0  0
  1  2  1  0
  2  4  1  0
  4  6  1  0
  8  9  1  0
  9 10  1  0
 10 11  1  0
 11 12  1  0
 12 13  1  0
 14  3  1  0
 13 14  1  0
 14 15  1  0
 14 16  1  0
 13 17  1  0
  5 18  1  0
  7 18  1  0
 17 18  1  0
  6 19  1  0
 11 19  1  0
 17 19  1  0
  4 20  1  0
 20 21  1  0
  1 22  1  0
 21 22  1  0
 22 23  1  0
 23 24  1  0
 24 25  1  0
 25 26  1  0
 26 27  1  0
 23 28  1  0
 27 28  1  0
 28 29  1  0
 29 30  1  0
 30 31  1  0
 31 32  1  0
 29 33  1  0
 32 33  1  0
  1 34  1  0
  1 35  1  0
  2 36  1  0
  2 37  1  0
  3 38  1  0
  4 39  1  0
  5 40  1  0
  6 41  1  0
  6 42  1  0
  7 43  1  0
  8 44  1  0
  8 45  1  0
  8 46  1  0
  9 47  1  0
  9 48  1  0
 10 49  1  0
 10 50  1  0
 11 51  1  0
 12 52  1  0
 13 53  1  0
 15 54  1  0
 15 55  1  0
 15 56  1  0
 16 57  1  0
 16 58  1  0
 16 59  1  0
 17 60  1  0
 18 61  1  0
 20 62  1  0
 20 63  1  0
 21 64  1  0
 21 65  1  0
 22 66  1  0
 23 67  1  0
 24 68  1  0
 24 69  1  0
 25 70  1  0
 25 71  1  0
 26 72  1  0
 26 73  1  0
 27 74  1  0
 27 75  1  0
 28 76  1  0
 29 77  1  0
 30 78  1  0
 31 79  1  0
 32 80  1  0
 33 81  1  0
M  END
>  <PDBID>  (1) 
4ZUD

>  <PDB ID>  (1) 
4ZUD

>  <Generic Name>  (1) 
Olmesartan

>  <Brand Name>  (1) 
Amlodipine Besylate and Olmesartan Medoxomil#Amlodipine and Olmesartan Medoxomil#Azor#Benicar#Benicar Hct#Olmesartan Medoxmil and Hydrochlorothiazide#Olmesartan Medoxomil#Olmesartan Medoxomil / Amlodipine Besylate / Hydrochlorothiazide#Olmesartan Medoxomil and Hydrochlorothiazide#Olmesartan Medoxomil, Amlodipine and Hydrochlorothiazide#Olmesartan Medoxomil, Amlodipine and Hydrochlorothiazide 20/5/12.5 mg#Olmesartan Medoxomil, Amlodipine and Hydrochlorothiazide 40/10/12.5 mg#Olmesartan Medoxomil, Amlodipine and Hydrochlorothiazide 40/10/25 mg#Olmesartan Medoxomil, Amlodipine and Hydrochlorothiazide 40/5/12.5 mg#Olmesartan Medoxomil, Amlodipine and Hydrochlorothiazide 40/5/25 mg#Olmetec#Olmetec Plus#Tribenzor#Erastapex#Golme#Olmetec#WinBP

>  <DrugBank ID>  (1) 
DB00275

>  <ATC Codes>  (1) 
C09DA08#C09CA08#C09DX03#C09DB02

>  <Ligand ID>  (1) 
OLM

>  <Target Name>  (1) 
Type-1 angiotensin II receptor

>  <UniProt ID>  (1) 
P30556

>  <PDB ID.1>  (1) 
4ZUD

>  <Seq. Identity>  (1) 
87%

$$$$
