PDB_DB01127_09
     RDKit          3D

110114  0  0  0  0  0  0  0  0999 V2000
    2.4201   -0.1467    0.9200 C   0  0  0  0  0  0  0  0  0  0  0  0
    2.5970   -0.7218   -0.4328 C   0  0  0  0  0  0  0  0  0  0  0  0
   -0.8538   -1.2574   -2.7418 Cl  0  0  0  0  0  0  0  0  0  0  0  0
   -2.7276    3.7563    1.0278 C   0  0  0  0  0  0  0  0  0  0  0  0
   -1.9194    2.4643    0.9652 C   0  0  0  0  0  0  0  0  0  0  0  0
    4.9558   -0.1002    1.1169 C   0  0  0  0  0  0  0  0  0  0  0  0
    3.6613    0.4663    1.5317 C   0  0  0  0  0  0  0  0  0  0  0  0
    4.9974   -0.3588   -0.3819 C   0  0  0  0  0  0  0  0  0  0  0  0
    6.5971   -0.8346   -0.9165 Cl  0  0  0  0  0  0  0  0  0  0  0  0
   -2.0881   -1.2599   -1.4525 C   0  0  0  0  0  0  0  0  0  0  0  0
   -2.8263   -2.5359   -1.4212 C   0  0  0  0  0  0  0  0  0  0  0  0
   -2.5887   -3.4853   -0.3235 C   0  0  0  0  0  0  0  0  0  0  0  0
   -1.8580   -2.9306    0.8694 C   0  0  0  0  0  0  0  0  0  0  0  0
   -4.1353   -4.1449    0.2767 Cl  0  0  0  0  0  0  0  0  0  0  0  0
   -2.9349    4.0295   -0.3893 N   0  0  0  0  0  0  0  0  0  0  0  0
   -1.2967    1.4163   -1.0859 C   0  0  0  0  0  0  0  0  0  0  0  0
   -0.4358    0.2820   -0.4513 C   0  0  1  0  0  0  0  0  0  0  0  0
    0.1001    0.6966    0.6995 O   0  0  0  0  0  0  0  0  0  0  0  0
   -1.4396   -0.8144   -0.1814 C   0  0  0  0  0  0  0  0  0  0  0  0
   -2.3655    1.7953   -0.2241 N   0  0  0  0  0  0  0  0  0  0  0  0
   -3.2397    2.7048   -0.9223 C   0  0  0  0  0  0  0  0  0  0  0  0
    1.3613    0.9223    0.9874 C   0  0  0  0  0  0  0  0  0  0  0  0
    3.9435   -1.4216   -0.6114 C   0  0  0  0  0  0  0  0  0  0  0  0
   -0.7319   -2.0092    0.4087 C   0  0  0  0  0  0  0  0  0  0  0  0
    2.4201   -0.1467    0.9200 C   0  0  0  0  0  0  0  0  0  0  0  0
    2.5970   -0.7218   -0.4328 C   0  0  0  0  0  0  0  0  0  0  0  0
   -0.8538   -1.2574   -2.7418 Cl  0  0  0  0  0  0  0  0  0  0  0  0
   -2.7276    3.7563    1.0278 C   0  0  0  0  0  0  0  0  0  0  0  0
   -1.9194    2.4643    0.9652 C   0  0  0  0  0  0  0  0  0  0  0  0
    4.9558   -0.1002    1.1169 C   0  0  0  0  0  0  0  0  0  0  0  0
    3.6613    0.4663    1.5317 C   0  0  0  0  0  0  0  0  0  0  0  0
    4.9974   -0.3588   -0.3819 C   0  0  0  0  0  0  0  0  0  0  0  0
    6.5971   -0.8346   -0.9165 Cl  0  0  0  0  0  0  0  0  0  0  0  0
   -2.0881   -1.2599   -1.4525 C   0  0  0  0  0  0  0  0  0  0  0  0
   -2.8263   -2.5359   -1.4212 C   0  0  0  0  0  0  0  0  0  0  0  0
   -2.5887   -3.4853   -0.3235 C   0  0  0  0  0  0  0  0  0  0  0  0
   -1.8580   -2.9306    0.8694 C   0  0  0  0  0  0  0  0  0  0  0  0
   -4.1353   -4.1449    0.2767 Cl  0  0  0  0  0  0  0  0  0  0  0  0
   -2.9349    4.0295   -0.3893 N   0  0  0  0  0  0  0  0  0  0  0  0
   -1.2967    1.4163   -1.0859 C   0  0  0  0  0  0  0  0  0  0  0  0
   -0.4358    0.2820   -0.4513 C   0  0  1  0  0  0  0  0  0  0  0  0
    0.1001    0.6966    0.6995 O   0  0  0  0  0  0  0  0  0  0  0  0
   -1.4396   -0.8144   -0.1814 C   0  0  0  0  0  0  0  0  0  0  0  0
   -2.3655    1.7953   -0.2241 N   0  0  0  0  0  0  0  0  0  0  0  0
   -3.2397    2.7048   -0.9223 C   0  0  0  0  0  0  0  0  0  0  0  0
    1.3613    0.9223    0.9874 C   0  0  0  0  0  0  0  0  0  0  0  0
    3.9435   -1.4216   -0.6114 C   0  0  0  0  0  0  0  0  0  0  0  0
   -0.7319   -2.0092    0.4087 C   0  0  0  0  0  0  0  0  0  0  0  0
    2.1244   -1.0185    1.5929 H   0  0  0  0  0  0  0  0  0  0  0  0
    2.5748    0.0672   -1.2206 H   0  0  0  0  0  0  0  0  0  0  0  0
    1.8603   -1.4986   -0.6688 H   0  0  0  0  0  0  0  0  0  0  0  0
   -3.6942    3.6178    1.5279 H   0  0  0  0  0  0  0  0  0  0  0  0
   -2.1630    4.5813    1.4933 H   0  0  0  0  0  0  0  0  0  0  0  0
   -0.8507    2.7967    0.9089 H   0  0  0  0  0  0  0  0  0  0  0  0
   -2.0865    1.8314    1.8421 H   0  0  0  0  0  0  0  0  0  0  0  0
    5.7538    0.6431    1.3420 H   0  0  0  0  0  0  0  0  0  0  0  0
    5.1597   -1.0725    1.6028 H   0  0  0  0  0  0  0  0  0  0  0  0
    3.6397    1.5573    1.2936 H   0  0  0  0  0  0  0  0  0  0  0  0
    3.5557    0.3665    2.6447 H   0  0  0  0  0  0  0  0  0  0  0  0
    4.6428    0.5466   -0.9478 H   0  0  0  0  0  0  0  0  0  0  0  0
   -2.8231   -0.4448   -1.7244 H   0  0  0  0  0  0  0  0  0  0  0  0
   -3.9368   -2.3461   -1.5117 H   0  0  0  0  0  0  0  0  0  0  0  0
   -2.5980   -3.0778   -2.3889 H   0  0  0  0  0  0  0  0  0  0  0  0
   -1.9954   -4.3868   -0.6622 H   0  0  0  0  0  0  0  0  0  0  0  0
   -1.3861   -3.7636    1.4133 H   0  0  0  0  0  0  0  0  0  0  0  0
   -2.5215   -2.4002    1.5873 H   0  0  0  0  0  0  0  0  0  0  0  0
   -3.7619    4.6298   -0.5439 H   0  0  0  0  0  0  0  0  0  0  0  0
   -0.6573    2.3096   -1.2404 H   0  0  0  0  0  0  0  0  0  0  0  0
   -1.6055    1.0713   -2.0749 H   0  0  0  0  0  0  0  0  0  0  0  0
    0.2107   -0.0103   -1.2765 H   0  0  0  0  0  0  0  0  0  0  0  0
   -2.1905   -0.4733    0.5786 H   0  0  0  0  0  0  0  0  0  0  0  0
   -4.2767    2.4759   -0.6744 H   0  0  0  0  0  0  0  0  0  0  0  0
   -3.0508    2.6805   -2.0339 H   0  0  0  0  0  0  0  0  0  0  0  0
    1.8096    1.8238    0.4325 H   0  0  0  0  0  0  0  0  0  0  0  0
    1.3629    1.3688    2.0585 H   0  0  0  0  0  0  0  0  0  0  0  0
    4.0515   -2.1801    0.1864 H   0  0  0  0  0  0  0  0  0  0  0  0
    3.9742   -1.8414   -1.6295 H   0  0  0  0  0  0  0  0  0  0  0  0
   -0.2312   -2.5635   -0.4260 H   0  0  0  0  0  0  0  0  0  0  0  0
   -0.0831   -1.8027    1.2515 H   0  0  0  0  0  0  0  0  0  0  0  0
    2.1244   -1.0185    1.5929 H   0  0  0  0  0  0  0  0  0  0  0  0
    2.5748    0.0672   -1.2206 H   0  0  0  0  0  0  0  0  0  0  0  0
    1.8603   -1.4986   -0.6688 H   0  0  0  0  0  0  0  0  0  0  0  0
   -3.6942    3.6178    1.5279 H   0  0  0  0  0  0  0  0  0  0  0  0
   -2.1630    4.5813    1.4933 H   0  0  0  0  0  0  0  0  0  0  0  0
   -0.8507    2.7967    0.9089 H   0  0  0  0  0  0  0  0  0  0  0  0
   -2.0865    1.8314    1.8421 H   0  0  0  0  0  0  0  0  0  0  0  0
    5.7538    0.6431    1.3420 H   0  0  0  0  0  0  0  0  0  0  0  0
    5.1597   -1.0725    1.6028 H   0  0  0  0  0  0  0  0  0  0  0  0
    3.6397    1.5573    1.2936 H   0  0  0  0  0  0  0  0  0  0  0  0
    3.5557    0.3665    2.6447 H   0  0  0  0  0  0  0  0  0  0  0  0
    4.6428    0.5466   -0.9478 H   0  0  0  0  0  0  0  0  0  0  0  0
   -2.8231   -0.4448   -1.7244 H   0  0  0  0  0  0  0  0  0  0  0  0
   -3.9368   -2.3461   -1.5117 H   0  0  0  0  0  0  0  0  0  0  0  0
   -2.5980   -3.0778   -2.3889 H   0  0  0  0  0  0  0  0  0  0  0  0
   -1.9954   -4.3868   -0.6622 H   0  0  0  0  0  0  0  0  0  0  0  0
   -1.3861   -3.7636    1.4133 H   0  0  0  0  0  0  0  0  0  0  0  0
   -2.5215   -2.4002    1.5873 H   0  0  0  0  0  0  0  0  0  0  0  0
   -3.7619    4.6298   -0.5439 H   0  0  0  0  0  0  0  0  0  0  0  0
   -0.6573    2.3096   -1.2404 H   0  0  0  0  0  0  0  0  0  0  0  0
   -1.6055    1.0713   -2.0749 H   0  0  0  0  0  0  0  0  0  0  0  0
    0.2107   -0.0103   -1.2765 H   0  0  0  0  0  0  0  0  0  0  0  0
   -2.1905   -0.4733    0.5786 H   0  0  0  0  0  0  0  0  0  0  0  0
   -4.2767    2.4759   -0.6744 H   0  0  0  0  0  0  0  0  0  0  0  0
   -3.0508    2.6805   -2.0339 H   0  0  0  0  0  0  0  0  0  0  0  0
    1.8096    1.8238    0.4325 H   0  0  0  0  0  0  0  0  0  0  0  0
    1.3629    1.3688    2.0585 H   0  0  0  0  0  0  0  0  0  0  0  0
    4.0515   -2.1801    0.1864 H   0  0  0  0  0  0  0  0  0  0  0  0
    3.9742   -1.8414   -1.6295 H   0  0  0  0  0  0  0  0  0  0  0  0
   -0.2312   -2.5635   -0.4260 H   0  0  0  0  0  0  0  0  0  0  0  0
   -0.0831   -1.8027    1.2515 H   0  0  0  0  0  0  0  0  0  0  0  0
  1  2  1  0
  4  5  1  0
  1  7  1  0
  6  7  1  0
  6  8  1  0
  8  9  1  0
  3 10  1  0
 10 11  1  0
 11 12  1  0
 12 13  1  0
 12 14  1  0
  4 15  1  0
 16 17  1  0
 17 18  1  0
 10 19  1  0
 17 19  1  0
  5 20  1  0
 16 20  1  0
 20 21  1  0
 21 15  1  0
  1 22  1  0
 18 22  1  0
  2 23  1  0
  8 23  1  0
 13 24  1  0
 19 24  1  0
 25 26  1  0
 28 29  1  0
 25 31  1  0
 30 31  1  0
 30 32  1  0
 32 33  1  0
 27 34  1  0
 34 35  1  0
 35 36  1  0
 36 37  1  0
 36 38  1  0
 28 39  1  0
 40 41  1  0
 41 42  1  0
 34 43  1  0
 41 43  1  0
 29 44  1  0
 40 44  1  0
 44 45  1  0
 45 39  1  0
 25 46  1  0
 42 46  1  0
 26 47  1  0
 32 47  1  0
 37 48  1  0
 43 48  1  0
  1 49  1  0
  2 50  1  0
  2 51  1  0
  4 52  1  0
  4 53  1  0
  5 54  1  0
  5 55  1  0
  6 56  1  0
  6 57  1  0
  7 58  1  0
  7 59  1  0
  8 60  1  0
 10 61  1  0
 11 62  1  0
 11 63  1  0
 12 64  1  0
 13 65  1  0
 13 66  1  0
 15 67  1  0
 16 68  1  0
 16 69  1  0
 17 70  1  6
 19 71  1  0
 21 72  1  0
 21 73  1  0
 22 74  1  0
 22 75  1  0
 23 76  1  0
 23 77  1  0
 24 78  1  0
 24 79  1  0
 25 80  1  0
 26 81  1  0
 26 82  1  0
 28 83  1  0
 28 84  1  0
 29 85  1  0
 29 86  1  0
 30 87  1  0
 30 88  1  0
 31 89  1  0
 31 90  1  0
 32 91  1  0
 34 92  1  0
 35 93  1  0
 35 94  1  0
 36 95  1  0
 37 96  1  0
 37 97  1  0
 39 98  1  0
 40 99  1  0
 40100  1  0
 41101  1  6
 43102  1  0
 45103  1  0
 45104  1  0
 46105  1  0
 46106  1  0
 47107  1  0
 47108  1  0
 48109  1  0
 48110  1  0
M  END
>  <PDBID>  (1) 
3JUS

>  <PDB ID>  (1) 
3JUS

>  <Generic Name>  (1) 
Econazole

>  <Brand Name>  (1) 
Econazole Nitrate#Econazole Nitrate Cream#Econazole Nitrate Topical Foam, 1%#Ecostatin Cream 1%#Ecostatin Vaginal Ovule 150mg#Ecoza#Ecostatin#Gyno-Pevaryl#Ifenec#Palavale#Pevaryl#Spectazole

>  <DrugBank ID>  (1) 
DB01127

>  <ATC Codes>  (1) 
G01AF05#D01AC03

>  <Ligand ID>  (1) 
ECL,ECN

>  <Target Name>  (1) 
Lanosterol 14-alpha demethylase

>  <UniProt ID>  (1) 
P10613

>  <PDB ID.1>  (1) 
3JUS

>  <Seq. Identity>  (1) 
40%

$$$$
