PDB_DB01197_06
     RDKit          3D

 33 33  0  0  0  0  0  0  0  0999 V2000
    1.8149   -1.5117   -0.2891 O   0  0  0  0  0  0  0  0  0  0  0  0
    0.8960   -0.5166   -0.5991 C   0  0  0  0  0  0  0  0  0  0  0  0
    1.5935    0.8077   -0.6741 C   0  0  1  0  0  0  0  0  0  0  0  0
    2.2723    1.1757    0.6248 C   0  0  0  0  0  0  0  0  0  0  0  0
    3.5229   -0.1040    1.0298 S   0  0  0  0  0  0  0  0  0  0  0  0
    2.6571    0.7306   -1.7424 C   0  0  0  0  0  0  0  0  0  0  0  0
   -0.2786   -0.5416    0.2273 N   0  0  0  0  0  0  0  0  0  0  0  0
   -1.3321    0.2989   -0.2306 C   0  0  2  0  0  0  0  0  0  0  0  0
   -1.8923    1.2427    0.8009 C   0  0  0  0  0  0  0  0  0  0  0  0
   -2.4226    0.6089    1.9119 O   0  0  0  0  0  0  0  0  0  0  0  0
   -0.9749    2.1850    1.2261 O   0  0  0  0  0  0  0  0  0  0  0  0
   -0.7706   -1.8979    0.2676 C   0  0  0  0  0  0  0  0  0  0  0  0
   -2.2921   -1.7880    0.2627 C   0  0  0  0  0  0  0  0  0  0  0  0
   -2.4877   -0.6104   -0.6646 C   0  0  0  0  0  0  0  0  0  0  0  0
    1.4361   -2.0892    0.3910 H   0  0  0  0  0  0  0  0  0  0  0  0
    0.5251   -0.7770   -1.6406 H   0  0  0  0  0  0  0  0  0  0  0  0
    0.8664    1.5924   -0.9535 H   0  0  0  0  0  0  0  0  0  0  0  0
    1.5975    1.2963    1.4766 H   0  0  0  0  0  0  0  0  0  0  0  0
    2.8311    2.1245    0.5016 H   0  0  0  0  0  0  0  0  0  0  0  0
    2.9472   -0.9577    1.9900 H   0  0  0  0  0  0  0  0  0  0  0  0
    3.6605    1.0481   -1.3773 H   0  0  0  0  0  0  0  0  0  0  0  0
    2.7697   -0.3086   -2.0982 H   0  0  0  0  0  0  0  0  0  0  0  0
    2.3592    1.3527   -2.6138 H   0  0  0  0  0  0  0  0  0  0  0  0
   -1.0256    0.9268   -1.1192 H   0  0  0  0  0  0  0  0  0  0  0  0
   -2.7491    1.8171    0.3375 H   0  0  0  0  0  0  0  0  0  0  0  0
   -2.2943    1.1735    2.7248 H   0  0  0  0  0  0  0  0  0  0  0  0
   -1.1533    3.0668    0.8413 H   0  0  0  0  0  0  0  0  0  0  0  0
   -0.4986   -2.4802   -0.6356 H   0  0  0  0  0  0  0  0  0  0  0  0
   -0.4131   -2.4599    1.1556 H   0  0  0  0  0  0  0  0  0  0  0  0
   -2.7338   -2.7118   -0.1649 H   0  0  0  0  0  0  0  0  0  0  0  0
   -2.7048   -1.6363    1.2660 H   0  0  0  0  0  0  0  0  0  0  0  0
   -2.2824   -0.9494   -1.7003 H   0  0  0  0  0  0  0  0  0  0  0  0
   -3.4440   -0.1075   -0.5320 H   0  0  0  0  0  0  0  0  0  0  0  0
  1  2  1  0
  2  3  1  0
  3  4  1  0
  4  5  1  0
  3  6  1  0
  2  7  1  0
  7  8  1  0
  8  9  1  0
  9 10  1  0
  9 11  1  0
  7 12  1  0
 12 13  1  0
  8 14  1  0
 13 14  1  0
  1 15  1  0
  2 16  1  0
  3 17  1  6
  4 18  1  0
  4 19  1  0
  5 20  1  0
  6 21  1  0
  6 22  1  0
  6 23  1  0
  8 24  1  6
  9 25  1  0
 10 26  1  0
 11 27  1  0
 12 28  1  0
 12 29  1  0
 13 30  1  0
 13 31  1  0
 14 32  1  0
 14 33  1  0
M  END
>  <PDBID>  (1) 
4C2P

>  <PDB ID>  (1) 
4C2P

>  <Generic Name>  (1) 
Captopril

>  <Brand Name>  (1) 
Apo-capto Tab 100mg#Apo-capto Tab 12.5mg#Apo-capto Tab 25mg#Apo-capto Tab 50mg#Apo-capto Tab 6.25mg#Bci Captopril Tablets#Capoten Tab 100mg#Capoten Tab 12.5mg#Capoten Tab 25mg#Capoten Tab 50mg#Captopril#Captopril Tablets#Captopril and Hydrochlorothiazide#Captopril-100 Tab 100mg#Captopril-12.5 Tab 12.5mg#Captopril-25 Tab 25mg#Captopril-50 Tab 50mg#Captril#Dom-captopril#Ftp-captopril#Med Captopril - Tab  12.5mg#Med Captopril - Tab 100mg#Med Captopril - Tab 25mg#Med Captopril - Tab 50mg#Mylan-captopril#Novo-captoril#Nu-capto Tab 100mg#Nu-capto Tab 12.5mg#Nu-capto Tab 25mg#Nu-capto Tab 50mg#Orb-captopril#PMS-captopril - Tab  12.5mg#PMS-captopril - Tab  25mg#PMS-captopril - Tab  50mg#PMS-captopril - Tab 100mg#Penta-captopril Tablets#Ratio-captopril Tab 100mg#Ratio-captopril Tab 12.5mg#Ratio-captopril Tab 25mg#Ratio-captopril Tab 50mg#Teva-captopril#Tria-captopril 100mg Tablet#Tria-captopril 12.5mg Tablet#Tria-captopril 25mg Tablet#Tria-captopril 50mg Tablet#Acepress#Acepril#Alopresin#Apopril#Capoten#Captolane#Captoril#Cesplon#Dilabar#Garranil#Hipertil#Hypertil#Lopirin#Lopril#Tenosbon#Tensoprel

>  <DrugBank ID>  (1) 
DB01197

>  <ATC Codes>  (1) 
C09AA01#C09BA01

>  <Ligand ID>  (1) 
X8Z

>  <Target Name>  (1) 
Angiotensin-converting enzyme

>  <UniProt ID>  (1) 
P12821

>  <PDB ID.1>  (1) 
4C2P

>  <Seq. Identity>  (1) 
100%

$$$$
