PDB_DB00323_07
     RDKit          3D

 47 48  0  0  0  0  0  0  0  0999 V2000
   -0.0917   -2.1003   -1.0716 O   0  0  0  0  0  0  0  0  0  0  0  0
    0.2363   -0.8904   -0.3660 C   0  0  1  0  0  0  0  0  0  0  0  0
   -1.0425   -0.4708    0.2575 C   0  0  1  0  0  0  0  0  0  0  0  0
   -1.0667    0.7653    1.0625 C   0  0  0  0  0  0  0  0  0  0  0  0
   -2.4480    0.7857    1.7522 C   0  0  0  0  0  0  0  0  0  0  0  0
   -2.4747   -0.2545    2.6615 O   0  0  0  0  0  0  0  0  0  0  0  0
   -2.0357   -0.3321   -0.8789 C   0  0  0  0  0  0  0  0  0  0  0  0
   -3.2768    0.3829   -0.5931 C   0  0  0  0  0  0  0  0  0  0  0  0
   -3.3407    1.5726   -1.4647 N   0  0  0  0  0  0  0  0  0  0  0  0
   -4.4965    2.2401   -1.1987 O   0  0  0  0  0  0  0  0  0  0  0  0
   -3.3814    1.2174   -2.7618 O   0  0  0  0  0  0  0  0  0  0  0  0
   -3.5777    0.7589    0.8033 C   0  0  0  0  0  0  0  0  0  0  0  0
   -4.5790   -0.0741    1.3610 O   0  0  0  0  0  0  0  0  0  0  0  0
    1.3618   -1.2786    0.5381 C   0  0  0  0  0  0  0  0  0  0  0  0
    2.4670   -1.7924   -0.4134 C   0  0  0  0  0  0  0  0  0  0  0  0
    3.2615   -0.6369   -0.9938 C   0  0  0  0  0  0  0  0  0  0  0  0
    4.1745   -0.0580    0.0785 C   0  0  0  0  0  0  0  0  0  0  0  0
    4.2730    1.4291   -0.1110 C   0  0  0  0  0  0  0  0  0  0  0  0
    3.5068   -0.4036    1.3943 C   0  0  0  0  0  0  0  0  0  0  0  0
    1.9861   -0.1706    1.3131 C   0  0  0  0  0  0  0  0  0  0  0  0
   -0.3610    0.8533    1.8846 H   0  0  0  0  0  0  0  0  0  0  0  0
   -2.9430   -1.0160    2.2741 H   0  0  0  0  0  0  0  0  0  0  0  0
   -1.4602    0.1267   -1.7199 H   0  0  0  0  0  0  0  0  0  0  0  0
   -4.7468   -0.7917    0.7058 H   0  0  0  0  0  0  0  0  0  0  0  0
    2.0154   -2.3288   -1.2723 H   0  0  0  0  0  0  0  0  0  0  0  0
    3.9118   -1.0598   -1.7798 H   0  0  0  0  0  0  0  0  0  0  0  0
    4.2646    1.9656    0.8416 H   0  0  0  0  0  0  0  0  0  0  0  0
    5.2142    1.6158   -0.7009 H   0  0  0  0  0  0  0  0  0  0  0  0
    3.4475    1.7692   -0.7930 H   0  0  0  0  0  0  0  0  0  0  0  0
    3.6876   -1.4149    1.7465 H   0  0  0  0  0  0  0  0  0  0  0  0
    1.6860   -0.1465    2.3818 H   0  0  0  0  0  0  0  0  0  0  0  0
   -0.2151   -2.8033   -0.3846 H   0  0  0  0  0  0  0  0  0  0  0  0
    0.5749   -0.1802   -1.1363 H   0  0  0  0  0  0  0  0  0  0  0  0
   -1.4486   -1.3172    0.8892 H   0  0  0  0  0  0  0  0  0  0  0  0
   -1.0957    1.6980    0.4218 H   0  0  0  0  0  0  0  0  0  0  0  0
   -2.4229    1.7364    2.3615 H   0  0  0  0  0  0  0  0  0  0  0  0
   -2.2324   -1.3894   -1.2275 H   0  0  0  0  0  0  0  0  0  0  0  0
   -4.1505   -0.2393   -0.9586 H   0  0  0  0  0  0  0  0  0  0  0  0
   -4.2761    3.0880   -0.7511 H   0  0  0  0  0  0  0  0  0  0  0  0
   -2.5107    1.2621   -3.2110 H   0  0  0  0  0  0  0  0  0  0  0  0
   -4.0522    1.7823    0.8030 H   0  0  0  0  0  0  0  0  0  0  0  0
    1.0870   -2.1449    1.1673 H   0  0  0  0  0  0  0  0  0  0  0  0
    3.1650   -2.4648    0.0859 H   0  0  0  0  0  0  0  0  0  0  0  0
    2.6216    0.1191   -1.4628 H   0  0  0  0  0  0  0  0  0  0  0  0
    5.1420   -0.5634    0.0034 H   0  0  0  0  0  0  0  0  0  0  0  0
    3.8710    0.3477    2.1359 H   0  0  0  0  0  0  0  0  0  0  0  0
    1.7713    0.8058    0.8798 H   0  0  0  0  0  0  0  0  0  0  0  0
  1  2  1  0
  2  3  1  0
  3  4  1  0
  4  5  1  0
  5  6  1  0
  3  7  1  0
  7  8  1  0
  8  9  1  0
  9 10  1  0
  9 11  1  0
  5 12  1  0
  8 12  1  0
 12 13  1  0
  2 14  1  0
 14 15  1  0
 15 16  1  0
 16 17  1  0
 17 18  1  0
 17 19  1  0
 14 20  1  0
 19 20  1  0
  4 21  1  0
  6 22  1  0
  7 23  1  0
 24 13  1  0
 15 25  1  0
 16 26  1  0
 18 27  1  0
 18 28  1  0
 18 29  1  0
 19 30  1  0
 20 31  1  0
  1 32  1  0
  2 33  1  6
  3 34  1  1
  4 35  1  0
  5 36  1  0
  7 37  1  0
  8 38  1  0
 10 39  1  0
 11 40  1  0
 12 41  1  0
 14 42  1  0
 15 43  1  0
 16 44  1  0
 17 45  1  0
 19 46  1  0
 20 47  1  0
M  END
>  <PDBID>  (1) 
3S68

>  <PDB ID>  (1) 
3S68

>  <Generic Name>  (1) 
Tolcapone

>  <Brand Name>  (1) 
Tasmar#Tolcapone#Sen De Ning

>  <DrugBank ID>  (1) 
DB00323

>  <ATC Codes>  (1) 
N04BX01

>  <Ligand ID>  (1) 
TCW

>  <Target Name>  (1) 
Catechol O-methyltransferase

>  <UniProt ID>  (1) 
P21964

>  <PDB ID.1>  (1) 
3S68

>  <Seq. Identity>  (1) 
81%

$$$$
