PDB_DB00456_05
     RDKit          3D

 56 58  0  0  0  0  0  0  0  0999 V2000
    0.2926   -0.9274   -0.7790 S   0  0  0  0  0  0  0  0  0  0  0  0
   -1.3112   -1.6758   -0.3933 C   0  0  0  0  0  0  0  0  0  0  0  0
   -2.4422   -0.6853   -0.6301 C   0  0  0  0  0  0  0  0  0  0  0  0
   -3.7025   -1.4524   -0.2973 C   0  0  0  0  0  0  0  0  0  0  0  0
   -4.8491   -0.7425   -0.4794 O   0  0  0  0  0  0  0  0  0  0  0  0
   -6.0400   -1.3466   -0.2317 C   0  0  0  0  0  0  0  0  0  0  0  0
   -6.6672   -1.5032   -1.4987 O   0  0  0  0  0  0  0  0  0  0  0  0
   -6.8899   -0.4802    0.6521 C   0  0  0  0  0  0  0  0  0  0  0  0
   -2.3060    0.5548    0.1720 C   0  0  0  0  0  0  0  0  0  0  0  0
   -2.8956    1.7192   -0.6505 C   0  0  0  0  0  0  0  0  0  0  0  0
   -4.1455    1.5261   -1.1231 O   0  0  0  0  0  0  0  0  0  0  0  0
   -2.8784    2.8676    0.1589 O   0  0  0  0  0  0  0  0  0  0  0  0
   -1.0399    0.9895    0.5235 N   0  0  0  0  0  0  0  0  0  0  0  0
    0.0231    0.8608   -0.4305 C   0  0  1  0  0  0  0  0  0  0  0  0
    0.9327    1.2417    0.7158 C   0  0  1  0  0  0  0  0  0  0  0  0
   -0.1847    0.5433    1.5219 C   0  0  0  0  0  0  0  0  0  0  0  0
   -0.3873    1.1622    2.7647 O   0  0  0  0  0  0  0  0  0  0  0  0
    2.1868    0.5610    0.7696 N   0  0  0  0  0  0  0  0  0  0  0  0
    3.0228    0.8573   -0.3491 C   0  0  2  0  0  0  0  0  0  0  0  0
    2.2385    1.2889   -1.4237 O   0  0  0  0  0  0  0  0  0  0  0  0
    3.8691   -0.3168   -0.7263 C   0  0  0  0  0  0  0  0  0  0  0  0
    4.7815   -0.7201    0.4058 C   0  0  0  0  0  0  0  0  0  0  0  0
    5.6640    0.4280    0.7636 C   0  0  0  0  0  0  0  0  0  0  0  0
    7.0097   -0.1095    1.1973 C   0  0  0  0  0  0  0  0  0  0  0  0
    7.5233   -0.8936   -0.0229 C   0  0  0  0  0  0  0  0  0  0  0  0
    6.0080   -1.8843   -0.3442 S   0  0  0  0  0  0  0  0  0  0  0  0
   -1.4696   -2.4860   -1.1448 H   0  0  0  0  0  0  0  0  0  0  0  0
   -1.3803   -2.1370    0.5907 H   0  0  0  0  0  0  0  0  0  0  0  0
   -2.4528   -0.4713   -1.7133 H   0  0  0  0  0  0  0  0  0  0  0  0
   -3.7490   -2.4222   -0.8372 H   0  0  0  0  0  0  0  0  0  0  0  0
   -3.6988   -1.7654    0.7938 H   0  0  0  0  0  0  0  0  0  0  0  0
   -5.8690   -2.3650    0.1583 H   0  0  0  0  0  0  0  0  0  0  0  0
   -7.3261   -2.2111   -1.3808 H   0  0  0  0  0  0  0  0  0  0  0  0
   -6.4102   -0.3819    1.6374 H   0  0  0  0  0  0  0  0  0  0  0  0
   -7.0194    0.5358    0.1718 H   0  0  0  0  0  0  0  0  0  0  0  0
   -7.8969   -0.9826    0.7514 H   0  0  0  0  0  0  0  0  0  0  0  0
   -2.9480    0.4842    1.0681 H   0  0  0  0  0  0  0  0  0  0  0  0
   -2.1940    1.9496   -1.4818 H   0  0  0  0  0  0  0  0  0  0  0  0
   -4.7984    1.9961   -0.5205 H   0  0  0  0  0  0  0  0  0  0  0  0
   -3.7013    2.9811    0.6747 H   0  0  0  0  0  0  0  0  0  0  0  0
   -0.0084    1.4955   -1.2991 H   0  0  0  0  0  0  0  0  0  0  0  0
    0.9482    2.3375    0.8995 H   0  0  0  0  0  0  0  0  0  0  0  0
    0.0092   -0.5190    1.5903 H   0  0  0  0  0  0  0  0  0  0  0  0
   -0.5849    0.4512    3.4339 H   0  0  0  0  0  0  0  0  0  0  0  0
    2.6817    0.8847    1.6428 H   0  0  0  0  0  0  0  0  0  0  0  0
    3.7229    1.7227   -0.1383 H   0  0  0  0  0  0  0  0  0  0  0  0
    2.7312    1.1946   -2.2708 H   0  0  0  0  0  0  0  0  0  0  0  0
    3.2473   -1.2318   -0.9466 H   0  0  0  0  0  0  0  0  0  0  0  0
    4.4774   -0.1380   -1.6385 H   0  0  0  0  0  0  0  0  0  0  0  0
    4.2592   -1.1776    1.2451 H   0  0  0  0  0  0  0  0  0  0  0  0
    5.7779    1.1690   -0.0431 H   0  0  0  0  0  0  0  0  0  0  0  0
    5.2116    0.9160    1.6577 H   0  0  0  0  0  0  0  0  0  0  0  0
    6.8948   -0.7668    2.0595 H   0  0  0  0  0  0  0  0  0  0  0  0
    7.6757    0.7401    1.3618 H   0  0  0  0  0  0  0  0  0  0  0  0
    8.3685   -1.5187    0.2481 H   0  0  0  0  0  0  0  0  0  0  0  0
    7.6887   -0.1467   -0.8134 H   0  0  0  0  0  0  0  0  0  0  0  0
  1  2  1  0
  2  3  1  0
  3  4  1  0
  4  5  1  0
  5  6  1  0
  6  7  1  0
  6  8  1  0
  3  9  1  0
  9 10  1  0
 10 11  1  0
 10 12  1  0
  9 13  1  0
  1 14  1  0
 13 14  1  0
 14 15  1  0
 13 16  1  0
 15 16  1  0
 16 17  1  0
 15 18  1  0
 18 19  1  0
 19 20  1  0
 19 21  1  0
 21 22  1  0
 22 23  1  0
 23 24  1  0
 24 25  1  0
 22 26  1  0
 25 26  1  0
  2 27  1  0
  2 28  1  0
  3 29  1  0
  4 30  1  0
  4 31  1  0
  6 32  1  0
  7 33  1  0
  8 34  1  0
  8 35  1  0
  8 36  1  0
  9 37  1  0
 10 38  1  0
 11 39  1  0
 12 40  1  0
 14 41  1  6
 15 42  1  1
 16 43  1  0
 17 44  1  0
 18 45  1  0
 19 46  1  1
 20 47  1  0
 21 48  1  0
 21 49  1  0
 22 50  1  0
 23 51  1  0
 23 52  1  0
 24 53  1  0
 24 54  1  0
 25 55  1  0
 25 56  1  0
M  END
>  <PDBID>  (1) 
1KVL

>  <PDB ID>  (1) 
1KVL

>  <Generic Name>  (1) 
Cefalotin

>  <Brand Name>  (1) 
Ceporacin#Keflin Add-vantage Inj 1gm/vial#Keflin Neutral Inj 1gm#Keflin Neutral Inj 2gm/vial#Coaxin#Keflin

>  <DrugBank ID>  (1) 
DB00456

>  <ATC Codes>  (1) 
J01DB03

>  <Ligand ID>  (1) 
CLS

>  <Target Name>  (1) 
Beta-lactamase

>  <UniProt ID>  (1) 
P00811

>  <PDB ID.1>  (1) 
1KVL

>  <Seq. Identity>  (1) 
100%

$$$$
