PDB_DB00674_02
     RDKit          3D

100106  0  0  0  0  0  0  0  0999 V2000
   -0.8473    0.9072   -1.4801 C   0  0  0  0  0  0  0  0  0  0  0  0
   -0.1552    2.1813   -1.9187 C   0  0  0  0  0  0  0  0  0  0  0  0
   -0.6832    3.3306   -1.0759 C   0  0  1  0  0  0  0  0  0  0  0  0
   -0.2055    3.0777    0.3365 C   0  0  0  0  0  0  0  0  0  0  0  0
    0.1700    1.6922    0.6288 C   0  0  1  0  0  0  0  0  0  0  0  0
   -0.7492    0.6415   -0.0204 C   0  0  1  0  0  0  0  0  0  0  0  0
    1.4479    1.3045    0.3059 O   0  0  0  0  0  0  0  0  0  0  0  0
    2.5266   -0.8431    0.6032 C   0  0  0  0  0  0  0  0  0  0  0  0
    1.8793   -2.1440    1.0991 C   0  0  0  0  0  0  0  0  0  0  0  0
    0.9992   -2.7437    0.0310 C   0  0  0  0  0  0  0  0  0  0  0  0
   -1.4346   -2.5331    0.0894 C   0  0  0  0  0  0  0  0  0  0  0  0
   -2.5772   -1.6953    0.1688 N   0  0  0  0  0  0  0  0  0  0  0  0
   -2.5573   -0.6683    1.1335 C   0  0  0  0  0  0  0  0  0  0  0  0
   -2.0981    0.6747    0.6426 C   0  0  0  0  0  0  0  0  0  0  0  0
    1.4424   -0.0321   -0.0434 C   0  0  0  0  0  0  0  0  0  0  0  0
    0.0727   -0.5477    0.3645 C   0  0  0  0  0  0  0  0  0  0  0  0
   -0.1718   -1.8136   -0.3189 C   0  0  0  0  0  0  0  0  0  0  0  0
    4.5279   -0.1727    1.3852 C   0  0  0  0  0  0  0  0  0  0  0  0
    3.1615   -0.2007    1.6278 O   0  0  0  0  0  0  0  0  0  0  0  0
   -0.1072    4.4955   -1.6085 O   0  0  0  0  0  0  0  0  0  0  0  0
   -3.3114   -1.4903   -1.0082 C   0  0  0  0  0  0  0  0  0  0  0  0
   -0.8473    0.9072   -1.4801 C   0  0  0  0  0  0  0  0  0  0  0  0
   -0.1552    2.1813   -1.9187 C   0  0  0  0  0  0  0  0  0  0  0  0
   -0.6832    3.3306   -1.0759 C   0  0  1  0  0  0  0  0  0  0  0  0
   -0.2055    3.0777    0.3365 C   0  0  0  0  0  0  0  0  0  0  0  0
    0.1700    1.6922    0.6288 C   0  0  1  0  0  0  0  0  0  0  0  0
   -0.7492    0.6415   -0.0204 C   0  0  1  0  0  0  0  0  0  0  0  0
    1.4479    1.3045    0.3059 O   0  0  0  0  0  0  0  0  0  0  0  0
    2.5266   -0.8431    0.6032 C   0  0  0  0  0  0  0  0  0  0  0  0
    1.8793   -2.1440    1.0991 C   0  0  0  0  0  0  0  0  0  0  0  0
    0.9992   -2.7437    0.0310 C   0  0  0  0  0  0  0  0  0  0  0  0
   -1.4346   -2.5331    0.0894 C   0  0  0  0  0  0  0  0  0  0  0  0
   -2.5772   -1.6953    0.1688 N   0  0  0  0  0  0  0  0  0  0  0  0
   -2.5573   -0.6683    1.1335 C   0  0  0  0  0  0  0  0  0  0  0  0
   -2.0981    0.6747    0.6426 C   0  0  0  0  0  0  0  0  0  0  0  0
    1.4424   -0.0321   -0.0434 C   0  0  0  0  0  0  0  0  0  0  0  0
    0.0727   -0.5477    0.3645 C   0  0  0  0  0  0  0  0  0  0  0  0
   -0.1718   -1.8136   -0.3189 C   0  0  0  0  0  0  0  0  0  0  0  0
    4.5279   -0.1727    1.3852 C   0  0  0  0  0  0  0  0  0  0  0  0
    3.1615   -0.2007    1.6278 O   0  0  0  0  0  0  0  0  0  0  0  0
   -0.1072    4.4955   -1.6085 O   0  0  0  0  0  0  0  0  0  0  0  0
   -3.3114   -1.4903   -1.0082 C   0  0  0  0  0  0  0  0  0  0  0  0
   -1.9370    1.0624   -1.7379 H   0  0  0  0  0  0  0  0  0  0  0  0
   -0.5005    0.1142   -2.1418 H   0  0  0  0  0  0  0  0  0  0  0  0
   -0.4469    2.3862   -2.9643 H   0  0  0  0  0  0  0  0  0  0  0  0
    0.9272    2.1571   -1.8074 H   0  0  0  0  0  0  0  0  0  0  0  0
   -1.7756    3.3779   -1.1054 H   0  0  0  0  0  0  0  0  0  0  0  0
    0.6748    3.7363    0.4919 H   0  0  0  0  0  0  0  0  0  0  0  0
   -0.9701    3.4301    1.0885 H   0  0  0  0  0  0  0  0  0  0  0  0
    0.0462    1.5117    1.7367 H   0  0  0  0  0  0  0  0  0  0  0  0
    3.2789   -1.1669   -0.1434 H   0  0  0  0  0  0  0  0  0  0  0  0
    2.7187   -2.8491    1.2470 H   0  0  0  0  0  0  0  0  0  0  0  0
    1.3880   -2.0191    2.0673 H   0  0  0  0  0  0  0  0  0  0  0  0
    0.6462   -3.7183    0.4155 H   0  0  0  0  0  0  0  0  0  0  0  0
    1.6361   -2.9538   -0.8381 H   0  0  0  0  0  0  0  0  0  0  0  0
   -1.6277   -3.3175   -0.6724 H   0  0  0  0  0  0  0  0  0  0  0  0
   -1.3206   -3.0757    1.0562 H   0  0  0  0  0  0  0  0  0  0  0  0
   -3.5962   -0.5255    1.5234 H   0  0  0  0  0  0  0  0  0  0  0  0
   -1.9523   -0.9838    1.9985 H   0  0  0  0  0  0  0  0  0  0  0  0
   -2.8589    1.1173   -0.0440 H   0  0  0  0  0  0  0  0  0  0  0  0
   -2.0533    1.3492    1.5187 H   0  0  0  0  0  0  0  0  0  0  0  0
    1.5110   -0.1858   -1.1455 H   0  0  0  0  0  0  0  0  0  0  0  0
   -0.0108   -0.6662    1.4615 H   0  0  0  0  0  0  0  0  0  0  0  0
   -0.1790   -1.7551   -1.4154 H   0  0  0  0  0  0  0  0  0  0  0  0
    4.7721    0.3656    0.4284 H   0  0  0  0  0  0  0  0  0  0  0  0
    4.9592   -1.1894    1.2734 H   0  0  0  0  0  0  0  0  0  0  0  0
    5.1022    0.3477    2.1791 H   0  0  0  0  0  0  0  0  0  0  0  0
    0.8583    4.4557   -1.3818 H   0  0  0  0  0  0  0  0  0  0  0  0
   -2.6686   -1.3555   -1.9217 H   0  0  0  0  0  0  0  0  0  0  0  0
   -3.9252   -2.4058   -1.2333 H   0  0  0  0  0  0  0  0  0  0  0  0
   -4.0258   -0.6648   -0.8757 H   0  0  0  0  0  0  0  0  0  0  0  0
   -1.9370    1.0624   -1.7379 H   0  0  0  0  0  0  0  0  0  0  0  0
   -0.5005    0.1142   -2.1418 H   0  0  0  0  0  0  0  0  0  0  0  0
   -0.4469    2.3862   -2.9643 H   0  0  0  0  0  0  0  0  0  0  0  0
    0.9272    2.1571   -1.8074 H   0  0  0  0  0  0  0  0  0  0  0  0
   -1.7756    3.3779   -1.1054 H   0  0  0  0  0  0  0  0  0  0  0  0
    0.6748    3.7363    0.4919 H   0  0  0  0  0  0  0  0  0  0  0  0
   -0.9701    3.4301    1.0885 H   0  0  0  0  0  0  0  0  0  0  0  0
    0.0462    1.5117    1.7367 H   0  0  0  0  0  0  0  0  0  0  0  0
    3.2789   -1.1669   -0.1434 H   0  0  0  0  0  0  0  0  0  0  0  0
    2.7187   -2.8491    1.2470 H   0  0  0  0  0  0  0  0  0  0  0  0
    1.3880   -2.0191    2.0673 H   0  0  0  0  0  0  0  0  0  0  0  0
    0.6462   -3.7183    0.4155 H   0  0  0  0  0  0  0  0  0  0  0  0
    1.6361   -2.9538   -0.8381 H   0  0  0  0  0  0  0  0  0  0  0  0
   -1.6277   -3.3175   -0.6724 H   0  0  0  0  0  0  0  0  0  0  0  0
   -1.3206   -3.0757    1.0562 H   0  0  0  0  0  0  0  0  0  0  0  0
   -3.5962   -0.5255    1.5234 H   0  0  0  0  0  0  0  0  0  0  0  0
   -1.9523   -0.9838    1.9985 H   0  0  0  0  0  0  0  0  0  0  0  0
   -2.8589    1.1173   -0.0440 H   0  0  0  0  0  0  0  0  0  0  0  0
   -2.0533    1.3492    1.5187 H   0  0  0  0  0  0  0  0  0  0  0  0
    1.5110   -0.1858   -1.1455 H   0  0  0  0  0  0  0  0  0  0  0  0
   -0.0108   -0.6662    1.4615 H   0  0  0  0  0  0  0  0  0  0  0  0
   -0.1790   -1.7551   -1.4154 H   0  0  0  0  0  0  0  0  0  0  0  0
    4.7721    0.3656    0.4284 H   0  0  0  0  0  0  0  0  0  0  0  0
    4.9592   -1.1894    1.2734 H   0  0  0  0  0  0  0  0  0  0  0  0
    5.1022    0.3477    2.1791 H   0  0  0  0  0  0  0  0  0  0  0  0
    0.8583    4.4557   -1.3818 H   0  0  0  0  0  0  0  0  0  0  0  0
   -2.6686   -1.3555   -1.9217 H   0  0  0  0  0  0  0  0  0  0  0  0
   -3.9252   -2.4058   -1.2333 H   0  0  0  0  0  0  0  0  0  0  0  0
   -4.0258   -0.6648   -0.8757 H   0  0  0  0  0  0  0  0  0  0  0  0
  1  2  1  0
  2  3  1  0
  3  4  1  0
  4  5  1  0
  6  1  1  6
  5  6  1  0
  5  7  1  0
  8  9  1  0
  9 10  1  0
 11 12  1  0
 12 13  1  0
  6 14  1  0
 13 14  1  0
  7 15  1  0
  8 15  1  0
  6 16  1  0
 15 16  1  0
 10 17  1  0
 11 17  1  0
 16 17  1  0
  8 19  1  0
 18 19  1  0
  3 20  1  0
 12 21  1  0
 22 23  1  0
 23 24  1  0
 24 25  1  0
 25 26  1  0
 27 22  1  6
 26 27  1  0
 26 28  1  0
 29 30  1  0
 30 31  1  0
 32 33  1  0
 33 34  1  0
 27 35  1  0
 34 35  1  0
 28 36  1  0
 29 36  1  0
 27 37  1  0
 36 37  1  0
 31 38  1  0
 32 38  1  0
 37 38  1  0
 29 40  1  0
 39 40  1  0
 24 41  1  0
 33 42  1  0
  1 43  1  0
  1 44  1  0
  2 45  1  0
  2 46  1  0
  3 47  1  1
  4 48  1  0
  4 49  1  0
  5 50  1  1
  8 51  1  0
  9 52  1  0
  9 53  1  0
 10 54  1  0
 10 55  1  0
 11 56  1  0
 11 57  1  0
 13 58  1  0
 13 59  1  0
 14 60  1  0
 14 61  1  0
 15 62  1  0
 16 63  1  0
 17 64  1  0
 18 65  1  0
 18 66  1  0
 18 67  1  0
 20 68  1  0
 21 69  1  0
 21 70  1  0
 21 71  1  0
 22 72  1  0
 22 73  1  0
 23 74  1  0
 23 75  1  0
 24 76  1  1
 25 77  1  0
 25 78  1  0
 26 79  1  1
 29 80  1  0
 30 81  1  0
 30 82  1  0
 31 83  1  0
 31 84  1  0
 32 85  1  0
 32 86  1  0
 34 87  1  0
 34 88  1  0
 35 89  1  0
 35 90  1  0
 36 91  1  0
 37 92  1  0
 38 93  1  0
 39 94  1  0
 39 95  1  0
 39 96  1  0
 41 97  1  0
 42 98  1  0
 42 99  1  0
 42100  1  0
M  END
>  <PDBID>  (1) 
4EY6

>  <PDB ID>  (1) 
4EY6

>  <Generic Name>  (1) 
Galantamine

>  <Brand Name>  (1) 
Apo-galantamine#Auro-galantamine ER#Galantamine#Galantamine ER#Galantamine Hydrobromide#Ipg-galantamine ER#Mar-galantamine ER#Mylan-galantamine ER#PMS-galantamine#PMS-galantamine ER#Pat-galantamine ER#Pendo-galantamine ER#Ratio-galantamine#Razadyne#Reminyl   -(12mg)#Reminyl   -(4mg)#Reminyl   -(8mg)#Reminyl ER#Sandoz Galantamine ER#Teva-galantamine ER#Lycoremine#Nivalin#Reminyl

>  <DrugBank ID>  (1) 
DB00674

>  <ATC Codes>  (1) 
N06DA04

>  <Ligand ID>  (1) 
GNT

>  <Target Name>  (1) 
Acetylcholinesterase

>  <UniProt ID>  (1) 
P22303

>  <PDB ID.1>  (1) 
4EY6

>  <Seq. Identity>  (1) 
97%

$$$$
