PDB_DB01764_00
     RDKit          3D

354360  0  0  0  0  0  0  0  0999 V2000
    0.2322   -1.5263   -3.2307 O   0  0  0  0  0  0  0  0  0  0  0  0
   -0.1134   -0.8643   -2.0305 C   0  0  0  0  0  0  0  0  0  0  0  0
    0.8731   -1.1207   -1.0394 N   0  0  0  0  0  0  0  0  0  0  0  0
    1.5643   -2.3525   -1.3688 C   0  0  0  0  0  0  0  0  0  0  0  0
    2.9154   -2.2822   -0.6662 C   0  0  0  0  0  0  0  0  0  0  0  0
    2.8816   -0.9044   -0.0205 C   0  0  1  0  0  0  0  0  0  0  0  0
    4.3457   -0.2196    0.3396 S   0  0  0  0  0  0  0  0  0  0  0  0
    4.5473    1.0226    1.0083 O   0  0  0  0  0  0  0  0  0  0  0  0
    4.6819   -1.5079    1.7953 O   0  0  0  0  0  0  0  0  0  0  0  0
    5.6376   -0.7896   -0.6011 C   0  0  0  0  0  0  0  0  0  0  0  0
    6.9208   -0.1045   -0.1984 C   0  0  0  0  0  0  0  0  0  0  0  0
    7.3178   -0.3599    1.1737 N   0  0  0  0  0  0  0  0  0  0  0  0
    8.4587    0.5337    1.4639 C   0  0  0  0  0  0  0  0  0  0  0  0
    8.9736    0.3704    2.8541 C   0  0  0  0  0  0  0  0  0  0  0  0
    7.7892   -1.7440    1.3261 C   0  0  0  0  0  0  0  0  0  0  0  0
    9.0962   -2.0014    0.6448 C   0  0  0  0  0  0  0  0  0  0  0  0
    1.9553   -0.1769   -0.9609 C   0  0  2  0  0  0  0  0  0  0  0  0
   -1.4222   -1.4742   -1.5089 C   0  0  2  0  0  0  0  0  0  0  0  0
   -1.4113   -1.3312    0.0177 C   0  0  0  0  0  0  0  0  0  0  0  0
   -2.1586   -2.4247    0.4470 O   0  0  0  0  0  0  0  0  0  0  0  0
   -1.4437   -2.9052   -1.6613 N   0  0  0  0  0  0  0  0  0  0  0  0
   -1.8444   -3.4746   -0.4071 C   0  0  0  0  0  0  0  0  0  0  0  0
   -2.9845   -4.4164   -0.6302 C   0  0  0  0  0  0  0  0  0  0  0  0
   -3.9682   -4.4450    0.4970 C   0  0  1  0  0  0  0  0  0  0  0  0
   -3.7900   -3.4489    1.4365 O   0  0  0  0  0  0  0  0  0  0  0  0
   -5.3642   -4.4724   -0.0747 C   0  0  0  0  0  0  0  0  0  0  0  0
   -5.9055   -3.1235   -0.4161 C   0  0  2  0  0  0  0  0  0  0  0  0
   -4.9583   -2.2183   -0.8520 O   0  0  0  0  0  0  0  0  0  0  0  0
   -6.5748   -2.5512    0.8162 C   0  0  0  0  0  0  0  0  0  0  0  0
   -6.1681   -1.0983    1.0347 C   0  0  2  0  0  0  0  0  0  0  0  0
   -6.5202   -0.7524    2.4611 C   0  0  0  0  0  0  0  0  0  0  0  0
   -6.8979   -0.2617    0.0366 C   0  0  0  0  0  0  0  0  0  0  0  0
   -6.8744    1.2160    0.3437 C   0  0  0  0  0  0  0  0  0  0  0  0
   -5.6937    1.6496    1.1446 C   0  0  0  0  0  0  0  0  0  0  0  0
   -5.2518    2.9483    0.6160 N   0  0  0  0  0  0  0  0  0  0  0  0
   -3.8292    3.1044    0.7976 C   0  0  2  0  0  0  0  0  0  0  0  0
   -3.5589    4.2207    1.5753 O   0  0  0  0  0  0  0  0  0  0  0  0
   -3.1714    3.1749   -0.5700 C   0  0  0  0  0  0  0  0  0  0  0  0
   -1.7603    2.6759   -0.4207 C   0  0  0  0  0  0  0  0  0  0  0  0
   -0.7708    3.6065   -1.1418 C   0  0  1  0  0  0  0  0  0  0  0  0
   -0.6852    4.8292   -0.3040 C   0  0  0  0  0  0  0  0  0  0  0  0
    0.4988    2.8807   -1.4103 C   0  0  1  0  0  0  0  0  0  0  0  0
    1.7489    3.6918   -1.3724 C   0  0  0  0  0  0  0  0  0  0  0  0
    1.6512    4.7897   -2.4240 C   0  0  0  0  0  0  0  0  0  0  0  0
    2.2071    4.1582   -0.0484 C   0  0  0  0  0  0  0  0  0  0  0  0
    0.5002    1.7092   -0.7462 O   0  0  0  0  0  0  0  0  0  0  0  0
    1.5723    1.1176   -0.2475 C   0  0  0  0  0  0  0  0  0  0  0  0
    1.3357    0.7340    1.0787 O   0  0  0  0  0  0  0  0  0  0  0  0
    0.2322   -1.5263   -3.2307 O   0  0  0  0  0  0  0  0  0  0  0  0
   -0.1134   -0.8643   -2.0305 C   0  0  0  0  0  0  0  0  0  0  0  0
    0.8731   -1.1207   -1.0394 N   0  0  0  0  0  0  0  0  0  0  0  0
    1.5643   -2.3525   -1.3688 C   0  0  0  0  0  0  0  0  0  0  0  0
    2.9154   -2.2822   -0.6662 C   0  0  0  0  0  0  0  0  0  0  0  0
    2.8816   -0.9044   -0.0205 C   0  0  1  0  0  0  0  0  0  0  0  0
    4.3457   -0.2196    0.3396 S   0  0  0  0  0  0  0  0  0  0  0  0
    4.5473    1.0226    1.0083 O   0  0  0  0  0  0  0  0  0  0  0  0
    4.6819   -1.5079    1.7953 O   0  0  0  0  0  0  0  0  0  0  0  0
    5.6376   -0.7896   -0.6011 C   0  0  0  0  0  0  0  0  0  0  0  0
    6.9208   -0.1045   -0.1984 C   0  0  0  0  0  0  0  0  0  0  0  0
    7.3178   -0.3599    1.1737 N   0  0  0  0  0  0  0  0  0  0  0  0
    8.4587    0.5337    1.4639 C   0  0  0  0  0  0  0  0  0  0  0  0
    8.9736    0.3704    2.8541 C   0  0  0  0  0  0  0  0  0  0  0  0
    7.7892   -1.7440    1.3261 C   0  0  0  0  0  0  0  0  0  0  0  0
    9.0962   -2.0014    0.6448 C   0  0  0  0  0  0  0  0  0  0  0  0
    1.9553   -0.1769   -0.9609 C   0  0  2  0  0  0  0  0  0  0  0  0
   -1.4222   -1.4742   -1.5089 C   0  0  2  0  0  0  0  0  0  0  0  0
   -1.4113   -1.3312    0.0177 C   0  0  0  0  0  0  0  0  0  0  0  0
   -2.1586   -2.4247    0.4470 O   0  0  0  0  0  0  0  0  0  0  0  0
   -1.4437   -2.9052   -1.6613 N   0  0  0  0  0  0  0  0  0  0  0  0
   -1.8444   -3.4746   -0.4071 C   0  0  0  0  0  0  0  0  0  0  0  0
   -2.9845   -4.4164   -0.6302 C   0  0  0  0  0  0  0  0  0  0  0  0
   -3.9682   -4.4450    0.4970 C   0  0  1  0  0  0  0  0  0  0  0  0
   -3.7900   -3.4489    1.4365 O   0  0  0  0  0  0  0  0  0  0  0  0
   -5.3642   -4.4724   -0.0747 C   0  0  0  0  0  0  0  0  0  0  0  0
   -5.9055   -3.1235   -0.4161 C   0  0  2  0  0  0  0  0  0  0  0  0
   -4.9583   -2.2183   -0.8520 O   0  0  0  0  0  0  0  0  0  0  0  0
   -6.5748   -2.5512    0.8162 C   0  0  0  0  0  0  0  0  0  0  0  0
   -6.1681   -1.0983    1.0347 C   0  0  2  0  0  0  0  0  0  0  0  0
   -6.5202   -0.7524    2.4611 C   0  0  0  0  0  0  0  0  0  0  0  0
   -6.8979   -0.2617    0.0366 C   0  0  0  0  0  0  0  0  0  0  0  0
   -6.8744    1.2160    0.3437 C   0  0  0  0  0  0  0  0  0  0  0  0
   -5.6937    1.6496    1.1446 C   0  0  0  0  0  0  0  0  0  0  0  0
   -5.2518    2.9483    0.6160 N   0  0  0  0  0  0  0  0  0  0  0  0
   -3.8292    3.1044    0.7976 C   0  0  2  0  0  0  0  0  0  0  0  0
   -3.5589    4.2207    1.5753 O   0  0  0  0  0  0  0  0  0  0  0  0
   -3.1714    3.1749   -0.5700 C   0  0  0  0  0  0  0  0  0  0  0  0
   -1.7603    2.6759   -0.4207 C   0  0  0  0  0  0  0  0  0  0  0  0
   -0.7708    3.6065   -1.1418 C   0  0  1  0  0  0  0  0  0  0  0  0
   -0.6852    4.8292   -0.3040 C   0  0  0  0  0  0  0  0  0  0  0  0
    0.4988    2.8807   -1.4103 C   0  0  1  0  0  0  0  0  0  0  0  0
    1.7489    3.6918   -1.3724 C   0  0  0  0  0  0  0  0  0  0  0  0
    1.6512    4.7897   -2.4240 C   0  0  0  0  0  0  0  0  0  0  0  0
    2.2071    4.1582   -0.0484 C   0  0  0  0  0  0  0  0  0  0  0  0
    0.5002    1.7092   -0.7462 O   0  0  0  0  0  0  0  0  0  0  0  0
    1.5723    1.1176   -0.2475 C   0  0  0  0  0  0  0  0  0  0  0  0
    1.3357    0.7340    1.0787 O   0  0  0  0  0  0  0  0  0  0  0  0
    0.7933   -3.1960   -1.7809 O   0  0  0  0  0  0  0  0  0  0  0  0
    0.6503   -1.9582   -1.1043 C   0  0  1  0  0  0  0  0  0  0  0  0
    1.5462   -1.0291   -1.6848 N   0  0  0  0  0  0  0  0  0  0  0  0
    2.6994   -1.8177   -2.1747 C   0  0  0  0  0  0  0  0  0  0  0  0
    3.3060   -2.2129   -0.8178 C   0  0  0  0  0  0  0  0  0  0  0  0
    2.9822   -1.0827    0.1180 C   0  0  1  0  0  0  0  0  0  0  0  0
    4.3890   -0.3401    0.8078 S   0  0  0  0  0  0  0  0  0  0  0  0
    4.0670    0.9502    1.6261 O   0  0  0  0  0  0  0  0  0  0  0  0
    4.8730   -1.4980    1.9449 O   0  0  0  0  0  0  0  0  0  0  0  0
    5.5885   -0.1069   -0.3133 C   0  0  0  0  0  0  0  0  0  0  0  0
    6.7975    0.5442    0.3179 C   0  0  0  0  0  0  0  0  0  0  0  0
    7.3621   -0.2588    1.3823 N   0  0  0  0  0  0  0  0  0  0  0  0
    8.4703    0.5357    1.9301 C   0  0  0  0  0  0  0  0  0  0  0  0
    9.1683   -0.1399    3.0645 C   0  0  0  0  0  0  0  0  0  0  0  0
    7.8547   -1.5315    0.8909 C   0  0  0  0  0  0  0  0  0  0  0  0
    9.0694   -1.3803    0.0007 C   0  0  0  0  0  0  0  0  0  0  0  0
    2.2445   -0.1315   -0.8438 C   0  0  2  0  0  0  0  0  0  0  0  0
   -0.8268   -1.5905   -1.2600 C   0  0  2  0  0  0  0  0  0  0  0  0
   -1.5341   -1.5743    0.0778 C   0  0  0  0  0  0  0  0  0  0  0  0
   -2.8319   -1.8802   -0.2127 O   0  0  0  0  0  0  0  0  0  0  0  0
   -1.5764   -2.6136   -1.9617 N   0  0  0  0  0  0  0  0  0  0  0  0
   -2.9059   -2.5228   -1.4135 C   0  0  1  0  0  0  0  0  0  0  0  0
   -3.5949   -3.8543   -1.3621 C   0  0  0  0  0  0  0  0  0  0  0  0
   -4.2941   -4.1527   -0.0793 C   0  0  1  0  0  0  0  0  0  0  0  0
   -4.0007   -3.2802    0.9511 O   0  0  0  0  0  0  0  0  0  0  0  0
   -5.7864   -4.3221   -0.2169 C   0  0  0  0  0  0  0  0  0  0  0  0
   -6.5582   -3.0503   -0.2435 C   0  0  2  0  0  0  0  0  0  0  0  0
   -6.0090   -2.0845   -1.0771 O   0  0  0  0  0  0  0  0  0  0  0  0
   -6.8535   -2.4710    1.1177 C   0  0  0  0  0  0  0  0  0  0  0  0
   -6.3457   -1.0341    1.1782 C   0  0  2  0  0  0  0  0  0  0  0  0
   -6.0598   -0.7210    2.6085 C   0  0  0  0  0  0  0  0  0  0  0  0
   -7.4018   -0.1376    0.5949 C   0  0  0  0  0  0  0  0  0  0  0  0
   -7.1410    1.3135    0.7633 C   0  0  0  0  0  0  0  0  0  0  0  0
   -5.7366    1.6975    1.0378 C   0  0  0  0  0  0  0  0  0  0  0  0
   -5.3229    2.8987    0.2935 N   0  0  0  0  0  0  0  0  0  0  0  0
   -3.8730    3.0208    0.5222 C   0  0  2  0  0  0  0  0  0  0  0  0
   -3.6954    4.1355    1.3042 O   0  0  0  0  0  0  0  0  0  0  0  0
   -3.1685    3.1050   -0.8259 C   0  0  0  0  0  0  0  0  0  0  0  0
   -1.8196    2.4724   -0.8039 C   0  0  0  0  0  0  0  0  0  0  0  0
   -0.7029    3.4324   -1.2515 C   0  0  1  0  0  0  0  0  0  0  0  0
   -0.6498    4.5133   -0.2389 C   0  0  0  0  0  0  0  0  0  0  0  0
    0.5604    2.6188   -1.4203 C   0  0  1  0  0  0  0  0  0  0  0  0
    1.8194    3.3850   -1.4752 C   0  0  0  0  0  0  0  0  0  0  0  0
    1.7871    4.3542   -2.6478 C   0  0  0  0  0  0  0  0  0  0  0  0
    2.2986    4.0781   -0.2582 C   0  0  0  0  0  0  0  0  0  0  0  0
    0.4798    1.5447   -0.6158 O   0  0  0  0  0  0  0  0  0  0  0  0
    1.5114    0.9046   -0.1142 C   0  0  0  0  0  0  0  0  0  0  0  0
    1.1176    0.3354    1.1292 O   0  0  0  0  0  0  0  0  0  0  0  0
    0.7776   -0.9140   -3.8204 H   0  0  0  0  0  0  0  0  0  0  0  0
   -0.2939    0.1723   -2.3020 H   0  0  0  0  0  0  0  0  0  0  0  0
    1.7908   -2.3856   -2.4693 H   0  0  0  0  0  0  0  0  0  0  0  0
    1.0047   -3.2590   -1.0757 H   0  0  0  0  0  0  0  0  0  0  0  0
    3.7508   -2.4181   -1.3542 H   0  0  0  0  0  0  0  0  0  0  0  0
    2.9579   -3.0847    0.0984 H   0  0  0  0  0  0  0  0  0  0  0  0
    2.2752   -1.0792    0.9219 H   0  0  0  0  0  0  0  0  0  0  0  0
    4.0721    1.5887    1.6346 H   0  0  0  0  0  0  0  0  0  0  0  0
    3.9097   -1.1645    2.3374 H   0  0  0  0  0  0  0  0  0  0  0  0
    5.8100   -1.8640   -0.6318 H   0  0  0  0  0  0  0  0  0  0  0  0
    5.4598   -0.4804   -1.6587 H   0  0  0  0  0  0  0  0  0  0  0  0
    6.7330    0.9980   -0.2732 H   0  0  0  0  0  0  0  0  0  0  0  0
    7.7461   -0.3076   -0.9023 H   0  0  0  0  0  0  0  0  0  0  0  0
    9.2559    0.4542    0.7173 H   0  0  0  0  0  0  0  0  0  0  0  0
    8.0299    1.5601    1.3846 H   0  0  0  0  0  0  0  0  0  0  0  0
    8.9315    1.3296    3.4517 H   0  0  0  0  0  0  0  0  0  0  0  0
   10.0453    0.0645    2.8905 H   0  0  0  0  0  0  0  0  0  0  0  0
    8.3372   -0.3466    3.4190 H   0  0  0  0  0  0  0  0  0  0  0  0
    7.8593   -2.0319    2.3872 H   0  0  0  0  0  0  0  0  0  0  0  0
    7.0229   -2.3930    0.8654 H   0  0  0  0  0  0  0  0  0  0  0  0
    9.9213   -2.0342    1.3944 H   0  0  0  0  0  0  0  0  0  0  0  0
    9.0623   -3.0479    0.2182 H   0  0  0  0  0  0  0  0  0  0  0  0
    9.3099   -1.3485   -0.2011 H   0  0  0  0  0  0  0  0  0  0  0  0
    2.4233    0.0283   -1.9432 H   0  0  0  0  0  0  0  0  0  0  0  0
   -2.3043   -0.9595   -1.8922 H   0  0  0  0  0  0  0  0  0  0  0  0
   -1.9132   -0.4113    0.3518 H   0  0  0  0  0  0  0  0  0  0  0  0
   -0.3937   -1.3648    0.4289 H   0  0  0  0  0  0  0  0  0  0  0  0
   -2.0750   -3.2016   -2.4480 H   0  0  0  0  0  0  0  0  0  0  0  0
   -0.9735   -4.0054    0.0585 H   0  0  0  0  0  0  0  0  0  0  0  0
   -3.4957   -4.1448   -1.5942 H   0  0  0  0  0  0  0  0  0  0  0  0
   -2.5529   -5.4286   -0.8202 H   0  0  0  0  0  0  0  0  0  0  0  0
   -3.8350   -5.4227    1.0453 H   0  0  0  0  0  0  0  0  0  0  0  0
   -3.6416   -3.7958    2.3564 H   0  0  0  0  0  0  0  0  0  0  0  0
   -5.3285   -5.0809   -1.0025 H   0  0  0  0  0  0  0  0  0  0  0  0
   -6.0845   -4.9747    0.5989 H   0  0  0  0  0  0  0  0  0  0  0  0
   -6.6416   -3.2537   -1.2588 H   0  0  0  0  0  0  0  0  0  0  0  0
   -4.8690   -2.1615   -1.8310 H   0  0  0  0  0  0  0  0  0  0  0  0
   -6.3765   -3.1471    1.7206 H   0  0  0  0  0  0  0  0  0  0  0  0
   -7.6822   -2.5136    0.5983 H   0  0  0  0  0  0  0  0  0  0  0  0
   -5.0533   -1.0701    0.8685 H   0  0  0  0  0  0  0  0  0  0  0  0
   -7.3745   -0.0652    2.5346 H   0  0  0  0  0  0  0  0  0  0  0  0
   -5.6041   -0.3798    2.9811 H   0  0  0  0  0  0  0  0  0  0  0  0
   -6.8209   -1.6651    3.0530 H   0  0  0  0  0  0  0  0  0  0  0  0
   -7.9733   -0.5778    0.0548 H   0  0  0  0  0  0  0  0  0  0  0  0
   -6.5291   -0.4942   -0.9705 H   0  0  0  0  0  0  0  0  0  0  0  0
   -6.8841    1.7317   -0.6597 H   0  0  0  0  0  0  0  0  0  0  0  0
   -7.8127    1.5565    0.8451 H   0  0  0  0  0  0  0  0  0  0  0  0
   -5.9816    1.8606    2.2065 H   0  0  0  0  0  0  0  0  0  0  0  0
   -4.8192    0.9782    1.0709 H   0  0  0  0  0  0  0  0  0  0  0  0
   -5.5422    3.0522   -0.3843 H   0  0  0  0  0  0  0  0  0  0  0  0
   -3.4244    2.1948    1.2868 H   0  0  0  0  0  0  0  0  0  0  0  0
   -2.9905    3.9819    2.3485 H   0  0  0  0  0  0  0  0  0  0  0  0
   -3.7542    2.4553   -1.2175 H   0  0  0  0  0  0  0  0  0  0  0  0
   -3.2659    4.1478   -1.0497 H   0  0  0  0  0  0  0  0  0  0  0  0
   -1.4420    2.6975    0.6446 H   0  0  0  0  0  0  0  0  0  0  0  0
   -1.6359    1.6775   -0.8836 H   0  0  0  0  0  0  0  0  0  0  0  0
   -1.3347    3.8973   -2.0804 H   0  0  0  0  0  0  0  0  0  0  0  0
   -0.1049    5.6535   -0.7378 H   0  0  0  0  0  0  0  0  0  0  0  0
   -0.4505    4.6319    0.7745 H   0  0  0  0  0  0  0  0  0  0  0  0
   -1.7417    5.2396   -0.2509 H   0  0  0  0  0  0  0  0  0  0  0  0
    0.4384    2.5777   -2.5082 H   0  0  0  0  0  0  0  0  0  0  0  0
    2.5552    2.9975   -1.7700 H   0  0  0  0  0  0  0  0  0  0  0  0
    1.9377    5.7848   -1.9997 H   0  0  0  0  0  0  0  0  0  0  0  0
    2.3323    4.6348   -3.2856 H   0  0  0  0  0  0  0  0  0  0  0  0
    0.6214    4.8356   -2.8737 H   0  0  0  0  0  0  0  0  0  0  0  0
    2.1011    5.2729    0.1132 H   0  0  0  0  0  0  0  0  0  0  0  0
    3.3190    3.9935    0.0928 H   0  0  0  0  0  0  0  0  0  0  0  0
    1.7454    3.6925    0.8329 H   0  0  0  0  0  0  0  0  0  0  0  0
    2.5204    1.6878   -0.2139 H   0  0  0  0  0  0  0  0  0  0  0  0
    0.3595    0.7670    1.2212 H   0  0  0  0  0  0  0  0  0  0  0  0
    0.7776   -0.9140   -3.8204 H   0  0  0  0  0  0  0  0  0  0  0  0
   -0.2939    0.1723   -2.3020 H   0  0  0  0  0  0  0  0  0  0  0  0
    1.7908   -2.3856   -2.4693 H   0  0  0  0  0  0  0  0  0  0  0  0
    1.0047   -3.2590   -1.0757 H   0  0  0  0  0  0  0  0  0  0  0  0
    3.7508   -2.4181   -1.3542 H   0  0  0  0  0  0  0  0  0  0  0  0
    2.9579   -3.0847    0.0984 H   0  0  0  0  0  0  0  0  0  0  0  0
    2.2752   -1.0792    0.9219 H   0  0  0  0  0  0  0  0  0  0  0  0
    4.0721    1.5887    1.6346 H   0  0  0  0  0  0  0  0  0  0  0  0
    3.9097   -1.1645    2.3374 H   0  0  0  0  0  0  0  0  0  0  0  0
    5.8100   -1.8640   -0.6318 H   0  0  0  0  0  0  0  0  0  0  0  0
    5.4598   -0.4804   -1.6587 H   0  0  0  0  0  0  0  0  0  0  0  0
    6.7330    0.9980   -0.2732 H   0  0  0  0  0  0  0  0  0  0  0  0
    7.7461   -0.3076   -0.9023 H   0  0  0  0  0  0  0  0  0  0  0  0
    9.2559    0.4542    0.7173 H   0  0  0  0  0  0  0  0  0  0  0  0
    8.0299    1.5601    1.3846 H   0  0  0  0  0  0  0  0  0  0  0  0
    8.9315    1.3296    3.4517 H   0  0  0  0  0  0  0  0  0  0  0  0
   10.0453    0.0645    2.8905 H   0  0  0  0  0  0  0  0  0  0  0  0
    8.3372   -0.3466    3.4190 H   0  0  0  0  0  0  0  0  0  0  0  0
    7.8593   -2.0319    2.3872 H   0  0  0  0  0  0  0  0  0  0  0  0
    7.0229   -2.3930    0.8654 H   0  0  0  0  0  0  0  0  0  0  0  0
    9.9213   -2.0342    1.3944 H   0  0  0  0  0  0  0  0  0  0  0  0
    9.0623   -3.0479    0.2182 H   0  0  0  0  0  0  0  0  0  0  0  0
    9.3099   -1.3485   -0.2011 H   0  0  0  0  0  0  0  0  0  0  0  0
    2.4233    0.0283   -1.9432 H   0  0  0  0  0  0  0  0  0  0  0  0
   -2.3043   -0.9595   -1.8922 H   0  0  0  0  0  0  0  0  0  0  0  0
   -1.9132   -0.4113    0.3518 H   0  0  0  0  0  0  0  0  0  0  0  0
   -0.3937   -1.3648    0.4289 H   0  0  0  0  0  0  0  0  0  0  0  0
   -2.0750   -3.2016   -2.4480 H   0  0  0  0  0  0  0  0  0  0  0  0
   -0.9735   -4.0054    0.0585 H   0  0  0  0  0  0  0  0  0  0  0  0
   -3.4957   -4.1448   -1.5942 H   0  0  0  0  0  0  0  0  0  0  0  0
   -2.5529   -5.4286   -0.8202 H   0  0  0  0  0  0  0  0  0  0  0  0
   -3.8350   -5.4227    1.0453 H   0  0  0  0  0  0  0  0  0  0  0  0
   -3.6416   -3.7958    2.3564 H   0  0  0  0  0  0  0  0  0  0  0  0
   -5.3285   -5.0809   -1.0025 H   0  0  0  0  0  0  0  0  0  0  0  0
   -6.0845   -4.9747    0.5989 H   0  0  0  0  0  0  0  0  0  0  0  0
   -6.6416   -3.2537   -1.2588 H   0  0  0  0  0  0  0  0  0  0  0  0
   -4.8690   -2.1615   -1.8310 H   0  0  0  0  0  0  0  0  0  0  0  0
   -6.3765   -3.1471    1.7206 H   0  0  0  0  0  0  0  0  0  0  0  0
   -7.6822   -2.5136    0.5983 H   0  0  0  0  0  0  0  0  0  0  0  0
   -5.0533   -1.0701    0.8685 H   0  0  0  0  0  0  0  0  0  0  0  0
   -7.3745   -0.0652    2.5346 H   0  0  0  0  0  0  0  0  0  0  0  0
   -5.6041   -0.3798    2.9811 H   0  0  0  0  0  0  0  0  0  0  0  0
   -6.8209   -1.6651    3.0530 H   0  0  0  0  0  0  0  0  0  0  0  0
   -7.9733   -0.5778    0.0548 H   0  0  0  0  0  0  0  0  0  0  0  0
   -6.5291   -0.4942   -0.9705 H   0  0  0  0  0  0  0  0  0  0  0  0
   -6.8841    1.7317   -0.6597 H   0  0  0  0  0  0  0  0  0  0  0  0
   -7.8127    1.5565    0.8451 H   0  0  0  0  0  0  0  0  0  0  0  0
   -5.9816    1.8606    2.2065 H   0  0  0  0  0  0  0  0  0  0  0  0
   -4.8192    0.9782    1.0709 H   0  0  0  0  0  0  0  0  0  0  0  0
   -5.5422    3.0522   -0.3843 H   0  0  0  0  0  0  0  0  0  0  0  0
   -3.4244    2.1948    1.2868 H   0  0  0  0  0  0  0  0  0  0  0  0
   -2.9905    3.9819    2.3485 H   0  0  0  0  0  0  0  0  0  0  0  0
   -3.7542    2.4553   -1.2175 H   0  0  0  0  0  0  0  0  0  0  0  0
   -3.2659    4.1478   -1.0497 H   0  0  0  0  0  0  0  0  0  0  0  0
   -1.4420    2.6975    0.6446 H   0  0  0  0  0  0  0  0  0  0  0  0
   -1.6359    1.6775   -0.8836 H   0  0  0  0  0  0  0  0  0  0  0  0
   -1.3347    3.8973   -2.0804 H   0  0  0  0  0  0  0  0  0  0  0  0
   -0.1049    5.6535   -0.7378 H   0  0  0  0  0  0  0  0  0  0  0  0
   -0.4505    4.6319    0.7745 H   0  0  0  0  0  0  0  0  0  0  0  0
   -1.7417    5.2396   -0.2509 H   0  0  0  0  0  0  0  0  0  0  0  0
    0.4384    2.5777   -2.5082 H   0  0  0  0  0  0  0  0  0  0  0  0
    2.5552    2.9975   -1.7700 H   0  0  0  0  0  0  0  0  0  0  0  0
    1.9377    5.7848   -1.9997 H   0  0  0  0  0  0  0  0  0  0  0  0
    2.3323    4.6348   -3.2856 H   0  0  0  0  0  0  0  0  0  0  0  0
    0.6214    4.8356   -2.8737 H   0  0  0  0  0  0  0  0  0  0  0  0
    2.1011    5.2729    0.1132 H   0  0  0  0  0  0  0  0  0  0  0  0
    3.3190    3.9935    0.0928 H   0  0  0  0  0  0  0  0  0  0  0  0
    1.7454    3.6925    0.8329 H   0  0  0  0  0  0  0  0  0  0  0  0
    2.5204    1.6878   -0.2139 H   0  0  0  0  0  0  0  0  0  0  0  0
    0.3595    0.7670    1.2212 H   0  0  0  0  0  0  0  0  0  0  0  0
    0.6928   -3.9655   -1.1866 H   0  0  0  0  0  0  0  0  0  0  0  0
    0.7918   -2.2037   -0.0478 H   0  0  0  0  0  0  0  0  0  0  0  0
    3.4367   -1.1678   -2.6677 H   0  0  0  0  0  0  0  0  0  0  0  0
    2.3816   -2.6884   -2.7479 H   0  0  0  0  0  0  0  0  0  0  0  0
    4.3922   -2.3942   -0.9173 H   0  0  0  0  0  0  0  0  0  0  0  0
    2.8540   -3.1772   -0.5117 H   0  0  0  0  0  0  0  0  0  0  0  0
    2.3260   -1.3560    0.9661 H   0  0  0  0  0  0  0  0  0  0  0  0
    4.4786    1.7850    1.2925 H   0  0  0  0  0  0  0  0  0  0  0  0
    4.3037   -1.3978    2.7659 H   0  0  0  0  0  0  0  0  0  0  0  0
    5.9534   -0.9535   -0.9259 H   0  0  0  0  0  0  0  0  0  0  0  0
    5.2345    0.6414   -1.0871 H   0  0  0  0  0  0  0  0  0  0  0  0
    6.4324    1.5110    0.7781 H   0  0  0  0  0  0  0  0  0  0  0  0
    7.5693    0.8088   -0.4450 H   0  0  0  0  0  0  0  0  0  0  0  0
    9.1362    0.8954    1.1274 H   0  0  0  0  0  0  0  0  0  0  0  0
    7.9728    1.4585    2.3374 H   0  0  0  0  0  0  0  0  0  0  0  0
    9.1559    0.5026    3.9938 H   0  0  0  0  0  0  0  0  0  0  0  0
   10.2376   -0.3282    2.8748 H   0  0  0  0  0  0  0  0  0  0  0  0
    8.6724   -1.0762    3.3507 H   0  0  0  0  0  0  0  0  0  0  0  0
    8.1662   -2.1997    1.7201 H   0  0  0  0  0  0  0  0  0  0  0  0
    7.0294   -2.0456    0.3780 H   0  0  0  0  0  0  0  0  0  0  0  0
    9.9381   -1.1870    0.6612 H   0  0  0  0  0  0  0  0  0  0  0  0
    9.2539   -2.4174   -0.4125 H   0  0  0  0  0  0  0  0  0  0  0  0
    8.9386   -0.6497   -0.7949 H   0  0  0  0  0  0  0  0  0  0  0  0
    3.0974    0.2725   -1.4748 H   0  0  0  0  0  0  0  0  0  0  0  0
   -0.9331   -0.6313   -1.8100 H   0  0  0  0  0  0  0  0  0  0  0  0
   -1.3975   -0.5682    0.5256 H   0  0  0  0  0  0  0  0  0  0  0  0
   -1.0148   -2.3389    0.7243 H   0  0  0  0  0  0  0  0  0  0  0  0
   -1.1628   -3.5565   -1.9163 H   0  0  0  0  0  0  0  0  0  0  0  0
   -3.4746   -1.8404   -2.1121 H   0  0  0  0  0  0  0  0  0  0  0  0
   -4.3489   -3.9148   -2.1900 H   0  0  0  0  0  0  0  0  0  0  0  0
   -2.8288   -4.6334   -1.6368 H   0  0  0  0  0  0  0  0  0  0  0  0
   -3.9138   -5.1627    0.2649 H   0  0  0  0  0  0  0  0  0  0  0  0
   -3.7213   -3.7252    1.7909 H   0  0  0  0  0  0  0  0  0  0  0  0
   -6.0291   -4.8973   -1.1375 H   0  0  0  0  0  0  0  0  0  0  0  0
   -6.1357   -4.9261    0.6571 H   0  0  0  0  0  0  0  0  0  0  0  0
   -7.5679   -3.2942   -0.6915 H   0  0  0  0  0  0  0  0  0  0  0  0
   -6.1754   -2.2942   -2.0306 H   0  0  0  0  0  0  0  0  0  0  0  0
   -6.3502   -3.0275    1.9358 H   0  0  0  0  0  0  0  0  0  0  0  0
   -7.9262   -2.4422    1.3646 H   0  0  0  0  0  0  0  0  0  0  0  0
   -5.4661   -0.9991    0.5122 H   0  0  0  0  0  0  0  0  0  0  0  0
   -6.8275    0.0323    2.9474 H   0  0  0  0  0  0  0  0  0  0  0  0
   -5.0390   -0.3834    2.8206 H   0  0  0  0  0  0  0  0  0  0  0  0
   -6.2310   -1.6037    3.2946 H   0  0  0  0  0  0  0  0  0  0  0  0
   -8.3659   -0.3766    1.1127 H   0  0  0  0  0  0  0  0  0  0  0  0
   -7.5495   -0.3913   -0.4730 H   0  0  0  0  0  0  0  0  0  0  0  0
   -7.4611    1.8473   -0.1767 H   0  0  0  0  0  0  0  0  0  0  0  0
   -7.7888    1.7675    1.5677 H   0  0  0  0  0  0  0  0  0  0  0  0
   -5.6144    1.9934    2.1216 H   0  0  0  0  0  0  0  0  0  0  0  0
   -4.9738    0.9490    0.8297 H   0  0  0  0  0  0  0  0  0  0  0  0
   -5.5306    2.8050   -0.7098 H   0  0  0  0  0  0  0  0  0  0  0  0
   -3.4569    2.1574    1.0432 H   0  0  0  0  0  0  0  0  0  0  0  0
   -3.1326    3.9993    2.0902 H   0  0  0  0  0  0  0  0  0  0  0  0
   -3.8073    2.4747   -1.5162 H   0  0  0  0  0  0  0  0  0  0  0  0
   -3.2151    4.1183   -1.2505 H   0  0  0  0  0  0  0  0  0  0  0  0
   -1.5881    2.1090    0.2205 H   0  0  0  0  0  0  0  0  0  0  0  0
   -1.7310    1.5993   -1.4795 H   0  0  0  0  0  0  0  0  0  0  0  0
   -1.0669    3.8305   -2.2326 H   0  0  0  0  0  0  0  0  0  0  0  0
    0.0617    5.3140   -0.4032 H   0  0  0  0  0  0  0  0  0  0  0  0
   -0.6607    4.1022    0.8090 H   0  0  0  0  0  0  0  0  0  0  0  0
   -1.6579    5.0267   -0.3035 H   0  0  0  0  0  0  0  0  0  0  0  0
    0.4529    2.1927   -2.4748 H   0  0  0  0  0  0  0  0  0  0  0  0
    2.6272    2.6398   -1.7544 H   0  0  0  0  0  0  0  0  0  0  0  0
    2.1413    5.3741   -2.3132 H   0  0  0  0  0  0  0  0  0  0  0  0
    2.4823    4.0774   -3.4665 H   0  0  0  0  0  0  0  0  0  0  0  0
    0.7909    4.4596   -3.0932 H   0  0  0  0  0  0  0  0  0  0  0  0
    2.4387    5.1824   -0.4744 H   0  0  0  0  0  0  0  0  0  0  0  0
    3.3580    3.7871    0.0305 H   0  0  0  0  0  0  0  0  0  0  0  0
    1.7197    3.9473    0.6540 H   0  0  0  0  0  0  0  0  0  0  0  0
    2.2820    1.6628    0.2232 H   0  0  0  0  0  0  0  0  0  0  0  0
    0.5971    1.0232    1.6159 H   0  0  0  0  0  0  0  0  0  0  0  0
  1  2  1  0
  2  3  1  0
  3  4  1  0
  4  5  1  0
  5  6  1  0
  6  7  1  0
  7  8  1  0
  7  9  1  0
  7 10  1  0
 10 11  1  0
 11 12  1  0
 12 13  1  0
 13 14  1  0
 12 15  1  0
 15 16  1  0
  3 17  1  0
  6 17  1  0
  2 18  1  0
 18 19  1  0
 19 20  1  0
 18 21  1  0
 20 22  1  0
 21 22  1  0
 22 23  1  0
 23 24  1  0
 24 25  1  0
 24 26  1  0
 26 27  1  0
 27 28  1  0
 27 29  1  0
 29 30  1  0
 30 31  1  0
 30 32  1  0
 32 33  1  0
 33 34  1  0
 34 35  1  0
 35 36  1  0
 36 37  1  0
 36 38  1  0
 38 39  1  0
 39 40  1  0
 40 41  1  0
 40 42  1  0
 42 43  1  0
 43 44  1  0
 43 45  1  0
 42 46  1  0
 17 47  1  0
 46 47  1  0
 47 48  1  0
 49 50  1  0
 50 51  1  0
 51 52  1  0
 52 53  1  0
 53 54  1  0
 54 55  1  0
 55 56  1  0
 55 57  1  0
 55 58  1  0
 58 59  1  0
 59 60  1  0
 60 61  1  0
 61 62  1  0
 60 63  1  0
 63 64  1  0
 51 65  1  0
 54 65  1  0
 50 66  1  0
 66 67  1  0
 67 68  1  0
 66 69  1  0
 68 70  1  0
 69 70  1  0
 70 71  1  0
 71 72  1  0
 72 73  1  0
 72 74  1  0
 74 75  1  0
 75 76  1  0
 75 77  1  0
 77 78  1  0
 78 79  1  0
 78 80  1  0
 80 81  1  0
 81 82  1  0
 82 83  1  0
 83 84  1  0
 84 85  1  0
 84 86  1  0
 86 87  1  0
 87 88  1  0
 88 89  1  0
 88 90  1  0
 90 91  1  0
 91 92  1  0
 91 93  1  0
 90 94  1  0
 65 95  1  0
 94 95  1  0
 95 96  1  0
 97 98  1  0
 98 99  1  0
 99100  1  0
100101  1  0
101102  1  0
102103  1  0
103104  1  0
103105  1  0
103106  1  0
106107  1  0
107108  1  0
108109  1  0
109110  1  0
108111  1  0
111112  1  0
 99113  1  0
102113  1  0
 98114  1  0
114115  1  0
115116  1  0
114117  1  0
116118  1  0
117118  1  0
118119  1  0
119120  1  0
120121  1  0
120122  1  0
122123  1  0
123124  1  0
123125  1  0
125126  1  0
126127  1  0
126128  1  0
128129  1  0
129130  1  0
130131  1  0
131132  1  0
132133  1  0
132134  1  0
134135  1  0
135136  1  0
136137  1  0
136138  1  0
138139  1  0
139140  1  0
139141  1  0
138142  1  0
113143  1  0
142143  1  0
143144  1  0
  1145  1  0
  2146  1  0
  4147  1  0
  4148  1  0
  5149  1  0
  5150  1  0
  6151  1  1
  8152  1  0
  9153  1  0
 10154  1  0
 10155  1  0
 11156  1  0
 11157  1  0
 13158  1  0
 13159  1  0
 14160  1  0
 14161  1  0
 14162  1  0
 15163  1  0
 15164  1  0
 16165  1  0
 16166  1  0
 16167  1  0
 17168  1  6
 18169  1  6
 19170  1  0
 19171  1  0
 21172  1  0
 22173  1  0
 23174  1  0
 23175  1  0
 24176  1  1
 25177  1  0
 26178  1  0
 26179  1  0
 27180  1  6
 28181  1  0
 29182  1  0
 29183  1  0
 30184  1  1
 31185  1  0
 31186  1  0
 31187  1  0
 32188  1  0
 32189  1  0
 33190  1  0
 33191  1  0
 34192  1  0
 34193  1  0
 35194  1  0
 36195  1  1
 37196  1  0
 38197  1  0
 38198  1  0
 39199  1  0
 39200  1  0
 40201  1  6
 41202  1  0
 41203  1  0
 41204  1  0
 42205  1  6
 43206  1  0
 44207  1  0
 44208  1  0
 44209  1  0
 45210  1  0
 45211  1  0
 45212  1  0
 47213  1  0
 48214  1  0
 49215  1  0
 50216  1  0
 52217  1  0
 52218  1  0
 53219  1  0
 53220  1  0
 54221  1  1
 56222  1  0
 57223  1  0
 58224  1  0
 58225  1  0
 59226  1  0
 59227  1  0
 61228  1  0
 61229  1  0
 62230  1  0
 62231  1  0
 62232  1  0
 63233  1  0
 63234  1  0
 64235  1  0
 64236  1  0
 64237  1  0
 65238  1  6
 66239  1  6
 67240  1  0
 67241  1  0
 69242  1  0
 70243  1  0
 71244  1  0
 71245  1  0
 72246  1  1
 73247  1  0
 74248  1  0
 74249  1  0
 75250  1  6
 76251  1  0
 77252  1  0
 77253  1  0
 78254  1  1
 79255  1  0
 79256  1  0
 79257  1  0
 80258  1  0
 80259  1  0
 81260  1  0
 81261  1  0
 82262  1  0
 82263  1  0
 83264  1  0
 84265  1  1
 85266  1  0
 86267  1  0
 86268  1  0
 87269  1  0
 87270  1  0
 88271  1  6
 89272  1  0
 89273  1  0
 89274  1  0
 90275  1  6
 91276  1  0
 92277  1  0
 92278  1  0
 92279  1  0
 93280  1  0
 93281  1  0
 93282  1  0
 95283  1  0
 96284  1  0
 97285  1  0
 98286  1  1
100287  1  0
100288  1  0
101289  1  0
101290  1  0
102291  1  1
104292  1  0
105293  1  0
106294  1  0
106295  1  0
107296  1  0
107297  1  0
109298  1  0
109299  1  0
110300  1  0
110301  1  0
110302  1  0
111303  1  0
111304  1  0
112305  1  0
112306  1  0
112307  1  0
113308  1  6
114309  1  6
115310  1  0
115311  1  0
117312  1  0
118313  1  6
119314  1  0
119315  1  0
120316  1  1
121317  1  0
122318  1  0
122319  1  0
123320  1  6
124321  1  0
125322  1  0
125323  1  0
126324  1  6
127325  1  0
127326  1  0
127327  1  0
128328  1  0
128329  1  0
129330  1  0
129331  1  0
130332  1  0
130333  1  0
131334  1  0
132335  1  1
133336  1  0
134337  1  0
134338  1  0
135339  1  0
135340  1  0
136341  1  6
137342  1  0
137343  1  0
137344  1  0
138345  1  6
139346  1  0
140347  1  0
140348  1  0
140349  1  0
141350  1  0
141351  1  0
141352  1  0
143353  1  0
144354  1  0
M  END
>  <PDBID>  (1) 
1MRL

>  <PDB ID>  (1) 
1MRL

>  <Generic Name>  (1) 
Dalfopristin

>  <Brand Name>  (1) 
Synercid

>  <DrugBank ID>  (1) 
DB01764

>  <ATC Codes>  (1) 
nan

>  <Ligand ID>  (1) 
DOL

>  <Target Name>  (1) 
Streptogramin A acetyltransferase

>  <UniProt ID>  (1) 
P50870

>  <PDB ID.1>  (1) 
1MRL

>  <Seq. Identity>  (1) 
100%

$$$$
