PDB_DB00360_04
     RDKit          3D

 38 39  0  0  0  0  0  0  0  0999 V2000
    2.7407    0.8766   -0.0228 N   0  0  0  0  0  0  0  0  0  0  0  0
    3.6880   -0.1490   -0.0613 C   0  0  2  0  0  0  0  0  0  0  0  0
    4.2522   -0.2102   -1.4203 N   0  0  0  0  0  0  0  0  0  0  0  0
    3.2955   -1.4459    0.3435 N   0  0  0  0  0  0  0  0  0  0  0  0
    2.0772   -1.4935    1.1320 C   0  0  1  0  0  0  0  0  0  0  0  0
    2.2868   -0.8051    2.3374 O   0  0  0  0  0  0  0  0  0  0  0  0
    1.0196   -0.8582    0.3060 C   0  0  2  0  0  0  0  0  0  0  0  0
    1.3838    0.5886    0.0869 C   0  0  2  0  0  0  0  0  0  0  0  0
   -0.2878   -0.8652    0.8574 N   0  0  0  0  0  0  0  0  0  0  0  0
    0.5920    1.0028   -1.0526 N   0  0  0  0  0  0  0  0  0  0  0  0
   -1.2456   -0.3954   -0.1387 C   0  0  2  0  0  0  0  0  0  0  0  0
   -0.8271    0.7860   -0.8886 C   0  0  0  0  0  0  0  0  0  0  0  0
   -2.5925   -0.2311    0.4737 C   0  0  1  0  0  0  0  0  0  0  0  0
   -2.6296    0.6959    1.5088 O   0  0  0  0  0  0  0  0  0  0  0  0
   -3.6611    0.0896   -0.5144 C   0  0  2  0  0  0  0  0  0  0  0  0
   -3.7290    1.5441   -0.9345 C   0  0  0  0  0  0  0  0  0  0  0  0
   -4.9281   -0.1205    0.1515 O   0  0  0  0  0  0  0  0  0  0  0  0
    3.0517    1.7734    0.3973 H   0  0  0  0  0  0  0  0  0  0  0  0
    4.5695    0.1522    0.5805 H   0  0  0  0  0  0  0  0  0  0  0  0
    5.0020    0.5374   -1.5292 H   0  0  0  0  0  0  0  0  0  0  0  0
    3.5104    0.0686   -2.1257 H   0  0  0  0  0  0  0  0  0  0  0  0
    4.0572   -2.0113    0.7308 H   0  0  0  0  0  0  0  0  0  0  0  0
    1.8766   -2.5792    1.3322 H   0  0  0  0  0  0  0  0  0  0  0  0
    3.0379   -1.2737    2.7989 H   0  0  0  0  0  0  0  0  0  0  0  0
    0.9923   -1.3617   -0.6789 H   0  0  0  0  0  0  0  0  0  0  0  0
    0.9632    1.1607    0.9664 H   0  0  0  0  0  0  0  0  0  0  0  0
   -0.3805   -0.3440    1.7499 H   0  0  0  0  0  0  0  0  0  0  0  0
    0.9672    0.5349   -1.9233 H   0  0  0  0  0  0  0  0  0  0  0  0
   -1.3454   -1.2878   -0.8380 H   0  0  0  0  0  0  0  0  0  0  0  0
   -1.2365    1.7500   -0.5428 H   0  0  0  0  0  0  0  0  0  0  0  0
   -1.1991    0.6555   -1.9533 H   0  0  0  0  0  0  0  0  0  0  0  0
   -2.8784   -1.2466    0.9820 H   0  0  0  0  0  0  0  0  0  0  0  0
   -2.2381    0.2842    2.3188 H   0  0  0  0  0  0  0  0  0  0  0  0
   -3.7043   -0.5312   -1.4105 H   0  0  0  0  0  0  0  0  0  0  0  0
   -3.4692    2.2601   -0.1591 H   0  0  0  0  0  0  0  0  0  0  0  0
   -3.2050    1.7716   -1.8717 H   0  0  0  0  0  0  0  0  0  0  0  0
   -4.8177    1.7849   -1.1804 H   0  0  0  0  0  0  0  0  0  0  0  0
   -4.9890   -1.1073    0.1923 H   0  0  0  0  0  0  0  0  0  0  0  0
  1  2  1  0
  2  3  1  0
  2  4  1  0
  4  5  1  0
  5  6  1  0
  5  7  1  0
  1  8  1  0
  7  8  1  0
  7  9  1  0
  8 10  1  0
  9 11  1  0
 10 12  1  0
 11 12  1  0
 11 13  1  0
 13 14  1  0
 13 15  1  0
 15 16  1  0
 15 17  1  0
  1 18  1  0
  2 19  1  1
  3 20  1  0
  3 21  1  0
  4 22  1  0
  5 23  1  1
  6 24  1  0
  7 25  1  6
  8 26  1  1
  9 27  1  0
 10 28  1  0
 11 29  1  6
 12 30  1  0
 12 31  1  0
 13 32  1  1
 14 33  1  0
 15 34  1  6
 16 35  1  0
 16 36  1  0
 16 37  1  0
 17 38  1  0
M  END
>  <PDBID>  (1) 
1J8U

>  <PDB ID>  (1) 
1J8U

>  <Generic Name>  (1) 
Sapropterin

>  <Brand Name>  (1) 
Kuvan#BH4#Biopten

>  <DrugBank ID>  (1) 
DB00360

>  <ATC Codes>  (1) 
A16AX07

>  <Ligand ID>  (1) 
BH4,BHS,H4B,THB

>  <Target Name>  (1) 
Tryptophan 5-hydroxylase 1

>  <UniProt ID>  (1) 
P17752

>  <PDB ID.1>  (1) 
1J8U

>  <Seq. Identity>  (1) 
65%

$$$$
