PDB_DB01117_02
     RDKit          3D

 63 66  0  0  0  0  0  0  0  0999 V2000
   -2.1613    2.1125    0.3980 O   0  0  0  0  0  0  0  0  0  0  0  0
   -2.4926   -1.2072   -2.3655 O   0  0  0  0  0  0  0  0  0  0  0  0
   -2.3587    0.9091   -0.3207 C   0  0  0  0  0  0  0  0  0  0  0  0
   -1.4440   -0.1836    0.2163 C   0  0  0  0  0  0  0  0  0  0  0  0
   -2.0526   -1.5369   -0.0316 C   0  0  0  0  0  0  0  0  0  0  0  0
   -3.0821   -1.5318   -1.1382 C   0  0  0  0  0  0  0  0  0  0  0  0
   -5.3686   -1.3138   -0.1120 C   0  0  0  0  0  0  0  0  0  0  0  0
   -6.4831   -0.2846    0.0449 C   0  0  0  0  0  0  0  0  0  0  0  0
   -6.0083    0.9680    0.7278 C   0  0  0  0  0  0  0  0  0  0  0  0
   -4.7652    1.5491    0.0580 C   0  0  0  0  0  0  0  0  0  0  0  0
   -3.7480    0.4586    0.0743 C   0  0  0  0  0  0  0  0  0  0  0  0
   -4.2482   -0.6488   -0.8428 C   0  0  0  0  0  0  0  0  0  0  0  0
   -2.6812   -2.0530    1.1008 O   0  0  0  0  0  0  0  0  0  0  0  0
    0.7550   -1.2241    0.3371 C   0  0  0  0  0  0  0  0  0  0  0  0
    2.1712   -0.7968    0.6550 C   0  0  0  0  0  0  0  0  0  0  0  0
    2.7628    0.0143   -0.4466 C   0  0  0  0  0  0  0  0  0  0  0  0
    1.9954    1.2720   -0.6403 C   0  0  0  0  0  0  0  0  0  0  0  0
    0.6111    1.2349   -0.0407 C   0  0  0  0  0  0  0  0  0  0  0  0
   -0.0487   -0.0952   -0.2692 C   0  0  0  0  0  0  0  0  0  0  0  0
    8.5101    0.5873    1.1089 Cl  0  0  0  0  0  0  0  0  0  0  0  0
    4.2276    0.2523   -0.2399 C   0  0  0  0  0  0  0  0  0  0  0  0
    4.5514    0.9732    1.0243 C   0  0  0  0  0  0  0  0  0  0  0  0
    5.9733    1.5344    0.9248 C   0  0  0  0  0  0  0  0  0  0  0  0
    6.9237    0.5639    0.3030 C   0  0  0  0  0  0  0  0  0  0  0  0
    6.3787   -0.8419    0.4171 C   0  0  0  0  0  0  0  0  0  0  0  0
    5.0631   -0.9836   -0.3427 C   0  0  0  0  0  0  0  0  0  0  0  0
   -2.2857    2.8323   -0.2808 H   0  0  0  0  0  0  0  0  0  0  0  0
   -3.1859   -0.8130   -2.9489 H   0  0  0  0  0  0  0  0  0  0  0  0
   -2.2594    1.0563   -1.3979 H   0  0  0  0  0  0  0  0  0  0  0  0
   -1.4656   -0.0348    1.3372 H   0  0  0  0  0  0  0  0  0  0  0  0
   -1.2794   -2.2694   -0.3292 H   0  0  0  0  0  0  0  0  0  0  0  0
   -3.4492   -2.5701   -1.2374 H   0  0  0  0  0  0  0  0  0  0  0  0
   -5.0137   -1.5641    0.9101 H   0  0  0  0  0  0  0  0  0  0  0  0
   -5.7968   -2.1835   -0.6331 H   0  0  0  0  0  0  0  0  0  0  0  0
   -6.8561   -0.0822   -0.9839 H   0  0  0  0  0  0  0  0  0  0  0  0
   -7.2542   -0.7389    0.6984 H   0  0  0  0  0  0  0  0  0  0  0  0
   -6.8347    1.6690    0.7743 H   0  0  0  0  0  0  0  0  0  0  0  0
   -5.6967    0.6968    1.7556 H   0  0  0  0  0  0  0  0  0  0  0  0
   -4.4222    2.3786    0.6877 H   0  0  0  0  0  0  0  0  0  0  0  0
   -5.0008    1.8840   -0.9760 H   0  0  0  0  0  0  0  0  0  0  0  0
   -3.7208    0.0398    1.1073 H   0  0  0  0  0  0  0  0  0  0  0  0
   -4.6838   -0.1913   -1.7685 H   0  0  0  0  0  0  0  0  0  0  0  0
   -2.7811   -3.0270    0.9798 H   0  0  0  0  0  0  0  0  0  0  0  0
    0.2219   -1.5674    1.2461 H   0  0  0  0  0  0  0  0  0  0  0  0
    0.7364   -2.0703   -0.3757 H   0  0  0  0  0  0  0  0  0  0  0  0
    2.7339   -1.7177    0.8926 H   0  0  0  0  0  0  0  0  0  0  0  0
    2.0876   -0.1184    1.5536 H   0  0  0  0  0  0  0  0  0  0  0  0
    2.6402   -0.5895   -1.3899 H   0  0  0  0  0  0  0  0  0  0  0  0
    1.8408    1.5200   -1.7324 H   0  0  0  0  0  0  0  0  0  0  0  0
    2.5588    2.1594   -0.2389 H   0  0  0  0  0  0  0  0  0  0  0  0
   -0.0293    2.0047   -0.5503 H   0  0  0  0  0  0  0  0  0  0  0  0
    0.6929    1.5259    1.0025 H   0  0  0  0  0  0  0  0  0  0  0  0
   -0.0515   -0.2503   -1.3681 H   0  0  0  0  0  0  0  0  0  0  0  0
    4.5554    0.9260   -1.0865 H   0  0  0  0  0  0  0  0  0  0  0  0
    4.5760    0.2659    1.8852 H   0  0  0  0  0  0  0  0  0  0  0  0
    3.9041    1.8339    1.2545 H   0  0  0  0  0  0  0  0  0  0  0  0
    5.9498    2.4620    0.3200 H   0  0  0  0  0  0  0  0  0  0  0  0
    6.3430    1.8316    1.9334 H   0  0  0  0  0  0  0  0  0  0  0  0
    7.0970    0.7493   -0.7770 H   0  0  0  0  0  0  0  0  0  0  0  0
    7.0780   -1.5585   -0.0170 H   0  0  0  0  0  0  0  0  0  0  0  0
    6.2184   -1.1106    1.4797 H   0  0  0  0  0  0  0  0  0  0  0  0
    5.2697   -1.2084   -1.4237 H   0  0  0  0  0  0  0  0  0  0  0  0
    4.5824   -1.8984    0.0571 H   0  0  0  0  0  0  0  0  0  0  0  0
  1  3  1  0
  3  4  1  0
  4  5  1  0
  2  6  1  0
  5  6  1  0
  7  8  1  0
  8  9  1  0
  9 10  1  0
  3 11  1  0
 10 11  1  0
  6 12  1  0
  7 12  1  0
 11 12  1  0
  5 13  1  0
 14 15  1  0
 15 16  1  0
 16 17  1  0
 17 18  1  0
  4 19  1  0
 14 19  1  0
 18 19  1  0
 16 21  1  0
 21 22  1  0
 22 23  1  0
 20 24  1  0
 23 24  1  0
 24 25  1  0
 21 26  1  0
 25 26  1  0
  1 27  1  0
  2 28  1  0
  3 29  1  0
  4 30  1  0
  5 31  1  0
  6 32  1  0
  7 33  1  0
  7 34  1  0
  8 35  1  0
  8 36  1  0
  9 37  1  0
  9 38  1  0
 10 39  1  0
 10 40  1  0
 11 41  1  0
 12 42  1  0
 13 43  1  0
 14 44  1  0
 14 45  1  0
 15 46  1  0
 15 47  1  0
 16 48  1  0
 17 49  1  0
 17 50  1  0
 18 51  1  0
 18 52  1  0
 19 53  1  0
 21 54  1  0
 22 55  1  0
 22 56  1  0
 23 57  1  0
 23 58  1  0
 24 59  1  0
 25 60  1  0
 25 61  1  0
 26 62  1  0
 26 63  1  0
M  END
>  <PDBID>  (1) 
4PD4

>  <PDB ID>  (1) 
4PD4

>  <Generic Name>  (1) 
Atovaquone

>  <Brand Name>  (1) 
Atovaquone#Atovaquone Proguanil#Atovaquone and Proguanil HCl#Atovaquone and Proguanil Hydrochloride#Atovaquone and Proguanil Hydrochloride Pediatric#Malarone#Malarone Pediatric#Mepron#Mepron Tab 250mg#Mylan-atovaquone/proguanil#Teva-atovaquone Proguanil

>  <DrugBank ID>  (1) 
DB01117

>  <ATC Codes>  (1) 
P01AX06

>  <Ligand ID>  (1) 
AOQ

>  <Target Name>  (1) 
Cytochrome b

>  <UniProt ID>  (1) 
Q02768

>  <PDB ID.1>  (1) 
4PD4

>  <Seq. Identity>  (1) 
42%

$$$$
