PDB_DB00234_03
     RDKit          3D

 58 60  0  0  0  0  0  0  0  0999 V2000
    3.5009   -1.3074    2.5692 C   0  0  0  0  0  0  0  0  0  0  0  0
    3.3332   -2.1281    1.3338 C   0  0  0  0  0  0  0  0  0  0  0  0
    2.3884   -1.6707    0.4488 O   0  0  0  0  0  0  0  0  0  0  0  0
    2.6545   -0.4082   -0.0158 C   0  0  0  0  0  0  0  0  0  0  0  0
    2.9037   -0.3107   -1.4978 C   0  0  0  0  0  0  0  0  0  0  0  0
    2.2231    0.8785   -2.1225 C   0  0  0  0  0  0  0  0  0  0  0  0
    2.2494    2.1295   -1.3288 C   0  0  0  0  0  0  0  0  0  0  0  0
    2.2426    1.9456    0.1488 C   0  0  0  0  0  0  0  0  0  0  0  0
    1.6060    0.5816    0.4415 C   0  0  0  0  0  0  0  0  0  0  0  0
    0.4128    0.4259   -0.2115 O   0  0  0  0  0  0  0  0  0  0  0  0
   -0.6968    0.2544    0.5909 C   0  0  2  0  0  0  0  0  0  0  0  0
   -1.4704   -1.0053    0.3355 C   0  0  0  0  0  0  0  0  0  0  0  0
   -1.9922   -1.0907   -1.0824 C   0  0  0  0  0  0  0  0  0  0  0  0
   -2.0293   -2.5274   -1.5696 C   0  0  0  0  0  0  0  0  0  0  0  0
   -2.5829   -3.4551   -0.5019 C   0  0  0  0  0  0  0  0  0  0  0  0
   -1.8492   -3.3491    0.8079 C   0  0  0  0  0  0  0  0  0  0  0  0
   -0.7619   -2.2717    0.6762 C   0  0  0  0  0  0  0  0  0  0  0  0
   -1.6474    1.4049    0.3320 C   0  0  2  0  0  0  0  0  0  0  0  0
   -2.0684    1.4961   -0.9737 O   0  0  0  0  0  0  0  0  0  0  0  0
   -3.0332    2.4612   -1.0874 C   0  0  0  0  0  0  0  0  0  0  0  0
   -3.3869    3.1983    0.1543 C   0  0  0  0  0  0  0  0  0  0  0  0
   -2.2532    3.6089    0.9514 N   0  0  0  0  0  0  0  0  0  0  0  0
   -1.1068    2.7421    0.7442 C   0  0  0  0  0  0  0  0  0  0  0  0
    2.5413   -0.9992    3.0295 H   0  0  0  0  0  0  0  0  0  0  0  0
    4.2010   -0.4964    2.3813 H   0  0  0  0  0  0  0  0  0  0  0  0
    3.9883   -1.9712    3.3369 H   0  0  0  0  0  0  0  0  0  0  0  0
    3.0617   -3.1668    1.6466 H   0  0  0  0  0  0  0  0  0  0  0  0
    4.3475   -2.2226    0.8611 H   0  0  0  0  0  0  0  0  0  0  0  0
    3.6161   -0.0732    0.4752 H   0  0  0  0  0  0  0  0  0  0  0  0
    2.4701   -1.2184   -1.9669 H   0  0  0  0  0  0  0  0  0  0  0  0
    3.9833   -0.2983   -1.7483 H   0  0  0  0  0  0  0  0  0  0  0  0
    2.7642    1.0759   -3.0925 H   0  0  0  0  0  0  0  0  0  0  0  0
    1.1878    0.5754   -2.4558 H   0  0  0  0  0  0  0  0  0  0  0  0
    1.3178    2.7052   -1.6117 H   0  0  0  0  0  0  0  0  0  0  0  0
    3.0752    2.8279   -1.6522 H   0  0  0  0  0  0  0  0  0  0  0  0
    3.2921    1.8592    0.5092 H   0  0  0  0  0  0  0  0  0  0  0  0
    1.7919    2.7622    0.7033 H   0  0  0  0  0  0  0  0  0  0  0  0
    1.4798    0.5358    1.5226 H   0  0  0  0  0  0  0  0  0  0  0  0
   -0.4101    0.2592    1.6711 H   0  0  0  0  0  0  0  0  0  0  0  0
   -2.3758   -0.9603    0.9962 H   0  0  0  0  0  0  0  0  0  0  0  0
   -1.2837   -0.5591   -1.7417 H   0  0  0  0  0  0  0  0  0  0  0  0
   -2.9820   -0.6322   -1.1878 H   0  0  0  0  0  0  0  0  0  0  0  0
   -2.7524   -2.5602   -2.4116 H   0  0  0  0  0  0  0  0  0  0  0  0
   -1.0630   -2.8536   -1.9653 H   0  0  0  0  0  0  0  0  0  0  0  0
   -3.6666   -3.2131   -0.3865 H   0  0  0  0  0  0  0  0  0  0  0  0
   -2.4983   -4.4885   -0.9263 H   0  0  0  0  0  0  0  0  0  0  0  0
   -2.5581   -2.9682    1.5752 H   0  0  0  0  0  0  0  0  0  0  0  0
   -1.4306   -4.3039    1.1489 H   0  0  0  0  0  0  0  0  0  0  0  0
   -0.1170   -2.5850   -0.1740 H   0  0  0  0  0  0  0  0  0  0  0  0
   -0.2424   -2.1915    1.6312 H   0  0  0  0  0  0  0  0  0  0  0  0
   -2.5908    1.2552    0.9417 H   0  0  0  0  0  0  0  0  0  0  0  0
   -2.7681    3.1368   -1.9402 H   0  0  0  0  0  0  0  0  0  0  0  0
   -3.9723    1.9393   -1.4373 H   0  0  0  0  0  0  0  0  0  0  0  0
   -3.8986    4.1545   -0.1618 H   0  0  0  0  0  0  0  0  0  0  0  0
   -4.1302    2.6730    0.7822 H   0  0  0  0  0  0  0  0  0  0  0  0
   -2.0154    4.6132    0.8535 H   0  0  0  0  0  0  0  0  0  0  0  0
   -0.4311    3.1599   -0.0502 H   0  0  0  0  0  0  0  0  0  0  0  0
   -0.5678    2.6264    1.7013 H   0  0  0  0  0  0  0  0  0  0  0  0
  1  2  1  0
  2  3  1  0
  3  4  1  0
  4  5  1  0
  5  6  1  0
  6  7  1  0
  7  8  1  0
  4  9  1  0
  8  9  1  0
  9 10  1  0
 10 11  1  0
 11 12  1  0
 12 13  1  0
 13 14  1  0
 14 15  1  0
 15 16  1  0
 12 17  1  0
 16 17  1  0
 11 18  1  0
 18 19  1  0
 19 20  1  0
 20 21  1  0
 21 22  1  0
 18 23  1  0
 22 23  1  0
  1 24  1  0
  1 25  1  0
  1 26  1  0
  2 27  1  0
  2 28  1  0
  4 29  1  0
  5 30  1  0
  5 31  1  0
  6 32  1  0
  6 33  1  0
  7 34  1  0
  7 35  1  0
  8 36  1  0
  8 37  1  0
  9 38  1  0
 11 39  1  1
 12 40  1  0
 13 41  1  0
 13 42  1  0
 14 43  1  0
 14 44  1  0
 15 45  1  0
 15 46  1  0
 16 47  1  0
 16 48  1  0
 17 49  1  0
 17 50  1  0
 18 51  1  1
 20 52  1  0
 20 53  1  0
 21 54  1  0
 21 55  1  0
 22 56  1  0
 23 57  1  0
 23 58  1  0
M  END
>  <PDBID>  (1) 
4XNX

>  <PDB ID>  (1) 
4XNX

>  <Generic Name>  (1) 
Reboxetine

>  <Brand Name>  (1) 
Davedax#Edronax#Norebox#Prolift#Solvex#Vestra

>  <DrugBank ID>  (1) 
DB00234

>  <ATC Codes>  (1) 
N06AX18

>  <Ligand ID>  (1) 
41X

>  <Target Name>  (1) 
Sodium-dependent noradrenaline transporter

>  <UniProt ID>  (1) 
P23975

>  <PDB ID.1>  (1) 
4XNX

>  <Seq. Identity>  (1) 
58%

$$$$
