PDB_DB00136_04
     RDKit          3D

 80 82  0  0  0  0  0  0  0  0999 V2000
   -8.1343   -1.2857    0.2622 O   0  0  0  0  0  0  0  0  0  0  0  0
    6.9067   -0.4661    2.4030 O   0  0  0  0  0  0  0  0  0  0  0  0
   -5.2194   -1.2236    1.6639 C   0  0  1  0  0  0  0  0  0  0  0  0
   -6.4825   -0.4144    1.8007 C   0  0  0  0  0  0  0  0  0  0  0  0
   -7.2391   -0.2366    0.5252 C   0  0  1  0  0  0  0  0  0  0  0  0
   -6.4267    0.1719   -0.6496 C   0  0  0  0  0  0  0  0  0  0  0  0
   -5.0461   -0.4600   -0.7270 C   0  0  1  0  0  0  0  0  0  0  0  0
   -3.9879    0.5816   -0.5095 C   0  0  0  0  0  0  0  0  0  0  0  0
   -2.6373    0.0079   -0.6198 C   0  0  0  0  0  0  0  0  0  0  0  0
   -1.5288    1.0556   -0.4221 C   0  0  0  0  0  0  0  0  0  0  0  0
   -1.6430    2.1231   -1.4474 C   0  0  0  0  0  0  0  0  0  0  0  0
   -5.0531   -1.6150    0.2157 C   0  0  1  0  0  0  0  0  0  0  0  0
   -0.4175    2.7883   -1.9097 C   0  0  0  0  0  0  0  0  0  0  0  0
    0.8145    1.9193   -1.9817 C   0  0  0  0  0  0  0  0  0  0  0  0
    0.9911    1.1442   -0.7016 C   0  0  1  0  0  0  0  0  0  0  0  0
   -0.2711    0.3092   -0.5883 C   0  0  1  0  0  0  0  0  0  0  0  0
    0.0105   -0.7216    0.4679 C   0  0  0  0  0  0  0  0  0  0  0  0
    1.5231   -0.8097    0.4687 C   0  0  0  0  0  0  0  0  0  0  0  0
    1.9656    0.0457   -0.7303 C   0  0  2  0  0  0  0  0  0  0  0  0
    1.0549    2.0739    0.4429 C   0  0  0  0  0  0  0  0  0  0  0  0
   -4.0095   -2.6566   -0.0132 C   0  0  0  0  0  0  0  0  0  0  0  0
    3.3997    0.2615   -0.7710 C   0  0  1  0  0  0  0  0  0  0  0  0
    3.7663    1.0449   -2.0248 C   0  0  0  0  0  0  0  0  0  0  0  0
    4.0310    0.9174    0.4295 C   0  0  0  0  0  0  0  0  0  0  0  0
    5.5185    1.0575    0.2442 C   0  0  0  0  0  0  0  0  0  0  0  0
    6.2877   -0.1982    0.1141 C   0  0  0  0  0  0  0  0  0  0  0  0
    6.3306   -1.1191    1.2730 C   0  0  0  0  0  0  0  0  0  0  0  0
    7.3526   -2.2467    0.9825 C   0  0  0  0  0  0  0  0  0  0  0  0
    5.0891   -1.7587    1.7379 C   0  0  0  0  0  0  0  0  0  0  0  0
   -4.1228   -0.5473    2.1884 O   0  0  0  0  0  0  0  0  0  0  0  0
   -8.2938   -1.3911   -0.7138 H   0  0  0  0  0  0  0  0  0  0  0  0
    7.7649   -0.0825    2.0833 H   0  0  0  0  0  0  0  0  0  0  0  0
   -5.3894   -2.1912    2.2140 H   0  0  0  0  0  0  0  0  0  0  0  0
   -6.2824    0.5694    2.3149 H   0  0  0  0  0  0  0  0  0  0  0  0
   -7.1859   -0.9295    2.5242 H   0  0  0  0  0  0  0  0  0  0  0  0
   -7.9364    0.6514    0.7277 H   0  0  0  0  0  0  0  0  0  0  0  0
   -6.2893    1.2770   -0.6366 H   0  0  0  0  0  0  0  0  0  0  0  0
   -6.9825   -0.0959   -1.5728 H   0  0  0  0  0  0  0  0  0  0  0  0
   -4.9618   -0.9011   -1.7639 H   0  0  0  0  0  0  0  0  0  0  0  0
   -4.2017    1.3989   -1.2335 H   0  0  0  0  0  0  0  0  0  0  0  0
   -4.1367    1.0532    0.4911 H   0  0  0  0  0  0  0  0  0  0  0  0
   -2.4581   -0.4765   -1.6190 H   0  0  0  0  0  0  0  0  0  0  0  0
   -2.4478   -0.7587    0.1399 H   0  0  0  0  0  0  0  0  0  0  0  0
   -1.7273    1.4194    0.6286 H   0  0  0  0  0  0  0  0  0  0  0  0
   -2.3103    2.9252   -1.0055 H   0  0  0  0  0  0  0  0  0  0  0  0
   -2.2812    1.7220   -2.2917 H   0  0  0  0  0  0  0  0  0  0  0  0
   -6.0458   -2.1516   -0.0194 H   0  0  0  0  0  0  0  0  0  0  0  0
   -0.5865    3.1840   -2.9351 H   0  0  0  0  0  0  0  0  0  0  0  0
   -0.1993    3.7114   -1.2928 H   0  0  0  0  0  0  0  0  0  0  0  0
    0.7070    1.2650   -2.8663 H   0  0  0  0  0  0  0  0  0  0  0  0
    1.6663    2.6392   -2.0582 H   0  0  0  0  0  0  0  0  0  0  0  0
   -0.3475   -0.2330   -1.5814 H   0  0  0  0  0  0  0  0  0  0  0  0
   -0.4098   -0.4670    1.4574 H   0  0  0  0  0  0  0  0  0  0  0  0
   -0.3642   -1.7112    0.1175 H   0  0  0  0  0  0  0  0  0  0  0  0
    1.8818   -1.8481    0.2869 H   0  0  0  0  0  0  0  0  0  0  0  0
    1.8833   -0.3995    1.4091 H   0  0  0  0  0  0  0  0  0  0  0  0
    1.7012   -0.6042   -1.6199 H   0  0  0  0  0  0  0  0  0  0  0  0
    0.0271    2.3570    0.7488 H   0  0  0  0  0  0  0  0  0  0  0  0
    1.5308    3.0537    0.2190 H   0  0  0  0  0  0  0  0  0  0  0  0
    1.4970    1.5980    1.3612 H   0  0  0  0  0  0  0  0  0  0  0  0
   -4.5309   -3.6629   -0.0988 H   0  0  0  0  0  0  0  0  0  0  0  0
   -3.3129   -2.8105    0.8382 H   0  0  0  0  0  0  0  0  0  0  0  0
   -3.5461   -2.5136   -0.9877 H   0  0  0  0  0  0  0  0  0  0  0  0
    3.9100   -0.7095   -0.9074 H   0  0  0  0  0  0  0  0  0  0  0  0
    3.9514    2.0860   -1.7202 H   0  0  0  0  0  0  0  0  0  0  0  0
    3.0807    0.8924   -2.8572 H   0  0  0  0  0  0  0  0  0  0  0  0
    4.7692    0.6944   -2.4178 H   0  0  0  0  0  0  0  0  0  0  0  0
    3.6571    1.9889    0.4016 H   0  0  0  0  0  0  0  0  0  0  0  0
    3.8390    0.4369    1.3753 H   0  0  0  0  0  0  0  0  0  0  0  0
    5.9307    1.7458    1.0349 H   0  0  0  0  0  0  0  0  0  0  0  0
    5.6623    1.6555   -0.7027 H   0  0  0  0  0  0  0  0  0  0  0  0
    5.9439   -0.7899   -0.7739 H   0  0  0  0  0  0  0  0  0  0  0  0
    7.3644    0.0382   -0.1447 H   0  0  0  0  0  0  0  0  0  0  0  0
    6.8191   -3.0457    0.4393 H   0  0  0  0  0  0  0  0  0  0  0  0
    7.8060   -2.6158    1.9188 H   0  0  0  0  0  0  0  0  0  0  0  0
    8.0841   -1.8130    0.2840 H   0  0  0  0  0  0  0  0  0  0  0  0
    4.7496   -1.2747    2.6890 H   0  0  0  0  0  0  0  0  0  0  0  0
    5.3492   -2.8169    2.0898 H   0  0  0  0  0  0  0  0  0  0  0  0
    4.2824   -1.9044    1.0249 H   0  0  0  0  0  0  0  0  0  0  0  0
   -4.4534    0.0918    2.8767 H   0  0  0  0  0  0  0  0  0  0  0  0
  3  4  1  0
  1  5  1  0
  4  5  1  0
  5  6  1  0
  6  7  1  0
  7  8  1  0
  8  9  1  0
  9 10  1  0
 10 11  1  0
  3 12  1  0
  7 12  1  0
 11 13  1  0
 13 14  1  0
 14 15  1  0
 10 16  1  0
 15 16  1  0
 16 17  1  0
 17 18  1  0
 15 19  1  0
 18 19  1  0
 15 20  1  1
 12 21  1  0
 19 22  1  0
 22 23  1  0
 22 24  1  0
 24 25  1  0
 25 26  1  0
 27  2  1  0
 26 27  1  0
 27 28  1  0
 27 29  1  0
  3 30  1  0
  1 31  1  0
  2 32  1  0
  3 33  1  1
  4 34  1  0
  4 35  1  0
  5 36  1  1
  6 37  1  0
  6 38  1  0
  7 39  1  6
  8 40  1  0
  8 41  1  0
  9 42  1  0
  9 43  1  0
 10 44  1  0
 11 45  1  0
 11 46  1  0
 12 47  1  6
 13 48  1  0
 13 49  1  0
 14 50  1  0
 14 51  1  0
 16 52  1  6
 17 53  1  0
 17 54  1  0
 18 55  1  0
 18 56  1  0
 19 57  1  6
 20 58  1  0
 20 59  1  0
 20 60  1  0
 21 61  1  0
 21 62  1  0
 21 63  1  0
 22 64  1  6
 23 65  1  0
 23 66  1  0
 23 67  1  0
 24 68  1  0
 24 69  1  0
 25 70  1  0
 25 71  1  0
 26 72  1  0
 26 73  1  0
 28 74  1  0
 28 75  1  0
 28 76  1  0
 29 77  1  0
 29 78  1  0
 29 79  1  0
 30 80  1  0
M  END
>  <PDBID>  (1) 
1IE9

>  <PDB ID>  (1) 
1IE9

>  <Generic Name>  (1) 
Calcitriol

>  <Brand Name>  (1) 
Calcijex#Calcitriol#Calcitriol Injection#Calcitriol Injection USP#Calcitriol-odan#Rocaltrol#Rocaltrol Cap 0.25mcg#Rocaltrol Cap 0.5mcg#Rocaltrol Oral Solution 1mcg/ml#Silkis#Vectical#Calcitriol Oral Solution#Decostriol

>  <DrugBank ID>  (1) 
DB00136

>  <ATC Codes>  (1) 
A11CC04#D05AX03

>  <Ligand ID>  (1) 
VDX

>  <Target Name>  (1) 
Vitamin D3 receptor

>  <UniProt ID>  (1) 
P11473

>  <PDB ID.1>  (1) 
1IE9

>  <Seq. Identity>  (1) 
84%

$$$$
