PDB_DB00412_02
     RDKit          3D

 60 62  0  0  0  0  0  0  0  0999 V2000
    4.5264    0.7888    1.5709 S   0  0  0  0  0  0  0  0  0  0  0  0
    6.4877    2.5014    1.5173 O   0  0  0  0  0  0  0  0  0  0  0  0
    6.0119   -0.9419   -1.4933 O   0  0  0  0  0  0  0  0  0  0  0  0
   -0.6188   -0.0771   -2.0824 O   0  0  0  0  0  0  0  0  0  0  0  0
    6.3868    0.8638   -0.1356 N   0  0  0  0  0  0  0  0  0  0  0  0
   -2.8559    0.9657   -0.5546 N   0  0  0  0  0  0  0  0  0  0  0  0
   -3.4669   -0.4674    1.2859 N   0  0  0  0  0  0  0  0  0  0  0  0
    5.6478    1.9024    0.6111 C   0  0  0  0  0  0  0  0  0  0  0  0
    5.3484   -0.0323   -0.6846 C   0  0  0  0  0  0  0  0  0  0  0  0
    4.8661   -0.6943    0.5673 C   0  0  2  0  0  0  0  0  0  0  0  0
    3.8569   -1.7069    0.5130 C   0  0  0  0  0  0  0  0  0  0  0  0
    2.4965   -1.4747    0.0093 C   0  0  0  0  0  0  0  0  0  0  0  0
    1.6522   -0.4684    0.6743 C   0  0  0  0  0  0  0  0  0  0  0  0
    0.3012   -0.3056    0.0935 C   0  0  0  0  0  0  0  0  0  0  0  0
    0.0233   -0.9732   -1.1950 C   0  0  0  0  0  0  0  0  0  0  0  0
    1.0557   -1.7641   -1.8901 C   0  0  0  0  0  0  0  0  0  0  0  0
    2.4472   -1.3043   -1.5219 C   0  0  0  0  0  0  0  0  0  0  0  0
   -1.8943   -0.3352   -2.4024 C   0  0  0  0  0  0  0  0  0  0  0  0
   -2.8142   -0.2879   -1.2320 C   0  0  0  0  0  0  0  0  0  0  0  0
   -3.4383    2.0437   -1.2573 C   0  0  0  0  0  0  0  0  0  0  0  0
   -3.1379    0.8765    0.8442 C   0  0  0  0  0  0  0  0  0  0  0  0
   -4.7913   -0.9128    1.0334 C   0  0  0  0  0  0  0  0  0  0  0  0
   -5.8236    0.2012    1.0078 C   0  0  0  0  0  0  0  0  0  0  0  0
   -5.3816    1.3622    1.8609 C   0  0  0  0  0  0  0  0  0  0  0  0
   -4.0519    1.9167    1.3988 C   0  0  0  0  0  0  0  0  0  0  0  0
    7.3971    2.5323    1.1348 H   0  0  0  0  0  0  0  0  0  0  0  0
    6.2479   -1.7509   -0.9666 H   0  0  0  0  0  0  0  0  0  0  0  0
    6.9288    0.3398    0.6087 H   0  0  0  0  0  0  0  0  0  0  0  0
   -3.2786   -0.4968    2.3188 H   0  0  0  0  0  0  0  0  0  0  0  0
    5.0988    2.5707   -0.0489 H   0  0  0  0  0  0  0  0  0  0  0  0
    4.6511    0.6160   -1.1998 H   0  0  0  0  0  0  0  0  0  0  0  0
    5.7918   -1.1368    1.0534 H   0  0  0  0  0  0  0  0  0  0  0  0
    3.7535   -2.1628    1.5461 H   0  0  0  0  0  0  0  0  0  0  0  0
    4.2644   -2.5888   -0.0747 H   0  0  0  0  0  0  0  0  0  0  0  0
    1.9726   -2.4784    0.1567 H   0  0  0  0  0  0  0  0  0  0  0  0
    2.1591    0.5335    0.7840 H   0  0  0  0  0  0  0  0  0  0  0  0
    1.4958   -0.7475    1.7744 H   0  0  0  0  0  0  0  0  0  0  0  0
   -0.4989   -0.6334    0.8461 H   0  0  0  0  0  0  0  0  0  0  0  0
    0.0478    0.8207    0.0090 H   0  0  0  0  0  0  0  0  0  0  0  0
   -0.8204   -1.7290   -0.9985 H   0  0  0  0  0  0  0  0  0  0  0  0
    0.9439   -1.7921   -2.9962 H   0  0  0  0  0  0  0  0  0  0  0  0
    1.0291   -2.8576   -1.5963 H   0  0  0  0  0  0  0  0  0  0  0  0
    2.4840   -0.2316   -1.8034 H   0  0  0  0  0  0  0  0  0  0  0  0
    3.2522   -1.8928   -1.9532 H   0  0  0  0  0  0  0  0  0  0  0  0
   -2.2226    0.4560   -3.1386 H   0  0  0  0  0  0  0  0  0  0  0  0
   -2.0353   -1.2828   -3.0003 H   0  0  0  0  0  0  0  0  0  0  0  0
   -2.6294   -1.0829   -0.4840 H   0  0  0  0  0  0  0  0  0  0  0  0
   -3.8931   -0.4663   -1.5674 H   0  0  0  0  0  0  0  0  0  0  0  0
   -4.5433    2.0650   -1.3137 H   0  0  0  0  0  0  0  0  0  0  0  0
   -3.0664    2.0277   -2.2973 H   0  0  0  0  0  0  0  0  0  0  0  0
   -3.1207    3.0549   -0.8785 H   0  0  0  0  0  0  0  0  0  0  0  0
   -2.1284    1.0668    1.3363 H   0  0  0  0  0  0  0  0  0  0  0  0
   -4.8956   -1.6244    0.1988 H   0  0  0  0  0  0  0  0  0  0  0  0
   -5.1004   -1.5325    1.9387 H   0  0  0  0  0  0  0  0  0  0  0  0
   -5.9219    0.5670   -0.0368 H   0  0  0  0  0  0  0  0  0  0  0  0
   -6.8106   -0.1271    1.3464 H   0  0  0  0  0  0  0  0  0  0  0  0
   -5.3238    0.9918    2.9127 H   0  0  0  0  0  0  0  0  0  0  0  0
   -6.1711    2.1269    1.8448 H   0  0  0  0  0  0  0  0  0  0  0  0
   -3.6256    2.3958    2.3385 H   0  0  0  0  0  0  0  0  0  0  0  0
   -4.2653    2.7738    0.7353 H   0  0  0  0  0  0  0  0  0  0  0  0
  1  8  1  0
  2  8  1  0
  5  8  1  0
  3  9  1  0
  5  9  1  0
  1 10  1  0
  9 10  1  0
 10 11  1  0
 11 12  1  0
 12 13  1  0
 13 14  1  0
  4 15  1  0
 14 15  1  0
 15 16  1  0
 12 17  1  0
 16 17  1  0
  4 18  1  0
  6 19  1  0
 18 19  1  0
  6 20  1  0
  6 21  1  0
  7 21  1  0
  7 22  1  0
 22 23  1  0
 23 24  1  0
 21 25  1  0
 24 25  1  0
  2 26  1  0
  3 27  1  0
  5 28  1  0
  7 29  1  0
  8 30  1  0
  9 31  1  0
 10 32  1  1
 11 33  1  0
 11 34  1  0
 12 35  1  0
 13 36  1  0
 13 37  1  0
 14 38  1  0
 14 39  1  0
 15 40  1  0
 16 41  1  0
 16 42  1  0
 17 43  1  0
 17 44  1  0
 18 45  1  0
 18 46  1  0
 19 47  1  0
 19 48  1  0
 20 49  1  0
 20 50  1  0
 20 51  1  0
 21 52  1  0
 22 53  1  0
 22 54  1  0
 23 55  1  0
 23 56  1  0
 24 57  1  0
 24 58  1  0
 25 59  1  0
 25 60  1  0
M  END
>  <PDBID>  (1) 
3DZY

>  <PDB ID>  (1) 
3DZY

>  <Generic Name>  (1) 
Rosiglitazone

>  <Brand Name>  (1) 
Apo-rosiglitazone#Avandamet#Avandaryl#Avandia#Avandia 2mg#Avandia 4mg#Avandia 8mg#Dom-rosiglitazone#Mylan-rosiglitazone#PHL-rosiglitazone#PMS-rosiglitazone#PMS-rosiglitazone-metformin#Teva-rosiglitazone#Blutab#DH-Rosidia#Diaben#Diaglinex#Gaudil#Gliximina#Naidi#Rogelin#Roglit#Romerol#Rosit#Rosix#Rossini#Sensulin#Sheng Ao#Sheng Min

>  <DrugBank ID>  (1) 
DB00412

>  <ATC Codes>  (1) 
A10BD03#A10BG02#A10BD04

>  <Ligand ID>  (1) 
BRL,RGZ

>  <Target Name>  (1) 
Peroxisome proliferator-activated receptor gamma

>  <UniProt ID>  (1) 
P37231

>  <PDB ID.1>  (1) 
3DZY

>  <Seq. Identity>  (1) 
97%

$$$$
