PDB_DB06603_08
     RDKit          3D

134138  0  0  0  0  0  0  0  0999 V2000
    9.0573    0.7312   -0.0870 O   0  0  0  0  0  0  0  0  0  0  0  0
    8.1022   -0.0574    0.5114 C   0  0  0  0  0  0  0  0  0  0  0  0
    7.9135    0.3260    1.9007 N   0  0  0  0  0  0  0  0  0  0  0  0
    7.5124    1.5919    2.0328 O   0  0  0  0  0  0  0  0  0  0  0  0
    6.7786    0.0964   -0.2389 C   0  0  0  0  0  0  0  0  0  0  0  0
    5.7018   -0.7351    0.3708 C   0  0  0  0  0  0  0  0  0  0  0  0
    4.4123   -0.5877   -0.3862 C   0  0  0  0  0  0  0  0  0  0  0  0
    3.8884    0.8305   -0.4278 C   0  0  0  0  0  0  0  0  0  0  0  0
    2.7450    0.8613   -1.4147 C   0  0  0  0  0  0  0  0  0  0  0  0
    3.3181   -1.4076    0.3173 C   0  0  0  0  0  0  0  0  0  0  0  0
    2.1503   -1.4600   -0.6061 C   0  0  0  0  0  0  0  0  0  0  0  0
    1.7027   -0.1608   -1.1656 C   0  0  0  0  0  0  0  0  0  0  0  0
    0.5095    0.4062   -0.3783 C   0  0  0  0  0  0  0  0  0  0  0  0
   -0.3920   -0.6930   -0.2135 N   0  0  0  0  0  0  0  0  0  0  0  0
   -1.6132   -0.3777    0.5040 C   0  0  0  0  0  0  0  0  0  0  0  0
   -2.4701    0.5212   -0.3447 C   0  0  0  0  0  0  0  0  0  0  0  0
   -3.7595    0.9451    0.2335 C   0  0  0  0  0  0  0  0  0  0  0  0
   -4.7821   -0.0239    0.5963 C   0  0  0  0  0  0  0  0  0  0  0  0
   -6.0349    0.4010   -0.1925 C   0  0  0  0  0  0  0  0  0  0  0  0
   -5.8421    1.8347   -0.2643 N   0  0  0  0  0  0  0  0  0  0  0  0
   -4.4591    1.8474   -0.7732 C   0  0  0  0  0  0  0  0  0  0  0  0
   -3.8831    3.2161   -0.8673 C   0  0  0  0  0  0  0  0  0  0  0  0
   -7.2105    0.0002    0.6300 C   0  0  0  0  0  0  0  0  0  0  0  0
   -7.0435   -1.4885    0.9242 C   0  0  0  0  0  0  0  0  0  0  0  0
   -5.9711   -2.1003    0.0682 C   0  0  0  0  0  0  0  0  0  0  0  0
   -4.6000   -1.4599    0.3450 C   0  0  0  0  0  0  0  0  0  0  0  0
    9.0573    0.7312   -0.0870 O   0  0  0  0  0  0  0  0  0  0  0  0
    8.1022   -0.0574    0.5114 C   0  0  0  0  0  0  0  0  0  0  0  0
    7.9135    0.3260    1.9007 N   0  0  0  0  0  0  0  0  0  0  0  0
    7.5124    1.5919    2.0328 O   0  0  0  0  0  0  0  0  0  0  0  0
    6.7786    0.0964   -0.2389 C   0  0  0  0  0  0  0  0  0  0  0  0
    5.7018   -0.7351    0.3708 C   0  0  0  0  0  0  0  0  0  0  0  0
    4.4123   -0.5877   -0.3862 C   0  0  0  0  0  0  0  0  0  0  0  0
    3.8884    0.8305   -0.4278 C   0  0  0  0  0  0  0  0  0  0  0  0
    2.7450    0.8613   -1.4147 C   0  0  0  0  0  0  0  0  0  0  0  0
    3.3181   -1.4076    0.3173 C   0  0  0  0  0  0  0  0  0  0  0  0
    2.1503   -1.4600   -0.6061 C   0  0  0  0  0  0  0  0  0  0  0  0
    1.7027   -0.1608   -1.1656 C   0  0  0  0  0  0  0  0  0  0  0  0
    0.5095    0.4062   -0.3783 C   0  0  0  0  0  0  0  0  0  0  0  0
   -0.3920   -0.6930   -0.2135 N   0  0  0  0  0  0  0  0  0  0  0  0
   -1.6132   -0.3777    0.5040 C   0  0  0  0  0  0  0  0  0  0  0  0
   -2.4701    0.5212   -0.3447 C   0  0  0  0  0  0  0  0  0  0  0  0
   -3.7595    0.9451    0.2335 C   0  0  0  0  0  0  0  0  0  0  0  0
   -4.7821   -0.0239    0.5963 C   0  0  0  0  0  0  0  0  0  0  0  0
   -6.0349    0.4010   -0.1925 C   0  0  0  0  0  0  0  0  0  0  0  0
   -5.8421    1.8347   -0.2643 N   0  0  0  0  0  0  0  0  0  0  0  0
   -4.4591    1.8474   -0.7732 C   0  0  0  0  0  0  0  0  0  0  0  0
   -3.8831    3.2161   -0.8673 C   0  0  0  0  0  0  0  0  0  0  0  0
   -7.2105    0.0002    0.6300 C   0  0  0  0  0  0  0  0  0  0  0  0
   -7.0435   -1.4885    0.9242 C   0  0  0  0  0  0  0  0  0  0  0  0
   -5.9711   -2.1003    0.0682 C   0  0  0  0  0  0  0  0  0  0  0  0
   -4.6000   -1.4599    0.3450 C   0  0  0  0  0  0  0  0  0  0  0  0
    8.7084    1.3481   -0.7599 H   0  0  0  0  0  0  0  0  0  0  0  0
    8.4655   -1.1129    0.4395 H   0  0  0  0  0  0  0  0  0  0  0  0
    8.8160    0.1517    2.4219 H   0  0  0  0  0  0  0  0  0  0  0  0
    7.8576    2.0158    2.8488 H   0  0  0  0  0  0  0  0  0  0  0  0
    6.9640   -0.1139   -1.2936 H   0  0  0  0  0  0  0  0  0  0  0  0
    6.5122    1.1851   -0.0828 H   0  0  0  0  0  0  0  0  0  0  0  0
    5.9637   -1.8135    0.3502 H   0  0  0  0  0  0  0  0  0  0  0  0
    5.4920   -0.4077    1.4151 H   0  0  0  0  0  0  0  0  0  0  0  0
    4.5406   -1.0117   -1.4255 H   0  0  0  0  0  0  0  0  0  0  0  0
    4.6691    1.5037   -0.8351 H   0  0  0  0  0  0  0  0  0  0  0  0
    3.6122    1.1142    0.5885 H   0  0  0  0  0  0  0  0  0  0  0  0
    2.2757    1.8671   -1.3938 H   0  0  0  0  0  0  0  0  0  0  0  0
    3.1758    0.7286   -2.4264 H   0  0  0  0  0  0  0  0  0  0  0  0
    3.0480   -0.8836    1.2554 H   0  0  0  0  0  0  0  0  0  0  0  0
    3.6628   -2.4444    0.4901 H   0  0  0  0  0  0  0  0  0  0  0  0
    1.2817   -1.9361   -0.1031 H   0  0  0  0  0  0  0  0  0  0  0  0
    2.4363   -2.1528   -1.4494 H   0  0  0  0  0  0  0  0  0  0  0  0
    1.2412   -0.3930   -2.1752 H   0  0  0  0  0  0  0  0  0  0  0  0
    0.8397    0.8628    0.5643 H   0  0  0  0  0  0  0  0  0  0  0  0
    0.0505    1.1973   -0.9955 H   0  0  0  0  0  0  0  0  0  0  0  0
   -0.6252   -1.0723   -1.1548 H   0  0  0  0  0  0  0  0  0  0  0  0
   -2.0714   -1.3486    0.7506 H   0  0  0  0  0  0  0  0  0  0  0  0
   -1.3930    0.1052    1.4820 H   0  0  0  0  0  0  0  0  0  0  0  0
   -1.8583    1.4736   -0.4565 H   0  0  0  0  0  0  0  0  0  0  0  0
   -2.5415    0.1583   -1.3971 H   0  0  0  0  0  0  0  0  0  0  0  0
   -3.5063    1.6052    1.1210 H   0  0  0  0  0  0  0  0  0  0  0  0
   -5.0460    0.0938    1.6919 H   0  0  0  0  0  0  0  0  0  0  0  0
   -6.0290   -0.0639   -1.1855 H   0  0  0  0  0  0  0  0  0  0  0  0
   -5.9050    2.2174    0.6982 H   0  0  0  0  0  0  0  0  0  0  0  0
   -4.4549    1.3241   -1.7385 H   0  0  0  0  0  0  0  0  0  0  0  0
   -3.0489    3.1848   -1.6101 H   0  0  0  0  0  0  0  0  0  0  0  0
   -4.6486    3.8855   -1.3179 H   0  0  0  0  0  0  0  0  0  0  0  0
   -3.5676    3.6129    0.1172 H   0  0  0  0  0  0  0  0  0  0  0  0
   -8.1846    0.2163    0.1482 H   0  0  0  0  0  0  0  0  0  0  0  0
   -7.1815    0.5205    1.6017 H   0  0  0  0  0  0  0  0  0  0  0  0
   -6.8847   -1.6790    1.9970 H   0  0  0  0  0  0  0  0  0  0  0  0
   -7.9998   -1.9715    0.6406 H   0  0  0  0  0  0  0  0  0  0  0  0
   -5.9075   -3.1756    0.3492 H   0  0  0  0  0  0  0  0  0  0  0  0
   -6.2392   -2.0686   -0.9885 H   0  0  0  0  0  0  0  0  0  0  0  0
   -4.2467   -1.9916    1.2791 H   0  0  0  0  0  0  0  0  0  0  0  0
   -4.0043   -1.7515   -0.5354 H   0  0  0  0  0  0  0  0  0  0  0  0
    8.7084    1.3481   -0.7599 H   0  0  0  0  0  0  0  0  0  0  0  0
    8.4655   -1.1129    0.4395 H   0  0  0  0  0  0  0  0  0  0  0  0
    8.8160    0.1517    2.4219 H   0  0  0  0  0  0  0  0  0  0  0  0
    7.8576    2.0158    2.8488 H   0  0  0  0  0  0  0  0  0  0  0  0
    6.9640   -0.1139   -1.2936 H   0  0  0  0  0  0  0  0  0  0  0  0
    6.5122    1.1851   -0.0828 H   0  0  0  0  0  0  0  0  0  0  0  0
    5.9637   -1.8135    0.3502 H   0  0  0  0  0  0  0  0  0  0  0  0
    5.4920   -0.4077    1.4151 H   0  0  0  0  0  0  0  0  0  0  0  0
    4.5406   -1.0117   -1.4255 H   0  0  0  0  0  0  0  0  0  0  0  0
    4.6691    1.5037   -0.8351 H   0  0  0  0  0  0  0  0  0  0  0  0
    3.6122    1.1142    0.5885 H   0  0  0  0  0  0  0  0  0  0  0  0
    2.2757    1.8671   -1.3938 H   0  0  0  0  0  0  0  0  0  0  0  0
    3.1758    0.7286   -2.4264 H   0  0  0  0  0  0  0  0  0  0  0  0
    3.0480   -0.8836    1.2554 H   0  0  0  0  0  0  0  0  0  0  0  0
    3.6628   -2.4444    0.4901 H   0  0  0  0  0  0  0  0  0  0  0  0
    1.2817   -1.9361   -0.1031 H   0  0  0  0  0  0  0  0  0  0  0  0
    2.4363   -2.1528   -1.4494 H   0  0  0  0  0  0  0  0  0  0  0  0
    1.2412   -0.3930   -2.1752 H   0  0  0  0  0  0  0  0  0  0  0  0
    0.8397    0.8628    0.5643 H   0  0  0  0  0  0  0  0  0  0  0  0
    0.0505    1.1973   -0.9955 H   0  0  0  0  0  0  0  0  0  0  0  0
   -0.6252   -1.0723   -1.1548 H   0  0  0  0  0  0  0  0  0  0  0  0
   -2.0714   -1.3486    0.7506 H   0  0  0  0  0  0  0  0  0  0  0  0
   -1.3930    0.1052    1.4820 H   0  0  0  0  0  0  0  0  0  0  0  0
   -1.8583    1.4736   -0.4565 H   0  0  0  0  0  0  0  0  0  0  0  0
   -2.5415    0.1583   -1.3971 H   0  0  0  0  0  0  0  0  0  0  0  0
   -3.5063    1.6052    1.1210 H   0  0  0  0  0  0  0  0  0  0  0  0
   -5.0460    0.0938    1.6919 H   0  0  0  0  0  0  0  0  0  0  0  0
   -6.0290   -0.0639   -1.1855 H   0  0  0  0  0  0  0  0  0  0  0  0
   -5.9050    2.2174    0.6982 H   0  0  0  0  0  0  0  0  0  0  0  0
   -4.4549    1.3241   -1.7385 H   0  0  0  0  0  0  0  0  0  0  0  0
   -3.0489    3.1848   -1.6101 H   0  0  0  0  0  0  0  0  0  0  0  0
   -4.6486    3.8855   -1.3179 H   0  0  0  0  0  0  0  0  0  0  0  0
   -3.5676    3.6129    0.1172 H   0  0  0  0  0  0  0  0  0  0  0  0
   -8.1846    0.2163    0.1482 H   0  0  0  0  0  0  0  0  0  0  0  0
   -7.1815    0.5205    1.6017 H   0  0  0  0  0  0  0  0  0  0  0  0
   -6.8847   -1.6790    1.9970 H   0  0  0  0  0  0  0  0  0  0  0  0
   -7.9998   -1.9715    0.6406 H   0  0  0  0  0  0  0  0  0  0  0  0
   -5.9075   -3.1756    0.3492 H   0  0  0  0  0  0  0  0  0  0  0  0
   -6.2392   -2.0686   -0.9885 H   0  0  0  0  0  0  0  0  0  0  0  0
   -4.2467   -1.9916    1.2791 H   0  0  0  0  0  0  0  0  0  0  0  0
   -4.0043   -1.7515   -0.5354 H   0  0  0  0  0  0  0  0  0  0  0  0
  1  2  1  0
  2  3  1  0
  4  3  1  0
  2  5  1  0
  5  6  1  0
  6  7  1  0
  7  8  1  0
  8  9  1  0
  7 10  1  0
 10 11  1  0
  9 12  1  0
 11 12  1  0
 12 13  1  0
 13 14  1  0
 14 15  1  0
 15 16  1  0
 16 17  1  0
 17 18  1  0
 18 19  1  0
 19 20  1  0
 17 21  1  0
 20 21  1  0
 21 22  1  0
 19 23  1  0
 23 24  1  0
 24 25  1  0
 18 26  1  0
 25 26  1  0
 27 28  1  0
 28 29  1  0
 30 29  1  0
 28 31  1  0
 31 32  1  0
 32 33  1  0
 33 34  1  0
 34 35  1  0
 33 36  1  0
 36 37  1  0
 35 38  1  0
 37 38  1  0
 38 39  1  0
 39 40  1  0
 40 41  1  0
 41 42  1  0
 42 43  1  0
 43 44  1  0
 44 45  1  0
 45 46  1  0
 43 47  1  0
 46 47  1  0
 47 48  1  0
 45 49  1  0
 49 50  1  0
 50 51  1  0
 44 52  1  0
 51 52  1  0
  1 53  1  0
  2 54  1  0
  3 55  1  0
  4 56  1  0
  5 57  1  0
  5 58  1  0
  6 59  1  0
  6 60  1  0
  7 61  1  0
  8 62  1  0
  8 63  1  0
  9 64  1  0
  9 65  1  0
 10 66  1  0
 10 67  1  0
 11 68  1  0
 11 69  1  0
 12 70  1  0
 13 71  1  0
 13 72  1  0
 14 73  1  0
 15 74  1  0
 15 75  1  0
 16 76  1  0
 16 77  1  0
 17 78  1  0
 18 79  1  0
 19 80  1  0
 20 81  1  0
 21 82  1  0
 22 83  1  0
 22 84  1  0
 22 85  1  0
 23 86  1  0
 23 87  1  0
 24 88  1  0
 24 89  1  0
 25 90  1  0
 25 91  1  0
 26 92  1  0
 26 93  1  0
 27 94  1  0
 28 95  1  0
 29 96  1  0
 30 97  1  0
 31 98  1  0
 31 99  1  0
 32100  1  0
 32101  1  0
 33102  1  0
 34103  1  0
 34104  1  0
 35105  1  0
 35106  1  0
 36107  1  0
 36108  1  0
 37109  1  0
 37110  1  0
 38111  1  0
 39112  1  0
 39113  1  0
 40114  1  0
 41115  1  0
 41116  1  0
 42117  1  0
 42118  1  0
 43119  1  0
 44120  1  0
 45121  1  0
 46122  1  0
 47123  1  0
 48124  1  0
 48125  1  0
 48126  1  0
 49127  1  0
 49128  1  0
 50129  1  0
 50130  1  0
 51131  1  0
 51132  1  0
 52133  1  0
 52134  1  0
M  END
>  <PDBID>  (1) 
5EF8

>  <PDB ID>  (1) 
5EF8

>  <Generic Name>  (1) 
Panobinostat

>  <Brand Name>  (1) 
Farydak

>  <DrugBank ID>  (1) 
DB06603

>  <ATC Codes>  (1) 
L01XX42

>  <Ligand ID>  (1) 
LBH

>  <Target Name>  (1) 
Histone deacetylase 9

>  <UniProt ID>  (1) 
Q9UKV0

>  <PDB ID.1>  (1) 
5EF8

>  <Seq. Identity>  (1) 
46%

$$$$
