PDB_DB00421_00
     RDKit          3D

138146  0  0  0  0  0  0  0  0999 V2000
    3.4540    0.3241   -1.4458 C   0  0  0  0  0  0  0  0  0  0  0  0
    1.6903   -0.8814    1.5927 C   0  0  0  0  0  0  0  0  0  0  0  0
    2.1408   -0.6880    0.1880 C   0  0  1  0  0  0  0  0  0  0  0  0
   -1.9244   -1.2903    0.4140 C   0  0  1  0  0  0  0  0  0  0  0  0
    1.3133    0.4537   -0.3944 C   0  0  1  0  0  0  0  0  0  0  0  0
   -2.3744   -2.2494    1.4697 C   0  0  0  0  0  0  0  0  0  0  0  0
    0.3357   -1.5716    1.4713 C   0  0  0  0  0  0  0  0  0  0  0  0
    1.9744    0.5424   -1.7482 C   0  0  0  0  0  0  0  0  0  0  0  0
    3.5147   -0.1469    0.0035 C   0  0  2  0  0  0  0  0  0  0  0  0
    1.9850   -1.9614   -0.5888 C   0  0  0  0  0  0  0  0  0  0  0  0
   -1.8461   -2.0072   -0.9095 C   0  0  0  0  0  0  0  0  0  0  0  0
   -3.7726   -2.7426    1.2493 C   0  0  0  0  0  0  0  0  0  0  0  0
    3.8255    1.0577    0.8438 C   0  0  0  0  0  0  0  0  0  0  0  0
    5.3446    1.0931    0.7210 C   0  0  0  0  0  0  0  0  0  0  0  0
    5.6695   -0.3637    0.5873 C   0  0  0  0  0  0  0  0  0  0  0  0
   -1.1062    4.1563    0.1550 C   0  0  0  0  0  0  0  0  0  0  0  0
   -2.3475    4.6923    0.8319 C   0  0  0  0  0  0  0  0  0  0  0  0
   -4.7462   -1.6667    0.8687 C   0  0  0  0  0  0  0  0  0  0  0  0
   -4.2307   -0.7286   -0.1847 C   0  0  0  0  0  0  0  0  0  0  0  0
   -2.9073   -0.1574    0.2677 C   0  0  2  0  0  0  0  0  0  0  0  0
   -2.4626    0.9064   -0.6835 C   0  0  0  0  0  0  0  0  0  0  0  0
   -1.0107    1.2557   -0.6128 C   0  0  2  0  0  0  0  0  0  0  0  0
   -0.1138    0.0341   -0.4346 C   0  0  2  0  0  0  0  0  0  0  0  0
   -0.6100   -0.6463    0.8004 C   0  0  1  0  0  0  0  0  0  0  0  0
    6.6817   -0.5224   -0.3629 O   0  0  0  0  0  0  0  0  0  0  0  0
    4.5298   -1.0450    0.2331 O   0  0  0  0  0  0  0  0  0  0  0  0
   -1.3000    4.2626   -1.2109 O   0  0  0  0  0  0  0  0  0  0  0  0
   -5.9038   -2.2738    0.3570 O   0  0  0  0  0  0  0  0  0  0  0  0
   -0.7246    2.4784    0.6917 S   0  0  0  0  0  0  0  0  0  0  0  0
    3.4540    0.3241   -1.4458 C   0  0  0  0  0  0  0  0  0  0  0  0
    1.6903   -0.8814    1.5927 C   0  0  0  0  0  0  0  0  0  0  0  0
    2.1408   -0.6880    0.1880 C   0  0  1  0  0  0  0  0  0  0  0  0
   -1.9244   -1.2903    0.4140 C   0  0  1  0  0  0  0  0  0  0  0  0
    1.3133    0.4537   -0.3944 C   0  0  1  0  0  0  0  0  0  0  0  0
   -2.3744   -2.2494    1.4697 C   0  0  0  0  0  0  0  0  0  0  0  0
    0.3357   -1.5716    1.4713 C   0  0  0  0  0  0  0  0  0  0  0  0
    1.9744    0.5424   -1.7482 C   0  0  0  0  0  0  0  0  0  0  0  0
    3.5147   -0.1469    0.0035 C   0  0  2  0  0  0  0  0  0  0  0  0
    1.9850   -1.9614   -0.5888 C   0  0  0  0  0  0  0  0  0  0  0  0
   -1.8461   -2.0072   -0.9095 C   0  0  0  0  0  0  0  0  0  0  0  0
   -3.7726   -2.7426    1.2493 C   0  0  0  0  0  0  0  0  0  0  0  0
    3.8255    1.0577    0.8438 C   0  0  0  0  0  0  0  0  0  0  0  0
    5.3446    1.0931    0.7210 C   0  0  0  0  0  0  0  0  0  0  0  0
    5.6695   -0.3637    0.5873 C   0  0  0  0  0  0  0  0  0  0  0  0
   -1.1062    4.1563    0.1550 C   0  0  0  0  0  0  0  0  0  0  0  0
   -2.3475    4.6923    0.8319 C   0  0  0  0  0  0  0  0  0  0  0  0
   -4.7462   -1.6667    0.8687 C   0  0  0  0  0  0  0  0  0  0  0  0
   -4.2307   -0.7286   -0.1847 C   0  0  0  0  0  0  0  0  0  0  0  0
   -2.9073   -0.1574    0.2677 C   0  0  2  0  0  0  0  0  0  0  0  0
   -2.4626    0.9064   -0.6835 C   0  0  0  0  0  0  0  0  0  0  0  0
   -1.0107    1.2557   -0.6128 C   0  0  2  0  0  0  0  0  0  0  0  0
   -0.1138    0.0341   -0.4346 C   0  0  2  0  0  0  0  0  0  0  0  0
   -0.6100   -0.6463    0.8004 C   0  0  1  0  0  0  0  0  0  0  0  0
    6.6817   -0.5224   -0.3629 O   0  0  0  0  0  0  0  0  0  0  0  0
    4.5298   -1.0450    0.2331 O   0  0  0  0  0  0  0  0  0  0  0  0
   -1.3000    4.2626   -1.2109 O   0  0  0  0  0  0  0  0  0  0  0  0
   -5.9038   -2.2738    0.3570 O   0  0  0  0  0  0  0  0  0  0  0  0
   -0.7246    2.4784    0.6917 S   0  0  0  0  0  0  0  0  0  0  0  0
    4.0206    1.2756   -1.5662 H   0  0  0  0  0  0  0  0  0  0  0  0
    3.8704   -0.4842   -2.0986 H   0  0  0  0  0  0  0  0  0  0  0  0
    2.3636   -1.5583    2.1762 H   0  0  0  0  0  0  0  0  0  0  0  0
    1.5573    0.0491    2.1630 H   0  0  0  0  0  0  0  0  0  0  0  0
    1.5221    1.3526    0.2037 H   0  0  0  0  0  0  0  0  0  0  0  0
   -2.2838   -1.8731    2.4986 H   0  0  0  0  0  0  0  0  0  0  0  0
   -1.6982   -3.1396    1.4094 H   0  0  0  0  0  0  0  0  0  0  0  0
   -0.0144   -1.7187    2.5221 H   0  0  0  0  0  0  0  0  0  0  0  0
    0.4161   -2.5742    1.0314 H   0  0  0  0  0  0  0  0  0  0  0  0
    1.6076   -0.3401   -2.3312 H   0  0  0  0  0  0  0  0  0  0  0  0
    1.7974    1.4971   -2.2631 H   0  0  0  0  0  0  0  0  0  0  0  0
    2.6914   -2.0512   -1.4317 H   0  0  0  0  0  0  0  0  0  0  0  0
    0.9377   -2.1381   -0.8899 H   0  0  0  0  0  0  0  0  0  0  0  0
    2.2407   -2.7959    0.1112 H   0  0  0  0  0  0  0  0  0  0  0  0
   -0.8665   -2.4984   -1.0762 H   0  0  0  0  0  0  0  0  0  0  0  0
   -2.5988   -2.8334   -0.9113 H   0  0  0  0  0  0  0  0  0  0  0  0
   -2.1255   -1.3233   -1.7468 H   0  0  0  0  0  0  0  0  0  0  0  0
   -4.1220   -3.1612    2.2274 H   0  0  0  0  0  0  0  0  0  0  0  0
   -3.8122   -3.6102    0.5429 H   0  0  0  0  0  0  0  0  0  0  0  0
    3.4500    1.9923    0.3951 H   0  0  0  0  0  0  0  0  0  0  0  0
    3.5775    0.9394    1.9106 H   0  0  0  0  0  0  0  0  0  0  0  0
    5.6603    1.6135   -0.2156 H   0  0  0  0  0  0  0  0  0  0  0  0
    5.8088    1.5683    1.6012 H   0  0  0  0  0  0  0  0  0  0  0  0
    6.0666   -0.7063    1.5667 H   0  0  0  0  0  0  0  0  0  0  0  0
   -0.2703    4.8546    0.4110 H   0  0  0  0  0  0  0  0  0  0  0  0
   -2.6250    5.6516    0.3564 H   0  0  0  0  0  0  0  0  0  0  0  0
   -2.1689    4.9004    1.8989 H   0  0  0  0  0  0  0  0  0  0  0  0
   -3.2120    4.0201    0.7230 H   0  0  0  0  0  0  0  0  0  0  0  0
   -4.9768   -1.0847    1.7738 H   0  0  0  0  0  0  0  0  0  0  0  0
   -4.1753   -1.1763   -1.1937 H   0  0  0  0  0  0  0  0  0  0  0  0
   -4.9640    0.1144   -0.2494 H   0  0  0  0  0  0  0  0  0  0  0  0
   -3.0781    0.2466    1.2976 H   0  0  0  0  0  0  0  0  0  0  0  0
   -2.7438    0.6776   -1.7265 H   0  0  0  0  0  0  0  0  0  0  0  0
   -3.0311    1.8331   -0.4139 H   0  0  0  0  0  0  0  0  0  0  0  0
   -0.7347    1.7252   -1.5877 H   0  0  0  0  0  0  0  0  0  0  0  0
   -0.2658   -0.5665   -1.3668 H   0  0  0  0  0  0  0  0  0  0  0  0
   -0.8706    0.1574    1.5354 H   0  0  0  0  0  0  0  0  0  0  0  0
    6.3789   -0.2251   -1.2522 H   0  0  0  0  0  0  0  0  0  0  0  0
   -1.8606    3.5578   -1.5985 H   0  0  0  0  0  0  0  0  0  0  0  0
   -6.5470   -2.4817    1.0872 H   0  0  0  0  0  0  0  0  0  0  0  0
    4.0206    1.2756   -1.5662 H   0  0  0  0  0  0  0  0  0  0  0  0
    3.8704   -0.4842   -2.0986 H   0  0  0  0  0  0  0  0  0  0  0  0
    2.3636   -1.5583    2.1762 H   0  0  0  0  0  0  0  0  0  0  0  0
    1.5573    0.0491    2.1630 H   0  0  0  0  0  0  0  0  0  0  0  0
    1.5221    1.3526    0.2037 H   0  0  0  0  0  0  0  0  0  0  0  0
   -2.2838   -1.8731    2.4986 H   0  0  0  0  0  0  0  0  0  0  0  0
   -1.6982   -3.1396    1.4094 H   0  0  0  0  0  0  0  0  0  0  0  0
   -0.0144   -1.7187    2.5221 H   0  0  0  0  0  0  0  0  0  0  0  0
    0.4161   -2.5742    1.0314 H   0  0  0  0  0  0  0  0  0  0  0  0
    1.6076   -0.3401   -2.3312 H   0  0  0  0  0  0  0  0  0  0  0  0
    1.7974    1.4971   -2.2631 H   0  0  0  0  0  0  0  0  0  0  0  0
    2.6914   -2.0512   -1.4317 H   0  0  0  0  0  0  0  0  0  0  0  0
    0.9377   -2.1381   -0.8899 H   0  0  0  0  0  0  0  0  0  0  0  0
    2.2407   -2.7959    0.1112 H   0  0  0  0  0  0  0  0  0  0  0  0
   -0.8665   -2.4984   -1.0762 H   0  0  0  0  0  0  0  0  0  0  0  0
   -2.5988   -2.8334   -0.9113 H   0  0  0  0  0  0  0  0  0  0  0  0
   -2.1255   -1.3233   -1.7468 H   0  0  0  0  0  0  0  0  0  0  0  0
   -4.1220   -3.1612    2.2274 H   0  0  0  0  0  0  0  0  0  0  0  0
   -3.8122   -3.6102    0.5429 H   0  0  0  0  0  0  0  0  0  0  0  0
    3.4500    1.9923    0.3951 H   0  0  0  0  0  0  0  0  0  0  0  0
    3.5775    0.9394    1.9106 H   0  0  0  0  0  0  0  0  0  0  0  0
    5.6603    1.6135   -0.2156 H   0  0  0  0  0  0  0  0  0  0  0  0
    5.8088    1.5683    1.6012 H   0  0  0  0  0  0  0  0  0  0  0  0
    6.0666   -0.7063    1.5667 H   0  0  0  0  0  0  0  0  0  0  0  0
   -0.2703    4.8546    0.4110 H   0  0  0  0  0  0  0  0  0  0  0  0
   -2.6250    5.6516    0.3564 H   0  0  0  0  0  0  0  0  0  0  0  0
   -2.1689    4.9004    1.8989 H   0  0  0  0  0  0  0  0  0  0  0  0
   -3.2120    4.0201    0.7230 H   0  0  0  0  0  0  0  0  0  0  0  0
   -4.9768   -1.0847    1.7738 H   0  0  0  0  0  0  0  0  0  0  0  0
   -4.1753   -1.1763   -1.1937 H   0  0  0  0  0  0  0  0  0  0  0  0
   -4.9640    0.1144   -0.2494 H   0  0  0  0  0  0  0  0  0  0  0  0
   -3.0781    0.2466    1.2976 H   0  0  0  0  0  0  0  0  0  0  0  0
   -2.7438    0.6776   -1.7265 H   0  0  0  0  0  0  0  0  0  0  0  0
   -3.0311    1.8331   -0.4139 H   0  0  0  0  0  0  0  0  0  0  0  0
   -0.7347    1.7252   -1.5877 H   0  0  0  0  0  0  0  0  0  0  0  0
   -0.2658   -0.5665   -1.3668 H   0  0  0  0  0  0  0  0  0  0  0  0
   -0.8706    0.1574    1.5354 H   0  0  0  0  0  0  0  0  0  0  0  0
    6.3789   -0.2251   -1.2522 H   0  0  0  0  0  0  0  0  0  0  0  0
   -1.8606    3.5578   -1.5985 H   0  0  0  0  0  0  0  0  0  0  0  0
   -6.5470   -2.4817    1.0872 H   0  0  0  0  0  0  0  0  0  0  0  0
  2  3  1  0
  3  5  1  0
  4  6  1  0
  2  7  1  0
  1  8  1  0
  5  8  1  0
  1  9  1  0
  3  9  1  0
  3 10  1  6
  4 11  1  6
  6 12  1  0
  9 13  1  0
 13 14  1  0
 14 15  1  0
 16 17  1  0
 12 18  1  0
 18 19  1  0
  4 20  1  0
 19 20  1  0
 20 21  1  0
 21 22  1  0
  5 23  1  0
 22 23  1  0
  4 24  1  0
  7 24  1  0
 23 24  1  0
 15 25  1  0
  9 26  1  6
 15 26  1  0
 16 27  1  0
 18 28  1  0
 16 29  1  0
 22 29  1  0
 31 32  1  0
 32 34  1  0
 33 35  1  0
 31 36  1  0
 30 37  1  0
 34 37  1  0
 30 38  1  0
 32 38  1  0
 32 39  1  6
 33 40  1  6
 35 41  1  0
 38 42  1  0
 42 43  1  0
 43 44  1  0
 45 46  1  0
 41 47  1  0
 47 48  1  0
 33 49  1  0
 48 49  1  0
 49 50  1  0
 50 51  1  0
 34 52  1  0
 51 52  1  0
 33 53  1  0
 36 53  1  0
 52 53  1  0
 44 54  1  0
 38 55  1  6
 44 55  1  0
 45 56  1  0
 47 57  1  0
 45 58  1  0
 51 58  1  0
  1 59  1  0
  1 60  1  0
  2 61  1  0
  2 62  1  0
  5 63  1  1
  6 64  1  0
  6 65  1  0
  7 66  1  0
  7 67  1  0
  8 68  1  0
  8 69  1  0
 10 70  1  0
 10 71  1  0
 10 72  1  0
 11 73  1  0
 11 74  1  0
 11 75  1  0
 12 76  1  0
 12 77  1  0
 13 78  1  0
 13 79  1  0
 14 80  1  0
 14 81  1  0
 15 82  1  0
 16 83  1  0
 17 84  1  0
 17 85  1  0
 17 86  1  0
 18 87  1  0
 19 88  1  0
 19 89  1  0
 20 90  1  1
 21 91  1  0
 21 92  1  0
 22 93  1  6
 23 94  1  6
 24 95  1  1
 25 96  1  0
 27 97  1  0
 28 98  1  0
 30 99  1  0
 30100  1  0
 31101  1  0
 31102  1  0
 34103  1  1
 35104  1  0
 35105  1  0
 36106  1  0
 36107  1  0
 37108  1  0
 37109  1  0
 39110  1  0
 39111  1  0
 39112  1  0
 40113  1  0
 40114  1  0
 40115  1  0
 41116  1  0
 41117  1  0
 42118  1  0
 42119  1  0
 43120  1  0
 43121  1  0
 44122  1  0
 45123  1  0
 46124  1  0
 46125  1  0
 46126  1  0
 47127  1  0
 48128  1  0
 48129  1  0
 49130  1  1
 50131  1  0
 50132  1  0
 51133  1  6
 52134  1  6
 53135  1  1
 54136  1  0
 56137  1  0
 57138  1  0
M  END
>  <PDBID>  (1) 
2AB2

>  <PDB ID>  (1) 
2AB2

>  <Generic Name>  (1) 
Spironolactone

>  <Brand Name>  (1) 
Aldactazide#Aldactazide 25#Aldactazide 50#Aldactone#Aldactone 100 mg#Aldactone 25 mg#Apo-spirozide Tab#Ntp-spironolactone#Spironolactone#Spironolactone and Hydrochlorothiazide#Teva-spironolactone#Teva-spironolactone/hctz#Osyrol#Spiresis#Spiretic#Spiroctan#Uractone#Verospiron#Xenalon

>  <DrugBank ID>  (1) 
DB00421

>  <ATC Codes>  (1) 
C03DA01

>  <Ligand ID>  (1) 
SNL

>  <Target Name>  (1) 
Mineralocorticoid receptor

>  <UniProt ID>  (1) 
P08235

>  <PDB ID.1>  (1) 
2AB2

>  <Seq. Identity>  (1) 
99%

$$$$
