PDB_DB00491_01
     RDKit          3D

 31 31  0  0  0  0  0  0  0  0999 V2000
   -4.1044   -0.4983    0.4076 O   0  0  0  0  0  0  0  0  0  0  0  0
   -1.1462    2.5672   -0.5657 O   0  0  0  0  0  0  0  0  0  0  0  0
    1.6827   -2.6174   -0.0554 O   0  0  0  0  0  0  0  0  0  0  0  0
    2.9180    0.3124   -1.3267 O   0  0  0  0  0  0  0  0  0  0  0  0
    2.0556    0.4099    2.0372 O   0  0  0  0  0  0  0  0  0  0  0  0
   -2.7869   -0.9441    0.6194 C   0  0  0  0  0  0  0  0  0  0  0  0
    0.1543    2.0864   -0.5162 C   0  0  0  0  0  0  0  0  0  0  0  0
   -1.8713    0.1973    0.2307 C   0  0  0  0  0  0  0  0  0  0  0  0
   -0.0789   -1.1085   -0.5353 C   0  0  0  0  0  0  0  0  0  0  0  0
    1.3588   -1.3845   -0.6624 C   0  0  1  0  0  0  0  0  0  0  0  0
    2.3038   -0.3287   -0.2264 C   0  0  2  0  0  0  0  0  0  0  0  0
    1.7723    0.7050    0.6844 C   0  0  1  0  0  0  0  0  0  0  0  0
    0.3184    1.0293    0.5462 C   0  0  2  0  0  0  0  0  0  0  0  0
   -0.4878   -0.1197    0.3977 N   0  0  0  0  0  0  0  0  0  0  0  0
   -4.4892   -0.8805   -0.4275 H   0  0  0  0  0  0  0  0  0  0  0  0
   -1.3999    2.9366   -1.4419 H   0  0  0  0  0  0  0  0  0  0  0  0
    0.9899   -2.9023    0.5711 H   0  0  0  0  0  0  0  0  0  0  0  0
    3.7592   -0.1373   -1.5774 H   0  0  0  0  0  0  0  0  0  0  0  0
    1.4844   -0.3255    2.3722 H   0  0  0  0  0  0  0  0  0  0  0  0
   -2.6739   -1.2310    1.6773 H   0  0  0  0  0  0  0  0  0  0  0  0
   -2.6625   -1.8296   -0.0288 H   0  0  0  0  0  0  0  0  0  0  0  0
    0.8148    2.9505   -0.2749 H   0  0  0  0  0  0  0  0  0  0  0  0
    0.5004    1.7124   -1.5150 H   0  0  0  0  0  0  0  0  0  0  0  0
   -2.1651    1.0531    0.8888 H   0  0  0  0  0  0  0  0  0  0  0  0
   -2.1628    0.4839   -0.8001 H   0  0  0  0  0  0  0  0  0  0  0  0
   -0.6077   -2.0617   -0.2273 H   0  0  0  0  0  0  0  0  0  0  0  0
   -0.5610   -0.8636   -1.5255 H   0  0  0  0  0  0  0  0  0  0  0  0
    1.5699   -1.5783   -1.7595 H   0  0  0  0  0  0  0  0  0  0  0  0
    3.1692   -0.8231    0.3106 H   0  0  0  0  0  0  0  0  0  0  0  0
    2.3249    1.6757    0.5056 H   0  0  0  0  0  0  0  0  0  0  0  0
    0.0209    1.5145    1.5238 H   0  0  0  0  0  0  0  0  0  0  0  0
  1  6  1  0
  2  7  1  0
  6  8  1  0
  3 10  1  0
  9 10  1  0
  4 11  1  0
 10 11  1  0
  5 12  1  0
 11 12  1  0
  7 13  1  0
 12 13  1  0
  8 14  1  0
  9 14  1  0
 13 14  1  0
  1 15  1  0
  2 16  1  0
  3 17  1  0
  4 18  1  0
  5 19  1  0
  6 20  1  0
  6 21  1  0
  7 22  1  0
  7 23  1  0
  8 24  1  0
  8 25  1  0
  9 26  1  0
  9 27  1  0
 10 28  1  6
 11 29  1  1
 12 30  1  6
 13 31  1  1
M  END
>  <PDBID>  (1) 
3L4W

>  <PDB ID>  (1) 
3L4W

>  <Generic Name>  (1) 
Miglitol

>  <Brand Name>  (1) 
Glyset#Miglitol#Diaban#Diamig#Diaset#Diastabol#Elitox#Euglitol#Glycet#Laiping#Migbose#Miglit#Mignar#Migtor#Misobit#Plumarol#Seibule

>  <DrugBank ID>  (1) 
DB00491

>  <ATC Codes>  (1) 
A10BF02

>  <Ligand ID>  (1) 
MIG

>  <Target Name>  (1) 
Maltase-glucoamylase, intestinal

>  <UniProt ID>  (1) 
O43451

>  <PDB ID.1>  (1) 
3L4W

>  <Seq. Identity>  (1) 
99%

$$$$
