PDB_DB09073_06
     RDKit          3D

 80 84  0  0  0  0  0  0  0  0999 V2000
   -6.0748   -0.2372    2.7664 O   0  0  0  0  0  0  0  0  0  0  0  0
   -5.2912   -1.1133    1.9809 C   0  0  0  0  0  0  0  0  0  0  0  0
   -6.0755   -1.4543    0.7513 C   0  0  0  0  0  0  0  0  0  0  0  0
   -4.0093   -0.4081    1.7004 C   0  0  0  0  0  0  0  0  0  0  0  0
   -3.0665   -1.2496    0.8562 C   0  0  2  0  0  0  0  0  0  0  0  0
   -2.8313   -2.5448    1.6054 C   0  0  0  0  0  0  0  0  0  0  0  0
   -1.7287   -0.4983    0.7751 C   0  0  1  0  0  0  0  0  0  0  0  0
   -0.8991   -1.1803   -0.2482 C   0  0  0  0  0  0  0  0  0  0  0  0
    0.1634   -0.4279   -0.8192 N   0  0  0  0  0  0  0  0  0  0  0  0
    0.2623    0.9384   -0.4302 C   0  0  0  0  0  0  0  0  0  0  0  0
   -1.0192    1.5437   -0.3953 N   0  0  0  0  0  0  0  0  0  0  0  0
   -1.9816    0.9599    0.4955 C   0  0  1  0  0  0  0  0  0  0  0  0
   -3.3004    1.1178    0.0448 N   0  0  0  0  0  0  0  0  0  0  0  0
   -3.5402    1.5639   -1.2498 C   0  0  0  0  0  0  0  0  0  0  0  0
   -3.0275    0.6555   -2.3482 C   0  0  0  0  0  0  0  0  0  0  0  0
   -3.6202    1.2850   -3.5830 C   0  0  0  0  0  0  0  0  0  0  0  0
   -4.8548    2.0244   -3.1285 C   0  0  0  0  0  0  0  0  0  0  0  0
   -4.9854    1.7072   -1.6340 C   0  0  0  0  0  0  0  0  0  0  0  0
   -4.3521    0.8781    0.9329 C   0  0  0  0  0  0  0  0  0  0  0  0
   -4.3449    1.8935    1.9188 O   0  0  0  0  0  0  0  0  0  0  0  0
    1.0777    1.1754    0.7321 N   0  0  0  0  0  0  0  0  0  0  0  0
    2.4420    0.7957    0.5715 C   0  0  0  0  0  0  0  0  0  0  0  0
    3.1930    1.1698    1.7570 N   0  0  0  0  0  0  0  0  0  0  0  0
    4.6170    1.1725    1.4545 C   0  0  0  0  0  0  0  0  0  0  0  0
    5.0843   -0.1522    0.8891 C   0  0  1  0  0  0  0  0  0  0  0  0
    3.9683   -1.1315    0.9789 C   0  0  0  0  0  0  0  0  0  0  0  0
    2.7023   -0.6483    0.3184 C   0  0  0  0  0  0  0  0  0  0  0  0
    5.5614    0.0323   -0.4429 N   0  0  0  0  0  0  0  0  0  0  0  0
    6.6959    0.8710   -0.5806 C   0  0  0  0  0  0  0  0  0  0  0  0
    8.0032    0.2080   -0.2370 C   0  0  0  0  0  0  0  0  0  0  0  0
    7.9254   -1.1772    0.0380 N   0  0  0  0  0  0  0  0  0  0  0  0
    6.9694   -1.9348   -0.6809 C   0  0  0  0  0  0  0  0  0  0  0  0
    5.7838   -1.1735   -1.1899 C   0  0  0  0  0  0  0  0  0  0  0  0
   -5.4875   -1.2307   -0.1790 H   0  0  0  0  0  0  0  0  0  0  0  0
   -6.4371   -2.5191    0.7563 H   0  0  0  0  0  0  0  0  0  0  0  0
   -6.9964   -0.8397    0.6810 H   0  0  0  0  0  0  0  0  0  0  0  0
   -3.6756   -3.2496    1.4912 H   0  0  0  0  0  0  0  0  0  0  0  0
   -2.6865   -2.3608    2.6961 H   0  0  0  0  0  0  0  0  0  0  0  0
   -1.9439   -3.0603    1.1795 H   0  0  0  0  0  0  0  0  0  0  0  0
   -0.4289   -2.1013    0.2109 H   0  0  0  0  0  0  0  0  0  0  0  0
   -3.0636    2.5614   -1.4061 H   0  0  0  0  0  0  0  0  0  0  0  0
   -1.9400    0.6341   -2.4266 H   0  0  0  0  0  0  0  0  0  0  0  0
   -3.4995   -0.3447   -2.2346 H   0  0  0  0  0  0  0  0  0  0  0  0
   -2.8472    1.9788   -4.0095 H   0  0  0  0  0  0  0  0  0  0  0  0
   -3.8647    0.4738   -4.3260 H   0  0  0  0  0  0  0  0  0  0  0  0
   -5.7198    1.6176   -3.7012 H   0  0  0  0  0  0  0  0  0  0  0  0
   -4.7447    3.1215   -3.2775 H   0  0  0  0  0  0  0  0  0  0  0  0
   -5.5290    0.7298   -1.6021 H   0  0  0  0  0  0  0  0  0  0  0  0
   -5.5151    2.5122   -1.0989 H   0  0  0  0  0  0  0  0  0  0  0  0
    0.6851    0.6978    1.5625 H   0  0  0  0  0  0  0  0  0  0  0  0
    5.1228    1.4445    2.4069 H   0  0  0  0  0  0  0  0  0  0  0  0
    4.2224   -2.1403    0.5988 H   0  0  0  0  0  0  0  0  0  0  0  0
    1.8530   -1.3107    0.6029 H   0  0  0  0  0  0  0  0  0  0  0  0
    6.7764    1.1346   -1.6784 H   0  0  0  0  0  0  0  0  0  0  0  0
    6.5825    1.8431   -0.0743 H   0  0  0  0  0  0  0  0  0  0  0  0
    8.3754    0.7221    0.6981 H   0  0  0  0  0  0  0  0  0  0  0  0
    8.7987    0.3996   -0.9987 H   0  0  0  0  0  0  0  0  0  0  0  0
    8.0894   -1.4630    1.0238 H   0  0  0  0  0  0  0  0  0  0  0  0
    6.6361   -2.7857   -0.0196 H   0  0  0  0  0  0  0  0  0  0  0  0
    7.4685   -2.4222   -1.5369 H   0  0  0  0  0  0  0  0  0  0  0  0
    4.9212   -1.8353   -1.2945 H   0  0  0  0  0  0  0  0  0  0  0  0
    6.0318   -0.8376   -2.2401 H   0  0  0  0  0  0  0  0  0  0  0  0
   -6.7748    0.2038    2.1944 H   0  0  0  0  0  0  0  0  0  0  0  0
   -5.1072   -2.0515    2.5704 H   0  0  0  0  0  0  0  0  0  0  0  0
   -3.4917   -0.1996    2.6438 H   0  0  0  0  0  0  0  0  0  0  0  0
   -3.4659   -1.4960   -0.1292 H   0  0  0  0  0  0  0  0  0  0  0  0
   -1.2765   -0.6470    1.7783 H   0  0  0  0  0  0  0  0  0  0  0  0
   -1.5133   -1.6025   -1.0937 H   0  0  0  0  0  0  0  0  0  0  0  0
    0.2858   -0.5701   -1.8428 H   0  0  0  0  0  0  0  0  0  0  0  0
    0.8203    1.4538   -1.2768 H   0  0  0  0  0  0  0  0  0  0  0  0
   -0.9582    2.5770   -0.3127 H   0  0  0  0  0  0  0  0  0  0  0  0
   -1.8808    1.4958    1.4679 H   0  0  0  0  0  0  0  0  0  0  0  0
   -5.3157    0.7816    0.4367 H   0  0  0  0  0  0  0  0  0  0  0  0
   -5.0371    2.5750    1.7484 H   0  0  0  0  0  0  0  0  0  0  0  0
    2.8611    1.4300   -0.2606 H   0  0  0  0  0  0  0  0  0  0  0  0
    2.9640    0.5686    2.5743 H   0  0  0  0  0  0  0  0  0  0  0  0
    4.7571    2.0079    0.7265 H   0  0  0  0  0  0  0  0  0  0  0  0
    5.9184   -0.4796    1.5576 H   0  0  0  0  0  0  0  0  0  0  0  0
    3.7508   -1.2871    2.0760 H   0  0  0  0  0  0  0  0  0  0  0  0
    2.8332   -0.7908   -0.7840 H   0  0  0  0  0  0  0  0  0  0  0  0
  1  2  1  0
  2  3  1  0
  2  4  1  0
  4  5  1  0
  5  6  1  0
  5  7  1  0
  7  8  1  0
  8  9  1  0
  9 10  1  0
 10 11  1  0
  7 12  1  0
 11 12  1  0
 12 13  1  0
 13 14  1  0
 14 15  1  0
 15 16  1  0
 16 17  1  0
 14 18  1  0
 17 18  1  0
  4 19  1  0
 13 19  1  0
 19 20  1  0
 10 21  1  0
 21 22  1  0
 22 23  1  0
 23 24  1  0
 24 25  1  0
 25 26  1  0
 22 27  1  0
 26 27  1  0
 25 28  1  0
 28 29  1  0
 29 30  1  0
 30 31  1  0
 31 32  1  0
 28 33  1  0
 32 33  1  0
  3 34  1  0
  3 35  1  0
  3 36  1  0
  6 37  1  0
  6 38  1  0
  6 39  1  0
  8 40  1  0
 14 41  1  0
 15 42  1  0
 15 43  1  0
 16 44  1  0
 16 45  1  0
 17 46  1  0
 17 47  1  0
 18 48  1  0
 18 49  1  0
 21 50  1  0
 24 51  1  0
 26 52  1  0
 27 53  1  0
 29 54  1  0
 29 55  1  0
 30 56  1  0
 30 57  1  0
 31 58  1  0
 32 59  1  0
 32 60  1  0
 33 61  1  0
 33 62  1  0
  1 63  1  0
  2 64  1  0
  4 65  1  0
  5 66  1  6
  7 67  1  1
  8 68  1  0
  9 69  1  0
 10 70  1  0
 11 71  1  0
 12 72  1  1
 19 73  1  0
 20 74  1  0
 22 75  1  0
 23 76  1  0
 24 77  1  0
 25 78  1  1
 26 79  1  0
 27 80  1  0
M  END
>  <PDBID>  (1) 
5L2I

>  <PDB ID>  (1) 
5L2I

>  <Generic Name>  (1) 
Palbociclib

>  <Brand Name>  (1) 
Ibrance

>  <DrugBank ID>  (1) 
DB09073

>  <ATC Codes>  (1) 
L01XE33

>  <Ligand ID>  (1) 
LQQ

>  <Target Name>  (1) 
Cyclin-dependent kinase 6

>  <UniProt ID>  (1) 
Q00534

>  <PDB ID.1>  (1) 
5L2I

>  <Seq. Identity>  (1) 
100%

$$$$
