PDB_DB04868_04
     RDKit          3D

 91 95  0  0  0  0  0  0  0  0999 V2000
    1.9683   -0.2243   -1.7263 O   0  0  0  0  0  0  0  0  0  0  0  0
    1.3602   -0.3270   -0.4809 C   0  0  1  0  0  0  0  0  0  0  0  0
    2.2617   -0.5251    0.5896 N   0  0  0  0  0  0  0  0  0  0  0  0
    3.2290    0.4738    0.8472 C   0  0  2  0  0  0  0  0  0  0  0  0
    4.2224    0.7406   -0.2199 C   0  0  0  0  0  0  0  0  0  0  0  0
    5.1022   -0.4095   -0.5850 C   0  0  0  0  0  0  0  0  0  0  0  0
    6.3213    0.1350   -1.2025 N   0  0  0  0  0  0  0  0  0  0  0  0
    7.0817    0.9494   -0.3345 C   0  0  0  0  0  0  0  0  0  0  0  0
    8.5106    0.4945   -0.4682 C   0  0  0  0  0  0  0  0  0  0  0  0
    9.3887    1.5856   -1.0678 C   0  0  0  0  0  0  0  0  0  0  0  0
    8.4952   -0.6660   -1.3131 N   0  0  0  0  0  0  0  0  0  0  0  0
    7.1540   -0.8807   -1.7564 C   0  0  0  0  0  0  0  0  0  0  0  0
    5.3922   -1.3845    0.4812 C   0  0  0  0  0  0  0  0  0  0  0  0
    4.0331    0.0116    2.0739 C   0  0  0  0  0  0  0  0  0  0  0  0
    4.5538   -1.3511    1.6935 C   0  0  0  0  0  0  0  0  0  0  0  0
    5.2691   -2.0202    2.8638 C   0  0  0  0  0  0  0  0  0  0  0  0
    5.4981   -3.3379    2.4465 F   0  0  0  0  0  0  0  0  0  0  0  0
    6.4978   -1.4624    3.1007 F   0  0  0  0  0  0  0  0  0  0  0  0
    4.4532   -2.0714    3.9561 F   0  0  0  0  0  0  0  0  0  0  0  0
    0.4502    0.8736   -0.3431 C   0  0  1  0  0  0  0  0  0  0  0  0
   -0.5449    0.7843   -1.4816 C   0  0  0  0  0  0  0  0  0  0  0  0
   -1.5163    1.9222   -1.4883 C   0  0  0  0  0  0  0  0  0  0  0  0
   -2.0759    2.1730   -0.1208 C   0  0  0  0  0  0  0  0  0  0  0  0
   -3.4520    2.7402   -0.1001 C   0  0  0  0  0  0  0  0  0  0  0  0
   -1.8131    1.0180    0.7681 C   0  0  2  0  0  0  0  0  0  0  0  0
   -0.2658    0.9582    0.9555 C   0  0  0  0  0  0  0  0  0  0  0  0
   -2.2913   -0.2510    0.5063 N   0  0  0  0  0  0  0  0  0  0  0  0
   -3.6590   -0.5813    0.4730 C   0  0  0  0  0  0  0  0  0  0  0  0
   -3.8604   -2.0361    0.4729 N   0  0  0  0  0  0  0  0  0  0  0  0
   -3.9498   -2.5818   -0.8545 C   0  0  0  0  0  0  0  0  0  0  0  0
   -5.2493   -2.1019   -1.4928 C   0  0  0  0  0  0  0  0  0  0  0  0
   -5.6007   -0.7254   -0.9849 C   0  0  0  0  0  0  0  0  0  0  0  0
   -4.3906    0.0042   -0.6141 N   0  0  0  0  0  0  0  0  0  0  0  0
   -6.5225   -0.7194    0.2076 C   0  0  0  0  0  0  0  0  0  0  0  0
   -7.8590   -1.3733   -0.0462 C   0  0  0  0  0  0  0  0  0  0  0  0
   -8.7106   -0.5645   -0.9938 C   0  0  0  0  0  0  0  0  0  0  0  0
   -8.6594    0.9083   -0.6514 C   0  0  0  0  0  0  0  0  0  0  0  0
   -8.0732    1.1377    0.6508 N   0  0  0  0  0  0  0  0  0  0  0  0
   -6.7089    0.6865    0.7439 C   0  0  0  0  0  0  0  0  0  0  0  0
    1.4380   -0.6530   -2.4543 H   0  0  0  0  0  0  0  0  0  0  0  0
    0.6906   -1.2160   -0.5351 H   0  0  0  0  0  0  0  0  0  0  0  0
    1.7491   -0.7753    1.4513 H   0  0  0  0  0  0  0  0  0  0  0  0
    2.7970    1.4562    1.1579 H   0  0  0  0  0  0  0  0  0  0  0  0
    3.7059    1.1875   -1.0922 H   0  0  0  0  0  0  0  0  0  0  0  0
    4.8955    1.5653    0.1627 H   0  0  0  0  0  0  0  0  0  0  0  0
    4.5987   -0.9433   -1.4213 H   0  0  0  0  0  0  0  0  0  0  0  0
    6.8059    0.8894    0.7345 H   0  0  0  0  0  0  0  0  0  0  0  0
    7.0578    2.0387   -0.5919 H   0  0  0  0  0  0  0  0  0  0  0  0
    8.9695    0.2422    0.5095 H   0  0  0  0  0  0  0  0  0  0  0  0
    9.2162    1.6735   -2.1589 H   0  0  0  0  0  0  0  0  0  0  0  0
    9.1483    2.5462   -0.5429 H   0  0  0  0  0  0  0  0  0  0  0  0
   10.4465    1.3776   -0.8499 H   0  0  0  0  0  0  0  0  0  0  0  0
    8.8764   -1.4827   -0.8022 H   0  0  0  0  0  0  0  0  0  0  0  0
    7.1452   -0.7361   -2.8749 H   0  0  0  0  0  0  0  0  0  0  0  0
    6.8035   -1.9065   -1.5257 H   0  0  0  0  0  0  0  0  0  0  0  0
    6.4673   -1.2345    0.8023 H   0  0  0  0  0  0  0  0  0  0  0  0
    5.3953   -2.4463    0.0917 H   0  0  0  0  0  0  0  0  0  0  0  0
    3.3829   -0.1050    2.9577 H   0  0  0  0  0  0  0  0  0  0  0  0
    4.8168    0.7268    2.3312 H   0  0  0  0  0  0  0  0  0  0  0  0
    3.6317   -1.9858    1.5303 H   0  0  0  0  0  0  0  0  0  0  0  0
    1.0304    1.8231   -0.5419 H   0  0  0  0  0  0  0  0  0  0  0  0
    0.0322    0.8297   -2.4446 H   0  0  0  0  0  0  0  0  0  0  0  0
   -1.0135   -0.2167   -1.4616 H   0  0  0  0  0  0  0  0  0  0  0  0
   -2.3460    1.6799   -2.1742 H   0  0  0  0  0  0  0  0  0  0  0  0
   -1.0622    2.8547   -1.9162 H   0  0  0  0  0  0  0  0  0  0  0  0
   -1.4087    3.0215    0.2923 H   0  0  0  0  0  0  0  0  0  0  0  0
   -3.3775    3.8580    0.0875 H   0  0  0  0  0  0  0  0  0  0  0  0
   -4.0150    2.6783   -1.0430 H   0  0  0  0  0  0  0  0  0  0  0  0
   -3.9828    2.3673    0.7961 H   0  0  0  0  0  0  0  0  0  0  0  0
   -2.2228    1.3332    1.7920 H   0  0  0  0  0  0  0  0  0  0  0  0
   -0.1214    0.0203    1.5340 H   0  0  0  0  0  0  0  0  0  0  0  0
   -0.0402    1.8628    1.5573 H   0  0  0  0  0  0  0  0  0  0  0  0
   -1.7496   -0.9922    0.9979 H   0  0  0  0  0  0  0  0  0  0  0  0
   -4.1331   -0.2245    1.4328 H   0  0  0  0  0  0  0  0  0  0  0  0
   -3.0924   -2.4788    1.0236 H   0  0  0  0  0  0  0  0  0  0  0  0
   -3.1221   -2.2296   -1.4932 H   0  0  0  0  0  0  0  0  0  0  0  0
   -3.9710   -3.6746   -0.8540 H   0  0  0  0  0  0  0  0  0  0  0  0
   -6.0856   -2.7818   -1.3389 H   0  0  0  0  0  0  0  0  0  0  0  0
   -5.0521   -2.0069   -2.5936 H   0  0  0  0  0  0  0  0  0  0  0  0
   -6.0453   -0.1680   -1.8494 H   0  0  0  0  0  0  0  0  0  0  0  0
   -3.7536   -0.0252   -1.4547 H   0  0  0  0  0  0  0  0  0  0  0  0
   -6.0337   -1.3138    1.0015 H   0  0  0  0  0  0  0  0  0  0  0  0
   -8.3702   -1.3844    0.9623 H   0  0  0  0  0  0  0  0  0  0  0  0
   -7.7185   -2.4110   -0.3270 H   0  0  0  0  0  0  0  0  0  0  0  0
   -9.7409   -0.9375   -0.9450 H   0  0  0  0  0  0  0  0  0  0  0  0
   -8.3262   -0.7162   -2.0186 H   0  0  0  0  0  0  0  0  0  0  0  0
   -8.1640    1.5073   -1.4536 H   0  0  0  0  0  0  0  0  0  0  0  0
   -9.7073    1.2674   -0.6052 H   0  0  0  0  0  0  0  0  0  0  0  0
   -8.0563    2.1884    0.7756 H   0  0  0  0  0  0  0  0  0  0  0  0
   -6.0173    1.3409    0.1823 H   0  0  0  0  0  0  0  0  0  0  0  0
   -6.4115    0.7077    1.8038 H   0  0  0  0  0  0  0  0  0  0  0  0
  1  2  1  0
  2  3  1  0
  3  4  1  0
  4  5  1  0
  5  6  1  0
  6  7  1  0
  7  8  1  0
  8  9  1  0
  9 10  1  0
  9 11  1  0
  7 12  1  0
 11 12  1  0
  6 13  1  0
  4 14  1  0
 13 15  1  0
 14 15  1  0
 15 16  1  0
 16 17  1  0
 16 18  1  0
 16 19  1  0
  2 20  1  0
 20 21  1  0
 21 22  1  0
 22 23  1  0
 23 24  1  0
 23 25  1  0
 20 26  1  0
 25 26  1  0
 25 27  1  0
 27 28  1  0
 28 29  1  0
 29 30  1  0
 30 31  1  0
 31 32  1  0
 28 33  1  0
 32 33  1  0
 32 34  1  0
 34 35  1  0
 35 36  1  0
 36 37  1  0
 37 38  1  0
 34 39  1  0
 38 39  1  0
  1 40  1  0
  2 41  1  6
  3 42  1  0
  4 43  1  1
  5 44  1  0
  5 45  1  0
  6 46  1  0
  8 47  1  0
  8 48  1  0
  9 49  1  0
 10 50  1  0
 10 51  1  0
 10 52  1  0
 11 53  1  0
 12 54  1  0
 12 55  1  0
 13 56  1  0
 13 57  1  0
 14 58  1  0
 14 59  1  0
 15 60  1  0
 20 61  1  6
 21 62  1  0
 21 63  1  0
 22 64  1  0
 22 65  1  0
 23 66  1  0
 24 67  1  0
 24 68  1  0
 24 69  1  0
 25 70  1  1
 26 71  1  0
 26 72  1  0
 27 73  1  0
 28 74  1  0
 29 75  1  0
 30 76  1  0
 30 77  1  0
 31 78  1  0
 31 79  1  0
 32 80  1  0
 33 81  1  0
 34 82  1  0
 35 83  1  0
 35 84  1  0
 36 85  1  0
 36 86  1  0
 37 87  1  0
 37 88  1  0
 38 89  1  0
 39 90  1  0
 39 91  1  0
M  END
>  <PDBID>  (1) 
5MO4

>  <PDB ID>  (1) 
5MO4

>  <Generic Name>  (1) 
Nilotinib

>  <Brand Name>  (1) 
Tasigna

>  <DrugBank ID>  (1) 
DB04868

>  <ATC Codes>  (1) 
L01XE08

>  <Ligand ID>  (1) 
NIL

>  <Target Name>  (1) 
Tyrosine-protein kinase ABL1

>  <UniProt ID>  (1) 
P00519

>  <PDB ID.1>  (1) 
5MO4

>  <Seq. Identity>  (1) 
97%

$$$$
