PDB_DB00619_01
     RDKit          3D

 94 98  0  0  0  0  0  0  0  0999 V2000
    7.8635    3.8925   -0.1480 C   0  0  0  0  0  0  0  0  0  0  0  0
    6.8883    2.8575    0.3079 C   0  0  0  0  0  0  0  0  0  0  0  0
    7.2051    1.5276   -0.4012 C   0  0  0  0  0  0  0  0  0  0  0  0
    8.6318    1.2047    0.0647 C   0  0  0  0  0  0  0  0  0  0  0  0
    9.5369    2.1796   -0.5265 N   0  0  0  0  0  0  0  0  0  0  0  0
    9.2948    3.4558    0.0952 C   0  0  0  0  0  0  0  0  0  0  0  0
    6.2203    0.4887    0.0136 C   0  0  0  0  0  0  0  0  0  0  0  0
    6.4298   -0.8023   -0.6860 C   0  0  0  0  0  0  0  0  0  0  0  0
    5.6185   -0.9069   -1.9593 C   0  0  0  0  0  0  0  0  0  0  0  0
    4.2795   -0.5203   -1.7052 N   0  0  0  0  0  0  0  0  0  0  0  0
    3.9489   -0.1769   -0.3639 C   0  0  0  0  0  0  0  0  0  0  0  0
    4.8494    0.9492   -0.0229 N   0  0  0  0  0  0  0  0  0  0  0  0
    2.6476    0.2459   -0.1299 N   0  0  0  0  0  0  0  0  0  0  0  0
    1.5209   -0.5643   -0.3250 C   0  0  0  0  0  0  0  0  0  0  0  0
    1.2815   -1.0262   -1.7589 C   0  0  0  0  0  0  0  0  0  0  0  0
   -0.2295   -1.3205   -1.7800 C   0  0  0  0  0  0  0  0  0  0  0  0
   -0.5486   -2.4317   -0.8870 C   0  0  0  0  0  0  0  0  0  0  0  0
    0.2084   -2.6400    0.3706 C   0  0  1  0  0  0  0  0  0  0  0  0
    1.3117   -1.6397    0.6609 C   0  0  0  0  0  0  0  0  0  0  0  0
   -0.4791   -3.0293    1.5212 N   0  0  0  0  0  0  0  0  0  0  0  0
   -1.3323   -2.4470    2.3709 C   0  0  0  0  0  0  0  0  0  0  0  0
   -2.6236   -1.8651    1.9066 C   0  0  0  0  0  0  0  0  0  0  0  0
   -3.4502   -1.3916    3.1423 C   0  0  0  0  0  0  0  0  0  0  0  0
   -4.4343   -0.3483    2.7275 C   0  0  0  0  0  0  0  0  0  0  0  0
   -4.8540   -0.4313    1.2737 C   0  0  0  0  0  0  0  0  0  0  0  0
   -3.6509   -0.3302    0.3300 C   0  0  0  0  0  0  0  0  0  0  0  0
   -2.4322   -0.4887    1.2102 C   0  0  0  0  0  0  0  0  0  0  0  0
   -5.7297    0.7587    0.9573 C   0  0  0  0  0  0  0  0  0  0  0  0
   -6.1349    0.6878   -0.4096 N   0  0  0  0  0  0  0  0  0  0  0  0
   -7.0444   -0.3668   -0.6800 C   0  0  0  0  0  0  0  0  0  0  0  0
   -8.3645    0.2315   -1.1364 C   0  0  0  0  0  0  0  0  0  0  0  0
   -8.7016    1.4045   -0.3412 N   0  0  0  0  0  0  0  0  0  0  0  0
  -10.0406    1.8103   -0.7152 C   0  0  0  0  0  0  0  0  0  0  0  0
   -7.8016    2.4977   -0.5886 C   0  0  0  0  0  0  0  0  0  0  0  0
   -6.4844    1.9177   -1.0339 C   0  0  0  0  0  0  0  0  0  0  0  0
   -1.7348   -3.4363    3.3488 O   0  0  0  0  0  0  0  0  0  0  0  0
    1.9779   -2.2766   -2.1383 C   0  0  0  0  0  0  0  0  0  0  0  0
    7.7440    4.1872   -1.1925 H   0  0  0  0  0  0  0  0  0  0  0  0
    7.7076    4.8003    0.4906 H   0  0  0  0  0  0  0  0  0  0  0  0
    6.9239    2.7381    1.3947 H   0  0  0  0  0  0  0  0  0  0  0  0
    5.8820    3.1577   -0.0715 H   0  0  0  0  0  0  0  0  0  0  0  0
    7.2714    1.7282   -1.4734 H   0  0  0  0  0  0  0  0  0  0  0  0
    8.6875    1.3331    1.1663 H   0  0  0  0  0  0  0  0  0  0  0  0
    8.9633    0.2197   -0.2703 H   0  0  0  0  0  0  0  0  0  0  0  0
    9.4327    2.2718   -1.5425 H   0  0  0  0  0  0  0  0  0  0  0  0
    9.4692    3.4477    1.1864 H   0  0  0  0  0  0  0  0  0  0  0  0
    9.9393    4.2515   -0.3333 H   0  0  0  0  0  0  0  0  0  0  0  0
    6.4237    0.2912    1.1104 H   0  0  0  0  0  0  0  0  0  0  0  0
    7.4915   -0.9010   -0.9774 H   0  0  0  0  0  0  0  0  0  0  0  0
    6.2190   -1.6887   -0.0468 H   0  0  0  0  0  0  0  0  0  0  0  0
    5.6852   -1.9510   -2.3616 H   0  0  0  0  0  0  0  0  0  0  0  0
    6.0660   -0.2676   -2.7667 H   0  0  0  0  0  0  0  0  0  0  0  0
    3.8531    0.0936   -2.4277 H   0  0  0  0  0  0  0  0  0  0  0  0
    4.3267   -0.9987    0.2863 H   0  0  0  0  0  0  0  0  0  0  0  0
    4.5388    1.4059    0.8420 H   0  0  0  0  0  0  0  0  0  0  0  0
    2.5583    1.0490    0.5241 H   0  0  0  0  0  0  0  0  0  0  0  0
    0.6504    0.1618   -0.1546 H   0  0  0  0  0  0  0  0  0  0  0  0
    1.4707   -0.1564   -2.4100 H   0  0  0  0  0  0  0  0  0  0  0  0
   -0.4430   -1.5920   -2.8362 H   0  0  0  0  0  0  0  0  0  0  0  0
   -0.8034   -0.3851   -1.6237 H   0  0  0  0  0  0  0  0  0  0  0  0
   -0.5252   -3.3805   -1.5431 H   0  0  0  0  0  0  0  0  0  0  0  0
   -1.6529   -2.4136   -0.6383 H   0  0  0  0  0  0  0  0  0  0  0  0
    0.8510   -3.5674    0.1150 H   0  0  0  0  0  0  0  0  0  0  0  0
    2.2828   -2.0993    0.9025 H   0  0  0  0  0  0  0  0  0  0  0  0
    0.9888   -1.1489    1.6289 H   0  0  0  0  0  0  0  0  0  0  0  0
   -0.2947   -4.0769    1.7176 H   0  0  0  0  0  0  0  0  0  0  0  0
   -0.9094   -1.6526    3.0683 H   0  0  0  0  0  0  0  0  0  0  0  0
   -3.2587   -2.4677    1.2977 H   0  0  0  0  0  0  0  0  0  0  0  0
   -3.9933   -2.2584    3.5536 H   0  0  0  0  0  0  0  0  0  0  0  0
   -2.7396   -0.9517    3.8591 H   0  0  0  0  0  0  0  0  0  0  0  0
   -5.3863   -0.5311    3.3076 H   0  0  0  0  0  0  0  0  0  0  0  0
   -4.1526    0.6899    3.0081 H   0  0  0  0  0  0  0  0  0  0  0  0
   -5.4293   -1.3481    1.0847 H   0  0  0  0  0  0  0  0  0  0  0  0
   -3.6381    0.6257   -0.2314 H   0  0  0  0  0  0  0  0  0  0  0  0
   -3.7003   -1.2031   -0.3479 H   0  0  0  0  0  0  0  0  0  0  0  0
   -1.5095   -0.4162    0.6549 H   0  0  0  0  0  0  0  0  0  0  0  0
   -2.4251    0.3285    2.0040 H   0  0  0  0  0  0  0  0  0  0  0  0
   -5.0470    1.6546    1.0418 H   0  0  0  0  0  0  0  0  0  0  0  0
   -6.5787    0.8510    1.6669 H   0  0  0  0  0  0  0  0  0  0  0  0
   -6.6125   -0.9898   -1.5028 H   0  0  0  0  0  0  0  0  0  0  0  0
   -7.1867   -0.9941    0.2218 H   0  0  0  0  0  0  0  0  0  0  0  0
   -9.1489   -0.5215   -0.9114 H   0  0  0  0  0  0  0  0  0  0  0  0
   -8.2869    0.4547   -2.1981 H   0  0  0  0  0  0  0  0  0  0  0  0
  -10.0657    2.1318   -1.7943 H   0  0  0  0  0  0  0  0  0  0  0  0
  -10.3404    2.6646   -0.0714 H   0  0  0  0  0  0  0  0  0  0  0  0
  -10.7726    0.9878   -0.6086 H   0  0  0  0  0  0  0  0  0  0  0  0
   -7.6292    3.1076    0.3141 H   0  0  0  0  0  0  0  0  0  0  0  0
   -8.2079    3.1687   -1.3997 H   0  0  0  0  0  0  0  0  0  0  0  0
   -5.6631    2.6736   -1.0093 H   0  0  0  0  0  0  0  0  0  0  0  0
   -6.6113    1.6901   -2.1337 H   0  0  0  0  0  0  0  0  0  0  0  0
   -2.4432   -3.9358    2.8730 H   0  0  0  0  0  0  0  0  0  0  0  0
    2.5028   -2.1026   -3.1259 H   0  0  0  0  0  0  0  0  0  0  0  0
    1.2582   -3.1054   -2.4107 H   0  0  0  0  0  0  0  0  0  0  0  0
    2.6242   -2.7303   -1.3756 H   0  0  0  0  0  0  0  0  0  0  0  0
  1  2  1  0
  2  3  1  0
  3  4  1  0
  4  5  1  0
  1  6  1  0
  5  6  1  0
  3  7  1  0
  7  8  1  0
  8  9  1  0
  9 10  1  0
 10 11  1  0
  7 12  1  0
 11 12  1  0
 11 13  1  0
 13 14  1  0
 14 15  1  0
 15 16  1  0
 16 17  1  0
 17 18  1  0
 14 19  1  0
 18 19  1  0
 18 20  1  0
 20 21  1  0
 21 22  1  0
 22 23  1  0
 23 24  1  0
 24 25  1  0
 25 26  1  0
 22 27  1  0
 26 27  1  0
 25 28  1  0
 28 29  1  0
 29 30  1  0
 30 31  1  0
 31 32  1  0
 32 33  1  0
 32 34  1  0
 29 35  1  0
 34 35  1  0
 21 36  1  0
 15 37  1  0
  1 38  1  0
  1 39  1  0
  2 40  1  0
  2 41  1  0
  3 42  1  0
  4 43  1  0
  4 44  1  0
  5 45  1  0
  6 46  1  0
  6 47  1  0
  7 48  1  0
  8 49  1  0
  8 50  1  0
  9 51  1  0
  9 52  1  0
 10 53  1  0
 11 54  1  0
 12 55  1  0
 13 56  1  0
 14 57  1  0
 15 58  1  0
 16 59  1  0
 16 60  1  0
 17 61  1  0
 17 62  1  0
 18 63  1  6
 19 64  1  0
 19 65  1  0
 20 66  1  0
 21 67  1  0
 22 68  1  0
 23 69  1  0
 23 70  1  0
 24 71  1  0
 24 72  1  0
 25 73  1  0
 26 74  1  0
 26 75  1  0
 27 76  1  0
 27 77  1  0
 28 78  1  0
 28 79  1  0
 30 80  1  0
 30 81  1  0
 31 82  1  0
 31 83  1  0
 33 84  1  0
 33 85  1  0
 33 86  1  0
 34 87  1  0
 34 88  1  0
 35 89  1  0
 35 90  1  0
 36 91  1  0
 37 92  1  0
 37 93  1  0
 37 94  1  0
M  END
>  <PDBID>  (1) 
1T46

>  <PDB ID>  (1) 
1T46

>  <Generic Name>  (1) 
Imatinib

>  <Brand Name>  (1) 
Apo-imatinib#Gleevec#Imatinib Mesylate#Mylan-imatinib#Nat-imatinib#PMS-imatinib#Ran-imatinib#Teva-imatinib#Celonib#Enliven#Glivec#Imatib#Mesylonib#Mitinab#Plivatinib#Shantinib

>  <DrugBank ID>  (1) 
DB00619

>  <ATC Codes>  (1) 
L01XE01

>  <Ligand ID>  (1) 
STI

>  <Target Name>  (1) 
Mast/stem cell growth factor receptor Kit

>  <UniProt ID>  (1) 
P10721

>  <PDB ID.1>  (1) 
1T46

>  <Seq. Identity>  (1) 
90%

$$$$
