PDB_DB01167_04
     RDKit          3D

113119  0  0  0  0  0  0  0  0999 V2000
    6.3115   -0.6639   -1.0832 C   0  0  0  0  0  0  0  0  0  0  0  0
    7.3020    0.0076   -0.1910 C   0  0  0  0  0  0  0  0  0  0  0  0
   13.2894   -0.4704    0.9862 C   0  0  0  0  0  0  0  0  0  0  0  0
   11.9687    0.0880    1.4264 C   0  0  0  0  0  0  0  0  0  0  0  0
   10.9350    0.1755    0.3499 C   0  0  1  0  0  0  0  0  0  0  0  0
   11.4282    1.0606   -0.7477 C   0  0  0  0  0  0  0  0  0  0  0  0
   10.6141   -1.1811   -0.0933 N   0  0  0  0  0  0  0  0  0  0  0  0
    9.3748   -1.1279   -0.9145 C   0  0  0  0  0  0  0  0  0  0  0  0
    9.5187   -0.3380   -2.0224 O   0  0  0  0  0  0  0  0  0  0  0  0
    8.4220   -0.7609    0.0423 N   0  0  0  0  0  0  0  0  0  0  0  0
    8.8004   -1.2112    1.3157 C   0  0  0  0  0  0  0  0  0  0  0  0
   10.1204   -1.8227    1.0595 N   0  0  0  0  0  0  0  0  0  0  0  0
    5.0382    0.1540   -1.3284 C   0  0  0  0  0  0  0  0  0  0  0  0
    4.5423    0.6374   -0.0105 C   0  0  0  0  0  0  0  0  0  0  0  0
    5.6032    1.5402    0.6029 C   0  0  0  0  0  0  0  0  0  0  0  0
    6.7025    0.6161    1.0681 C   0  0  0  0  0  0  0  0  0  0  0  0
    3.2375    1.1527    0.0834 N   0  0  0  0  0  0  0  0  0  0  0  0
    2.4920    0.3788    1.0979 C   0  0  0  0  0  0  0  0  0  0  0  0
    1.2741    1.1308    1.5013 C   0  0  0  0  0  0  0  0  0  0  0  0
    0.4720    1.6589    0.4301 N   0  0  0  0  0  0  0  0  0  0  0  0
    1.1221    1.8093   -0.8304 C   0  0  0  0  0  0  0  0  0  0  0  0
    2.3987    1.0944   -1.0740 C   0  0  0  0  0  0  0  0  0  0  0  0
   -0.8110    1.0153    0.3648 C   0  0  0  0  0  0  0  0  0  0  0  0
   -0.7838   -0.4335   -0.0272 C   0  0  0  0  0  0  0  0  0  0  0  0
   -1.8820   -0.7198   -1.0492 C   0  0  0  0  0  0  0  0  0  0  0  0
   -3.2504   -0.4082   -0.3941 C   0  0  0  0  0  0  0  0  0  0  0  0
   -3.2061    1.0045    0.0346 C   0  0  0  0  0  0  0  0  0  0  0  0
   -1.8988    1.7254   -0.3414 C   0  0  0  0  0  0  0  0  0  0  0  0
   -3.3961   -1.2683    0.6921 O   0  0  0  0  0  0  0  0  0  0  0  0
   -4.3412   -2.2372    0.5491 C   0  0  0  0  0  0  0  0  0  0  0  0
   -5.7611   -1.9301    0.5527 C   0  0  1  0  0  0  0  0  0  0  0  0
   -6.4455   -1.7171    1.8796 C   0  0  0  0  0  0  0  0  0  0  0  0
   -7.7551   -1.4725    1.3790 O   0  0  0  0  0  0  0  0  0  0  0  0
   -7.5337   -0.5787    0.3206 C   0  0  2  0  0  0  0  0  0  0  0  0
   -6.2840   -0.9569   -0.2499 O   0  0  0  0  0  0  0  0  0  0  0  0
   -7.4866    0.7811    0.8923 C   0  0  0  0  0  0  0  0  0  0  0  0
   -7.2552    1.8745   -0.0433 N   0  0  0  0  0  0  0  0  0  0  0  0
   -7.0151    3.0765    0.7898 C   0  0  0  0  0  0  0  0  0  0  0  0
   -8.3270    3.3885    1.3289 N   0  0  0  0  0  0  0  0  0  0  0  0
   -9.1865    3.1016    0.2074 C   0  0  0  0  0  0  0  0  0  0  0  0
   -8.4760    2.2283   -0.6802 N   0  0  0  0  0  0  0  0  0  0  0  0
   -8.6305   -0.7558   -0.6686 C   0  0  0  0  0  0  0  0  0  0  0  0
   -8.5314   -2.0864   -1.4111 C   0  0  0  0  0  0  0  0  0  0  0  0
   -9.8873   -2.2608   -2.1190 C   0  0  0  0  0  0  0  0  0  0  0  0
  -10.8027   -2.8393   -1.0340 C   0  0  0  0  0  0  0  0  0  0  0  0
  -10.5696   -2.0917    0.2428 C   0  0  0  0  0  0  0  0  0  0  0  0
   -9.9804   -0.7011    0.0443 C   0  0  0  0  0  0  0  0  0  0  0  0
  -10.2149   -4.5216   -0.7688 Cl  0  0  0  0  0  0  0  0  0  0  0  0
   -7.2854   -1.9732   -2.6739 Cl  0  0  0  0  0  0  0  0  0  0  0  0
    5.9799   -1.6024   -0.5576 H   0  0  0  0  0  0  0  0  0  0  0  0
    6.7949   -0.9290   -2.0352 H   0  0  0  0  0  0  0  0  0  0  0  0
    7.6207    0.9416   -0.7864 H   0  0  0  0  0  0  0  0  0  0  0  0
   13.6014   -0.2141   -0.0279 H   0  0  0  0  0  0  0  0  0  0  0  0
   13.2977   -1.5581    1.2145 H   0  0  0  0  0  0  0  0  0  0  0  0
   14.0606    0.0194    1.6563 H   0  0  0  0  0  0  0  0  0  0  0  0
   11.5895   -0.5262    2.2687 H   0  0  0  0  0  0  0  0  0  0  0  0
   12.1140    1.1255    1.8225 H   0  0  0  0  0  0  0  0  0  0  0  0
   10.0417    0.6586    0.8065 H   0  0  0  0  0  0  0  0  0  0  0  0
   10.5825    1.6970   -1.1518 H   0  0  0  0  0  0  0  0  0  0  0  0
   11.9559    0.5358   -1.5504 H   0  0  0  0  0  0  0  0  0  0  0  0
   12.1492    1.8304   -0.3617 H   0  0  0  0  0  0  0  0  0  0  0  0
    9.2382   -2.1866   -1.2339 H   0  0  0  0  0  0  0  0  0  0  0  0
    9.3332   -0.8662   -2.8450 H   0  0  0  0  0  0  0  0  0  0  0  0
    8.1068   -2.0205    1.7061 H   0  0  0  0  0  0  0  0  0  0  0  0
    8.9540   -0.4618    2.0998 H   0  0  0  0  0  0  0  0  0  0  0  0
    9.9701   -2.8309    0.8171 H   0  0  0  0  0  0  0  0  0  0  0  0
    4.3531   -0.4851   -1.8983 H   0  0  0  0  0  0  0  0  0  0  0  0
    5.3736    1.0446   -1.9227 H   0  0  0  0  0  0  0  0  0  0  0  0
    4.5890   -0.3002    0.6636 H   0  0  0  0  0  0  0  0  0  0  0  0
    5.1971    2.0890    1.4606 H   0  0  0  0  0  0  0  0  0  0  0  0
    6.0473    2.2153   -0.1438 H   0  0  0  0  0  0  0  0  0  0  0  0
    6.2501   -0.1332    1.7150 H   0  0  0  0  0  0  0  0  0  0  0  0
    7.4715    1.2622    1.5269 H   0  0  0  0  0  0  0  0  0  0  0  0
    2.3320   -0.6621    0.7623 H   0  0  0  0  0  0  0  0  0  0  0  0
    3.1711    0.3032    1.9696 H   0  0  0  0  0  0  0  0  0  0  0  0
    0.6652    0.5187    2.1808 H   0  0  0  0  0  0  0  0  0  0  0  0
    1.5893    2.0361    2.1035 H   0  0  0  0  0  0  0  0  0  0  0  0
    1.2832    2.9014   -1.0130 H   0  0  0  0  0  0  0  0  0  0  0  0
    0.3528    1.5369   -1.6203 H   0  0  0  0  0  0  0  0  0  0  0  0
    2.2992    0.0608   -1.4799 H   0  0  0  0  0  0  0  0  0  0  0  0
    2.9328    1.6496   -1.9007 H   0  0  0  0  0  0  0  0  0  0  0  0
   -1.1505    0.9930    1.4697 H   0  0  0  0  0  0  0  0  0  0  0  0
    0.1575   -0.7045   -0.5243 H   0  0  0  0  0  0  0  0  0  0  0  0
   -0.8982   -1.1401    0.8194 H   0  0  0  0  0  0  0  0  0  0  0  0
   -1.8042   -0.0641   -1.9205 H   0  0  0  0  0  0  0  0  0  0  0  0
   -1.7876   -1.7537   -1.3568 H   0  0  0  0  0  0  0  0  0  0  0  0
   -3.9661   -0.5755   -1.2113 H   0  0  0  0  0  0  0  0  0  0  0  0
   -3.2998    1.1601    1.1255 H   0  0  0  0  0  0  0  0  0  0  0  0
   -4.0508    1.6173   -0.4053 H   0  0  0  0  0  0  0  0  0  0  0  0
   -1.7865    1.8808   -1.4162 H   0  0  0  0  0  0  0  0  0  0  0  0
   -2.0399    2.7572    0.0869 H   0  0  0  0  0  0  0  0  0  0  0  0
   -4.1608   -2.9561    1.4272 H   0  0  0  0  0  0  0  0  0  0  0  0
   -4.1326   -2.9186   -0.3245 H   0  0  0  0  0  0  0  0  0  0  0  0
   -6.2871   -2.9505    0.2099 H   0  0  0  0  0  0  0  0  0  0  0  0
   -6.4696   -2.6648    2.4820 H   0  0  0  0  0  0  0  0  0  0  0  0
   -6.1316   -0.8597    2.4479 H   0  0  0  0  0  0  0  0  0  0  0  0
   -6.7176    0.8236    1.7065 H   0  0  0  0  0  0  0  0  0  0  0  0
   -8.4613    1.0486    1.4056 H   0  0  0  0  0  0  0  0  0  0  0  0
   -6.3380    2.8379    1.6182 H   0  0  0  0  0  0  0  0  0  0  0  0
   -6.6463    3.8518    0.1178 H   0  0  0  0  0  0  0  0  0  0  0  0
   -8.3969    4.3893    1.5861 H   0  0  0  0  0  0  0  0  0  0  0  0
  -10.1189    2.5748    0.5158 H   0  0  0  0  0  0  0  0  0  0  0  0
   -9.5000    4.0595   -0.2801 H   0  0  0  0  0  0  0  0  0  0  0  0
   -8.2888    2.7352   -1.5801 H   0  0  0  0  0  0  0  0  0  0  0  0
   -8.6079    0.0413   -1.4181 H   0  0  0  0  0  0  0  0  0  0  0  0
   -8.4233   -2.9539   -0.7654 H   0  0  0  0  0  0  0  0  0  0  0  0
  -10.2294   -1.2415   -2.3796 H   0  0  0  0  0  0  0  0  0  0  0  0
   -9.7962   -2.9584   -2.9485 H   0  0  0  0  0  0  0  0  0  0  0  0
  -11.8442   -2.8665   -1.3734 H   0  0  0  0  0  0  0  0  0  0  0  0
   -9.9690   -2.6812    0.9860 H   0  0  0  0  0  0  0  0  0  0  0  0
  -11.5683   -1.9424    0.7132 H   0  0  0  0  0  0  0  0  0  0  0  0
  -10.7172   -0.0589   -0.4666 H   0  0  0  0  0  0  0  0  0  0  0  0
   -9.8369   -0.3014    1.0624 H   0  0  0  0  0  0  0  0  0  0  0  0
  1  2  1  0
  3  4  1  0
  4  5  1  0
  5  6  1  0
  5  7  1  0
  7  8  1  0
  8  9  1  0
  2 10  1  0
  8 10  1  0
 10 11  1  0
  7 12  1  0
 11 12  1  0
  1 13  1  0
 13 14  1  0
 14 15  1  0
  2 16  1  0
 15 16  1  0
 14 17  1  0
 17 18  1  0
 18 19  1  0
 19 20  1  0
 20 21  1  0
 17 22  1  0
 21 22  1  0
 20 23  1  0
 23 24  1  0
 24 25  1  0
 25 26  1  0
 26 27  1  0
 23 28  1  0
 27 28  1  0
 26 29  1  0
 29 30  1  0
 30 31  1  0
 31 32  1  0
 32 33  1  0
 33 34  1  0
 31 35  1  0
 34 35  1  0
 34 36  1  1
 36 37  1  0
 37 38  1  0
 38 39  1  0
 40 39  1  0
 37 41  1  0
 40 41  1  0
 34 42  1  0
 42 43  1  0
 43 44  1  0
 44 45  1  0
 45 46  1  0
 42 47  1  0
 46 47  1  0
 45 48  1  0
 43 49  1  0
  1 50  1  0
  1 51  1  0
  2 52  1  0
  3 53  1  0
  3 54  1  0
  3 55  1  0
  4 56  1  0
  4 57  1  0
  5 58  1  1
  6 59  1  0
  6 60  1  0
  6 61  1  0
  8 62  1  0
  9 63  1  0
 11 64  1  0
 11 65  1  0
 12 66  1  0
 13 67  1  0
 13 68  1  0
 14 69  1  0
 15 70  1  0
 15 71  1  0
 16 72  1  0
 16 73  1  0
 18 74  1  0
 18 75  1  0
 19 76  1  0
 19 77  1  0
 21 78  1  0
 21 79  1  0
 22 80  1  0
 22 81  1  0
 23 82  1  0
 24 83  1  0
 24 84  1  0
 25 85  1  0
 25 86  1  0
 26 87  1  0
 27 88  1  0
 27 89  1  0
 28 90  1  0
 28 91  1  0
 30 92  1  0
 30 93  1  0
 31 94  1  6
 32 95  1  0
 32 96  1  0
 36 97  1  0
 36 98  1  0
 38 99  1  0
 38100  1  0
 39101  1  0
 40102  1  0
 40103  1  0
 41104  1  0
 42105  1  0
 43106  1  0
 44107  1  0
 44108  1  0
 45109  1  0
 46110  1  0
 46111  1  0
 47112  1  0
 47113  1  0
M  END
>  <PDBID>  (1) 
5JLC

>  <PDB ID>  (1) 
5JLC

>  <Generic Name>  (1) 
Itraconazole

>  <Brand Name>  (1) 
Itraconazole#Onmel#Sporanox#Sporanox Oral Solution 10mg/ml#Itrizole#Oriconazole#Sporal

>  <DrugBank ID>  (1) 
DB01167

>  <ATC Codes>  (1) 
J02AC02

>  <Ligand ID>  (1) 
1YN

>  <Target Name>  (1) 
Lanosterol 14-alpha demethylase

>  <UniProt ID>  (1) 
P50859

>  <PDB ID.1>  (1) 
5JLC

>  <Seq. Identity>  (1) 
97%

$$$$
