PDB_DB01194_09
     RDKit          3D

 52 53  0  0  0  0  0  0  0  0999 V2000
    3.5793   -1.5098   -0.4722 C   0  0  0  0  0  0  0  0  0  0  0  0
   -1.2291   -0.1888   -0.5679 C   0  0  0  0  0  0  0  0  0  0  0  0
   -1.0761   -0.6370    0.8940 C   0  0  1  0  0  0  0  0  0  0  0  0
   -0.2867    0.9091   -0.8810 C   0  0  2  0  0  0  0  0  0  0  0  0
    1.1604    0.5301   -0.4716 C   0  0  0  0  0  0  0  0  0  0  0  0
   -5.0176   -0.9118   -0.1339 S   0  0  0  0  0  0  0  0  0  0  0  0
    4.1119   -0.1282   -0.4907 C   0  0  0  0  0  0  0  0  0  0  0  0
   -0.2442    4.4585    0.2500 C   0  0  0  0  0  0  0  0  0  0  0  0
    0.2289    3.2203   -0.4895 C   0  0  0  0  0  0  0  0  0  0  0  0
   -2.4857   -1.7596    0.9882 S   0  0  0  0  0  0  0  0  0  0  0  0
   -5.2386    0.0832    1.1129 N   0  0  0  0  0  0  0  0  0  0  0  0
   -5.5228   -2.5129    0.6429 O   0  0  0  0  0  0  0  0  0  0  0  0
   -5.9789   -0.7996   -1.3329 O   0  0  0  0  0  0  0  0  0  0  0  0
   -3.4160   -1.1261   -0.4702 C   0  0  0  0  0  0  0  0  0  0  0  0
   -2.6684    0.1623   -0.7246 C   0  0  0  0  0  0  0  0  0  0  0  0
    0.4816   -1.4714    0.9308 S   0  0  0  0  0  0  0  0  0  0  0  0
    0.2903   -3.2934    0.8754 O   0  0  0  0  0  0  0  0  0  0  0  0
    1.3304   -1.1044    2.5260 O   0  0  0  0  0  0  0  0  0  0  0  0
    1.2316   -0.8760   -0.3487 N   0  0  0  0  0  0  0  0  0  0  0  0
   -0.6616    2.1122   -0.2112 N   0  0  0  0  0  0  0  0  0  0  0  0
    2.1958   -1.6155   -1.0191 C   0  0  0  0  0  0  0  0  0  0  0  0
    5.4486   -0.1079   -0.0481 O   0  0  0  0  0  0  0  0  0  0  0  0
    5.5754   -0.5637    1.2344 C   0  0  0  0  0  0  0  0  0  0  0  0
    4.2344   -2.2227   -1.0339 H   0  0  0  0  0  0  0  0  0  0  0  0
    3.5613   -1.8789    0.6088 H   0  0  0  0  0  0  0  0  0  0  0  0
   -0.9846   -1.0801   -1.1950 H   0  0  0  0  0  0  0  0  0  0  0  0
   -1.1391    0.2043    1.5817 H   0  0  0  0  0  0  0  0  0  0  0  0
   -0.2122    1.0859   -1.9902 H   0  0  0  0  0  0  0  0  0  0  0  0
    1.8535    1.0006   -1.1940 H   0  0  0  0  0  0  0  0  0  0  0  0
    1.2758    0.9951    0.5215 H   0  0  0  0  0  0  0  0  0  0  0  0
    4.0920    0.3614   -1.4735 H   0  0  0  0  0  0  0  0  0  0  0  0
    3.5340    0.5159    0.2362 H   0  0  0  0  0  0  0  0  0  0  0  0
    0.5970    5.0528    0.6410 H   0  0  0  0  0  0  0  0  0  0  0  0
   -0.8920    4.1420    1.0985 H   0  0  0  0  0  0  0  0  0  0  0  0
   -0.7948    5.1172   -0.4523 H   0  0  0  0  0  0  0  0  0  0  0  0
    1.2233    2.9530   -0.0543 H   0  0  0  0  0  0  0  0  0  0  0  0
    0.3349    3.4442   -1.5618 H   0  0  0  0  0  0  0  0  0  0  0  0
   -5.5455    1.0378    0.8110 H   0  0  0  0  0  0  0  0  0  0  0  0
   -4.4115    0.1980    1.7445 H   0  0  0  0  0  0  0  0  0  0  0  0
   -4.6528   -2.9708    0.7328 H   0  0  0  0  0  0  0  0  0  0  0  0
   -6.1408   -1.6274   -1.8544 H   0  0  0  0  0  0  0  0  0  0  0  0
   -3.1854   -1.8012   -1.3122 H   0  0  0  0  0  0  0  0  0  0  0  0
   -2.8143    0.5016   -1.7713 H   0  0  0  0  0  0  0  0  0  0  0  0
   -2.9624    0.9254    0.0123 H   0  0  0  0  0  0  0  0  0  0  0  0
   -0.2705   -3.3512    0.0869 H   0  0  0  0  0  0  0  0  0  0  0  0
    2.0881   -1.7136    2.4906 H   0  0  0  0  0  0  0  0  0  0  0  0
   -1.6233    2.3882   -0.4498 H   0  0  0  0  0  0  0  0  0  0  0  0
    1.8739   -2.7038   -1.0466 H   0  0  0  0  0  0  0  0  0  0  0  0
    2.1920   -1.3306   -2.1276 H   0  0  0  0  0  0  0  0  0  0  0  0
    6.6608   -0.4721    1.5303 H   0  0  0  0  0  0  0  0  0  0  0  0
    4.9732    0.0145    1.9342 H   0  0  0  0  0  0  0  0  0  0  0  0
    5.3264   -1.6552    1.3206 H   0  0  0  0  0  0  0  0  0  0  0  0
  2  3  1  0
  2  4  1  0
  4  5  1  0
  1  7  1  0
  8  9  1  0
  3 10  1  0
  6 11  1  0
  6 12  1  0
  6 13  1  0
  6 14  1  0
 10 14  1  0
  2 15  1  0
 14 15  1  0
  3 16  1  0
 16 17  1  0
 16 18  1  0
  5 19  1  0
 16 19  1  0
  4 20  1  0
  9 20  1  0
  1 21  1  0
 19 21  1  0
  7 22  1  0
 22 23  1  0
  1 24  1  0
  1 25  1  0
  2 26  1  0
  3 27  1  1
  4 28  1  6
  5 29  1  0
  5 30  1  0
  7 31  1  0
  7 32  1  0
  8 33  1  0
  8 34  1  0
  8 35  1  0
  9 36  1  0
  9 37  1  0
 11 38  1  0
 11 39  1  0
 12 40  1  0
 13 41  1  0
 14 42  1  0
 15 43  1  0
 15 44  1  0
 17 45  1  0
 18 46  1  0
 20 47  1  0
 21 48  1  0
 21 49  1  0
 23 50  1  0
 23 51  1  0
 23 52  1  0
M  END
>  <PDBID>  (1) 
4M2R

>  <PDB ID>  (1) 
4M2R

>  <Generic Name>  (1) 
Brinzolamide

>  <Brand Name>  (1) 
Azarga#Azopt#Sandoz Brinzolamide#Simbrinza

>  <DrugBank ID>  (1) 
DB01194

>  <ATC Codes>  (1) 
S01EC54#S01EC04

>  <Ligand ID>  (1) 
BZ1

>  <Target Name>  (1) 
Carbonic anhydrase 2

>  <UniProt ID>  (1) 
P00918

>  <PDB ID.1>  (1) 
4M2R

>  <Seq. Identity>  (1) 
100%

$$$$
