PDB_DB01127_01
     RDKit          3D

110114  0  0  0  0  0  0  0  0999 V2000
   -2.6411    0.3076    0.9683 C   0  0  0  0  0  0  0  0  0  0  0  0
   -2.6905    0.7336   -0.4630 C   0  0  0  0  0  0  0  0  0  0  0  0
    1.4721    1.4449    2.9272 Cl  0  0  0  0  0  0  0  0  0  0  0  0
    3.1153   -3.5831   -0.1106 C   0  0  0  0  0  0  0  0  0  0  0  0
    2.6039   -2.1499    0.1409 C   0  0  0  0  0  0  0  0  0  0  0  0
   -4.5956   -1.0972    0.6310 C   0  0  0  0  0  0  0  0  0  0  0  0
   -3.1297   -1.1373    1.0090 C   0  0  0  0  0  0  0  0  0  0  0  0
   -4.7970   -0.4811   -0.7370 C   0  0  0  0  0  0  0  0  0  0  0  0
   -6.5328   -0.4258   -1.0632 Cl  0  0  0  0  0  0  0  0  0  0  0  0
    1.6024    2.0796    1.2588 C   0  0  0  0  0  0  0  0  0  0  0  0
    2.9282    2.8100    1.2060 C   0  0  0  0  0  0  0  0  0  0  0  0
    3.2035    3.4085   -0.1315 C   0  0  0  0  0  0  0  0  0  0  0  0
    2.1424    2.9281   -1.0791 C   0  0  0  0  0  0  0  0  0  0  0  0
    4.8038    2.9106   -0.6901 Cl  0  0  0  0  0  0  0  0  0  0  0  0
    2.0595   -4.2703   -0.7933 N   0  0  0  0  0  0  0  0  0  0  0  0
    0.5528   -1.0670   -0.6313 C   0  0  0  0  0  0  0  0  0  0  0  0
    0.4119    0.1240    0.2505 C   0  0  1  0  0  0  0  0  0  0  0  0
   -0.2426   -0.0645    1.4017 O   0  0  0  0  0  0  0  0  0  0  0  0
    1.7203    0.8747    0.3390 C   0  0  0  0  0  0  0  0  0  0  0  0
    1.1949   -2.2139   -0.1058 N   0  0  0  0  0  0  0  0  0  0  0  0
    1.1414   -3.2395   -1.1623 C   0  0  0  0  0  0  0  0  0  0  0  0
   -1.3920    0.5109    1.7227 C   0  0  0  0  0  0  0  0  0  0  0  0
   -4.1986    0.8969   -0.8014 C   0  0  0  0  0  0  0  0  0  0  0  0
    2.0824    1.4154   -1.0266 C   0  0  0  0  0  0  0  0  0  0  0  0
   -2.6411    0.3076    0.9683 C   0  0  0  0  0  0  0  0  0  0  0  0
   -2.6905    0.7336   -0.4630 C   0  0  0  0  0  0  0  0  0  0  0  0
    1.4721    1.4449    2.9272 Cl  0  0  0  0  0  0  0  0  0  0  0  0
    3.1153   -3.5831   -0.1106 C   0  0  0  0  0  0  0  0  0  0  0  0
    2.6039   -2.1499    0.1409 C   0  0  0  0  0  0  0  0  0  0  0  0
   -4.5956   -1.0972    0.6310 C   0  0  0  0  0  0  0  0  0  0  0  0
   -3.1297   -1.1373    1.0090 C   0  0  0  0  0  0  0  0  0  0  0  0
   -4.7970   -0.4811   -0.7370 C   0  0  0  0  0  0  0  0  0  0  0  0
   -6.5328   -0.4258   -1.0632 Cl  0  0  0  0  0  0  0  0  0  0  0  0
    1.6024    2.0796    1.2588 C   0  0  0  0  0  0  0  0  0  0  0  0
    2.9282    2.8100    1.2060 C   0  0  0  0  0  0  0  0  0  0  0  0
    3.2035    3.4085   -0.1315 C   0  0  0  0  0  0  0  0  0  0  0  0
    2.1424    2.9281   -1.0791 C   0  0  0  0  0  0  0  0  0  0  0  0
    4.8038    2.9106   -0.6901 Cl  0  0  0  0  0  0  0  0  0  0  0  0
    2.0595   -4.2703   -0.7933 N   0  0  0  0  0  0  0  0  0  0  0  0
    0.5528   -1.0670   -0.6313 C   0  0  0  0  0  0  0  0  0  0  0  0
    0.4119    0.1240    0.2505 C   0  0  1  0  0  0  0  0  0  0  0  0
   -0.2426   -0.0645    1.4017 O   0  0  0  0  0  0  0  0  0  0  0  0
    1.7203    0.8747    0.3390 C   0  0  0  0  0  0  0  0  0  0  0  0
    1.1949   -2.2139   -0.1058 N   0  0  0  0  0  0  0  0  0  0  0  0
    1.1414   -3.2395   -1.1623 C   0  0  0  0  0  0  0  0  0  0  0  0
   -1.3920    0.5109    1.7227 C   0  0  0  0  0  0  0  0  0  0  0  0
   -4.1986    0.8969   -0.8014 C   0  0  0  0  0  0  0  0  0  0  0  0
    2.0824    1.4154   -1.0266 C   0  0  0  0  0  0  0  0  0  0  0  0
   -3.4806    0.8778    1.4815 H   0  0  0  0  0  0  0  0  0  0  0  0
   -2.2959    0.0378   -1.1957 H   0  0  0  0  0  0  0  0  0  0  0  0
   -2.3159    1.7958   -0.5957 H   0  0  0  0  0  0  0  0  0  0  0  0
    3.3094   -4.1166    0.8441 H   0  0  0  0  0  0  0  0  0  0  0  0
    4.0640   -3.5847   -0.6736 H   0  0  0  0  0  0  0  0  0  0  0  0
    2.8762   -1.9496    1.1985 H   0  0  0  0  0  0  0  0  0  0  0  0
    3.1462   -1.5381   -0.6017 H   0  0  0  0  0  0  0  0  0  0  0  0
   -5.0915   -2.0661    0.6590 H   0  0  0  0  0  0  0  0  0  0  0  0
   -5.0985   -0.3925    1.3540 H   0  0  0  0  0  0  0  0  0  0  0  0
   -3.0926   -1.4779    2.0783 H   0  0  0  0  0  0  0  0  0  0  0  0
   -2.5743   -1.7939    0.3288 H   0  0  0  0  0  0  0  0  0  0  0  0
   -4.3067   -1.1206   -1.4905 H   0  0  0  0  0  0  0  0  0  0  0  0
    0.8103    2.7730    1.0000 H   0  0  0  0  0  0  0  0  0  0  0  0
    2.8817    3.6382    1.9677 H   0  0  0  0  0  0  0  0  0  0  0  0
    3.7373    2.1336    1.5636 H   0  0  0  0  0  0  0  0  0  0  0  0
    3.1450    4.5222   -0.1331 H   0  0  0  0  0  0  0  0  0  0  0  0
    2.5047    3.1767   -2.1095 H   0  0  0  0  0  0  0  0  0  0  0  0
    1.1469    3.3763   -0.9013 H   0  0  0  0  0  0  0  0  0  0  0  0
    2.4874   -4.7209   -1.6408 H   0  0  0  0  0  0  0  0  0  0  0  0
    1.1239   -0.7880   -1.5681 H   0  0  0  0  0  0  0  0  0  0  0  0
   -0.4467   -1.3862   -1.0356 H   0  0  0  0  0  0  0  0  0  0  0  0
   -0.2433    0.8489   -0.3659 H   0  0  0  0  0  0  0  0  0  0  0  0
    2.5701    0.2979    0.7208 H   0  0  0  0  0  0  0  0  0  0  0  0
    1.5840   -2.7144   -2.0612 H   0  0  0  0  0  0  0  0  0  0  0  0
    0.1190   -3.5655   -1.3734 H   0  0  0  0  0  0  0  0  0  0  0  0
   -1.6617    0.3150    2.8227 H   0  0  0  0  0  0  0  0  0  0  0  0
   -1.2168    1.6538    1.7002 H   0  0  0  0  0  0  0  0  0  0  0  0
   -4.3083    1.3004   -1.8224 H   0  0  0  0  0  0  0  0  0  0  0  0
   -4.6285    1.5658   -0.0290 H   0  0  0  0  0  0  0  0  0  0  0  0
    1.3532    1.1356   -1.8182 H   0  0  0  0  0  0  0  0  0  0  0  0
    3.0870    1.0511   -1.3632 H   0  0  0  0  0  0  0  0  0  0  0  0
   -3.4806    0.8778    1.4815 H   0  0  0  0  0  0  0  0  0  0  0  0
   -2.2959    0.0378   -1.1957 H   0  0  0  0  0  0  0  0  0  0  0  0
   -2.3159    1.7958   -0.5957 H   0  0  0  0  0  0  0  0  0  0  0  0
    3.3094   -4.1166    0.8441 H   0  0  0  0  0  0  0  0  0  0  0  0
    4.0640   -3.5847   -0.6736 H   0  0  0  0  0  0  0  0  0  0  0  0
    2.8762   -1.9496    1.1985 H   0  0  0  0  0  0  0  0  0  0  0  0
    3.1462   -1.5381   -0.6017 H   0  0  0  0  0  0  0  0  0  0  0  0
   -5.0915   -2.0661    0.6590 H   0  0  0  0  0  0  0  0  0  0  0  0
   -5.0985   -0.3925    1.3540 H   0  0  0  0  0  0  0  0  0  0  0  0
   -3.0926   -1.4779    2.0783 H   0  0  0  0  0  0  0  0  0  0  0  0
   -2.5743   -1.7939    0.3288 H   0  0  0  0  0  0  0  0  0  0  0  0
   -4.3067   -1.1206   -1.4905 H   0  0  0  0  0  0  0  0  0  0  0  0
    0.8103    2.7730    1.0000 H   0  0  0  0  0  0  0  0  0  0  0  0
    2.8817    3.6382    1.9677 H   0  0  0  0  0  0  0  0  0  0  0  0
    3.7373    2.1336    1.5636 H   0  0  0  0  0  0  0  0  0  0  0  0
    3.1450    4.5222   -0.1331 H   0  0  0  0  0  0  0  0  0  0  0  0
    2.5047    3.1767   -2.1095 H   0  0  0  0  0  0  0  0  0  0  0  0
    1.1469    3.3763   -0.9013 H   0  0  0  0  0  0  0  0  0  0  0  0
    2.4874   -4.7209   -1.6408 H   0  0  0  0  0  0  0  0  0  0  0  0
    1.1239   -0.7880   -1.5681 H   0  0  0  0  0  0  0  0  0  0  0  0
   -0.4467   -1.3862   -1.0356 H   0  0  0  0  0  0  0  0  0  0  0  0
   -0.2433    0.8489   -0.3659 H   0  0  0  0  0  0  0  0  0  0  0  0
    2.5701    0.2979    0.7208 H   0  0  0  0  0  0  0  0  0  0  0  0
    1.5840   -2.7144   -2.0612 H   0  0  0  0  0  0  0  0  0  0  0  0
    0.1190   -3.5655   -1.3734 H   0  0  0  0  0  0  0  0  0  0  0  0
   -1.6617    0.3150    2.8227 H   0  0  0  0  0  0  0  0  0  0  0  0
   -1.2168    1.6538    1.7002 H   0  0  0  0  0  0  0  0  0  0  0  0
   -4.3083    1.3004   -1.8224 H   0  0  0  0  0  0  0  0  0  0  0  0
   -4.6285    1.5658   -0.0290 H   0  0  0  0  0  0  0  0  0  0  0  0
    1.3532    1.1356   -1.8182 H   0  0  0  0  0  0  0  0  0  0  0  0
    3.0870    1.0511   -1.3632 H   0  0  0  0  0  0  0  0  0  0  0  0
  1  2  1  0
  4  5  1  0
  1  7  1  0
  6  7  1  0
  6  8  1  0
  8  9  1  0
  3 10  1  0
 10 11  1  0
 11 12  1  0
 12 13  1  0
 12 14  1  0
  4 15  1  0
 16 17  1  0
 17 18  1  0
 10 19  1  0
 17 19  1  0
  5 20  1  0
 16 20  1  0
 20 21  1  0
 21 15  1  0
  1 22  1  0
 18 22  1  0
  2 23  1  0
  8 23  1  0
 13 24  1  0
 19 24  1  0
 25 26  1  0
 28 29  1  0
 25 31  1  0
 30 31  1  0
 30 32  1  0
 32 33  1  0
 27 34  1  0
 34 35  1  0
 35 36  1  0
 36 37  1  0
 36 38  1  0
 28 39  1  0
 40 41  1  0
 41 42  1  0
 34 43  1  0
 41 43  1  0
 29 44  1  0
 40 44  1  0
 44 45  1  0
 45 39  1  0
 25 46  1  0
 42 46  1  0
 26 47  1  0
 32 47  1  0
 37 48  1  0
 43 48  1  0
  1 49  1  0
  2 50  1  0
  2 51  1  0
  4 52  1  0
  4 53  1  0
  5 54  1  0
  5 55  1  0
  6 56  1  0
  6 57  1  0
  7 58  1  0
  7 59  1  0
  8 60  1  0
 10 61  1  0
 11 62  1  0
 11 63  1  0
 12 64  1  0
 13 65  1  0
 13 66  1  0
 15 67  1  0
 16 68  1  0
 16 69  1  0
 17 70  1  6
 19 71  1  0
 21 72  1  0
 21 73  1  0
 22 74  1  0
 22 75  1  0
 23 76  1  0
 23 77  1  0
 24 78  1  0
 24 79  1  0
 25 80  1  0
 26 81  1  0
 26 82  1  0
 28 83  1  0
 28 84  1  0
 29 85  1  0
 29 86  1  0
 30 87  1  0
 30 88  1  0
 31 89  1  0
 31 90  1  0
 32 91  1  0
 34 92  1  0
 35 93  1  0
 35 94  1  0
 36 95  1  0
 37 96  1  0
 37 97  1  0
 39 98  1  0
 40 99  1  0
 40100  1  0
 41101  1  6
 43102  1  0
 45103  1  0
 45104  1  0
 46105  1  0
 46106  1  0
 47107  1  0
 47108  1  0
 48109  1  0
 48110  1  0
M  END
>  <PDBID>  (1) 
3JUS

>  <PDB ID>  (1) 
3JUS

>  <Generic Name>  (1) 
Econazole

>  <Brand Name>  (1) 
Econazole Nitrate#Econazole Nitrate Cream#Econazole Nitrate Topical Foam, 1%#Ecostatin Cream 1%#Ecostatin Vaginal Ovule 150mg#Ecoza#Ecostatin#Gyno-Pevaryl#Ifenec#Palavale#Pevaryl#Spectazole

>  <DrugBank ID>  (1) 
DB01127

>  <ATC Codes>  (1) 
G01AF05#D01AC03

>  <Ligand ID>  (1) 
ECL,ECN

>  <Target Name>  (1) 
Lanosterol 14-alpha demethylase

>  <UniProt ID>  (1) 
P10613

>  <PDB ID.1>  (1) 
3JUS

>  <Seq. Identity>  (1) 
40%

$$$$
