PDB_DB01536_01
     RDKit          3D

 53 56  0  0  0  0  0  0  0  0999 V2000
    2.3320   -0.9154   -1.2321 C   0  0  0  0  0  0  0  0  0  0  0  0
    1.5662   -0.6005    0.0433 C   0  0  1  0  0  0  0  0  0  0  0  0
   -0.5301   -1.6682    0.7857 C   0  0  0  0  0  0  0  0  0  0  0  0
   -2.0181   -1.6637    0.8153 C   0  0  0  0  0  0  0  0  0  0  0  0
   -2.6881   -0.4080    0.4440 C   0  0  1  0  0  0  0  0  0  0  0  0
   -1.9548    0.3528   -0.6711 C   0  0  1  0  0  0  0  0  0  0  0  0
   -2.8834    1.4751   -0.8773 C   0  0  0  0  0  0  0  0  0  0  0  0
   -4.2389    0.7666   -0.9047 C   0  0  0  0  0  0  0  0  0  0  0  0
   -4.0030   -0.6127   -0.3227 C   0  0  0  0  0  0  0  0  0  0  0  0
   -3.0256    0.4672    1.6014 C   0  0  0  0  0  0  0  0  0  0  0  0
    2.1028   -1.5028    1.1315 C   0  0  0  0  0  0  0  0  0  0  0  0
    3.8018   -0.8717   -1.0680 C   0  0  0  0  0  0  0  0  0  0  0  0
    4.3330    0.2413   -0.2310 C   0  0  0  0  0  0  0  0  0  0  0  0
    3.4133    0.8451    0.7403 C   0  0  0  0  0  0  0  0  0  0  0  0
    1.9633    0.8236    0.3971 C   0  0  0  0  0  0  0  0  0  0  0  0
    1.5675    1.7983   -0.6719 C   0  0  0  0  0  0  0  0  0  0  0  0
    0.1680    1.5513   -1.1284 C   0  0  0  0  0  0  0  0  0  0  0  0
   -0.5983    0.6528   -0.1828 C   0  0  2  0  0  0  0  0  0  0  0  0
    0.1017   -0.7168   -0.1695 C   0  0  1  0  0  0  0  0  0  0  0  0
    4.8981    1.2591   -1.0268 O   0  0  0  0  0  0  0  0  0  0  0  0
   -5.0102   -1.0200    0.5185 O   0  0  0  0  0  0  0  0  0  0  0  0
    2.0503   -0.2218   -2.0596 H   0  0  0  0  0  0  0  0  0  0  0  0
    2.0567   -1.9360   -1.6111 H   0  0  0  0  0  0  0  0  0  0  0  0
   -0.2210   -2.7067    0.4619 H   0  0  0  0  0  0  0  0  0  0  0  0
   -0.0674   -1.5295    1.7841 H   0  0  0  0  0  0  0  0  0  0  0  0
   -2.4637   -2.4999    0.2053 H   0  0  0  0  0  0  0  0  0  0  0  0
   -2.3181   -1.9194    1.8746 H   0  0  0  0  0  0  0  0  0  0  0  0
   -1.9067   -0.3191   -1.5512 H   0  0  0  0  0  0  0  0  0  0  0  0
   -2.7077    2.0328   -1.8174 H   0  0  0  0  0  0  0  0  0  0  0  0
   -2.9009    2.1540   -0.0228 H   0  0  0  0  0  0  0  0  0  0  0  0
   -4.5334    0.5980   -1.9807 H   0  0  0  0  0  0  0  0  0  0  0  0
   -5.0036    1.3386   -0.3710 H   0  0  0  0  0  0  0  0  0  0  0  0
   -3.7830   -1.3708   -1.1013 H   0  0  0  0  0  0  0  0  0  0  0  0
   -2.3136    1.2506    1.8356 H   0  0  0  0  0  0  0  0  0  0  0  0
   -3.0950   -0.1889    2.5139 H   0  0  0  0  0  0  0  0  0  0  0  0
   -4.0319    0.9470    1.5273 H   0  0  0  0  0  0  0  0  0  0  0  0
    1.7419   -2.5337    0.9867 H   0  0  0  0  0  0  0  0  0  0  0  0
    3.2098   -1.5448    1.0548 H   0  0  0  0  0  0  0  0  0  0  0  0
    1.8928   -1.1043    2.1549 H   0  0  0  0  0  0  0  0  0  0  0  0
    4.2550   -0.7524   -2.0963 H   0  0  0  0  0  0  0  0  0  0  0  0
    4.1519   -1.8861   -0.7375 H   0  0  0  0  0  0  0  0  0  0  0  0
    5.2148   -0.1789    0.3341 H   0  0  0  0  0  0  0  0  0  0  0  0
    3.6912    1.9256    0.9192 H   0  0  0  0  0  0  0  0  0  0  0  0
    3.5215    0.3684    1.7555 H   0  0  0  0  0  0  0  0  0  0  0  0
    1.4093    1.1269    1.3343 H   0  0  0  0  0  0  0  0  0  0  0  0
    1.6441    2.8263   -0.2160 H   0  0  0  0  0  0  0  0  0  0  0  0
    2.2586    1.8089   -1.5340 H   0  0  0  0  0  0  0  0  0  0  0  0
   -0.3937    2.5302   -1.1385 H   0  0  0  0  0  0  0  0  0  0  0  0
    0.0726    1.1398   -2.1352 H   0  0  0  0  0  0  0  0  0  0  0  0
   -0.5599    1.1074    0.8059 H   0  0  0  0  0  0  0  0  0  0  0  0
   -0.0780   -1.1229   -1.2068 H   0  0  0  0  0  0  0  0  0  0  0  0
    4.5337    2.1445   -0.7840 H   0  0  0  0  0  0  0  0  0  0  0  0
   -4.6242   -1.7373    1.1054 H   0  0  0  0  0  0  0  0  0  0  0  0
  1  2  1  0
  3  4  1  0
  4  5  1  0
  5  6  1  0
  6  7  1  0
  7  8  1  0
  5  9  1  0
  8  9  1  0
  5 10  1  1
  2 11  1  1
  1 12  1  0
 12 13  1  0
 13 14  1  0
  2 15  1  0
 14 15  1  0
 15 16  1  0
 16 17  1  0
  6 18  1  0
 17 18  1  0
  2 19  1  0
  3 19  1  0
 18 19  1  0
 13 20  1  0
  9 21  1  0
  1 22  1  0
  1 23  1  0
  3 24  1  0
  3 25  1  0
  4 26  1  0
  4 27  1  0
  6 28  1  6
  7 29  1  0
  7 30  1  0
  8 31  1  0
  8 32  1  0
  9 33  1  0
 10 34  1  0
 10 35  1  0
 10 36  1  0
 11 37  1  0
 11 38  1  0
 11 39  1  0
 12 40  1  0
 12 41  1  0
 13 42  1  0
 14 43  1  0
 14 44  1  0
 15 45  1  0
 16 46  1  0
 16 47  1  0
 17 48  1  0
 17 49  1  0
 18 50  1  1
 19 51  1  6
 20 52  1  0
 21 53  1  0
M  END
>  <PDBID>  (1) 
1QYX

>  <PDB ID>  (1) 
1QYX

>  <Generic Name>  (1) 
4-Androstenedione

>  <Brand Name>  (1) 
nan

>  <DrugBank ID>  (1) 
DB01536

>  <ATC Codes>  (1) 
nan

>  <Ligand ID>  (1) 
ASD

>  <Target Name>  (1) 
Estradiol 17-beta-dehydrogenase 1

>  <UniProt ID>  (1) 
P14061

>  <PDB ID.1>  (1) 
1QYX

>  <Seq. Identity>  (1) 
89%

$$$$
