PDB_DB01394_07
     RDKit          3D

 70 72  0  0  0  0  0  0  0  0999 V2000
    2.9972    3.9706    1.2440 O   0  0  0  0  0  0  0  0  0  0  0  0
    2.4516    3.7484   -0.0386 C   0  0  0  0  0  0  0  0  0  0  0  0
    3.4072    4.4590   -1.0057 C   0  0  0  0  0  0  0  0  0  0  0  0
    2.4460    2.3755   -0.4131 N   0  0  0  0  0  0  0  0  0  0  0  0
    1.5283    1.5493    0.3724 C   0  0  2  0  0  0  0  0  0  0  0  0
    1.1706    0.3921   -0.5255 C   0  0  0  0  0  0  0  0  0  0  0  0
    2.4908   -0.1294   -0.9887 C   0  0  0  0  0  0  0  0  0  0  0  0
    0.3929    2.3653    0.8566 C   0  0  0  0  0  0  0  0  0  0  0  0
   -0.3758    1.4692    1.8399 C   0  0  0  0  0  0  0  0  0  0  0  0
   -1.4425    0.8384    0.9742 C   0  0  2  0  0  0  0  0  0  0  0  0
   -2.6030    0.5959    1.9205 C   0  0  0  0  0  0  0  0  0  0  0  0
   -3.6991   -0.1730    1.2753 C   0  0  0  0  0  0  0  0  0  0  0  0
   -3.4832   -0.5031   -0.1579 C   0  0  0  0  0  0  0  0  0  0  0  0
   -2.0972   -0.9394   -0.5454 C   0  0  0  0  0  0  0  0  0  0  0  0
   -1.8620   -0.4902   -1.8407 O   0  0  0  0  0  0  0  0  0  0  0  0
   -1.8085   -1.4132   -2.8257 C   0  0  0  0  0  0  0  0  0  0  0  0
   -3.9685    0.5392   -0.9196 O   0  0  0  0  0  0  0  0  0  0  0  0
   -5.0832    0.1003   -1.6256 C   0  0  0  0  0  0  0  0  0  0  0  0
   -4.0231   -1.3036    2.0323 O   0  0  0  0  0  0  0  0  0  0  0  0
   -5.3048   -1.1614    2.5473 C   0  0  0  0  0  0  0  0  0  0  0  0
   -1.0351   -0.4920    0.4425 C   0  0  1  0  0  0  0  0  0  0  0  0
    0.3537   -0.6861    0.0295 C   0  0  0  0  0  0  0  0  0  0  0  0
    1.2088   -1.4070    1.0895 C   0  0  0  0  0  0  0  0  0  0  0  0
    1.7757   -2.7057    0.5661 C   0  0  0  0  0  0  0  0  0  0  0  0
    2.8550   -2.5559   -0.4176 C   0  0  1  0  0  0  0  0  0  0  0  0
    2.6256   -1.4959   -1.4857 C   0  0  0  0  0  0  0  0  0  0  0  0
    1.7770   -1.9024   -2.4974 O   0  0  0  0  0  0  0  0  0  0  0  0
    4.0196   -2.1601    0.2535 O   0  0  0  0  0  0  0  0  0  0  0  0
    5.0508   -3.0801    0.0566 C   0  0  0  0  0  0  0  0  0  0  0  0
    2.5950    4.8018    1.5947 H   0  0  0  0  0  0  0  0  0  0  0  0
    1.4779    4.2571   -0.1506 H   0  0  0  0  0  0  0  0  0  0  0  0
    4.3671    4.7038   -0.5384 H   0  0  0  0  0  0  0  0  0  0  0  0
    2.9706    5.3981   -1.3913 H   0  0  0  0  0  0  0  0  0  0  0  0
    3.6098    3.8299   -1.9052 H   0  0  0  0  0  0  0  0  0  0  0  0
    3.4225    2.0180   -0.3685 H   0  0  0  0  0  0  0  0  0  0  0  0
    2.1325    1.2392    1.2620 H   0  0  0  0  0  0  0  0  0  0  0  0
    0.6767    0.8770   -1.4228 H   0  0  0  0  0  0  0  0  0  0  0  0
    3.2472   -0.0198   -0.1545 H   0  0  0  0  0  0  0  0  0  0  0  0
    2.8780    0.6072   -1.7589 H   0  0  0  0  0  0  0  0  0  0  0  0
    0.7930    3.1860    1.4818 H   0  0  0  0  0  0  0  0  0  0  0  0
   -0.2396    2.7069    0.0308 H   0  0  0  0  0  0  0  0  0  0  0  0
   -0.8230    2.1276    2.6224 H   0  0  0  0  0  0  0  0  0  0  0  0
    0.2702    0.7324    2.3133 H   0  0  0  0  0  0  0  0  0  0  0  0
   -1.8247    1.5380    0.2065 H   0  0  0  0  0  0  0  0  0  0  0  0
   -2.1679   -0.0525    2.7416 H   0  0  0  0  0  0  0  0  0  0  0  0
   -2.9163    1.5654    2.3629 H   0  0  0  0  0  0  0  0  0  0  0  0
   -4.6152    0.5026    1.3367 H   0  0  0  0  0  0  0  0  0  0  0  0
   -4.1680   -1.3792   -0.3595 H   0  0  0  0  0  0  0  0  0  0  0  0
   -2.1334   -2.0448   -0.6386 H   0  0  0  0  0  0  0  0  0  0  0  0
   -1.6257   -1.0104   -3.8380 H   0  0  0  0  0  0  0  0  0  0  0  0
   -2.7442   -2.0514   -2.8316 H   0  0  0  0  0  0  0  0  0  0  0  0
   -0.9966   -2.1370   -2.6275 H   0  0  0  0  0  0  0  0  0  0  0  0
   -5.5408    0.8782   -2.2649 H   0  0  0  0  0  0  0  0  0  0  0  0
   -5.8250   -0.3888   -0.9356 H   0  0  0  0  0  0  0  0  0  0  0  0
   -4.8156   -0.7229   -2.3510 H   0  0  0  0  0  0  0  0  0  0  0  0
   -5.6287   -2.0141    3.1516 H   0  0  0  0  0  0  0  0  0  0  0  0
   -5.9850   -0.9301    1.6959 H   0  0  0  0  0  0  0  0  0  0  0  0
   -5.2897   -0.2052    3.1459 H   0  0  0  0  0  0  0  0  0  0  0  0
   -1.1722   -1.1870    1.3328 H   0  0  0  0  0  0  0  0  0  0  0  0
    0.2865   -1.4598   -0.7965 H   0  0  0  0  0  0  0  0  0  0  0  0
    1.9572   -0.7597    1.5377 H   0  0  0  0  0  0  0  0  0  0  0  0
    0.4932   -1.6786    1.8974 H   0  0  0  0  0  0  0  0  0  0  0  0
    2.1190   -3.2888    1.4178 H   0  0  0  0  0  0  0  0  0  0  0  0
    0.9254   -3.2549    0.0939 H   0  0  0  0  0  0  0  0  0  0  0  0
    3.0424   -3.5049   -0.9329 H   0  0  0  0  0  0  0  0  0  0  0  0
    3.6405   -1.4979   -2.0165 H   0  0  0  0  0  0  0  0  0  0  0  0
    1.8026   -1.2310   -3.1932 H   0  0  0  0  0  0  0  0  0  0  0  0
    5.2585   -3.1405   -1.0217 H   0  0  0  0  0  0  0  0  0  0  0  0
    5.9772   -2.7424    0.5591 H   0  0  0  0  0  0  0  0  0  0  0  0
    4.8040   -4.0720    0.4999 H   0  0  0  0  0  0  0  0  0  0  0  0
  1  2  1  0
  2  3  1  0
  2  4  1  0
  4  5  1  0
  5  6  1  0
  6  7  1  0
  5  8  1  0
  8  9  1  0
  9 10  1  0
 10 11  1  0
 11 12  1  0
 12 13  1  0
 13 14  1  0
 14 15  1  0
 15 16  1  0
 13 17  1  0
 17 18  1  0
 12 19  1  0
 19 20  1  0
 10 21  1  0
 14 21  1  0
  6 22  1  0
 21 22  1  0
 22 23  1  0
 23 24  1  0
 24 25  1  0
  7 26  1  0
 25 26  1  0
 26 27  1  0
 25 28  1  0
 28 29  1  0
  1 30  1  0
  2 31  1  0
  3 32  1  0
  3 33  1  0
  3 34  1  0
  4 35  1  0
  5 36  1  1
  6 37  1  0
  7 38  1  0
  7 39  1  0
  8 40  1  0
  8 41  1  0
  9 42  1  0
  9 43  1  0
 10 44  1  6
 11 45  1  0
 11 46  1  0
 12 47  1  0
 13 48  1  0
 14 49  1  0
 16 50  1  0
 16 51  1  0
 16 52  1  0
 18 53  1  0
 18 54  1  0
 18 55  1  0
 20 56  1  0
 20 57  1  0
 20 58  1  0
 21 59  1  1
 22 60  1  0
 23 61  1  0
 23 62  1  0
 24 63  1  0
 24 64  1  0
 25 65  1  6
 26 66  1  0
 27 67  1  0
 29 68  1  0
 29 69  1  0
 29 70  1  0
M  END
>  <PDBID>  (1) 
5EYP

>  <PDB ID>  (1) 
5EYP

>  <Generic Name>  (1) 
Colchicine

>  <Brand Name>  (1) 
Colchicine#Colchicine Tab 0.6mg#Colchicine Tab 1mg#Colcrys#Euro-colchicine#Jamp-colchicine#Mitigare#PMS-colchicine#Probenecid and Colchicine#Verban Ont

>  <DrugBank ID>  (1) 
DB01394

>  <ATC Codes>  (1) 
M04AC01

>  <Ligand ID>  (1) 
LOC

>  <Target Name>  (1) 
Tubulin beta-1 chain

>  <UniProt ID>  (1) 
Q9H4B7

>  <PDB ID.1>  (1) 
5EYP

>  <Seq. Identity>  (1) 
78%

$$$$
