PDB_DB08877_00
     RDKit          3D

114120  0  0  0  0  0  0  0  0999 V2000
   -3.0684   -2.0280   -0.2269 C   0  0  0  0  0  0  0  0  0  0  0  0
   -4.3347   -2.5571    0.4686 C   0  0  0  0  0  0  0  0  0  0  0  0
   -4.4383   -1.6502    1.6741 C   0  0  0  0  0  0  0  0  0  0  0  0
   -3.5839   -0.4236    1.3839 C   0  0  0  0  0  0  0  0  0  0  0  0
   -3.2784   -0.5592   -0.0658 C   0  0  0  0  0  0  0  0  0  0  0  0
   -2.1797    0.3116   -0.5727 C   0  0  1  0  0  0  0  0  0  0  0  0
   -2.5175    1.7648   -0.3485 C   0  0  0  0  0  0  0  0  0  0  0  0
   -3.7741    2.1948   -1.0416 C   0  0  0  0  0  0  0  0  0  0  0  0
   -3.9695    3.6102   -0.7359 N   0  0  0  0  0  0  0  0  0  0  0  0
   -0.8827    0.0351   -0.0468 N   0  0  0  0  0  0  0  0  0  0  0  0
    0.0784    0.9361   -0.6176 C   0  0  0  0  0  0  0  0  0  0  0  0
   -0.4375   -1.2064   -0.5162 N   0  0  0  0  0  0  0  0  0  0  0  0
    0.9838   -1.1681   -0.1711 C   0  0  0  0  0  0  0  0  0  0  0  0
    1.3735    0.1441   -0.8285 C   0  0  0  0  0  0  0  0  0  0  0  0
    2.4603    0.8282   -0.0879 C   0  0  0  0  0  0  0  0  0  0  0  0
    2.1337    0.8378    1.3393 N   0  0  0  0  0  0  0  0  0  0  0  0
    3.3829    0.9813    2.1016 C   0  0  0  0  0  0  0  0  0  0  0  0
    4.1981   -0.2016    2.0493 N   0  0  0  0  0  0  0  0  0  0  0  0
    4.1242   -0.7805    0.7473 C   0  0  0  0  0  0  0  0  0  0  0  0
    3.8272    0.3250   -0.2436 C   0  0  0  0  0  0  0  0  0  0  0  0
    4.1600   -0.3804   -1.5298 C   0  0  0  0  0  0  0  0  0  0  0  0
    5.4677   -1.0434   -1.1366 C   0  0  0  0  0  0  0  0  0  0  0  0
    5.3716   -1.3499    0.2776 N   0  0  0  0  0  0  0  0  0  0  0  0
   -3.3729   -1.9317    0.1521 C   0  0  0  0  0  0  0  0  0  0  0  0
   -4.7572   -2.1473    0.7883 C   0  0  0  0  0  0  0  0  0  0  0  0
   -4.8384   -0.9975    1.7437 C   0  0  0  0  0  0  0  0  0  0  0  0
   -3.8193    0.0425    1.3120 C   0  0  0  0  0  0  0  0  0  0  0  0
   -3.4096   -0.4427   -0.0394 C   0  0  0  0  0  0  0  0  0  0  0  0
   -2.1925    0.1696   -0.6009 C   0  0  1  0  0  0  0  0  0  0  0  0
   -2.3743    1.6539   -0.7337 C   0  0  0  0  0  0  0  0  0  0  0  0
   -3.5183    2.0265   -1.6337 C   0  0  0  0  0  0  0  0  0  0  0  0
   -3.5789    3.4960   -1.6714 N   0  0  0  0  0  0  0  0  0  0  0  0
   -0.9772   -0.1511    0.0798 N   0  0  0  0  0  0  0  0  0  0  0  0
    0.1552    0.5497   -0.5074 C   0  0  0  0  0  0  0  0  0  0  0  0
   -0.6686   -1.5234   -0.0833 N   0  0  0  0  0  0  0  0  0  0  0  0
    0.7399   -1.5568    0.3396 C   0  0  0  0  0  0  0  0  0  0  0  0
    1.3034   -0.4376   -0.5248 C   0  0  0  0  0  0  0  0  0  0  0  0
    2.5706    0.1355    0.0731 C   0  0  1  0  0  0  0  0  0  0  0  0
    2.3350    0.4993    1.4064 N   0  0  0  0  0  0  0  0  0  0  0  0
    3.4204    0.4929    2.3097 C   0  0  0  0  0  0  0  0  0  0  0  0
    4.4964   -0.3768    2.0195 N   0  0  0  0  0  0  0  0  0  0  0  0
    4.8773   -0.4971    0.6667 C   0  0  0  0  0  0  0  0  0  0  0  0
    3.6737   -0.8424   -0.1719 C   0  0  0  0  0  0  0  0  0  0  0  0
    4.2554   -0.6515   -1.5738 C   0  0  0  0  0  0  0  0  0  0  0  0
    5.4085    0.2916   -1.3677 C   0  0  0  0  0  0  0  0  0  0  0  0
    5.3439    0.7109    0.0417 N   0  0  0  0  0  0  0  0  0  0  0  0
   -2.9972   -2.3711   -1.2598 H   0  0  0  0  0  0  0  0  0  0  0  0
   -2.2383   -2.4269    0.4226 H   0  0  0  0  0  0  0  0  0  0  0  0
   -5.1558   -2.3949   -0.2606 H   0  0  0  0  0  0  0  0  0  0  0  0
   -4.1830   -3.6092    0.7275 H   0  0  0  0  0  0  0  0  0  0  0  0
   -5.5007   -1.3953    1.8301 H   0  0  0  0  0  0  0  0  0  0  0  0
   -4.0247   -2.2135    2.5345 H   0  0  0  0  0  0  0  0  0  0  0  0
   -4.2456    0.4640    1.5816 H   0  0  0  0  0  0  0  0  0  0  0  0
   -2.7029   -0.3926    2.0410 H   0  0  0  0  0  0  0  0  0  0  0  0
   -4.2065   -0.3037   -0.6280 H   0  0  0  0  0  0  0  0  0  0  0  0
   -2.1265    0.1724   -1.6822 H   0  0  0  0  0  0  0  0  0  0  0  0
   -1.6963    2.4180   -0.6670 H   0  0  0  0  0  0  0  0  0  0  0  0
   -2.6747    1.9578    0.7488 H   0  0  0  0  0  0  0  0  0  0  0  0
   -3.7221    2.1112   -2.1379 H   0  0  0  0  0  0  0  0  0  0  0  0
   -4.6815    1.6792   -0.6144 H   0  0  0  0  0  0  0  0  0  0  0  0
   -3.0960    4.0850   -0.4743 H   0  0  0  0  0  0  0  0  0  0  0  0
   -4.4362    4.0739   -1.5458 H   0  0  0  0  0  0  0  0  0  0  0  0
   -0.2522    1.3365   -1.6022 H   0  0  0  0  0  0  0  0  0  0  0  0
    0.2079    1.7887    0.0652 H   0  0  0  0  0  0  0  0  0  0  0  0
   -0.5300   -1.1681   -1.5684 H   0  0  0  0  0  0  0  0  0  0  0  0
    1.4480   -2.0499   -0.6219 H   0  0  0  0  0  0  0  0  0  0  0  0
    1.0145   -1.1102    0.9271 H   0  0  0  0  0  0  0  0  0  0  0  0
    1.5376    0.0142   -1.8939 H   0  0  0  0  0  0  0  0  0  0  0  0
    2.4590    1.9067   -0.4510 H   0  0  0  0  0  0  0  0  0  0  0  0
    1.6075    1.7134    1.5335 H   0  0  0  0  0  0  0  0  0  0  0  0
    3.9294    1.9055    1.8032 H   0  0  0  0  0  0  0  0  0  0  0  0
    3.0619    1.1255    3.1651 H   0  0  0  0  0  0  0  0  0  0  0  0
    5.1875    0.0694    2.2385 H   0  0  0  0  0  0  0  0  0  0  0  0
    3.3433   -1.5666    0.7679 H   0  0  0  0  0  0  0  0  0  0  0  0
    4.5938    1.1111   -0.1023 H   0  0  0  0  0  0  0  0  0  0  0  0
    3.4508   -1.2301   -1.7275 H   0  0  0  0  0  0  0  0  0  0  0  0
    4.2739    0.2842   -2.3899 H   0  0  0  0  0  0  0  0  0  0  0  0
    6.2687   -0.2718   -1.2315 H   0  0  0  0  0  0  0  0  0  0  0  0
    5.6808   -1.9422   -1.7552 H   0  0  0  0  0  0  0  0  0  0  0  0
    5.3088   -2.3910    0.3551 H   0  0  0  0  0  0  0  0  0  0  0  0
   -3.2464   -2.5093   -0.7615 H   0  0  0  0  0  0  0  0  0  0  0  0
   -2.6644   -2.2432    0.9742 H   0  0  0  0  0  0  0  0  0  0  0  0
   -5.4940   -2.0822   -0.0479 H   0  0  0  0  0  0  0  0  0  0  0  0
   -4.7437   -3.1311    1.2644 H   0  0  0  0  0  0  0  0  0  0  0  0
   -5.8490   -0.5319    1.7438 H   0  0  0  0  0  0  0  0  0  0  0  0
   -4.6001   -1.3889    2.7560 H   0  0  0  0  0  0  0  0  0  0  0  0
   -4.2334    1.0613    1.3314 H   0  0  0  0  0  0  0  0  0  0  0  0
   -2.9436   -0.0037    2.0027 H   0  0  0  0  0  0  0  0  0  0  0  0
   -4.2739   -0.2460   -0.7254 H   0  0  0  0  0  0  0  0  0  0  0  0
   -2.0775   -0.2266   -1.6528 H   0  0  0  0  0  0  0  0  0  0  0  0
   -1.4770    2.1836   -1.1037 H   0  0  0  0  0  0  0  0  0  0  0  0
   -2.5939    2.1195    0.2695 H   0  0  0  0  0  0  0  0  0  0  0  0
   -3.3456    1.7101   -2.6846 H   0  0  0  0  0  0  0  0  0  0  0  0
   -4.5086    1.7094   -1.2488 H   0  0  0  0  0  0  0  0  0  0  0  0
   -2.7427    3.9309   -1.2610 H   0  0  0  0  0  0  0  0  0  0  0  0
   -3.8296    3.8269   -2.6179 H   0  0  0  0  0  0  0  0  0  0  0  0
   -0.0389    0.8155   -1.5718 H   0  0  0  0  0  0  0  0  0  0  0  0
    0.3462    1.4330    0.1174 H   0  0  0  0  0  0  0  0  0  0  0  0
   -0.6294   -1.6663   -1.1290 H   0  0  0  0  0  0  0  0  0  0  0  0
    1.1536   -2.5349    0.1045 H   0  0  0  0  0  0  0  0  0  0  0  0
    0.7351   -1.2935    1.4147 H   0  0  0  0  0  0  0  0  0  0  0  0
    1.4768   -0.8533   -1.5378 H   0  0  0  0  0  0  0  0  0  0  0  0
    2.8030    1.0505   -0.5459 H   0  0  0  0  0  0  0  0  0  0  0  0
    1.9082    1.4755    1.4253 H   0  0  0  0  0  0  0  0  0  0  0  0
    3.8341    1.5316    2.4702 H   0  0  0  0  0  0  0  0  0  0  0  0
    3.0191    0.2110    3.3276 H   0  0  0  0  0  0  0  0  0  0  0  0
    5.2462   -0.2602    2.7085 H   0  0  0  0  0  0  0  0  0  0  0  0
    5.6822   -1.2480    0.5786 H   0  0  0  0  0  0  0  0  0  0  0  0
    3.4109   -1.8896    0.0282 H   0  0  0  0  0  0  0  0  0  0  0  0
    4.6659   -1.6396   -1.9165 H   0  0  0  0  0  0  0  0  0  0  0  0
    3.5001   -0.2695   -2.2822 H   0  0  0  0  0  0  0  0  0  0  0  0
    6.3911   -0.2077   -1.4995 H   0  0  0  0  0  0  0  0  0  0  0  0
    5.3626    1.1483   -2.0535 H   0  0  0  0  0  0  0  0  0  0  0  0
    4.6840    1.5059    0.0982 H   0  0  0  0  0  0  0  0  0  0  0  0
  1  2  1  0
  2  3  1  0
  3  4  1  0
  1  5  1  0
  4  5  1  0
  5  6  1  0
  6  7  1  0
  7  8  1  0
  8  9  1  0
  6 10  1  0
 10 11  1  0
 10 12  1  0
 12 13  1  0
 11 14  1  0
 13 14  1  0
 14 15  1  0
 15 16  1  0
 16 17  1  0
 17 18  1  0
 18 19  1  0
 15 20  1  0
 19 20  1  0
 20 21  1  0
 21 22  1  0
 19 23  1  0
 22 23  1  0
 24 25  1  0
 25 26  1  0
 26 27  1  0
 24 28  1  0
 27 28  1  0
 28 29  1  0
 29 30  1  0
 30 31  1  0
 31 32  1  0
 29 33  1  0
 33 34  1  0
 33 35  1  0
 35 36  1  0
 34 37  1  0
 36 37  1  0
 37 38  1  0
 38 39  1  0
 39 40  1  0
 40 41  1  0
 41 42  1  0
 38 43  1  0
 42 43  1  0
 43 44  1  0
 44 45  1  0
 42 46  1  0
 45 46  1  0
  1 47  1  0
  1 48  1  0
  2 49  1  0
  2 50  1  0
  3 51  1  0
  3 52  1  0
  4 53  1  0
  4 54  1  0
  5 55  1  0
  6 56  1  6
  7 57  1  0
  7 58  1  0
  8 59  1  0
  8 60  1  0
  9 61  1  0
  9 62  1  0
 11 63  1  0
 11 64  1  0
 12 65  1  0
 13 66  1  0
 13 67  1  0
 14 68  1  0
 15 69  1  0
 16 70  1  0
 17 71  1  0
 17 72  1  0
 18 73  1  0
 19 74  1  0
 20 75  1  0
 21 76  1  0
 21 77  1  0
 22 78  1  0
 22 79  1  0
 23 80  1  0
 24 81  1  0
 24 82  1  0
 25 83  1  0
 25 84  1  0
 26 85  1  0
 26 86  1  0
 27 87  1  0
 27 88  1  0
 28 89  1  0
 29 90  1  6
 30 91  1  0
 30 92  1  0
 31 93  1  0
 31 94  1  0
 32 95  1  0
 32 96  1  0
 34 97  1  0
 34 98  1  0
 35 99  1  0
 36100  1  0
 36101  1  0
 37102  1  0
 38103  1  6
 39104  1  0
 40105  1  0
 40106  1  0
 41107  1  0
 42108  1  0
 43109  1  0
 44110  1  0
 44111  1  0
 45112  1  0
 45113  1  0
 46114  1  0
M  END
>  <PDBID>  (1) 
4U5J

>  <PDB ID>  (1) 
4U5J

>  <Generic Name>  (1) 
Ruxolitinib

>  <Brand Name>  (1) 
Jakafi#Jakavi

>  <DrugBank ID>  (1) 
DB08877

>  <ATC Codes>  (1) 
L01XE18

>  <Ligand ID>  (1) 
RXT

>  <Target Name>  (1) 
Tyrosine-protein kinase JAK2

>  <UniProt ID>  (1) 
O60674

>  <PDB ID.1>  (1) 
4U5J

>  <Seq. Identity>  (1) 
30%

$$$$
