PDB_DB00624_07
     RDKit          3D

 53 56  0  0  0  0  0  0  0  0999 V2000
    2.3076    1.1643   -1.1801 C   0  0  0  0  0  0  0  0  0  0  0  0
    3.7882    0.8565   -1.2835 C   0  0  0  0  0  0  0  0  0  0  0  0
    4.4183    0.6564    0.0783 C   0  0  0  0  0  0  0  0  0  0  0  0
    5.7627    0.4188   -0.0967 O   0  0  0  0  0  0  0  0  0  0  0  0
    3.7025   -0.5139    0.7213 C   0  0  0  0  0  0  0  0  0  0  0  0
    2.2497   -0.1554    0.8590 C   0  0  0  0  0  0  0  0  0  0  0  0
    1.4936   -1.1245    1.7250 C   0  0  0  0  0  0  0  0  0  0  0  0
    0.1706   -0.4349    2.0873 C   0  0  0  0  0  0  0  0  0  0  0  0
   -0.5934   -0.2879    0.8155 C   0  0  2  0  0  0  0  0  0  0  0  0
    0.1708    0.6340   -0.1459 C   0  0  1  0  0  0  0  0  0  0  0  0
    1.5543    0.0550   -0.4522 C   0  0  1  0  0  0  0  0  0  0  0  0
   -0.5921    1.0265   -1.3379 C   0  0  0  0  0  0  0  0  0  0  0  0
   -1.9699    0.5620   -1.5097 C   0  0  0  0  0  0  0  0  0  0  0  0
   -2.6736    0.0009   -0.3351 C   0  0  1  0  0  0  0  0  0  0  0  0
   -1.9161    0.3644    0.9336 C   0  0  1  0  0  0  0  0  0  0  0  0
   -2.8197   -0.0926    1.9931 C   0  0  0  0  0  0  0  0  0  0  0  0
   -4.1982    0.3219    1.4684 C   0  0  0  0  0  0  0  0  0  0  0  0
   -4.0032    0.6202   -0.0170 C   0  0  2  0  0  0  0  0  0  0  0  0
   -5.0392    0.1412   -0.7887 O   0  0  0  0  0  0  0  0  0  0  0  0
   -2.8800   -1.4912   -0.4513 C   0  0  0  0  0  0  0  0  0  0  0  0
    1.4776   -1.1716   -1.2946 C   0  0  0  0  0  0  0  0  0  0  0  0
    2.1352    2.1143   -0.6321 H   0  0  0  0  0  0  0  0  0  0  0  0
    1.9463    1.3212   -2.2066 H   0  0  0  0  0  0  0  0  0  0  0  0
    4.2639    1.7514   -1.7245 H   0  0  0  0  0  0  0  0  0  0  0  0
    3.9448    0.0200   -1.9653 H   0  0  0  0  0  0  0  0  0  0  0  0
    4.2384    1.5530    0.6795 H   0  0  0  0  0  0  0  0  0  0  0  0
    5.8882   -0.5716   -0.0932 H   0  0  0  0  0  0  0  0  0  0  0  0
    4.1130   -0.6173    1.7459 H   0  0  0  0  0  0  0  0  0  0  0  0
    3.8765   -1.4568    0.2007 H   0  0  0  0  0  0  0  0  0  0  0  0
    2.2205    0.8353    1.3972 H   0  0  0  0  0  0  0  0  0  0  0  0
    2.0460   -1.4542    2.6018 H   0  0  0  0  0  0  0  0  0  0  0  0
    1.2024   -2.0105    1.1091 H   0  0  0  0  0  0  0  0  0  0  0  0
    0.3841    0.5776    2.4899 H   0  0  0  0  0  0  0  0  0  0  0  0
   -0.3816   -1.0761    2.7872 H   0  0  0  0  0  0  0  0  0  0  0  0
   -0.7302   -1.2887    0.3589 H   0  0  0  0  0  0  0  0  0  0  0  0
    0.3978    1.5398    0.4939 H   0  0  0  0  0  0  0  0  0  0  0  0
   -0.5770    2.1547   -1.4333 H   0  0  0  0  0  0  0  0  0  0  0  0
    0.0067    0.7039   -2.2440 H   0  0  0  0  0  0  0  0  0  0  0  0
   -2.6312    1.3865   -1.9189 H   0  0  0  0  0  0  0  0  0  0  0  0
   -2.0372   -0.2198   -2.3277 H   0  0  0  0  0  0  0  0  0  0  0  0
   -1.8526    1.4704    0.9469 H   0  0  0  0  0  0  0  0  0  0  0  0
   -2.7840   -1.1475    2.2645 H   0  0  0  0  0  0  0  0  0  0  0  0
   -2.5900    0.4798    2.9383 H   0  0  0  0  0  0  0  0  0  0  0  0
   -4.9546   -0.4438    1.6443 H   0  0  0  0  0  0  0  0  0  0  0  0
   -4.4924    1.2528    1.9972 H   0  0  0  0  0  0  0  0  0  0  0  0
   -3.8756    1.7331   -0.1606 H   0  0  0  0  0  0  0  0  0  0  0  0
   -5.7757   -0.1230   -0.1522 H   0  0  0  0  0  0  0  0  0  0  0  0
   -3.9482   -1.6812   -0.7635 H   0  0  0  0  0  0  0  0  0  0  0  0
   -2.6204   -2.0513    0.4425 H   0  0  0  0  0  0  0  0  0  0  0  0
   -2.2647   -1.8563   -1.2997 H   0  0  0  0  0  0  0  0  0  0  0  0
    0.7109   -1.8715   -0.9642 H   0  0  0  0  0  0  0  0  0  0  0  0
    2.4619   -1.6782   -1.2555 H   0  0  0  0  0  0  0  0  0  0  0  0
    1.2679   -0.8961   -2.3498 H   0  0  0  0  0  0  0  0  0  0  0  0
  1  2  1  0
  2  3  1  0
  3  4  1  0
  3  5  1  0
  5  6  1  0
  6  7  1  0
  7  8  1  0
  8  9  1  0
  9 10  1  0
  1 11  1  0
  6 11  1  0
 10 11  1  0
 10 12  1  0
 12 13  1  0
 13 14  1  0
  9 15  1  0
 14 15  1  0
 15 16  1  0
 16 17  1  0
 14 18  1  0
 17 18  1  0
 18 19  1  0
 14 20  1  6
 11 21  1  6
  1 22  1  0
  1 23  1  0
  2 24  1  0
  2 25  1  0
  3 26  1  0
  4 27  1  0
  5 28  1  0
  5 29  1  0
  6 30  1  0
  7 31  1  0
  7 32  1  0
  8 33  1  0
  8 34  1  0
  9 35  1  6
 10 36  1  1
 12 37  1  0
 12 38  1  0
 13 39  1  0
 13 40  1  0
 15 41  1  1
 16 42  1  0
 16 43  1  0
 17 44  1  0
 17 45  1  0
 18 46  1  1
 19 47  1  0
 20 48  1  0
 20 49  1  0
 20 50  1  0
 21 51  1  0
 21 52  1  0
 21 53  1  0
M  END
>  <PDBID>  (1) 
2AM9

>  <PDB ID>  (1) 
2AM9

>  <Generic Name>  (1) 
Testosterone

>  <Brand Name>  (1) 
Andriol#Androderm#Androgel#Aveed#Axiron#Delatestryl#Depo-testosterone#Depo-testosterone Inj 100mg/ml#Fortesta#Malogen Aqueous 100 Sus 100mg/ml#Malogex La200 Liq 200mg/ml#Natesto#Neo Pause Injection#PMS-testosterone#PMS-testosterone Enanthate Inj 200mg/ml USP#Scheinpharm Testone-cyp Inject.- Im 100mg/ml#Striant#Taro-testosterone#Testim#Testim 1%#Testopel#Testosterone#Testosterone Cypionate#Testosterone Cypionate Injection USP#Testosterone Cypionate Injection, USP#Testosterone Enanthate#Testosterone Enanthate Inj 200mg/ml#Vogelxo#Andronate 100#Andronate 200#Andropatch#Andropository 200#Andryl 200#Bio-T-Gel#Fortigel#Intrinsa#Livensa#Nebido#Sustanon#Testamone 100#Testaqua IM#Testoderm#Testoderm TTS#Testogel#Testolin#Testopatch#Testopel Pellets#Testrin-P.A#Testro AQ#Tostrelle#Tostrex#Virormone

>  <DrugBank ID>  (1) 
DB00624

>  <ATC Codes>  (1) 
G03EA02#G03BA03

>  <Ligand ID>  (1) 
TES

>  <Target Name>  (1) 
Androgen receptor

>  <UniProt ID>  (1) 
P10275

>  <PDB ID.1>  (1) 
2AM9

>  <Seq. Identity>  (1) 
100%

$$$$
