PDB_DB08910_05
     RDKit          3D

180188  0  0  0  0  0  0  0  0999 V2000
    4.0902    0.5167    0.3634 C   0  0  0  0  0  0  0  0  0  0  0  0
    3.9754   -0.9377    0.7007 C   0  0  0  0  0  0  0  0  0  0  0  0
    2.7858   -1.5996    0.0478 C   0  0  0  0  0  0  0  0  0  0  0  0
    1.5631   -0.8775    0.5142 C   0  0  0  0  0  0  0  0  0  0  0  0
    1.5735    0.5653    0.1766 C   0  0  0  0  0  0  0  0  0  0  0  0
    2.8853    1.1593   -0.1711 C   0  0  0  0  0  0  0  0  0  0  0  0
    0.2879   -1.4455   -0.1389 C   0  0  0  0  0  0  0  0  0  0  0  0
   -0.3769   -0.2976   -0.5105 N   0  0  0  0  0  0  0  0  0  0  0  0
    0.5823    0.6481   -0.9663 C   0  0  0  0  0  0  0  0  0  0  0  0
    2.8542    2.5596    0.2775 N   0  0  0  0  0  0  0  0  0  0  0  0
    0.0935    1.9266   -1.1538 O   0  0  0  0  0  0  0  0  0  0  0  0
   -1.6781    0.0246   -0.3436 C   0  0  1  0  0  0  0  0  0  0  0  0
   -0.3395   -2.3793    0.6300 O   0  0  0  0  0  0  0  0  0  0  0  0
   -2.7220   -0.8553   -1.0217 C   0  0  0  0  0  0  0  0  0  0  0  0
   -2.0311    0.2293    1.1144 C   0  0  0  0  0  0  0  0  0  0  0  0
   -3.2395    1.0331    1.2468 N   0  0  0  0  0  0  0  0  0  0  0  0
   -4.2681    0.5624    0.3600 C   0  0  0  0  0  0  0  0  0  0  0  0
   -4.0058   -0.8060   -0.2173 C   0  0  0  0  0  0  0  0  0  0  0  0
   -2.1227   -0.9459    1.8369 O   0  0  0  0  0  0  0  0  0  0  0  0
   -4.5537    1.4747   -0.6350 O   0  0  0  0  0  0  0  0  0  0  0  0
    4.0902    0.5167    0.3634 C   0  0  0  0  0  0  0  0  0  0  0  0
    3.9754   -0.9377    0.7007 C   0  0  0  0  0  0  0  0  0  0  0  0
    2.7858   -1.5996    0.0478 C   0  0  0  0  0  0  0  0  0  0  0  0
    1.5631   -0.8775    0.5142 C   0  0  0  0  0  0  0  0  0  0  0  0
    1.5735    0.5653    0.1766 C   0  0  0  0  0  0  0  0  0  0  0  0
    2.8853    1.1593   -0.1711 C   0  0  0  0  0  0  0  0  0  0  0  0
    0.2879   -1.4455   -0.1389 C   0  0  0  0  0  0  0  0  0  0  0  0
   -0.3769   -0.2976   -0.5105 N   0  0  0  0  0  0  0  0  0  0  0  0
    0.5823    0.6481   -0.9663 C   0  0  0  0  0  0  0  0  0  0  0  0
    2.8542    2.5596    0.2775 N   0  0  0  0  0  0  0  0  0  0  0  0
    0.0935    1.9266   -1.1538 O   0  0  0  0  0  0  0  0  0  0  0  0
   -1.6781    0.0246   -0.3436 C   0  0  1  0  0  0  0  0  0  0  0  0
   -0.3395   -2.3793    0.6300 O   0  0  0  0  0  0  0  0  0  0  0  0
   -2.7220   -0.8553   -1.0217 C   0  0  0  0  0  0  0  0  0  0  0  0
   -2.0311    0.2293    1.1144 C   0  0  0  0  0  0  0  0  0  0  0  0
   -3.2395    1.0331    1.2468 N   0  0  0  0  0  0  0  0  0  0  0  0
   -4.2681    0.5624    0.3600 C   0  0  0  0  0  0  0  0  0  0  0  0
   -4.0058   -0.8060   -0.2173 C   0  0  0  0  0  0  0  0  0  0  0  0
   -2.1227   -0.9459    1.8369 O   0  0  0  0  0  0  0  0  0  0  0  0
   -4.5537    1.4747   -0.6350 O   0  0  0  0  0  0  0  0  0  0  0  0
    4.0902    0.5167    0.3634 C   0  0  0  0  0  0  0  0  0  0  0  0
    3.9754   -0.9377    0.7007 C   0  0  0  0  0  0  0  0  0  0  0  0
    2.7858   -1.5996    0.0478 C   0  0  0  0  0  0  0  0  0  0  0  0
    1.5631   -0.8775    0.5142 C   0  0  0  0  0  0  0  0  0  0  0  0
    1.5735    0.5653    0.1766 C   0  0  0  0  0  0  0  0  0  0  0  0
    2.8853    1.1593   -0.1711 C   0  0  0  0  0  0  0  0  0  0  0  0
    0.2879   -1.4455   -0.1389 C   0  0  0  0  0  0  0  0  0  0  0  0
   -0.3769   -0.2976   -0.5105 N   0  0  0  0  0  0  0  0  0  0  0  0
    0.5823    0.6481   -0.9663 C   0  0  0  0  0  0  0  0  0  0  0  0
    2.8542    2.5596    0.2775 N   0  0  0  0  0  0  0  0  0  0  0  0
    0.0935    1.9266   -1.1538 O   0  0  0  0  0  0  0  0  0  0  0  0
   -1.6781    0.0246   -0.3436 C   0  0  1  0  0  0  0  0  0  0  0  0
   -0.3395   -2.3793    0.6300 O   0  0  0  0  0  0  0  0  0  0  0  0
   -2.7220   -0.8553   -1.0217 C   0  0  0  0  0  0  0  0  0  0  0  0
   -2.0311    0.2293    1.1144 C   0  0  0  0  0  0  0  0  0  0  0  0
   -3.2395    1.0331    1.2468 N   0  0  0  0  0  0  0  0  0  0  0  0
   -4.2681    0.5624    0.3600 C   0  0  0  0  0  0  0  0  0  0  0  0
   -4.0058   -0.8060   -0.2173 C   0  0  0  0  0  0  0  0  0  0  0  0
   -2.1227   -0.9459    1.8369 O   0  0  0  0  0  0  0  0  0  0  0  0
   -4.5537    1.4747   -0.6350 O   0  0  0  0  0  0  0  0  0  0  0  0
    4.0902    0.5167    0.3634 C   0  0  0  0  0  0  0  0  0  0  0  0
    3.9754   -0.9377    0.7007 C   0  0  0  0  0  0  0  0  0  0  0  0
    2.7858   -1.5996    0.0478 C   0  0  0  0  0  0  0  0  0  0  0  0
    1.5631   -0.8775    0.5142 C   0  0  0  0  0  0  0  0  0  0  0  0
    1.5735    0.5653    0.1766 C   0  0  0  0  0  0  0  0  0  0  0  0
    2.8853    1.1593   -0.1711 C   0  0  0  0  0  0  0  0  0  0  0  0
    0.2879   -1.4455   -0.1389 C   0  0  0  0  0  0  0  0  0  0  0  0
   -0.3769   -0.2976   -0.5105 N   0  0  0  0  0  0  0  0  0  0  0  0
    0.5823    0.6481   -0.9663 C   0  0  0  0  0  0  0  0  0  0  0  0
    2.8542    2.5596    0.2775 N   0  0  0  0  0  0  0  0  0  0  0  0
    0.0935    1.9266   -1.1538 O   0  0  0  0  0  0  0  0  0  0  0  0
   -1.6781    0.0246   -0.3436 C   0  0  1  0  0  0  0  0  0  0  0  0
   -0.3395   -2.3793    0.6300 O   0  0  0  0  0  0  0  0  0  0  0  0
   -2.7220   -0.8553   -1.0217 C   0  0  0  0  0  0  0  0  0  0  0  0
   -2.0311    0.2293    1.1144 C   0  0  0  0  0  0  0  0  0  0  0  0
   -3.2395    1.0331    1.2468 N   0  0  0  0  0  0  0  0  0  0  0  0
   -4.2681    0.5624    0.3600 C   0  0  0  0  0  0  0  0  0  0  0  0
   -4.0058   -0.8060   -0.2173 C   0  0  0  0  0  0  0  0  0  0  0  0
   -2.1227   -0.9459    1.8369 O   0  0  0  0  0  0  0  0  0  0  0  0
   -4.5537    1.4747   -0.6350 O   0  0  0  0  0  0  0  0  0  0  0  0
    4.4784    1.0337    1.2763 H   0  0  0  0  0  0  0  0  0  0  0  0
    4.9322    0.6053   -0.3821 H   0  0  0  0  0  0  0  0  0  0  0  0
    4.8766   -1.5177    0.4156 H   0  0  0  0  0  0  0  0  0  0  0  0
    3.8627   -1.0834    1.8039 H   0  0  0  0  0  0  0  0  0  0  0  0
    2.7505   -2.6468    0.4630 H   0  0  0  0  0  0  0  0  0  0  0  0
    2.8802   -1.7079   -1.0345 H   0  0  0  0  0  0  0  0  0  0  0  0
    1.4793   -1.0733    1.6212 H   0  0  0  0  0  0  0  0  0  0  0  0
    1.0909    1.1178    1.0364 H   0  0  0  0  0  0  0  0  0  0  0  0
    2.9377    1.2259   -1.2909 H   0  0  0  0  0  0  0  0  0  0  0  0
    0.6679   -1.9689   -1.0598 H   0  0  0  0  0  0  0  0  0  0  0  0
    1.0630    0.2310   -1.8871 H   0  0  0  0  0  0  0  0  0  0  0  0
    2.9914    2.6247    1.3067 H   0  0  0  0  0  0  0  0  0  0  0  0
    3.5111    3.1453   -0.2752 H   0  0  0  0  0  0  0  0  0  0  0  0
    0.2184    2.4258   -0.3104 H   0  0  0  0  0  0  0  0  0  0  0  0
   -1.8702    1.0514   -0.8072 H   0  0  0  0  0  0  0  0  0  0  0  0
    0.1369   -2.5302    1.4891 H   0  0  0  0  0  0  0  0  0  0  0  0
   -2.9371   -0.5270   -2.0450 H   0  0  0  0  0  0  0  0  0  0  0  0
   -2.3390   -1.8757   -1.0299 H   0  0  0  0  0  0  0  0  0  0  0  0
   -1.2201    0.8359    1.5659 H   0  0  0  0  0  0  0  0  0  0  0  0
   -2.9775    2.0336    1.0837 H   0  0  0  0  0  0  0  0  0  0  0  0
   -5.1969    0.4546    0.9834 H   0  0  0  0  0  0  0  0  0  0  0  0
   -3.9610   -1.5841    0.5436 H   0  0  0  0  0  0  0  0  0  0  0  0
   -4.8407   -1.0013   -0.9355 H   0  0  0  0  0  0  0  0  0  0  0  0
   -2.8026   -0.8707    2.5640 H   0  0  0  0  0  0  0  0  0  0  0  0
   -5.0859    1.0470   -1.3568 H   0  0  0  0  0  0  0  0  0  0  0  0
    4.4784    1.0337    1.2763 H   0  0  0  0  0  0  0  0  0  0  0  0
    4.9322    0.6053   -0.3821 H   0  0  0  0  0  0  0  0  0  0  0  0
    4.8766   -1.5177    0.4156 H   0  0  0  0  0  0  0  0  0  0  0  0
    3.8627   -1.0834    1.8039 H   0  0  0  0  0  0  0  0  0  0  0  0
    2.7505   -2.6468    0.4630 H   0  0  0  0  0  0  0  0  0  0  0  0
    2.8802   -1.7079   -1.0345 H   0  0  0  0  0  0  0  0  0  0  0  0
    1.4793   -1.0733    1.6212 H   0  0  0  0  0  0  0  0  0  0  0  0
    1.0909    1.1178    1.0364 H   0  0  0  0  0  0  0  0  0  0  0  0
    2.9377    1.2259   -1.2909 H   0  0  0  0  0  0  0  0  0  0  0  0
    0.6679   -1.9689   -1.0598 H   0  0  0  0  0  0  0  0  0  0  0  0
    1.0630    0.2310   -1.8871 H   0  0  0  0  0  0  0  0  0  0  0  0
    2.9914    2.6247    1.3067 H   0  0  0  0  0  0  0  0  0  0  0  0
    3.5111    3.1453   -0.2752 H   0  0  0  0  0  0  0  0  0  0  0  0
    0.2184    2.4258   -0.3104 H   0  0  0  0  0  0  0  0  0  0  0  0
   -1.8702    1.0514   -0.8072 H   0  0  0  0  0  0  0  0  0  0  0  0
    0.1369   -2.5302    1.4891 H   0  0  0  0  0  0  0  0  0  0  0  0
   -2.9371   -0.5270   -2.0450 H   0  0  0  0  0  0  0  0  0  0  0  0
   -2.3390   -1.8757   -1.0299 H   0  0  0  0  0  0  0  0  0  0  0  0
   -1.2201    0.8359    1.5659 H   0  0  0  0  0  0  0  0  0  0  0  0
   -2.9775    2.0336    1.0837 H   0  0  0  0  0  0  0  0  0  0  0  0
   -5.1969    0.4546    0.9834 H   0  0  0  0  0  0  0  0  0  0  0  0
   -3.9610   -1.5841    0.5436 H   0  0  0  0  0  0  0  0  0  0  0  0
   -4.8407   -1.0013   -0.9355 H   0  0  0  0  0  0  0  0  0  0  0  0
   -2.8026   -0.8707    2.5640 H   0  0  0  0  0  0  0  0  0  0  0  0
   -5.0859    1.0470   -1.3568 H   0  0  0  0  0  0  0  0  0  0  0  0
    4.4784    1.0337    1.2763 H   0  0  0  0  0  0  0  0  0  0  0  0
    4.9322    0.6053   -0.3821 H   0  0  0  0  0  0  0  0  0  0  0  0
    4.8766   -1.5177    0.4156 H   0  0  0  0  0  0  0  0  0  0  0  0
    3.8627   -1.0834    1.8039 H   0  0  0  0  0  0  0  0  0  0  0  0
    2.7505   -2.6468    0.4630 H   0  0  0  0  0  0  0  0  0  0  0  0
    2.8802   -1.7079   -1.0345 H   0  0  0  0  0  0  0  0  0  0  0  0
    1.4793   -1.0733    1.6212 H   0  0  0  0  0  0  0  0  0  0  0  0
    1.0909    1.1178    1.0364 H   0  0  0  0  0  0  0  0  0  0  0  0
    2.9377    1.2259   -1.2909 H   0  0  0  0  0  0  0  0  0  0  0  0
    0.6679   -1.9689   -1.0598 H   0  0  0  0  0  0  0  0  0  0  0  0
    1.0630    0.2310   -1.8871 H   0  0  0  0  0  0  0  0  0  0  0  0
    2.9914    2.6247    1.3067 H   0  0  0  0  0  0  0  0  0  0  0  0
    3.5111    3.1453   -0.2752 H   0  0  0  0  0  0  0  0  0  0  0  0
    0.2184    2.4258   -0.3104 H   0  0  0  0  0  0  0  0  0  0  0  0
   -1.8702    1.0514   -0.8072 H   0  0  0  0  0  0  0  0  0  0  0  0
    0.1369   -2.5302    1.4891 H   0  0  0  0  0  0  0  0  0  0  0  0
   -2.9371   -0.5270   -2.0450 H   0  0  0  0  0  0  0  0  0  0  0  0
   -2.3390   -1.8757   -1.0299 H   0  0  0  0  0  0  0  0  0  0  0  0
   -1.2201    0.8359    1.5659 H   0  0  0  0  0  0  0  0  0  0  0  0
   -2.9775    2.0336    1.0837 H   0  0  0  0  0  0  0  0  0  0  0  0
   -5.1969    0.4546    0.9834 H   0  0  0  0  0  0  0  0  0  0  0  0
   -3.9610   -1.5841    0.5436 H   0  0  0  0  0  0  0  0  0  0  0  0
   -4.8407   -1.0013   -0.9355 H   0  0  0  0  0  0  0  0  0  0  0  0
   -2.8026   -0.8707    2.5640 H   0  0  0  0  0  0  0  0  0  0  0  0
   -5.0859    1.0470   -1.3568 H   0  0  0  0  0  0  0  0  0  0  0  0
    4.4784    1.0337    1.2763 H   0  0  0  0  0  0  0  0  0  0  0  0
    4.9322    0.6053   -0.3821 H   0  0  0  0  0  0  0  0  0  0  0  0
    4.8766   -1.5177    0.4156 H   0  0  0  0  0  0  0  0  0  0  0  0
    3.8627   -1.0834    1.8039 H   0  0  0  0  0  0  0  0  0  0  0  0
    2.7505   -2.6468    0.4630 H   0  0  0  0  0  0  0  0  0  0  0  0
    2.8802   -1.7079   -1.0345 H   0  0  0  0  0  0  0  0  0  0  0  0
    1.4793   -1.0733    1.6212 H   0  0  0  0  0  0  0  0  0  0  0  0
    1.0909    1.1178    1.0364 H   0  0  0  0  0  0  0  0  0  0  0  0
    2.9377    1.2259   -1.2909 H   0  0  0  0  0  0  0  0  0  0  0  0
    0.6679   -1.9689   -1.0598 H   0  0  0  0  0  0  0  0  0  0  0  0
    1.0630    0.2310   -1.8871 H   0  0  0  0  0  0  0  0  0  0  0  0
    2.9914    2.6247    1.3067 H   0  0  0  0  0  0  0  0  0  0  0  0
    3.5111    3.1453   -0.2752 H   0  0  0  0  0  0  0  0  0  0  0  0
    0.2184    2.4258   -0.3104 H   0  0  0  0  0  0  0  0  0  0  0  0
   -1.8702    1.0514   -0.8072 H   0  0  0  0  0  0  0  0  0  0  0  0
    0.1369   -2.5302    1.4891 H   0  0  0  0  0  0  0  0  0  0  0  0
   -2.9371   -0.5270   -2.0450 H   0  0  0  0  0  0  0  0  0  0  0  0
   -2.3390   -1.8757   -1.0299 H   0  0  0  0  0  0  0  0  0  0  0  0
   -1.2201    0.8359    1.5659 H   0  0  0  0  0  0  0  0  0  0  0  0
   -2.9775    2.0336    1.0837 H   0  0  0  0  0  0  0  0  0  0  0  0
   -5.1969    0.4546    0.9834 H   0  0  0  0  0  0  0  0  0  0  0  0
   -3.9610   -1.5841    0.5436 H   0  0  0  0  0  0  0  0  0  0  0  0
   -4.8407   -1.0013   -0.9355 H   0  0  0  0  0  0  0  0  0  0  0  0
   -2.8026   -0.8707    2.5640 H   0  0  0  0  0  0  0  0  0  0  0  0
   -5.0859    1.0470   -1.3568 H   0  0  0  0  0  0  0  0  0  0  0  0
  1  2  1  0
  2  3  1  0
  3  4  1  0
  4  5  1  0
  1  6  1  0
  5  6  1  0
  4  7  1  0
  7  8  1  0
  5  9  1  0
  8  9  1  0
  6 10  1  0
  9 11  1  0
  8 12  1  0
  7 13  1  0
 12 14  1  0
 12 15  1  0
 15 16  1  0
 16 17  1  0
 14 18  1  0
 17 18  1  0
 15 19  1  0
 17 20  1  0
 21 22  1  0
 22 23  1  0
 23 24  1  0
 24 25  1  0
 21 26  1  0
 25 26  1  0
 24 27  1  0
 27 28  1  0
 25 29  1  0
 28 29  1  0
 26 30  1  0
 29 31  1  0
 28 32  1  0
 27 33  1  0
 32 34  1  0
 32 35  1  0
 35 36  1  0
 36 37  1  0
 34 38  1  0
 37 38  1  0
 35 39  1  0
 37 40  1  0
 41 42  1  0
 42 43  1  0
 43 44  1  0
 44 45  1  0
 41 46  1  0
 45 46  1  0
 44 47  1  0
 47 48  1  0
 45 49  1  0
 48 49  1  0
 46 50  1  0
 49 51  1  0
 48 52  1  0
 47 53  1  0
 52 54  1  0
 52 55  1  0
 55 56  1  0
 56 57  1  0
 54 58  1  0
 57 58  1  0
 55 59  1  0
 57 60  1  0
 61 62  1  0
 62 63  1  0
 63 64  1  0
 64 65  1  0
 61 66  1  0
 65 66  1  0
 64 67  1  0
 67 68  1  0
 65 69  1  0
 68 69  1  0
 66 70  1  0
 69 71  1  0
 68 72  1  0
 67 73  1  0
 72 74  1  0
 72 75  1  0
 75 76  1  0
 76 77  1  0
 74 78  1  0
 77 78  1  0
 75 79  1  0
 77 80  1  0
  1 81  1  0
  1 82  1  0
  2 83  1  0
  2 84  1  0
  3 85  1  0
  3 86  1  0
  4 87  1  0
  5 88  1  0
  6 89  1  0
  7 90  1  0
  9 91  1  0
 10 92  1  0
 10 93  1  0
 11 94  1  0
 12 95  1  6
 13 96  1  0
 14 97  1  0
 14 98  1  0
 15 99  1  0
 16100  1  0
 17101  1  0
 18102  1  0
 18103  1  0
 19104  1  0
 20105  1  0
 21106  1  0
 21107  1  0
 22108  1  0
 22109  1  0
 23110  1  0
 23111  1  0
 24112  1  0
 25113  1  0
 26114  1  0
 27115  1  0
 29116  1  0
 30117  1  0
 30118  1  0
 31119  1  0
 32120  1  6
 33121  1  0
 34122  1  0
 34123  1  0
 35124  1  0
 36125  1  0
 37126  1  0
 38127  1  0
 38128  1  0
 39129  1  0
 40130  1  0
 41131  1  0
 41132  1  0
 42133  1  0
 42134  1  0
 43135  1  0
 43136  1  0
 44137  1  0
 45138  1  0
 46139  1  0
 47140  1  0
 49141  1  0
 50142  1  0
 50143  1  0
 51144  1  0
 52145  1  6
 53146  1  0
 54147  1  0
 54148  1  0
 55149  1  0
 56150  1  0
 57151  1  0
 58152  1  0
 58153  1  0
 59154  1  0
 60155  1  0
 61156  1  0
 61157  1  0
 62158  1  0
 62159  1  0
 63160  1  0
 63161  1  0
 64162  1  0
 65163  1  0
 66164  1  0
 67165  1  0
 69166  1  0
 70167  1  0
 70168  1  0
 71169  1  0
 72170  1  6
 73171  1  0
 74172  1  0
 74173  1  0
 75174  1  0
 76175  1  0
 77176  1  0
 78177  1  0
 78178  1  0
 79179  1  0
 80180  1  0
M  END
>  <PDBID>  (1) 
4TZU

>  <PDB ID>  (1) 
4TZU

>  <Generic Name>  (1) 
Pomalidomide

>  <Brand Name>  (1) 
Pomalyst#Imnovid

>  <DrugBank ID>  (1) 
DB08910

>  <ATC Codes>  (1) 
L04AX06

>  <Ligand ID>  (1) 
Y70

>  <Target Name>  (1) 
Protein cereblon

>  <UniProt ID>  (1) 
Q96SW2

>  <PDB ID.1>  (1) 
4TZU

>  <Seq. Identity>  (1) 
97%

$$$$
