PDB_DB00152_07
     RDKit          3D

 88 90  0  0  0  0  0  0  0  0999 V2000
   -4.5603    1.3803   -0.1666 C   0  0  0  0  0  0  0  0  0  0  0  0
   -1.5188    1.5595    0.4650 N   0  0  0  0  0  0  0  0  0  0  0  0
    2.2193   -1.1032   -1.9973 C   0  0  0  0  0  0  0  0  0  0  0  0
    4.7869    2.5642    2.0634 O   0  0  0  0  0  0  0  0  0  0  0  0
    4.6358    1.2693    1.5441 C   0  0  0  0  0  0  0  0  0  0  0  0
    3.4687    1.2546    0.5762 C   0  0  0  0  0  0  0  0  0  0  0  0
    1.2407   -1.8144    0.6759 C   0  0  0  0  0  0  0  0  0  0  0  0
    2.9189   -1.3589    1.2932 S   0  0  0  0  0  0  0  0  0  0  0  0
    3.2653   -0.1088   -0.0097 C   0  0  0  0  0  0  0  0  0  0  0  0
    2.0245   -0.2039   -0.8267 C   0  0  0  0  0  0  0  0  0  0  0  0
    0.9129   -0.5680    0.0149 N   0  0  0  0  0  0  0  0  0  0  0  0
   -0.2527   -0.6513   -0.8152 C   0  0  0  0  0  0  0  0  0  0  0  0
   -1.8379    0.2403    0.9189 C   0  0  0  0  0  0  0  0  0  0  0  0
   -3.1847    0.1087    1.4050 N   0  0  0  0  0  0  0  0  0  0  0  0
   -4.1860    0.0091    0.3932 C   0  0  0  0  0  0  0  0  0  0  0  0
   -3.9204   -0.8563   -0.6762 N   0  0  0  0  0  0  0  0  0  0  0  0
   -2.6089   -1.1152   -1.0586 C   0  0  0  0  0  0  0  0  0  0  0  0
   -1.5292   -0.8489   -0.0527 C   0  0  0  0  0  0  0  0  0  0  0  0
   -4.5603    1.3803   -0.1666 C   0  0  0  0  0  0  0  0  0  0  0  0
   -1.5188    1.5595    0.4650 N   0  0  0  0  0  0  0  0  0  0  0  0
    2.2193   -1.1032   -1.9973 C   0  0  0  0  0  0  0  0  0  0  0  0
    4.7869    2.5642    2.0634 O   0  0  0  0  0  0  0  0  0  0  0  0
    4.6358    1.2693    1.5441 C   0  0  0  0  0  0  0  0  0  0  0  0
    3.4687    1.2546    0.5762 C   0  0  0  0  0  0  0  0  0  0  0  0
    1.2407   -1.8144    0.6759 C   0  0  0  0  0  0  0  0  0  0  0  0
    2.9189   -1.3589    1.2932 S   0  0  0  0  0  0  0  0  0  0  0  0
    3.2653   -0.1088   -0.0097 C   0  0  0  0  0  0  0  0  0  0  0  0
    2.0245   -0.2039   -0.8267 C   0  0  0  0  0  0  0  0  0  0  0  0
    0.9129   -0.5680    0.0149 N   0  0  0  0  0  0  0  0  0  0  0  0
   -0.2527   -0.6513   -0.8152 C   0  0  0  0  0  0  0  0  0  0  0  0
   -1.8379    0.2403    0.9189 C   0  0  0  0  0  0  0  0  0  0  0  0
   -3.1847    0.1087    1.4050 N   0  0  0  0  0  0  0  0  0  0  0  0
   -4.1860    0.0091    0.3932 C   0  0  0  0  0  0  0  0  0  0  0  0
   -3.9204   -0.8563   -0.6762 N   0  0  0  0  0  0  0  0  0  0  0  0
   -2.6089   -1.1152   -1.0586 C   0  0  0  0  0  0  0  0  0  0  0  0
   -1.5292   -0.8489   -0.0527 C   0  0  0  0  0  0  0  0  0  0  0  0
   -4.7625    1.3121   -1.2613 H   0  0  0  0  0  0  0  0  0  0  0  0
   -3.7816    2.1288    0.0219 H   0  0  0  0  0  0  0  0  0  0  0  0
   -5.5059    1.7673    0.2800 H   0  0  0  0  0  0  0  0  0  0  0  0
   -0.7933    2.0367    1.0202 H   0  0  0  0  0  0  0  0  0  0  0  0
   -1.4784    1.6918   -0.5483 H   0  0  0  0  0  0  0  0  0  0  0  0
    1.8983   -0.6049   -2.9421 H   0  0  0  0  0  0  0  0  0  0  0  0
    3.3133   -1.3249   -2.1384 H   0  0  0  0  0  0  0  0  0  0  0  0
    1.7169   -2.0730   -1.9190 H   0  0  0  0  0  0  0  0  0  0  0  0
    4.2917    2.6012    2.9042 H   0  0  0  0  0  0  0  0  0  0  0  0
    4.4427    0.5558    2.3633 H   0  0  0  0  0  0  0  0  0  0  0  0
    5.5552    1.0222    0.9797 H   0  0  0  0  0  0  0  0  0  0  0  0
    2.5517    1.6817    0.9809 H   0  0  0  0  0  0  0  0  0  0  0  0
    3.8010    1.9057   -0.2839 H   0  0  0  0  0  0  0  0  0  0  0  0
    0.5899   -1.9970    1.5212 H   0  0  0  0  0  0  0  0  0  0  0  0
    1.3530   -2.6652    0.0005 H   0  0  0  0  0  0  0  0  0  0  0  0
    4.1736   -0.4748   -0.5279 H   0  0  0  0  0  0  0  0  0  0  0  0
    1.7960    0.8269   -1.1998 H   0  0  0  0  0  0  0  0  0  0  0  0
   -0.2892    0.2859   -1.4179 H   0  0  0  0  0  0  0  0  0  0  0  0
   -0.2046   -1.4842   -1.5718 H   0  0  0  0  0  0  0  0  0  0  0  0
   -1.1748    0.0536    1.8168 H   0  0  0  0  0  0  0  0  0  0  0  0
   -3.2854   -0.6286    2.1359 H   0  0  0  0  0  0  0  0  0  0  0  0
   -5.1233   -0.3581    0.9119 H   0  0  0  0  0  0  0  0  0  0  0  0
   -4.6648   -1.4940   -0.9805 H   0  0  0  0  0  0  0  0  0  0  0  0
   -2.5154   -2.1873   -1.3755 H   0  0  0  0  0  0  0  0  0  0  0  0
   -2.3717   -0.5374   -1.9979 H   0  0  0  0  0  0  0  0  0  0  0  0
   -1.4065   -1.7973    0.5492 H   0  0  0  0  0  0  0  0  0  0  0  0
   -4.7625    1.3121   -1.2613 H   0  0  0  0  0  0  0  0  0  0  0  0
   -3.7816    2.1288    0.0219 H   0  0  0  0  0  0  0  0  0  0  0  0
   -5.5059    1.7673    0.2800 H   0  0  0  0  0  0  0  0  0  0  0  0
   -0.7933    2.0367    1.0202 H   0  0  0  0  0  0  0  0  0  0  0  0
   -1.4784    1.6918   -0.5483 H   0  0  0  0  0  0  0  0  0  0  0  0
    1.8983   -0.6049   -2.9421 H   0  0  0  0  0  0  0  0  0  0  0  0
    3.3133   -1.3249   -2.1384 H   0  0  0  0  0  0  0  0  0  0  0  0
    1.7169   -2.0730   -1.9190 H   0  0  0  0  0  0  0  0  0  0  0  0
    4.2917    2.6012    2.9042 H   0  0  0  0  0  0  0  0  0  0  0  0
    4.4427    0.5558    2.3633 H   0  0  0  0  0  0  0  0  0  0  0  0
    5.5552    1.0222    0.9797 H   0  0  0  0  0  0  0  0  0  0  0  0
    2.5517    1.6817    0.9809 H   0  0  0  0  0  0  0  0  0  0  0  0
    3.8010    1.9057   -0.2839 H   0  0  0  0  0  0  0  0  0  0  0  0
    0.5899   -1.9970    1.5212 H   0  0  0  0  0  0  0  0  0  0  0  0
    1.3530   -2.6652    0.0005 H   0  0  0  0  0  0  0  0  0  0  0  0
    4.1736   -0.4748   -0.5279 H   0  0  0  0  0  0  0  0  0  0  0  0
    1.7960    0.8269   -1.1998 H   0  0  0  0  0  0  0  0  0  0  0  0
   -0.2892    0.2859   -1.4179 H   0  0  0  0  0  0  0  0  0  0  0  0
   -0.2046   -1.4842   -1.5718 H   0  0  0  0  0  0  0  0  0  0  0  0
   -1.1748    0.0536    1.8168 H   0  0  0  0  0  0  0  0  0  0  0  0
   -3.2854   -0.6286    2.1359 H   0  0  0  0  0  0  0  0  0  0  0  0
   -5.1233   -0.3581    0.9119 H   0  0  0  0  0  0  0  0  0  0  0  0
   -4.6648   -1.4940   -0.9805 H   0  0  0  0  0  0  0  0  0  0  0  0
   -2.5154   -2.1873   -1.3755 H   0  0  0  0  0  0  0  0  0  0  0  0
   -2.3717   -0.5374   -1.9979 H   0  0  0  0  0  0  0  0  0  0  0  0
   -1.4065   -1.7973    0.5492 H   0  0  0  0  0  0  0  0  0  0  0  0
  4  5  1  0
  5  6  1  0
  7  8  1  0
  6  9  1  0
  8  9  1  0
  3 10  1  0
  9 10  1  0
  7 11  1  0
 10 11  1  0
 11 12  1  0
  2 13  1  0
 13 14  1  0
  1 15  1  0
 14 15  1  0
 15 16  1  0
 16 17  1  0
 12 18  1  0
 13 18  1  0
 17 18  1  0
 22 23  1  0
 23 24  1  0
 25 26  1  0
 24 27  1  0
 26 27  1  0
 21 28  1  0
 27 28  1  0
 25 29  1  0
 28 29  1  0
 29 30  1  0
 20 31  1  0
 31 32  1  0
 19 33  1  0
 32 33  1  0
 33 34  1  0
 34 35  1  0
 30 36  1  0
 31 36  1  0
 35 36  1  0
  1 37  1  0
  1 38  1  0
  1 39  1  0
  2 40  1  0
  2 41  1  0
  3 42  1  0
  3 43  1  0
  3 44  1  0
  4 45  1  0
  5 46  1  0
  5 47  1  0
  6 48  1  0
  6 49  1  0
  7 50  1  0
  7 51  1  0
  9 52  1  0
 10 53  1  0
 12 54  1  0
 12 55  1  0
 13 56  1  0
 14 57  1  0
 15 58  1  0
 16 59  1  0
 17 60  1  0
 17 61  1  0
 18 62  1  0
 19 63  1  0
 19 64  1  0
 19 65  1  0
 20 66  1  0
 20 67  1  0
 21 68  1  0
 21 69  1  0
 21 70  1  0
 22 71  1  0
 23 72  1  0
 23 73  1  0
 24 74  1  0
 24 75  1  0
 25 76  1  0
 25 77  1  0
 27 78  1  0
 28 79  1  0
 30 80  1  0
 30 81  1  0
 31 82  1  0
 32 83  1  0
 33 84  1  0
 34 85  1  0
 35 86  1  0
 35 87  1  0
 36 88  1  0
M  END
>  <PDBID>  (1) 
1IG3

>  <PDB ID>  (1) 
1IG3

>  <Generic Name>  (1) 
Thiamine

>  <Brand Name>  (1) 
Acti-MN + B1 + C Caplet#Acti-thiamine Caplet 100mg#Active Fe#Alertonic#Allbee With C 550 Cap#Allbee With Vitamin C Cap#Alsimine W Vitamins A D#Am Caps#Antlerviron#Appedrine#B 50 Capsules#B 6 Plus#B C Antistress Cap#B Complex 25mg Vitamin Supplement#B Complex 50 Vitamin Cap#B Complex 50+ Caplet#B Complex 500 Tab#B Complex Plus C 300mg Tab#B Complex Tablets#B Complex W C Forte Cap#B Complex W C and B12 Inj#B Complex W Vit C W Non-med Yeast&liver Tab#B Complex W Vitamin C Fortis Cap#B Complex With C 300mg#B Complex With C 300mg Tab#B Complex With C 550mg#B Compound 50mg Tab#B Plus C 300 mg#B Plus C 300mg Timed Release#B Stress C + Iron & Vite#B Totum 500#B Virol#B Vitamin Compound With B12 Thunas#B With C 500 Cap#B-1 Caps 500mg#B-100 Caps#B-100 Complex Tablets#B-100 Hi Potency B Vitamins Tab#B-100 Vitamin Supplement#B-50 Complex#B-50 Complex Tab#B-50 Hi Potency B Vitamins Tab#B-combo#B-complex#B-complex 100#B-complex 50#B-complex Tab#B-complex Tablets#B-complex With Vitamin C, Biotin, Folic Acid#B-complex-50 Tab#B-plex#B-plex 100#B-plus - Tab#B1 400mg Ctr Tab#B1 Tab 100mg#B50 B Complex Tab#B50 Complex#B6 Plus Tab#Bacmin#Balanced B 125 Srt#Balanced B-100 B-complex Vitamins Tab#Balanced B-100 Timed Release#Balanced B-50 B-complex Vitamins Tab#Balanced B-50 B-complex Vitamins, Timed Rele#Balanced B-50 Complex#Balanced B-complex Vit + Vit C&e Tab#Balanced B100#Balanced B50 Complex#Beautel Supplement De Vitamines Et Mineral#Beminal W C Fortis Inj#Beminal With C Fortis Cap#Beminal With C Fortis Pws#Betaxin#Betaxin Liq 100mg/ml#Bev 29 Tab#Bev B-150#Bewon Elixir#Bewon Elixir 0.05mg/ml#Biovim Tab#Biovita#Bugs Bunny Chew Multi Vit Plus Iron#Bugs Bunny and Friends Multiple Vitamins#C-B Complex#C-force#C-nate DHA#C.R.T. X Multivitamin & Mineral Powder Mix#Cal M Tab#Carbassist Tablets#Cc II#Cda-21 Vitamins With Non-medicinal Probiotic Complex#Cedevita Plus Vitamin Supplement#Cedevita Sugar-free Vitamin Supplement#Chela Potassium Plus#Chela-chromium 200#Chela-manganese 50 Plus#Chew.multiple Vits.with Extra C for Children#Chewable Multiple Vit Plus Iron for Children#Chewable Multiple Vitamins Plus Extra C#Chewable Multiple Vitamins Plus Iron Tab#Chewable Multiple Vitamins Tab#Chewable Multiple Vitamins for Children#Chewable Multivitamins#Chewable Multivitamins Plus Iron#Children Choice Multivit Chewable Tab#Children Choice Multivitamin W Iron Chew Tab#Children's Chewable Multi Vit W Iron#Children's Chewable Multi Vitamins#Children's Chewable Multi Vitamins With Iron Tablets#Children's Chewable Multi-vitamin#Children's Chewable Multi-vitamin Complete With Minerals#Children's Chewable Multiple Vit.plus Iron#Children's Chewable Multiple Vitamins (chewable Tablets)#Children's Chewable Multiple Vitamins - Tab#Children's Chewable Multiple Vitamins With Extra Vitamin C (chewable Tablets)#Children's Chewable Multiple Vitamins With Iron Tablets (chewable Tablets)#Children's Vitamins Chewable#Children's Vitamins W Iron Chewable#Childrens Chew Multi Vitamin Tab#Childrens Chewable Multiple Vitamins#Childrens Chewable Multiple Vitamins Plus Fe#Childrens Chewable Multiple Vitamins Tab#Childrens Chewable Multivitamins#Childrens Chewable Multivitamins W Iron#Childrens Chewable Vitamin Tab#Childrens Chewable Vitamins#Childrens Multiple Vit and Min Chew Tab#Chromease Tab#Citranatal DHA#Citranatal Rx#Complete Mega B#Complete Multivitamins and Minerals Tablets Timed Release#Complex 5 - Pwr#Complex-75#Complexe B 75mg#Complexe B Compose 75#Complexe B-75#Concept DHA#Concept Ob#Croq-vit Pour Enfants#Cyroplex#D'pantothenic Acid-B1-B2 Tab#Daily Energy Brand B-complex#Derma-force#Dexatrim Tablets#Dia-vite#Diaplex#Dynam Ampoule Et Tablet#E.S.T. Complex#Efferlife Multivitamins and Minerals#Enbrace Hr#Enlyte#Enviroflex - Tab#Escavite#Essential B Tablets#Everyday Multiple Vitamins#Everyday Multiple Vitamins With Iron#Extra P.N. Vitamin-mineral Drink Mix#Feminique W Iron and Calcium Tab#Ferra Naka Plus Vitamins#Flinstones Multiple Plus Iron#Flintstones Multiple Vitamins#Flintstones Multiple Vitamins Plus Iron#Flintstones Multiple Vitamins Tab#Flintstones W Extra C Tab#Floradix Formula Liq#Floravit - Syr#Floriva#Floriva Plus#Foltabs Prenatal#For Kids Only Chewable Multivit. Plus Iron#For Kids Only Chewable Multivitamins - Tab#Formula D.S.#Formula Fm Vitamins & Minerals Tab#Formula Lf#Formula Pro-B#Fortamines 10 Capsules#Fortamines-10 Comprimes#Fortaplex Inj#Fortistress Tab#Forty Plus Vitamin Supplement#G.A.S. Complex#Garfield Chewable Multivits Plus Iron Tab#Gemvites Jr Tab Chewable#Geritol Liquid#Gestamine Comprimes#Gesticare DHA#Glyco-aide Tab#Harvest Of Values All B Complex Tab#Healthy Mamabe Well Rounded Be Well Rounded#Hemarexin Amp#Hemarexin Liquid and Drinkable Ampoules#Hemarexin Tab#Hemenatal OB#Hi Potency B Complex W Chelated Minerals#Hi Potency B52 B Complex Tab#Hi Potency Balanced B-100 Complex - Tab#Hi Potency Stress B Tension With C#High Potency Vitamin B Complex + C Tab#Hill.vite#Hormodausse Plus Calc Et D Tab#Hypo Vites Tab#Iberet 500#Inatal Advance#Inatal Ultra#Infa Drops Multivitamins#Infant Multivitamin Drops#Infantol Drops#Insur-all Vitamin Supplement#Integra Plus#Iron 25mg With Vit B-cmplx, Vit C, Cu & Mo#Iron Polysaccharides Folic Acid DHA#Kanga Sport Vitamins B & C Plus Minerals#Kanga-B Vitamin B Group + C#Kanga-V Multivitamins & Minerals#Kanga-kid Multi-vitamin & Mineral#Kanga-kid Vitamins & Iron#Kenwood Liquid Supplement#Kid's Choice Children's Chewable Vitamins - Tab#Kids Stuff Tablets#Kids Stuff With Iron Tablets#Kimchi Vitamin Chewable Multivitamin#Kindervites#Leritone Junior#Lipo-B-C Tab#Liqui B Complex#Liqui B Complex Plus#Liqui Infant Vitamins#Liqui Vita#Liquid B Complex 50#Livron Plus Ampoule#Livron Plus Tab#Low Potency B Complex Tab#Lysamine Diet Supp Amp-tab#M.V.I. 12#M.V.I. Paediatric#M.V.I. Pediatric#Maltlevol 12 Liq#Maltlevol Liq#Maxi 10 Tab#Maxi 6 Liq#Mega 13 Multivitamin Formula#Megavites Tab#Meplex T 750#Methaver#Mini-B Tab#Mor-vites Tab#Multi - N.T.O.x Formula - Tab#Multi 12 Injection#Multi B#Multi Enfants Tab#Multi Nt-OX#Multi Rol#Multi Vitamin & Minerals#Multi Vitamin - Mineral#Multi Vitamin Drops With Fluoride#Multi Vitamin Drops With Fluoride With Iron#Multi Vitamin Drops With Fluoride and Iron#Multi Vitamin Plus Iron#Multi Vitamin With Fluoride#Multi Vitamin and Fluoride#Multi Vitamin, Iron and Fluoride#Multi Vitamin-mineral Formula#Multi Vitamines - Liq#Multi Vitamins & Minerals#Multi Vite Liq Adult#Multi Vite Liq Junior#Multi-11#Multi-12 Pediatric#Multi-12/k1 Pediatric#Multi-vit With Fluoride#Multi-vit With Fluoride and Iron#Multi-vitamin#Multi-vitamin Dietary Supplement#Multi-vitamin Drops With Fluoride and Iron#Multi-vitamin Fluoride#Multi-vitamin Fluoride Drops#Multi-vitamin Fluoride and Iron Drops#Multi-vitamin With Fluoride#Multi-vitamines Enfants Comprime#Multi-vitamins#Multi-vitamins With Minerals#Multiple Vitamin Plus Minerals Tab#Multiple Vitamin Tab#Multiple Vitamins#Multiple Vitamins Plus Iron Tab#Multiple Vitamins Plus Iron for Women#Multiple Vitamins Tab#Multiple Vitamins W Iron Tab#Multiple Vitamins W Minerals Tab#Multiple Vitamins With Iron#Multiple Vitamins With Minerals Tablets#Multiple Vitamins and Minerals Tab#Multisol#Multivit-liq#Multivitamin#Multivitamin With Fluoride#Multivitamines#Multivitamines Et Mineraux#Multivitamines Plus Fer Pour Enfants (chewable Tablets)#Multivitamines Pour Enfants (chewable Tablets)#Multivitamins#Multivitamins W Iron#Multivitamins for Children#Mvc#Mvc-fluoride#Myhephron Dialysis and Stress Supplement#Mynephrocaps Dialysis/stress Vitamin Supplement#Nata Komplete#Natafort#Natavite#Neo Bex Elixir#Neo Vites Tab#Neo-bex#Neo-bex Injectable#Neo-vites & Minerals Tab#Nephrocaps#Nutrifer Plus Tablets#Nutrilite Double X#Nutrol-B-complex#O-cal Fa Multivitamin#O-cal Prenatal Vitamin#Onccor#One A Day Advance Adults#One A Day Advance Adults 50+#One A Day Advance Fem#One A Day Tab#Opti-manganese + B1 + C Caplet#Orange Flavored Crystal Chews Tab#Orifer F#Original Bioscal Forte Multi-vitamin Supplement Capsules#Orti B#P.N.P. Vitamin Drink#P.R.O. Complex#PM Caps#PNF-First#Paramettes Chewable Multivitamins Plus Iron#Paramettes Chewable Multivits With Iron Tab#Paramettes Multivits Plus Iron Tab (teens)#Paramettes Syrup#Penta-thion Pwr#Permathene-12  -  Caplet#Phosthenine Vitamines Et Fer (ampoules Buvable)#Phytofortis + Calcium A-D#Phytoplex B Liq#Phytopure#Pnv Ferrous Fumarate Docusate Folic Acid#Pnv Prenatal Plus Multivitamin#Pnv Prenatal Vitamin#Pnv Prenatal Vitamin Plus Vitamin A#Pnv-select#Poly-VI-sol Drops#Polymine Avec Zinc Et Cuivre#Prefera Ob Plus DHA#Preferaob#Preferaob Plus DHA#Pregvit#Pregvit Folic 4#Pregvit Folic 5#Prenatal 19#Prenatal Mega Antioxidant#Prenatal Plus#Prenatal Plus Iron#Prenatal Vitamins Plus#Prenatal Vitamins Plus Low Iron#Prenate Elite#Prenate Star#Preplus#Pretab#Prevital Tab#Purevit Dualfe Plus#Q.T. Vitamin and Mineral Drink Mix#Reaphirm Plant Source DHA#Reno Caps#Replavite#Revit Plus Cap#Revit Tab#Revitex Ampoules Et Comprimes#Revival 1 Tab#Right Choice A.M. Multi Formula - Caplet#Se-natal 19#Se-natal 19 Chewable#Se-natal One#Se-tan Plus#Sibergin B - Cap#Somarexin and C 1000#Somavit Brand Vitamins and Minerals Complex#Sopalamine/3b Plus C#Sopalamine/3b Tab#Spectrum 2 Cap#Stress B & C  Caplet#Stress B Capsules With Vitamin C#Stress B Complex With C, E & Iron#Stress B With 1000 Mg Vitamin C#Stress B&c Tab#Stress Complex 600 Avec Vit E Cuivre Zinc#Stress Ctr Srt#Stress Formula#Stress Formula + Iron#Stress Formula B-comp + 500mg Vit C Tab#Stress Formula Multi-B Comp + 500mg Vit C Cap#Stress Formula Multivitamin Tablets USP#Stress Formula Tab#Stress Formula Vit B With C Complex#Stress Forte Plus Lipotropic Factors#Stress Tab#Stress Tablets#Stress Vitamin B With C Complex Tablets#Stressmates#Strovite Forte Caplet#Strovite One Caplets#Sun-rype Vitaburst#Super B Compound W 500mg Vit C#Super Charged Energy#Super Daily No 2#Super Pantoplex#Super Stress Capsules#Super Stress Mega B Plus 1000mg Vit C Tab#Super Vitalex Ampoule Buvable#Super-pote Vitamin Supplement#Supplement De Multivitamines Infusion Arome Fruits Rouges#Supravite 10ml Ampoule#Supravite Bouteille 250ml#Supravite C 1000#Supravite Pour Enfants#Supravite Stress Avec Vit E#Supravite Stress Avec Vit E Cuivre Et Zinc#Supravite Stress Avec Vit E Et Fer#Surbex 500 Filmtab#Surbex-500 With Iron#Surbex-500 With Zinc#Swical-energy-2#Synergistic Manganese Capsules#T.R.I. B-plex Src#Tandem Ob#Tandem Plus#Tender Age Multi Vitamins#Thiamiject Injection  - Liq Im IV 100mg/ml#Thiamine#Thiamine HCl 100mg W C 20mg#Thiamine HCl Inj 100mg/ml#Thiamine HCl Injection - Liq 100mg/ml#Thiamine HCl Tab 100mg#Thiamine HCl Tab 25mg#Thiamine HCl Tab 50mg#Thiamine Hydrochloride#Thiamine Hydrochloride Inj 100mg/ml#Thiamine Hydrochloride Inj 100mg/ml USP#Thiamine Hydrochloride Injection USP, 100mg/ml#Thiamine Hydrochloride Injection, USP#Time Release B 100 Compound  -  Tablet#Timed Release B Complex 100 Srt#Timed Release B-complex 100#Timed Release B-complex 50#Tini-cal Ampoules#Toni Com Liq#Tonicol Et A-D-C Ampoules/comprimes#Tonimol Cap Liq#Triadvance#Tricare Prenatal#Trinatal Gt#Twin Ultra Liquid Fruit Punch Flavor#Twin Ultra Liquid Grape Flavor#Twin Ultra Liquid Lemon-lime Flavor#Twin Ultra Liquid Orange Flavor#Ultra Enerforce#Ultra Hr#Usana Megavitamin Tablets - Tab#V-natal#VP-heme OB#Vasodyn Tab#Viamon Ampoules Et Comprimes#Vigem 12 Liquid#Vigo Multivitamins Drops/lozenge#Vimeral Tab#Virt-PN#Virt-bal DHA Plus#Virt-caps#Virt-vite Plus#Vit B Complex Ctr#Vit B Complex Plus Vit C 550mg#Vit B1 Ctr Srt 100mg#Vit-HA Multi Vitamin and Zinc Supplement#Vita B + C 500 Tab#Vita B Complex Tab#Vita Day Tab#Vita-B#Vita-B-75 Cap#Vita-amine Cap 100mg#Vita-worth B-complex Tablets#Vitabanks Vitamin Tab#Vitachrom Gc#Vitaday Tab#Vitafant#Vitafer - Liq#Vitaflex Dietary Suplement#Vitafol Caplet#Vitafol Ob Caplet#Vitafol One#Vitafol Plus#Vitafol Ultra#Vitalife  -  Capsule#Vitamin B + C Cap#Vitamin B Complex#Vitamin B Complex + C 300mg Cap#Vitamin B Complex + C 600mg Tab#Vitamin B Complex 100 Tab#Vitamin B Complex 50#Vitamin B Complex Plus 300mg Vitamin C#Vitamin B Complex Plus C 300mg Timed Release#Vitamin B Complex Suppl#Vitamin B Complex Tab#Vitamin B Complex W C 300mg Tab#Vitamin B Complex W C Tab#Vitamin B Compound Tab#Vitamin B Compound W C Tab 500mg#Vitamin B Compound W Vit C 250mg Tab#Vitamin B Compound With Vitamin C Fortis Capsule Dtc#Vitamin B Cpd W Vit C Tab#Vitamin B Tablets#Vitamin B-1 100 Mg Tablets#Vitamin B-1 Thiamine HCl 100mg#Vitamin B1#Vitamin B1 100 mg#Vitamin B1 100mg#Vitamin B1 100mg Tablet#Vitamin B1 Tab 100mg#Vitamin B1 Tab 100mg USP#Vitamin B1 Tab 2mg USP#Vitamin B1 Tablets 100mg#Vitamin and Mineral Supplement - Liq#Vitamine 110 Liq#Vitamine B1  100 Mg  -  Tablet#Vitamine B1 Tab 100mg USP#Vitamine Du Groupe B Plus Fer - Liq#Vitamines Pour Bebes Et Enfants#Vitamins Chewable#Vitamins W Iron Chewable#Vitogen B Stress C Vit E Zinc & Cop#Vitogen B Stress C600#Vtb Vitamin and Mineral Supplement#Women's Formula#Zoo Chews#Betalin S#Biamine

>  <DrugBank ID>  (1) 
DB00152

>  <ATC Codes>  (1) 
A11DA01

>  <Ligand ID>  (1) 
VIB

>  <Target Name>  (1) 
Thiamin pyrophosphokinase 1

>  <UniProt ID>  (1) 
Q9H3S4

>  <PDB ID.1>  (1) 
1IG3

>  <Seq. Identity>  (1) 
89%

$$$$
