PDB_DB06626_03
     RDKit          3D

 70 73  0  0  0  0  0  0  0  0999 V2000
    7.6156    0.6499    0.0980 O   0  0  0  0  0  0  0  0  0  0  0  0
    6.3469    0.6891   -0.4776 C   0  0  0  0  0  0  0  0  0  0  0  0
    5.7594    1.9537   -0.1824 N   0  0  0  0  0  0  0  0  0  0  0  0
    6.6892    2.9786   -0.6862 C   0  0  0  0  0  0  0  0  0  0  0  0
    5.5686   -0.4891    0.0231 C   0  0  0  0  0  0  0  0  0  0  0  0
    6.2049   -1.7979   -0.3263 C   0  0  0  0  0  0  0  0  0  0  0  0
    5.6298   -2.8728    0.5822 C   0  0  0  0  0  0  0  0  0  0  0  0
    4.1865   -2.5458    0.9247 C   0  0  0  0  0  0  0  0  0  0  0  0
    4.0944   -0.4374   -0.3647 C   0  0  0  0  0  0  0  0  0  0  0  0
    3.5978   -1.8559   -0.2897 C   0  0  0  0  0  0  0  0  0  0  0  0
    3.2980    0.7172    0.6936 S   0  0  0  0  0  0  0  0  0  0  0  0
    1.5856    1.0157    0.4851 C   0  0  0  0  0  0  0  0  0  0  0  0
    1.1814    1.6790   -0.8114 C   0  0  0  0  0  0  0  0  0  0  0  0
   -0.1734    2.2600   -0.6167 C   0  0  0  0  0  0  0  0  0  0  0  0
    0.6637   -0.1677    0.6534 C   0  0  0  0  0  0  0  0  0  0  0  0
   -0.7003    0.3852    1.0015 C   0  0  0  0  0  0  0  0  0  0  0  0
   -1.6409   -0.7203    0.7401 N   0  0  0  0  0  0  0  0  0  0  0  0
   -1.7106   -0.6252   -0.6539 N   0  0  0  0  0  0  0  0  0  0  0  0
   -2.1665    0.7410   -0.8141 C   0  0  0  0  0  0  0  0  0  0  0  0
   -1.1710    1.4598    0.0971 C   0  0  0  0  0  0  0  0  0  0  0  0
   -3.5562    0.8421   -0.2404 C   0  0  0  0  0  0  0  0  0  0  0  0
   -4.5228   -0.0730   -0.9322 C   0  0  0  0  0  0  0  0  0  0  0  0
   -5.9017    0.0768   -0.3220 C   0  0  0  0  0  0  0  0  0  0  0  0
   -5.8341   -0.2650    1.0880 N   0  0  0  0  0  0  0  0  0  0  0  0
   -7.1435    0.0951    1.6508 C   0  0  0  0  0  0  0  0  0  0  0  0
   -8.2199   -0.7693    1.0530 C   0  0  0  0  0  0  0  0  0  0  0  0
   -8.2278   -0.6452   -0.4644 C   0  0  0  0  0  0  0  0  0  0  0  0
   -6.8320   -0.9355   -0.9658 C   0  0  0  0  0  0  0  0  0  0  0  0
    7.5282    0.5197    1.0899 H   0  0  0  0  0  0  0  0  0  0  0  0
    6.4963    0.5602   -1.5699 H   0  0  0  0  0  0  0  0  0  0  0  0
    4.8738    2.1448   -0.6987 H   0  0  0  0  0  0  0  0  0  0  0  0
    7.0931    2.6856   -1.6695 H   0  0  0  0  0  0  0  0  0  0  0  0
    6.1196    3.9236   -0.8297 H   0  0  0  0  0  0  0  0  0  0  0  0
    7.5083    3.1522    0.0366 H   0  0  0  0  0  0  0  0  0  0  0  0
    5.5751   -0.4239    1.1518 H   0  0  0  0  0  0  0  0  0  0  0  0
    6.0603   -2.0495   -1.3966 H   0  0  0  0  0  0  0  0  0  0  0  0
    7.2737   -1.7292   -0.1102 H   0  0  0  0  0  0  0  0  0  0  0  0
    6.2536   -3.0494    1.4640 H   0  0  0  0  0  0  0  0  0  0  0  0
    5.6180   -3.8083   -0.0434 H   0  0  0  0  0  0  0  0  0  0  0  0
    4.1676   -1.8695    1.7969 H   0  0  0  0  0  0  0  0  0  0  0  0
    3.6154   -3.4958    1.1166 H   0  0  0  0  0  0  0  0  0  0  0  0
    4.0293   -0.1450   -1.4541 H   0  0  0  0  0  0  0  0  0  0  0  0
    4.0470   -2.3878   -1.1808 H   0  0  0  0  0  0  0  0  0  0  0  0
    2.5247   -1.9813   -0.3794 H   0  0  0  0  0  0  0  0  0  0  0  0
    1.2694    1.7479    1.2908 H   0  0  0  0  0  0  0  0  0  0  0  0
    1.8920    2.5089   -1.0599 H   0  0  0  0  0  0  0  0  0  0  0  0
    1.1542    0.9887   -1.6649 H   0  0  0  0  0  0  0  0  0  0  0  0
   -0.5785    2.5073   -1.6415 H   0  0  0  0  0  0  0  0  0  0  0  0
   -0.0320    3.2736   -0.1414 H   0  0  0  0  0  0  0  0  0  0  0  0
    0.5067   -0.7011   -0.3297 H   0  0  0  0  0  0  0  0  0  0  0  0
    0.9766   -0.8766    1.4154 H   0  0  0  0  0  0  0  0  0  0  0  0
   -0.6801    0.6503    2.0777 H   0  0  0  0  0  0  0  0  0  0  0  0
   -1.2327   -1.6282    1.0232 H   0  0  0  0  0  0  0  0  0  0  0  0
   -2.2669   -1.3382   -1.1213 H   0  0  0  0  0  0  0  0  0  0  0  0
   -2.1016    1.1005   -1.8550 H   0  0  0  0  0  0  0  0  0  0  0  0
   -1.7980    2.1649    0.7167 H   0  0  0  0  0  0  0  0  0  0  0  0
   -3.9133    1.8851   -0.1789 H   0  0  0  0  0  0  0  0  0  0  0  0
   -3.4726    0.4828    0.8267 H   0  0  0  0  0  0  0  0  0  0  0  0
   -4.5576    0.1416   -2.0002 H   0  0  0  0  0  0  0  0  0  0  0  0
   -4.2371   -1.1419   -0.7256 H   0  0  0  0  0  0  0  0  0  0  0  0
   -6.2496    1.1009   -0.4501 H   0  0  0  0  0  0  0  0  0  0  0  0
   -5.6462   -1.2762    1.2297 H   0  0  0  0  0  0  0  0  0  0  0  0
   -7.1028   -0.0637    2.7292 H   0  0  0  0  0  0  0  0  0  0  0  0
   -7.3115    1.1593    1.3704 H   0  0  0  0  0  0  0  0  0  0  0  0
   -9.1889   -0.4213    1.4841 H   0  0  0  0  0  0  0  0  0  0  0  0
   -8.0394   -1.8110    1.3357 H   0  0  0  0  0  0  0  0  0  0  0  0
   -8.4929    0.3679   -0.7706 H   0  0  0  0  0  0  0  0  0  0  0  0
   -8.9642   -1.4044   -0.8438 H   0  0  0  0  0  0  0  0  0  0  0  0
   -6.8456   -0.8494   -2.0677 H   0  0  0  0  0  0  0  0  0  0  0  0
   -6.4925   -1.9571   -0.6651 H   0  0  0  0  0  0  0  0  0  0  0  0
  1  2  1  0
  2  3  1  0
  3  4  1  0
  2  5  1  0
  5  6  1  0
  6  7  1  0
  7  8  1  0
  5  9  1  0
  8 10  1  0
  9 10  1  0
  9 11  1  0
 11 12  1  0
 12 13  1  0
 13 14  1  0
 12 15  1  0
 15 16  1  0
 16 17  1  0
 17 18  1  0
 18 19  1  0
 14 20  1  0
 16 20  1  0
 19 20  1  0
 19 21  1  0
 21 22  1  0
 22 23  1  0
 23 24  1  0
 24 25  1  0
 25 26  1  0
 26 27  1  0
 23 28  1  0
 27 28  1  0
  1 29  1  0
  2 30  1  0
  3 31  1  0
  4 32  1  0
  4 33  1  0
  4 34  1  0
  5 35  1  0
  6 36  1  0
  6 37  1  0
  7 38  1  0
  7 39  1  0
  8 40  1  0
  8 41  1  0
  9 42  1  0
 10 43  1  0
 10 44  1  0
 12 45  1  0
 13 46  1  0
 13 47  1  0
 14 48  1  0
 14 49  1  0
 15 50  1  0
 15 51  1  0
 16 52  1  0
 17 53  1  0
 18 54  1  0
 19 55  1  0
 20 56  1  0
 21 57  1  0
 21 58  1  0
 22 59  1  0
 22 60  1  0
 23 61  1  0
 24 62  1  0
 25 63  1  0
 25 64  1  0
 26 65  1  0
 26 66  1  0
 27 67  1  0
 27 68  1  0
 28 69  1  0
 28 70  1  0
M  END
>  <PDBID>  (1) 
4AG8

>  <PDB ID>  (1) 
4AG8

>  <Generic Name>  (1) 
Axitinib

>  <Brand Name>  (1) 
Inlyta

>  <DrugBank ID>  (1) 
DB06626

>  <ATC Codes>  (1) 
L01XE17

>  <Ligand ID>  (1) 
AXI

>  <Target Name>  (1) 
Vascular endothelial growth factor receptor 3

>  <UniProt ID>  (1) 
P35916

>  <PDB ID.1>  (1) 
4AG8

>  <Seq. Identity>  (1) 
67%

$$$$
