PDB_DB08809_02
     RDKit          3D

 10  9  0  0  0  0  0  0  0  0999 V2000
    1.0310    0.1390    0.1054 C   0  0  0  0  0  0  0  0  0  0  0  0
   -0.3741   -0.1261   -0.3919 C   0  0  0  0  0  0  0  0  0  0  0  0
   -1.1831    0.8868    0.1160 O   0  0  0  0  0  0  0  0  0  0  0  0
    1.0346    0.1198    1.8894 Cl  0  0  0  0  0  0  0  0  0  0  0  0
    2.1859   -1.0203   -0.5270 Cl  0  0  0  0  0  0  0  0  0  0  0  0
   -0.8770   -1.3287    0.1122 O   0  0  0  0  0  0  0  0  0  0  0  0
    1.2863    1.1692   -0.2519 H   0  0  0  0  0  0  0  0  0  0  0  0
   -0.3650   -0.1348   -1.4855 H   0  0  0  0  0  0  0  0  0  0  0  0
   -1.4758    1.5296   -0.5826 H   0  0  0  0  0  0  0  0  0  0  0  0
   -1.2628   -1.2345    1.0158 H   0  0  0  0  0  0  0  0  0  0  0  0
  1  2  1  0
  2  3  1  0
  1  4  1  0
  1  5  1  0
  2  6  1  0
  1  7  1  0
  2  8  1  0
  3  9  1  0
  6 10  1  0
M  END
>  <PDBID>  (1) 
2Q8H

>  <PDB ID>  (1) 
2Q8H

>  <Generic Name>  (1) 
Dichloroacetic Acid

>  <Brand Name>  (1) 
Bichloracetic Acid 100%

>  <DrugBank ID>  (1) 
DB08809

>  <ATC Codes>  (1) 
nan

>  <Ligand ID>  (1) 
TF4

>  <Target Name>  (1) 
[Pyruvate dehydrogenase (acetyl-transferring)] kinase isozyme 1, mitochondrial

>  <UniProt ID>  (1) 
Q15118

>  <PDB ID.1>  (1) 
2Q8H

>  <Seq. Identity>  (1) 
100%

$$$$
