PDB_DB00234_09
     RDKit          3D

 58 60  0  0  0  0  0  0  0  0999 V2000
    3.8209    2.4196    1.4025 C   0  0  0  0  0  0  0  0  0  0  0  0
    3.6951    0.9322    1.2401 C   0  0  0  0  0  0  0  0  0  0  0  0
    2.9172    0.5595    0.1531 O   0  0  0  0  0  0  0  0  0  0  0  0
    2.8557   -0.8059    0.0794 C   0  0  0  0  0  0  0  0  0  0  0  0
    3.6957   -1.2063   -1.1435 C   0  0  0  0  0  0  0  0  0  0  0  0
    2.9207   -0.7420   -2.3581 C   0  0  0  0  0  0  0  0  0  0  0  0
    1.7182   -1.6889   -2.4624 C   0  0  0  0  0  0  0  0  0  0  0  0
    1.5017   -2.3965   -1.1625 C   0  0  0  0  0  0  0  0  0  0  0  0
    1.4737   -1.3908    0.0205 C   0  0  0  0  0  0  0  0  0  0  0  0
    0.4531   -0.5655   -0.2579 O   0  0  0  0  0  0  0  0  0  0  0  0
   -0.6759   -0.5968    0.4553 C   0  0  2  0  0  0  0  0  0  0  0  0
   -1.9239   -0.9685   -0.2996 C   0  0  0  0  0  0  0  0  0  0  0  0
   -2.2603   -0.0429   -1.4334 C   0  0  0  0  0  0  0  0  0  0  0  0
   -3.3088   -0.7860   -2.2753 C   0  0  0  0  0  0  0  0  0  0  0  0
   -4.5087   -1.1438   -1.4687 C   0  0  0  0  0  0  0  0  0  0  0  0
   -4.2005   -1.7838   -0.1405 C   0  0  0  0  0  0  0  0  0  0  0  0
   -3.1256   -0.9892    0.6194 C   0  0  0  0  0  0  0  0  0  0  0  0
   -0.9221    0.7396    1.0969 C   0  0  2  0  0  0  0  0  0  0  0  0
   -1.0354    1.7755    0.1363 O   0  0  0  0  0  0  0  0  0  0  0  0
   -0.7725    3.0095    0.7229 C   0  0  0  0  0  0  0  0  0  0  0  0
   -1.1988    3.0644    2.1661 C   0  0  0  0  0  0  0  0  0  0  0  0
   -0.5585    2.0988    3.0159 N   0  0  0  0  0  0  0  0  0  0  0  0
    0.1120    1.1297    2.1293 C   0  0  0  0  0  0  0  0  0  0  0  0
    4.6569    2.8467    0.8108 H   0  0  0  0  0  0  0  0  0  0  0  0
    2.9190    2.9675    1.1324 H   0  0  0  0  0  0  0  0  0  0  0  0
    4.0954    2.6139    2.4752 H   0  0  0  0  0  0  0  0  0  0  0  0
    3.1809    0.5426    2.1600 H   0  0  0  0  0  0  0  0  0  0  0  0
    4.6906    0.4552    1.2365 H   0  0  0  0  0  0  0  0  0  0  0  0
    3.4489   -1.2277    0.9406 H   0  0  0  0  0  0  0  0  0  0  0  0
    4.6305   -0.6154   -1.0767 H   0  0  0  0  0  0  0  0  0  0  0  0
    3.9500   -2.2639   -1.1505 H   0  0  0  0  0  0  0  0  0  0  0  0
    2.4990    0.2600   -2.0869 H   0  0  0  0  0  0  0  0  0  0  0  0
    3.5108   -0.7281   -3.2743 H   0  0  0  0  0  0  0  0  0  0  0  0
    0.7944   -1.1284   -2.7342 H   0  0  0  0  0  0  0  0  0  0  0  0
    1.9897   -2.4420   -3.2170 H   0  0  0  0  0  0  0  0  0  0  0  0
    0.4572   -2.8107   -1.1848 H   0  0  0  0  0  0  0  0  0  0  0  0
    2.1675   -3.2324   -0.9606 H   0  0  0  0  0  0  0  0  0  0  0  0
    1.3481   -2.0660    0.8875 H   0  0  0  0  0  0  0  0  0  0  0  0
   -0.5782   -1.3585    1.2608 H   0  0  0  0  0  0  0  0  0  0  0  0
   -1.8622   -2.0268   -0.6930 H   0  0  0  0  0  0  0  0  0  0  0  0
   -2.8151    0.8723   -1.0709 H   0  0  0  0  0  0  0  0  0  0  0  0
   -1.4159    0.2341   -2.0609 H   0  0  0  0  0  0  0  0  0  0  0  0
   -2.8450   -1.6807   -2.7387 H   0  0  0  0  0  0  0  0  0  0  0  0
   -3.6018   -0.0952   -3.0758 H   0  0  0  0  0  0  0  0  0  0  0  0
   -5.1427   -0.2437   -1.3536 H   0  0  0  0  0  0  0  0  0  0  0  0
   -5.1046   -1.8782   -2.0497 H   0  0  0  0  0  0  0  0  0  0  0  0
   -3.9073   -2.8301   -0.2386 H   0  0  0  0  0  0  0  0  0  0  0  0
   -5.1157   -1.7061    0.4822 H   0  0  0  0  0  0  0  0  0  0  0  0
   -3.5806    0.0113    0.7577 H   0  0  0  0  0  0  0  0  0  0  0  0
   -2.9344   -1.5232    1.5506 H   0  0  0  0  0  0  0  0  0  0  0  0
   -1.9097    0.7800    1.6158 H   0  0  0  0  0  0  0  0  0  0  0  0
   -1.3924    3.7537    0.1805 H   0  0  0  0  0  0  0  0  0  0  0  0
    0.2772    3.2819    0.5787 H   0  0  0  0  0  0  0  0  0  0  0  0
   -0.8641    4.0768    2.5408 H   0  0  0  0  0  0  0  0  0  0  0  0
   -2.2883    3.0597    2.2850 H   0  0  0  0  0  0  0  0  0  0  0  0
   -1.3061    1.5578    3.5053 H   0  0  0  0  0  0  0  0  0  0  0  0
    0.4199    0.2256    2.6630 H   0  0  0  0  0  0  0  0  0  0  0  0
    0.9553    1.6963    1.6671 H   0  0  0  0  0  0  0  0  0  0  0  0
  1  2  1  0
  2  3  1  0
  3  4  1  0
  4  5  1  0
  5  6  1  0
  6  7  1  0
  7  8  1  0
  4  9  1  0
  8  9  1  0
  9 10  1  0
 10 11  1  0
 11 12  1  0
 12 13  1  0
 13 14  1  0
 14 15  1  0
 15 16  1  0
 12 17  1  0
 16 17  1  0
 11 18  1  0
 18 19  1  0
 19 20  1  0
 20 21  1  0
 21 22  1  0
 18 23  1  0
 22 23  1  0
  1 24  1  0
  1 25  1  0
  1 26  1  0
  2 27  1  0
  2 28  1  0
  4 29  1  0
  5 30  1  0
  5 31  1  0
  6 32  1  0
  6 33  1  0
  7 34  1  0
  7 35  1  0
  8 36  1  0
  8 37  1  0
  9 38  1  0
 11 39  1  1
 12 40  1  0
 13 41  1  0
 13 42  1  0
 14 43  1  0
 14 44  1  0
 15 45  1  0
 15 46  1  0
 16 47  1  0
 16 48  1  0
 17 49  1  0
 17 50  1  0
 18 51  1  1
 20 52  1  0
 20 53  1  0
 21 54  1  0
 21 55  1  0
 22 56  1  0
 23 57  1  0
 23 58  1  0
M  END
>  <PDBID>  (1) 
4XNX

>  <PDB ID>  (1) 
4XNX

>  <Generic Name>  (1) 
Reboxetine

>  <Brand Name>  (1) 
Davedax#Edronax#Norebox#Prolift#Solvex#Vestra

>  <DrugBank ID>  (1) 
DB00234

>  <ATC Codes>  (1) 
N06AX18

>  <Ligand ID>  (1) 
41X

>  <Target Name>  (1) 
Sodium-dependent noradrenaline transporter

>  <UniProt ID>  (1) 
P23975

>  <PDB ID.1>  (1) 
4XNX

>  <Seq. Identity>  (1) 
58%

$$$$
