PDB_DB00481_05
     RDKit          3D

166174  0  0  0  0  0  0  0  0999 V2000
   -3.5089   -3.2537   -0.6012 C   0  0  0  0  0  0  0  0  0  0  0  0
   -4.6014   -4.0822   -1.1680 C   0  0  0  0  0  0  0  0  0  0  0  0
   -5.9597   -3.4305   -1.2002 C   0  0  0  0  0  0  0  0  0  0  0  0
   -6.5402   -3.3464    0.0644 O   0  0  0  0  0  0  0  0  0  0  0  0
   -5.9218   -2.0862   -1.8929 C   0  0  0  0  0  0  0  0  0  0  0  0
   -4.5044   -1.5942   -2.0675 C   0  0  0  0  0  0  0  0  0  0  0  0
   -4.4728    0.2483   -2.0608 S   0  0  0  0  0  0  0  0  0  0  0  0
   -2.8552    0.4033   -1.1817 C   0  0  1  0  0  0  0  0  0  0  0  0
   -2.9683    1.4619   -0.1978 C   0  0  0  0  0  0  0  0  0  0  0  0
   -3.9414    1.4525    0.8850 C   0  0  0  0  0  0  0  0  0  0  0  0
   -5.2551    2.1769    0.5379 C   0  0  0  0  0  0  0  0  0  0  0  0
   -5.0513    3.6428    0.3412 C   0  0  0  0  0  0  0  0  0  0  0  0
   -5.4132    4.4146    1.4318 O   0  0  0  0  0  0  0  0  0  0  0  0
   -3.6046    3.8614   -0.0569 C   0  0  0  0  0  0  0  0  0  0  0  0
   -3.2146    2.7654   -0.9890 C   0  0  0  0  0  0  0  0  0  0  0  0
   -3.7888   -1.8104   -0.7507 C   0  0  0  0  0  0  0  0  0  0  0  0
   -2.5227   -0.9752   -0.9176 C   0  0  0  0  0  0  0  0  0  0  0  0
   -1.4806   -1.3146    0.0905 C   0  0  0  0  0  0  0  0  0  0  0  0
   -1.8567   -0.8077    1.3255 O   0  0  0  0  0  0  0  0  0  0  0  0
   -0.0600   -1.1999   -0.2408 C   0  0  0  0  0  0  0  0  0  0  0  0
    0.5670    0.0567   -0.6450 C   0  0  0  0  0  0  0  0  0  0  0  0
    1.1194    0.9443    0.4271 C   0  0  0  0  0  0  0  0  0  0  0  0
    2.3161    0.2160    1.0406 C   0  0  0  0  0  0  0  0  0  0  0  0
    2.1475   -1.2782    0.9459 C   0  0  0  0  0  0  0  0  0  0  0  0
    0.7197   -1.7131    0.9863 C   0  0  0  0  0  0  0  0  0  0  0  0
    3.4709    0.5498    0.3414 O   0  0  0  0  0  0  0  0  0  0  0  0
    4.3745    1.1392    1.2070 C   0  0  0  0  0  0  0  0  0  0  0  0
    5.6626    1.5250    0.5022 C   0  0  0  0  0  0  0  0  0  0  0  0
    6.3275    0.3861   -0.0784 N   0  0  0  0  0  0  0  0  0  0  0  0
    6.8403   -0.4979    0.9407 C   0  0  0  0  0  0  0  0  0  0  0  0
    7.8645    0.1578    1.8336 C   0  0  0  0  0  0  0  0  0  0  0  0
    8.8577    0.8775    0.9801 C   0  0  0  0  0  0  0  0  0  0  0  0
    8.7425    0.5127   -0.4762 C   0  0  0  0  0  0  0  0  0  0  0  0
    7.3399    0.8278   -0.9947 C   0  0  0  0  0  0  0  0  0  0  0  0
   -3.1429   -2.9570   -0.6520 C   0  0  0  0  0  0  0  0  0  0  0  0
   -3.3515   -3.3857   -2.1145 C   0  0  0  0  0  0  0  0  0  0  0  0
   -4.5222   -2.6294   -2.6826 C   0  0  0  0  0  0  0  0  0  0  0  0
   -5.7033   -2.8604   -1.9849 O   0  0  0  0  0  0  0  0  0  0  0  0
   -4.2211   -1.1640   -2.8688 C   0  0  0  0  0  0  0  0  0  0  0  0
   -3.1482   -0.7666   -1.8828 C   0  0  0  0  0  0  0  0  0  0  0  0
   -3.5307    0.9416   -1.3093 S   0  0  0  0  0  0  0  0  0  0  0  0
   -3.0170    0.6779    0.4125 C   0  0  1  0  0  0  0  0  0  0  0  0
   -3.9592    1.2668    1.4017 C   0  0  0  0  0  0  0  0  0  0  0  0
   -5.3532    0.8179    1.4281 C   0  0  0  0  0  0  0  0  0  0  0  0
   -6.2598    1.6267    0.4867 C   0  0  0  0  0  0  0  0  0  0  0  0
   -6.4142    2.9887    1.1428 C   0  0  0  0  0  0  0  0  0  0  0  0
   -6.9171    3.8933    0.2206 O   0  0  0  0  0  0  0  0  0  0  0  0
   -5.1428    3.4439    1.7835 C   0  0  0  0  0  0  0  0  0  0  0  0
   -3.9356    2.7780    1.1997 C   0  0  0  0  0  0  0  0  0  0  0  0
   -3.3691   -1.5012   -0.5919 C   0  0  0  0  0  0  0  0  0  0  0  0
   -2.7426   -0.7741    0.5533 C   0  0  1  0  0  0  0  0  0  0  0  0
   -1.3882   -1.1707    0.9531 C   0  0  2  0  0  0  0  0  0  0  0  0
   -1.1578   -0.5458    2.1958 O   0  0  0  0  0  0  0  0  0  0  0  0
   -0.2133   -1.0637    0.1159 C   0  0  0  0  0  0  0  0  0  0  0  0
    0.1480    0.3181   -0.3556 C   0  0  0  0  0  0  0  0  0  0  0  0
    1.4952    0.2987   -1.1005 C   0  0  0  0  0  0  0  0  0  0  0  0
    2.5547   -0.1495   -0.1130 C   0  0  0  0  0  0  0  0  0  0  0  0
    2.2405   -1.6027    0.1862 C   0  0  0  0  0  0  0  0  0  0  0  0
    0.9596   -1.6605    0.9338 C   0  0  0  0  0  0  0  0  0  0  0  0
    3.8314    0.0334   -0.6033 O   0  0  0  0  0  0  0  0  0  0  0  0
    4.4971    0.9350    0.2209 C   0  0  0  0  0  0  0  0  0  0  0  0
    5.8973    1.1339   -0.3248 C   0  0  0  0  0  0  0  0  0  0  0  0
    6.6552   -0.0791   -0.3626 N   0  0  0  0  0  0  0  0  0  0  0  0
    6.9854   -0.5681    0.9580 C   0  0  0  0  0  0  0  0  0  0  0  0
    7.7757    0.4689    1.7376 C   0  0  0  0  0  0  0  0  0  0  0  0
    8.9233    0.9334    0.8982 C   0  0  0  0  0  0  0  0  0  0  0  0
    9.0869    0.1822   -0.3982 C   0  0  0  0  0  0  0  0  0  0  0  0
    7.8135    0.0901   -1.1862 C   0  0  0  0  0  0  0  0  0  0  0  0
   -3.2946   -3.5688    0.4435 H   0  0  0  0  0  0  0  0  0  0  0  0
   -2.5856   -3.4809   -1.2127 H   0  0  0  0  0  0  0  0  0  0  0  0
   -4.6937   -5.0133   -0.5716 H   0  0  0  0  0  0  0  0  0  0  0  0
   -4.3665   -4.4271   -2.2182 H   0  0  0  0  0  0  0  0  0  0  0  0
   -6.6197   -4.0824   -1.8067 H   0  0  0  0  0  0  0  0  0  0  0  0
   -6.2969   -4.0862    0.6419 H   0  0  0  0  0  0  0  0  0  0  0  0
   -6.3628   -2.1497   -2.9040 H   0  0  0  0  0  0  0  0  0  0  0  0
   -6.4770   -1.3269   -1.3108 H   0  0  0  0  0  0  0  0  0  0  0  0
   -3.9898   -2.0028   -2.9346 H   0  0  0  0  0  0  0  0  0  0  0  0
   -2.2001    0.8067   -2.0217 H   0  0  0  0  0  0  0  0  0  0  0  0
   -1.9369    1.6393    0.2430 H   0  0  0  0  0  0  0  0  0  0  0  0
   -4.2438    0.5221    1.3514 H   0  0  0  0  0  0  0  0  0  0  0  0
   -3.5451    2.0814    1.7436 H   0  0  0  0  0  0  0  0  0  0  0  0
   -5.8819    2.0621    1.4713 H   0  0  0  0  0  0  0  0  0  0  0  0
   -5.8006    1.6651   -0.2535 H   0  0  0  0  0  0  0  0  0  0  0  0
   -5.6704    3.9480   -0.5527 H   0  0  0  0  0  0  0  0  0  0  0  0
   -5.9805    3.8532    2.0492 H   0  0  0  0  0  0  0  0  0  0  0  0
   -3.5708    4.8517   -0.5544 H   0  0  0  0  0  0  0  0  0  0  0  0
   -2.9883    3.8204    0.8495 H   0  0  0  0  0  0  0  0  0  0  0  0
   -4.0776    2.5477   -1.6560 H   0  0  0  0  0  0  0  0  0  0  0  0
   -2.3348    2.9925   -1.6231 H   0  0  0  0  0  0  0  0  0  0  0  0
   -4.4570   -1.4442    0.0308 H   0  0  0  0  0  0  0  0  0  0  0  0
   -2.1133   -1.4114   -1.8891 H   0  0  0  0  0  0  0  0  0  0  0  0
   -1.6201   -2.4547    0.2489 H   0  0  0  0  0  0  0  0  0  0  0  0
   -1.2910   -0.1381    1.7165 H   0  0  0  0  0  0  0  0  0  0  0  0
    0.2197   -1.9768   -1.0347 H   0  0  0  0  0  0  0  0  0  0  0  0
    0.0414    0.6472   -1.4500 H   0  0  0  0  0  0  0  0  0  0  0  0
    1.5131   -0.2345   -1.2278 H   0  0  0  0  0  0  0  0  0  0  0  0
    0.4323    1.3502    1.1496 H   0  0  0  0  0  0  0  0  0  0  0  0
    1.5475    1.8378   -0.1176 H   0  0  0  0  0  0  0  0  0  0  0  0
    2.4434    0.5111    2.0890 H   0  0  0  0  0  0  0  0  0  0  0  0
    2.6315   -1.7115    1.8631 H   0  0  0  0  0  0  0  0  0  0  0  0
    2.7281   -1.7310    0.0919 H   0  0  0  0  0  0  0  0  0  0  0  0
    0.2716   -1.4149    1.9307 H   0  0  0  0  0  0  0  0  0  0  0  0
    0.7323   -2.8421    0.9840 H   0  0  0  0  0  0  0  0  0  0  0  0
    3.9341    2.0887    1.5839 H   0  0  0  0  0  0  0  0  0  0  0  0
    4.5916    0.5048    2.1043 H   0  0  0  0  0  0  0  0  0  0  0  0
    5.4007    2.2472   -0.2988 H   0  0  0  0  0  0  0  0  0  0  0  0
    6.3021    2.0209    1.2537 H   0  0  0  0  0  0  0  0  0  0  0  0
    6.0020   -0.9345    1.5054 H   0  0  0  0  0  0  0  0  0  0  0  0
    7.3627   -1.3448    0.4241 H   0  0  0  0  0  0  0  0  0  0  0  0
    8.3882   -0.6459    2.3959 H   0  0  0  0  0  0  0  0  0  0  0  0
    7.4017    0.8492    2.5719 H   0  0  0  0  0  0  0  0  0  0  0  0
    9.9171    0.6549    1.2743 H   0  0  0  0  0  0  0  0  0  0  0  0
    8.7268    1.9731    1.0709 H   0  0  0  0  0  0  0  0  0  0  0  0
    9.4506    1.0880   -1.0807 H   0  0  0  0  0  0  0  0  0  0  0  0
    8.9740   -0.5705   -0.6405 H   0  0  0  0  0  0  0  0  0  0  0  0
    7.2950    1.9083   -1.1885 H   0  0  0  0  0  0  0  0  0  0  0  0
    7.2629    0.2915   -1.9698 H   0  0  0  0  0  0  0  0  0  0  0  0
   -3.9419   -3.5316   -0.0926 H   0  0  0  0  0  0  0  0  0  0  0  0
   -2.1974   -3.3426   -0.2617 H   0  0  0  0  0  0  0  0  0  0  0  0
   -3.5876   -4.4643   -2.1860 H   0  0  0  0  0  0  0  0  0  0  0  0
   -2.4633   -3.1033   -2.7217 H   0  0  0  0  0  0  0  0  0  0  0  0
   -4.7022   -3.0535   -3.7141 H   0  0  0  0  0  0  0  0  0  0  0  0
   -6.4407   -3.1975   -2.5516 H   0  0  0  0  0  0  0  0  0  0  0  0
   -3.8265   -0.9759   -3.8879 H   0  0  0  0  0  0  0  0  0  0  0  0
   -5.1172   -0.5302   -2.7088 H   0  0  0  0  0  0  0  0  0  0  0  0
   -2.1543   -0.7539   -2.2795 H   0  0  0  0  0  0  0  0  0  0  0  0
   -2.0577    1.2346    0.5607 H   0  0  0  0  0  0  0  0  0  0  0  0
   -3.4880    1.1124    2.4155 H   0  0  0  0  0  0  0  0  0  0  0  0
   -5.5753   -0.2408    1.3244 H   0  0  0  0  0  0  0  0  0  0  0  0
   -5.7575    1.0760    2.4584 H   0  0  0  0  0  0  0  0  0  0  0  0
   -5.8624    1.6676   -0.5251 H   0  0  0  0  0  0  0  0  0  0  0  0
   -7.2592    1.1118    0.5373 H   0  0  0  0  0  0  0  0  0  0  0  0
   -7.1992    2.8705    1.9452 H   0  0  0  0  0  0  0  0  0  0  0  0
   -7.9019    3.6837    0.1387 H   0  0  0  0  0  0  0  0  0  0  0  0
   -5.0255    4.5284    1.6565 H   0  0  0  0  0  0  0  0  0  0  0  0
   -5.1658    3.2306    2.8892 H   0  0  0  0  0  0  0  0  0  0  0  0
   -3.9561    2.9461    0.0983 H   0  0  0  0  0  0  0  0  0  0  0  0
   -3.0106    3.2346    1.6049 H   0  0  0  0  0  0  0  0  0  0  0  0
   -4.4863   -1.3745   -0.4537 H   0  0  0  0  0  0  0  0  0  0  0  0
   -3.3753   -1.0804    1.4585 H   0  0  0  0  0  0  0  0  0  0  0  0
   -1.4302   -2.2850    1.2816 H   0  0  0  0  0  0  0  0  0  0  0  0
   -0.6304    0.2597    2.1379 H   0  0  0  0  0  0  0  0  0  0  0  0
   -0.1875   -1.7045   -0.7961 H   0  0  0  0  0  0  0  0  0  0  0  0
    0.2875    1.0025    0.4776 H   0  0  0  0  0  0  0  0  0  0  0  0
   -0.5613    0.6352   -1.1432 H   0  0  0  0  0  0  0  0  0  0  0  0
    1.6578    1.3349   -1.4378 H   0  0  0  0  0  0  0  0  0  0  0  0
    1.4481   -0.4474   -1.9039 H   0  0  0  0  0  0  0  0  0  0  0  0
    2.4097    0.4477    0.7924 H   0  0  0  0  0  0  0  0  0  0  0  0
    3.0392   -1.9597    0.8673 H   0  0  0  0  0  0  0  0  0  0  0  0
    2.2804   -2.2348   -0.7091 H   0  0  0  0  0  0  0  0  0  0  0  0
    1.0605   -1.1481    1.8980 H   0  0  0  0  0  0  0  0  0  0  0  0
    0.6993   -2.7201    1.1277 H   0  0  0  0  0  0  0  0  0  0  0  0
    3.9840    1.9161    0.1311 H   0  0  0  0  0  0  0  0  0  0  0  0
    4.4914    0.6614    1.2816 H   0  0  0  0  0  0  0  0  0  0  0  0
    5.7661    1.4661   -1.3918 H   0  0  0  0  0  0  0  0  0  0  0  0
    6.4021    1.9773    0.1807 H   0  0  0  0  0  0  0  0  0  0  0  0
    6.0825   -0.8801    1.4930 H   0  0  0  0  0  0  0  0  0  0  0  0
    7.6136   -1.4882    0.8149 H   0  0  0  0  0  0  0  0  0  0  0  0
    8.1066   -0.0243    2.6796 H   0  0  0  0  0  0  0  0  0  0  0  0
    7.0736    1.2770    2.0026 H   0  0  0  0  0  0  0  0  0  0  0  0
    9.8774    0.8013    1.4672 H   0  0  0  0  0  0  0  0  0  0  0  0
    8.7585    1.9999    0.6313 H   0  0  0  0  0  0  0  0  0  0  0  0
    9.8142    0.7645   -1.0096 H   0  0  0  0  0  0  0  0  0  0  0  0
    9.5034   -0.8319   -0.2430 H   0  0  0  0  0  0  0  0  0  0  0  0
    7.7385    0.9793   -1.8508 H   0  0  0  0  0  0  0  0  0  0  0  0
    7.8932   -0.7969   -1.8553 H   0  0  0  0  0  0  0  0  0  0  0  0
  1  2  1  0
  2  3  1  0
  3  4  1  0
  3  5  1  0
  5  6  1  0
  6  7  1  0
  7  8  1  0
  8  9  1  0
  9 10  1  0
 10 11  1  0
 11 12  1  0
 12 13  1  0
 12 14  1  0
  9 15  1  0
 14 15  1  0
  1 16  1  0
  6 16  1  0
  8 17  1  0
 16 17  1  0
 17 18  1  0
 18 19  1  0
 18 20  1  0
 20 21  1  0
 21 22  1  0
 22 23  1  0
 23 24  1  0
 20 25  1  0
 24 25  1  0
 23 26  1  0
 26 27  1  0
 27 28  1  0
 28 29  1  0
 29 30  1  0
 30 31  1  0
 31 32  1  0
 32 33  1  0
 29 34  1  0
 33 34  1  0
 35 36  1  0
 36 37  1  0
 37 38  1  0
 37 39  1  0
 39 40  1  0
 40 41  1  0
 41 42  1  0
 42 43  1  0
 43 44  1  0
 44 45  1  0
 45 46  1  0
 46 47  1  0
 46 48  1  0
 43 49  1  0
 48 49  1  0
 35 50  1  0
 40 50  1  0
 42 51  1  0
 50 51  1  0
 51 52  1  0
 52 53  1  0
 52 54  1  0
 54 55  1  0
 55 56  1  0
 56 57  1  0
 57 58  1  0
 54 59  1  0
 58 59  1  0
 57 60  1  0
 60 61  1  0
 61 62  1  0
 62 63  1  0
 63 64  1  0
 64 65  1  0
 65 66  1  0
 66 67  1  0
 63 68  1  0
 67 68  1  0
  1 69  1  0
  1 70  1  0
  2 71  1  0
  2 72  1  0
  3 73  1  0
  4 74  1  0
  5 75  1  0
  5 76  1  0
  6 77  1  0
  8 78  1  6
  9 79  1  0
 10 80  1  0
 10 81  1  0
 11 82  1  0
 11 83  1  0
 12 84  1  0
 13 85  1  0
 14 86  1  0
 14 87  1  0
 15 88  1  0
 15 89  1  0
 16 90  1  0
 17 91  1  0
 18 92  1  0
 19 93  1  0
 20 94  1  0
 21 95  1  0
 21 96  1  0
 22 97  1  0
 22 98  1  0
 23 99  1  0
 24100  1  0
 24101  1  0
 25102  1  0
 25103  1  0
 27104  1  0
 27105  1  0
 28106  1  0
 28107  1  0
 30108  1  0
 30109  1  0
 31110  1  0
 31111  1  0
 32112  1  0
 32113  1  0
 33114  1  0
 33115  1  0
 34116  1  0
 34117  1  0
 35118  1  0
 35119  1  0
 36120  1  0
 36121  1  0
 37122  1  0
 38123  1  0
 39124  1  0
 39125  1  0
 40126  1  0
 42127  1  6
 43128  1  0
 44129  1  0
 44130  1  0
 45131  1  0
 45132  1  0
 46133  1  0
 47134  1  0
 48135  1  0
 48136  1  0
 49137  1  0
 49138  1  0
 50139  1  0
 51140  1  1
 52141  1  1
 53142  1  0
 54143  1  0
 55144  1  0
 55145  1  0
 56146  1  0
 56147  1  0
 57148  1  0
 58149  1  0
 58150  1  0
 59151  1  0
 59152  1  0
 61153  1  0
 61154  1  0
 62155  1  0
 62156  1  0
 64157  1  0
 64158  1  0
 65159  1  0
 65160  1  0
 66161  1  0
 66162  1  0
 67163  1  0
 67164  1  0
 68165  1  0
 68166  1  0
M  END
>  <PDBID>  (1) 
2QXS

>  <PDB ID>  (1) 
2QXS

>  <Generic Name>  (1) 
Raloxifene

>  <Brand Name>  (1) 
Act Raloxifene#Apo-raloxifene#Evista#Evista (60mg)#PMS-raloxifene#Raloxifene#Raloxifene Hydrochloride#Teva-raloxifene#Keoxifene

>  <DrugBank ID>  (1) 
DB00481

>  <ATC Codes>  (1) 
G03XC01

>  <Ligand ID>  (1) 
RAL

>  <Target Name>  (1) 
Estrogen receptor

>  <UniProt ID>  (1) 
P03372

>  <PDB ID.1>  (1) 
2QXS

>  <Seq. Identity>  (1) 
93%

$$$$
