PDB_DB00773_05
     RDKit          3D

176188  0  0  0  0  0  0  0  0999 V2000
   -1.2145   -4.6510   -1.1840 C   0  0  0  0  0  0  0  0  0  0  0  0
    0.0363   -4.1902   -0.8315 O   0  0  0  0  0  0  0  0  0  0  0  0
   -1.4684   -3.6784    0.7568 C   0  0  0  0  0  0  0  0  0  0  0  0
   -1.9926   -4.7248   -0.0422 O   0  0  0  0  0  0  0  0  0  0  0  0
   -2.1254   -2.4093    0.4187 C   0  0  0  0  0  0  0  0  0  0  0  0
   -0.1657    3.0820   -0.3638 O   0  0  0  0  0  0  0  0  0  0  0  0
   -1.3147   -1.1477    0.4525 C   0  0  0  0  0  0  0  0  0  0  0  0
   -1.8642    3.0287   -1.6998 O   0  0  0  0  0  0  0  0  0  0  0  0
   -1.9466   -0.1282   -0.5331 C   0  0  2  0  0  0  0  0  0  0  0  0
   -4.5720    2.9427   -0.3052 O   0  0  0  0  0  0  0  0  0  0  0  0
   -1.0193    0.9921   -0.6987 C   0  0  1  0  0  0  0  0  0  0  0  0
   -6.2655    2.1928    1.4348 O   0  0  0  0  0  0  0  0  0  0  0  0
   -1.3631    2.3897   -0.5579 C   0  0  1  0  0  0  0  0  0  0  0  0
   -5.3945   -1.1538    0.7937 O   0  0  0  0  0  0  0  0  0  0  0  0
    0.8434    2.1992   -0.0947 C   0  0  0  0  0  0  0  0  0  0  0  0
    1.9141   -0.1089   -0.9351 O   0  0  0  0  0  0  0  0  0  0  0  0
    0.1171    0.9050    0.3131 C   0  0  2  0  0  0  0  0  0  0  0  0
    3.8633    1.1332   -0.7474 O   0  0  0  0  0  0  0  0  0  0  0  0
    1.0062   -0.2815    0.1215 C   0  0  1  0  0  0  0  0  0  0  0  0
    6.5873    2.4526    1.1722 O   0  0  0  0  0  0  0  0  0  0  0  0
    0.0952   -1.4670   -0.0708 C   0  0  0  0  0  0  0  0  0  0  0  0
    7.0851    0.3090    0.4809 O   0  0  0  0  0  0  0  0  0  0  0  0
    0.6779   -2.5595    0.8219 C   0  0  0  0  0  0  0  0  0  0  0  0
    6.2603   -2.1416   -0.7968 O   0  0  0  0  0  0  0  0  0  0  0  0
   -0.0249   -3.8159    0.4950 C   0  0  0  0  0  0  0  0  0  0  0  0
    3.5587   -2.3448   -1.4294 O   0  0  0  0  0  0  0  0  0  0  0  0
   -3.3806    0.0476   -0.2310 C   0  0  0  0  0  0  0  0  0  0  0  0
   -4.2141    0.7866   -1.2342 C   0  0  0  0  0  0  0  0  0  0  0  0
   -5.1861    1.7571   -0.5979 C   0  0  0  0  0  0  0  0  0  0  0  0
   -5.9733    1.1675    0.5215 C   0  0  0  0  0  0  0  0  0  0  0  0
   -5.2365    0.1049    1.2987 C   0  0  0  0  0  0  0  0  0  0  0  0
   -3.7384    0.4568    1.1863 C   0  0  0  0  0  0  0  0  0  0  0  0
   -5.0161    4.0255   -1.0328 C   0  0  0  0  0  0  0  0  0  0  0  0
   -5.8123   -2.0993    1.7015 C   0  0  0  0  0  0  0  0  0  0  0  0
    3.2253   -0.1033   -0.5555 C   0  0  2  0  0  0  0  0  0  0  0  0
    4.9352    1.1662    0.1249 C   0  0  2  0  0  0  0  0  0  0  0  0
    5.4420    2.5581    0.3814 C   0  0  0  0  0  0  0  0  0  0  0  0
    7.4829    1.6487    0.4685 C   0  0  2  0  0  0  0  0  0  0  0  0
    5.9853    0.2188   -0.3627 C   0  0  2  0  0  0  0  0  0  0  0  0
    5.3852   -1.1844   -0.3399 C   0  0  1  0  0  0  0  0  0  0  0  0
    4.1109   -1.1157   -1.1970 C   0  0  1  0  0  0  0  0  0  0  0  0
    8.8527    1.8701    1.0179 C   0  0  0  0  0  0  0  0  0  0  0  0
   -1.2145   -4.6510   -1.1840 C   0  0  0  0  0  0  0  0  0  0  0  0
    0.0363   -4.1902   -0.8315 O   0  0  0  0  0  0  0  0  0  0  0  0
   -1.4684   -3.6784    0.7568 C   0  0  0  0  0  0  0  0  0  0  0  0
   -1.9926   -4.7248   -0.0422 O   0  0  0  0  0  0  0  0  0  0  0  0
   -2.1254   -2.4093    0.4187 C   0  0  0  0  0  0  0  0  0  0  0  0
   -0.1657    3.0820   -0.3638 O   0  0  0  0  0  0  0  0  0  0  0  0
   -1.3147   -1.1477    0.4525 C   0  0  0  0  0  0  0  0  0  0  0  0
   -1.8642    3.0287   -1.6998 O   0  0  0  0  0  0  0  0  0  0  0  0
   -1.9466   -0.1282   -0.5331 C   0  0  2  0  0  0  0  0  0  0  0  0
   -4.5720    2.9427   -0.3052 O   0  0  0  0  0  0  0  0  0  0  0  0
   -1.0193    0.9921   -0.6987 C   0  0  1  0  0  0  0  0  0  0  0  0
   -6.2655    2.1928    1.4348 O   0  0  0  0  0  0  0  0  0  0  0  0
   -1.3631    2.3897   -0.5579 C   0  0  1  0  0  0  0  0  0  0  0  0
   -5.3945   -1.1538    0.7937 O   0  0  0  0  0  0  0  0  0  0  0  0
    0.8434    2.1992   -0.0947 C   0  0  0  0  0  0  0  0  0  0  0  0
    1.9141   -0.1089   -0.9351 O   0  0  0  0  0  0  0  0  0  0  0  0
    0.1171    0.9050    0.3131 C   0  0  2  0  0  0  0  0  0  0  0  0
    3.8633    1.1332   -0.7474 O   0  0  0  0  0  0  0  0  0  0  0  0
    1.0062   -0.2815    0.1215 C   0  0  1  0  0  0  0  0  0  0  0  0
    6.5873    2.4526    1.1722 O   0  0  0  0  0  0  0  0  0  0  0  0
    0.0952   -1.4670   -0.0708 C   0  0  0  0  0  0  0  0  0  0  0  0
    7.0851    0.3090    0.4809 O   0  0  0  0  0  0  0  0  0  0  0  0
    0.6779   -2.5595    0.8219 C   0  0  0  0  0  0  0  0  0  0  0  0
    6.2603   -2.1416   -0.7968 O   0  0  0  0  0  0  0  0  0  0  0  0
   -0.0249   -3.8159    0.4950 C   0  0  0  0  0  0  0  0  0  0  0  0
    3.5587   -2.3448   -1.4294 O   0  0  0  0  0  0  0  0  0  0  0  0
   -3.3806    0.0476   -0.2310 C   0  0  0  0  0  0  0  0  0  0  0  0
   -4.2141    0.7866   -1.2342 C   0  0  0  0  0  0  0  0  0  0  0  0
   -5.1861    1.7571   -0.5979 C   0  0  0  0  0  0  0  0  0  0  0  0
   -5.9733    1.1675    0.5215 C   0  0  0  0  0  0  0  0  0  0  0  0
   -5.2365    0.1049    1.2987 C   0  0  0  0  0  0  0  0  0  0  0  0
   -3.7384    0.4568    1.1863 C   0  0  0  0  0  0  0  0  0  0  0  0
   -5.0161    4.0255   -1.0328 C   0  0  0  0  0  0  0  0  0  0  0  0
   -5.8123   -2.0993    1.7015 C   0  0  0  0  0  0  0  0  0  0  0  0
    3.2253   -0.1033   -0.5555 C   0  0  2  0  0  0  0  0  0  0  0  0
    4.9352    1.1662    0.1249 C   0  0  2  0  0  0  0  0  0  0  0  0
    5.4420    2.5581    0.3814 C   0  0  0  0  0  0  0  0  0  0  0  0
    7.4829    1.6487    0.4685 C   0  0  2  0  0  0  0  0  0  0  0  0
    5.9853    0.2188   -0.3627 C   0  0  2  0  0  0  0  0  0  0  0  0
    5.3852   -1.1844   -0.3399 C   0  0  1  0  0  0  0  0  0  0  0  0
    4.1109   -1.1157   -1.1970 C   0  0  1  0  0  0  0  0  0  0  0  0
    8.8527    1.8701    1.0179 C   0  0  0  0  0  0  0  0  0  0  0  0
   -1.6238   -3.9756   -1.9584 H   0  0  0  0  0  0  0  0  0  0  0  0
   -1.0852   -5.6419   -1.6812 H   0  0  0  0  0  0  0  0  0  0  0  0
   -1.6821   -4.0216    1.8120 H   0  0  0  0  0  0  0  0  0  0  0  0
   -2.9625   -2.3012    1.1344 H   0  0  0  0  0  0  0  0  0  0  0  0
   -2.4847   -2.5043   -0.6490 H   0  0  0  0  0  0  0  0  0  0  0  0
   -1.2750   -0.7198    1.4453 H   0  0  0  0  0  0  0  0  0  0  0  0
   -2.0191    3.9795   -1.4329 H   0  0  0  0  0  0  0  0  0  0  0  0
   -1.9281   -0.7240   -1.4899 H   0  0  0  0  0  0  0  0  0  0  0  0
   -0.4562    0.9027   -1.6918 H   0  0  0  0  0  0  0  0  0  0  0  0
   -5.4626    2.4939    1.9288 H   0  0  0  0  0  0  0  0  0  0  0  0
   -1.9386    2.6714    0.3606 H   0  0  0  0  0  0  0  0  0  0  0  0
    1.5853    2.5091    0.6328 H   0  0  0  0  0  0  0  0  0  0  0  0
    1.2783    1.9399   -1.1063 H   0  0  0  0  0  0  0  0  0  0  0  0
   -0.2165    1.0148    1.3454 H   0  0  0  0  0  0  0  0  0  0  0  0
    1.6276   -0.3608    1.0385 H   0  0  0  0  0  0  0  0  0  0  0  0
    0.0484   -1.8545   -1.0851 H   0  0  0  0  0  0  0  0  0  0  0  0
    1.7472   -2.6453    0.5926 H   0  0  0  0  0  0  0  0  0  0  0  0
    0.5089   -2.3285    1.8946 H   0  0  0  0  0  0  0  0  0  0  0  0
    6.5711   -2.6690   -0.0241 H   0  0  0  0  0  0  0  0  0  0  0  0
    0.3863   -4.6289    1.1612 H   0  0  0  0  0  0  0  0  0  0  0  0
    3.0760   -2.3517   -2.3029 H   0  0  0  0  0  0  0  0  0  0  0  0
   -3.7905   -1.0158   -0.2612 H   0  0  0  0  0  0  0  0  0  0  0  0
   -4.9320    0.0534   -1.7728 H   0  0  0  0  0  0  0  0  0  0  0  0
   -3.6930    1.2207   -2.0790 H   0  0  0  0  0  0  0  0  0  0  0  0
   -5.9375    2.0124   -1.4098 H   0  0  0  0  0  0  0  0  0  0  0  0
   -6.9547    0.7898    0.1683 H   0  0  0  0  0  0  0  0  0  0  0  0
   -5.4871    0.1189    2.3890 H   0  0  0  0  0  0  0  0  0  0  0  0
   -3.1202   -0.0932    1.8817 H   0  0  0  0  0  0  0  0  0  0  0  0
   -3.7470    1.5485    1.3579 H   0  0  0  0  0  0  0  0  0  0  0  0
   -6.0865    4.2427   -0.9045 H   0  0  0  0  0  0  0  0  0  0  0  0
   -4.3534    4.8834   -0.8507 H   0  0  0  0  0  0  0  0  0  0  0  0
   -4.8811    3.7654   -2.1214 H   0  0  0  0  0  0  0  0  0  0  0  0
   -6.7962   -1.8657    2.1659 H   0  0  0  0  0  0  0  0  0  0  0  0
   -5.9953   -3.0452    1.1140 H   0  0  0  0  0  0  0  0  0  0  0  0
   -5.0375   -2.3702    2.4423 H   0  0  0  0  0  0  0  0  0  0  0  0
    3.2628   -0.2615    0.5540 H   0  0  0  0  0  0  0  0  0  0  0  0
    4.5644    0.7559    1.1071 H   0  0  0  0  0  0  0  0  0  0  0  0
    4.6472    3.1115    0.9221 H   0  0  0  0  0  0  0  0  0  0  0  0
    5.6530    3.0622   -0.5856 H   0  0  0  0  0  0  0  0  0  0  0  0
    7.3949    1.9699   -0.6104 H   0  0  0  0  0  0  0  0  0  0  0  0
    6.3179    0.4520   -1.4007 H   0  0  0  0  0  0  0  0  0  0  0  0
    5.0332   -1.3551    0.7016 H   0  0  0  0  0  0  0  0  0  0  0  0
    4.4864   -0.7005   -2.1808 H   0  0  0  0  0  0  0  0  0  0  0  0
    9.4123    0.9141    0.9669 H   0  0  0  0  0  0  0  0  0  0  0  0
    8.8153    2.2589    2.0571 H   0  0  0  0  0  0  0  0  0  0  0  0
    9.3541    2.6336    0.3642 H   0  0  0  0  0  0  0  0  0  0  0  0
   -1.6238   -3.9756   -1.9584 H   0  0  0  0  0  0  0  0  0  0  0  0
   -1.0852   -5.6419   -1.6812 H   0  0  0  0  0  0  0  0  0  0  0  0
   -1.6821   -4.0216    1.8120 H   0  0  0  0  0  0  0  0  0  0  0  0
   -2.9625   -2.3012    1.1344 H   0  0  0  0  0  0  0  0  0  0  0  0
   -2.4847   -2.5043   -0.6490 H   0  0  0  0  0  0  0  0  0  0  0  0
   -1.2750   -0.7198    1.4453 H   0  0  0  0  0  0  0  0  0  0  0  0
   -2.0191    3.9795   -1.4329 H   0  0  0  0  0  0  0  0  0  0  0  0
   -1.9281   -0.7240   -1.4899 H   0  0  0  0  0  0  0  0  0  0  0  0
   -0.4562    0.9027   -1.6918 H   0  0  0  0  0  0  0  0  0  0  0  0
   -5.4626    2.4939    1.9288 H   0  0  0  0  0  0  0  0  0  0  0  0
   -1.9386    2.6714    0.3606 H   0  0  0  0  0  0  0  0  0  0  0  0
    1.5853    2.5091    0.6328 H   0  0  0  0  0  0  0  0  0  0  0  0
    1.2783    1.9399   -1.1063 H   0  0  0  0  0  0  0  0  0  0  0  0
   -0.2165    1.0148    1.3454 H   0  0  0  0  0  0  0  0  0  0  0  0
    1.6276   -0.3608    1.0385 H   0  0  0  0  0  0  0  0  0  0  0  0
    0.0484   -1.8545   -1.0851 H   0  0  0  0  0  0  0  0  0  0  0  0
    1.7472   -2.6453    0.5926 H   0  0  0  0  0  0  0  0  0  0  0  0
    0.5089   -2.3285    1.8946 H   0  0  0  0  0  0  0  0  0  0  0  0
    6.5711   -2.6690   -0.0241 H   0  0  0  0  0  0  0  0  0  0  0  0
    0.3863   -4.6289    1.1612 H   0  0  0  0  0  0  0  0  0  0  0  0
    3.0760   -2.3517   -2.3029 H   0  0  0  0  0  0  0  0  0  0  0  0
   -3.7905   -1.0158   -0.2612 H   0  0  0  0  0  0  0  0  0  0  0  0
   -4.9320    0.0534   -1.7728 H   0  0  0  0  0  0  0  0  0  0  0  0
   -3.6930    1.2207   -2.0790 H   0  0  0  0  0  0  0  0  0  0  0  0
   -5.9375    2.0124   -1.4098 H   0  0  0  0  0  0  0  0  0  0  0  0
   -6.9547    0.7898    0.1683 H   0  0  0  0  0  0  0  0  0  0  0  0
   -5.4871    0.1189    2.3890 H   0  0  0  0  0  0  0  0  0  0  0  0
   -3.1202   -0.0932    1.8817 H   0  0  0  0  0  0  0  0  0  0  0  0
   -3.7470    1.5485    1.3579 H   0  0  0  0  0  0  0  0  0  0  0  0
   -6.0865    4.2427   -0.9045 H   0  0  0  0  0  0  0  0  0  0  0  0
   -4.3534    4.8834   -0.8507 H   0  0  0  0  0  0  0  0  0  0  0  0
   -4.8811    3.7654   -2.1214 H   0  0  0  0  0  0  0  0  0  0  0  0
   -6.7962   -1.8657    2.1659 H   0  0  0  0  0  0  0  0  0  0  0  0
   -5.9953   -3.0452    1.1140 H   0  0  0  0  0  0  0  0  0  0  0  0
   -5.0375   -2.3702    2.4423 H   0  0  0  0  0  0  0  0  0  0  0  0
    3.2628   -0.2615    0.5540 H   0  0  0  0  0  0  0  0  0  0  0  0
    4.5644    0.7559    1.1071 H   0  0  0  0  0  0  0  0  0  0  0  0
    4.6472    3.1115    0.9221 H   0  0  0  0  0  0  0  0  0  0  0  0
    5.6530    3.0622   -0.5856 H   0  0  0  0  0  0  0  0  0  0  0  0
    7.3949    1.9699   -0.6104 H   0  0  0  0  0  0  0  0  0  0  0  0
    6.3179    0.4520   -1.4007 H   0  0  0  0  0  0  0  0  0  0  0  0
    5.0332   -1.3551    0.7016 H   0  0  0  0  0  0  0  0  0  0  0  0
    4.4864   -0.7005   -2.1808 H   0  0  0  0  0  0  0  0  0  0  0  0
    9.4123    0.9141    0.9669 H   0  0  0  0  0  0  0  0  0  0  0  0
    8.8153    2.2589    2.0571 H   0  0  0  0  0  0  0  0  0  0  0  0
    9.3541    2.6336    0.3642 H   0  0  0  0  0  0  0  0  0  0  0  0
  1  2  1  0
  1  4  1  0
  3  4  1  0
  3  5  1  0
  5  7  1  0
  7  9  1  0
  9 11  1  0
  6 13  1  0
  8 13  1  0
 11 13  1  0
  6 15  1  0
 11 17  1  0
 15 17  1  0
 16 19  1  0
 17 19  1  0
  7 21  1  0
 19 21  1  0
 21 23  1  0
  2 25  1  0
  3 25  1  0
 23 25  1  0
  9 27  1  0
 27 28  1  0
 10 29  1  0
 28 29  1  0
 12 30  1  0
 29 30  1  0
 14 31  1  0
 30 31  1  0
 27 32  1  0
 31 32  1  0
 10 33  1  0
 14 34  1  0
 16 35  1  0
 18 35  1  0
 18 36  1  0
 20 37  1  0
 36 37  1  0
 20 38  1  0
 22 38  1  0
 22 39  1  0
 36 39  1  0
 24 40  1  0
 39 40  1  0
 26 41  1  0
 35 41  1  0
 40 41  1  0
 38 42  1  0
 43 44  1  0
 43 46  1  0
 45 46  1  0
 45 47  1  0
 47 49  1  0
 49 51  1  0
 51 53  1  0
 48 55  1  0
 50 55  1  0
 53 55  1  0
 48 57  1  0
 53 59  1  0
 57 59  1  0
 58 61  1  0
 59 61  1  0
 49 63  1  0
 61 63  1  0
 63 65  1  0
 44 67  1  0
 45 67  1  0
 65 67  1  0
 51 69  1  0
 69 70  1  0
 52 71  1  0
 70 71  1  0
 54 72  1  0
 71 72  1  0
 56 73  1  0
 72 73  1  0
 69 74  1  0
 73 74  1  0
 52 75  1  0
 56 76  1  0
 58 77  1  0
 60 77  1  0
 60 78  1  0
 62 79  1  0
 78 79  1  0
 62 80  1  0
 64 80  1  0
 64 81  1  0
 78 81  1  0
 66 82  1  0
 81 82  1  0
 68 83  1  0
 77 83  1  0
 82 83  1  0
 80 84  1  0
  1 85  1  0
  1 86  1  0
  3 87  1  0
  5 88  1  0
  5 89  1  0
  7 90  1  0
  8 91  1  0
  9 92  1  6
 11 93  1  6
 12 94  1  0
 13 95  1  1
 15 96  1  0
 15 97  1  0
 17 98  1  1
 19 99  1  1
 21100  1  0
 23101  1  0
 23102  1  0
 24103  1  0
 25104  1  0
 26105  1  0
 27106  1  0
 28107  1  0
 28108  1  0
 29109  1  0
 30110  1  0
 31111  1  0
 32112  1  0
 32113  1  0
 33114  1  0
 33115  1  0
 33116  1  0
 34117  1  0
 34118  1  0
 34119  1  0
 35120  1  1
 36121  1  1
 37122  1  0
 37123  1  0
 38124  1  6
 39125  1  6
 40126  1  1
 41127  1  6
 42128  1  0
 42129  1  0
 42130  1  0
 43131  1  0
 43132  1  0
 45133  1  0
 47134  1  0
 47135  1  0
 49136  1  0
 50137  1  0
 51138  1  6
 53139  1  6
 54140  1  0
 55141  1  1
 57142  1  0
 57143  1  0
 59144  1  1
 61145  1  1
 63146  1  0
 65147  1  0
 65148  1  0
 66149  1  0
 67150  1  0
 68151  1  0
 69152  1  0
 70153  1  0
 70154  1  0
 71155  1  0
 72156  1  0
 73157  1  0
 74158  1  0
 74159  1  0
 75160  1  0
 75161  1  0
 75162  1  0
 76163  1  0
 76164  1  0
 76165  1  0
 77166  1  1
 78167  1  1
 79168  1  0
 79169  1  0
 80170  1  6
 81171  1  6
 82172  1  1
 83173  1  6
 84174  1  0
 84175  1  0
 84176  1  0
M  END
>  <PDBID>  (1) 
5GWK

>  <PDB ID>  (1) 
5GWK

>  <Generic Name>  (1) 
Etoposide

>  <Brand Name>  (1) 
Dom-etoposide#Eposin#Etopophos#Etoposide#Etoposide - Liq IV 20mg/ml#Etoposide Injection#Etoposide Injection USP#Etoposide Injection, USP#PMS-etoposide#Toposar#Vepesid#Vepesid Inj 20mg/ml#Etopofos#Lastet#Nexvep#Vepesid K#Vépéside

>  <DrugBank ID>  (1) 
DB00773

>  <ATC Codes>  (1) 
L01CB01

>  <Ligand ID>  (1) 
EVP

>  <Target Name>  (1) 
DNA topoisomerase 2-alpha

>  <UniProt ID>  (1) 
P11388

>  <PDB ID.1>  (1) 
5GWK

>  <Seq. Identity>  (1) 
96%

$$$$
