PDB_DB00215_05
     RDKit          3D

 61 63  0  0  0  0  0  0  0  0999 V2000
    0.3113    2.1923    0.4407 C   0  0  0  0  0  0  0  0  0  0  0  0
   -1.2704   -1.1163    0.4855 C   0  0  0  0  0  0  0  0  0  0  0  0
    0.2933    2.1272    1.9194 C   0  0  0  0  0  0  0  0  0  0  0  0
   -2.7266   -1.1614    1.0459 C   0  0  0  0  0  0  0  0  0  0  0  0
    1.3472    4.4059    0.5610 C   0  0  0  0  0  0  0  0  0  0  0  0
    0.1286    4.5783    1.4127 C   0  0  0  0  0  0  0  0  0  0  0  0
    4.5893   -3.4720    0.5573 C   0  0  0  0  0  0  0  0  0  0  0  0
   -4.2832   -2.3547   -0.4023 C   0  0  0  0  0  0  0  0  0  0  0  0
    0.2835    5.7862    2.0896 F   0  0  0  0  0  0  0  0  0  0  0  0
    0.3133    1.0765   -1.5900 O   0  0  0  0  0  0  0  0  0  0  0  0
    3.3672   -3.0821   -0.0886 N   0  0  0  0  0  0  0  0  0  0  0  0
   -5.1523   -2.3109   -1.5701 N   0  0  0  0  0  0  0  0  0  0  0  0
    0.2548    0.8076   -0.2457 C   0  0  1  0  0  0  0  0  0  0  0  0
    1.4473    0.0601    0.2213 C   0  0  0  0  0  0  0  0  0  0  0  0
   -1.0857    0.2834    0.0437 C   0  0  0  0  0  0  0  0  0  0  0  0
   -1.8689    0.4541   -1.2498 C   0  0  0  0  0  0  0  0  0  0  0  0
    1.7063   -1.2940   -0.3074 C   0  0  0  0  0  0  0  0  0  0  0  0
   -0.7278    0.4365   -2.2427 C   0  0  0  0  0  0  0  0  0  0  0  0
    3.0275   -1.7572    0.3688 C   0  0  0  0  0  0  0  0  0  0  0  0
   -2.8590   -0.6395   -1.4173 C   0  0  0  0  0  0  0  0  0  0  0  0
    1.4819    3.0115   -0.0285 C   0  0  0  0  0  0  0  0  0  0  0  0
   -3.5970   -1.0216   -0.1720 C   0  0  0  0  0  0  0  0  0  0  0  0
   -0.0088    3.5174    2.4709 C   0  0  0  0  0  0  0  0  0  0  0  0
    3.4607   -3.1566   -1.5373 C   0  0  0  0  0  0  0  0  0  0  0  0
   -0.6072    2.7326    0.0920 H   0  0  0  0  0  0  0  0  0  0  0  0
   -1.2389   -1.8631   -0.3420 H   0  0  0  0  0  0  0  0  0  0  0  0
   -0.6714   -1.4782    1.3121 H   0  0  0  0  0  0  0  0  0  0  0  0
    1.2757    1.7604    2.3376 H   0  0  0  0  0  0  0  0  0  0  0  0
   -0.4577    1.4556    2.3641 H   0  0  0  0  0  0  0  0  0  0  0  0
   -2.8900   -2.0656    1.6283 H   0  0  0  0  0  0  0  0  0  0  0  0
   -2.8157   -0.2357    1.6490 H   0  0  0  0  0  0  0  0  0  0  0  0
    2.2377    4.6989    1.1488 H   0  0  0  0  0  0  0  0  0  0  0  0
    1.2624    5.1235   -0.2847 H   0  0  0  0  0  0  0  0  0  0  0  0
   -0.7740    4.6331    0.7624 H   0  0  0  0  0  0  0  0  0  0  0  0
    5.0606   -4.3141    0.0421 H   0  0  0  0  0  0  0  0  0  0  0  0
    4.3432   -3.6992    1.6203 H   0  0  0  0  0  0  0  0  0  0  0  0
    5.2858   -2.6090    0.5342 H   0  0  0  0  0  0  0  0  0  0  0  0
   -3.5326   -3.1786   -0.5096 H   0  0  0  0  0  0  0  0  0  0  0  0
   -4.9275   -2.6317    0.4584 H   0  0  0  0  0  0  0  0  0  0  0  0
   -5.3956   -1.3302   -1.8332 H   0  0  0  0  0  0  0  0  0  0  0  0
   -5.9540   -2.9326   -1.4325 H   0  0  0  0  0  0  0  0  0  0  0  0
    2.3878    0.6627    0.0156 H   0  0  0  0  0  0  0  0  0  0  0  0
    1.4651    0.0026    1.3580 H   0  0  0  0  0  0  0  0  0  0  0  0
   -1.6422    0.9196    0.8081 H   0  0  0  0  0  0  0  0  0  0  0  0
   -2.4043    1.4304   -1.2547 H   0  0  0  0  0  0  0  0  0  0  0  0
    1.9732   -1.2675   -1.3991 H   0  0  0  0  0  0  0  0  0  0  0  0
    0.9912   -2.0807   -0.1628 H   0  0  0  0  0  0  0  0  0  0  0  0
   -1.0617    0.9744   -3.1478 H   0  0  0  0  0  0  0  0  0  0  0  0
   -0.4669   -0.6100   -2.4982 H   0  0  0  0  0  0  0  0  0  0  0  0
    2.8638   -1.7966    1.4523 H   0  0  0  0  0  0  0  0  0  0  0  0
    3.8001   -0.9976    0.1317 H   0  0  0  0  0  0  0  0  0  0  0  0
   -2.4716   -1.5522   -1.9158 H   0  0  0  0  0  0  0  0  0  0  0  0
   -3.6410   -0.2537   -2.1303 H   0  0  0  0  0  0  0  0  0  0  0  0
    1.5167    3.0596   -1.1378 H   0  0  0  0  0  0  0  0  0  0  0  0
    2.4669    2.6371    0.2939 H   0  0  0  0  0  0  0  0  0  0  0  0
   -4.4287   -0.2846    0.0120 H   0  0  0  0  0  0  0  0  0  0  0  0
   -1.0697    3.5668    2.8549 H   0  0  0  0  0  0  0  0  0  0  0  0
    0.6752    3.7056    3.3137 H   0  0  0  0  0  0  0  0  0  0  0  0
    2.4479   -3.4054   -1.9471 H   0  0  0  0  0  0  0  0  0  0  0  0
    4.1560   -3.9616   -1.8554 H   0  0  0  0  0  0  0  0  0  0  0  0
    3.8088   -2.1856   -1.9176 H   0  0  0  0  0  0  0  0  0  0  0  0
  1  3  1  0
  2  4  1  0
  5  6  1  0
  6  9  1  0
  7 11  1  0
  8 12  1  0
  1 13  1  0
 10 13  1  0
 13 14  1  1
  2 15  1  0
 13 15  1  0
 15 16  1  0
 14 17  1  0
 10 18  1  0
 16 18  1  0
 11 19  1  0
 17 19  1  0
 16 20  1  0
  1 21  1  0
  5 21  1  0
  4 22  1  0
  8 22  1  0
 20 22  1  0
  3 23  1  0
  6 23  1  0
 11 24  1  0
  1 25  1  0
  2 26  1  0
  2 27  1  0
  3 28  1  0
  3 29  1  0
  4 30  1  0
  4 31  1  0
  5 32  1  0
  5 33  1  0
  6 34  1  0
  7 35  1  0
  7 36  1  0
  7 37  1  0
  8 38  1  0
  8 39  1  0
 12 40  1  0
 12 41  1  0
 14 42  1  0
 14 43  1  0
 15 44  1  0
 16 45  1  0
 17 46  1  0
 17 47  1  0
 18 48  1  0
 18 49  1  0
 19 50  1  0
 19 51  1  0
 20 52  1  0
 20 53  1  0
 21 54  1  0
 21 55  1  0
 22 56  1  0
 23 57  1  0
 23 58  1  0
 24 59  1  0
 24 60  1  0
 24 61  1  0
M  END
>  <PDBID>  (1) 
5I71

>  <PDB ID>  (1) 
5I71

>  <Generic Name>  (1) 
Citalopram

>  <Brand Name>  (1) 
Abbott-citalopram#Accel-citalopram Tablets#Act Citalopram#Ag-citalopram#Apo-citalopram#Auro-citalopram#Ava-citalopram#Bio-citalopram#Celexa#Celexa 10 mg#Celexa 20 mg#Celexa 40 mg#Citalopram#Citalopram Hydrobromide#Citalopram Tablets#Citalopram Tablets USP#Citalopram-10#Citalopram-20#Citalopram-40#Citalopram-odan#Ctp 30#Dom-citalopram#Ecl-citalopram#Ipg-citalopram#Jamp-citalopram#Manda-citalopram#Mar-citalopram#Mint-citalopram#Mylan-citalopram#Nat-citalopram#Nat-citalopram Tablets#Ng Citalopram#Novo-citalopram#Ntp-citalopram#Nu-citalopram#PHL-citalopram#PMS-citalopram#Pendo-citalopram#Perrigo Citalopram#Priva-citalopram#Q-citalopram#Ran-citalo#Ran-citalopram#Ratio-citalopram#Riva-citalopram#Sandoz Citalopram#Sentralopram Am-10#Septa-citalopram#Teva-citalopram#Van-citalopram#Akarin#Celapram#Ciazil#Cilift#Cipram#Cipramil#Ciprapine#Citabax#Citalec#Citol#Citopam#Citox#Citrol#Dalsan#Elopram#Humorup#Oropram#Pramcit#Recital#Seropram#Talam#Talohexal#Temperax#Vodelax#Zentius#Zetalo

>  <DrugBank ID>  (1) 
DB00215

>  <ATC Codes>  (1) 
N06AB04

>  <Ligand ID>  (1) 
68P

>  <Target Name>  (1) 
Sodium-dependent serotonin transporter

>  <UniProt ID>  (1) 
P31645

>  <PDB ID.1>  (1) 
5I71

>  <Seq. Identity>  (1) 
99%

$$$$
