PDB_DB00988_06
     RDKit          3D

 28 28  0  0  0  0  0  0  0  0999 V2000
    1.7458   -0.7904   -0.6143 C   0  0  0  0  0  0  0  0  0  0  0  0
    0.3202   -0.2643   -0.5842 C   0  0  0  0  0  0  0  0  0  0  0  0
   -2.3385    0.2185   -0.0318 C   0  0  0  0  0  0  0  0  0  0  0  0
    0.0472    0.4487    0.6969 C   0  0  0  0  0  0  0  0  0  0  0  0
   -0.5953   -1.4570   -0.7168 C   0  0  0  0  0  0  0  0  0  0  0  0
   -2.0488   -1.0646   -0.7660 C   0  0  0  0  0  0  0  0  0  0  0  0
   -1.3930    0.3615    1.1360 C   0  0  0  0  0  0  0  0  0  0  0  0
   -1.7028    1.4949    1.8651 O   0  0  0  0  0  0  0  0  0  0  0  0
   -2.3687    1.3281   -0.8511 O   0  0  0  0  0  0  0  0  0  0  0  0
    2.7660    0.3155   -0.4881 C   0  0  0  0  0  0  0  0  0  0  0  0
    2.6267    1.0542    0.7498 N   0  0  0  0  0  0  0  0  0  0  0  0
    1.9654   -1.3246   -1.5546 H   0  0  0  0  0  0  0  0  0  0  0  0
    1.9156   -1.5166    0.2170 H   0  0  0  0  0  0  0  0  0  0  0  0
    0.2980    1.5145    0.6062 H   0  0  0  0  0  0  0  0  0  0  0  0
   -0.3615   -1.9486   -1.6898 H   0  0  0  0  0  0  0  0  0  0  0  0
   -2.3604   -0.9112   -1.8265 H   0  0  0  0  0  0  0  0  0  0  0  0
   -2.4744    1.2584    2.4634 H   0  0  0  0  0  0  0  0  0  0  0  0
   -1.5595    1.9000   -0.7838 H   0  0  0  0  0  0  0  0  0  0  0  0
    3.7618   -0.1797   -0.4862 H   0  0  0  0  0  0  0  0  0  0  0  0
    2.7276    0.9803   -1.3779 H   0  0  0  0  0  0  0  0  0  0  0  0
    3.3038    0.6847    1.4509 H   0  0  0  0  0  0  0  0  0  0  0  0
    2.8142    2.0599    0.6029 H   0  0  0  0  0  0  0  0  0  0  0  0
    0.1571    0.3696   -1.4716 H   0  0  0  0  0  0  0  0  0  0  0  0
   -3.3620    0.1117    0.4049 H   0  0  0  0  0  0  0  0  0  0  0  0
    0.6488   -0.0042    1.5389 H   0  0  0  0  0  0  0  0  0  0  0  0
   -0.3765   -2.1698    0.0899 H   0  0  0  0  0  0  0  0  0  0  0  0
   -2.6205   -1.9247   -0.3497 H   0  0  0  0  0  0  0  0  0  0  0  0
   -1.5365   -0.5450    1.7705 H   0  0  0  0  0  0  0  0  0  0  0  0
  1  2  1  0
  2  4  1  0
  2  5  1  0
  3  6  1  0
  5  6  1  0
  3  7  1  0
  4  7  1  0
  7  8  1  0
  3  9  1  0
  1 10  1  0
 10 11  1  0
  1 12  1  0
  1 13  1  0
  4 14  1  0
  5 15  1  0
  6 16  1  0
  8 17  1  0
  9 18  1  0
 10 19  1  0
 10 20  1  0
 11 21  1  0
 11 22  1  0
  2 23  1  0
  3 24  1  0
  4 25  1  0
  5 26  1  0
  6 27  1  0
  7 28  1  0
M  END
>  <PDBID>  (1) 
4XP1

>  <PDB ID>  (1) 
4XP1

>  <Generic Name>  (1) 
Dopamine

>  <Brand Name>  (1) 
Dopamine#Dopamine HCl#Dopamine HCl Inj 4%#Dopamine Hydrochloride#Dopamine Hydrochloride and Dextrose#Intropin Injection 40mg/ml#Intropin#Revimine

>  <DrugBank ID>  (1) 
DB00988

>  <ATC Codes>  (1) 
C01CA04

>  <Ligand ID>  (1) 
LDP

>  <Target Name>  (1) 
Sodium-dependent dopamine transporter

>  <UniProt ID>  (1) 
Q01959

>  <PDB ID.1>  (1) 
4XP1

>  <Seq. Identity>  (1) 
52%

$$$$
