PDB_DB00843_00
     RDKit          3D

142148  0  0  0  0  0  0  0  0999 V2000
   -5.9632   -0.4318    0.1306 C   0  0  0  0  0  0  0  0  0  0  0  0
   -5.5469   -0.0971   -1.2631 C   0  0  0  0  0  0  0  0  0  0  0  0
   -4.0653   -0.1498   -1.5041 C   0  0  0  0  0  0  0  0  0  0  0  0
   -3.3982    0.7573   -0.5280 C   0  0  0  0  0  0  0  0  0  0  0  0
   -3.6345    0.2297    0.8569 C   0  0  0  0  0  0  0  0  0  0  0  0
   -5.0540    0.0057    1.2124 C   0  0  0  0  0  0  0  0  0  0  0  0
   -2.8043   -1.0300    0.8467 C   0  0  0  0  0  0  0  0  0  0  0  0
   -1.5084   -0.5831    0.1537 C   0  0  1  0  0  0  0  0  0  0  0  0
   -1.8791    0.6647   -0.5998 C   0  0  0  0  0  0  0  0  0  0  0  0
   -0.5152   -0.3620    1.2321 C   0  0  0  0  0  0  0  0  0  0  0  0
    0.8464    0.0594    0.8602 C   0  0  0  0  0  0  0  0  0  0  0  0
    1.5028   -0.9930   -0.0493 C   0  0  0  0  0  0  0  0  0  0  0  0
    3.0092   -0.7192   -0.0478 C   0  0  0  0  0  0  0  0  0  0  0  0
    3.3384    0.5067    0.5340 N   0  0  0  0  0  0  0  0  0  0  0  0
    2.5521    1.6364    0.1847 C   0  0  0  0  0  0  0  0  0  0  0  0
    1.0388    1.3697    0.1997 C   0  0  0  0  0  0  0  0  0  0  0  0
    4.3416    0.6651    1.4840 C   0  0  0  0  0  0  0  0  0  0  0  0
    5.7768    0.5118    1.0728 C   0  0  0  0  0  0  0  0  0  0  0  0
    6.1591    1.4908   -0.0230 C   0  0  0  0  0  0  0  0  0  0  0  0
    7.5185    1.1445   -0.5303 C   0  0  0  0  0  0  0  0  0  0  0  0
    7.7011   -0.2587   -0.9944 C   0  0  0  0  0  0  0  0  0  0  0  0
    6.5128   -1.1018   -0.6288 C   0  0  0  0  0  0  0  0  0  0  0  0
    6.2635   -0.8698    0.8620 C   0  0  0  0  0  0  0  0  0  0  0  0
   -2.5532   -1.4508    2.1507 O   0  0  0  0  0  0  0  0  0  0  0  0
   -6.2740   -1.7808    0.2717 O   0  0  0  0  0  0  0  0  0  0  0  0
   -7.6112   -2.0102    0.5435 C   0  0  0  0  0  0  0  0  0  0  0  0
   -5.9832    1.1698   -1.6532 O   0  0  0  0  0  0  0  0  0  0  0  0
   -6.8637    1.1255   -2.7170 C   0  0  0  0  0  0  0  0  0  0  0  0
   -5.9632   -0.4318    0.1306 C   0  0  0  0  0  0  0  0  0  0  0  0
   -5.5469   -0.0971   -1.2631 C   0  0  0  0  0  0  0  0  0  0  0  0
   -4.0653   -0.1498   -1.5041 C   0  0  0  0  0  0  0  0  0  0  0  0
   -3.3982    0.7573   -0.5280 C   0  0  0  0  0  0  0  0  0  0  0  0
   -3.6345    0.2297    0.8569 C   0  0  0  0  0  0  0  0  0  0  0  0
   -5.0540    0.0057    1.2124 C   0  0  0  0  0  0  0  0  0  0  0  0
   -2.8043   -1.0300    0.8467 C   0  0  0  0  0  0  0  0  0  0  0  0
   -1.5084   -0.5831    0.1537 C   0  0  1  0  0  0  0  0  0  0  0  0
   -1.8791    0.6647   -0.5998 C   0  0  0  0  0  0  0  0  0  0  0  0
   -0.5152   -0.3620    1.2321 C   0  0  0  0  0  0  0  0  0  0  0  0
    0.8464    0.0594    0.8602 C   0  0  0  0  0  0  0  0  0  0  0  0
    1.5028   -0.9930   -0.0493 C   0  0  0  0  0  0  0  0  0  0  0  0
    3.0092   -0.7192   -0.0478 C   0  0  0  0  0  0  0  0  0  0  0  0
    3.3384    0.5067    0.5340 N   0  0  0  0  0  0  0  0  0  0  0  0
    2.5521    1.6364    0.1847 C   0  0  0  0  0  0  0  0  0  0  0  0
    1.0388    1.3697    0.1997 C   0  0  0  0  0  0  0  0  0  0  0  0
    4.3416    0.6651    1.4840 C   0  0  0  0  0  0  0  0  0  0  0  0
    5.7768    0.5118    1.0728 C   0  0  0  0  0  0  0  0  0  0  0  0
    6.1591    1.4908   -0.0230 C   0  0  0  0  0  0  0  0  0  0  0  0
    7.5185    1.1445   -0.5303 C   0  0  0  0  0  0  0  0  0  0  0  0
    7.7011   -0.2587   -0.9944 C   0  0  0  0  0  0  0  0  0  0  0  0
    6.5128   -1.1018   -0.6288 C   0  0  0  0  0  0  0  0  0  0  0  0
    6.2635   -0.8698    0.8620 C   0  0  0  0  0  0  0  0  0  0  0  0
   -2.5532   -1.4508    2.1507 O   0  0  0  0  0  0  0  0  0  0  0  0
   -6.2740   -1.7808    0.2717 O   0  0  0  0  0  0  0  0  0  0  0  0
   -7.6112   -2.0102    0.5435 C   0  0  0  0  0  0  0  0  0  0  0  0
   -5.9832    1.1698   -1.6532 O   0  0  0  0  0  0  0  0  0  0  0  0
   -6.8637    1.1255   -2.7170 C   0  0  0  0  0  0  0  0  0  0  0  0
   -6.9509    0.0973    0.2887 H   0  0  0  0  0  0  0  0  0  0  0  0
   -6.0538   -0.8185   -1.9505 H   0  0  0  0  0  0  0  0  0  0  0  0
   -3.9033    0.2948   -2.5295 H   0  0  0  0  0  0  0  0  0  0  0  0
   -3.6488   -1.1637   -1.5577 H   0  0  0  0  0  0  0  0  0  0  0  0
   -3.7656    1.7817   -0.6812 H   0  0  0  0  0  0  0  0  0  0  0  0
   -3.1352    0.9378    1.5556 H   0  0  0  0  0  0  0  0  0  0  0  0
   -5.4246    0.9582    1.7008 H   0  0  0  0  0  0  0  0  0  0  0  0
   -5.0861   -0.7420    2.0396 H   0  0  0  0  0  0  0  0  0  0  0  0
   -3.2788   -1.8692    0.3198 H   0  0  0  0  0  0  0  0  0  0  0  0
   -1.2067   -1.3416   -0.5967 H   0  0  0  0  0  0  0  0  0  0  0  0
   -1.5021    0.7350   -1.6152 H   0  0  0  0  0  0  0  0  0  0  0  0
   -1.5275    1.5594   -0.0105 H   0  0  0  0  0  0  0  0  0  0  0  0
   -0.4011   -1.2865    1.8756 H   0  0  0  0  0  0  0  0  0  0  0  0
   -0.9946    0.3673    1.9545 H   0  0  0  0  0  0  0  0  0  0  0  0
    1.4366    0.1141    1.8298 H   0  0  0  0  0  0  0  0  0  0  0  0
    1.0751   -0.8300   -1.0557 H   0  0  0  0  0  0  0  0  0  0  0  0
    1.2757   -2.0134    0.2617 H   0  0  0  0  0  0  0  0  0  0  0  0
    3.2905   -0.6719   -1.1411 H   0  0  0  0  0  0  0  0  0  0  0  0
    3.5601   -1.5498    0.3879 H   0  0  0  0  0  0  0  0  0  0  0  0
    2.8175    1.9343   -0.8501 H   0  0  0  0  0  0  0  0  0  0  0  0
    2.8253    2.5094    0.8137 H   0  0  0  0  0  0  0  0  0  0  0  0
    0.6064    2.2294    0.7633 H   0  0  0  0  0  0  0  0  0  0  0  0
    0.6822    1.3383   -0.8463 H   0  0  0  0  0  0  0  0  0  0  0  0
    4.2374   -0.0479    2.3751 H   0  0  0  0  0  0  0  0  0  0  0  0
    4.2423    1.7081    1.9225 H   0  0  0  0  0  0  0  0  0  0  0  0
    6.4012    0.8992    1.9702 H   0  0  0  0  0  0  0  0  0  0  0  0
    6.1978    2.4966    0.4373 H   0  0  0  0  0  0  0  0  0  0  0  0
    5.3927    1.5376   -0.8145 H   0  0  0  0  0  0  0  0  0  0  0  0
    7.7135    1.8100   -1.4221 H   0  0  0  0  0  0  0  0  0  0  0  0
    8.2918    1.4110    0.2374 H   0  0  0  0  0  0  0  0  0  0  0  0
    7.8667   -0.3337   -2.1088 H   0  0  0  0  0  0  0  0  0  0  0  0
    8.5833   -0.7026   -0.4816 H   0  0  0  0  0  0  0  0  0  0  0  0
    5.6376   -0.9269   -1.2495 H   0  0  0  0  0  0  0  0  0  0  0  0
    6.8053   -2.1778   -0.7743 H   0  0  0  0  0  0  0  0  0  0  0  0
    5.6749   -1.6915    1.2422 H   0  0  0  0  0  0  0  0  0  0  0  0
    7.3019   -1.0263    1.3165 H   0  0  0  0  0  0  0  0  0  0  0  0
   -2.6442   -2.4354    2.2502 H   0  0  0  0  0  0  0  0  0  0  0  0
   -8.2945   -1.6470   -0.2261 H   0  0  0  0  0  0  0  0  0  0  0  0
   -7.8400   -1.3927    1.4634 H   0  0  0  0  0  0  0  0  0  0  0  0
   -7.8184   -3.0516    0.8431 H   0  0  0  0  0  0  0  0  0  0  0  0
   -7.1439    2.1819   -2.9409 H   0  0  0  0  0  0  0  0  0  0  0  0
   -6.3949    0.7231   -3.6366 H   0  0  0  0  0  0  0  0  0  0  0  0
   -7.8074    0.5966   -2.4701 H   0  0  0  0  0  0  0  0  0  0  0  0
   -6.9509    0.0973    0.2887 H   0  0  0  0  0  0  0  0  0  0  0  0
   -6.0538   -0.8185   -1.9505 H   0  0  0  0  0  0  0  0  0  0  0  0
   -3.9033    0.2948   -2.5295 H   0  0  0  0  0  0  0  0  0  0  0  0
   -3.6488   -1.1637   -1.5577 H   0  0  0  0  0  0  0  0  0  0  0  0
   -3.7656    1.7817   -0.6812 H   0  0  0  0  0  0  0  0  0  0  0  0
   -3.1352    0.9378    1.5556 H   0  0  0  0  0  0  0  0  0  0  0  0
   -5.4246    0.9582    1.7008 H   0  0  0  0  0  0  0  0  0  0  0  0
   -5.0861   -0.7420    2.0396 H   0  0  0  0  0  0  0  0  0  0  0  0
   -3.2788   -1.8692    0.3198 H   0  0  0  0  0  0  0  0  0  0  0  0
   -1.2067   -1.3416   -0.5967 H   0  0  0  0  0  0  0  0  0  0  0  0
   -1.5021    0.7350   -1.6152 H   0  0  0  0  0  0  0  0  0  0  0  0
   -1.5275    1.5594   -0.0105 H   0  0  0  0  0  0  0  0  0  0  0  0
   -0.4011   -1.2865    1.8756 H   0  0  0  0  0  0  0  0  0  0  0  0
   -0.9946    0.3673    1.9545 H   0  0  0  0  0  0  0  0  0  0  0  0
    1.4366    0.1141    1.8298 H   0  0  0  0  0  0  0  0  0  0  0  0
    1.0751   -0.8300   -1.0557 H   0  0  0  0  0  0  0  0  0  0  0  0
    1.2757   -2.0134    0.2617 H   0  0  0  0  0  0  0  0  0  0  0  0
    3.2905   -0.6719   -1.1411 H   0  0  0  0  0  0  0  0  0  0  0  0
    3.5601   -1.5498    0.3879 H   0  0  0  0  0  0  0  0  0  0  0  0
    2.8175    1.9343   -0.8501 H   0  0  0  0  0  0  0  0  0  0  0  0
    2.8253    2.5094    0.8137 H   0  0  0  0  0  0  0  0  0  0  0  0
    0.6064    2.2294    0.7633 H   0  0  0  0  0  0  0  0  0  0  0  0
    0.6822    1.3383   -0.8463 H   0  0  0  0  0  0  0  0  0  0  0  0
    4.2374   -0.0479    2.3751 H   0  0  0  0  0  0  0  0  0  0  0  0
    4.2423    1.7081    1.9225 H   0  0  0  0  0  0  0  0  0  0  0  0
    6.4012    0.8992    1.9702 H   0  0  0  0  0  0  0  0  0  0  0  0
    6.1978    2.4966    0.4373 H   0  0  0  0  0  0  0  0  0  0  0  0
    5.3927    1.5376   -0.8145 H   0  0  0  0  0  0  0  0  0  0  0  0
    7.7135    1.8100   -1.4221 H   0  0  0  0  0  0  0  0  0  0  0  0
    8.2918    1.4110    0.2374 H   0  0  0  0  0  0  0  0  0  0  0  0
    7.8667   -0.3337   -2.1088 H   0  0  0  0  0  0  0  0  0  0  0  0
    8.5833   -0.7026   -0.4816 H   0  0  0  0  0  0  0  0  0  0  0  0
    5.6376   -0.9269   -1.2495 H   0  0  0  0  0  0  0  0  0  0  0  0
    6.8053   -2.1778   -0.7743 H   0  0  0  0  0  0  0  0  0  0  0  0
    5.6749   -1.6915    1.2422 H   0  0  0  0  0  0  0  0  0  0  0  0
    7.3019   -1.0263    1.3165 H   0  0  0  0  0  0  0  0  0  0  0  0
   -2.6442   -2.4354    2.2502 H   0  0  0  0  0  0  0  0  0  0  0  0
   -8.2945   -1.6470   -0.2261 H   0  0  0  0  0  0  0  0  0  0  0  0
   -7.8400   -1.3927    1.4634 H   0  0  0  0  0  0  0  0  0  0  0  0
   -7.8184   -3.0516    0.8431 H   0  0  0  0  0  0  0  0  0  0  0  0
   -7.1439    2.1819   -2.9409 H   0  0  0  0  0  0  0  0  0  0  0  0
   -6.3949    0.7231   -3.6366 H   0  0  0  0  0  0  0  0  0  0  0  0
   -7.8074    0.5966   -2.4701 H   0  0  0  0  0  0  0  0  0  0  0  0
  1  2  1  0
  2  3  1  0
  3  4  1  0
  4  5  1  0
  1  6  1  0
  5  6  1  0
  5  7  1  0
  7  8  1  0
  4  9  1  0
  8  9  1  0
  8 10  1  0
 10 11  1  0
 11 12  1  0
 12 13  1  0
 13 14  1  0
 14 15  1  0
 11 16  1  0
 15 16  1  0
 14 17  1  0
 17 18  1  0
 18 19  1  0
 19 20  1  0
 20 21  1  0
 21 22  1  0
 18 23  1  0
 22 23  1  0
  7 24  1  0
  1 25  1  0
 25 26  1  0
  2 27  1  0
 27 28  1  0
 29 30  1  0
 30 31  1  0
 31 32  1  0
 32 33  1  0
 29 34  1  0
 33 34  1  0
 33 35  1  0
 35 36  1  0
 32 37  1  0
 36 37  1  0
 36 38  1  0
 38 39  1  0
 39 40  1  0
 40 41  1  0
 41 42  1  0
 42 43  1  0
 39 44  1  0
 43 44  1  0
 42 45  1  0
 45 46  1  0
 46 47  1  0
 47 48  1  0
 48 49  1  0
 49 50  1  0
 46 51  1  0
 50 51  1  0
 35 52  1  0
 29 53  1  0
 53 54  1  0
 30 55  1  0
 55 56  1  0
  1 57  1  0
  2 58  1  0
  3 59  1  0
  3 60  1  0
  4 61  1  0
  5 62  1  0
  6 63  1  0
  6 64  1  0
  7 65  1  0
  8 66  1  6
  9 67  1  0
  9 68  1  0
 10 69  1  0
 10 70  1  0
 11 71  1  0
 12 72  1  0
 12 73  1  0
 13 74  1  0
 13 75  1  0
 15 76  1  0
 15 77  1  0
 16 78  1  0
 16 79  1  0
 17 80  1  0
 17 81  1  0
 18 82  1  0
 19 83  1  0
 19 84  1  0
 20 85  1  0
 20 86  1  0
 21 87  1  0
 21 88  1  0
 22 89  1  0
 22 90  1  0
 23 91  1  0
 23 92  1  0
 24 93  1  0
 26 94  1  0
 26 95  1  0
 26 96  1  0
 28 97  1  0
 28 98  1  0
 28 99  1  0
 29100  1  0
 30101  1  0
 31102  1  0
 31103  1  0
 32104  1  0
 33105  1  0
 34106  1  0
 34107  1  0
 35108  1  0
 36109  1  6
 37110  1  0
 37111  1  0
 38112  1  0
 38113  1  0
 39114  1  0
 40115  1  0
 40116  1  0
 41117  1  0
 41118  1  0
 43119  1  0
 43120  1  0
 44121  1  0
 44122  1  0
 45123  1  0
 45124  1  0
 46125  1  0
 47126  1  0
 47127  1  0
 48128  1  0
 48129  1  0
 49130  1  0
 49131  1  0
 50132  1  0
 50133  1  0
 51134  1  0
 51135  1  0
 52136  1  0
 54137  1  0
 54138  1  0
 54139  1  0
 56140  1  0
 56141  1  0
 56142  1  0
M  END
>  <PDBID>  (1) 
4EY7

>  <PDB ID>  (1) 
4EY7

>  <Generic Name>  (1) 
Donepezil

>  <Brand Name>  (1) 
Accel-donepezil#Act Donepezil#Act Donepezil ODT#Ag-donepezil#Apo-donepezil#Aricept#Aricept ODT#Aricept Rdt#Auro-donepezil#Bio-donepezil#Dom-donepezil#Donepezil#Donepezil Hydrochloride#Donepezil Hydrochloride 10 mg#Donepezil Hydrochloride 10mg#Donepezil Hydrochloride 5 mg#Donepezil Hydrochloride ODT#Donepezil Hydrochloride Tablets#Donepezil Hydrochloride Tablets USP#Donepezil Hyrochloride 5mg#Ecl-donepezil#Ipg-donepezil#Jamp-donepezil#Jamp-donepezil Tablets#Mar-donepezil#Mint-donepezil#Mylan-donepezil#Namzaric#Nat-donepezil#PMS-donepezil#Priva-donepezil#Ran-donepezil#Riva-donepezil#Sandoz Donepezil#Sandoz Donepezil ODT#Septa Donepezil#Teva-donepezil#Van-donepezil#Alzepil#Davia#Depzil#Donecept#Donecil#Donep#Donepex#Donesyn#Dopezil#Eranz#Memac#Nomi-Nox#Pezale#Redumas#Zolpezil

>  <DrugBank ID>  (1) 
DB00843

>  <ATC Codes>  (1) 
N06DA02#N06DA52#N06DA53

>  <Ligand ID>  (1) 
E20

>  <Target Name>  (1) 
Acetylcholinesterase

>  <UniProt ID>  (1) 
P22303

>  <PDB ID.1>  (1) 
4EY7

>  <Seq. Identity>  (1) 
97%

$$$$
