PDB_DB04854_05
     RDKit          3D

108110  0  0  0  0  0  0  0  0999 V2000
   -3.2887    1.4493   -0.1190 S   0  0  0  0  0  0  0  0  0  0  0  0
   -2.4069    0.5907    1.2472 C   0  0  0  0  0  0  0  0  0  0  0  0
   -3.1169   -0.6693    1.1927 N   0  0  0  0  0  0  0  0  0  0  0  0
   -4.5275   -0.3377    1.2704 C   0  0  0  0  0  0  0  0  0  0  0  0
   -4.8737    0.5385    0.0914 C   0  0  0  0  0  0  0  0  0  0  0  0
   -0.9535    0.4858    1.0214 C   0  0  0  0  0  0  0  0  0  0  0  0
   -0.5402   -0.2628   -0.2208 C   0  0  0  0  0  0  0  0  0  0  0  0
    0.9464   -0.5318   -0.1077 C   0  0  0  0  0  0  0  0  0  0  0  0
    1.7641    0.7127    0.0561 C   0  0  0  0  0  0  0  0  0  0  0  0
    1.2521    1.5856    1.1870 C   0  0  0  0  0  0  0  0  0  0  0  0
   -0.2304    1.8116    1.0962 C   0  0  0  0  0  0  0  0  0  0  0  0
    1.4639   -1.3084   -1.2866 C   0  0  0  0  0  0  0  0  0  0  0  0
    1.2627   -0.6105   -2.5398 N   0  0  0  0  0  0  0  0  0  0  0  0
    3.0586    0.3325    0.3983 O   0  0  0  0  0  0  0  0  0  0  0  0
    4.0184    0.7771   -0.4754 C   0  0  0  0  0  0  0  0  0  0  0  0
    5.3635    0.2702    0.0489 C   0  0  0  0  0  0  0  0  0  0  0  0
    5.3294   -1.2298    0.0965 C   0  0  0  0  0  0  0  0  0  0  0  0
    6.4284    0.7892   -0.8881 C   0  0  0  0  0  0  0  0  0  0  0  0
   -5.3030   -1.6176    1.2374 C   0  0  0  0  0  0  0  0  0  0  0  0
   -5.2484   -0.2021   -1.1376 C   0  0  0  0  0  0  0  0  0  0  0  0
   -5.3832    0.7493   -2.1698 O   0  0  0  0  0  0  0  0  0  0  0  0
   -4.3908   -1.2090   -1.5103 O   0  0  0  0  0  0  0  0  0  0  0  0
   -3.2887    1.4493   -0.1190 S   0  0  0  0  0  0  0  0  0  0  0  0
   -2.4069    0.5907    1.2472 C   0  0  0  0  0  0  0  0  0  0  0  0
   -3.1169   -0.6693    1.1927 N   0  0  0  0  0  0  0  0  0  0  0  0
   -4.5275   -0.3377    1.2704 C   0  0  0  0  0  0  0  0  0  0  0  0
   -4.8737    0.5385    0.0914 C   0  0  0  0  0  0  0  0  0  0  0  0
   -0.9535    0.4858    1.0214 C   0  0  0  0  0  0  0  0  0  0  0  0
   -0.5402   -0.2628   -0.2208 C   0  0  0  0  0  0  0  0  0  0  0  0
    0.9464   -0.5318   -0.1077 C   0  0  0  0  0  0  0  0  0  0  0  0
    1.7641    0.7127    0.0561 C   0  0  0  0  0  0  0  0  0  0  0  0
    1.2521    1.5856    1.1870 C   0  0  0  0  0  0  0  0  0  0  0  0
   -0.2304    1.8116    1.0962 C   0  0  0  0  0  0  0  0  0  0  0  0
    1.4639   -1.3084   -1.2866 C   0  0  0  0  0  0  0  0  0  0  0  0
    1.2627   -0.6105   -2.5398 N   0  0  0  0  0  0  0  0  0  0  0  0
    3.0586    0.3325    0.3983 O   0  0  0  0  0  0  0  0  0  0  0  0
    4.0184    0.7771   -0.4754 C   0  0  0  0  0  0  0  0  0  0  0  0
    5.3635    0.2702    0.0489 C   0  0  0  0  0  0  0  0  0  0  0  0
    5.3294   -1.2298    0.0965 C   0  0  0  0  0  0  0  0  0  0  0  0
    6.4284    0.7892   -0.8881 C   0  0  0  0  0  0  0  0  0  0  0  0
   -5.3030   -1.6176    1.2374 C   0  0  0  0  0  0  0  0  0  0  0  0
   -5.2484   -0.2021   -1.1376 C   0  0  0  0  0  0  0  0  0  0  0  0
   -5.3832    0.7493   -2.1698 O   0  0  0  0  0  0  0  0  0  0  0  0
   -4.3908   -1.2090   -1.5103 O   0  0  0  0  0  0  0  0  0  0  0  0
   -2.6907    1.0753    2.1986 H   0  0  0  0  0  0  0  0  0  0  0  0
   -2.9560   -1.2202    0.3306 H   0  0  0  0  0  0  0  0  0  0  0  0
   -4.7216    0.1695    2.2323 H   0  0  0  0  0  0  0  0  0  0  0  0
   -5.6602    1.2473    0.3462 H   0  0  0  0  0  0  0  0  0  0  0  0
   -0.5393   -0.1207    1.8810 H   0  0  0  0  0  0  0  0  0  0  0  0
   -0.8185    0.2319   -1.1547 H   0  0  0  0  0  0  0  0  0  0  0  0
   -1.0167   -1.2843   -0.1480 H   0  0  0  0  0  0  0  0  0  0  0  0
    1.0886   -1.1475    0.8001 H   0  0  0  0  0  0  0  0  0  0  0  0
    1.8398    1.3041   -0.8934 H   0  0  0  0  0  0  0  0  0  0  0  0
    1.7397    2.5831    1.0551 H   0  0  0  0  0  0  0  0  0  0  0  0
    1.5454    1.1946    2.1630 H   0  0  0  0  0  0  0  0  0  0  0  0
   -0.4864    2.4805    0.2456 H   0  0  0  0  0  0  0  0  0  0  0  0
   -0.5541    2.3017    2.0379 H   0  0  0  0  0  0  0  0  0  0  0  0
    2.5403   -1.5438   -1.1872 H   0  0  0  0  0  0  0  0  0  0  0  0
    0.9569   -2.3163   -1.3231 H   0  0  0  0  0  0  0  0  0  0  0  0
    1.8822   -1.0692   -3.2614 H   0  0  0  0  0  0  0  0  0  0  0  0
    0.2842   -0.7667   -2.8699 H   0  0  0  0  0  0  0  0  0  0  0  0
    4.0201    1.8963   -0.5127 H   0  0  0  0  0  0  0  0  0  0  0  0
    3.8652    0.4202   -1.5088 H   0  0  0  0  0  0  0  0  0  0  0  0
    5.5595    0.6796    1.0523 H   0  0  0  0  0  0  0  0  0  0  0  0
    6.2222   -1.5994    0.6717 H   0  0  0  0  0  0  0  0  0  0  0  0
    5.3053   -1.6443   -0.9269 H   0  0  0  0  0  0  0  0  0  0  0  0
    4.4508   -1.5421    0.6819 H   0  0  0  0  0  0  0  0  0  0  0  0
    6.2771    1.8822   -0.9846 H   0  0  0  0  0  0  0  0  0  0  0  0
    7.4067    0.6174   -0.4221 H   0  0  0  0  0  0  0  0  0  0  0  0
    6.3125    0.3113   -1.8748 H   0  0  0  0  0  0  0  0  0  0  0  0
   -4.7970   -2.3036    0.5202 H   0  0  0  0  0  0  0  0  0  0  0  0
   -6.3373   -1.5079    0.8876 H   0  0  0  0  0  0  0  0  0  0  0  0
   -5.2426   -2.1237    2.2370 H   0  0  0  0  0  0  0  0  0  0  0  0
   -6.2455   -0.6421   -0.9864 H   0  0  0  0  0  0  0  0  0  0  0  0
   -5.3590    1.6684   -1.8346 H   0  0  0  0  0  0  0  0  0  0  0  0
   -4.4962   -1.3453   -2.4875 H   0  0  0  0  0  0  0  0  0  0  0  0
   -2.6907    1.0753    2.1986 H   0  0  0  0  0  0  0  0  0  0  0  0
   -2.9560   -1.2202    0.3306 H   0  0  0  0  0  0  0  0  0  0  0  0
   -4.7216    0.1695    2.2323 H   0  0  0  0  0  0  0  0  0  0  0  0
   -5.6602    1.2473    0.3462 H   0  0  0  0  0  0  0  0  0  0  0  0
   -0.5393   -0.1207    1.8810 H   0  0  0  0  0  0  0  0  0  0  0  0
   -0.8185    0.2319   -1.1547 H   0  0  0  0  0  0  0  0  0  0  0  0
   -1.0167   -1.2843   -0.1480 H   0  0  0  0  0  0  0  0  0  0  0  0
    1.0886   -1.1475    0.8001 H   0  0  0  0  0  0  0  0  0  0  0  0
    1.8398    1.3041   -0.8934 H   0  0  0  0  0  0  0  0  0  0  0  0
    1.7397    2.5831    1.0551 H   0  0  0  0  0  0  0  0  0  0  0  0
    1.5454    1.1946    2.1630 H   0  0  0  0  0  0  0  0  0  0  0  0
   -0.4864    2.4805    0.2456 H   0  0  0  0  0  0  0  0  0  0  0  0
   -0.5541    2.3017    2.0379 H   0  0  0  0  0  0  0  0  0  0  0  0
    2.5403   -1.5438   -1.1872 H   0  0  0  0  0  0  0  0  0  0  0  0
    0.9569   -2.3163   -1.3231 H   0  0  0  0  0  0  0  0  0  0  0  0
    1.8822   -1.0692   -3.2614 H   0  0  0  0  0  0  0  0  0  0  0  0
    0.2842   -0.7667   -2.8699 H   0  0  0  0  0  0  0  0  0  0  0  0
    4.0201    1.8963   -0.5127 H   0  0  0  0  0  0  0  0  0  0  0  0
    3.8652    0.4202   -1.5088 H   0  0  0  0  0  0  0  0  0  0  0  0
    5.5595    0.6796    1.0523 H   0  0  0  0  0  0  0  0  0  0  0  0
    6.2222   -1.5994    0.6717 H   0  0  0  0  0  0  0  0  0  0  0  0
    5.3053   -1.6443   -0.9269 H   0  0  0  0  0  0  0  0  0  0  0  0
    4.4508   -1.5421    0.6819 H   0  0  0  0  0  0  0  0  0  0  0  0
    6.2771    1.8822   -0.9846 H   0  0  0  0  0  0  0  0  0  0  0  0
    7.4067    0.6174   -0.4221 H   0  0  0  0  0  0  0  0  0  0  0  0
    6.3125    0.3113   -1.8748 H   0  0  0  0  0  0  0  0  0  0  0  0
   -4.7970   -2.3036    0.5202 H   0  0  0  0  0  0  0  0  0  0  0  0
   -6.3373   -1.5079    0.8876 H   0  0  0  0  0  0  0  0  0  0  0  0
   -5.2426   -2.1237    2.2370 H   0  0  0  0  0  0  0  0  0  0  0  0
   -6.2455   -0.6421   -0.9864 H   0  0  0  0  0  0  0  0  0  0  0  0
   -5.3590    1.6684   -1.8346 H   0  0  0  0  0  0  0  0  0  0  0  0
   -4.4962   -1.3453   -2.4875 H   0  0  0  0  0  0  0  0  0  0  0  0
  1  2  1  0
  2  3  1  0
  3  4  1  0
  1  5  1  0
  4  5  1  0
  2  6  1  0
  6  7  1  0
  7  8  1  0
  8  9  1  0
  9 10  1  0
  6 11  1  0
 10 11  1  0
  8 12  1  0
 12 13  1  0
  9 14  1  0
 14 15  1  0
 15 16  1  0
 16 17  1  0
 16 18  1  0
  4 19  1  0
  5 20  1  0
 20 21  1  0
 20 22  1  0
 23 24  1  0
 24 25  1  0
 25 26  1  0
 23 27  1  0
 26 27  1  0
 24 28  1  0
 28 29  1  0
 29 30  1  0
 30 31  1  0
 31 32  1  0
 28 33  1  0
 32 33  1  0
 30 34  1  0
 34 35  1  0
 31 36  1  0
 36 37  1  0
 37 38  1  0
 38 39  1  0
 38 40  1  0
 26 41  1  0
 27 42  1  0
 42 43  1  0
 42 44  1  0
  2 45  1  0
  3 46  1  0
  4 47  1  0
  5 48  1  0
  6 49  1  0
  7 50  1  0
  7 51  1  0
  8 52  1  0
  9 53  1  0
 10 54  1  0
 10 55  1  0
 11 56  1  0
 11 57  1  0
 12 58  1  0
 12 59  1  0
 13 60  1  0
 13 61  1  0
 15 62  1  0
 15 63  1  0
 16 64  1  0
 17 65  1  0
 17 66  1  0
 17 67  1  0
 18 68  1  0
 18 69  1  0
 18 70  1  0
 19 71  1  0
 19 72  1  0
 19 73  1  0
 20 74  1  0
 21 75  1  0
 22 76  1  0
 24 77  1  0
 25 78  1  0
 26 79  1  0
 27 80  1  0
 28 81  1  0
 29 82  1  0
 29 83  1  0
 30 84  1  0
 31 85  1  0
 32 86  1  0
 32 87  1  0
 33 88  1  0
 33 89  1  0
 34 90  1  0
 34 91  1  0
 35 92  1  0
 35 93  1  0
 37 94  1  0
 37 95  1  0
 38 96  1  0
 39 97  1  0
 39 98  1  0
 39 99  1  0
 40100  1  0
 40101  1  0
 40102  1  0
 41103  1  0
 41104  1  0
 41105  1  0
 42106  1  0
 43107  1  0
 44108  1  0
M  END
>  <PDBID>  (1) 
1N5X

>  <PDB ID>  (1) 
1N5X

>  <Generic Name>  (1) 
Febuxostat

>  <Brand Name>  (1) 
Febuxostat#Uloric#Adenuric#Atenurix#Barif#Feburic

>  <DrugBank ID>  (1) 
DB04854

>  <ATC Codes>  (1) 
M04AA03

>  <Ligand ID>  (1) 
TEI

>  <Target Name>  (1) 
Xanthine dehydrogenase/oxidase

>  <UniProt ID>  (1) 
P47989

>  <PDB ID.1>  (1) 
1N5X

>  <Seq. Identity>  (1) 
85%

$$$$
