PDB_DB06335_08
     RDKit          3D

106114  0  0  0  0  0  0  0  0999 V2000
    1.2977    0.0777   -0.0933 C   0  0  1  0  0  0  0  0  0  0  0  0
   -0.1547    0.0774   -0.3328 C   0  0  1  0  0  0  0  0  0  0  0  0
    1.7547   -1.1797    0.5693 C   0  0  0  0  0  0  0  0  0  0  0  0
    3.2654   -1.2094    0.8013 C   0  0  1  0  0  0  0  0  0  0  0  0
    3.5344    0.0377   -1.2466 C   0  0  2  0  0  0  0  0  0  0  0  0
    3.2619    1.2159    0.8593 C   0  0  1  0  0  0  0  0  0  0  0  0
    3.9307   -1.2275   -0.5324 C   0  0  0  0  0  0  0  0  0  0  0  0
    3.6126   -0.0357    1.6481 C   0  0  0  0  0  0  0  0  0  0  0  0
    4.0423    1.2105   -0.4300 C   0  0  0  0  0  0  0  0  0  0  0  0
   -3.8464   -1.2001   -1.1520 C   0  0  1  0  0  0  0  0  0  0  0  0
   -4.0617   -2.0985    0.0471 C   0  0  0  0  0  0  0  0  0  0  0  0
   -4.1633    0.2608   -1.0404 C   0  0  0  0  0  0  0  0  0  0  0  0
   -4.0536    1.3698    1.1992 C   0  0  0  0  0  0  0  0  0  0  0  0
   -4.9778    2.3925    0.7830 N   0  0  0  0  0  0  0  0  0  0  0  0
    2.0692    0.1934   -1.4294 C   0  0  0  0  0  0  0  0  0  0  0  0
    1.7803    1.2966    0.6816 C   0  0  0  0  0  0  0  0  0  0  0  0
   -1.0771    0.0038    0.8370 C   0  0  0  0  0  0  0  0  0  0  0  0
   -0.6120    1.1854   -1.1532 N   0  0  0  0  0  0  0  0  0  0  0  0
   -2.4462   -0.2078    0.4687 N   0  0  0  0  0  0  0  0  0  0  0  0
   -0.7825   -1.0109    1.7298 O   0  0  0  0  0  0  0  0  0  0  0  0
    3.5280   -2.3843    1.4986 O   0  0  0  0  0  0  0  0  0  0  0  0
   -2.7396   -1.4154   -0.2054 C   0  0  2  0  0  0  0  0  0  0  0  0
   -3.2264    0.8469    0.0131 C   0  0  1  0  0  0  0  0  0  0  0  0
    1.2977    0.0777   -0.0933 C   0  0  1  0  0  0  0  0  0  0  0  0
   -0.1547    0.0774   -0.3328 C   0  0  1  0  0  0  0  0  0  0  0  0
    1.7547   -1.1797    0.5693 C   0  0  0  0  0  0  0  0  0  0  0  0
    3.2654   -1.2094    0.8013 C   0  0  1  0  0  0  0  0  0  0  0  0
    3.5344    0.0377   -1.2466 C   0  0  2  0  0  0  0  0  0  0  0  0
    3.2619    1.2159    0.8593 C   0  0  1  0  0  0  0  0  0  0  0  0
    3.9307   -1.2275   -0.5324 C   0  0  0  0  0  0  0  0  0  0  0  0
    3.6126   -0.0357    1.6481 C   0  0  0  0  0  0  0  0  0  0  0  0
    4.0423    1.2105   -0.4300 C   0  0  0  0  0  0  0  0  0  0  0  0
   -3.8464   -1.2001   -1.1520 C   0  0  1  0  0  0  0  0  0  0  0  0
   -4.0617   -2.0985    0.0471 C   0  0  0  0  0  0  0  0  0  0  0  0
   -4.1633    0.2608   -1.0404 C   0  0  0  0  0  0  0  0  0  0  0  0
   -4.0536    1.3698    1.1992 C   0  0  0  0  0  0  0  0  0  0  0  0
   -4.9778    2.3925    0.7830 N   0  0  0  0  0  0  0  0  0  0  0  0
    2.0692    0.1934   -1.4294 C   0  0  0  0  0  0  0  0  0  0  0  0
    1.7803    1.2966    0.6816 C   0  0  0  0  0  0  0  0  0  0  0  0
   -1.0771    0.0038    0.8370 C   0  0  0  0  0  0  0  0  0  0  0  0
   -0.6120    1.1854   -1.1532 N   0  0  0  0  0  0  0  0  0  0  0  0
   -2.4462   -0.2078    0.4687 N   0  0  0  0  0  0  0  0  0  0  0  0
   -0.7825   -1.0109    1.7298 O   0  0  0  0  0  0  0  0  0  0  0  0
    3.5280   -2.3843    1.4986 O   0  0  0  0  0  0  0  0  0  0  0  0
   -2.7396   -1.4154   -0.2054 C   0  0  2  0  0  0  0  0  0  0  0  0
   -3.2264    0.8469    0.0131 C   0  0  1  0  0  0  0  0  0  0  0  0
   -0.4355   -0.8320   -0.9644 H   0  0  0  0  0  0  0  0  0  0  0  0
    1.5927   -2.0009   -0.1942 H   0  0  0  0  0  0  0  0  0  0  0  0
    1.2299   -1.5071    1.4557 H   0  0  0  0  0  0  0  0  0  0  0  0
    4.0144    0.0833   -2.2312 H   0  0  0  0  0  0  0  0  0  0  0  0
    3.5724    2.0831    1.5095 H   0  0  0  0  0  0  0  0  0  0  0  0
    3.6797   -2.1414   -1.0765 H   0  0  0  0  0  0  0  0  0  0  0  0
    5.0187   -1.1990   -0.3884 H   0  0  0  0  0  0  0  0  0  0  0  0
    4.6446   -0.0616    1.9871 H   0  0  0  0  0  0  0  0  0  0  0  0
    2.9045   -0.0277    2.5220 H   0  0  0  0  0  0  0  0  0  0  0  0
    5.1097    1.0651   -0.1535 H   0  0  0  0  0  0  0  0  0  0  0  0
    3.8986    2.1700   -0.9564 H   0  0  0  0  0  0  0  0  0  0  0  0
   -3.7619   -1.6759   -2.1503 H   0  0  0  0  0  0  0  0  0  0  0  0
   -4.7538   -1.6714    0.8004 H   0  0  0  0  0  0  0  0  0  0  0  0
   -4.1609   -3.1732   -0.0938 H   0  0  0  0  0  0  0  0  0  0  0  0
   -3.9737    0.7091   -2.0524 H   0  0  0  0  0  0  0  0  0  0  0  0
   -5.2213    0.3636   -0.7594 H   0  0  0  0  0  0  0  0  0  0  0  0
   -4.5219    0.5512    1.7586 H   0  0  0  0  0  0  0  0  0  0  0  0
   -5.1671    2.3981   -0.2395 H   0  0  0  0  0  0  0  0  0  0  0  0
   -4.5729    3.3330    1.0641 H   0  0  0  0  0  0  0  0  0  0  0  0
    1.6869   -0.5441   -2.1534 H   0  0  0  0  0  0  0  0  0  0  0  0
    1.9194    1.2612   -1.7716 H   0  0  0  0  0  0  0  0  0  0  0  0
    1.4901    2.1883    0.1098 H   0  0  0  0  0  0  0  0  0  0  0  0
    1.3222    1.3751    1.6786 H   0  0  0  0  0  0  0  0  0  0  0  0
   -1.0466    0.9924    1.3553 H   0  0  0  0  0  0  0  0  0  0  0  0
   -1.0956    0.9079   -2.0231 H   0  0  0  0  0  0  0  0  0  0  0  0
    0.0541    1.9228   -1.3342 H   0  0  0  0  0  0  0  0  0  0  0  0
   -1.3887   -1.7681    1.7257 H   0  0  0  0  0  0  0  0  0  0  0  0
    2.7393   -2.6100    2.0496 H   0  0  0  0  0  0  0  0  0  0  0  0
   -1.9387   -2.1200   -0.5022 H   0  0  0  0  0  0  0  0  0  0  0  0
   -2.7745    1.7288   -0.4227 H   0  0  0  0  0  0  0  0  0  0  0  0
   -0.4355   -0.8320   -0.9644 H   0  0  0  0  0  0  0  0  0  0  0  0
    1.5927   -2.0009   -0.1942 H   0  0  0  0  0  0  0  0  0  0  0  0
    1.2299   -1.5071    1.4557 H   0  0  0  0  0  0  0  0  0  0  0  0
    4.0144    0.0833   -2.2312 H   0  0  0  0  0  0  0  0  0  0  0  0
    3.5724    2.0831    1.5095 H   0  0  0  0  0  0  0  0  0  0  0  0
    3.6797   -2.1414   -1.0765 H   0  0  0  0  0  0  0  0  0  0  0  0
    5.0187   -1.1990   -0.3884 H   0  0  0  0  0  0  0  0  0  0  0  0
    4.6446   -0.0616    1.9871 H   0  0  0  0  0  0  0  0  0  0  0  0
    2.9045   -0.0277    2.5220 H   0  0  0  0  0  0  0  0  0  0  0  0
    5.1097    1.0651   -0.1535 H   0  0  0  0  0  0  0  0  0  0  0  0
    3.8986    2.1700   -0.9564 H   0  0  0  0  0  0  0  0  0  0  0  0
   -3.7619   -1.6759   -2.1503 H   0  0  0  0  0  0  0  0  0  0  0  0
   -4.7538   -1.6714    0.8004 H   0  0  0  0  0  0  0  0  0  0  0  0
   -4.1609   -3.1732   -0.0938 H   0  0  0  0  0  0  0  0  0  0  0  0
   -3.9737    0.7091   -2.0524 H   0  0  0  0  0  0  0  0  0  0  0  0
   -5.2213    0.3636   -0.7594 H   0  0  0  0  0  0  0  0  0  0  0  0
   -4.5219    0.5512    1.7586 H   0  0  0  0  0  0  0  0  0  0  0  0
   -5.1671    2.3981   -0.2395 H   0  0  0  0  0  0  0  0  0  0  0  0
   -4.5729    3.3330    1.0641 H   0  0  0  0  0  0  0  0  0  0  0  0
    1.6869   -0.5441   -2.1534 H   0  0  0  0  0  0  0  0  0  0  0  0
    1.9194    1.2612   -1.7716 H   0  0  0  0  0  0  0  0  0  0  0  0
    1.4901    2.1883    0.1098 H   0  0  0  0  0  0  0  0  0  0  0  0
    1.3222    1.3751    1.6786 H   0  0  0  0  0  0  0  0  0  0  0  0
   -1.0466    0.9924    1.3553 H   0  0  0  0  0  0  0  0  0  0  0  0
   -1.0956    0.9079   -2.0231 H   0  0  0  0  0  0  0  0  0  0  0  0
    0.0541    1.9228   -1.3342 H   0  0  0  0  0  0  0  0  0  0  0  0
   -1.3887   -1.7681    1.7257 H   0  0  0  0  0  0  0  0  0  0  0  0
    2.7393   -2.6100    2.0496 H   0  0  0  0  0  0  0  0  0  0  0  0
   -1.9387   -2.1200   -0.5022 H   0  0  0  0  0  0  0  0  0  0  0  0
   -2.7745    1.7288   -0.4227 H   0  0  0  0  0  0  0  0  0  0  0  0
  1  2  1  0
  1  3  1  0
  3  4  1  0
  4  7  1  0
  5  7  1  0
  4  8  1  0
  6  8  1  0
  5  9  1  0
  6  9  1  0
 10 11  1  0
 10 12  1  0
 13 14  1  0
  1 15  1  6
  5 15  1  0
  1 16  1  0
  6 16  1  0
  2 17  1  0
  2 18  1  0
 17 19  1  0
 17 20  1  0
  4 21  1  1
 10 22  1  0
 11 22  1  0
 19 22  1  0
 12 23  1  0
 13 23  1  0
 19 23  1  0
 24 25  1  0
 24 26  1  1
 26 27  1  0
 27 30  1  0
 28 30  1  0
 27 31  1  0
 29 31  1  0
 28 32  1  0
 29 32  1  0
 33 34  1  0
 33 35  1  0
 36 37  1  0
 24 38  1  0
 28 38  1  0
 24 39  1  0
 29 39  1  0
 25 40  1  0
 25 41  1  0
 40 42  1  0
 40 43  1  0
 27 44  1  1
 33 45  1  0
 34 45  1  0
 42 45  1  0
 35 46  1  0
 36 46  1  0
 42 46  1  0
  2 47  1  6
  3 48  1  0
  3 49  1  0
  5 50  1  6
  6 51  1  1
  7 52  1  0
  7 53  1  0
  8 54  1  0
  8 55  1  0
  9 56  1  0
  9 57  1  0
 10 58  1  6
 11 59  1  0
 11 60  1  0
 12 61  1  0
 12 62  1  0
 13 63  1  0
 14 64  1  0
 14 65  1  0
 15 66  1  0
 15 67  1  0
 16 68  1  0
 16 69  1  0
 17 70  1  0
 18 71  1  0
 18 72  1  0
 20 73  1  0
 21 74  1  0
 22 75  1  6
 23 76  1  6
 25 77  1  6
 26 78  1  0
 26 79  1  0
 28 80  1  6
 29 81  1  1
 30 82  1  0
 30 83  1  0
 31 84  1  0
 31 85  1  0
 32 86  1  0
 32 87  1  0
 33 88  1  6
 34 89  1  0
 34 90  1  0
 35 91  1  0
 35 92  1  0
 36 93  1  0
 37 94  1  0
 37 95  1  0
 38 96  1  0
 38 97  1  0
 39 98  1  0
 39 99  1  0
 40100  1  0
 41101  1  0
 41102  1  0
 43103  1  0
 44104  1  0
 45105  1  6
 46106  1  6
M  END
>  <PDBID>  (1) 
3BJM

>  <PDB ID>  (1) 
3BJM

>  <Generic Name>  (1) 
Saxagliptin

>  <Brand Name>  (1) 
Kombiglyze XR#Komboglyze#Onglyza#Qtern

>  <DrugBank ID>  (1) 
DB06335

>  <ATC Codes>  (1) 
A10BD10#A10BH03#A10BD21

>  <Ligand ID>  (1) 
BJM

>  <Target Name>  (1) 
Dipeptidyl peptidase 4

>  <UniProt ID>  (1) 
P27487

>  <PDB ID.1>  (1) 
3BJM

>  <Seq. Identity>  (1) 
100%

$$$$
