PDB_DB01167_00
     RDKit          3D

113119  0  0  0  0  0  0  0  0999 V2000
    7.2039    1.5240   -0.5163 C   0  0  0  0  0  0  0  0  0  0  0  0
    7.8445    0.4397    0.3030 C   0  0  0  0  0  0  0  0  0  0  0  0
   14.4768    1.2143   -0.0391 C   0  0  0  0  0  0  0  0  0  0  0  0
   13.0889    0.9386    0.5191 C   0  0  0  0  0  0  0  0  0  0  0  0
   12.2026    0.2894   -0.5166 C   0  0  1  0  0  0  0  0  0  0  0  0
   12.8907   -1.0079   -0.9028 C   0  0  0  0  0  0  0  0  0  0  0  0
   10.9064    0.1009   -0.0096 N   0  0  0  0  0  0  0  0  0  0  0  0
   10.1364    1.2575    0.3459 C   0  0  0  0  0  0  0  0  0  0  0  0
    9.9405    2.1715   -0.6412 O   0  0  0  0  0  0  0  0  0  0  0  0
    8.9840    0.7757    1.0435 N   0  0  0  0  0  0  0  0  0  0  0  0
    9.4811   -0.4695    1.6544 C   0  0  0  0  0  0  0  0  0  0  0  0
   10.7393   -0.8049    1.0170 N   0  0  0  0  0  0  0  0  0  0  0  0
    5.8361    1.2343   -0.9826 C   0  0  0  0  0  0  0  0  0  0  0  0
    4.9338    0.4553   -0.1202 C   0  0  0  0  0  0  0  0  0  0  0  0
    5.6826   -0.6385    0.6069 C   0  0  0  0  0  0  0  0  0  0  0  0
    6.7963   -0.0002    1.3539 C   0  0  0  0  0  0  0  0  0  0  0  0
    3.8556   -0.1756   -0.8169 N   0  0  0  0  0  0  0  0  0  0  0  0
    2.9397    0.6639   -1.4681 C   0  0  0  0  0  0  0  0  0  0  0  0
    1.4948    0.3786   -1.0349 C   0  0  0  0  0  0  0  0  0  0  0  0
    1.1817   -0.9894   -1.2963 N   0  0  0  0  0  0  0  0  0  0  0  0
    2.2458   -1.8988   -1.1325 C   0  0  0  0  0  0  0  0  0  0  0  0
    3.2948   -1.3290   -0.2005 C   0  0  0  0  0  0  0  0  0  0  0  0
   -0.1254   -1.3843   -0.9471 C   0  0  0  0  0  0  0  0  0  0  0  0
   -0.4751   -1.2881    0.4942 C   0  0  0  0  0  0  0  0  0  0  0  0
   -1.7514   -0.5455    0.7203 C   0  0  0  0  0  0  0  0  0  0  0  0
   -2.9011   -1.0467   -0.1223 C   0  0  0  0  0  0  0  0  0  0  0  0
   -2.5394   -1.1920   -1.5637 C   0  0  0  0  0  0  0  0  0  0  0  0
   -1.1434   -0.6637   -1.8133 C   0  0  0  0  0  0  0  0  0  0  0  0
   -3.9830   -0.1861    0.0284 O   0  0  0  0  0  0  0  0  0  0  0  0
   -5.0762   -0.7993    0.6092 C   0  0  0  0  0  0  0  0  0  0  0  0
   -6.2024    0.2241    0.7189 C   0  0  1  0  0  0  0  0  0  0  0  0
   -6.6389    0.6955   -0.6518 C   0  0  0  0  0  0  0  0  0  0  0  0
   -7.8532    0.0626   -0.8590 O   0  0  0  0  0  0  0  0  0  0  0  0
   -8.4016   -0.1182    0.3791 C   0  0  2  0  0  0  0  0  0  0  0  0
   -7.3313   -0.3063    1.2865 O   0  0  0  0  0  0  0  0  0  0  0  0
   -9.2682   -1.3391    0.5133 C   0  0  0  0  0  0  0  0  0  0  0  0
  -10.3686   -1.2538   -0.4356 N   0  0  0  0  0  0  0  0  0  0  0  0
  -11.2342   -2.4362   -0.2682 C   0  0  0  0  0  0  0  0  0  0  0  0
  -12.0628   -2.3266   -1.4488 N   0  0  0  0  0  0  0  0  0  0  0  0
  -11.0668   -1.9866   -2.4676 C   0  0  0  0  0  0  0  0  0  0  0  0
   -9.8944   -1.5313   -1.7502 N   0  0  0  0  0  0  0  0  0  0  0  0
   -9.0849    1.1551    0.8300 C   0  0  0  0  0  0  0  0  0  0  0  0
  -10.1671    1.6244   -0.0895 C   0  0  0  0  0  0  0  0  0  0  0  0
  -10.5828    3.0306    0.3654 C   0  0  0  0  0  0  0  0  0  0  0  0
  -11.0880    2.9910    1.7743 C   0  0  0  0  0  0  0  0  0  0  0  0
  -10.0956    2.3426    2.7182 C   0  0  0  0  0  0  0  0  0  0  0  0
   -9.6816    0.9820    2.2160 C   0  0  0  0  0  0  0  0  0  0  0  0
  -11.4342    4.6233    2.3438 Cl  0  0  0  0  0  0  0  0  0  0  0  0
   -9.5827    1.8253   -1.7602 Cl  0  0  0  0  0  0  0  0  0  0  0  0
    7.8387    1.6288   -1.4462 H   0  0  0  0  0  0  0  0  0  0  0  0
    7.2069    2.4483    0.0967 H   0  0  0  0  0  0  0  0  0  0  0  0
    8.0145   -0.4385   -0.3387 H   0  0  0  0  0  0  0  0  0  0  0  0
   14.4714    2.2240   -0.4801 H   0  0  0  0  0  0  0  0  0  0  0  0
   14.7276    0.4118   -0.7583 H   0  0  0  0  0  0  0  0  0  0  0  0
   15.1922    1.1796    0.8343 H   0  0  0  0  0  0  0  0  0  0  0  0
   12.6832    1.9213    0.8881 H   0  0  0  0  0  0  0  0  0  0  0  0
   13.1886    0.3016    1.4304 H   0  0  0  0  0  0  0  0  0  0  0  0
   12.1903    0.9665   -1.3961 H   0  0  0  0  0  0  0  0  0  0  0  0
   13.5708   -1.3800   -0.1121 H   0  0  0  0  0  0  0  0  0  0  0  0
   13.4907   -0.8210   -1.8033 H   0  0  0  0  0  0  0  0  0  0  0  0
   12.1723   -1.8239   -1.1232 H   0  0  0  0  0  0  0  0  0  0  0  0
   10.7336    1.7866    1.1522 H   0  0  0  0  0  0  0  0  0  0  0  0
    9.9563    3.1284   -0.3521 H   0  0  0  0  0  0  0  0  0  0  0  0
    9.5373   -0.4024    2.7423 H   0  0  0  0  0  0  0  0  0  0  0  0
    8.8112   -1.3439    1.3968 H   0  0  0  0  0  0  0  0  0  0  0  0
   10.8151   -1.7728    0.6851 H   0  0  0  0  0  0  0  0  0  0  0  0
    5.8548    0.7241   -1.9920 H   0  0  0  0  0  0  0  0  0  0  0  0
    5.3327    2.2227   -1.2068 H   0  0  0  0  0  0  0  0  0  0  0  0
    4.4671    1.0841    0.6930 H   0  0  0  0  0  0  0  0  0  0  0  0
    4.9730   -1.0457    1.3698 H   0  0  0  0  0  0  0  0  0  0  0  0
    5.9929   -1.3953   -0.1421 H   0  0  0  0  0  0  0  0  0  0  0  0
    6.4199    0.9852    1.7539 H   0  0  0  0  0  0  0  0  0  0  0  0
    7.2129   -0.5223    2.1948 H   0  0  0  0  0  0  0  0  0  0  0  0
    3.0861    1.7466   -1.3454 H   0  0  0  0  0  0  0  0  0  0  0  0
    2.9660    0.4456   -2.5736 H   0  0  0  0  0  0  0  0  0  0  0  0
    1.4744    0.6496    0.0504 H   0  0  0  0  0  0  0  0  0  0  0  0
    0.8607    1.0905   -1.6113 H   0  0  0  0  0  0  0  0  0  0  0  0
    2.7651   -2.0016   -2.1320 H   0  0  0  0  0  0  0  0  0  0  0  0
    1.9593   -2.9292   -0.8571 H   0  0  0  0  0  0  0  0  0  0  0  0
    2.8377   -1.1243    0.8119 H   0  0  0  0  0  0  0  0  0  0  0  0
    4.0444   -2.1362   -0.0473 H   0  0  0  0  0  0  0  0  0  0  0  0
   -0.2284   -2.4706   -1.2519 H   0  0  0  0  0  0  0  0  0  0  0  0
    0.3273   -0.7241    1.0160 H   0  0  0  0  0  0  0  0  0  0  0  0
   -0.6074   -2.3098    0.9468 H   0  0  0  0  0  0  0  0  0  0  0  0
   -2.0980   -0.5936    1.7728 H   0  0  0  0  0  0  0  0  0  0  0  0
   -1.6298    0.5457    0.4867 H   0  0  0  0  0  0  0  0  0  0  0  0
   -3.2240   -2.0266    0.2820 H   0  0  0  0  0  0  0  0  0  0  0  0
   -2.6256   -2.2583   -1.8486 H   0  0  0  0  0  0  0  0  0  0  0  0
   -3.2734   -0.6517   -2.2087 H   0  0  0  0  0  0  0  0  0  0  0  0
   -0.8940   -0.9046   -2.8607 H   0  0  0  0  0  0  0  0  0  0  0  0
   -1.1256    0.3955   -1.5538 H   0  0  0  0  0  0  0  0  0  0  0  0
   -4.8782   -1.1468    1.6433 H   0  0  0  0  0  0  0  0  0  0  0  0
   -5.4746   -1.6580    0.0522 H   0  0  0  0  0  0  0  0  0  0  0  0
   -5.9003    1.1200    1.3000 H   0  0  0  0  0  0  0  0  0  0  0  0
   -6.7785    1.7997   -0.6958 H   0  0  0  0  0  0  0  0  0  0  0  0
   -5.9097    0.3986   -1.4263 H   0  0  0  0  0  0  0  0  0  0  0  0
   -8.6895   -2.2393    0.2295 H   0  0  0  0  0  0  0  0  0  0  0  0
   -9.6268   -1.5031    1.5366 H   0  0  0  0  0  0  0  0  0  0  0  0
  -10.6577   -3.3580   -0.2227 H   0  0  0  0  0  0  0  0  0  0  0  0
  -11.8110   -2.3118    0.6716 H   0  0  0  0  0  0  0  0  0  0  0  0
  -12.5453   -3.2418   -1.6639 H   0  0  0  0  0  0  0  0  0  0  0  0
  -11.4432   -1.2090   -3.1546 H   0  0  0  0  0  0  0  0  0  0  0  0
  -10.8457   -2.8823   -3.0996 H   0  0  0  0  0  0  0  0  0  0  0  0
   -9.2432   -2.3571   -1.6831 H   0  0  0  0  0  0  0  0  0  0  0  0
   -8.3084    1.9339    0.9236 H   0  0  0  0  0  0  0  0  0  0  0  0
  -11.0516    0.9863   -0.0422 H   0  0  0  0  0  0  0  0  0  0  0  0
  -11.3702    3.4444   -0.2729 H   0  0  0  0  0  0  0  0  0  0  0  0
   -9.6491    3.6570    0.3536 H   0  0  0  0  0  0  0  0  0  0  0  0
  -12.0110    2.3658    1.8166 H   0  0  0  0  0  0  0  0  0  0  0  0
  -10.6649    2.1744    3.6770 H   0  0  0  0  0  0  0  0  0  0  0  0
   -9.2471    2.9951    2.9661 H   0  0  0  0  0  0  0  0  0  0  0  0
   -8.8970    0.5938    2.8753 H   0  0  0  0  0  0  0  0  0  0  0  0
  -10.5880    0.3456    2.1899 H   0  0  0  0  0  0  0  0  0  0  0  0
  1  2  1  0
  3  4  1  0
  4  5  1  0
  5  6  1  0
  5  7  1  0
  7  8  1  0
  8  9  1  0
  2 10  1  0
  8 10  1  0
 10 11  1  0
  7 12  1  0
 11 12  1  0
  1 13  1  0
 13 14  1  0
 14 15  1  0
  2 16  1  0
 15 16  1  0
 14 17  1  0
 17 18  1  0
 18 19  1  0
 19 20  1  0
 20 21  1  0
 17 22  1  0
 21 22  1  0
 20 23  1  0
 23 24  1  0
 24 25  1  0
 25 26  1  0
 26 27  1  0
 23 28  1  0
 27 28  1  0
 26 29  1  0
 29 30  1  0
 30 31  1  0
 31 32  1  0
 32 33  1  0
 33 34  1  0
 31 35  1  0
 34 35  1  0
 34 36  1  6
 36 37  1  0
 37 38  1  0
 38 39  1  0
 40 39  1  0
 37 41  1  0
 40 41  1  0
 34 42  1  0
 42 43  1  0
 43 44  1  0
 44 45  1  0
 45 46  1  0
 42 47  1  0
 46 47  1  0
 45 48  1  0
 43 49  1  0
  1 50  1  0
  1 51  1  0
  2 52  1  0
  3 53  1  0
  3 54  1  0
  3 55  1  0
  4 56  1  0
  4 57  1  0
  5 58  1  6
  6 59  1  0
  6 60  1  0
  6 61  1  0
  8 62  1  0
  9 63  1  0
 11 64  1  0
 11 65  1  0
 12 66  1  0
 13 67  1  0
 13 68  1  0
 14 69  1  0
 15 70  1  0
 15 71  1  0
 16 72  1  0
 16 73  1  0
 18 74  1  0
 18 75  1  0
 19 76  1  0
 19 77  1  0
 21 78  1  0
 21 79  1  0
 22 80  1  0
 22 81  1  0
 23 82  1  0
 24 83  1  0
 24 84  1  0
 25 85  1  0
 25 86  1  0
 26 87  1  0
 27 88  1  0
 27 89  1  0
 28 90  1  0
 28 91  1  0
 30 92  1  0
 30 93  1  0
 31 94  1  1
 32 95  1  0
 32 96  1  0
 36 97  1  0
 36 98  1  0
 38 99  1  0
 38100  1  0
 39101  1  0
 40102  1  0
 40103  1  0
 41104  1  0
 42105  1  0
 43106  1  0
 44107  1  0
 44108  1  0
 45109  1  0
 46110  1  0
 46111  1  0
 47112  1  0
 47113  1  0
M  END
>  <PDBID>  (1) 
5JLC

>  <PDB ID>  (1) 
5JLC

>  <Generic Name>  (1) 
Itraconazole

>  <Brand Name>  (1) 
Itraconazole#Onmel#Sporanox#Sporanox Oral Solution 10mg/ml#Itrizole#Oriconazole#Sporal

>  <DrugBank ID>  (1) 
DB01167

>  <ATC Codes>  (1) 
J02AC02

>  <Ligand ID>  (1) 
1YN

>  <Target Name>  (1) 
Lanosterol 14-alpha demethylase

>  <UniProt ID>  (1) 
P50859

>  <PDB ID.1>  (1) 
5JLC

>  <Seq. Identity>  (1) 
97%

$$$$
