PDB_DB00907_04
     RDKit          3D

 53 55  0  0  0  0  0  0  0  0999 V2000
   -0.5537    3.8369   -0.1327 C   0  0  0  0  0  0  0  0  0  0  0  0
   -0.4589    2.5338    0.3436 O   0  0  0  0  0  0  0  0  0  0  0  0
   -1.7043    1.9776    0.4099 C   0  0  0  0  0  0  0  0  0  0  0  0
   -2.0775    1.6481    1.7291 O   0  0  0  0  0  0  0  0  0  0  0  0
   -1.8688    0.7501   -0.4506 C   0  0  2  0  0  0  0  0  0  0  0  0
   -3.2894    0.2669   -0.2610 C   0  0  2  0  0  0  0  0  0  0  0  0
   -3.4943   -0.3085    1.0489 N   0  0  0  0  0  0  0  0  0  0  0  0
   -4.8732   -0.6693    1.1837 C   0  0  0  0  0  0  0  0  0  0  0  0
   -3.5917   -0.9141   -1.1748 C   0  0  0  0  0  0  0  0  0  0  0  0
   -3.1571   -2.1148   -0.3965 C   0  0  0  0  0  0  0  0  0  0  0  0
   -2.7109   -1.5313    0.9469 C   0  0  1  0  0  0  0  0  0  0  0  0
   -1.2423   -1.2298    0.9056 C   0  0  0  0  0  0  0  0  0  0  0  0
   -0.8515   -0.3060   -0.2022 C   0  0  2  0  0  0  0  0  0  0  0  0
    0.4093    0.2446   -0.0438 O   0  0  0  0  0  0  0  0  0  0  0  0
    1.3117   -0.1026   -1.0021 C   0  0  0  0  0  0  0  0  0  0  0  0
    1.8568    0.9592   -1.7011 O   0  0  0  0  0  0  0  0  0  0  0  0
    2.4758   -0.9062   -0.4361 C   0  0  0  0  0  0  0  0  0  0  0  0
    3.2197   -0.1054    0.6175 C   0  0  0  0  0  0  0  0  0  0  0  0
    4.6000   -0.7306    0.8123 C   0  0  0  0  0  0  0  0  0  0  0  0
    5.4841   -0.3498   -0.3527 C   0  0  0  0  0  0  0  0  0  0  0  0
    4.5836   -0.1375   -1.5477 C   0  0  0  0  0  0  0  0  0  0  0  0
    3.4515   -1.1412   -1.5768 C   0  0  0  0  0  0  0  0  0  0  0  0
   -1.1810    4.4830    0.5188 H   0  0  0  0  0  0  0  0  0  0  0  0
   -1.0195    3.8070   -1.1543 H   0  0  0  0  0  0  0  0  0  0  0  0
    0.4308    4.3182   -0.2409 H   0  0  0  0  0  0  0  0  0  0  0  0
   -2.4573    2.7132    0.0667 H   0  0  0  0  0  0  0  0  0  0  0  0
   -1.4682    2.0241    2.3917 H   0  0  0  0  0  0  0  0  0  0  0  0
   -1.7851    1.0857   -1.5138 H   0  0  0  0  0  0  0  0  0  0  0  0
   -4.0277    1.0441   -0.5081 H   0  0  0  0  0  0  0  0  0  0  0  0
   -5.0239   -1.1142    2.1758 H   0  0  0  0  0  0  0  0  0  0  0  0
   -5.1897   -1.4440    0.4353 H   0  0  0  0  0  0  0  0  0  0  0  0
   -5.5702    0.1848    1.0193 H   0  0  0  0  0  0  0  0  0  0  0  0
   -2.9975   -0.7755   -2.1048 H   0  0  0  0  0  0  0  0  0  0  0  0
   -4.6617   -0.9283   -1.4673 H   0  0  0  0  0  0  0  0  0  0  0  0
   -3.9107   -2.8949   -0.2852 H   0  0  0  0  0  0  0  0  0  0  0  0
   -2.2676   -2.5613   -0.8943 H   0  0  0  0  0  0  0  0  0  0  0  0
   -2.9837   -2.2373    1.7391 H   0  0  0  0  0  0  0  0  0  0  0  0
   -0.7095   -2.2063    0.7814 H   0  0  0  0  0  0  0  0  0  0  0  0
   -0.9519   -0.8630    1.9113 H   0  0  0  0  0  0  0  0  0  0  0  0
   -0.7940   -0.9348   -1.1401 H   0  0  0  0  0  0  0  0  0  0  0  0
    0.8045   -0.7831   -1.7292 H   0  0  0  0  0  0  0  0  0  0  0  0
    1.8652    1.8023   -1.2051 H   0  0  0  0  0  0  0  0  0  0  0  0
    2.1514   -1.8666   -0.0085 H   0  0  0  0  0  0  0  0  0  0  0  0
    2.6702   -0.0312    1.5679 H   0  0  0  0  0  0  0  0  0  0  0  0
    3.4075    0.9269    0.2408 H   0  0  0  0  0  0  0  0  0  0  0  0
    5.0597   -0.3014    1.7268 H   0  0  0  0  0  0  0  0  0  0  0  0
    4.5154   -1.8341    0.8951 H   0  0  0  0  0  0  0  0  0  0  0  0
    6.0978    0.5306   -0.1550 H   0  0  0  0  0  0  0  0  0  0  0  0
    6.1968   -1.1812   -0.6022 H   0  0  0  0  0  0  0  0  0  0  0  0
    5.2058   -0.3418   -2.4497 H   0  0  0  0  0  0  0  0  0  0  0  0
    4.2044    0.8859   -1.6357 H   0  0  0  0  0  0  0  0  0  0  0  0
    2.9506   -1.0295   -2.5569 H   0  0  0  0  0  0  0  0  0  0  0  0
    3.9201   -2.1471   -1.5112 H   0  0  0  0  0  0  0  0  0  0  0  0
  1  2  1  0
  2  3  1  0
  3  4  1  0
  3  5  1  0
  5  6  1  0
  6  7  1  0
  7  8  1  0
  6  9  1  0
  9 10  1  0
  7 11  1  0
 10 11  1  0
 11 12  1  0
  5 13  1  0
 12 13  1  0
 13 14  1  0
 14 15  1  0
 15 16  1  0
 15 17  1  0
 17 18  1  0
 18 19  1  0
 19 20  1  0
 20 21  1  0
 17 22  1  0
 21 22  1  0
  1 23  1  0
  1 24  1  0
  1 25  1  0
  3 26  1  0
  4 27  1  0
  5 28  1  6
  6 29  1  6
  8 30  1  0
  8 31  1  0
  8 32  1  0
  9 33  1  0
  9 34  1  0
 10 35  1  0
 10 36  1  0
 11 37  1  1
 12 38  1  0
 12 39  1  0
 13 40  1  6
 15 41  1  0
 16 42  1  0
 17 43  1  0
 18 44  1  0
 18 45  1  0
 19 46  1  0
 19 47  1  0
 20 48  1  0
 20 49  1  0
 21 50  1  0
 21 51  1  0
 22 52  1  0
 22 53  1  0
M  END
>  <PDBID>  (1) 
4XP4

>  <PDB ID>  (1) 
4XP4

>  <Generic Name>  (1) 
Cocaine

>  <Brand Name>  (1) 
Cocaine Hydrochloride#Cocaine Hydrochloride Top Sol 40mg/ml#Cocaine Hydrochloride Topical Sol 10%#PMS-cocaine Hydrochloride  Topical Sol 4%#PMS-cocaine Hydrochloride Topical Sol 10%

>  <DrugBank ID>  (1) 
DB00907

>  <ATC Codes>  (1) 
S01HA01#N01BC01#R02AD03#S02DA02

>  <Ligand ID>  (1) 
COC

>  <Target Name>  (1) 
Sodium-dependent noradrenaline transporter

>  <UniProt ID>  (1) 
P23975

>  <PDB ID.1>  (1) 
4XP4

>  <Seq. Identity>  (1) 
58%

$$$$
