PDB_DB01128_03
     RDKit          3D

 63 64  0  0  0  0  0  0  0  0999 V2000
   -4.5779   -1.1208   -0.0126 C   0  0  0  0  0  0  0  0  0  0  0  0
   -6.0144   -1.5692   -0.0160 C   0  0  0  0  0  0  0  0  0  0  0  0
   -6.9659   -0.5263   -0.5242 C   0  0  0  0  0  0  0  0  0  0  0  0
   -7.0494   -0.4786   -1.8851 F   0  0  0  0  0  0  0  0  0  0  0  0
   -6.6908    0.8392    0.0311 C   0  0  0  0  0  0  0  0  0  0  0  0
   -5.2477    1.2240   -0.2834 C   0  0  0  0  0  0  0  0  0  0  0  0
   -4.3988    0.2580    0.5390 C   0  0  0  0  0  0  0  0  0  0  0  0
   -2.7259    0.6775    0.5767 S   0  0  0  0  0  0  0  0  0  0  0  0
   -2.5735    2.1961    1.0468 O   0  0  0  0  0  0  0  0  0  0  0  0
   -2.0964   -0.3652    1.6569 O   0  0  0  0  0  0  0  0  0  0  0  0
   -2.0970    0.4223   -0.9542 C   0  0  0  0  0  0  0  0  0  0  0  0
   -0.6386    0.8010   -1.1337 C   0  0  1  0  0  0  0  0  0  0  0  0
   -0.1188    0.5171   -2.3710 O   0  0  0  0  0  0  0  0  0  0  0  0
   -0.6194    2.3891   -1.1542 C   0  0  0  0  0  0  0  0  0  0  0  0
    0.2251    0.3811   -0.0082 C   0  0  1  0  0  0  0  0  0  0  0  0
    0.1885   -1.0177    0.0066 O   0  0  0  0  0  0  0  0  0  0  0  0
    1.4464    1.0178    0.0677 N   0  0  0  0  0  0  0  0  0  0  0  0
    2.6645    0.4195    0.3495 C   0  0  2  0  0  0  0  0  0  0  0  0
    3.5408    0.3230   -0.8539 C   0  0  0  0  0  0  0  0  0  0  0  0
    2.5123   -1.0068    0.8954 C   0  0  0  0  0  0  0  0  0  0  0  0
    3.8410   -1.4041    1.4991 C   0  0  0  0  0  0  0  0  0  0  0  0
    4.9618   -0.6259    0.8187 C   0  0  0  0  0  0  0  0  0  0  0  0
    6.2830   -1.2617    1.2197 C   0  0  0  0  0  0  0  0  0  0  0  0
    7.4305   -0.5274    0.6838 N   0  0  0  0  0  0  0  0  0  0  0  0
    4.6615   -0.7169   -0.6467 C   0  0  0  0  0  0  0  0  0  0  0  0
    5.7445   -0.3637   -1.5947 C   0  0  0  0  0  0  0  0  0  0  0  0
    6.8401   -1.2234   -1.5658 F   0  0  0  0  0  0  0  0  0  0  0  0
    6.1862    0.9414   -1.3620 F   0  0  0  0  0  0  0  0  0  0  0  0
    5.2401   -0.3837   -2.8768 F   0  0  0  0  0  0  0  0  0  0  0  0
   -4.2145   -1.2128   -1.0664 H   0  0  0  0  0  0  0  0  0  0  0  0
   -3.9723   -1.8109    0.6203 H   0  0  0  0  0  0  0  0  0  0  0  0
   -6.2734   -1.9966    0.9522 H   0  0  0  0  0  0  0  0  0  0  0  0
   -6.0613   -2.4312   -0.7457 H   0  0  0  0  0  0  0  0  0  0  0  0
   -7.9801   -0.8353   -0.1565 H   0  0  0  0  0  0  0  0  0  0  0  0
   -7.4302    1.5307   -0.3945 H   0  0  0  0  0  0  0  0  0  0  0  0
   -6.7803    0.7886    1.1439 H   0  0  0  0  0  0  0  0  0  0  0  0
   -5.0475    2.2648   -0.0356 H   0  0  0  0  0  0  0  0  0  0  0  0
   -5.0959    0.9449   -1.3449 H   0  0  0  0  0  0  0  0  0  0  0  0
   -4.8747    0.3041    1.5575 H   0  0  0  0  0  0  0  0  0  0  0  0
   -3.1359    2.8250    0.5356 H   0  0  0  0  0  0  0  0  0  0  0  0
   -2.3476   -0.0951    2.5885 H   0  0  0  0  0  0  0  0  0  0  0  0
   -2.1558   -0.6442   -1.2358 H   0  0  0  0  0  0  0  0  0  0  0  0
   -2.6739    1.0057   -1.7019 H   0  0  0  0  0  0  0  0  0  0  0  0
   -0.6311   -0.2429   -2.7579 H   0  0  0  0  0  0  0  0  0  0  0  0
   -1.4649    2.6439   -1.8221 H   0  0  0  0  0  0  0  0  0  0  0  0
    0.3283    2.6776   -1.6691 H   0  0  0  0  0  0  0  0  0  0  0  0
   -0.7422    2.7642   -0.1371 H   0  0  0  0  0  0  0  0  0  0  0  0
   -0.3306    0.7211    0.9737 H   0  0  0  0  0  0  0  0  0  0  0  0
   -0.4004   -1.4196   -0.6439 H   0  0  0  0  0  0  0  0  0  0  0  0
    1.3954    2.0275    0.1928 H   0  0  0  0  0  0  0  0  0  0  0  0
    3.1698    0.9756    1.1520 H   0  0  0  0  0  0  0  0  0  0  0  0
    4.1288    1.2976   -0.9452 H   0  0  0  0  0  0  0  0  0  0  0  0
    3.0068    0.1238   -1.7763 H   0  0  0  0  0  0  0  0  0  0  0  0
    2.3216   -1.7342    0.1120 H   0  0  0  0  0  0  0  0  0  0  0  0
    1.7827   -0.9987    1.7139 H   0  0  0  0  0  0  0  0  0  0  0  0
    3.8550   -1.2252    2.5938 H   0  0  0  0  0  0  0  0  0  0  0  0
    4.0757   -2.4833    1.3535 H   0  0  0  0  0  0  0  0  0  0  0  0
    4.9606    0.3898    1.1805 H   0  0  0  0  0  0  0  0  0  0  0  0
    6.2955   -2.3314    0.9293 H   0  0  0  0  0  0  0  0  0  0  0  0
    6.3458   -1.2062    2.3240 H   0  0  0  0  0  0  0  0  0  0  0  0
    7.5218    0.3741    1.2117 H   0  0  0  0  0  0  0  0  0  0  0  0
    8.2994   -1.1231    0.7303 H   0  0  0  0  0  0  0  0  0  0  0  0
    4.1737   -1.6839   -0.9045 H   0  0  0  0  0  0  0  0  0  0  0  0
  1  2  1  0
  2  3  1  0
  3  4  1  0
  3  5  1  0
  5  6  1  0
  1  7  1  0
  6  7  1  0
  7  8  1  0
  8  9  1  0
  8 10  1  0
  8 11  1  0
 11 12  1  0
 12 13  1  6
 12 14  1  0
 12 15  1  0
 15 16  1  0
 15 17  1  0
 17 18  1  0
 18 19  1  0
 18 20  1  0
 20 21  1  0
 21 22  1  0
 22 23  1  0
 23 24  1  0
 19 25  1  0
 22 25  1  0
 25 26  1  0
 26 27  1  0
 26 28  1  0
 26 29  1  0
  1 30  1  0
  1 31  1  0
  2 32  1  0
  2 33  1  0
  3 34  1  0
  5 35  1  0
  5 36  1  0
  6 37  1  0
  6 38  1  0
  7 39  1  0
  9 40  1  0
 10 41  1  0
 11 42  1  0
 11 43  1  0
 13 44  1  0
 14 45  1  0
 14 46  1  0
 14 47  1  0
 15 48  1  1
 16 49  1  0
 17 50  1  0
 18 51  1  1
 19 52  1  0
 19 53  1  0
 20 54  1  0
 20 55  1  0
 21 56  1  0
 21 57  1  0
 22 58  1  0
 23 59  1  0
 23 60  1  0
 24 61  1  0
 24 62  1  0
 25 63  1  0
M  END
>  <PDBID>  (1) 
1Z95

>  <PDB ID>  (1) 
1Z95

>  <Generic Name>  (1) 
Bicalutamide

>  <Brand Name>  (1) 
Accel-bicalutamide Tablets USP#Ach-bicalutamide#Act Bicalutamide#Ag-bicalutamide#Apo-bicalutamide#Ava-bicalutamide#Bicalutamide#Bicalutamide Tablets#Casodex#Dom-bicalutamide#Jamp-bicalutamide#Med-bicalutamide#Mylan-bicalutamide#Ntp-bicalutamide#Nu-bicalutamide#PHL-bicalutamide#PMS-bicalutamide#Pro-bicalutamide - 50#Ran-bicalutamide#Ratio-bicalutamide#Sandoz Bicalutamide#Teva-bicalutamide#Van-bicalutamide

>  <DrugBank ID>  (1) 
DB01128

>  <ATC Codes>  (1) 
L02BB03

>  <Ligand ID>  (1) 
0U9,198

>  <Target Name>  (1) 
Androgen receptor

>  <UniProt ID>  (1) 
P10275

>  <PDB ID.1>  (1) 
1Z95

>  <Seq. Identity>  (1) 
100%

$$$$
