PDB_DB00127_00
     RDKit          3D

 80 78  0  0  0  0  0  0  0  0999 V2000
   -6.0452    0.0497   -0.2749 N   0  0  0  0  0  0  0  0  0  0  0  0
   -4.8274    0.6181   -0.8204 C   0  0  0  0  0  0  0  0  0  0  0  0
   -4.0151   -0.4970   -1.4789 C   0  0  0  0  0  0  0  0  0  0  0  0
   -2.7322    0.0422   -2.0629 C   0  0  0  0  0  0  0  0  0  0  0  0
   -1.8806    0.6533   -1.0805 N   0  0  0  0  0  0  0  0  0  0  0  0
   -1.3205   -0.2631   -0.1320 C   0  0  0  0  0  0  0  0  0  0  0  0
   -0.4699    0.5587    0.8254 C   0  0  0  0  0  0  0  0  0  0  0  0
    0.1852   -0.2635    1.8890 C   0  0  0  0  0  0  0  0  0  0  0  0
    1.1145   -1.3266    1.3616 C   0  0  0  0  0  0  0  0  0  0  0  0
    2.1966   -0.7743    0.5856 N   0  0  0  0  0  0  0  0  0  0  0  0
    3.1217   -0.0145    1.3754 C   0  0  0  0  0  0  0  0  0  0  0  0
    4.2293    0.5273    0.5026 C   0  0  0  0  0  0  0  0  0  0  0  0
    4.9896   -0.6010   -0.1698 C   0  0  0  0  0  0  0  0  0  0  0  0
    6.0550   -0.1042   -1.0060 N   0  0  0  0  0  0  0  0  0  0  0  0
   -6.0452    0.0497   -0.2749 N   0  0  0  0  0  0  0  0  0  0  0  0
   -4.8274    0.6181   -0.8204 C   0  0  0  0  0  0  0  0  0  0  0  0
   -4.0151   -0.4970   -1.4789 C   0  0  0  0  0  0  0  0  0  0  0  0
   -2.7322    0.0422   -2.0629 C   0  0  0  0  0  0  0  0  0  0  0  0
   -1.8806    0.6533   -1.0805 N   0  0  0  0  0  0  0  0  0  0  0  0
   -1.3205   -0.2631   -0.1320 C   0  0  0  0  0  0  0  0  0  0  0  0
   -0.4699    0.5587    0.8254 C   0  0  0  0  0  0  0  0  0  0  0  0
    0.1852   -0.2635    1.8890 C   0  0  0  0  0  0  0  0  0  0  0  0
    1.1145   -1.3266    1.3616 C   0  0  0  0  0  0  0  0  0  0  0  0
    2.1966   -0.7743    0.5856 N   0  0  0  0  0  0  0  0  0  0  0  0
    3.1217   -0.0145    1.3754 C   0  0  0  0  0  0  0  0  0  0  0  0
    4.2293    0.5273    0.5026 C   0  0  0  0  0  0  0  0  0  0  0  0
    4.9896   -0.6010   -0.1698 C   0  0  0  0  0  0  0  0  0  0  0  0
    6.0550   -0.1042   -1.0060 N   0  0  0  0  0  0  0  0  0  0  0  0
   -6.3870    0.6411    0.5372 H   0  0  0  0  0  0  0  0  0  0  0  0
   -6.8254    0.0324   -0.9593 H   0  0  0  0  0  0  0  0  0  0  0  0
   -5.1478    1.3036   -1.6435 H   0  0  0  0  0  0  0  0  0  0  0  0
   -4.2552    1.1236   -0.0311 H   0  0  0  0  0  0  0  0  0  0  0  0
   -4.6340   -0.8409   -2.3404 H   0  0  0  0  0  0  0  0  0  0  0  0
   -3.8776   -1.3499   -0.8110 H   0  0  0  0  0  0  0  0  0  0  0  0
   -2.2085   -0.7433   -2.6325 H   0  0  0  0  0  0  0  0  0  0  0  0
   -3.0274    0.8365   -2.7849 H   0  0  0  0  0  0  0  0  0  0  0  0
   -2.2310    1.5363   -0.7065 H   0  0  0  0  0  0  0  0  0  0  0  0
   -0.6413   -0.9614   -0.6539 H   0  0  0  0  0  0  0  0  0  0  0  0
   -2.0688   -0.7868    0.4832 H   0  0  0  0  0  0  0  0  0  0  0  0
    0.3153    1.1446    0.2964 H   0  0  0  0  0  0  0  0  0  0  0  0
   -1.1558    1.2690    1.3680 H   0  0  0  0  0  0  0  0  0  0  0  0
    0.7330    0.4113    2.5511 H   0  0  0  0  0  0  0  0  0  0  0  0
   -0.6076   -0.7382    2.5355 H   0  0  0  0  0  0  0  0  0  0  0  0
    0.5241   -1.9726    0.6804 H   0  0  0  0  0  0  0  0  0  0  0  0
    1.4608   -1.9514    2.1888 H   0  0  0  0  0  0  0  0  0  0  0  0
    1.8755   -0.2922   -0.2710 H   0  0  0  0  0  0  0  0  0  0  0  0
    3.6149   -0.7265    2.1019 H   0  0  0  0  0  0  0  0  0  0  0  0
    2.6538    0.7647    1.9968 H   0  0  0  0  0  0  0  0  0  0  0  0
    3.7488    1.1159   -0.3287 H   0  0  0  0  0  0  0  0  0  0  0  0
    4.9108    1.2095    1.0305 H   0  0  0  0  0  0  0  0  0  0  0  0
    4.3244   -1.2254   -0.7937 H   0  0  0  0  0  0  0  0  0  0  0  0
    5.4503   -1.2249    0.6237 H   0  0  0  0  0  0  0  0  0  0  0  0
    5.8629    0.8337   -1.3957 H   0  0  0  0  0  0  0  0  0  0  0  0
    6.9915   -0.1823   -0.5558 H   0  0  0  0  0  0  0  0  0  0  0  0
   -6.3870    0.6411    0.5372 H   0  0  0  0  0  0  0  0  0  0  0  0
   -6.8254    0.0324   -0.9593 H   0  0  0  0  0  0  0  0  0  0  0  0
   -5.1478    1.3036   -1.6435 H   0  0  0  0  0  0  0  0  0  0  0  0
   -4.2552    1.1236   -0.0311 H   0  0  0  0  0  0  0  0  0  0  0  0
   -4.6340   -0.8409   -2.3404 H   0  0  0  0  0  0  0  0  0  0  0  0
   -3.8776   -1.3499   -0.8110 H   0  0  0  0  0  0  0  0  0  0  0  0
   -2.2085   -0.7433   -2.6325 H   0  0  0  0  0  0  0  0  0  0  0  0
   -3.0274    0.8365   -2.7849 H   0  0  0  0  0  0  0  0  0  0  0  0
   -2.2310    1.5363   -0.7065 H   0  0  0  0  0  0  0  0  0  0  0  0
   -0.6413   -0.9614   -0.6539 H   0  0  0  0  0  0  0  0  0  0  0  0
   -2.0688   -0.7868    0.4832 H   0  0  0  0  0  0  0  0  0  0  0  0
    0.3153    1.1446    0.2964 H   0  0  0  0  0  0  0  0  0  0  0  0
   -1.1558    1.2690    1.3680 H   0  0  0  0  0  0  0  0  0  0  0  0
    0.7330    0.4113    2.5511 H   0  0  0  0  0  0  0  0  0  0  0  0
   -0.6076   -0.7382    2.5355 H   0  0  0  0  0  0  0  0  0  0  0  0
    0.5241   -1.9726    0.6804 H   0  0  0  0  0  0  0  0  0  0  0  0
    1.4608   -1.9514    2.1888 H   0  0  0  0  0  0  0  0  0  0  0  0
    1.8755   -0.2922   -0.2710 H   0  0  0  0  0  0  0  0  0  0  0  0
    3.6149   -0.7265    2.1019 H   0  0  0  0  0  0  0  0  0  0  0  0
    2.6538    0.7647    1.9968 H   0  0  0  0  0  0  0  0  0  0  0  0
    3.7488    1.1159   -0.3287 H   0  0  0  0  0  0  0  0  0  0  0  0
    4.9108    1.2095    1.0305 H   0  0  0  0  0  0  0  0  0  0  0  0
    4.3244   -1.2254   -0.7937 H   0  0  0  0  0  0  0  0  0  0  0  0
    5.4503   -1.2249    0.6237 H   0  0  0  0  0  0  0  0  0  0  0  0
    5.8629    0.8337   -1.3957 H   0  0  0  0  0  0  0  0  0  0  0  0
    6.9915   -0.1823   -0.5558 H   0  0  0  0  0  0  0  0  0  0  0  0
  1  2  1  0
  2  3  1  0
  3  4  1  0
  4  5  1  0
  5  6  1  0
  6  7  1  0
  7  8  1  0
  8  9  1  0
  9 10  1  0
 10 11  1  0
 11 12  1  0
 12 13  1  0
 13 14  1  0
 15 16  1  0
 16 17  1  0
 17 18  1  0
 18 19  1  0
 19 20  1  0
 20 21  1  0
 21 22  1  0
 22 23  1  0
 23 24  1  0
 24 25  1  0
 25 26  1  0
 26 27  1  0
 27 28  1  0
  1 29  1  0
  1 30  1  0
  2 31  1  0
  2 32  1  0
  3 33  1  0
  3 34  1  0
  4 35  1  0
  4 36  1  0
  5 37  1  0
  6 38  1  0
  6 39  1  0
  7 40  1  0
  7 41  1  0
  8 42  1  0
  8 43  1  0
  9 44  1  0
  9 45  1  0
 10 46  1  0
 11 47  1  0
 11 48  1  0
 12 49  1  0
 12 50  1  0
 13 51  1  0
 13 52  1  0
 14 53  1  0
 14 54  1  0
 15 55  1  0
 15 56  1  0
 16 57  1  0
 16 58  1  0
 17 59  1  0
 17 60  1  0
 18 61  1  0
 18 62  1  0
 19 63  1  0
 20 64  1  0
 20 65  1  0
 21 66  1  0
 21 67  1  0
 22 68  1  0
 22 69  1  0
 23 70  1  0
 23 71  1  0
 24 72  1  0
 25 73  1  0
 25 74  1  0
 26 75  1  0
 26 76  1  0
 27 77  1  0
 27 78  1  0
 28 79  1  0
 28 80  1  0
M  END
>  <PDBID>  (1) 
3KU9

>  <PDB ID>  (1) 
3KU9

>  <Generic Name>  (1) 
Spermine

>  <Brand Name>  (1) 
nan

>  <DrugBank ID>  (1) 
DB00127

>  <ATC Codes>  (1) 
nan

>  <Ligand ID>  (1) 
SPM

>  <Target Name>  (1) 
Spermine oxidase

>  <UniProt ID>  (1) 
Q9NWM0

>  <PDB ID.1>  (1) 
3KU9

>  <Seq. Identity>  (1) 
31%

$$$$
