PDB_DB00523_08
     RDKit          3D

 62 62  0  0  0  0  0  0  0  0999 V2000
   -3.7899   -0.2211   -0.9410 C   0  0  0  0  0  0  0  0  0  0  0  0
   -5.2142    0.2228   -1.0817 C   0  0  0  0  0  0  0  0  0  0  0  0
   -5.7507    1.1102   -0.0231 C   0  0  0  0  0  0  0  0  0  0  0  0
   -4.8318    2.2980    0.2319 C   0  0  0  0  0  0  0  0  0  0  0  0
   -3.5227    1.7504    0.6455 C   0  0  2  0  0  0  0  0  0  0  0  0
   -2.9087    0.8324   -0.3911 C   0  0  1  0  0  0  0  0  0  0  0  0
   -1.5583    0.3988    0.0774 C   0  0  0  0  0  0  0  0  0  0  0  0
   -0.6481   -0.2225   -0.9319 C   0  0  0  0  0  0  0  0  0  0  0  0
    0.7037   -0.5795   -0.2615 C   0  0  0  0  0  0  0  0  0  0  0  0
    1.5948   -1.1962   -1.2842 C   0  0  0  0  0  0  0  0  0  0  0  0
    2.9376   -1.6007   -0.8112 C   0  0  0  0  0  0  0  0  0  0  0  0
    3.7078   -0.3990   -0.2740 C   0  0  0  0  0  0  0  0  0  0  0  0
    5.0586   -0.8137    0.2000 C   0  0  0  0  0  0  0  0  0  0  0  0
    5.9093    0.2810    0.7544 C   0  0  0  0  0  0  0  0  0  0  0  0
    6.2175    1.3961   -0.1874 C   0  0  0  0  0  0  0  0  0  0  0  0
   -3.3239   -0.5224   -2.3742 C   0  0  0  0  0  0  0  0  0  0  0  0
   -3.7005   -1.5338   -0.1777 C   0  0  0  0  0  0  0  0  0  0  0  0
   -3.5786    1.1386    2.0131 C   0  0  0  0  0  0  0  0  0  0  0  0
    0.4552   -1.3776    0.9518 C   0  0  0  0  0  0  0  0  0  0  0  0
    4.8594   -1.8470    1.3045 C   0  0  0  0  0  0  0  0  0  0  0  0
    7.0280    2.3191    0.5170 O   0  0  0  0  0  0  0  0  0  0  0  0
    5.0407    2.1123   -0.4675 O   0  0  0  0  0  0  0  0  0  0  0  0
   -5.8906   -0.6563   -1.1606 H   0  0  0  0  0  0  0  0  0  0  0  0
   -5.2900    0.7947   -2.0541 H   0  0  0  0  0  0  0  0  0  0  0  0
   -6.7024    1.5478   -0.4022 H   0  0  0  0  0  0  0  0  0  0  0  0
   -5.9193    0.6029    0.9299 H   0  0  0  0  0  0  0  0  0  0  0  0
   -4.7516    2.9539   -0.6450 H   0  0  0  0  0  0  0  0  0  0  0  0
   -5.2721    2.8594    1.0709 H   0  0  0  0  0  0  0  0  0  0  0  0
   -2.8061    2.6193    0.7258 H   0  0  0  0  0  0  0  0  0  0  0  0
   -2.7042    1.5333   -1.2631 H   0  0  0  0  0  0  0  0  0  0  0  0
   -1.6207   -0.2743    0.9822 H   0  0  0  0  0  0  0  0  0  0  0  0
   -1.0323    1.3387    0.4264 H   0  0  0  0  0  0  0  0  0  0  0  0
   -0.4206    0.5606   -1.7119 H   0  0  0  0  0  0  0  0  0  0  0  0
   -1.0530   -1.1263   -1.3805 H   0  0  0  0  0  0  0  0  0  0  0  0
    1.1317    0.4016    0.0278 H   0  0  0  0  0  0  0  0  0  0  0  0
    1.7045   -0.5501   -2.1779 H   0  0  0  0  0  0  0  0  0  0  0  0
    1.0726   -2.1223   -1.6596 H   0  0  0  0  0  0  0  0  0  0  0  0
    2.9398   -2.4409   -0.0910 H   0  0  0  0  0  0  0  0  0  0  0  0
    3.5222   -1.9541   -1.6886 H   0  0  0  0  0  0  0  0  0  0  0  0
    3.1576    0.1641    0.4750 H   0  0  0  0  0  0  0  0  0  0  0  0
    3.8183    0.2736   -1.1760 H   0  0  0  0  0  0  0  0  0  0  0  0
    5.6231   -1.2808   -0.6479 H   0  0  0  0  0  0  0  0  0  0  0  0
    6.8570   -0.1853    1.1119 H   0  0  0  0  0  0  0  0  0  0  0  0
    5.4295    0.7206    1.6536 H   0  0  0  0  0  0  0  0  0  0  0  0
    6.7181    1.0639   -1.1055 H   0  0  0  0  0  0  0  0  0  0  0  0
   -4.2345   -0.3997   -3.0255 H   0  0  0  0  0  0  0  0  0  0  0  0
   -2.5216    0.1567   -2.6967 H   0  0  0  0  0  0  0  0  0  0  0  0
   -3.0704   -1.5959   -2.4188 H   0  0  0  0  0  0  0  0  0  0  0  0
   -3.9891   -2.3839   -0.8649 H   0  0  0  0  0  0  0  0  0  0  0  0
   -4.5062   -1.5201    0.5900 H   0  0  0  0  0  0  0  0  0  0  0  0
   -2.7132   -1.7750    0.1979 H   0  0  0  0  0  0  0  0  0  0  0  0
   -3.9325    1.9457    2.7051 H   0  0  0  0  0  0  0  0  0  0  0  0
   -2.5720    0.8584    2.3854 H   0  0  0  0  0  0  0  0  0  0  0  0
   -4.2900    0.3128    2.1205 H   0  0  0  0  0  0  0  0  0  0  0  0
    1.2869   -2.0343    1.2671 H   0  0  0  0  0  0  0  0  0  0  0  0
   -0.4164   -2.0493    0.8059 H   0  0  0  0  0  0  0  0  0  0  0  0
    0.1802   -0.7216    1.8241 H   0  0  0  0  0  0  0  0  0  0  0  0
    5.6607   -1.7606    2.0462 H   0  0  0  0  0  0  0  0  0  0  0  0
    4.7795   -2.8338    0.8327 H   0  0  0  0  0  0  0  0  0  0  0  0
    3.9007   -1.5975    1.8208 H   0  0  0  0  0  0  0  0  0  0  0  0
    7.9674    1.9717    0.4414 H   0  0  0  0  0  0  0  0  0  0  0  0
    5.2736    3.0361   -0.7624 H   0  0  0  0  0  0  0  0  0  0  0  0
  1  2  1  0
  2  3  1  0
  3  4  1  0
  4  5  1  0
  1  6  1  0
  5  6  1  0
  6  7  1  0
  7  8  1  0
  8  9  1  0
  9 10  1  0
 10 11  1  0
 11 12  1  0
 12 13  1  0
 13 14  1  0
 14 15  1  0
  1 16  1  0
  1 17  1  0
  5 18  1  0
  9 19  1  0
 13 20  1  0
 15 21  1  0
 15 22  1  0
  2 23  1  0
  2 24  1  0
  3 25  1  0
  3 26  1  0
  4 27  1  0
  4 28  1  0
  5 29  1  1
  6 30  1  6
  7 31  1  0
  7 32  1  0
  8 33  1  0
  8 34  1  0
  9 35  1  0
 10 36  1  0
 10 37  1  0
 11 38  1  0
 11 39  1  0
 12 40  1  0
 12 41  1  0
 13 42  1  0
 14 43  1  0
 14 44  1  0
 15 45  1  0
 16 46  1  0
 16 47  1  0
 16 48  1  0
 17 49  1  0
 17 50  1  0
 17 51  1  0
 18 52  1  0
 18 53  1  0
 18 54  1  0
 19 55  1  0
 19 56  1  0
 19 57  1  0
 20 58  1  0
 20 59  1  0
 20 60  1  0
 21 61  1  0
 22 62  1  0
M  END
>  <PDBID>  (1) 
3OAP

>  <PDB ID>  (1) 
3OAP

>  <Generic Name>  (1) 
Alitretinoin

>  <Brand Name>  (1) 
Panretin#Toctino

>  <DrugBank ID>  (1) 
DB00523

>  <ATC Codes>  (1) 
D11AH04#L01XX22

>  <Ligand ID>  (1) 
9CR

>  <Target Name>  (1) 
Retinoic acid receptor RXR-beta

>  <UniProt ID>  (1) 
P28702

>  <PDB ID.1>  (1) 
3OAP

>  <Seq. Identity>  (1) 
87%

$$$$
