PDB_DB00491_00
     RDKit          3D

 31 31  0  0  0  0  0  0  0  0999 V2000
   -2.9599   -1.4244    0.3550 O   0  0  0  0  0  0  0  0  0  0  0  0
   -1.1654    2.4762   -1.1576 O   0  0  0  0  0  0  0  0  0  0  0  0
    1.1813   -2.9837   -0.3556 O   0  0  0  0  0  0  0  0  0  0  0  0
    3.2659   -1.1829   -0.3834 O   0  0  0  0  0  0  0  0  0  0  0  0
    2.5630    1.2564    0.9721 O   0  0  0  0  0  0  0  0  0  0  0  0
   -2.9225   -0.0818    0.6798 C   0  0  0  0  0  0  0  0  0  0  0  0
    0.0973    1.8776   -1.2457 C   0  0  0  0  0  0  0  0  0  0  0  0
   -1.5371    0.3404    1.1680 C   0  0  0  0  0  0  0  0  0  0  0  0
   -0.3930   -1.2574   -0.1734 C   0  0  0  0  0  0  0  0  0  0  0  0
    0.9753   -1.6310   -0.6367 C   0  0  1  0  0  0  0  0  0  0  0  0
    2.0150   -0.8511    0.1315 C   0  0  2  0  0  0  0  0  0  0  0  0
    1.8079    0.6374   -0.0235 C   0  0  1  0  0  0  0  0  0  0  0  0
    0.3957    1.0591    0.0277 C   0  0  2  0  0  0  0  0  0  0  0  0
   -0.6088    0.0849    0.1125 N   0  0  0  0  0  0  0  0  0  0  0  0
   -3.6270   -1.6016   -0.3717 H   0  0  0  0  0  0  0  0  0  0  0  0
   -1.0923    3.3869   -0.7990 H   0  0  0  0  0  0  0  0  0  0  0  0
    1.1510   -3.1470    0.6286 H   0  0  0  0  0  0  0  0  0  0  0  0
    3.7142   -0.4388   -0.8382 H   0  0  0  0  0  0  0  0  0  0  0  0
    2.1726    0.9598    1.8543 H   0  0  0  0  0  0  0  0  0  0  0  0
   -3.6871    0.1069    1.4757 H   0  0  0  0  0  0  0  0  0  0  0  0
   -3.2388    0.5385   -0.1908 H   0  0  0  0  0  0  0  0  0  0  0  0
    0.8663    2.6679   -1.3931 H   0  0  0  0  0  0  0  0  0  0  0  0
    0.0918    1.2510   -2.1457 H   0  0  0  0  0  0  0  0  0  0  0  0
   -1.3216   -0.1925    2.1062 H   0  0  0  0  0  0  0  0  0  0  0  0
   -1.6039    1.4219    1.4314 H   0  0  0  0  0  0  0  0  0  0  0  0
   -0.7073   -1.9793    0.6239 H   0  0  0  0  0  0  0  0  0  0  0  0
   -1.0784   -1.5339   -1.0367 H   0  0  0  0  0  0  0  0  0  0  0  0
    1.0978   -1.4738   -1.7164 H   0  0  0  0  0  0  0  0  0  0  0  0
    1.9506   -1.0984    1.1952 H   0  0  0  0  0  0  0  0  0  0  0  0
    2.2769    0.9663   -0.9862 H   0  0  0  0  0  0  0  0  0  0  0  0
    0.3207    1.8465    0.8450 H   0  0  0  0  0  0  0  0  0  0  0  0
  1  6  1  0
  2  7  1  0
  6  8  1  0
  3 10  1  0
  9 10  1  0
  4 11  1  0
 10 11  1  0
  5 12  1  0
 11 12  1  0
  7 13  1  0
 12 13  1  0
  8 14  1  0
  9 14  1  0
 13 14  1  0
  1 15  1  0
  2 16  1  0
  3 17  1  0
  4 18  1  0
  5 19  1  0
  6 20  1  0
  6 21  1  0
  7 22  1  0
  7 23  1  0
  8 24  1  0
  8 25  1  0
  9 26  1  0
  9 27  1  0
 10 28  1  6
 11 29  1  1
 12 30  1  6
 13 31  1  1
M  END
>  <PDBID>  (1) 
3L4W

>  <PDB ID>  (1) 
3L4W

>  <Generic Name>  (1) 
Miglitol

>  <Brand Name>  (1) 
Glyset#Miglitol#Diaban#Diamig#Diaset#Diastabol#Elitox#Euglitol#Glycet#Laiping#Migbose#Miglit#Mignar#Migtor#Misobit#Plumarol#Seibule

>  <DrugBank ID>  (1) 
DB00491

>  <ATC Codes>  (1) 
A10BF02

>  <Ligand ID>  (1) 
MIG

>  <Target Name>  (1) 
Maltase-glucoamylase, intestinal

>  <UniProt ID>  (1) 
O43451

>  <PDB ID.1>  (1) 
3L4W

>  <Seq. Identity>  (1) 
99%

$$$$
