PDB_DB01204_03
     RDKit          3D

152156  0  0  0  0  0  0  0  0999 V2000
    8.1595    3.6855    0.3963 O   0  0  0  0  0  0  0  0  0  0  0  0
    7.2800    3.8425   -0.6616 C   0  0  0  0  0  0  0  0  0  0  0  0
    6.2858    2.6730   -0.5873 C   0  0  0  0  0  0  0  0  0  0  0  0
    5.6213    2.7656    0.6835 N   0  0  0  0  0  0  0  0  0  0  0  0
    4.6493    1.7530    0.9295 C   0  0  0  0  0  0  0  0  0  0  0  0
    3.4096    1.8739    0.0303 C   0  0  0  0  0  0  0  0  0  0  0  0
    2.5617    0.7660    0.4458 N   0  0  0  0  0  0  0  0  0  0  0  0
    1.3136    0.7331   -0.2820 C   0  0  0  0  0  0  0  0  0  0  0  0
    0.4971    1.9789   -0.0632 C   0  0  0  0  0  0  0  0  0  0  0  0
   -0.9005    1.7038    0.4178 C   0  0  0  0  0  0  0  0  0  0  0  0
    0.4748   -0.4371    0.2001 C   0  0  0  0  0  0  0  0  0  0  0  0
    1.3248   -1.6590    0.2262 C   0  0  0  0  0  0  0  0  0  0  0  0
    2.0092   -1.6315    1.4708 O   0  0  0  0  0  0  0  0  0  0  0  0
    0.6043   -2.9637    0.1868 C   0  0  0  0  0  0  0  0  0  0  0  0
    1.5283   -4.0691   -0.2686 C   0  0  0  0  0  0  0  0  0  0  0  0
    2.7119   -4.1487    0.4188 O   0  0  0  0  0  0  0  0  0  0  0  0
    0.7824   -5.3845   -0.0574 C   0  0  0  0  0  0  0  0  0  0  0  0
   -0.5479   -5.4268   -0.7311 C   0  0  0  0  0  0  0  0  0  0  0  0
   -1.3862   -4.2229   -0.4551 C   0  0  0  0  0  0  0  0  0  0  0  0
   -1.9205   -4.1848    0.8186 O   0  0  0  0  0  0  0  0  0  0  0  0
   -0.5698   -2.9817   -0.7638 C   0  0  0  0  0  0  0  0  0  0  0  0
   -1.4679   -1.7954   -0.6553 C   0  0  0  0  0  0  0  0  0  0  0  0
   -2.3332   -1.8340   -1.7652 O   0  0  0  0  0  0  0  0  0  0  0  0
   -0.7158   -0.5108   -0.7228 C   0  0  0  0  0  0  0  0  0  0  0  0
   -1.6191    0.6609   -0.4081 C   0  0  0  0  0  0  0  0  0  0  0  0
   -2.7719    0.1621    0.3004 N   0  0  0  0  0  0  0  0  0  0  0  0
   -3.7637    1.1842    0.5486 C   0  0  0  0  0  0  0  0  0  0  0  0
   -4.4299    1.6673   -0.7123 C   0  0  0  0  0  0  0  0  0  0  0  0
   -5.3995    2.6820   -0.3481 N   0  0  0  0  0  0  0  0  0  0  0  0
   -6.5129    2.1651    0.3823 C   0  0  0  0  0  0  0  0  0  0  0  0
   -7.4437    3.3496    0.6773 C   0  0  0  0  0  0  0  0  0  0  0  0
   -7.8613    3.9140   -0.5356 O   0  0  0  0  0  0  0  0  0  0  0  0
    8.1595    3.6855    0.3963 O   0  0  0  0  0  0  0  0  0  0  0  0
    7.2800    3.8425   -0.6616 C   0  0  0  0  0  0  0  0  0  0  0  0
    6.2858    2.6730   -0.5873 C   0  0  0  0  0  0  0  0  0  0  0  0
    5.6213    2.7656    0.6835 N   0  0  0  0  0  0  0  0  0  0  0  0
    4.6493    1.7530    0.9295 C   0  0  0  0  0  0  0  0  0  0  0  0
    3.4096    1.8739    0.0303 C   0  0  0  0  0  0  0  0  0  0  0  0
    2.5617    0.7660    0.4458 N   0  0  0  0  0  0  0  0  0  0  0  0
    1.3136    0.7331   -0.2820 C   0  0  0  0  0  0  0  0  0  0  0  0
    0.4971    1.9789   -0.0632 C   0  0  0  0  0  0  0  0  0  0  0  0
   -0.9005    1.7038    0.4178 C   0  0  0  0  0  0  0  0  0  0  0  0
    0.4748   -0.4371    0.2001 C   0  0  0  0  0  0  0  0  0  0  0  0
    1.3248   -1.6590    0.2262 C   0  0  0  0  0  0  0  0  0  0  0  0
    2.0092   -1.6315    1.4708 O   0  0  0  0  0  0  0  0  0  0  0  0
    0.6043   -2.9637    0.1868 C   0  0  0  0  0  0  0  0  0  0  0  0
    1.5283   -4.0691   -0.2686 C   0  0  0  0  0  0  0  0  0  0  0  0
    2.7119   -4.1487    0.4188 O   0  0  0  0  0  0  0  0  0  0  0  0
    0.7824   -5.3845   -0.0574 C   0  0  0  0  0  0  0  0  0  0  0  0
   -0.5479   -5.4268   -0.7311 C   0  0  0  0  0  0  0  0  0  0  0  0
   -1.3862   -4.2229   -0.4551 C   0  0  0  0  0  0  0  0  0  0  0  0
   -1.9205   -4.1848    0.8186 O   0  0  0  0  0  0  0  0  0  0  0  0
   -0.5698   -2.9817   -0.7638 C   0  0  0  0  0  0  0  0  0  0  0  0
   -1.4679   -1.7954   -0.6553 C   0  0  0  0  0  0  0  0  0  0  0  0
   -2.3332   -1.8340   -1.7652 O   0  0  0  0  0  0  0  0  0  0  0  0
   -0.7158   -0.5108   -0.7228 C   0  0  0  0  0  0  0  0  0  0  0  0
   -1.6191    0.6609   -0.4081 C   0  0  0  0  0  0  0  0  0  0  0  0
   -2.7719    0.1621    0.3004 N   0  0  0  0  0  0  0  0  0  0  0  0
   -3.7637    1.1842    0.5486 C   0  0  0  0  0  0  0  0  0  0  0  0
   -4.4299    1.6673   -0.7123 C   0  0  0  0  0  0  0  0  0  0  0  0
   -5.3995    2.6820   -0.3481 N   0  0  0  0  0  0  0  0  0  0  0  0
   -6.5129    2.1651    0.3823 C   0  0  0  0  0  0  0  0  0  0  0  0
   -7.4437    3.3496    0.6773 C   0  0  0  0  0  0  0  0  0  0  0  0
   -7.8613    3.9140   -0.5356 O   0  0  0  0  0  0  0  0  0  0  0  0
    8.4268    2.7486    0.5340 H   0  0  0  0  0  0  0  0  0  0  0  0
    7.7704    3.8685   -1.6354 H   0  0  0  0  0  0  0  0  0  0  0  0
    6.6708    4.7482   -0.4265 H   0  0  0  0  0  0  0  0  0  0  0  0
    6.8363    1.7074   -0.7220 H   0  0  0  0  0  0  0  0  0  0  0  0
    5.5656    2.7433   -1.4079 H   0  0  0  0  0  0  0  0  0  0  0  0
    6.2945    2.7667    1.4782 H   0  0  0  0  0  0  0  0  0  0  0  0
    4.3395    1.8217    1.9919 H   0  0  0  0  0  0  0  0  0  0  0  0
    5.0771    0.7147    0.8102 H   0  0  0  0  0  0  0  0  0  0  0  0
    2.9795    2.8611    0.2389 H   0  0  0  0  0  0  0  0  0  0  0  0
    3.7697    1.7242   -1.0005 H   0  0  0  0  0  0  0  0  0  0  0  0
    3.1499   -0.0928    0.2042 H   0  0  0  0  0  0  0  0  0  0  0  0
    1.5467    0.5813   -1.3490 H   0  0  0  0  0  0  0  0  0  0  0  0
    0.4138    2.5450   -1.0131 H   0  0  0  0  0  0  0  0  0  0  0  0
    0.9713    2.6742    0.6595 H   0  0  0  0  0  0  0  0  0  0  0  0
   -1.4535    2.6808    0.3182 H   0  0  0  0  0  0  0  0  0  0  0  0
   -0.9542    1.4777    1.5057 H   0  0  0  0  0  0  0  0  0  0  0  0
    0.1376   -0.2351    1.2598 H   0  0  0  0  0  0  0  0  0  0  0  0
    2.1270   -1.6489   -0.5694 H   0  0  0  0  0  0  0  0  0  0  0  0
    2.8559   -2.0957    1.4485 H   0  0  0  0  0  0  0  0  0  0  0  0
    0.2857   -3.2292    1.2240 H   0  0  0  0  0  0  0  0  0  0  0  0
    1.6351   -3.9560   -1.3675 H   0  0  0  0  0  0  0  0  0  0  0  0
    3.2377   -4.8792    0.0049 H   0  0  0  0  0  0  0  0  0  0  0  0
    1.4181   -6.1816   -0.4997 H   0  0  0  0  0  0  0  0  0  0  0  0
    0.6362   -5.5783    1.0264 H   0  0  0  0  0  0  0  0  0  0  0  0
   -0.4345   -5.4942   -1.8508 H   0  0  0  0  0  0  0  0  0  0  0  0
   -1.0901   -6.3126   -0.3354 H   0  0  0  0  0  0  0  0  0  0  0  0
   -2.2541   -4.2112   -1.1662 H   0  0  0  0  0  0  0  0  0  0  0  0
   -1.3147   -4.4764    1.5355 H   0  0  0  0  0  0  0  0  0  0  0  0
   -0.1754   -3.1038   -1.7819 H   0  0  0  0  0  0  0  0  0  0  0  0
   -2.0623   -1.8577    0.2782 H   0  0  0  0  0  0  0  0  0  0  0  0
   -3.2703   -1.8673   -1.4645 H   0  0  0  0  0  0  0  0  0  0  0  0
   -0.3049   -0.4383   -1.7659 H   0  0  0  0  0  0  0  0  0  0  0  0
   -1.8899    1.1179   -1.3866 H   0  0  0  0  0  0  0  0  0  0  0  0
   -2.4117   -0.1386    1.2526 H   0  0  0  0  0  0  0  0  0  0  0  0
   -3.3783    2.0453    1.1074 H   0  0  0  0  0  0  0  0  0  0  0  0
   -4.5433    0.7055    1.1754 H   0  0  0  0  0  0  0  0  0  0  0  0
   -4.9026    0.8498   -1.2924 H   0  0  0  0  0  0  0  0  0  0  0  0
   -3.6879    2.2252   -1.3583 H   0  0  0  0  0  0  0  0  0  0  0  0
   -4.9212    3.4574    0.1238 H   0  0  0  0  0  0  0  0  0  0  0  0
   -6.2929    1.7143    1.3517 H   0  0  0  0  0  0  0  0  0  0  0  0
   -7.0562    1.4327   -0.2398 H   0  0  0  0  0  0  0  0  0  0  0  0
   -6.9249    4.1051    1.2971 H   0  0  0  0  0  0  0  0  0  0  0  0
   -8.3316    3.0180    1.2382 H   0  0  0  0  0  0  0  0  0  0  0  0
   -8.0605    3.1517   -1.1489 H   0  0  0  0  0  0  0  0  0  0  0  0
    8.4268    2.7486    0.5340 H   0  0  0  0  0  0  0  0  0  0  0  0
    7.7704    3.8685   -1.6354 H   0  0  0  0  0  0  0  0  0  0  0  0
    6.6708    4.7482   -0.4265 H   0  0  0  0  0  0  0  0  0  0  0  0
    6.8363    1.7074   -0.7220 H   0  0  0  0  0  0  0  0  0  0  0  0
    5.5656    2.7433   -1.4079 H   0  0  0  0  0  0  0  0  0  0  0  0
    6.2945    2.7667    1.4782 H   0  0  0  0  0  0  0  0  0  0  0  0
    4.3395    1.8217    1.9919 H   0  0  0  0  0  0  0  0  0  0  0  0
    5.0771    0.7147    0.8102 H   0  0  0  0  0  0  0  0  0  0  0  0
    2.9795    2.8611    0.2389 H   0  0  0  0  0  0  0  0  0  0  0  0
    3.7697    1.7242   -1.0005 H   0  0  0  0  0  0  0  0  0  0  0  0
    3.1499   -0.0928    0.2042 H   0  0  0  0  0  0  0  0  0  0  0  0
    1.5467    0.5813   -1.3490 H   0  0  0  0  0  0  0  0  0  0  0  0
    0.4138    2.5450   -1.0131 H   0  0  0  0  0  0  0  0  0  0  0  0
    0.9713    2.6742    0.6595 H   0  0  0  0  0  0  0  0  0  0  0  0
   -1.4535    2.6808    0.3182 H   0  0  0  0  0  0  0  0  0  0  0  0
   -0.9542    1.4777    1.5057 H   0  0  0  0  0  0  0  0  0  0  0  0
    0.1376   -0.2351    1.2598 H   0  0  0  0  0  0  0  0  0  0  0  0
    2.1270   -1.6489   -0.5694 H   0  0  0  0  0  0  0  0  0  0  0  0
    2.8559   -2.0957    1.4485 H   0  0  0  0  0  0  0  0  0  0  0  0
    0.2857   -3.2292    1.2240 H   0  0  0  0  0  0  0  0  0  0  0  0
    1.6351   -3.9560   -1.3675 H   0  0  0  0  0  0  0  0  0  0  0  0
    3.2377   -4.8792    0.0049 H   0  0  0  0  0  0  0  0  0  0  0  0
    1.4181   -6.1816   -0.4997 H   0  0  0  0  0  0  0  0  0  0  0  0
    0.6362   -5.5783    1.0264 H   0  0  0  0  0  0  0  0  0  0  0  0
   -0.4345   -5.4942   -1.8508 H   0  0  0  0  0  0  0  0  0  0  0  0
   -1.0901   -6.3126   -0.3354 H   0  0  0  0  0  0  0  0  0  0  0  0
   -2.2541   -4.2112   -1.1662 H   0  0  0  0  0  0  0  0  0  0  0  0
   -1.3147   -4.4764    1.5355 H   0  0  0  0  0  0  0  0  0  0  0  0
   -0.1754   -3.1038   -1.7819 H   0  0  0  0  0  0  0  0  0  0  0  0
   -2.0623   -1.8577    0.2782 H   0  0  0  0  0  0  0  0  0  0  0  0
   -3.2703   -1.8673   -1.4645 H   0  0  0  0  0  0  0  0  0  0  0  0
   -0.3049   -0.4383   -1.7659 H   0  0  0  0  0  0  0  0  0  0  0  0
   -1.8899    1.1179   -1.3866 H   0  0  0  0  0  0  0  0  0  0  0  0
   -2.4117   -0.1386    1.2526 H   0  0  0  0  0  0  0  0  0  0  0  0
   -3.3783    2.0453    1.1074 H   0  0  0  0  0  0  0  0  0  0  0  0
   -4.5433    0.7055    1.1754 H   0  0  0  0  0  0  0  0  0  0  0  0
   -4.9026    0.8498   -1.2924 H   0  0  0  0  0  0  0  0  0  0  0  0
   -3.6879    2.2252   -1.3583 H   0  0  0  0  0  0  0  0  0  0  0  0
   -4.9212    3.4574    0.1238 H   0  0  0  0  0  0  0  0  0  0  0  0
   -6.2929    1.7143    1.3517 H   0  0  0  0  0  0  0  0  0  0  0  0
   -7.0562    1.4327   -0.2398 H   0  0  0  0  0  0  0  0  0  0  0  0
   -6.9249    4.1051    1.2971 H   0  0  0  0  0  0  0  0  0  0  0  0
   -8.3316    3.0180    1.2382 H   0  0  0  0  0  0  0  0  0  0  0  0
   -8.0605    3.1517   -1.1489 H   0  0  0  0  0  0  0  0  0  0  0  0
  1  2  1  0
  2  3  1  0
  3  4  1  0
  4  5  1  0
  5  6  1  0
  6  7  1  0
  7  8  1  0
  8  9  1  0
  9 10  1  0
  8 11  1  0
 11 12  1  0
 12 13  1  0
 12 14  1  0
 14 15  1  0
 15 16  1  0
 15 17  1  0
 17 18  1  0
 18 19  1  0
 19 20  1  0
 14 21  1  0
 19 21  1  0
 21 22  1  0
 22 23  1  0
 11 24  1  0
 22 24  1  0
 10 25  1  0
 24 25  1  0
 25 26  1  0
 26 27  1  0
 27 28  1  0
 28 29  1  0
 29 30  1  0
 30 31  1  0
 31 32  1  0
 33 34  1  0
 34 35  1  0
 35 36  1  0
 36 37  1  0
 37 38  1  0
 38 39  1  0
 39 40  1  0
 40 41  1  0
 41 42  1  0
 40 43  1  0
 43 44  1  0
 44 45  1  0
 44 46  1  0
 46 47  1  0
 47 48  1  0
 47 49  1  0
 49 50  1  0
 50 51  1  0
 51 52  1  0
 46 53  1  0
 51 53  1  0
 53 54  1  0
 54 55  1  0
 43 56  1  0
 54 56  1  0
 42 57  1  0
 56 57  1  0
 57 58  1  0
 58 59  1  0
 59 60  1  0
 60 61  1  0
 61 62  1  0
 62 63  1  0
 63 64  1  0
  1 65  1  0
  2 66  1  0
  2 67  1  0
  3 68  1  0
  3 69  1  0
  4 70  1  0
  5 71  1  0
  5 72  1  0
  6 73  1  0
  6 74  1  0
  7 75  1  0
  8 76  1  0
  9 77  1  0
  9 78  1  0
 10 79  1  0
 10 80  1  0
 11 81  1  0
 12 82  1  0
 13 83  1  0
 14 84  1  0
 15 85  1  0
 16 86  1  0
 17 87  1  0
 17 88  1  0
 18 89  1  0
 18 90  1  0
 19 91  1  0
 20 92  1  0
 21 93  1  0
 22 94  1  0
 23 95  1  0
 24 96  1  0
 25 97  1  0
 26 98  1  0
 27 99  1  0
 27100  1  0
 28101  1  0
 28102  1  0
 29103  1  0
 30104  1  0
 30105  1  0
 31106  1  0
 31107  1  0
 32108  1  0
 33109  1  0
 34110  1  0
 34111  1  0
 35112  1  0
 35113  1  0
 36114  1  0
 37115  1  0
 37116  1  0
 38117  1  0
 38118  1  0
 39119  1  0
 40120  1  0
 41121  1  0
 41122  1  0
 42123  1  0
 42124  1  0
 43125  1  0
 44126  1  0
 45127  1  0
 46128  1  0
 47129  1  0
 48130  1  0
 49131  1  0
 49132  1  0
 50133  1  0
 50134  1  0
 51135  1  0
 52136  1  0
 53137  1  0
 54138  1  0
 55139  1  0
 56140  1  0
 57141  1  0
 58142  1  0
 59143  1  0
 59144  1  0
 60145  1  0
 60146  1  0
 61147  1  0
 62148  1  0
 62149  1  0
 63150  1  0
 63151  1  0
 64152  1  0
M  END
>  <PDBID>  (1) 
4G0V

>  <PDB ID>  (1) 
4G0V

>  <Generic Name>  (1) 
Mitoxantrone

>  <Brand Name>  (1) 
Mitoxantrone#Mitoxantrone Hydrochloride#Mitoxantrone Injection#Mitoxantrone Injection USP#Novantrone#Novantrone Inj 2mg/ml

>  <DrugBank ID>  (1) 
DB01204

>  <ATC Codes>  (1) 
L01DB07

>  <Ligand ID>  (1) 
MIX

>  <Target Name>  (1) 
DNA topoisomerase 2-alpha

>  <UniProt ID>  (1) 
P11388

>  <PDB ID.1>  (1) 
4G0V

>  <Seq. Identity>  (1) 
78%

$$$$
