PDB_DB01586_01
     RDKit          3D

140146  0  0  0  0  0  0  0  0999 V2000
    3.5154    1.5299   -0.2245 C   0  0  0  0  0  0  0  0  0  0  0  0
    3.0866    0.1332   -0.6539 C   0  0  1  0  0  0  0  0  0  0  0  0
    0.7766    1.1229   -0.6551 C   0  0  0  0  0  0  0  0  0  0  0  0
   -0.5510    0.9696    0.1019 C   0  0  0  0  0  0  0  0  0  0  0  0
   -1.1939   -0.2695   -0.3889 C   0  0  1  0  0  0  0  0  0  0  0  0
   -0.2627   -1.4778   -0.1877 C   0  0  1  0  0  0  0  0  0  0  0  0
   -1.1394   -2.5788   -0.6419 C   0  0  0  0  0  0  0  0  0  0  0  0
   -2.5310   -2.1411   -0.1417 C   0  0  0  0  0  0  0  0  0  0  0  0
   -2.3089   -0.7931    0.4700 C   0  0  2  0  0  0  0  0  0  0  0  0
   -1.5137   -0.2118   -1.8446 C   0  0  0  0  0  0  0  0  0  0  0  0
    3.3089    0.0428   -2.1365 C   0  0  0  0  0  0  0  0  0  0  0  0
    2.5383   -3.1006   -1.4852 O   0  0  0  0  0  0  0  0  0  0  0  0
    5.3632    1.7863    2.1201 O   0  0  0  0  0  0  0  0  0  0  0  0
    5.0496    1.5134   -0.1952 C   0  0  0  0  0  0  0  0  0  0  0  0
   -3.4705    0.0543    0.6620 C   0  0  2  0  0  0  0  0  0  0  0  0
   -4.4553   -0.7003    1.5690 C   0  0  0  0  0  0  0  0  0  0  0  0
   -4.1696    0.5805   -0.5286 C   0  0  0  0  0  0  0  0  0  0  0  0
   -5.3499    1.4381   -0.0745 C   0  0  0  0  0  0  0  0  0  0  0  0
   -4.9246    2.5993    0.7671 C   0  0  0  0  0  0  0  0  0  0  0  0
    5.4289    0.8137    1.0957 C   0  0  2  0  0  0  0  0  0  0  0  0
    4.3833   -0.2061    1.3904 C   0  0  0  0  0  0  0  0  0  0  0  0
   -4.0459    3.4469    0.0580 O   0  0  0  0  0  0  0  0  0  0  0  0
   -6.0833    3.3850    0.9701 O   0  0  0  0  0  0  0  0  0  0  0  0
    3.8698   -0.9018    0.1244 C   0  0  1  0  0  0  0  0  0  0  0  0
    3.0177   -2.0377    0.5999 C   0  0  0  0  0  0  0  0  0  0  0  0
    1.9542   -2.4572   -0.3678 C   0  0  1  0  0  0  0  0  0  0  0  0
    1.0547   -1.3294   -0.8005 C   0  0  2  0  0  0  0  0  0  0  0  0
    1.6435   -0.0187   -0.2535 C   0  0  1  0  0  0  0  0  0  0  0  0
    3.5154    1.5299   -0.2245 C   0  0  0  0  0  0  0  0  0  0  0  0
    3.0866    0.1332   -0.6539 C   0  0  1  0  0  0  0  0  0  0  0  0
    0.7766    1.1229   -0.6551 C   0  0  0  0  0  0  0  0  0  0  0  0
   -0.5510    0.9696    0.1019 C   0  0  0  0  0  0  0  0  0  0  0  0
   -1.1939   -0.2695   -0.3889 C   0  0  1  0  0  0  0  0  0  0  0  0
   -0.2627   -1.4778   -0.1877 C   0  0  1  0  0  0  0  0  0  0  0  0
   -1.1394   -2.5788   -0.6419 C   0  0  0  0  0  0  0  0  0  0  0  0
   -2.5310   -2.1411   -0.1417 C   0  0  0  0  0  0  0  0  0  0  0  0
   -2.3089   -0.7931    0.4700 C   0  0  2  0  0  0  0  0  0  0  0  0
   -1.5137   -0.2118   -1.8446 C   0  0  0  0  0  0  0  0  0  0  0  0
    3.3089    0.0428   -2.1365 C   0  0  0  0  0  0  0  0  0  0  0  0
    2.5383   -3.1006   -1.4852 O   0  0  0  0  0  0  0  0  0  0  0  0
    5.3632    1.7863    2.1201 O   0  0  0  0  0  0  0  0  0  0  0  0
    5.0496    1.5134   -0.1952 C   0  0  0  0  0  0  0  0  0  0  0  0
   -3.4705    0.0543    0.6620 C   0  0  2  0  0  0  0  0  0  0  0  0
   -4.4553   -0.7003    1.5690 C   0  0  0  0  0  0  0  0  0  0  0  0
   -4.1696    0.5805   -0.5286 C   0  0  0  0  0  0  0  0  0  0  0  0
   -5.3499    1.4381   -0.0745 C   0  0  0  0  0  0  0  0  0  0  0  0
   -4.9246    2.5993    0.7671 C   0  0  0  0  0  0  0  0  0  0  0  0
    5.4289    0.8137    1.0957 C   0  0  2  0  0  0  0  0  0  0  0  0
    4.3833   -0.2061    1.3904 C   0  0  0  0  0  0  0  0  0  0  0  0
   -4.0459    3.4469    0.0580 O   0  0  0  0  0  0  0  0  0  0  0  0
   -6.0833    3.3850    0.9701 O   0  0  0  0  0  0  0  0  0  0  0  0
    3.8698   -0.9018    0.1244 C   0  0  1  0  0  0  0  0  0  0  0  0
    3.0177   -2.0377    0.5999 C   0  0  0  0  0  0  0  0  0  0  0  0
    1.9542   -2.4572   -0.3678 C   0  0  1  0  0  0  0  0  0  0  0  0
    1.0547   -1.3294   -0.8005 C   0  0  2  0  0  0  0  0  0  0  0  0
    1.6435   -0.0187   -0.2535 C   0  0  1  0  0  0  0  0  0  0  0  0
    3.0885    1.7461    0.7610 H   0  0  0  0  0  0  0  0  0  0  0  0
    3.1766    2.2693   -1.0058 H   0  0  0  0  0  0  0  0  0  0  0  0
    0.5723    1.1098   -1.7426 H   0  0  0  0  0  0  0  0  0  0  0  0
    1.2433    2.0778   -0.3867 H   0  0  0  0  0  0  0  0  0  0  0  0
   -1.1693    1.8361   -0.1898 H   0  0  0  0  0  0  0  0  0  0  0  0
   -0.3184    0.9114    1.1659 H   0  0  0  0  0  0  0  0  0  0  0  0
   -0.1447   -1.5574    0.9157 H   0  0  0  0  0  0  0  0  0  0  0  0
   -0.8669   -3.5138   -0.1023 H   0  0  0  0  0  0  0  0  0  0  0  0
   -1.1591   -2.7435   -1.7341 H   0  0  0  0  0  0  0  0  0  0  0  0
   -2.8896   -2.8363    0.6536 H   0  0  0  0  0  0  0  0  0  0  0  0
   -3.2685   -2.1558   -0.9493 H   0  0  0  0  0  0  0  0  0  0  0  0
   -1.8444   -0.9860    1.4842 H   0  0  0  0  0  0  0  0  0  0  0  0
   -1.4121    0.8604   -2.1822 H   0  0  0  0  0  0  0  0  0  0  0  0
   -0.7608   -0.7551   -2.4889 H   0  0  0  0  0  0  0  0  0  0  0  0
   -2.4841   -0.6510   -2.1254 H   0  0  0  0  0  0  0  0  0  0  0  0
    2.3317    0.1931   -2.6393 H   0  0  0  0  0  0  0  0  0  0  0  0
    3.8320   -0.8774   -2.4549 H   0  0  0  0  0  0  0  0  0  0  0  0
    3.9560    0.8880   -2.5150 H   0  0  0  0  0  0  0  0  0  0  0  0
    1.7928   -3.2143   -2.1332 H   0  0  0  0  0  0  0  0  0  0  0  0
    4.8675    2.5934    1.8091 H   0  0  0  0  0  0  0  0  0  0  0  0
    5.4260    2.5559   -0.1854 H   0  0  0  0  0  0  0  0  0  0  0  0
    5.3895    0.9340   -1.0545 H   0  0  0  0  0  0  0  0  0  0  0  0
   -3.1571    0.9415    1.2862 H   0  0  0  0  0  0  0  0  0  0  0  0
   -3.9011   -1.3656    2.2685 H   0  0  0  0  0  0  0  0  0  0  0  0
   -4.9962    0.0280    2.2335 H   0  0  0  0  0  0  0  0  0  0  0  0
   -5.1361   -1.3355    0.9880 H   0  0  0  0  0  0  0  0  0  0  0  0
   -3.5133    1.2565   -1.0984 H   0  0  0  0  0  0  0  0  0  0  0  0
   -4.6313   -0.2205   -1.1568 H   0  0  0  0  0  0  0  0  0  0  0  0
   -5.8814    1.8712   -0.9723 H   0  0  0  0  0  0  0  0  0  0  0  0
   -6.0962    0.8537    0.4623 H   0  0  0  0  0  0  0  0  0  0  0  0
   -4.5469    2.3528    1.7570 H   0  0  0  0  0  0  0  0  0  0  0  0
    6.4536    0.4019    1.0746 H   0  0  0  0  0  0  0  0  0  0  0  0
    4.8411   -1.0248    2.0070 H   0  0  0  0  0  0  0  0  0  0  0  0
    3.5235    0.1612    1.9693 H   0  0  0  0  0  0  0  0  0  0  0  0
   -4.1254    3.2026   -0.8947 H   0  0  0  0  0  0  0  0  0  0  0  0
   -6.2345    3.5918    1.9075 H   0  0  0  0  0  0  0  0  0  0  0  0
    4.7656   -1.2576   -0.4119 H   0  0  0  0  0  0  0  0  0  0  0  0
    2.5199   -1.8335    1.5816 H   0  0  0  0  0  0  0  0  0  0  0  0
    3.6809   -2.9086    0.7645 H   0  0  0  0  0  0  0  0  0  0  0  0
    1.3495   -3.2452    0.1277 H   0  0  0  0  0  0  0  0  0  0  0  0
    1.1132   -1.2558   -1.8816 H   0  0  0  0  0  0  0  0  0  0  0  0
    1.6232   -0.0904    0.8574 H   0  0  0  0  0  0  0  0  0  0  0  0
    3.0885    1.7461    0.7610 H   0  0  0  0  0  0  0  0  0  0  0  0
    3.1766    2.2693   -1.0058 H   0  0  0  0  0  0  0  0  0  0  0  0
    0.5723    1.1098   -1.7426 H   0  0  0  0  0  0  0  0  0  0  0  0
    1.2433    2.0778   -0.3867 H   0  0  0  0  0  0  0  0  0  0  0  0
   -1.1693    1.8361   -0.1898 H   0  0  0  0  0  0  0  0  0  0  0  0
   -0.3184    0.9114    1.1659 H   0  0  0  0  0  0  0  0  0  0  0  0
   -0.1447   -1.5574    0.9157 H   0  0  0  0  0  0  0  0  0  0  0  0
   -0.8669   -3.5138   -0.1023 H   0  0  0  0  0  0  0  0  0  0  0  0
   -1.1591   -2.7435   -1.7341 H   0  0  0  0  0  0  0  0  0  0  0  0
   -2.8896   -2.8363    0.6536 H   0  0  0  0  0  0  0  0  0  0  0  0
   -3.2685   -2.1558   -0.9493 H   0  0  0  0  0  0  0  0  0  0  0  0
   -1.8444   -0.9860    1.4842 H   0  0  0  0  0  0  0  0  0  0  0  0
   -1.4121    0.8604   -2.1822 H   0  0  0  0  0  0  0  0  0  0  0  0
   -0.7608   -0.7551   -2.4889 H   0  0  0  0  0  0  0  0  0  0  0  0
   -2.4841   -0.6510   -2.1254 H   0  0  0  0  0  0  0  0  0  0  0  0
    2.3317    0.1931   -2.6393 H   0  0  0  0  0  0  0  0  0  0  0  0
    3.8320   -0.8774   -2.4549 H   0  0  0  0  0  0  0  0  0  0  0  0
    3.9560    0.8880   -2.5150 H   0  0  0  0  0  0  0  0  0  0  0  0
    1.7928   -3.2143   -2.1332 H   0  0  0  0  0  0  0  0  0  0  0  0
    4.8675    2.5934    1.8091 H   0  0  0  0  0  0  0  0  0  0  0  0
    5.4260    2.5559   -0.1854 H   0  0  0  0  0  0  0  0  0  0  0  0
    5.3895    0.9340   -1.0545 H   0  0  0  0  0  0  0  0  0  0  0  0
   -3.1571    0.9415    1.2862 H   0  0  0  0  0  0  0  0  0  0  0  0
   -3.9011   -1.3656    2.2685 H   0  0  0  0  0  0  0  0  0  0  0  0
   -4.9962    0.0280    2.2335 H   0  0  0  0  0  0  0  0  0  0  0  0
   -5.1361   -1.3355    0.9880 H   0  0  0  0  0  0  0  0  0  0  0  0
   -3.5133    1.2565   -1.0984 H   0  0  0  0  0  0  0  0  0  0  0  0
   -4.6313   -0.2205   -1.1568 H   0  0  0  0  0  0  0  0  0  0  0  0
   -5.8814    1.8712   -0.9723 H   0  0  0  0  0  0  0  0  0  0  0  0
   -6.0962    0.8537    0.4623 H   0  0  0  0  0  0  0  0  0  0  0  0
   -4.5469    2.3528    1.7570 H   0  0  0  0  0  0  0  0  0  0  0  0
    6.4536    0.4019    1.0746 H   0  0  0  0  0  0  0  0  0  0  0  0
    4.8411   -1.0248    2.0070 H   0  0  0  0  0  0  0  0  0  0  0  0
    3.5235    0.1612    1.9693 H   0  0  0  0  0  0  0  0  0  0  0  0
   -4.1254    3.2026   -0.8947 H   0  0  0  0  0  0  0  0  0  0  0  0
   -6.2345    3.5918    1.9075 H   0  0  0  0  0  0  0  0  0  0  0  0
    4.7656   -1.2576   -0.4119 H   0  0  0  0  0  0  0  0  0  0  0  0
    2.5199   -1.8335    1.5816 H   0  0  0  0  0  0  0  0  0  0  0  0
    3.6809   -2.9086    0.7645 H   0  0  0  0  0  0  0  0  0  0  0  0
    1.3495   -3.2452    0.1277 H   0  0  0  0  0  0  0  0  0  0  0  0
    1.1132   -1.2558   -1.8816 H   0  0  0  0  0  0  0  0  0  0  0  0
    1.6232   -0.0904    0.8574 H   0  0  0  0  0  0  0  0  0  0  0  0
  1  2  1  0
  3  4  1  0
  4  5  1  0
  5  6  1  0
  6  7  1  0
  7  8  1  0
  5  9  1  0
  8  9  1  0
  5 10  1  6
  2 11  1  6
  1 14  1  0
  9 15  1  0
 15 16  1  0
 15 17  1  0
 17 18  1  0
 18 19  1  0
 13 20  1  0
 14 20  1  0
 20 21  1  0
 19 22  1  0
 19 23  1  0
  2 24  1  0
 21 24  1  0
 24 25  1  0
 12 26  1  0
 25 26  1  0
  6 27  1  0
 26 27  1  0
  2 28  1  0
  3 28  1  0
 27 28  1  0
 29 30  1  0
 31 32  1  0
 32 33  1  0
 33 34  1  0
 34 35  1  0
 35 36  1  0
 33 37  1  0
 36 37  1  0
 33 38  1  6
 30 39  1  6
 29 42  1  0
 37 43  1  0
 43 44  1  0
 43 45  1  0
 45 46  1  0
 46 47  1  0
 41 48  1  0
 42 48  1  0
 48 49  1  0
 47 50  1  0
 47 51  1  0
 30 52  1  0
 49 52  1  0
 52 53  1  0
 40 54  1  0
 53 54  1  0
 34 55  1  0
 54 55  1  0
 30 56  1  0
 31 56  1  0
 55 56  1  0
  1 57  1  0
  1 58  1  0
  3 59  1  0
  3 60  1  0
  4 61  1  0
  4 62  1  0
  6 63  1  1
  7 64  1  0
  7 65  1  0
  8 66  1  0
  8 67  1  0
  9 68  1  1
 10 69  1  0
 10 70  1  0
 10 71  1  0
 11 72  1  0
 11 73  1  0
 11 74  1  0
 12 75  1  0
 13 76  1  0
 14 77  1  0
 14 78  1  0
 15 79  1  1
 16 80  1  0
 16 81  1  0
 16 82  1  0
 17 83  1  0
 17 84  1  0
 18 85  1  0
 18 86  1  0
 19 87  1  0
 20 88  1  6
 21 89  1  0
 21 90  1  0
 22 91  1  0
 23 92  1  0
 24 93  1  6
 25 94  1  0
 25 95  1  0
 26 96  1  1
 27 97  1  6
 28 98  1  1
 29 99  1  0
 29100  1  0
 31101  1  0
 31102  1  0
 32103  1  0
 32104  1  0
 34105  1  1
 35106  1  0
 35107  1  0
 36108  1  0
 36109  1  0
 37110  1  1
 38111  1  0
 38112  1  0
 38113  1  0
 39114  1  0
 39115  1  0
 39116  1  0
 40117  1  0
 41118  1  0
 42119  1  0
 42120  1  0
 43121  1  1
 44122  1  0
 44123  1  0
 44124  1  0
 45125  1  0
 45126  1  0
 46127  1  0
 46128  1  0
 47129  1  0
 48130  1  6
 49131  1  0
 49132  1  0
 50133  1  0
 51134  1  0
 52135  1  6
 53136  1  0
 53137  1  0
 54138  1  1
 55139  1  6
 56140  1  1
M  END
>  <PDBID>  (1) 
1IHI

>  <PDB ID>  (1) 
1IHI

>  <Generic Name>  (1) 
Ursodeoxycholic acid

>  <Brand Name>  (1) 
Actigall#Dom-ursodiol C#Mint-ursodiol#Novo-ursodiol#PHL-ursodiol C#PMS-ursodiol#PMS-ursodiol C#Pendo-ursodiol C#Urso#Urso 250#Urso DS#Urso Forte#Ursodiol#Ursodiol Tablets USP#Ursodiol Tablets, 250 mg#Ursodiol Tablets, 500 mg#Ursofalk#Cholit-ursan#Delursan#Destolit#Deursil#Litursol#Solutrat#Ursacol#Ursochol#Ursolvan

>  <DrugBank ID>  (1) 
DB01586

>  <ATC Codes>  (1) 
A05AA02

>  <Ligand ID>  (1) 
IU5,JN3

>  <Target Name>  (1) 
Aldo-keto reductase family 1 member C2

>  <UniProt ID>  (1) 
P52895

>  <PDB ID.1>  (1) 
1IHI

>  <Seq. Identity>  (1) 
100%

$$$$
