PDB_DB01336_02
     RDKit          3D

  0  0  0  0  0  0  0  0  0  0999 V3000
M  V30 BEGIN CTAB
M  V30 COUNTS 960 1008 0 0 0
M  V30 BEGIN ATOM
M  V30 1 N 4.19535 -2.71136 0.679865 0 CHG=1
M  V30 2 C 5.55883 -2.30701 0.47273 0
M  V30 3 C 5.68983 -1.0951 -0.426067 0
M  V30 4 C 4.72122 -0.0883381 0.0554352 0
M  V30 5 C 3.30944 -0.586191 -0.253447 0
M  V30 6 C 3.31624 -2.08264 -0.266377 0 CFG=2
M  V30 7 C 4.76503 1.2541 -0.628216 0
M  V30 8 C 3.81249 2.18933 0.120801 0
M  V30 9 C 2.88272 1.48951 1.02726 0
M  V30 10 C 2.40091 0.110683 0.650296 0
M  V30 11 O 1.75955 2.18528 1.39723 0
M  V30 12 C 1.21221 3.13576 0.636078 0
M  V30 13 C 0.436263 4.03782 1.63807 0
M  V30 14 C -0.639705 4.75787 0.883971 0
M  V30 15 C -1.71115 3.8105 0.356329 0
M  V30 16 C -1.13271 2.49717 -0.0870963 0
M  V30 17 C 0.32552 2.73956 -0.492755 0
M  V30 18 C -1.77184 1.90104 -1.29992 0
M  V30 19 C -3.14678 1.37622 -1.17867 0 CFG=1
M  V30 20 N -3.84527 1.43427 -2.48428 0 CHG=1
M  V30 21 C -5.26447 1.2545 -2.28113 0
M  V30 22 C -5.66814 0.0833428 -1.48071 0
M  V30 23 C -4.54685 -0.688702 -0.877214 0 CFG=1
M  V30 24 C -3.40219 0.171421 -0.396002 0
M  V30 25 C -5.06379 -1.49181 0.277676 0
M  V30 26 C -4.14233 -1.42586 1.4333 0
M  V30 27 C -2.66753 -1.53514 1.12887 0
M  V30 28 C -2.28569 -0.847203 -0.200333 0
M  V30 29 O -2.36576 -1.8223 -1.14669 0
M  V30 30 C -1.27912 -2.49943 -1.55751 0
M  V30 31 C -0.729053 -3.52601 -0.614993 0
M  V30 32 C 0.382535 -4.30691 -1.28573 0
M  V30 33 C 1.55789 -3.35983 -1.56398 0
M  V30 34 C 1.00836 -2.40563 -2.61713 0
M  V30 35 C -0.180499 -1.64153 -2.11468 0
M  V30 36 C 1.9297 -2.67083 -0.282753 0
M  V30 37 O 4.72285 2.93085 0.917468 0
M  V30 38 C 4.89151 4.22585 0.524203 0
M  V30 39 O -0.0492533 3.26286 2.67991 0
M  V30 40 O -4.44132 -2.57459 2.20558 0
M  V30 41 C -4.88498 -2.19003 3.45657 0
M  V30 42 O -2.06935 -0.873685 2.20905 0
M  V30 43 C 3.8245 -2.5872 2.04981 0
M  V30 44 C -3.2585 0.642475 -3.49973 0
M  V30 45 C -3.73751 2.83475 -2.95261 0
M  V30 46 C -1.37047 -1.80019 2.97032 0
M  V30 47 C 4.17071 -4.15551 0.379842 0
M  V30 48 C 0.46118 3.68783 3.91955 0
M  V30 49 N 4.67518 -2.52825 0.520393 0 CHG=1
M  V30 50 C 5.87473 -1.76286 0.675624 0
M  V30 51 C 6.0878 -0.758357 -0.432807 0
M  V30 52 C 4.98402 0.253626 -0.425455 0 CFG=1
M  V30 53 C 3.65874 -0.333174 0.00560641 0 CFG=1
M  V30 54 C 3.60596 -1.81707 -0.121787 0 CFG=2
M  V30 55 C 5.25959 1.40405 0.52867 0
M  V30 56 C 4.00417 2.3096 0.456158 0 CFG=1
M  V30 57 C 2.99396 1.67788 1.33054 0
M  V30 58 C 3.24844 0.160192 1.37658 0
M  V30 59 O 1.69489 1.98436 1.22511 0
M  V30 60 C 1.19873 2.7942 0.277583 0
M  V30 61 C 0.524474 3.97443 0.969418 0
M  V30 62 C -0.979233 3.89569 0.864575 0
M  V30 63 C -1.40388 2.43742 1.03443 0
M  V30 64 C -0.980439 1.5647 -0.0686079 0 CFG=2
M  V30 65 C 0.289268 2.13407 -0.71739 0
M  V30 66 C -1.90172 1.2779 -1.17844 0
M  V30 67 C -3.31068 0.871056 -0.882491 0 CFG=1
M  V30 68 N -4.13105 1.7746 -1.70064 0 CHG=1
M  V30 69 C -5.51178 1.49091 -1.76722 0
M  V30 70 C -5.87463 0.0795712 -2.10888 0
M  V30 71 C -5.12851 -0.810419 -1.18774 0 CFG=1
M  V30 72 C -3.62035 -0.52292 -1.29712 0 CFG=2
M  V30 73 C -5.57208 -0.555921 0.229442 0
M  V30 74 C -4.78802 -1.27034 1.25481 0 CFG=1
M  V30 75 C -3.52593 -1.93992 0.805717 0
M  V30 76 C -3.02107 -1.64679 -0.545277 0 CFG=2
M  V30 77 O -1.63603 -1.7318 -0.554481 0
M  V30 78 C -1.1022 -2.56453 -1.50097 0
M  V30 79 C -0.726544 -3.93596 -1.02545 0
M  V30 80 C 0.480134 -3.96307 -0.132954 0
M  V30 81 C 1.70996 -3.34871 -0.790093 0
M  V30 82 C 1.33619 -2.77148 -2.11416 0
M  V30 83 C 0.126531 -1.90021 -2.08463 0
M  V30 84 C 2.23392 -2.30427 0.196716 0
M  V30 85 O 4.47962 3.53927 0.916165 0
M  V30 86 C 4.60015 4.51424 -0.0319676 0
M  V30 87 O 0.857414 4.04558 2.31998 0
M  V30 88 O -4.46571 -0.410951 2.30732 0
M  V30 89 C -5.05831 -0.721678 3.50381 0
M  V30 90 O -3.75146 -3.30967 0.941173 0
M  V30 91 C 4.33648 -3.1005 1.8028 0
M  V30 92 C -3.61981 1.82452 -3.07893 0
M  V30 93 C -4.03449 3.15567 -1.20505 0
M  V30 94 C -3.00323 -3.93825 1.88885 0
M  V30 95 C 5.03676 -3.68789 -0.320535 0
M  V30 96 C 1.42028 5.29483 2.63604 0
M  V30 97 N 4.27174 -2.30439 1.16282 0 CHG=1
M  V30 98 C 5.64866 -1.89459 1.28477 0
M  V30 99 C 6.08329 -0.865016 0.244978 0
M  V30 100 C 5.08391 0.252788 0.425704 0
M  V30 101 C 3.80038 -0.267404 -0.109314 0
M  V30 102 C 3.63648 -1.77067 0.00757319 0 CFG=2
M  V30 103 C 5.39715 1.49695 -0.325818 0
M  V30 104 C 4.22797 2.47307 -0.180641 0
M  V30 105 C 3.17254 1.94741 0.702396 0
M  V30 106 C 2.69734 0.539414 0.457948 0
M  V30 107 O 2.06137 2.72134 0.876697 0
M  V30 108 C 1.50774 3.3803 -0.152303 0
M  V30 109 C 0.924832 4.68172 0.431008 0
M  V30 110 C -0.557063 4.71312 0.353095 0
M  V30 111 C -1.23481 3.39807 0.736565 0
M  V30 112 C -0.718117 2.22158 0.0374736 0
M  V30 113 C 0.390748 2.73329 -0.900351 0
M  V30 114 C -1.55214 1.30979 -0.731402 0
M  V30 115 C -2.98357 1.12526 -0.499454 0 CFG=1
M  V30 116 N -3.80493 1.66148 -1.60258 0 CHG=1
M  V30 117 C -5.20471 1.76625 -1.20365 0
M  V30 118 C -5.49436 1.16373 0.136995 0
M  V30 119 C -4.9608 -0.250095 0.0119266 0
M  V30 120 C -3.44117 -0.182252 0.00125286 0 CFG=1
M  V30 121 C -5.47448 -1.10499 1.1358 0
M  V30 122 C -4.48935 -2.25055 1.24235 0
M  V30 123 C -3.90365 -2.56316 -0.142382 0
M  V30 124 C -2.9481 -1.45269 -0.592127 0 CFG=2
M  V30 125 O -1.69607 -1.84953 -0.1232 0
M  V30 126 C -1.2063 -2.91657 -0.859522 0
M  V30 127 C -0.650336 -4.01847 -0.000332875 0
M  V30 128 C 0.750445 -3.82781 0.460134 0
M  V30 129 C 1.71548 -3.34922 -0.591298 0
M  V30 130 C 0.940696 -3.3803 -1.90754 0
M  V30 131 C -0.245775 -2.45307 -1.91063 0
M  V30 132 C 2.20788 -2.00769 -0.202822 0
M  V30 133 O 4.81736 3.56402 0.514286 0
M  V30 134 C 4.93299 4.6894 -0.272464 0
M  V30 135 O 1.29546 4.84914 1.76561 0
M  V30 136 O -5.23098 -3.38069 1.59269 0
M  V30 137 C -4.72341 -3.99569 2.73463 0
M  V30 138 O -4.895 -2.83878 -1.0555 0
M  V30 139 C 3.6294 -2.03051 2.42078 0
M  V30 140 C -3.6668 0.930176 -2.82311 0
M  V30 141 C -3.43681 3.03871 -1.89803 0
M  V30 142 C -4.96391 -4.16708 -1.43539 0
M  V30 143 C 4.33972 -3.77467 1.06059 0
M  V30 144 C 1.98173 6.03633 1.97863 0
M  V30 145 N 4.51281 -2.29751 0.538661 0 CHG=1
M  V30 146 C 5.87269 -1.91971 0.606747 0
M  V30 147 C 6.32725 -0.947195 -0.481808 0
M  V30 148 C 5.32095 0.185675 -0.348731 0
M  V30 149 C 4.03994 -0.351637 -0.909121 0
M  V30 150 C 3.75724 -1.79018 -0.565107 0 CFG=2
M  V30 151 C 5.69235 1.41025 -1.10344 0
M  V30 152 C 4.59287 2.42336 -0.914391 0
M  V30 153 C 3.49779 1.92985 0.0365819 0
M  V30 154 C 2.94644 0.606497 -0.460034 0
M  V30 155 O 2.53248 2.91687 0.0331515 0
M  V30 156 C 1.34353 2.623 0.635392 0 CFG=1
M  V30 157 C 0.966679 3.66627 1.70409 0 CFG=1
M  V30 158 C -0.454096 4.05774 1.65606 0
M  V30 159 C -1.42973 2.93361 1.33306 0
M  V30 160 C -0.965018 1.99076 0.310644 0
M  V30 161 C 0.220566 2.70148 -0.368407 0
M  V30 162 C -1.87505 1.52803 -0.745554 0
M  V30 163 C -3.2999 1.30036 -0.459781 0 CFG=1
M  V30 164 N -4.07074 1.98746 -1.5193 0 CHG=1
M  V30 165 C -5.46409 1.63269 -1.44207 0
M  V30 166 C -5.62734 0.21003 -1.91489 0
M  V30 167 C -4.53183 -0.682822 -1.3918 0
M  V30 168 C -3.79869 -0.0592136 -0.222614 0
M  V30 169 C -5.19142 -1.95753 -0.92701 0
M  V30 170 C -5.11757 -2.1609 0.549197 0
M  V30 171 C -3.69909 -2.109 1.08108 0
M  V30 172 C -2.83698 -1.1178 0.265408 0
M  V30 173 O -2.31672 -1.79179 -0.775984 0
M  V30 174 C -1.24292 -2.57118 -0.725946 0
M  V30 175 C -0.435604 -2.71308 0.495301 0
M  V30 176 C 0.682627 -3.73213 0.230039 0
M  V30 177 C 1.65896 -3.20775 -0.800212 0
M  V30 178 C 0.829067 -3.11756 -2.07566 0
M  V30 179 C -0.332506 -2.20722 -1.90683 0
M  V30 180 C 2.25839 -1.89388 -0.383144 0
M  V30 181 O 5.10384 3.60265 -0.382534 0
M  V30 182 C 4.82484 4.69492 -1.18257 0
M  V30 183 O 1.38218 3.2305 2.97076 0
M  V30 184 O -5.59866 -3.44884 0.803816 0
M  V30 185 C -6.70911 -3.47988 1.61139 0
M  V30 186 O -3.84653 -1.66337 2.3943 0
M  V30 187 C 3.90532 -1.99231 1.84498 0
M  V30 188 C -3.50732 1.8172 -2.82226 0
M  V30 189 C -4.03368 3.4377 -1.25094 0
M  V30 190 C -3.49363 -2.6716 3.28465 0
M  V30 191 C 4.51835 -3.77403 0.493468 0
M  V30 192 C 2.40513 4.02934 3.48277 0
M  V30 193 N 4.62548 -2.56257 0.868582 0 CHG=1
M  V30 194 C 5.93388 -1.91076 1.00369 0
M  V30 195 C 6.31487 -1.11452 -0.2075 0
M  V30 196 C 5.34473 -0.0031403 -0.483307 0 CFG=1
M  V30 197 C 4.15851 -0.275881 0.453344 0
M  V30 198 C 3.75793 -1.72618 0.129772 0 CFG=2
M  V30 199 C 5.84318 1.36119 -0.15392 0
M  V30 200 C 4.75541 2.35515 -0.486683 0
M  V30 201 C 3.48755 2.09967 0.265641 0
M  V30 202 C 3.06863 0.666878 0.0896547 0
M  V30 203 O 2.46793 2.88796 -0.283991 0
M  V30 204 C 1.27563 2.79397 0.41224 0 CFG=1
M  V30 205 C 0.819987 4.23514 0.674158 0
M  V30 206 C -0.653564 4.37968 0.369311 0
M  V30 207 C -1.38511 3.16471 0.967717 0
M  V30 208 C -1.0759 1.92307 0.250968 0 CFG=2
M  V30 209 C 0.263343 2.15645 -0.481046 0
M  V30 210 C -2.01938 1.44509 -0.793972 0
M  V30 211 C -3.4432 1.28168 -0.4484 0 CFG=1
M  V30 212 N -4.21152 2.05018 -1.44776 0 CHG=1
M  V30 213 C -5.60581 1.96366 -1.00231 0
M  V30 214 C -6.14978 0.636913 -1.33607 0
M  V30 215 C -5.21792 -0.452272 -0.948222 0 CFG=1
M  V30 216 C -3.99261 -0.0489998 -0.190284 0
M  V30 217 C -6.05024 -1.43586 -0.107431 0
M  V30 218 C -5.09502 -2.38829 0.517537 0 CFG=1
M  V30 219 C -3.80363 -2.53841 -0.262696 0
M  V30 220 C -3.02586 -1.22902 -0.390132 0 CFG=2
M  V30 221 O -2.0723 -1.25244 0.541601 0
M  V30 222 C -0.899234 -1.85942 0.422074 0
M  V30 223 C -0.751401 -3.17647 1.18332 0
M  V30 224 C 0.714411 -3.33372 1.536 0
M  V30 225 C 1.62262 -3.10286 0.326257 0
M  V30 226 C 0.728653 -3.20739 -0.890977 0
M  V30 227 C -0.329718 -2.11674 -0.931375 0
M  V30 228 C 2.30589 -1.79953 0.411609 0
M  V30 229 O 5.19509 3.66878 -0.351958 0
M  V30 230 C 5.21094 4.35943 -1.55131 0
M  V30 231 O 0.988332 4.56892 2.0208 0
M  V30 232 O -4.87238 -2.18514 1.86427 0
M  V30 233 C -5.31122 -3.28208 2.58695 0
M  V30 234 O -4.06787 -3.12249 -1.47955 0
M  V30 235 C 4.18695 -2.78943 2.25076 0
M  V30 236 C -3.99751 1.60796 -2.77746 0
M  V30 237 C -3.94657 3.46395 -1.38142 0
M  V30 238 C -3.53673 -4.40413 -1.50065 0
M  V30 239 C 4.86323 -3.85957 0.262391 0
M  V30 240 C 1.79774 5.68497 2.18033 0
M  V30 241 N 4.60736 -2.36383 0.0833157 0 CHG=1
M  V30 242 C 5.98793 -1.93374 0.133302 0
M  V30 243 C 6.2941 -0.684593 -0.618633 0
M  V30 244 C 5.39687 0.360226 0.000674474 0 CFG=2
M  V30 245 C 3.99562 -0.0812236 -0.262363 0
M  V30 246 C 3.82967 -1.50671 -0.743732 0 CFG=2
M  V30 247 C 5.76727 1.69882 -0.536856 0
M  V30 248 C 4.72892 2.75824 -0.340024 0
M  V30 249 C 3.30675 2.21725 -0.38142 0
M  V30 250 C 3.4409 0.938715 -1.22414 0
M  V30 251 O 2.40128 3.09508 -0.850135 0
M  V30 252 C 1.17693 3.20496 -0.297651 0
M  V30 253 C 1.04203 3.95706 0.983877 0 CFG=1
M  V30 254 C -0.448799 4.37288 1.06067 0
M  V30 255 C -1.31349 3.11131 1.14102 0
M  V30 256 C -1.10348 2.37279 -0.137124 0 CFG=1
M  V30 257 C 0.385196 1.92965 -0.119473 0
M  V30 258 C -1.86488 1.08759 -0.244678 0
M  V30 259 C -3.35685 1.19934 -0.384173 0 CFG=1
M  V30 260 N -3.78287 1.71458 -1.6663 0 CHG=1
M  V30 261 C -5.24913 1.59115 -1.66595 0
M  V30 262 C -5.65516 0.196584 -1.9803 0
M  V30 263 C -4.92226 -0.713878 -1.06891 0 CFG=1
M  V30 264 C -4.06294 -0.0642642 -0.0323815 0
M  V30 265 C -5.99196 -1.52492 -0.337482 0
M  V30 266 C -5.55746 -1.91404 1.03136 0
M  V30 267 C -4.08142 -2.34493 0.892794 0
M  V30 268 C -3.19732 -1.1682 0.550447 0
M  V30 269 O -2.08766 -1.47608 -0.0678524 0
M  V30 270 C -1.48112 -2.61399 -0.273901 0
M  V30 271 C -0.538712 -3.08739 0.821848 0
M  V30 272 C 0.767873 -2.37351 0.785652 0
M  V30 273 C 1.66521 -2.85708 -0.367382 0
M  V30 274 C 0.628878 -3.36813 -1.39701 0
M  V30 275 C -0.539039 -2.42056 -1.48377 0
M  V30 276 C 2.41403 -1.73852 -0.938881 0
M  V30 277 O 5.00468 3.52578 0.76139 0
M  V30 278 C 5.27333 4.83721 0.416819 0
M  V30 279 O 1.26071 3.20874 2.13013 0
M  V30 280 O -6.24326 -3.12438 1.32314 0
M  V30 281 C -6.90585 -3.02053 2.53389 0
M  V30 282 O -3.79865 -2.86463 2.17974 0
M  V30 283 C 4.15531 -2.44722 1.46437 0
M  V30 284 C -3.1639 1.05811 -2.78248 0
M  V30 285 C -3.59055 3.13415 -1.84025 0
M  V30 286 C -3.69893 -4.24186 2.05639 0
M  V30 287 C 4.66863 -3.74281 -0.400642 0
M  V30 288 C 2.09159 3.90689 2.97642 0
M  V30 289 N 4.94857 -2.27538 1.11733 0 CHG=1
M  V30 290 C 6.25321 -2.14651 0.453847 0
M  V30 291 C 6.65514 -0.730282 0.260392 0
M  V30 292 C 5.51486 0.246884 0.441744 0
M  V30 293 C 4.21365 -0.266692 -0.0800983 0
M  V30 294 C 3.88955 -1.67392 0.29213 0 CFG=2
M  V30 295 C 5.90393 1.48939 -0.370912 0
M  V30 296 C 4.72299 2.30533 -0.75724 0
M  V30 297 C 3.53584 2.14064 0.165324 0
M  V30 298 C 3.13447 0.721935 0.384633 0
M  V30 299 O 2.47583 2.85402 -0.330852 0
M  V30 300 C 1.25111 2.59983 0.255151 0 CFG=1
M  V30 301 C 0.904486 3.83015 1.10292 0
M  V30 302 C -0.510907 4.2157 0.839138 0
M  V30 303 C -1.46873 3.02784 0.882904 0
M  V30 304 C -1.11028 1.93922 -0.035675 0 CFG=2
M  V30 305 C 0.164176 2.38266 -0.776939 0
M  V30 306 C -2.0614 1.5069 -1.07866 0
M  V30 307 C -3.48459 1.33076 -0.756371 0 CFG=1
M  V30 308 N -4.34892 1.93167 -1.78949 0 CHG=1
M  V30 309 C -5.61513 2.20978 -1.12374 0
M  V30 310 C -6.24934 0.980684 -0.630875 0
M  V30 311 C -5.40478 -0.250744 -0.637186 0
M  V30 312 C -3.94325 0.0158795 -0.283317 0
M  V30 313 C -6.04494 -1.16882 0.417737 0
M  V30 314 C -4.99861 -2.11177 0.863938 0
M  V30 315 C -4.06394 -2.41816 -0.304007 0 CFG=2
M  V30 316 C -3.19281 -1.2189 -0.647473 0 CFG=2
M  V30 317 O -2.01755 -1.40589 0.125126 0
M  V30 318 C -1.20273 -2.37336 -0.402714 0
M  V30 319 C -0.738715 -3.44158 0.503329 0
M  V30 320 C 0.541647 -3.13955 1.23997 0
M  V30 321 C 1.73692 -3.00469 0.306492 0
M  V30 322 C 1.22259 -2.6529 -1.0461 0
M  V30 323 C 0.0238957 -1.75745 -1.0673 0
M  V30 324 C 2.59164 -1.9138 0.942289 0
M  V30 325 O 5.01656 3.68605 -0.757463 0
M  V30 326 C 4.78012 4.27197 -1.9774 0
M  V30 327 O 1.15596 3.59185 2.4567 0
M  V30 328 O -5.58857 -3.33509 1.19804 0
M  V30 329 C -5.24017 -3.74952 2.47554 0
M  V30 330 O -4.76036 -2.93832 -1.36254 0
M  V30 331 C 4.95606 -1.79034 2.45912 0
M  V30 332 C -4.51056 1.17322 -2.97865 0
M  V30 333 C -3.8449 3.22978 -2.20107 0
M  V30 334 C -4.52248 -4.29447 -1.59099 0
M  V30 335 C 4.72076 -3.72073 1.18127 0
M  V30 336 C 2.07937 4.47326 2.98007 0
M  V30 337 N 4.35001 -2.11835 0.744023 0 CHG=1
M  V30 338 C 5.72133 -1.68321 0.858947 0
M  V30 339 C 6.17958 -0.784401 -0.29615 0
M  V30 340 C 5.29696 0.415947 -0.154873 0
M  V30 341 C 3.91985 -0.027782 -0.478543 0
M  V30 342 C 3.67914 -1.51316 -0.354685 0 CFG=2
M  V30 343 C 5.62883 1.60598 -0.961754 0
M  V30 344 C 4.39718 2.51533 -0.942704 0
M  V30 345 C 3.52614 2.24145 0.286418 0
M  V30 346 C 2.98134 0.841184 0.312009 0
M  V30 347 O 2.59751 3.2454 0.374916 0
M  V30 348 C 1.39037 2.93695 0.892287 0 CFG=1
M  V30 349 C 0.839764 3.88687 1.94043 0 CFG=1
M  V30 350 C -0.603824 4.14106 1.84996 0
M  V30 351 C -1.50526 2.97736 1.47557 0
M  V30 352 C -0.806838 1.95019 0.676394 0 CFG=2
M  V30 353 C 0.269002 2.75919 -0.0853682 0
M  V30 354 C -1.46828 1.04565 -0.229854 0
M  V30 355 C -2.9126 1.06833 -0.524781 0 CFG=1
M  V30 356 N -3.15945 1.51996 -1.90058 0 CHG=1
M  V30 357 C -4.57248 1.83397 -1.99676 0
M  V30 358 C -5.37874 0.595038 -1.92627 0
M  V30 359 C -4.85107 -0.467443 -1.04785 0
M  V30 360 C -3.72279 -0.0925391 -0.132034 0
M  V30 361 C -6.0365 -0.935187 -0.17941 0
M  V30 362 C -5.39689 -1.7454 0.921299 0
M  V30 363 C -4.11412 -2.41092 0.462662 0
M  V30 364 C -2.99282 -1.41386 0.148171 0
M  V30 365 O -2.32867 -1.85341 -0.906062 0
M  V30 366 C -1.29224 -2.69987 -0.909635 0
M  V30 367 C -0.575894 -2.97268 0.342139 0
M  V30 368 C 0.767875 -3.61604 0.213566 0
M  V30 369 C 1.6677 -3.02298 -0.824761 0
M  V30 370 C 0.837496 -3.07319 -2.11049 0
M  V30 371 C -0.313653 -2.15425 -1.95664 0
M  V30 372 C 2.2198 -1.69455 -0.496024 0
M  V30 373 O 4.73762 3.84866 -0.919138 0
M  V30 374 C 4.22115 4.57706 -1.97461 0
M  V30 375 O 1.16862 3.48779 3.23159 0
M  V30 376 O -6.28505 -2.82916 1.1387 0
M  V30 377 C -6.73307 -2.86805 2.44912 0
M  V30 378 O -3.77721 -3.23258 1.55854 0
M  V30 379 C 3.73581 -1.89806 2.02449 0
M  V30 380 C -2.74424 0.673762 -2.93371 0
M  V30 381 C -2.50479 2.82365 -2.1062 0
M  V30 382 C -3.93145 -4.56994 1.12396 0
M  V30 383 C 4.44937 -3.58148 0.587366 0
M  V30 384 C 2.02301 4.3815 3.86945 0
M  V30 385 H 6.21126 -3.08716 0.0524558 0
M  V30 386 H 6.00761 -2.01546 1.45845 0
M  V30 387 H 6.72404 -0.709552 -0.281387 0
M  V30 388 H 5.52971 -1.31809 -1.48194 0
M  V30 389 H 4.84787 0.124887 1.14564 0
M  V30 390 H 3.03499 -0.266366 -1.30803 0
M  V30 391 H 3.75265 -2.3667 -1.27555 0
M  V30 392 H 4.42062 1.09363 -1.66936 0
M  V30 393 H 5.79175 1.59951 -0.670673 0
M  V30 394 H 3.36731 2.81217 -0.677609 0
M  V30 395 H 3.45963 1.41369 2.02517 0
M  V30 396 H 1.33262 0.137966 0.335801 0
M  V30 397 H 2.32592 -0.449913 1.64308 0
M  V30 398 H 1.91922 3.89205 0.18239 0
M  V30 399 H 1.11048 4.80355 2.07217 0
M  V30 400 H -1.15151 5.43791 1.61345 0
M  V30 401 H -0.191807 5.35581 0.0888102 0
M  V30 402 H -2.42507 3.61995 1.20432 0
M  V30 403 H -2.2544 4.37345 -0.402179 0
M  V30 404 H -1.11532 1.78089 0.743223 0
M  V30 405 H 0.763591 1.93635 -1.0696 0
M  V30 406 H 0.234519 3.60458 -1.22349 0
M  V30 407 H -1.78652 2.75785 -2.05667 0
M  V30 408 H -1.0423 1.20149 -1.7551 0
M  V30 409 H -3.71449 2.23529 -0.662998 0
M  V30 410 H -5.74482 1.32446 -3.2854 0
M  V30 411 H -5.61376 2.18398 -1.74121 0
M  V30 412 H -6.23755 -0.616507 -2.15589 0
M  V30 413 H -6.41006 0.359054 -0.688144 0
M  V30 414 H -4.17882 -1.44814 -1.63065 0
M  V30 415 H -3.63361 0.507367 0.661987 0
M  V30 416 H -5.25039 -2.56138 -0.0366695 0
M  V30 417 H -6.06012 -1.12259 0.630912 0
M  V30 418 H -4.38081 -0.572062 2.13675 0
M  V30 419 H -2.42072 -2.60837 1.13175 0
M  V30 420 H -1.3038 -0.421438 -0.0358656 0
M  V30 421 H -1.62151 -3.11026 -2.45978 0
M  V30 422 H -0.277611 -3.02326 0.23284 0
M  V30 423 H -1.49436 -4.2826 -0.333886 0
M  V30 424 H 0.0625514 -4.82933 -2.19484 0
M  V30 425 H 0.74584 -5.04613 -0.531292 0
M  V30 426 H 2.36441 -3.91754 -2.04223 0
M  V30 427 H 0.675691 -3.03683 -3.46484 0
M  V30 428 H 1.74667 -1.69517 -2.98373 0
M  V30 429 H 0.0922906 -0.803541 -1.45401 0
M  V30 430 H -0.618356 -1.15024 -3.03533 0
M  V30 431 H 1.82001 -3.4121 0.535239 0
M  V30 432 H 1.24033 -1.81124 -0.165082 0
M  V30 433 H 5.65787 4.67212 1.2344 0
M  V30 434 H 3.97389 4.80447 0.753192 0
M  V30 435 H 5.20039 4.35382 -0.536317 0
M  V30 436 H -5.8017 -1.5639 3.38655 0
M  V30 437 H -5.12742 -3.13783 4.01336 0
M  V30 438 H -4.14259 -1.65081 4.06085 0
M  V30 439 H 4.21427 -1.68877 2.56949 0
M  V30 440 H 4.31531 -3.45019 2.595 0
M  V30 441 H 2.73797 -2.73487 2.23585 0
M  V30 442 H -3.38414 1.15774 -4.50322 0
M  V30 443 H -2.16194 0.640367 -3.35376 0
M  V30 444 H -3.69743 -0.350132 -3.68037 0
M  V30 445 H -4.67075 3.10736 -3.53124 0
M  V30 446 H -2.932 2.93269 -3.72135 0
M  V30 447 H -3.68027 3.54407 -2.13273 0
M  V30 448 H -0.898071 -1.28952 3.84892 0
M  V30 449 H -1.99128 -2.62913 3.35544 0
M  V30 450 H -0.517457 -2.27128 2.44153 0
M  V30 451 H 4.28614 -4.35968 -0.685853 0
M  V30 452 H 5.11823 -4.55126 0.857196 0
M  V30 453 H 3.36438 -4.67781 0.891016 0
M  V30 454 H 0.0645952 3.06247 4.71757 0
M  V30 455 H 0.155791 4.75707 4.07949 0
M  V30 456 H 1.58176 3.70914 3.90178 0
M  V30 457 H 6.75764 -2.46466 0.633056 0
M  V30 458 H 5.97689 -1.26528 1.66641 0
M  V30 459 H 7.06624 -0.285203 -0.276745 0
M  V30 460 H 6.09023 -1.31837 -1.3944 0
M  V30 461 H 4.92195 0.696519 -1.4374 0
M  V30 462 H 2.89215 0.0771227 -0.69552 0
M  V30 463 H 3.7337 -2.01274 -1.23458 0
M  V30 464 H 6.14228 1.97933 0.156952 0
M  V30 465 H 5.46723 1.08349 1.54931 0
M  V30 466 H 3.78301 2.33343 -0.629332 0
M  V30 467 H 3.28885 2.00725 2.38336 0
M  V30 468 H 2.26214 -0.294141 1.59696 0
M  V30 469 H 3.93566 -0.123058 2.16999 0
M  V30 470 H 2.01264 3.24432 -0.322364 0
M  V30 471 H 0.808218 4.94834 0.512261 0
M  V30 472 H -1.40812 4.44135 1.73627 0
M  V30 473 H -1.33815 4.2588 -0.0954985 0
M  V30 474 H -0.855893 2.129 1.97806 0
M  V30 475 H -2.45022 2.44549 1.31546 0
M  V30 476 H -0.611173 0.595715 0.373663 0
M  V30 477 H 0.844459 1.34772 -1.22236 0
M  V30 478 H 0.000552502 2.89451 -1.47282 0
M  V30 479 H -1.82416 2.16021 -1.88879 0
M  V30 480 H -1.46909 0.459769 -1.79962 0
M  V30 481 H -3.62763 1.01355 0.142915 0
M  V30 482 H -5.89284 2.1096 -2.63978 0
M  V30 483 H -6.11575 1.91481 -0.911041 0
M  V30 484 H -5.64615 -0.0867774 -3.17887 0
M  V30 485 H -6.9687 -0.0362096 -1.95535 0
M  V30 486 H -5.24847 -1.87906 -1.45303 0
M  V30 487 H -3.41266 -0.692467 -2.39763 0
M  V30 488 H -6.6629 -0.8517 0.25683 0
M  V30 489 H -5.57394 0.516476 0.451433 0
M  V30 490 H -5.49293 -2.01451 1.7452 0
M  V30 491 H -2.7031 -1.72491 1.55148 0
M  V30 492 H -3.30903 -2.56282 -1.17747 0
M  V30 493 H -1.87846 -2.72189 -2.30586 0
M  V30 494 H -1.53468 -4.47658 -0.532283 0
M  V30 495 H -0.49179 -4.52489 -1.95702 0
M  V30 496 H 0.656301 -5.04335 0.119234 0
M  V30 497 H 0.22756 -3.45877 0.812475 0
M  V30 498 H 2.43016 -4.15651 -0.950525 0
M  V30 499 H 1.14163 -3.61834 -2.80335 0
M  V30 500 H 2.1642 -2.17726 -2.5404 0
M  V30 501 H 0.400332 -0.978632 -1.51166 0
M  V30 502 H -0.113678 -1.57056 -3.09802 0
M  V30 503 H 2.09755 -2.65555 1.24378 0
M  V30 504 H 1.52977 -1.45032 0.098001 0
M  V30 505 H 5.2836 4.25929 -0.868316 0
M  V30 506 H 3.64021 4.96376 -0.347907 0
M  V30 507 H 5.13468 5.37294 0.485119 0
M  V30 508 H -6.15364 -0.716636 3.49778 0
M  V30 509 H -4.70665 -1.74043 3.84247 0
M  V30 510 H -4.66286 -0.0272069 4.27311 0
M  V30 511 H 5.30588 -3.22826 2.35323 0
M  V30 512 H 3.71693 -2.4841 2.44658 0
M  V30 513 H 3.94798 -4.13778 1.714 0
M  V30 514 H -3.20005 2.80282 -3.34171 0
M  V30 515 H -2.84908 1.06136 -3.26362 0
M  V30 516 H -4.44895 1.64616 -3.82267 0
M  V30 517 H -4.87455 3.70525 -1.73225 0
M  V30 518 H -3.12695 3.66611 -1.54587 0
M  V30 519 H -4.20025 3.1836 -0.123459 0
M  V30 520 H -3.18204 -5.01304 1.99309 0
M  V30 521 H -3.21791 -3.51078 2.91418 0
M  V30 522 H -1.91062 -3.81267 1.76175 0
M  V30 523 H 4.72381 -3.50717 -1.36925 0
M  V30 524 H 6.12705 -3.84123 -0.342891 0
M  V30 525 H 4.57774 -4.61876 0.0529735 0
M  V30 526 H 1.68943 5.37369 3.6871 0
M  V30 527 H 0.594247 6.03378 2.41264 0
M  V30 528 H 2.21991 5.53369 1.91811 0
M  V30 529 H 6.38848 -2.71036 1.22344 0
M  V30 530 H 5.85911 -1.39281 2.27606 0
M  V30 531 H 7.10873 -0.584477 0.497965 0
M  V30 532 H 5.97227 -1.25021 -0.786048 0
M  V30 533 H 5.08745 0.502703 1.50639 0
M  V30 534 H 3.80007 -0.0600539 -1.22361 0
M  V30 535 H 4.18462 -2.23751 -0.868792 0
M  V30 536 H 5.52963 1.20598 -1.41129 0
M  V30 537 H 6.35319 1.90671 -0.00458287 0
M  V30 538 H 3.9587 2.75289 -1.19956 0
M  V30 539 H 3.65075 1.90243 1.74287 0
M  V30 540 H 1.7896 0.578907 -0.177121 0
M  V30 541 H 2.30737 0.131712 1.43421 0
M  V30 542 H 2.20886 3.72551 -0.960794 0
M  V30 543 H 1.29754 5.57861 -0.104775 0
M  V30 544 H -0.901488 5.44669 1.14694 0
M  V30 545 H -0.977219 5.14551 -0.579623 0
M  V30 546 H -1.05855 3.32993 1.85781 0
M  V30 547 H -2.30034 3.63669 0.667788 0
M  V30 548 H -0.116262 1.62359 0.797835 0
M  V30 549 H 0.666418 2.01086 -1.67167 0
M  V30 550 H -0.116913 3.561 -1.48379 0
M  V30 551 H -1.40268 1.4972 -1.83806 0
M  V30 552 H -1.07416 0.282211 -0.651573 0
M  V30 553 H -3.26318 1.85181 0.334393 0
M  V30 554 H -5.80666 1.16361 -1.9479 0
M  V30 555 H -5.62529 2.76454 -1.22835 0
M  V30 556 H -6.60096 1.06745 0.21157 0
M  V30 557 H -5.16255 1.71117 1.00665 0
M  V30 558 H -5.3921 -0.624441 -0.932224 0
M  V30 559 H -3.16703 -0.252875 1.1027 0
M  V30 560 H -6.48444 -1.47481 0.846642 0
M  V30 561 H -5.51058 -0.492264 2.04591 0
M  V30 562 H -3.65711 -2.05131 1.91288 0
M  V30 563 H -3.39309 -3.53234 0.032349 0
M  V30 564 H -2.92108 -1.50569 -1.67708 0
M  V30 565 H -2.04505 -3.39455 -1.4457 0
M  V30 566 H -1.28219 -4.08631 0.909499 0
M  V30 567 H -0.726514 -5.00264 -0.507727 0
M  V30 568 H 1.12271 -4.80491 0.833193 0
M  V30 569 H 0.718913 -3.16034 1.35224 0
M  V30 570 H 2.53096 -4.10669 -0.782163 0
M  V30 571 H 0.544342 -4.41289 -2.00757 0
M  V30 572 H 1.64022 -3.1663 -2.72774 0
M  V30 573 H 0.00437979 -1.40838 -1.79773 0
M  V30 574 H -0.655976 -2.5384 -2.96261 0
M  V30 575 H 1.60293 -1.59149 0.657972 0
M  V30 576 H 1.8917 -1.32775 -1.05797 0
M  V30 577 H 5.56593 4.42587 -1.15513 0
M  V30 578 H 3.99898 5.18815 -0.543556 0
M  V30 579 H 5.58254 5.41185 0.307696 0
M  V30 580 H -5.3347 -4.86868 2.96515 0
M  V30 581 H -3.68281 -4.31665 2.48374 0
M  V30 582 H -4.68783 -3.27194 3.56857 0
M  V30 583 H 4.04417 -1.10814 2.92738 0
M  V30 584 H 3.9301 -2.84838 3.14489 0
M  V30 585 H 2.54441 -2.04383 2.40839 0
M  V30 586 H -3.83164 1.63143 -3.69663 0
M  V30 587 H -2.70272 0.468464 -3.0073 0
M  V30 588 H -4.44606 0.143446 -2.98427 0
M  V30 589 H -4.00377 3.29683 -2.84544 0
M  V30 590 H -2.39638 3.21317 -2.13289 0
M  V30 591 H -3.86297 3.74082 -1.14485 0
M  V30 592 H -5.15673 -4.76757 -0.499809 0
M  V30 593 H -5.86851 -4.34853 -2.05633 0
M  V30 594 H -4.05195 -4.56447 -1.8983 0
M  V30 595 H 4.74494 -4.10676 0.106673 0
M  V30 596 H 5.12604 -4.08461 1.82011 0
M  V30 597 H 3.43515 -4.2642 1.42396 0
M  V30 598 H 2.24263 6.10245 3.05084 0
M  V30 599 H 1.2938 6.88844 1.74054 0
M  V30 600 H 2.90718 6.07746 1.39849 0
M  V30 601 H 6.60868 -2.76313 0.56689 0
M  V30 602 H 6.13372 -1.39059 1.57158 0
M  V30 603 H 7.34257 -0.62907 -0.245476 0
M  V30 604 H 6.21859 -1.4489 -1.46966 0
M  V30 605 H 5.26499 0.414597 0.735336 0
M  V30 606 H 4.16134 -0.311977 -2.0335 0
M  V30 607 H 3.99372 -2.46999 -1.43878 0
M  V30 608 H 5.73064 1.18183 -2.20437 0
M  V30 609 H 6.67598 1.84872 -0.809483 0
M  V30 610 H 4.08671 2.68657 -1.86166 0
M  V30 611 H 3.87419 1.86175 1.07869 0
M  V30 612 H 2.35219 0.837222 -1.36409 0
M  V30 613 H 2.36281 0.205282 0.373063 0
M  V30 614 H 1.30266 1.67238 1.20249 0
M  V30 615 H 1.5907 4.55193 1.46082 0
M  V30 616 H -0.747507 4.39844 2.69482 0
M  V30 617 H -0.625801 4.95401 1.02355 0
M  V30 618 H -1.64748 2.37215 2.28988 0
M  V30 619 H -2.38703 3.47067 1.12352 0
M  V30 620 H -0.525033 1.08695 0.829481 0
M  V30 621 H 0.43866 2.27779 -1.33739 0
M  V30 622 H -0.0137385 3.77581 -0.518334 0
M  V30 623 H -1.73239 2.21865 -1.63497 0
M  V30 624 H -1.46527 0.554031 -1.14626 0
M  V30 625 H -3.5421 1.95062 0.438882 0
M  V30 626 H -6.03696 2.33242 -2.07247 0
M  V30 627 H -5.78772 1.76695 -0.386304 0
M  V30 628 H -5.59067 0.193734 -3.02173 0
M  V30 629 H -6.64543 -0.119408 -1.62227 0
M  V30 630 H -3.79618 -0.979276 -2.17106 0
M  V30 631 H -4.58728 0.00779761 0.586501 0
M  V30 632 H -4.77022 -2.86474 -1.45654 0
M  V30 633 H -6.28387 -1.99776 -1.21944 0
M  V30 634 H -5.8221 -1.49355 1.11575 0
M  V30 635 H -3.32349 -3.14415 0.994576 0
M  V30 636 H -2.12328 -0.695945 0.983621 0
M  V30 637 H -1.57583 -3.62391 -1.00114 0
M  V30 638 H -0.0438689 -1.7967 0.929737 0
M  V30 639 H -0.981399 -3.23103 1.33068 0
M  V30 640 H 0.271418 -4.67452 -0.119237 0
M  V30 641 H 1.16968 -3.90022 1.21167 0
M  V30 642 H 2.38357 -4.00694 -0.99278 0
M  V30 643 H 0.483495 -4.14958 -2.28885 0
M  V30 644 H 1.4797 -2.70991 -2.8464 0
M  V30 645 H -0.0517748 -1.15831 -1.93538 0
M  V30 646 H -0.999069 -2.3737 -2.80687 0
M  V30 647 H 1.96377 -1.73595 0.67685 0
M  V30 648 H 1.75485 -1.12457 -1.01909 0
M  V30 649 H 5.25569 5.59488 -0.705359 0
M  V30 650 H 5.24862 4.61925 -2.20598 0
M  V30 651 H 3.73362 4.85488 -1.29741 0
M  V30 652 H -7.5443 -2.91606 1.14524 0
M  V30 653 H -7.04469 -4.5309 1.67788 0
M  V30 654 H -6.49215 -3.08497 2.62596 0
M  V30 655 H 4.71493 -2.25117 2.59188 0
M  V30 656 H 3.08095 -2.6771 2.08865 0
M  V30 657 H 3.70848 -0.931978 1.98957 0
M  V30 658 H -2.97665 2.74616 -3.1903 0
M  V30 659 H -2.74632 1.02189 -2.91383 0
M  V30 660 H -4.3065 1.66154 -3.60683 0
M  V30 661 H -4.44691 3.95708 -2.15167 0
M  V30 662 H -2.97904 3.79087 -1.17746 0
M  V30 663 H -4.66092 3.71471 -0.404169 0
M  V30 664 H -3.60725 -2.34024 4.34538 0
M  V30 665 H -4.20311 -3.54537 3.19153 0
M  V30 666 H -2.47988 -3.06433 3.15764 0
M  V30 667 H 4.71933 -4.14649 -0.529969 0
M  V30 668 H 5.41262 -4.14196 1.08598 0
M  V30 669 H 3.66344 -4.20959 1.00509 0
M  V30 670 H 2.70629 3.66847 4.46452 0
M  V30 671 H 2.08456 5.11154 3.50806 0
M  V30 672 H 3.30588 4.01428 2.8293 0
M  V30 673 H 6.71164 -2.72396 1.10511 0
M  V30 674 H 6.00775 -1.3365 1.95032 0
M  V30 675 H 7.32829 -0.743597 -0.0661826 0
M  V30 676 H 6.31421 -1.79671 -1.07568 0
M  V30 677 H 4.93448 -0.0470539 -1.51208 0
M  V30 678 H 4.41691 -0.143443 1.50146 0
M  V30 679 H 3.92626 -1.90501 -0.957976 0
M  V30 680 H 6.72536 1.63001 -0.784697 0
M  V30 681 H 6.09597 1.42766 0.915758 0
M  V30 682 H 4.52627 2.21883 -1.58194 0
M  V30 683 H 3.62064 2.36305 1.35167 0
M  V30 684 H 2.83995 0.529806 -0.984762 0
M  V30 685 H 2.19867 0.520342 0.760021 0
M  V30 686 H 1.37201 2.3224 1.39347 0
M  V30 687 H 1.38271 4.95716 0.0825836 0
M  V30 688 H -1.02034 5.26429 0.929558 0
M  V30 689 H -0.872264 4.51495 -0.685362 0
M  V30 690 H -0.982 3.12667 2.02749 0
M  V30 691 H -2.41845 3.46527 1.07209 0
M  V30 692 H -0.806044 1.13326 1.01105 0
M  V30 693 H 0.538413 1.18861 -0.89763 0
M  V30 694 H 0.099247 2.8464 -1.34438 0
M  V30 695 H -1.84212 2.1083 -1.69758 0
M  V30 696 H -1.61021 0.466021 -1.15569 0
M  V30 697 H -3.60448 1.9172 0.4813 0
M  V30 698 H -6.17327 2.75142 -1.57762 0
M  V30 699 H -5.6032 2.19748 0.08101 0
M  V30 700 H -6.38713 0.62525 -2.44109 0
M  V30 701 H -7.17328 0.559637 -0.86011 0
M  V30 702 H -4.96196 -1.0172 -1.87204 0
M  V30 703 H -4.27243 -0.15692 0.90502 0
M  V30 704 H -6.8354 -1.89929 -0.728295 0
M  V30 705 H -6.54332 -0.790902 0.672198 0
M  V30 706 H -5.57386 -3.40234 0.420858 0
M  V30 707 H -3.23231 -3.28181 0.34003 0
M  V30 708 H -2.73557 -1.17903 -1.45135 0
M  V30 709 H -0.161468 -1.17078 0.945227 0
M  V30 710 H -1.32139 -3.19449 2.10817 0
M  V30 711 H -0.97055 -4.05412 0.505687 0
M  V30 712 H 0.832097 -4.34623 1.95505 0
M  V30 713 H 1.00227 -2.62802 2.35335 0
M  V30 714 H 2.30051 -3.97499 0.286409 0
M  V30 715 H 0.333452 -4.20658 -1.05423 0
M  V30 716 H 1.40133 -2.9905 -1.77293 0
M  V30 717 H 0.0912569 -1.18929 -1.41515 0
M  V30 718 H -1.07372 -2.4963 -1.67261 0
M  V30 719 H 2.16112 -1.39704 1.44456 0
M  V30 720 H 1.8312 -1.12591 -0.365879 0
M  V30 721 H 5.87235 3.90418 -2.31568 0
M  V30 722 H 5.61488 5.37021 -1.33554 0
M  V30 723 H 4.17439 4.4937 -1.87978 0
M  V30 724 H -6.41346 -3.47056 2.44223 0
M  V30 725 H -4.79793 -4.22188 2.28081 0
M  V30 726 H -5.15605 -3.16903 3.67496 0
M  V30 727 H 3.48269 -3.61686 2.3421 0
M  V30 728 H 5.11261 -3.11878 2.80925 0
M  V30 729 H 3.88046 -1.84168 2.69168 0
M  V30 730 H -3.28029 2.31577 -3.29131 0
M  V30 731 H -3.52376 0.613796 -2.87966 0
M  V30 732 H -4.93647 1.70151 -3.38324 0
M  V30 733 H -4.64998 3.92489 -2.13214 0
M  V30 734 H -2.95744 3.79971 -1.63499 0
M  V30 735 H -4.24494 3.92245 -0.411106 0
M  V30 736 H -2.43957 -4.43785 -1.3513 0
M  V30 737 H -3.72636 -4.91816 -2.47287 0
M  V30 738 H -4.02562 -4.96271 -0.655933 0
M  V30 739 H 4.45648 -3.93546 -0.765601 0
M  V30 740 H 5.96515 -4.07449 0.152198 0
M  V30 741 H 4.49756 -4.69898 0.922039 0
M  V30 742 H 1.86819 5.86603 3.27913 0
M  V30 743 H 1.37786 6.60203 1.73637 0
M  V30 744 H 2.81556 5.43806 1.83365 0
M  V30 745 H 6.71926 -2.70561 -0.231809 0
M  V30 746 H 6.34099 -1.74468 1.19198 0
M  V30 747 H 7.33973 -0.393407 -0.338733 0
M  V30 748 H 6.25344 -0.745829 -1.70017 0
M  V30 749 H 5.62449 0.344427 1.10242 0
M  V30 750 H 3.42334 0.067513 0.700707 0
M  V30 751 H 4.37131 -1.51865 -1.74277 0
M  V30 752 H 6.16634 1.66015 -1.59396 0
M  V30 753 H 6.67976 2.03092 0.0457823 0
M  V30 754 H 4.79929 3.42878 -1.24725 0
M  V30 755 H 3.04886 1.94252 0.662715 0
M  V30 756 H 4.25456 1.10767 -1.99207 0
M  V30 757 H 2.57089 0.67487 -1.78526 0
M  V30 758 H 0.55651 3.80429 -1.04985 0
M  V30 759 H 1.57639 4.91074 0.937211 0
M  V30 760 H -0.561635 4.95544 1.97719 0
M  V30 761 H -0.656281 4.94243 0.137498 0
M  V30 762 H -0.963436 2.57165 2.04222 0
M  V30 763 H -2.35083 3.43898 1.21127 0
M  V30 764 H -1.14072 3.0404 -0.98472 0
M  V30 765 H 0.440821 1.22637 -0.947001 0
M  V30 766 H 0.552183 1.50658 0.878939 0
M  V30 767 H -1.69766 0.633338 0.779825 0
M  V30 768 H -1.41313 0.524256 -1.06319 0
M  V30 769 H -3.61563 2.05487 0.324223 0
M  V30 770 H -5.70887 2.28154 -2.40153 0
M  V30 771 H -5.58878 1.87287 -0.657847 0
M  V30 772 H -5.43927 0.0118998 -3.06626 0
M  V30 773 H -6.76605 0.140363 -1.90678 0
M  V30 774 H -4.39251 -1.45724 -1.69946 0
M  V30 775 H -4.77807 0.213016 0.784803 0
M  V30 776 H -6.32176 -2.39868 -0.93878 0
M  V30 777 H -6.9111 -0.889376 -0.225501 0
M  V30 778 H -5.71601 -1.19319 1.82844 0
M  V30 779 H -4.11537 -3.13367 0.13009 0
M  V30 780 H -2.9128 -0.76582 1.57893 0
M  V30 781 H -2.07194 -3.50373 -0.559704 0
M  V30 782 H -0.976365 -2.94929 1.82929 0
M  V30 783 H -0.379495 -4.19573 0.724162 0
M  V30 784 H 1.27269 -2.58375 1.77354 0
M  V30 785 H 0.594932 -1.28627 0.73846 0
M  V30 786 H 2.19066 -3.77713 -0.100934 0
M  V30 787 H 0.345126 -4.40365 -1.21977 0
M  V30 788 H 1.15081 -3.31514 -2.37538 0
M  V30 789 H -0.108816 -1.40697 -1.51493 0
M  V30 790 H -1.06568 -2.60886 -2.41732 0
M  V30 791 H 1.80115 -0.81363 -0.673532 0
M  V30 792 H 2.22206 -1.77731 -2.06356 0
M  V30 793 H 5.48358 5.38488 1.3565 0
M  V30 794 H 6.20184 4.88226 -0.208481 0
M  V30 795 H 4.46839 5.30059 -0.184519 0
M  V30 796 H -7.66346 -2.19993 2.54923 0
M  V30 797 H -7.47127 -3.96264 2.68113 0
M  V30 798 H -6.21828 -2.934 3.39728 0
M  V30 799 H 3.69211 -3.4237 1.7155 0
M  V30 800 H 5.02327 -2.37676 2.1889 0
M  V30 801 H 3.47508 -1.65907 1.76675 0
M  V30 802 H -2.25704 1.66152 -3.09048 0
M  V30 803 H -2.7446 0.0608457 -2.53357 0
M  V30 804 H -3.79312 1.03115 -3.69396 0
M  V30 805 H -4.49256 3.64498 -2.30766 0
M  V30 806 H -2.8152 3.3511 -2.6367 0
M  V30 807 H -3.43558 3.68921 -0.910502 0
M  V30 808 H -3.47361 -4.73162 3.03187 0
M  V30 809 H -4.63281 -4.73316 1.70183 0
M  V30 810 H -2.91063 -4.59304 1.36771 0
M  V30 811 H 4.18246 -3.87941 -1.38153 0
M  V30 812 H 4.39857 -4.48802 0.372747 0
M  V30 813 H 5.74255 -4.03365 -0.631079 0
M  V30 814 H 2.29921 3.3305 3.91494 0
M  V30 815 H 1.62195 4.88791 3.28591 0
M  V30 816 H 3.0204 4.1717 2.4832 0
M  V30 817 H 6.16222 -2.70682 -0.510211 0
M  V30 818 H 6.96879 -2.698 1.07985 0
M  V30 819 H 7.47254 -0.466238 0.968694 0
M  V30 820 H 7.01698 -0.615437 -0.785152 0
M  V30 821 H 5.4521 0.623672 1.49883 0
M  V30 822 H 4.24279 -0.122609 -1.20154 0
M  V30 823 H 3.91489 -2.28382 -0.660641 0
M  V30 824 H 6.38271 1.11414 -1.32254 0
M  V30 825 H 6.67492 2.00698 0.20012 0
M  V30 826 H 4.3682 2.07675 -1.78951 0
M  V30 827 H 3.84028 2.65073 1.12787 0
M  V30 828 H 2.26253 0.48389 -0.250593 0
M  V30 829 H 2.95762 0.610217 1.47415 0
M  V30 830 H 1.22488 1.75791 0.944986 0
M  V30 831 H 1.54123 4.691 0.812502 0
M  V30 832 H -0.835279 4.89789 1.67409 0
M  V30 833 H -0.604809 4.79545 -0.081795 0
M  V30 834 H -1.39592 2.62501 1.94021 0
M  V30 835 H -2.45591 3.51254 0.744816 0
M  V30 836 H -0.775218 1.00948 0.515512 0
M  V30 837 H 0.491657 1.59418 -1.48093 0
M  V30 838 H -0.0054293 3.31668 -1.34594 0
M  V30 839 H -1.98843 2.27321 -1.91031 0
M  V30 840 H -1.65915 0.58524 -1.5469 0
M  V30 841 H -3.6754 2.04707 0.110312 0
M  V30 842 H -6.27239 2.78423 -1.83646 0
M  V30 843 H -5.37265 2.89196 -0.270394 0
M  V30 844 H -7.14647 0.76126 -1.28325 0
M  V30 845 H -6.69542 1.18615 0.380865 0
M  V30 846 H -5.50459 -0.771387 -1.58743 0
M  V30 847 H -3.96158 -0.0226858 0.856727 0
M  V30 848 H -6.88644 -1.7191 -0.037791 0
M  V30 849 H -6.49018 -0.551467 1.23387 0
M  V30 850 H -4.4012 -1.8044 1.73705 0
M  V30 851 H -3.45417 -3.28021 0.0997852 0
M  V30 852 H -2.87729 -1.34031 -1.67483 0
M  V30 853 H -1.76964 -2.85193 -1.25314 0
M  V30 854 H -1.44634 -3.79691 1.26713 0
M  V30 855 H -0.514485 -4.35063 -0.1327 0
M  V30 856 H 0.749502 -4.01227 1.89773 0
M  V30 857 H 0.38647 -2.2599 1.87159 0
M  V30 858 H 2.261 -3.97352 0.225762 0
M  V30 859 H 0.936566 -3.60962 -1.55749 0
M  V30 860 H 1.98767 -2.1869 -1.70159 0
M  V30 861 H 0.277433 -0.797344 -0.621361 0
M  V30 862 H -0.178615 -1.54366 -2.15851 0
M  V30 863 H 2.73113 -2.26283 2.0103 0
M  V30 864 H 1.90258 -1.05404 1.02897 0
M  V30 865 H 5.40454 3.80978 -2.79738 0
M  V30 866 H 5.12335 5.32475 -1.90733 0
M  V30 867 H 3.71163 4.30377 -2.26859 0
M  V30 868 H -5.7517 -4.71924 2.64702 0
M  V30 869 H -4.14047 -3.99869 2.4512 0
M  V30 870 H -5.48157 -3.03513 3.26057 0
M  V30 871 H 5.97794 -1.37926 2.70793 0
M  V30 872 H 4.81917 -2.61128 3.22376 0
M  V30 873 H 4.20779 -1.03651 2.6997 0
M  V30 874 H -4.23659 1.74938 -3.92044 0
M  V30 875 H -3.94436 0.25458 -3.07568 0
M  V30 876 H -5.62527 1.0395 -3.13384 0
M  V30 877 H -3.29737 3.15191 -3.18869 0
M  V30 878 H -3.31252 3.79078 -1.44851 0
M  V30 879 H -4.7439 3.85796 -2.48499 0
M  V30 880 H -3.44688 -4.45984 -1.8038 0
M  V30 881 H -4.74883 -4.90851 -0.694226 0
M  V30 882 H -5.06186 -4.65236 -2.49096 0
M  V30 883 H 4.64197 -4.17977 0.187232 0
M  V30 884 H 5.69027 -4.12603 1.60208 0
M  V30 885 H 3.95946 -4.00139 1.90826 0
M  V30 886 H 2.2241 4.22144 4.04812 0
M  V30 887 H 1.67779 5.52145 2.97903 0
M  V30 888 H 3.04391 4.4926 2.44077 0
M  V30 889 H 6.46275 -2.4836 0.927533 0
M  V30 890 H 5.88473 -1.04514 1.77816 0
M  V30 891 H 7.21771 -0.523071 -0.0805616 0
M  V30 892 H 6.07103 -1.27758 -1.26985 0
M  V30 893 H 5.35827 0.709811 0.935734 0
M  V30 894 H 3.73207 0.229411 -1.56342 0
M  V30 895 H 4.1486 -1.96578 -1.28223 0
M  V30 896 H 5.78741 1.31004 -2.0132 0
M  V30 897 H 6.5183 2.13185 -0.563725 0
M  V30 898 H 3.76689 2.35302 -1.84183 0
M  V30 899 H 4.22773 2.38712 1.16108 0
M  V30 900 H 1.98164 0.713099 -0.0805448 0
M  V30 901 H 2.94561 0.539669 1.39436 0
M  V30 902 H 1.50031 1.96131 1.45846 0
M  V30 903 H 1.3772 4.85414 1.77259 0
M  V30 904 H -0.945855 4.53122 2.85536 0
M  V30 905 H -0.784681 5.02543 1.16861 0
M  V30 906 H -1.88253 2.52932 2.44396 0
M  V30 907 H -2.39123 3.45404 1.03468 0
M  V30 908 H -0.25228 1.34128 1.46832 0
M  V30 909 H 0.513369 2.32655 -1.04351 0
M  V30 910 H -0.117188 3.79749 -0.313518 0
M  V30 911 H -0.93067 1.05688 -1.23094 0
M  V30 912 H -1.25762 -0.0239542 0.092772 0
M  V30 913 H -3.32478 1.96544 0.0448924 0
M  V30 914 H -4.78918 2.40417 -2.92357 0
M  V30 915 H -4.79986 2.52233 -1.14716 0
M  V30 916 H -5.47775 0.195055 -2.9796 0
M  V30 917 H -6.43886 0.90909 -1.68391 0
M  V30 918 H -4.61228 -1.40008 -1.6441 0
M  V30 919 H -4.1805 0.122008 0.886748 0
M  V30 920 H -6.72991 -1.54036 -0.799007 0
M  V30 921 H -6.57364 -0.0347596 0.212289 0
M  V30 922 H -5.31595 -1.23321 1.87915 0
M  V30 923 H -4.3946 -3.01463 -0.425242 0
M  V30 924 H -2.45659 -1.30318 1.10762 0
M  V30 925 H -1.63264 -3.68826 -1.34042 0
M  V30 926 H -0.460477 -2.10078 1.02238 0
M  V30 927 H -1.1762 -3.71886 0.928642 0
M  V30 928 H 0.668519 -4.70024 -0.00483003 0
M  V30 929 H 1.27551 -3.54077 1.19721 0
M  V30 930 H 2.47458 -3.77314 -1.04012 0
M  V30 931 H 0.423413 -4.12442 -2.13733 0
M  V30 932 H 1.48448 -2.86493 -2.96026 0
M  V30 933 H -0.0745656 -1.13702 -1.65293 0
M  V30 934 H -0.86771 -2.03904 -2.93859 0
M  V30 935 H 1.62268 -1.24537 0.337071 0
M  V30 936 H 1.932 -1.04193 -1.38404 0
M  V30 937 H 4.5479 4.22301 -2.95959 0
M  V30 938 H 3.11503 4.68293 -1.88265 0
M  V30 939 H 4.61653 5.62307 -1.85659 0
M  V30 940 H -7.41336 -3.72894 2.54314 0
M  V30 941 H -5.88233 -3.00244 3.15319 0
M  V30 942 H -7.23747 -1.93086 2.75687 0
M  V30 943 H 4.27802 -1.06505 2.56025 0
M  V30 944 H 3.93342 -2.78476 2.68886 0
M  V30 945 H 2.66071 -1.76052 2.01247 0
M  V30 946 H -2.61892 1.31684 -3.86013 0
M  V30 947 H -1.79742 0.161499 -2.82902 0
M  V30 948 H -3.48576 -0.0928675 -3.2863 0
M  V30 949 H -3.02328 3.22808 -3.0291 0
M  V30 950 H -1.46469 2.72076 -2.39326 0
M  V30 951 H -2.74527 3.54267 -1.32046 0
M  V30 952 H -3.69138 -5.28763 1.90815 0
M  V30 953 H -4.96855 -4.71338 0.71537 0
M  V30 954 H -3.24342 -4.74123 0.270805 0
M  V30 955 H 4.76796 -3.88188 -0.408444 0
M  V30 956 H 5.30362 -3.90873 1.26212 0
M  V30 957 H 3.59447 -4.10867 1.02476 0
M  V30 958 H 2.2209 3.97612 4.87836 0
M  V30 959 H 1.50409 5.36415 3.90505 0
M  V30 960 H 2.92445 4.5044 3.24988 0
M  V30 END ATOM
M  V30 BEGIN BOND
M  V30 1 1 1 2
M  V30 2 1 2 3
M  V30 3 1 3 4
M  V30 4 1 4 5
M  V30 5 1 1 6
M  V30 6 1 5 6
M  V30 7 1 4 7
M  V30 8 1 7 8
M  V30 9 1 8 9
M  V30 10 1 5 10
M  V30 11 1 9 10
M  V30 12 1 9 11
M  V30 13 1 11 12
M  V30 14 1 12 13
M  V30 15 1 13 14
M  V30 16 1 14 15
M  V30 17 1 15 16
M  V30 18 1 12 17
M  V30 19 1 16 17
M  V30 20 1 16 18
M  V30 21 1 18 19
M  V30 22 1 19 20
M  V30 23 1 20 21
M  V30 24 1 21 22
M  V30 25 1 22 23
M  V30 26 1 19 24
M  V30 27 1 23 24
M  V30 28 1 23 25
M  V30 29 1 25 26
M  V30 30 1 26 27
M  V30 31 1 24 28
M  V30 32 1 27 28
M  V30 33 1 28 29
M  V30 34 1 29 30
M  V30 35 1 30 31
M  V30 36 1 31 32
M  V30 37 1 32 33
M  V30 38 1 33 34
M  V30 39 1 30 35
M  V30 40 1 34 35
M  V30 41 1 6 36
M  V30 42 1 33 36
M  V30 43 1 8 37
M  V30 44 1 37 38
M  V30 45 1 13 39
M  V30 46 1 26 40
M  V30 47 1 40 41
M  V30 48 1 27 42
M  V30 49 1 1 43
M  V30 50 1 20 44
M  V30 51 1 20 45
M  V30 52 1 42 46
M  V30 53 1 1 47
M  V30 54 1 39 48
M  V30 55 1 49 50
M  V30 56 1 50 51
M  V30 57 1 51 52
M  V30 58 1 52 53
M  V30 59 1 49 54
M  V30 60 1 53 54
M  V30 61 1 52 55
M  V30 62 1 55 56
M  V30 63 1 56 57
M  V30 64 1 53 58
M  V30 65 1 57 58
M  V30 66 1 57 59
M  V30 67 1 59 60
M  V30 68 1 60 61
M  V30 69 1 61 62
M  V30 70 1 62 63
M  V30 71 1 63 64
M  V30 72 1 60 65
M  V30 73 1 64 65
M  V30 74 1 64 66
M  V30 75 1 66 67
M  V30 76 1 67 68
M  V30 77 1 68 69
M  V30 78 1 69 70
M  V30 79 1 70 71
M  V30 80 1 67 72
M  V30 81 1 71 72
M  V30 82 1 71 73
M  V30 83 1 73 74
M  V30 84 1 74 75
M  V30 85 1 72 76
M  V30 86 1 75 76
M  V30 87 1 76 77
M  V30 88 1 77 78
M  V30 89 1 78 79
M  V30 90 1 79 80
M  V30 91 1 80 81
M  V30 92 1 81 82
M  V30 93 1 78 83
M  V30 94 1 82 83
M  V30 95 1 54 84
M  V30 96 1 81 84
M  V30 97 1 56 85
M  V30 98 1 85 86
M  V30 99 1 61 87
M  V30 100 1 74 88
M  V30 101 1 88 89
M  V30 102 1 75 90
M  V30 103 1 49 91
M  V30 104 1 68 92
M  V30 105 1 68 93
M  V30 106 1 90 94
M  V30 107 1 49 95
M  V30 108 1 87 96
M  V30 109 1 97 98
M  V30 110 1 98 99
M  V30 111 1 99 100
M  V30 112 1 100 101
M  V30 113 1 97 102
M  V30 114 1 101 102
M  V30 115 1 100 103
M  V30 116 1 103 104
M  V30 117 1 104 105
M  V30 118 1 101 106
M  V30 119 1 105 106
M  V30 120 1 105 107
M  V30 121 1 107 108
M  V30 122 1 108 109
M  V30 123 1 109 110
M  V30 124 1 110 111
M  V30 125 1 111 112
M  V30 126 1 108 113
M  V30 127 1 112 113
M  V30 128 1 112 114
M  V30 129 1 114 115
M  V30 130 1 115 116
M  V30 131 1 116 117
M  V30 132 1 117 118
M  V30 133 1 118 119
M  V30 134 1 115 120
M  V30 135 1 119 120
M  V30 136 1 119 121
M  V30 137 1 121 122
M  V30 138 1 122 123
M  V30 139 1 120 124
M  V30 140 1 123 124
M  V30 141 1 124 125
M  V30 142 1 125 126
M  V30 143 1 126 127
M  V30 144 1 127 128
M  V30 145 1 128 129
M  V30 146 1 129 130
M  V30 147 1 126 131
M  V30 148 1 130 131
M  V30 149 1 102 132
M  V30 150 1 129 132
M  V30 151 1 104 133
M  V30 152 1 133 134
M  V30 153 1 109 135
M  V30 154 1 122 136
M  V30 155 1 136 137
M  V30 156 1 123 138
M  V30 157 1 97 139
M  V30 158 1 116 140
M  V30 159 1 116 141
M  V30 160 1 138 142
M  V30 161 1 97 143
M  V30 162 1 135 144
M  V30 163 1 145 146
M  V30 164 1 146 147
M  V30 165 1 147 148
M  V30 166 1 148 149
M  V30 167 1 145 150
M  V30 168 1 149 150
M  V30 169 1 148 151
M  V30 170 1 151 152
M  V30 171 1 152 153
M  V30 172 1 149 154
M  V30 173 1 153 154
M  V30 174 1 153 155
M  V30 175 1 155 156
M  V30 176 1 156 157
M  V30 177 1 157 158
M  V30 178 1 158 159
M  V30 179 1 159 160
M  V30 180 1 156 161
M  V30 181 1 160 161
M  V30 182 1 160 162
M  V30 183 1 162 163
M  V30 184 1 163 164
M  V30 185 1 164 165
M  V30 186 1 165 166
M  V30 187 1 166 167
M  V30 188 1 163 168
M  V30 189 1 167 168
M  V30 190 1 167 169
M  V30 191 1 169 170
M  V30 192 1 170 171
M  V30 193 1 168 172
M  V30 194 1 171 172
M  V30 195 1 172 173
M  V30 196 1 173 174
M  V30 197 1 174 175
M  V30 198 1 175 176
M  V30 199 1 176 177
M  V30 200 1 177 178
M  V30 201 1 174 179
M  V30 202 1 178 179
M  V30 203 1 150 180
M  V30 204 1 177 180
M  V30 205 1 152 181
M  V30 206 1 181 182
M  V30 207 1 157 183
M  V30 208 1 170 184
M  V30 209 1 184 185
M  V30 210 1 171 186
M  V30 211 1 145 187
M  V30 212 1 164 188
M  V30 213 1 164 189
M  V30 214 1 186 190
M  V30 215 1 145 191
M  V30 216 1 183 192
M  V30 217 1 193 194
M  V30 218 1 194 195
M  V30 219 1 195 196
M  V30 220 1 196 197
M  V30 221 1 193 198
M  V30 222 1 197 198
M  V30 223 1 196 199
M  V30 224 1 199 200
M  V30 225 1 200 201
M  V30 226 1 197 202
M  V30 227 1 201 202
M  V30 228 1 201 203
M  V30 229 1 203 204
M  V30 230 1 204 205
M  V30 231 1 205 206
M  V30 232 1 206 207
M  V30 233 1 207 208
M  V30 234 1 204 209
M  V30 235 1 208 209
M  V30 236 1 208 210
M  V30 237 1 210 211
M  V30 238 1 211 212
M  V30 239 1 212 213
M  V30 240 1 213 214
M  V30 241 1 214 215
M  V30 242 1 211 216
M  V30 243 1 215 216
M  V30 244 1 215 217
M  V30 245 1 217 218
M  V30 246 1 218 219
M  V30 247 1 216 220
M  V30 248 1 219 220
M  V30 249 1 220 221
M  V30 250 1 221 222
M  V30 251 1 222 223
M  V30 252 1 223 224
M  V30 253 1 224 225
M  V30 254 1 225 226
M  V30 255 1 222 227
M  V30 256 1 226 227
M  V30 257 1 198 228
M  V30 258 1 225 228
M  V30 259 1 200 229
M  V30 260 1 229 230
M  V30 261 1 205 231
M  V30 262 1 218 232
M  V30 263 1 232 233
M  V30 264 1 219 234
M  V30 265 1 193 235
M  V30 266 1 212 236
M  V30 267 1 212 237
M  V30 268 1 234 238
M  V30 269 1 193 239
M  V30 270 1 231 240
M  V30 271 1 241 242
M  V30 272 1 242 243
M  V30 273 1 243 244
M  V30 274 1 244 245
M  V30 275 1 241 246
M  V30 276 1 245 246
M  V30 277 1 244 247
M  V30 278 1 247 248
M  V30 279 1 248 249
M  V30 280 1 245 250
M  V30 281 1 249 250
M  V30 282 1 249 251
M  V30 283 1 251 252
M  V30 284 1 252 253
M  V30 285 1 253 254
M  V30 286 1 254 255
M  V30 287 1 255 256
M  V30 288 1 252 257
M  V30 289 1 256 257
M  V30 290 1 256 258
M  V30 291 1 258 259
M  V30 292 1 259 260
M  V30 293 1 260 261
M  V30 294 1 261 262
M  V30 295 1 262 263
M  V30 296 1 259 264
M  V30 297 1 263 264
M  V30 298 1 263 265
M  V30 299 1 265 266
M  V30 300 1 266 267
M  V30 301 1 264 268
M  V30 302 1 267 268
M  V30 303 1 268 269
M  V30 304 1 269 270
M  V30 305 1 270 271
M  V30 306 1 271 272
M  V30 307 1 272 273
M  V30 308 1 273 274
M  V30 309 1 270 275
M  V30 310 1 274 275
M  V30 311 1 246 276
M  V30 312 1 273 276
M  V30 313 1 248 277
M  V30 314 1 277 278
M  V30 315 1 253 279
M  V30 316 1 266 280
M  V30 317 1 280 281
M  V30 318 1 267 282
M  V30 319 1 241 283
M  V30 320 1 260 284
M  V30 321 1 260 285
M  V30 322 1 282 286
M  V30 323 1 241 287
M  V30 324 1 279 288
M  V30 325 1 289 290
M  V30 326 1 290 291
M  V30 327 1 291 292
M  V30 328 1 292 293
M  V30 329 1 289 294
M  V30 330 1 293 294
M  V30 331 1 292 295
M  V30 332 1 295 296
M  V30 333 1 296 297
M  V30 334 1 293 298
M  V30 335 1 297 298
M  V30 336 1 297 299
M  V30 337 1 299 300
M  V30 338 1 300 301
M  V30 339 1 301 302
M  V30 340 1 302 303
M  V30 341 1 303 304
M  V30 342 1 300 305
M  V30 343 1 304 305
M  V30 344 1 304 306
M  V30 345 1 306 307
M  V30 346 1 307 308
M  V30 347 1 308 309
M  V30 348 1 309 310
M  V30 349 1 310 311
M  V30 350 1 307 312
M  V30 351 1 311 312
M  V30 352 1 311 313
M  V30 353 1 313 314
M  V30 354 1 314 315
M  V30 355 1 312 316
M  V30 356 1 315 316
M  V30 357 1 316 317
M  V30 358 1 317 318
M  V30 359 1 318 319
M  V30 360 1 319 320
M  V30 361 1 320 321
M  V30 362 1 321 322
M  V30 363 1 318 323
M  V30 364 1 322 323
M  V30 365 1 294 324
M  V30 366 1 321 324
M  V30 367 1 296 325
M  V30 368 1 325 326
M  V30 369 1 301 327
M  V30 370 1 314 328
M  V30 371 1 328 329
M  V30 372 1 315 330
M  V30 373 1 289 331
M  V30 374 1 308 332
M  V30 375 1 308 333
M  V30 376 1 330 334
M  V30 377 1 289 335
M  V30 378 1 327 336
M  V30 379 1 337 338
M  V30 380 1 338 339
M  V30 381 1 339 340
M  V30 382 1 340 341
M  V30 383 1 337 342
M  V30 384 1 341 342
M  V30 385 1 340 343
M  V30 386 1 343 344
M  V30 387 1 344 345
M  V30 388 1 341 346
M  V30 389 1 345 346
M  V30 390 1 345 347
M  V30 391 1 347 348
M  V30 392 1 348 349
M  V30 393 1 349 350
M  V30 394 1 350 351
M  V30 395 1 351 352
M  V30 396 1 348 353
M  V30 397 1 352 353
M  V30 398 1 352 354
M  V30 399 1 354 355
M  V30 400 1 355 356
M  V30 401 1 356 357
M  V30 402 1 357 358
M  V30 403 1 358 359
M  V30 404 1 355 360
M  V30 405 1 359 360
M  V30 406 1 359 361
M  V30 407 1 361 362
M  V30 408 1 362 363
M  V30 409 1 360 364
M  V30 410 1 363 364
M  V30 411 1 364 365
M  V30 412 1 365 366
M  V30 413 1 366 367
M  V30 414 1 367 368
M  V30 415 1 368 369
M  V30 416 1 369 370
M  V30 417 1 366 371
M  V30 418 1 370 371
M  V30 419 1 342 372
M  V30 420 1 369 372
M  V30 421 1 344 373
M  V30 422 1 373 374
M  V30 423 1 349 375
M  V30 424 1 362 376
M  V30 425 1 376 377
M  V30 426 1 363 378
M  V30 427 1 337 379
M  V30 428 1 356 380
M  V30 429 1 356 381
M  V30 430 1 378 382
M  V30 431 1 337 383
M  V30 432 1 375 384
M  V30 433 1 2 385
M  V30 434 1 2 386
M  V30 435 1 3 387
M  V30 436 1 3 388
M  V30 437 1 4 389
M  V30 438 1 5 390
M  V30 439 1 6 391 CFG=3
M  V30 440 1 7 392
M  V30 441 1 7 393
M  V30 442 1 8 394
M  V30 443 1 9 395
M  V30 444 1 10 396
M  V30 445 1 10 397
M  V30 446 1 12 398
M  V30 447 1 13 399
M  V30 448 1 14 400
M  V30 449 1 14 401
M  V30 450 1 15 402
M  V30 451 1 15 403
M  V30 452 1 16 404
M  V30 453 1 17 405
M  V30 454 1 17 406
M  V30 455 1 18 407
M  V30 456 1 18 408
M  V30 457 1 19 409 CFG=1
M  V30 458 1 21 410
M  V30 459 1 21 411
M  V30 460 1 22 412
M  V30 461 1 22 413
M  V30 462 1 23 414 CFG=3
M  V30 463 1 24 415
M  V30 464 1 25 416
M  V30 465 1 25 417
M  V30 466 1 26 418
M  V30 467 1 27 419
M  V30 468 1 28 420
M  V30 469 1 30 421
M  V30 470 1 31 422
M  V30 471 1 31 423
M  V30 472 1 32 424
M  V30 473 1 32 425
M  V30 474 1 33 426
M  V30 475 1 34 427
M  V30 476 1 34 428
M  V30 477 1 35 429
M  V30 478 1 35 430
M  V30 479 1 36 431
M  V30 480 1 36 432
M  V30 481 1 38 433
M  V30 482 1 38 434
M  V30 483 1 38 435
M  V30 484 1 41 436
M  V30 485 1 41 437
M  V30 486 1 41 438
M  V30 487 1 43 439
M  V30 488 1 43 440
M  V30 489 1 43 441
M  V30 490 1 44 442
M  V30 491 1 44 443
M  V30 492 1 44 444
M  V30 493 1 45 445
M  V30 494 1 45 446
M  V30 495 1 45 447
M  V30 496 1 46 448
M  V30 497 1 46 449
M  V30 498 1 46 450
M  V30 499 1 47 451
M  V30 500 1 47 452
M  V30 501 1 47 453
M  V30 502 1 48 454
M  V30 503 1 48 455
M  V30 504 1 48 456
M  V30 505 1 50 457
M  V30 506 1 50 458
M  V30 507 1 51 459
M  V30 508 1 51 460
M  V30 509 1 52 461 CFG=3
M  V30 510 1 53 462 CFG=3
M  V30 511 1 54 463 CFG=3
M  V30 512 1 55 464
M  V30 513 1 55 465
M  V30 514 1 56 466 CFG=3
M  V30 515 1 57 467
M  V30 516 1 58 468
M  V30 517 1 58 469
M  V30 518 1 60 470
M  V30 519 1 61 471
M  V30 520 1 62 472
M  V30 521 1 62 473
M  V30 522 1 63 474
M  V30 523 1 63 475
M  V30 524 1 64 476 CFG=1
M  V30 525 1 65 477
M  V30 526 1 65 478
M  V30 527 1 66 479
M  V30 528 1 66 480
M  V30 529 1 67 481 CFG=1
M  V30 530 1 69 482
M  V30 531 1 69 483
M  V30 532 1 70 484
M  V30 533 1 70 485
M  V30 534 1 71 486 CFG=3
M  V30 535 1 72 487 CFG=3
M  V30 536 1 73 488
M  V30 537 1 73 489
M  V30 538 1 74 490 CFG=1
M  V30 539 1 75 491
M  V30 540 1 76 492 CFG=3
M  V30 541 1 78 493
M  V30 542 1 79 494
M  V30 543 1 79 495
M  V30 544 1 80 496
M  V30 545 1 80 497
M  V30 546 1 81 498
M  V30 547 1 82 499
M  V30 548 1 82 500
M  V30 549 1 83 501
M  V30 550 1 83 502
M  V30 551 1 84 503
M  V30 552 1 84 504
M  V30 553 1 86 505
M  V30 554 1 86 506
M  V30 555 1 86 507
M  V30 556 1 89 508
M  V30 557 1 89 509
M  V30 558 1 89 510
M  V30 559 1 91 511
M  V30 560 1 91 512
M  V30 561 1 91 513
M  V30 562 1 92 514
M  V30 563 1 92 515
M  V30 564 1 92 516
M  V30 565 1 93 517
M  V30 566 1 93 518
M  V30 567 1 93 519
M  V30 568 1 94 520
M  V30 569 1 94 521
M  V30 570 1 94 522
M  V30 571 1 95 523
M  V30 572 1 95 524
M  V30 573 1 95 525
M  V30 574 1 96 526
M  V30 575 1 96 527
M  V30 576 1 96 528
M  V30 577 1 98 529
M  V30 578 1 98 530
M  V30 579 1 99 531
M  V30 580 1 99 532
M  V30 581 1 100 533
M  V30 582 1 101 534
M  V30 583 1 102 535 CFG=3
M  V30 584 1 103 536
M  V30 585 1 103 537
M  V30 586 1 104 538
M  V30 587 1 105 539
M  V30 588 1 106 540
M  V30 589 1 106 541
M  V30 590 1 108 542
M  V30 591 1 109 543
M  V30 592 1 110 544
M  V30 593 1 110 545
M  V30 594 1 111 546
M  V30 595 1 111 547
M  V30 596 1 112 548
M  V30 597 1 113 549
M  V30 598 1 113 550
M  V30 599 1 114 551
M  V30 600 1 114 552
M  V30 601 1 115 553 CFG=1
M  V30 602 1 117 554
M  V30 603 1 117 555
M  V30 604 1 118 556
M  V30 605 1 118 557
M  V30 606 1 119 558
M  V30 607 1 120 559 CFG=1
M  V30 608 1 121 560
M  V30 609 1 121 561
M  V30 610 1 122 562
M  V30 611 1 123 563
M  V30 612 1 124 564 CFG=3
M  V30 613 1 126 565
M  V30 614 1 127 566
M  V30 615 1 127 567
M  V30 616 1 128 568
M  V30 617 1 128 569
M  V30 618 1 129 570
M  V30 619 1 130 571
M  V30 620 1 130 572
M  V30 621 1 131 573
M  V30 622 1 131 574
M  V30 623 1 132 575
M  V30 624 1 132 576
M  V30 625 1 134 577
M  V30 626 1 134 578
M  V30 627 1 134 579
M  V30 628 1 137 580
M  V30 629 1 137 581
M  V30 630 1 137 582
M  V30 631 1 139 583
M  V30 632 1 139 584
M  V30 633 1 139 585
M  V30 634 1 140 586
M  V30 635 1 140 587
M  V30 636 1 140 588
M  V30 637 1 141 589
M  V30 638 1 141 590
M  V30 639 1 141 591
M  V30 640 1 142 592
M  V30 641 1 142 593
M  V30 642 1 142 594
M  V30 643 1 143 595
M  V30 644 1 143 596
M  V30 645 1 143 597
M  V30 646 1 144 598
M  V30 647 1 144 599
M  V30 648 1 144 600
M  V30 649 1 146 601
M  V30 650 1 146 602
M  V30 651 1 147 603
M  V30 652 1 147 604
M  V30 653 1 148 605
M  V30 654 1 149 606
M  V30 655 1 150 607 CFG=3
M  V30 656 1 151 608
M  V30 657 1 151 609
M  V30 658 1 152 610
M  V30 659 1 153 611
M  V30 660 1 154 612
M  V30 661 1 154 613
M  V30 662 1 156 614 CFG=1
M  V30 663 1 157 615 CFG=3
M  V30 664 1 158 616
M  V30 665 1 158 617
M  V30 666 1 159 618
M  V30 667 1 159 619
M  V30 668 1 160 620
M  V30 669 1 161 621
M  V30 670 1 161 622
M  V30 671 1 162 623
M  V30 672 1 162 624
M  V30 673 1 163 625 CFG=1
M  V30 674 1 165 626
M  V30 675 1 165 627
M  V30 676 1 166 628
M  V30 677 1 166 629
M  V30 678 1 167 630
M  V30 679 1 168 631
M  V30 680 1 169 632
M  V30 681 1 169 633
M  V30 682 1 170 634
M  V30 683 1 171 635
M  V30 684 1 172 636
M  V30 685 1 174 637
M  V30 686 1 175 638
M  V30 687 1 175 639
M  V30 688 1 176 640
M  V30 689 1 176 641
M  V30 690 1 177 642
M  V30 691 1 178 643
M  V30 692 1 178 644
M  V30 693 1 179 645
M  V30 694 1 179 646
M  V30 695 1 180 647
M  V30 696 1 180 648
M  V30 697 1 182 649
M  V30 698 1 182 650
M  V30 699 1 182 651
M  V30 700 1 185 652
M  V30 701 1 185 653
M  V30 702 1 185 654
M  V30 703 1 187 655
M  V30 704 1 187 656
M  V30 705 1 187 657
M  V30 706 1 188 658
M  V30 707 1 188 659
M  V30 708 1 188 660
M  V30 709 1 189 661
M  V30 710 1 189 662
M  V30 711 1 189 663
M  V30 712 1 190 664
M  V30 713 1 190 665
M  V30 714 1 190 666
M  V30 715 1 191 667
M  V30 716 1 191 668
M  V30 717 1 191 669
M  V30 718 1 192 670
M  V30 719 1 192 671
M  V30 720 1 192 672
M  V30 721 1 194 673
M  V30 722 1 194 674
M  V30 723 1 195 675
M  V30 724 1 195 676
M  V30 725 1 196 677 CFG=3
M  V30 726 1 197 678
M  V30 727 1 198 679 CFG=3
M  V30 728 1 199 680
M  V30 729 1 199 681
M  V30 730 1 200 682
M  V30 731 1 201 683
M  V30 732 1 202 684
M  V30 733 1 202 685
M  V30 734 1 204 686 CFG=1
M  V30 735 1 205 687
M  V30 736 1 206 688
M  V30 737 1 206 689
M  V30 738 1 207 690
M  V30 739 1 207 691
M  V30 740 1 208 692 CFG=1
M  V30 741 1 209 693
M  V30 742 1 209 694
M  V30 743 1 210 695
M  V30 744 1 210 696
M  V30 745 1 211 697 CFG=1
M  V30 746 1 213 698
M  V30 747 1 213 699
M  V30 748 1 214 700
M  V30 749 1 214 701
M  V30 750 1 215 702 CFG=3
M  V30 751 1 216 703
M  V30 752 1 217 704
M  V30 753 1 217 705
M  V30 754 1 218 706 CFG=1
M  V30 755 1 219 707
M  V30 756 1 220 708 CFG=3
M  V30 757 1 222 709
M  V30 758 1 223 710
M  V30 759 1 223 711
M  V30 760 1 224 712
M  V30 761 1 224 713
M  V30 762 1 225 714
M  V30 763 1 226 715
M  V30 764 1 226 716
M  V30 765 1 227 717
M  V30 766 1 227 718
M  V30 767 1 228 719
M  V30 768 1 228 720
M  V30 769 1 230 721
M  V30 770 1 230 722
M  V30 771 1 230 723
M  V30 772 1 233 724
M  V30 773 1 233 725
M  V30 774 1 233 726
M  V30 775 1 235 727
M  V30 776 1 235 728
M  V30 777 1 235 729
M  V30 778 1 236 730
M  V30 779 1 236 731
M  V30 780 1 236 732
M  V30 781 1 237 733
M  V30 782 1 237 734
M  V30 783 1 237 735
M  V30 784 1 238 736
M  V30 785 1 238 737
M  V30 786 1 238 738
M  V30 787 1 239 739
M  V30 788 1 239 740
M  V30 789 1 239 741
M  V30 790 1 240 742
M  V30 791 1 240 743
M  V30 792 1 240 744
M  V30 793 1 242 745
M  V30 794 1 242 746
M  V30 795 1 243 747
M  V30 796 1 243 748
M  V30 797 1 244 749 CFG=1
M  V30 798 1 245 750
M  V30 799 1 246 751 CFG=3
M  V30 800 1 247 752
M  V30 801 1 247 753
M  V30 802 1 248 754
M  V30 803 1 249 755
M  V30 804 1 250 756
M  V30 805 1 250 757
M  V30 806 1 252 758
M  V30 807 1 253 759 CFG=3
M  V30 808 1 254 760
M  V30 809 1 254 761
M  V30 810 1 255 762
M  V30 811 1 255 763
M  V30 812 1 256 764 CFG=3
M  V30 813 1 257 765
M  V30 814 1 257 766
M  V30 815 1 258 767
M  V30 816 1 258 768
M  V30 817 1 259 769 CFG=1
M  V30 818 1 261 770
M  V30 819 1 261 771
M  V30 820 1 262 772
M  V30 821 1 262 773
M  V30 822 1 263 774 CFG=3
M  V30 823 1 264 775
M  V30 824 1 265 776
M  V30 825 1 265 777
M  V30 826 1 266 778
M  V30 827 1 267 779
M  V30 828 1 268 780
M  V30 829 1 270 781
M  V30 830 1 271 782
M  V30 831 1 271 783
M  V30 832 1 272 784
M  V30 833 1 272 785
M  V30 834 1 273 786
M  V30 835 1 274 787
M  V30 836 1 274 788
M  V30 837 1 275 789
M  V30 838 1 275 790
M  V30 839 1 276 791
M  V30 840 1 276 792
M  V30 841 1 278 793
M  V30 842 1 278 794
M  V30 843 1 278 795
M  V30 844 1 281 796
M  V30 845 1 281 797
M  V30 846 1 281 798
M  V30 847 1 283 799
M  V30 848 1 283 800
M  V30 849 1 283 801
M  V30 850 1 284 802
M  V30 851 1 284 803
M  V30 852 1 284 804
M  V30 853 1 285 805
M  V30 854 1 285 806
M  V30 855 1 285 807
M  V30 856 1 286 808
M  V30 857 1 286 809
M  V30 858 1 286 810
M  V30 859 1 287 811
M  V30 860 1 287 812
M  V30 861 1 287 813
M  V30 862 1 288 814
M  V30 863 1 288 815
M  V30 864 1 288 816
M  V30 865 1 290 817
M  V30 866 1 290 818
M  V30 867 1 291 819
M  V30 868 1 291 820
M  V30 869 1 292 821
M  V30 870 1 293 822
M  V30 871 1 294 823 CFG=3
M  V30 872 1 295 824
M  V30 873 1 295 825
M  V30 874 1 296 826
M  V30 875 1 297 827
M  V30 876 1 298 828
M  V30 877 1 298 829
M  V30 878 1 300 830 CFG=1
M  V30 879 1 301 831
M  V30 880 1 302 832
M  V30 881 1 302 833
M  V30 882 1 303 834
M  V30 883 1 303 835
M  V30 884 1 304 836 CFG=1
M  V30 885 1 305 837
M  V30 886 1 305 838
M  V30 887 1 306 839
M  V30 888 1 306 840
M  V30 889 1 307 841 CFG=1
M  V30 890 1 309 842
M  V30 891 1 309 843
M  V30 892 1 310 844
M  V30 893 1 310 845
M  V30 894 1 311 846
M  V30 895 1 312 847
M  V30 896 1 313 848
M  V30 897 1 313 849
M  V30 898 1 314 850
M  V30 899 1 315 851 CFG=1
M  V30 900 1 316 852 CFG=3
M  V30 901 1 318 853
M  V30 902 1 319 854
M  V30 903 1 319 855
M  V30 904 1 320 856
M  V30 905 1 320 857
M  V30 906 1 321 858
M  V30 907 1 322 859
M  V30 908 1 322 860
M  V30 909 1 323 861
M  V30 910 1 323 862
M  V30 911 1 324 863
M  V30 912 1 324 864
M  V30 913 1 326 865
M  V30 914 1 326 866
M  V30 915 1 326 867
M  V30 916 1 329 868
M  V30 917 1 329 869
M  V30 918 1 329 870
M  V30 919 1 331 871
M  V30 920 1 331 872
M  V30 921 1 331 873
M  V30 922 1 332 874
M  V30 923 1 332 875
M  V30 924 1 332 876
M  V30 925 1 333 877
M  V30 926 1 333 878
M  V30 927 1 333 879
M  V30 928 1 334 880
M  V30 929 1 334 881
M  V30 930 1 334 882
M  V30 931 1 335 883
M  V30 932 1 335 884
M  V30 933 1 335 885
M  V30 934 1 336 886
M  V30 935 1 336 887
M  V30 936 1 336 888
M  V30 937 1 338 889
M  V30 938 1 338 890
M  V30 939 1 339 891
M  V30 940 1 339 892
M  V30 941 1 340 893
M  V30 942 1 341 894
M  V30 943 1 342 895 CFG=3
M  V30 944 1 343 896
M  V30 945 1 343 897
M  V30 946 1 344 898
M  V30 947 1 345 899
M  V30 948 1 346 900
M  V30 949 1 346 901
M  V30 950 1 348 902 CFG=1
M  V30 951 1 349 903 CFG=3
M  V30 952 1 350 904
M  V30 953 1 350 905
M  V30 954 1 351 906
M  V30 955 1 351 907
M  V30 956 1 352 908 CFG=1
M  V30 957 1 353 909
M  V30 958 1 353 910
M  V30 959 1 354 911
M  V30 960 1 354 912
M  V30 961 1 355 913 CFG=1
M  V30 962 1 357 914
M  V30 963 1 357 915
M  V30 964 1 358 916
M  V30 965 1 358 917
M  V30 966 1 359 918
M  V30 967 1 360 919
M  V30 968 1 361 920
M  V30 969 1 361 921
M  V30 970 1 362 922
M  V30 971 1 363 923
M  V30 972 1 364 924
M  V30 973 1 366 925
M  V30 974 1 367 926
M  V30 975 1 367 927
M  V30 976 1 368 928
M  V30 977 1 368 929
M  V30 978 1 369 930
M  V30 979 1 370 931
M  V30 980 1 370 932
M  V30 981 1 371 933
M  V30 982 1 371 934
M  V30 983 1 372 935
M  V30 984 1 372 936
M  V30 985 1 374 937
M  V30 986 1 374 938
M  V30 987 1 374 939
M  V30 988 1 377 940
M  V30 989 1 377 941
M  V30 990 1 377 942
M  V30 991 1 379 943
M  V30 992 1 379 944
M  V30 993 1 379 945
M  V30 994 1 380 946
M  V30 995 1 380 947
M  V30 996 1 380 948
M  V30 997 1 381 949
M  V30 998 1 381 950
M  V30 999 1 381 951
M  V30 1000 1 382 952
M  V30 1001 1 382 953
M  V30 1002 1 382 954
M  V30 1003 1 383 955
M  V30 1004 1 383 956
M  V30 1005 1 383 957
M  V30 1006 1 384 958
M  V30 1007 1 384 959
M  V30 1008 1 384 960
M  V30 END BOND
M  V30 END CTAB
M  END
>  <PDBID>  (1) 
3PEO

>  <PDB ID>  (1) 
3PEO

>  <Generic Name>  (1) 
Metocurine

>  <Brand Name>  (1) 
nan

>  <DrugBank ID>  (1) 
DB01336

>  <ATC Codes>  (1) 
M03AA04

>  <Ligand ID>  (1) 
CU9

>  <Target Name>  (1) 
Neuronal acetylcholine receptor subunit alpha-2

>  <UniProt ID>  (1) 
Q15822

>  <PDB ID.1>  (1) 
3PEO

>  <Seq. Identity>  (1) 
30%

$$$$
