PDB_DB06616_00
     RDKit          3D

170176  0  0  0  0  0  0  0  0999 V2000
   -0.3581   -3.8076   -0.9490 C   0  0  0  0  0  0  0  0  0  0  0  0
    7.2894   -1.8837    1.0728 O   0  0  0  0  0  0  0  0  0  0  0  0
   -5.5838   -0.7901   -1.0668 C   0  0  0  0  0  0  0  0  0  0  0  0
    3.7317    3.8344    0.5418 N   0  0  0  0  0  0  0  0  0  0  0  0
    8.4944    0.6754    0.8145 Cl  0  0  0  0  0  0  0  0  0  0  0  0
    3.6436    0.1831    2.9767 Cl  0  0  0  0  0  0  0  0  0  0  0  0
    3.8566    3.1674   -0.7350 C   0  0  0  0  0  0  0  0  0  0  0  0
    1.4653    3.0351   -1.0274 C   0  0  0  0  0  0  0  0  0  0  0  0
    5.9280    0.7254    1.5853 C   0  0  0  0  0  0  0  0  0  0  0  0
    5.2916   -1.5741   -0.2441 C   0  0  0  0  0  0  0  0  0  0  0  0
   -1.0127    0.6314    0.1965 C   0  0  0  0  0  0  0  0  0  0  0  0
    1.2013   -0.7975   -1.0446 C   0  0  0  0  0  0  0  0  0  0  0  0
   -4.1768   -0.2629   -0.8533 C   0  0  0  0  0  0  0  0  0  0  0  0
   -3.2116   -0.8301   -1.8445 C   0  0  0  0  0  0  0  0  0  0  0  0
   -9.4509   -0.1437    0.7222 C   0  0  0  0  0  0  0  0  0  0  0  0
   -6.2762   -0.7456    1.2291 C   0  0  0  0  0  0  0  0  0  0  0  0
   -6.6353    1.1663   -0.1294 C   0  0  0  0  0  0  0  0  0  0  0  0
   -7.4908   -0.4497    2.0894 C   0  0  0  0  0  0  0  0  0  0  0  0
   -7.7628    1.5681    0.7962 C   0  0  0  0  0  0  0  0  0  0  0  0
    0.4986    2.5933   -0.0042 N   0  0  0  0  0  0  0  0  0  0  0  0
    3.7772    0.2137   -0.4077 N   0  0  0  0  0  0  0  0  0  0  0  0
   -0.3640   -2.5492   -1.5694 O   0  0  0  0  0  0  0  0  0  0  0  0
   -1.9131   -0.3931   -1.7293 O   0  0  0  0  0  0  0  0  0  0  0  0
    6.6812   -1.1349    0.0918 C   0  0  0  0  0  0  0  0  0  0  0  0
    6.7877    0.3390    0.4205 C   0  0  0  0  0  0  0  0  0  0  0  0
    4.8573   -0.2955    1.7599 C   0  0  0  0  0  0  0  0  0  0  0  0
    2.7020    2.2304   -1.0264 C   0  0  0  0  0  0  0  0  0  0  0  0
    4.2137   -0.7723    0.4846 C   0  0  0  0  0  0  0  0  0  0  0  0
   -0.0545   -1.5293   -0.6737 C   0  0  0  0  0  0  0  0  0  0  0  0
   -1.2794   -0.6702   -0.5375 C   0  0  0  0  0  0  0  0  0  0  0  0
    2.6870    1.0351   -0.0925 C   0  0  0  0  0  0  0  0  0  0  0  0
    0.2027    1.2539   -0.3806 C   0  0  0  0  0  0  0  0  0  0  0  0
    1.3673    0.3320   -0.0617 C   0  0  0  0  0  0  0  0  0  0  0  0
   -6.5156   -0.2597   -0.1176 N   0  0  0  0  0  0  0  0  0  0  0  0
   -8.3909    0.4700    1.4628 N   0  0  0  0  0  0  0  0  0  0  0  0
    8.4420   -2.5369    0.5863 C   0  0  0  0  0  0  0  0  0  0  0  0
   -0.3581   -3.8076   -0.9490 C   0  0  0  0  0  0  0  0  0  0  0  0
    7.2894   -1.8837    1.0728 O   0  0  0  0  0  0  0  0  0  0  0  0
   -5.5838   -0.7901   -1.0668 C   0  0  0  0  0  0  0  0  0  0  0  0
    3.7317    3.8344    0.5418 N   0  0  0  0  0  0  0  0  0  0  0  0
    8.4944    0.6754    0.8145 Cl  0  0  0  0  0  0  0  0  0  0  0  0
    3.6436    0.1831    2.9767 Cl  0  0  0  0  0  0  0  0  0  0  0  0
    3.8566    3.1674   -0.7350 C   0  0  0  0  0  0  0  0  0  0  0  0
    1.4653    3.0351   -1.0274 C   0  0  0  0  0  0  0  0  0  0  0  0
    5.9280    0.7254    1.5853 C   0  0  0  0  0  0  0  0  0  0  0  0
    5.2916   -1.5741   -0.2441 C   0  0  0  0  0  0  0  0  0  0  0  0
   -1.0127    0.6314    0.1965 C   0  0  0  0  0  0  0  0  0  0  0  0
    1.2013   -0.7975   -1.0446 C   0  0  0  0  0  0  0  0  0  0  0  0
   -4.1768   -0.2629   -0.8533 C   0  0  0  0  0  0  0  0  0  0  0  0
   -3.2116   -0.8301   -1.8445 C   0  0  0  0  0  0  0  0  0  0  0  0
   -9.4509   -0.1437    0.7222 C   0  0  0  0  0  0  0  0  0  0  0  0
   -6.2762   -0.7456    1.2291 C   0  0  0  0  0  0  0  0  0  0  0  0
   -6.6353    1.1663   -0.1294 C   0  0  0  0  0  0  0  0  0  0  0  0
   -7.4908   -0.4497    2.0894 C   0  0  0  0  0  0  0  0  0  0  0  0
   -7.7628    1.5681    0.7962 C   0  0  0  0  0  0  0  0  0  0  0  0
    0.4986    2.5933   -0.0042 N   0  0  0  0  0  0  0  0  0  0  0  0
    3.7772    0.2137   -0.4077 N   0  0  0  0  0  0  0  0  0  0  0  0
   -0.3640   -2.5492   -1.5694 O   0  0  0  0  0  0  0  0  0  0  0  0
   -1.9131   -0.3931   -1.7293 O   0  0  0  0  0  0  0  0  0  0  0  0
    6.6812   -1.1349    0.0918 C   0  0  0  0  0  0  0  0  0  0  0  0
    6.7877    0.3390    0.4205 C   0  0  0  0  0  0  0  0  0  0  0  0
    4.8573   -0.2955    1.7599 C   0  0  0  0  0  0  0  0  0  0  0  0
    2.7020    2.2304   -1.0264 C   0  0  0  0  0  0  0  0  0  0  0  0
    4.2137   -0.7723    0.4846 C   0  0  0  0  0  0  0  0  0  0  0  0
   -0.0545   -1.5293   -0.6737 C   0  0  0  0  0  0  0  0  0  0  0  0
   -1.2794   -0.6702   -0.5375 C   0  0  0  0  0  0  0  0  0  0  0  0
    2.6870    1.0351   -0.0925 C   0  0  0  0  0  0  0  0  0  0  0  0
    0.2027    1.2539   -0.3806 C   0  0  0  0  0  0  0  0  0  0  0  0
    1.3673    0.3320   -0.0617 C   0  0  0  0  0  0  0  0  0  0  0  0
   -6.5156   -0.2597   -0.1176 N   0  0  0  0  0  0  0  0  0  0  0  0
   -8.3909    0.4700    1.4628 N   0  0  0  0  0  0  0  0  0  0  0  0
    8.4420   -2.5369    0.5863 C   0  0  0  0  0  0  0  0  0  0  0  0
    0.6316   -4.0155   -0.5264 H   0  0  0  0  0  0  0  0  0  0  0  0
   -1.1827   -3.8066   -0.2166 H   0  0  0  0  0  0  0  0  0  0  0  0
   -0.5172   -4.5463   -1.7641 H   0  0  0  0  0  0  0  0  0  0  0  0
   -5.9452   -0.5655   -2.0888 H   0  0  0  0  0  0  0  0  0  0  0  0
   -5.5446   -1.8839   -0.9542 H   0  0  0  0  0  0  0  0  0  0  0  0
    4.6059    3.9156    1.0762 H   0  0  0  0  0  0  0  0  0  0  0  0
    2.9870    3.4907    1.1514 H   0  0  0  0  0  0  0  0  0  0  0  0
    4.8201    2.6196   -0.7281 H   0  0  0  0  0  0  0  0  0  0  0  0
    3.8619    3.9343   -1.5412 H   0  0  0  0  0  0  0  0  0  0  0  0
    0.9393    2.9183   -1.9989 H   0  0  0  0  0  0  0  0  0  0  0  0
    1.6731    4.1187   -0.9134 H   0  0  0  0  0  0  0  0  0  0  0  0
    5.5721    1.7729    1.5294 H   0  0  0  0  0  0  0  0  0  0  0  0
    6.5628    0.6895    2.5221 H   0  0  0  0  0  0  0  0  0  0  0  0
    5.2255   -2.6561   -0.0127 H   0  0  0  0  0  0  0  0  0  0  0  0
    5.1174   -1.5233   -1.3573 H   0  0  0  0  0  0  0  0  0  0  0  0
   -1.8831    1.3117   -0.0452 H   0  0  0  0  0  0  0  0  0  0  0  0
   -0.9866    0.5019    1.2928 H   0  0  0  0  0  0  0  0  0  0  0  0
    1.0002   -0.3443   -2.0542 H   0  0  0  0  0  0  0  0  0  0  0  0
    2.0175   -1.5041   -1.0911 H   0  0  0  0  0  0  0  0  0  0  0  0
   -3.8468   -0.5361    0.1693 H   0  0  0  0  0  0  0  0  0  0  0  0
   -4.2422    0.8400   -0.8940 H   0  0  0  0  0  0  0  0  0  0  0  0
   -3.5596   -0.5620   -2.8638 H   0  0  0  0  0  0  0  0  0  0  0  0
   -3.1849   -1.9541   -1.8101 H   0  0  0  0  0  0  0  0  0  0  0  0
  -10.0086    0.6631    0.1864 H   0  0  0  0  0  0  0  0  0  0  0  0
  -10.1370   -0.6913    1.4015 H   0  0  0  0  0  0  0  0  0  0  0  0
   -9.0328   -0.8203   -0.0741 H   0  0  0  0  0  0  0  0  0  0  0  0
   -6.1335   -1.8445    1.1918 H   0  0  0  0  0  0  0  0  0  0  0  0
   -5.3807   -0.2453    1.6480 H   0  0  0  0  0  0  0  0  0  0  0  0
   -5.7190    1.6863    0.2252 H   0  0  0  0  0  0  0  0  0  0  0  0
   -6.8944    1.5102   -1.1500 H   0  0  0  0  0  0  0  0  0  0  0  0
   -8.0629   -1.3971    2.2704 H   0  0  0  0  0  0  0  0  0  0  0  0
   -7.1572   -0.0326    3.0697 H   0  0  0  0  0  0  0  0  0  0  0  0
   -7.4130    2.2761    1.5918 H   0  0  0  0  0  0  0  0  0  0  0  0
   -8.5606    2.1177    0.2378 H   0  0  0  0  0  0  0  0  0  0  0  0
   -0.3596    3.1837   -0.2036 H   0  0  0  0  0  0  0  0  0  0  0  0
    4.1262    0.2001   -1.3702 H   0  0  0  0  0  0  0  0  0  0  0  0
    7.2960   -1.2649   -0.8483 H   0  0  0  0  0  0  0  0  0  0  0  0
    6.5196    0.9552   -0.4476 H   0  0  0  0  0  0  0  0  0  0  0  0
    5.3536   -1.2005    2.2093 H   0  0  0  0  0  0  0  0  0  0  0  0
    2.8945    1.8709   -2.0758 H   0  0  0  0  0  0  0  0  0  0  0  0
    3.4583   -1.5317    0.8079 H   0  0  0  0  0  0  0  0  0  0  0  0
    0.1195   -2.0139    0.3102 H   0  0  0  0  0  0  0  0  0  0  0  0
   -1.9842   -1.2337    0.1053 H   0  0  0  0  0  0  0  0  0  0  0  0
    2.8517    1.4723    0.9223 H   0  0  0  0  0  0  0  0  0  0  0  0
    0.0495    1.2612   -1.5026 H   0  0  0  0  0  0  0  0  0  0  0  0
    1.1696   -0.0885    0.9459 H   0  0  0  0  0  0  0  0  0  0  0  0
    9.1237   -1.7300    0.2394 H   0  0  0  0  0  0  0  0  0  0  0  0
    8.1896   -3.1539   -0.2981 H   0  0  0  0  0  0  0  0  0  0  0  0
    8.9281   -3.1259    1.3903 H   0  0  0  0  0  0  0  0  0  0  0  0
    0.6316   -4.0155   -0.5264 H   0  0  0  0  0  0  0  0  0  0  0  0
   -1.1827   -3.8066   -0.2166 H   0  0  0  0  0  0  0  0  0  0  0  0
   -0.5172   -4.5463   -1.7641 H   0  0  0  0  0  0  0  0  0  0  0  0
   -5.9452   -0.5655   -2.0888 H   0  0  0  0  0  0  0  0  0  0  0  0
   -5.5446   -1.8839   -0.9542 H   0  0  0  0  0  0  0  0  0  0  0  0
    4.6059    3.9156    1.0762 H   0  0  0  0  0  0  0  0  0  0  0  0
    2.9870    3.4907    1.1514 H   0  0  0  0  0  0  0  0  0  0  0  0
    4.8201    2.6196   -0.7281 H   0  0  0  0  0  0  0  0  0  0  0  0
    3.8619    3.9343   -1.5412 H   0  0  0  0  0  0  0  0  0  0  0  0
    0.9393    2.9183   -1.9989 H   0  0  0  0  0  0  0  0  0  0  0  0
    1.6731    4.1187   -0.9134 H   0  0  0  0  0  0  0  0  0  0  0  0
    5.5721    1.7729    1.5294 H   0  0  0  0  0  0  0  0  0  0  0  0
    6.5628    0.6895    2.5221 H   0  0  0  0  0  0  0  0  0  0  0  0
    5.2255   -2.6561   -0.0127 H   0  0  0  0  0  0  0  0  0  0  0  0
    5.1174   -1.5233   -1.3573 H   0  0  0  0  0  0  0  0  0  0  0  0
   -1.8831    1.3117   -0.0452 H   0  0  0  0  0  0  0  0  0  0  0  0
   -0.9866    0.5019    1.2928 H   0  0  0  0  0  0  0  0  0  0  0  0
    1.0002   -0.3443   -2.0542 H   0  0  0  0  0  0  0  0  0  0  0  0
    2.0175   -1.5041   -1.0911 H   0  0  0  0  0  0  0  0  0  0  0  0
   -3.8468   -0.5361    0.1693 H   0  0  0  0  0  0  0  0  0  0  0  0
   -4.2422    0.8400   -0.8940 H   0  0  0  0  0  0  0  0  0  0  0  0
   -3.5596   -0.5620   -2.8638 H   0  0  0  0  0  0  0  0  0  0  0  0
   -3.1849   -1.9541   -1.8101 H   0  0  0  0  0  0  0  0  0  0  0  0
  -10.0086    0.6631    0.1864 H   0  0  0  0  0  0  0  0  0  0  0  0
  -10.1370   -0.6913    1.4015 H   0  0  0  0  0  0  0  0  0  0  0  0
   -9.0328   -0.8203   -0.0741 H   0  0  0  0  0  0  0  0  0  0  0  0
   -6.1335   -1.8445    1.1918 H   0  0  0  0  0  0  0  0  0  0  0  0
   -5.3807   -0.2453    1.6480 H   0  0  0  0  0  0  0  0  0  0  0  0
   -5.7190    1.6863    0.2252 H   0  0  0  0  0  0  0  0  0  0  0  0
   -6.8944    1.5102   -1.1500 H   0  0  0  0  0  0  0  0  0  0  0  0
   -8.0629   -1.3971    2.2704 H   0  0  0  0  0  0  0  0  0  0  0  0
   -7.1572   -0.0326    3.0697 H   0  0  0  0  0  0  0  0  0  0  0  0
   -7.4130    2.2761    1.5918 H   0  0  0  0  0  0  0  0  0  0  0  0
   -8.5606    2.1177    0.2378 H   0  0  0  0  0  0  0  0  0  0  0  0
   -0.3596    3.1837   -0.2036 H   0  0  0  0  0  0  0  0  0  0  0  0
    4.1262    0.2001   -1.3702 H   0  0  0  0  0  0  0  0  0  0  0  0
    7.2960   -1.2649   -0.8483 H   0  0  0  0  0  0  0  0  0  0  0  0
    6.5196    0.9552   -0.4476 H   0  0  0  0  0  0  0  0  0  0  0  0
    5.3536   -1.2005    2.2093 H   0  0  0  0  0  0  0  0  0  0  0  0
    2.8945    1.8709   -2.0758 H   0  0  0  0  0  0  0  0  0  0  0  0
    3.4583   -1.5317    0.8079 H   0  0  0  0  0  0  0  0  0  0  0  0
    0.1195   -2.0139    0.3102 H   0  0  0  0  0  0  0  0  0  0  0  0
   -1.9842   -1.2337    0.1053 H   0  0  0  0  0  0  0  0  0  0  0  0
    2.8517    1.4723    0.9223 H   0  0  0  0  0  0  0  0  0  0  0  0
    0.0495    1.2612   -1.5026 H   0  0  0  0  0  0  0  0  0  0  0  0
    1.1696   -0.0885    0.9459 H   0  0  0  0  0  0  0  0  0  0  0  0
    9.1237   -1.7300    0.2394 H   0  0  0  0  0  0  0  0  0  0  0  0
    8.1896   -3.1539   -0.2981 H   0  0  0  0  0  0  0  0  0  0  0  0
    8.9281   -3.1259    1.3903 H   0  0  0  0  0  0  0  0  0  0  0  0
  4  7  1  0
  3 13  1  0
 13 14  1  0
 16 18  1  0
 17 19  1  0
  8 20  1  0
  1 22  1  0
 14 23  1  0
  2 24  1  0
 10 24  1  0
  5 25  1  0
  9 25  1  0
 24 25  1  0
  6 26  1  0
  9 26  1  0
  7 27  1  0
  8 27  1  0
 10 28  1  0
 21 28  1  0
 26 28  1  0
 12 29  1  0
 22 29  1  0
 11 30  1  0
 23 30  1  0
 29 30  1  0
 21 31  1  0
 27 31  1  0
 11 32  1  0
 20 32  1  0
 12 33  1  0
 31 33  1  0
 32 33  1  0
  3 34  1  0
 16 34  1  0
 17 34  1  0
 15 35  1  0
 18 35  1  0
 19 35  1  0
  2 36  1  0
 40 43  1  0
 39 49  1  0
 49 50  1  0
 52 54  1  0
 53 55  1  0
 44 56  1  0
 37 58  1  0
 50 59  1  0
 38 60  1  0
 46 60  1  0
 41 61  1  0
 45 61  1  0
 60 61  1  0
 42 62  1  0
 45 62  1  0
 43 63  1  0
 44 63  1  0
 46 64  1  0
 57 64  1  0
 62 64  1  0
 48 65  1  0
 58 65  1  0
 47 66  1  0
 59 66  1  0
 65 66  1  0
 57 67  1  0
 63 67  1  0
 47 68  1  0
 56 68  1  0
 48 69  1  0
 67 69  1  0
 68 69  1  0
 39 70  1  0
 52 70  1  0
 53 70  1  0
 51 71  1  0
 54 71  1  0
 55 71  1  0
 38 72  1  0
  1 73  1  0
  1 74  1  0
  1 75  1  0
  3 76  1  0
  3 77  1  0
  4 78  1  0
  4 79  1  0
  7 80  1  0
  7 81  1  0
  8 82  1  0
  8 83  1  0
  9 84  1  0
  9 85  1  0
 10 86  1  0
 10 87  1  0
 11 88  1  0
 11 89  1  0
 12 90  1  0
 12 91  1  0
 13 92  1  0
 13 93  1  0
 14 94  1  0
 14 95  1  0
 15 96  1  0
 15 97  1  0
 15 98  1  0
 16 99  1  0
 16100  1  0
 17101  1  0
 17102  1  0
 18103  1  0
 18104  1  0
 19105  1  0
 19106  1  0
 20107  1  0
 21108  1  0
 24109  1  0
 25110  1  0
 26111  1  0
 27112  1  0
 28113  1  0
 29114  1  0
 30115  1  0
 31116  1  0
 32117  1  0
 33118  1  0
 36119  1  0
 36120  1  0
 36121  1  0
 37122  1  0
 37123  1  0
 37124  1  0
 39125  1  0
 39126  1  0
 40127  1  0
 40128  1  0
 43129  1  0
 43130  1  0
 44131  1  0
 44132  1  0
 45133  1  0
 45134  1  0
 46135  1  0
 46136  1  0
 47137  1  0
 47138  1  0
 48139  1  0
 48140  1  0
 49141  1  0
 49142  1  0
 50143  1  0
 50144  1  0
 51145  1  0
 51146  1  0
 51147  1  0
 52148  1  0
 52149  1  0
 53150  1  0
 53151  1  0
 54152  1  0
 54153  1  0
 55154  1  0
 55155  1  0
 56156  1  0
 57157  1  0
 60158  1  0
 61159  1  0
 62160  1  0
 63161  1  0
 64162  1  0
 65163  1  0
 66164  1  0
 67165  1  0
 68166  1  0
 69167  1  0
 72168  1  0
 72169  1  0
 72170  1  0
M  END
>  <PDBID>  (1) 
3UE4

>  <PDB ID>  (1) 
3UE4

>  <Generic Name>  (1) 
Bosutinib

>  <Brand Name>  (1) 
Bosulif

>  <DrugBank ID>  (1) 
DB06616

>  <ATC Codes>  (1) 
L01XE14

>  <Ligand ID>  (1) 
DB8

>  <Target Name>  (1) 
Tyrosine-protein kinase ABL1

>  <UniProt ID>  (1) 
P00519

>  <PDB ID.1>  (1) 
3UE4

>  <Seq. Identity>  (1) 
95%

$$$$
