PDB_DB01011_06
     RDKit          3D

 45 46  0  0  0  0  0  0  0  0999 V2000
   -2.4072    1.7941   -0.1533 N   0  0  0  0  0  0  0  0  0  0  0  0
   -2.0425    1.0008    0.9897 C   0  0  0  0  0  0  0  0  0  0  0  0
   -1.8791   -0.4447    0.7128 C   0  0  0  0  0  0  0  0  0  0  0  0
   -3.2393   -0.9782    0.2429 C   0  0  0  0  0  0  0  0  0  0  0  0
   -3.8971   -0.0858   -0.7518 C   0  0  0  0  0  0  0  0  0  0  0  0
   -3.7181    1.3696   -0.5709 C   0  0  0  0  0  0  0  0  0  0  0  0
   -0.8203   -0.8892   -0.2119 C   0  0  0  0  0  0  0  0  0  0  0  0
   -0.9400   -0.3614   -1.4836 O   0  0  0  0  0  0  0  0  0  0  0  0
    0.6859   -1.9711    1.4250 C   0  0  0  0  0  0  0  0  0  0  0  0
    0.5851   -1.0061    0.2938 C   0  0  0  0  0  0  0  0  0  0  0  0
    1.3148   -1.7707   -0.8495 C   0  0  0  0  0  0  0  0  0  0  0  0
    1.3649    0.2402    0.4515 C   0  0  0  0  0  0  0  0  0  0  0  0
    1.5278    1.0123   -0.8650 C   0  0  0  0  0  0  0  0  0  0  0  0
    2.2647    2.2315   -0.4823 N   0  0  0  0  0  0  0  0  0  0  0  0
    3.6523    1.8991   -0.4544 C   0  0  0  0  0  0  0  0  0  0  0  0
    3.8182    0.4586   -0.1193 C   0  0  0  0  0  0  0  0  0  0  0  0
    2.7964    0.0107    0.9050 C   0  0  0  0  0  0  0  0  0  0  0  0
   -1.7211    1.8692   -0.8940 H   0  0  0  0  0  0  0  0  0  0  0  0
   -1.2853    1.4985    1.5822 H   0  0  0  0  0  0  0  0  0  0  0  0
   -2.9720    1.0581    1.6504 H   0  0  0  0  0  0  0  0  0  0  0  0
   -1.7569   -0.9386    1.7246 H   0  0  0  0  0  0  0  0  0  0  0  0
   -3.0201   -1.9427   -0.2621 H   0  0  0  0  0  0  0  0  0  0  0  0
   -3.9047   -1.2026    1.0929 H   0  0  0  0  0  0  0  0  0  0  0  0
   -3.6186   -0.3626   -1.7978 H   0  0  0  0  0  0  0  0  0  0  0  0
   -5.0055   -0.3011   -0.6993 H   0  0  0  0  0  0  0  0  0  0  0  0
   -4.4597    1.8173    0.1465 H   0  0  0  0  0  0  0  0  0  0  0  0
   -3.9431    1.8702   -1.5529 H   0  0  0  0  0  0  0  0  0  0  0  0
   -1.0970   -1.9951   -0.3988 H   0  0  0  0  0  0  0  0  0  0  0  0
   -1.3159   -0.9225   -2.1673 H   0  0  0  0  0  0  0  0  0  0  0  0
    1.6670   -2.4788    1.3931 H   0  0  0  0  0  0  0  0  0  0  0  0
    0.5781   -1.5398    2.4285 H   0  0  0  0  0  0  0  0  0  0  0  0
   -0.0862   -2.7464    1.2914 H   0  0  0  0  0  0  0  0  0  0  0  0
    2.3437   -1.9951   -0.5779 H   0  0  0  0  0  0  0  0  0  0  0  0
    0.7744   -2.7638   -0.8660 H   0  0  0  0  0  0  0  0  0  0  0  0
    1.1365   -1.3119   -1.8132 H   0  0  0  0  0  0  0  0  0  0  0  0
    0.9589    0.9874    1.1612 H   0  0  0  0  0  0  0  0  0  0  0  0
    2.0993    0.4721   -1.6129 H   0  0  0  0  0  0  0  0  0  0  0  0
    0.5880    1.3749   -1.2703 H   0  0  0  0  0  0  0  0  0  0  0  0
    1.8896    2.6347    0.3918 H   0  0  0  0  0  0  0  0  0  0  0  0
    4.1905    2.5172    0.3112 H   0  0  0  0  0  0  0  0  0  0  0  0
    4.0967    2.1781   -1.4282 H   0  0  0  0  0  0  0  0  0  0  0  0
    3.9026   -0.2203   -0.9852 H   0  0  0  0  0  0  0  0  0  0  0  0
    4.8104    0.3519    0.4135 H   0  0  0  0  0  0  0  0  0  0  0  0
    3.0463    0.6012    1.8359 H   0  0  0  0  0  0  0  0  0  0  0  0
    3.0376   -1.0192    1.1473 H   0  0  0  0  0  0  0  0  0  0  0  0
  1  2  1  0
  2  3  1  0
  3  4  1  0
  4  5  1  0
  1  6  1  0
  5  6  1  0
  3  7  1  0
  7  8  1  0
 10  7  1  0
  9 10  1  0
 10 11  1  0
 10 12  1  0
 12 13  1  0
 13 14  1  0
 14 15  1  0
 15 16  1  0
 12 17  1  0
 16 17  1  0
  1 18  1  0
  2 19  1  0
  2 20  1  0
  3 21  1  0
  4 22  1  0
  4 23  1  0
  5 24  1  0
  5 25  1  0
  6 26  1  0
  6 27  1  0
  7 28  1  0
  8 29  1  0
  9 30  1  0
  9 31  1  0
  9 32  1  0
 11 33  1  0
 11 34  1  0
 11 35  1  0
 12 36  1  0
 13 37  1  0
 13 38  1  0
 14 39  1  0
 15 40  1  0
 15 41  1  0
 16 42  1  0
 16 43  1  0
 17 44  1  0
 17 45  1  0
M  END
>  <PDBID>  (1) 
1W0G

>  <PDB ID>  (1) 
1W0G

>  <Generic Name>  (1) 
Metyrapone

>  <Brand Name>  (1) 
Metopirone#Metopiron

>  <DrugBank ID>  (1) 
DB01011

>  <ATC Codes>  (1) 
V04CD01

>  <Ligand ID>  (1) 
MYT

>  <Target Name>  (1) 
Cytochrome P450 11B1, mitochondrial

>  <UniProt ID>  (1) 
P15538

>  <PDB ID.1>  (1) 
1W0G

>  <Seq. Identity>  (1) 
32%

$$$$
