PDB_DB00552_01
     RDKit          3D

164172  0  0  0  0  0  0  0  0999 V2000
    1.1810    1.3012    1.0018 N   0  0  0  0  0  0  0  0  0  0  0  0
   -0.2237    0.8704    0.7837 C   0  0  0  0  0  0  0  0  0  0  0  0
   -0.1450   -0.3054    0.0294 N   0  0  0  0  0  0  0  0  0  0  0  0
    1.8483    0.0226    1.0042 C   0  0  1  0  0  0  0  0  0  0  0  0
    1.1851   -0.7032   -0.1381 C   0  0  2  0  0  0  0  0  0  0  0  0
    1.7345   -0.3111   -1.4231 N   0  0  0  0  0  0  0  0  0  0  0  0
    3.1048   -0.6906   -1.5943 C   0  0  0  0  0  0  0  0  0  0  0  0
    3.9579    0.4603   -1.3800 N   0  0  0  0  0  0  0  0  0  0  0  0
    3.9440    0.9482   -0.0455 C   0  0  0  0  0  0  0  0  0  0  0  0
    3.3139    0.0573    0.9682 C   0  0  1  0  0  0  0  0  0  0  0  0
    3.7563    0.5095    2.2356 O   0  0  0  0  0  0  0  0  0  0  0  0
   -2.1418   -1.4175    0.6399 C   0  0  0  0  0  0  0  0  0  0  0  0
   -3.2846   -0.4349    0.5343 C   0  0  2  0  0  0  0  0  0  0  0  0
   -4.4517   -1.0625    0.9662 O   0  0  0  0  0  0  0  0  0  0  0  0
   -3.4842    2.0945   -0.4417 O   0  0  0  0  0  0  0  0  0  0  0  0
   -4.0616    1.0975   -1.2133 C   0  0  0  0  0  0  0  0  0  0  0  0
   -3.2997   -0.1876   -0.9600 C   0  0  1  0  0  0  0  0  0  0  0  0
   -1.9800   -0.0810   -1.2828 O   0  0  0  0  0  0  0  0  0  0  0  0
   -1.2327   -0.9446   -0.5019 C   0  0  1  0  0  0  0  0  0  0  0  0
    1.3430    1.3146    0.8224 N   0  0  0  0  0  0  0  0  0  0  0  0
   -0.0613    1.0484    0.4961 C   0  0  0  0  0  0  0  0  0  0  0  0
   -0.2063   -0.3746    0.4146 N   0  0  0  0  0  0  0  0  0  0  0  0
    1.9083    0.0156    1.0281 C   0  0  0  0  0  0  0  0  0  0  0  0
    1.1231   -0.7947    0.0045 C   0  0  2  0  0  0  0  0  0  0  0  0
    1.3957   -0.2487   -1.2988 N   0  0  0  0  0  0  0  0  0  0  0  0
    2.7729   -0.3588   -1.6958 C   0  0  0  0  0  0  0  0  0  0  0  0
    3.5855    0.7631   -1.3581 N   0  0  0  0  0  0  0  0  0  0  0  0
    4.0669    0.7984   -0.0168 C   0  0  0  0  0  0  0  0  0  0  0  0
    3.3648   -0.1092    0.9380 C   0  0  1  0  0  0  0  0  0  0  0  0
    3.9088    0.1412    2.2101 O   0  0  0  0  0  0  0  0  0  0  0  0
   -2.2078   -1.6484    0.4416 C   0  0  0  0  0  0  0  0  0  0  0  0
   -3.3838   -0.6927    0.5379 C   0  0  2  0  0  0  0  0  0  0  0  0
   -4.5227   -1.4547    0.7267 O   0  0  0  0  0  0  0  0  0  0  0  0
   -3.5328    2.0047    0.1789 O   0  0  0  0  0  0  0  0  0  0  0  0
   -4.0928    1.2144   -0.8270 C   0  0  0  0  0  0  0  0  0  0  0  0
   -3.3242   -0.0788   -0.8465 C   0  0  1  0  0  0  0  0  0  0  0  0
   -1.9806    0.1821   -0.9983 O   0  0  0  0  0  0  0  0  0  0  0  0
   -1.2527   -0.8462   -0.4284 C   0  0  1  0  0  0  0  0  0  0  0  0
    1.1810    1.3012    1.0018 N   0  0  0  0  0  0  0  0  0  0  0  0
   -0.2237    0.8704    0.7837 C   0  0  0  0  0  0  0  0  0  0  0  0
   -0.1450   -0.3054    0.0294 N   0  0  0  0  0  0  0  0  0  0  0  0
    1.8483    0.0226    1.0042 C   0  0  1  0  0  0  0  0  0  0  0  0
    1.1851   -0.7032   -0.1381 C   0  0  2  0  0  0  0  0  0  0  0  0
    1.7345   -0.3111   -1.4231 N   0  0  0  0  0  0  0  0  0  0  0  0
    3.1048   -0.6906   -1.5943 C   0  0  0  0  0  0  0  0  0  0  0  0
    3.9579    0.4603   -1.3800 N   0  0  0  0  0  0  0  0  0  0  0  0
    3.9440    0.9482   -0.0455 C   0  0  0  0  0  0  0  0  0  0  0  0
    3.3139    0.0573    0.9682 C   0  0  1  0  0  0  0  0  0  0  0  0
    3.7563    0.5095    2.2356 O   0  0  0  0  0  0  0  0  0  0  0  0
   -2.1418   -1.4175    0.6399 C   0  0  0  0  0  0  0  0  0  0  0  0
   -3.2846   -0.4349    0.5343 C   0  0  2  0  0  0  0  0  0  0  0  0
   -4.4517   -1.0625    0.9662 O   0  0  0  0  0  0  0  0  0  0  0  0
   -3.4842    2.0945   -0.4417 O   0  0  0  0  0  0  0  0  0  0  0  0
   -4.0616    1.0975   -1.2133 C   0  0  0  0  0  0  0  0  0  0  0  0
   -3.2997   -0.1876   -0.9600 C   0  0  1  0  0  0  0  0  0  0  0  0
   -1.9800   -0.0810   -1.2828 O   0  0  0  0  0  0  0  0  0  0  0  0
   -1.2327   -0.9446   -0.5019 C   0  0  1  0  0  0  0  0  0  0  0  0
    1.1810    1.3012    1.0018 N   0  0  0  0  0  0  0  0  0  0  0  0
   -0.2237    0.8704    0.7837 C   0  0  0  0  0  0  0  0  0  0  0  0
   -0.1450   -0.3054    0.0294 N   0  0  0  0  0  0  0  0  0  0  0  0
    1.8483    0.0226    1.0042 C   0  0  1  0  0  0  0  0  0  0  0  0
    1.1851   -0.7032   -0.1381 C   0  0  2  0  0  0  0  0  0  0  0  0
    1.7345   -0.3111   -1.4231 N   0  0  0  0  0  0  0  0  0  0  0  0
    3.1048   -0.6906   -1.5943 C   0  0  0  0  0  0  0  0  0  0  0  0
    3.9579    0.4603   -1.3800 N   0  0  0  0  0  0  0  0  0  0  0  0
    3.9440    0.9482   -0.0455 C   0  0  0  0  0  0  0  0  0  0  0  0
    3.3139    0.0573    0.9682 C   0  0  1  0  0  0  0  0  0  0  0  0
    3.7563    0.5095    2.2356 O   0  0  0  0  0  0  0  0  0  0  0  0
   -2.1418   -1.4175    0.6399 C   0  0  0  0  0  0  0  0  0  0  0  0
   -3.2846   -0.4349    0.5343 C   0  0  2  0  0  0  0  0  0  0  0  0
   -4.4517   -1.0625    0.9662 O   0  0  0  0  0  0  0  0  0  0  0  0
   -3.4842    2.0945   -0.4417 O   0  0  0  0  0  0  0  0  0  0  0  0
   -4.0616    1.0975   -1.2133 C   0  0  0  0  0  0  0  0  0  0  0  0
   -3.2997   -0.1876   -0.9600 C   0  0  1  0  0  0  0  0  0  0  0  0
   -1.9800   -0.0810   -1.2828 O   0  0  0  0  0  0  0  0  0  0  0  0
   -1.2327   -0.9446   -0.5019 C   0  0  1  0  0  0  0  0  0  0  0  0
    1.4056    1.8547    0.1245 H   0  0  0  0  0  0  0  0  0  0  0  0
   -0.5749    0.6074    1.8248 H   0  0  0  0  0  0  0  0  0  0  0  0
   -0.8365    1.6818    0.3967 H   0  0  0  0  0  0  0  0  0  0  0  0
    1.5275   -0.4984    1.9438 H   0  0  0  0  0  0  0  0  0  0  0  0
    1.2506   -1.8177   -0.0042 H   0  0  0  0  0  0  0  0  0  0  0  0
    1.1698   -0.8484   -2.1420 H   0  0  0  0  0  0  0  0  0  0  0  0
    3.2639   -0.9745   -2.6744 H   0  0  0  0  0  0  0  0  0  0  0  0
    3.4094   -1.5756   -1.0196 H   0  0  0  0  0  0  0  0  0  0  0  0
    3.7319    1.1649   -2.1111 H   0  0  0  0  0  0  0  0  0  0  0  0
    3.4502    1.9364    0.0199 H   0  0  0  0  0  0  0  0  0  0  0  0
    5.0017    1.1176    0.2715 H   0  0  0  0  0  0  0  0  0  0  0  0
    3.6809   -1.0010    0.9181 H   0  0  0  0  0  0  0  0  0  0  0  0
    3.5692   -0.1914    2.9124 H   0  0  0  0  0  0  0  0  0  0  0  0
   -1.6425   -1.2627    1.6219 H   0  0  0  0  0  0  0  0  0  0  0  0
   -2.4976   -2.4447    0.5053 H   0  0  0  0  0  0  0  0  0  0  0  0
   -3.1115    0.4757    1.1147 H   0  0  0  0  0  0  0  0  0  0  0  0
   -4.6431   -1.7749    0.2773 H   0  0  0  0  0  0  0  0  0  0  0  0
   -3.8515    2.9508   -0.7836 H   0  0  0  0  0  0  0  0  0  0  0  0
   -5.1009    0.9648   -0.8632 H   0  0  0  0  0  0  0  0  0  0  0  0
   -4.0569    1.3167   -2.2899 H   0  0  0  0  0  0  0  0  0  0  0  0
   -3.8111   -1.0539   -1.4391 H   0  0  0  0  0  0  0  0  0  0  0  0
   -1.0548   -1.8506   -1.1138 H   0  0  0  0  0  0  0  0  0  0  0  0
    1.7437    1.8499    0.0356 H   0  0  0  0  0  0  0  0  0  0  0  0
   -0.6391    1.3972    1.3817 H   0  0  0  0  0  0  0  0  0  0  0  0
   -0.3884    1.5910   -0.4054 H   0  0  0  0  0  0  0  0  0  0  0  0
    1.5479   -0.3394    2.0273 H   0  0  0  0  0  0  0  0  0  0  0  0
    1.2845   -1.8735    0.0922 H   0  0  0  0  0  0  0  0  0  0  0  0
    0.8407   -0.8256   -1.9858 H   0  0  0  0  0  0  0  0  0  0  0  0
    2.8158   -0.4704   -2.8098 H   0  0  0  0  0  0  0  0  0  0  0  0
    3.2414   -1.2668   -1.2864 H   0  0  0  0  0  0  0  0  0  0  0  0
    3.3091    1.6652   -1.7665 H   0  0  0  0  0  0  0  0  0  0  0  0
    5.1350    0.4580   -0.0490 H   0  0  0  0  0  0  0  0  0  0  0  0
    4.1234    1.8357    0.4017 H   0  0  0  0  0  0  0  0  0  0  0  0
    3.6337   -1.1720    0.7144 H   0  0  0  0  0  0  0  0  0  0  0  0
    3.9497   -0.6815    2.7542 H   0  0  0  0  0  0  0  0  0  0  0  0
   -1.8114   -1.8072    1.4630 H   0  0  0  0  0  0  0  0  0  0  0  0
   -2.4840   -2.6135   -0.0175 H   0  0  0  0  0  0  0  0  0  0  0  0
   -3.2094    0.0506    1.3287 H   0  0  0  0  0  0  0  0  0  0  0  0
   -4.7315   -1.8945   -0.1287 H   0  0  0  0  0  0  0  0  0  0  0  0
   -3.4566    2.9256   -0.1903 H   0  0  0  0  0  0  0  0  0  0  0  0
   -5.1657    0.9678   -0.6049 H   0  0  0  0  0  0  0  0  0  0  0  0
   -4.0093    1.6892   -1.8262 H   0  0  0  0  0  0  0  0  0  0  0  0
   -3.7296   -0.8130   -1.5634 H   0  0  0  0  0  0  0  0  0  0  0  0
   -0.9039   -1.5485   -1.2210 H   0  0  0  0  0  0  0  0  0  0  0  0
    1.4056    1.8547    0.1245 H   0  0  0  0  0  0  0  0  0  0  0  0
   -0.5749    0.6074    1.8248 H   0  0  0  0  0  0  0  0  0  0  0  0
   -0.8365    1.6818    0.3967 H   0  0  0  0  0  0  0  0  0  0  0  0
    1.5275   -0.4984    1.9438 H   0  0  0  0  0  0  0  0  0  0  0  0
    1.2506   -1.8177   -0.0042 H   0  0  0  0  0  0  0  0  0  0  0  0
    1.1698   -0.8484   -2.1420 H   0  0  0  0  0  0  0  0  0  0  0  0
    3.2639   -0.9745   -2.6744 H   0  0  0  0  0  0  0  0  0  0  0  0
    3.4094   -1.5756   -1.0196 H   0  0  0  0  0  0  0  0  0  0  0  0
    3.7319    1.1649   -2.1111 H   0  0  0  0  0  0  0  0  0  0  0  0
    3.4502    1.9364    0.0199 H   0  0  0  0  0  0  0  0  0  0  0  0
    5.0017    1.1176    0.2715 H   0  0  0  0  0  0  0  0  0  0  0  0
    3.6809   -1.0010    0.9181 H   0  0  0  0  0  0  0  0  0  0  0  0
    3.5692   -0.1914    2.9124 H   0  0  0  0  0  0  0  0  0  0  0  0
   -1.6425   -1.2627    1.6219 H   0  0  0  0  0  0  0  0  0  0  0  0
   -2.4976   -2.4447    0.5053 H   0  0  0  0  0  0  0  0  0  0  0  0
   -3.1115    0.4757    1.1147 H   0  0  0  0  0  0  0  0  0  0  0  0
   -4.6431   -1.7749    0.2773 H   0  0  0  0  0  0  0  0  0  0  0  0
   -3.8515    2.9508   -0.7836 H   0  0  0  0  0  0  0  0  0  0  0  0
   -5.1009    0.9648   -0.8632 H   0  0  0  0  0  0  0  0  0  0  0  0
   -4.0569    1.3167   -2.2899 H   0  0  0  0  0  0  0  0  0  0  0  0
   -3.8111   -1.0539   -1.4391 H   0  0  0  0  0  0  0  0  0  0  0  0
   -1.0548   -1.8506   -1.1138 H   0  0  0  0  0  0  0  0  0  0  0  0
    1.4056    1.8547    0.1245 H   0  0  0  0  0  0  0  0  0  0  0  0
   -0.5749    0.6074    1.8248 H   0  0  0  0  0  0  0  0  0  0  0  0
   -0.8365    1.6818    0.3967 H   0  0  0  0  0  0  0  0  0  0  0  0
    1.5275   -0.4984    1.9438 H   0  0  0  0  0  0  0  0  0  0  0  0
    1.2506   -1.8177   -0.0042 H   0  0  0  0  0  0  0  0  0  0  0  0
    1.1698   -0.8484   -2.1420 H   0  0  0  0  0  0  0  0  0  0  0  0
    3.2639   -0.9745   -2.6744 H   0  0  0  0  0  0  0  0  0  0  0  0
    3.4094   -1.5756   -1.0196 H   0  0  0  0  0  0  0  0  0  0  0  0
    3.7319    1.1649   -2.1111 H   0  0  0  0  0  0  0  0  0  0  0  0
    3.4502    1.9364    0.0199 H   0  0  0  0  0  0  0  0  0  0  0  0
    5.0017    1.1176    0.2715 H   0  0  0  0  0  0  0  0  0  0  0  0
    3.6809   -1.0010    0.9181 H   0  0  0  0  0  0  0  0  0  0  0  0
    3.5692   -0.1914    2.9124 H   0  0  0  0  0  0  0  0  0  0  0  0
   -1.6425   -1.2627    1.6219 H   0  0  0  0  0  0  0  0  0  0  0  0
   -2.4976   -2.4447    0.5053 H   0  0  0  0  0  0  0  0  0  0  0  0
   -3.1115    0.4757    1.1147 H   0  0  0  0  0  0  0  0  0  0  0  0
   -4.6431   -1.7749    0.2773 H   0  0  0  0  0  0  0  0  0  0  0  0
   -3.8515    2.9508   -0.7836 H   0  0  0  0  0  0  0  0  0  0  0  0
   -5.1009    0.9648   -0.8632 H   0  0  0  0  0  0  0  0  0  0  0  0
   -4.0569    1.3167   -2.2899 H   0  0  0  0  0  0  0  0  0  0  0  0
   -3.8111   -1.0539   -1.4391 H   0  0  0  0  0  0  0  0  0  0  0  0
   -1.0548   -1.8506   -1.1138 H   0  0  0  0  0  0  0  0  0  0  0  0
  1  2  1  0
  2  3  1  0
  1  4  1  0
  3  5  1  0
  4  5  1  0
  5  6  1  0
  6  7  1  0
  7  8  1  0
  8  9  1  0
  4 10  1  0
  9 10  1  0
 10 11  1  0
 12 13  1  0
 13 14  1  0
 15 16  1  0
 13 17  1  0
 16 17  1  0
 17 18  1  0
  3 19  1  0
 12 19  1  0
 18 19  1  0
 20 21  1  0
 21 22  1  0
 20 23  1  0
 22 24  1  0
 23 24  1  0
 24 25  1  0
 25 26  1  0
 26 27  1  0
 27 28  1  0
 23 29  1  0
 28 29  1  0
 29 30  1  0
 31 32  1  0
 32 33  1  0
 34 35  1  0
 32 36  1  0
 35 36  1  0
 36 37  1  0
 22 38  1  0
 31 38  1  0
 37 38  1  0
 39 40  1  0
 40 41  1  0
 39 42  1  0
 41 43  1  0
 42 43  1  0
 43 44  1  0
 44 45  1  0
 45 46  1  0
 46 47  1  0
 42 48  1  0
 47 48  1  0
 48 49  1  0
 50 51  1  0
 51 52  1  0
 53 54  1  0
 51 55  1  0
 54 55  1  0
 55 56  1  0
 41 57  1  0
 50 57  1  0
 56 57  1  0
 58 59  1  0
 59 60  1  0
 58 61  1  0
 60 62  1  0
 61 62  1  0
 62 63  1  0
 63 64  1  0
 64 65  1  0
 65 66  1  0
 61 67  1  0
 66 67  1  0
 67 68  1  0
 69 70  1  0
 70 71  1  0
 72 73  1  0
 70 74  1  0
 73 74  1  0
 74 75  1  0
 60 76  1  0
 69 76  1  0
 75 76  1  0
  1 77  1  0
  2 78  1  0
  2 79  1  0
  4 80  1  1
  5 81  1  1
  6 82  1  0
  7 83  1  0
  7 84  1  0
  8 85  1  0
  9 86  1  0
  9 87  1  0
 10 88  1  6
 11 89  1  0
 12 90  1  0
 12 91  1  0
 13 92  1  1
 14 93  1  0
 15 94  1  0
 16 95  1  0
 16 96  1  0
 17 97  1  6
 19 98  1  6
 20 99  1  0
 21100  1  0
 21101  1  0
 23102  1  0
 24103  1  6
 25104  1  0
 26105  1  0
 26106  1  0
 27107  1  0
 28108  1  0
 28109  1  0
 29110  1  6
 30111  1  0
 31112  1  0
 31113  1  0
 32114  1  1
 33115  1  0
 34116  1  0
 35117  1  0
 35118  1  0
 36119  1  6
 38120  1  6
 39121  1  0
 40122  1  0
 40123  1  0
 42124  1  1
 43125  1  1
 44126  1  0
 45127  1  0
 45128  1  0
 46129  1  0
 47130  1  0
 47131  1  0
 48132  1  6
 49133  1  0
 50134  1  0
 50135  1  0
 51136  1  1
 52137  1  0
 53138  1  0
 54139  1  0
 54140  1  0
 55141  1  6
 57142  1  6
 58143  1  0
 59144  1  0
 59145  1  0
 61146  1  1
 62147  1  1
 63148  1  0
 64149  1  0
 64150  1  0
 65151  1  0
 66152  1  0
 66153  1  0
 67154  1  6
 68155  1  0
 69156  1  0
 69157  1  0
 70158  1  1
 71159  1  0
 72160  1  0
 73161  1  0
 73162  1  0
 74163  1  6
 76164  1  6
M  END
>  <PDBID>  (1) 
1A4L

>  <PDB ID>  (1) 
1A4L

>  <Generic Name>  (1) 
Pentostatin

>  <Brand Name>  (1) 
Nipent#Nipent Pws 10mg/vial

>  <DrugBank ID>  (1) 
DB00552

>  <ATC Codes>  (1) 
L01XX08

>  <Ligand ID>  (1) 
DCF

>  <Target Name>  (1) 
Adenosine deaminase

>  <UniProt ID>  (1) 
P00813

>  <PDB ID.1>  (1) 
1A4L

>  <Seq. Identity>  (1) 
83%

$$$$
