PDB_DB00655_04
     RDKit          3D

100106  0  0  0  0  0  0  0  0999 V2000
    0.2682   -0.1415   -0.3880 C   0  0  2  0  0  0  0  0  0  0  0  0
   -1.7175   -0.1443   -1.7688 C   0  0  0  0  0  0  0  0  0  0  0  0
   -2.5663   -0.1253   -0.5454 C   0  0  2  0  0  0  0  0  0  0  0  0
   -3.0300   -1.4811   -0.1422 C   0  0  0  0  0  0  0  0  0  0  0  0
   -4.7817    0.3302   -1.3937 O   0  0  0  0  0  0  0  0  0  0  0  0
    5.8328   -0.2917    0.0889 O   0  0  0  0  0  0  0  0  0  0  0  0
   -3.7505    0.7999   -0.6258 C   0  0  1  0  0  0  0  0  0  0  0  0
   -4.1144    0.9692    0.8362 C   0  0  0  0  0  0  0  0  0  0  0  0
   -2.8522    0.6182    1.6260 C   0  0  0  0  0  0  0  0  0  0  0  0
   -1.8102    0.5996    0.5728 C   0  0  1  0  0  0  0  0  0  0  0  0
   -0.5296   -0.0529    0.9117 C   0  0  2  0  0  0  0  0  0  0  0  0
   -0.4509   -0.9393   -1.4081 C   0  0  0  0  0  0  0  0  0  0  0  0
    0.1807    0.6375    1.9937 C   0  0  0  0  0  0  0  0  0  0  0  0
    1.5123    1.2026    1.7114 C   0  0  0  0  0  0  0  0  0  0  0  0
    2.2949    0.6154    0.6077 C   0  0  0  0  0  0  0  0  0  0  0  0
    1.6356   -0.6077   -0.0365 C   0  0  0  0  0  0  0  0  0  0  0  0
    3.7246    0.2734    1.0286 C   0  0  0  0  0  0  0  0  0  0  0  0
    4.5011   -0.1253   -0.2082 C   0  0  0  0  0  0  0  0  0  0  0  0
    3.8545   -1.3616   -0.7695 C   0  0  0  0  0  0  0  0  0  0  0  0
    2.4661   -0.9879   -1.2446 C   0  0  0  0  0  0  0  0  0  0  0  0
    0.2682   -0.1415   -0.3880 C   0  0  2  0  0  0  0  0  0  0  0  0
   -1.7175   -0.1443   -1.7688 C   0  0  0  0  0  0  0  0  0  0  0  0
   -2.5663   -0.1253   -0.5454 C   0  0  2  0  0  0  0  0  0  0  0  0
   -3.0300   -1.4811   -0.1422 C   0  0  0  0  0  0  0  0  0  0  0  0
   -4.7817    0.3302   -1.3937 O   0  0  0  0  0  0  0  0  0  0  0  0
    5.8328   -0.2917    0.0889 O   0  0  0  0  0  0  0  0  0  0  0  0
   -3.7505    0.7999   -0.6258 C   0  0  1  0  0  0  0  0  0  0  0  0
   -4.1144    0.9692    0.8362 C   0  0  0  0  0  0  0  0  0  0  0  0
   -2.8522    0.6182    1.6260 C   0  0  0  0  0  0  0  0  0  0  0  0
   -1.8102    0.5996    0.5728 C   0  0  1  0  0  0  0  0  0  0  0  0
   -0.5296   -0.0529    0.9117 C   0  0  2  0  0  0  0  0  0  0  0  0
   -0.4509   -0.9393   -1.4081 C   0  0  0  0  0  0  0  0  0  0  0  0
    0.1807    0.6375    1.9937 C   0  0  0  0  0  0  0  0  0  0  0  0
    1.5123    1.2026    1.7114 C   0  0  0  0  0  0  0  0  0  0  0  0
    2.2949    0.6154    0.6077 C   0  0  0  0  0  0  0  0  0  0  0  0
    1.6356   -0.6077   -0.0365 C   0  0  0  0  0  0  0  0  0  0  0  0
    3.7246    0.2734    1.0286 C   0  0  0  0  0  0  0  0  0  0  0  0
    4.5011   -0.1253   -0.2082 C   0  0  0  0  0  0  0  0  0  0  0  0
    3.8545   -1.3616   -0.7695 C   0  0  0  0  0  0  0  0  0  0  0  0
    2.4661   -0.9879   -1.2446 C   0  0  0  0  0  0  0  0  0  0  0  0
    0.3212    0.9216   -0.7634 H   0  0  0  0  0  0  0  0  0  0  0  0
   -2.2426   -0.6007   -2.6164 H   0  0  0  0  0  0  0  0  0  0  0  0
   -1.3657    0.8939   -1.9706 H   0  0  0  0  0  0  0  0  0  0  0  0
   -2.7679   -2.2075   -0.9669 H   0  0  0  0  0  0  0  0  0  0  0  0
   -2.6039   -1.8817    0.7744 H   0  0  0  0  0  0  0  0  0  0  0  0
   -4.1556   -1.5426   -0.0884 H   0  0  0  0  0  0  0  0  0  0  0  0
   -5.2166    1.0691   -1.8717 H   0  0  0  0  0  0  0  0  0  0  0  0
    6.1653    0.5254    0.5111 H   0  0  0  0  0  0  0  0  0  0  0  0
   -3.3700    1.8009   -0.9623 H   0  0  0  0  0  0  0  0  0  0  0  0
   -4.9739    0.3571    1.1406 H   0  0  0  0  0  0  0  0  0  0  0  0
   -4.3349    2.0329    1.0694 H   0  0  0  0  0  0  0  0  0  0  0  0
   -2.6715    1.3582    2.4330 H   0  0  0  0  0  0  0  0  0  0  0  0
   -2.9526   -0.3729    2.1012 H   0  0  0  0  0  0  0  0  0  0  0  0
   -1.6620    1.6403    0.1992 H   0  0  0  0  0  0  0  0  0  0  0  0
   -0.7525   -1.1284    1.1768 H   0  0  0  0  0  0  0  0  0  0  0  0
    0.1476   -0.9917   -2.3265 H   0  0  0  0  0  0  0  0  0  0  0  0
   -0.7467   -1.9393   -1.0241 H   0  0  0  0  0  0  0  0  0  0  0  0
   -0.4734    1.4711    2.3908 H   0  0  0  0  0  0  0  0  0  0  0  0
    0.2613   -0.0601    2.8813 H   0  0  0  0  0  0  0  0  0  0  0  0
    1.4300    2.3159    1.5297 H   0  0  0  0  0  0  0  0  0  0  0  0
    2.1497    1.1455    2.6448 H   0  0  0  0  0  0  0  0  0  0  0  0
    2.4182    1.3442   -0.2425 H   0  0  0  0  0  0  0  0  0  0  0  0
    1.6329   -1.4575    0.6674 H   0  0  0  0  0  0  0  0  0  0  0  0
    4.1617    1.1948    1.4294 H   0  0  0  0  0  0  0  0  0  0  0  0
    3.7228   -0.5238    1.7721 H   0  0  0  0  0  0  0  0  0  0  0  0
    4.4208    0.6757   -0.9690 H   0  0  0  0  0  0  0  0  0  0  0  0
    4.4899   -1.7663   -1.5606 H   0  0  0  0  0  0  0  0  0  0  0  0
    3.7336   -2.0729    0.0950 H   0  0  0  0  0  0  0  0  0  0  0  0
    2.0492   -1.8682   -1.7521 H   0  0  0  0  0  0  0  0  0  0  0  0
    2.5180   -0.1204   -1.9300 H   0  0  0  0  0  0  0  0  0  0  0  0
    0.3212    0.9216   -0.7634 H   0  0  0  0  0  0  0  0  0  0  0  0
   -2.2426   -0.6007   -2.6164 H   0  0  0  0  0  0  0  0  0  0  0  0
   -1.3657    0.8939   -1.9706 H   0  0  0  0  0  0  0  0  0  0  0  0
   -2.7679   -2.2075   -0.9669 H   0  0  0  0  0  0  0  0  0  0  0  0
   -2.6039   -1.8817    0.7744 H   0  0  0  0  0  0  0  0  0  0  0  0
   -4.1556   -1.5426   -0.0884 H   0  0  0  0  0  0  0  0  0  0  0  0
   -5.2166    1.0691   -1.8717 H   0  0  0  0  0  0  0  0  0  0  0  0
    6.1653    0.5254    0.5111 H   0  0  0  0  0  0  0  0  0  0  0  0
   -3.3700    1.8009   -0.9623 H   0  0  0  0  0  0  0  0  0  0  0  0
   -4.9739    0.3571    1.1406 H   0  0  0  0  0  0  0  0  0  0  0  0
   -4.3349    2.0329    1.0694 H   0  0  0  0  0  0  0  0  0  0  0  0
   -2.6715    1.3582    2.4330 H   0  0  0  0  0  0  0  0  0  0  0  0
   -2.9526   -0.3729    2.1012 H   0  0  0  0  0  0  0  0  0  0  0  0
   -1.6620    1.6403    0.1992 H   0  0  0  0  0  0  0  0  0  0  0  0
   -0.7525   -1.1284    1.1768 H   0  0  0  0  0  0  0  0  0  0  0  0
    0.1476   -0.9917   -2.3265 H   0  0  0  0  0  0  0  0  0  0  0  0
   -0.7467   -1.9393   -1.0241 H   0  0  0  0  0  0  0  0  0  0  0  0
   -0.4734    1.4711    2.3908 H   0  0  0  0  0  0  0  0  0  0  0  0
    0.2613   -0.0601    2.8813 H   0  0  0  0  0  0  0  0  0  0  0  0
    1.4300    2.3159    1.5297 H   0  0  0  0  0  0  0  0  0  0  0  0
    2.1497    1.1455    2.6448 H   0  0  0  0  0  0  0  0  0  0  0  0
    2.4182    1.3442   -0.2425 H   0  0  0  0  0  0  0  0  0  0  0  0
    1.6329   -1.4575    0.6674 H   0  0  0  0  0  0  0  0  0  0  0  0
    4.1617    1.1948    1.4294 H   0  0  0  0  0  0  0  0  0  0  0  0
    3.7228   -0.5238    1.7721 H   0  0  0  0  0  0  0  0  0  0  0  0
    4.4208    0.6757   -0.9690 H   0  0  0  0  0  0  0  0  0  0  0  0
    4.4899   -1.7663   -1.5606 H   0  0  0  0  0  0  0  0  0  0  0  0
    3.7336   -2.0729    0.0950 H   0  0  0  0  0  0  0  0  0  0  0  0
    2.0492   -1.8682   -1.7521 H   0  0  0  0  0  0  0  0  0  0  0  0
    2.5180   -0.1204   -1.9300 H   0  0  0  0  0  0  0  0  0  0  0  0
  2  3  1  0
  3  4  1  1
  3  7  1  0
  5  7  1  0
  7  8  1  0
  8  9  1  0
  3 10  1  0
  9 10  1  0
  1 11  1  0
 10 11  1  0
  1 12  1  0
  2 12  1  0
 11 13  1  0
 13 14  1  0
 14 15  1  0
  1 16  1  0
 15 16  1  0
 15 17  1  0
  6 18  1  0
 17 18  1  0
 18 19  1  0
 16 20  1  0
 19 20  1  0
 22 23  1  0
 23 24  1  1
 23 27  1  0
 25 27  1  0
 27 28  1  0
 28 29  1  0
 23 30  1  0
 29 30  1  0
 21 31  1  0
 30 31  1  0
 21 32  1  0
 22 32  1  0
 31 33  1  0
 33 34  1  0
 34 35  1  0
 21 36  1  0
 35 36  1  0
 35 37  1  0
 26 38  1  0
 37 38  1  0
 38 39  1  0
 36 40  1  0
 39 40  1  0
  1 41  1  6
  2 42  1  0
  2 43  1  0
  4 44  1  0
  4 45  1  0
  4 46  1  0
  5 47  1  0
  6 48  1  0
  7 49  1  6
  8 50  1  0
  8 51  1  0
  9 52  1  0
  9 53  1  0
 10 54  1  6
 11 55  1  1
 12 56  1  0
 12 57  1  0
 13 58  1  0
 13 59  1  0
 14 60  1  0
 14 61  1  0
 15 62  1  0
 16 63  1  0
 17 64  1  0
 17 65  1  0
 18 66  1  0
 19 67  1  0
 19 68  1  0
 20 69  1  0
 20 70  1  0
 21 71  1  6
 22 72  1  0
 22 73  1  0
 24 74  1  0
 24 75  1  0
 24 76  1  0
 25 77  1  0
 26 78  1  0
 27 79  1  6
 28 80  1  0
 28 81  1  0
 29 82  1  0
 29 83  1  0
 30 84  1  6
 31 85  1  1
 32 86  1  0
 32 87  1  0
 33 88  1  0
 33 89  1  0
 34 90  1  0
 34 91  1  0
 35 92  1  0
 36 93  1  0
 37 94  1  0
 37 95  1  0
 38 96  1  0
 39 97  1  0
 39 98  1  0
 40 99  1  0
 40100  1  0
M  END
>  <PDBID>  (1) 
3HM1

>  <PDB ID>  (1) 
3HM1

>  <Generic Name>  (1) 
Estrone

>  <Brand Name>  (1) 
Estragyn Vaginal Cream#Oestrilin Cones Vaginaux#Oestrilin Creme Vaginale 1mg#Estrone

>  <DrugBank ID>  (1) 
DB00655

>  <ATC Codes>  (1) 
G03CA07#G03CC04

>  <Ligand ID>  (1) 
J3Z

>  <Target Name>  (1) 
Estrogen receptor

>  <UniProt ID>  (1) 
P03372

>  <PDB ID.1>  (1) 
3HM1

>  <Seq. Identity>  (1) 
93%

$$$$
