PDB_DB00966_04
     RDKit          3D

 99104  0  0  0  0  0  0  0  0999 V2000
   -1.5205   -0.7112    1.0570 C   0  0  0  0  0  0  0  0  0  0  0  0
   -0.1795   -0.7626    0.4451 N   0  0  0  0  0  0  0  0  0  0  0  0
   -1.7696   -2.0962    1.4883 C   0  0  0  0  0  0  0  0  0  0  0  0
   -2.5417   -0.3049   -0.0196 C   0  0  0  0  0  0  0  0  0  0  0  0
   -0.0302   -2.1182   -0.0078 C   0  0  0  0  0  0  0  0  0  0  0  0
    0.7266   -0.4874    1.5173 C   0  0  0  0  0  0  0  0  0  0  0  0
   -1.1977   -2.8768    0.4433 N   0  0  0  0  0  0  0  0  0  0  0  0
   -3.2061   -2.4177    1.7799 C   0  0  0  0  0  0  0  0  0  0  0  0
   -3.8718   -0.3217    0.6917 C   0  0  0  0  0  0  0  0  0  0  0  0
    0.1013   -2.2521   -1.5179 C   0  0  0  0  0  0  0  0  0  0  0  0
    2.0936   -0.0410    1.1849 C   0  0  0  0  0  0  0  0  0  0  0  0
   -4.2237   -1.7543    0.9240 C   0  0  0  0  0  0  0  0  0  0  0  0
   -3.4645   -2.1040    3.2503 C   0  0  0  0  0  0  0  0  0  0  0  0
   -4.9455    0.4894    0.0649 C   0  0  0  0  0  0  0  0  0  0  0  0
    0.2480   -3.7565   -1.7908 C   0  0  0  0  0  0  0  0  0  0  0  0
    2.9700   -0.9166    0.3733 C   0  0  0  0  0  0  0  0  0  0  0  0
    2.0670    1.3178    0.4876 C   0  0  0  0  0  0  0  0  0  0  0  0
   -5.4088    0.1047   -1.2237 N   0  0  0  0  0  0  0  0  0  0  0  0
   -4.5644    1.8764   -0.1359 N   0  0  0  0  0  0  0  0  0  0  0  0
    1.4655   -4.2967   -1.1036 C   0  0  0  0  0  0  0  0  0  0  0  0
    4.4172   -0.4104    0.6345 C   0  0  0  0  0  0  0  0  0  0  0  0
    3.3509    1.7541   -0.0563 C   0  0  0  0  0  0  0  0  0  0  0  0
   -6.4151    1.1654   -1.4528 C   0  0  0  0  0  0  0  0  0  0  0  0
   -4.4318    0.3590   -2.2660 C   0  0  0  0  0  0  0  0  0  0  0  0
   -5.6705    2.3731   -0.9268 C   0  0  0  0  0  0  0  0  0  0  0  0
    4.5732    1.0396    0.4659 C   0  0  0  0  0  0  0  0  0  0  0  0
   -7.7161    0.9164   -0.7967 C   0  0  0  0  0  0  0  0  0  0  0  0
   -6.5454    3.2362   -0.0680 C   0  0  0  0  0  0  0  0  0  0  0  0
    5.7491    1.5321   -0.3225 C   0  0  1  0  0  0  0  0  0  0  0  0
   -8.5906    2.1346   -1.0452 C   0  0  0  0  0  0  0  0  0  0  0  0
   -7.9251    3.4241   -0.6814 C   0  0  0  0  0  0  0  0  0  0  0  0
    7.0945    1.1858    0.2142 C   0  0  0  0  0  0  0  0  0  0  0  0
    5.6799    1.2230   -1.7862 C   0  0  0  0  0  0  0  0  0  0  0  0
    7.6115   -0.1829   -0.0448 C   0  0  0  0  0  0  0  0  0  0  0  0
    7.2678    1.6082    1.6637 C   0  0  0  0  0  0  0  0  0  0  0  0
    6.9891    0.6693   -2.3156 C   0  0  0  0  0  0  0  0  0  0  0  0
    7.4852   -0.4942   -1.5038 C   0  0  0  0  0  0  0  0  0  0  0  0
    8.5790    1.2136    2.0182 O   0  0  0  0  0  0  0  0  0  0  0  0
    7.2392    2.9808    1.6955 O   0  0  0  0  0  0  0  0  0  0  0  0
   -1.5641    0.0112    1.8723 H   0  0  0  0  0  0  0  0  0  0  0  0
   -1.2085   -2.3231    2.4329 H   0  0  0  0  0  0  0  0  0  0  0  0
   -2.5394   -1.1159   -0.7380 H   0  0  0  0  0  0  0  0  0  0  0  0
   -2.2834    0.6697   -0.4144 H   0  0  0  0  0  0  0  0  0  0  0  0
    0.8300   -2.6633    0.4249 H   0  0  0  0  0  0  0  0  0  0  0  0
    0.3076    0.2904    2.2273 H   0  0  0  0  0  0  0  0  0  0  0  0
    0.8431   -1.3810    2.2068 H   0  0  0  0  0  0  0  0  0  0  0  0
   -1.8682   -3.0434   -0.3106 H   0  0  0  0  0  0  0  0  0  0  0  0
   -3.2920   -3.5359    1.6802 H   0  0  0  0  0  0  0  0  0  0  0  0
   -3.6875    0.1271    1.7080 H   0  0  0  0  0  0  0  0  0  0  0  0
   -0.7195   -1.8199   -2.0834 H   0  0  0  0  0  0  0  0  0  0  0  0
    1.0276   -1.7960   -1.8579 H   0  0  0  0  0  0  0  0  0  0  0  0
    2.6025    0.1801    2.1642 H   0  0  0  0  0  0  0  0  0  0  0  0
   -5.1977   -1.7864    1.4907 H   0  0  0  0  0  0  0  0  0  0  0  0
   -4.4385   -2.3127   -0.0105 H   0  0  0  0  0  0  0  0  0  0  0  0
   -3.2317   -2.9901    3.8790 H   0  0  0  0  0  0  0  0  0  0  0  0
   -2.8572   -1.2348    3.5684 H   0  0  0  0  0  0  0  0  0  0  0  0
   -4.5462   -1.8151    3.3556 H   0  0  0  0  0  0  0  0  0  0  0  0
   -5.7952    0.5296    0.7926 H   0  0  0  0  0  0  0  0  0  0  0  0
   -0.6237   -4.2969   -1.3524 H   0  0  0  0  0  0  0  0  0  0  0  0
    0.2102   -3.9199   -2.8651 H   0  0  0  0  0  0  0  0  0  0  0  0
    2.7905   -0.8036   -0.7247 H   0  0  0  0  0  0  0  0  0  0  0  0
    3.0030   -1.9843    0.6607 H   0  0  0  0  0  0  0  0  0  0  0  0
    1.6165    2.0184    1.2453 H   0  0  0  0  0  0  0  0  0  0  0  0
    1.3065    1.2358   -0.3142 H   0  0  0  0  0  0  0  0  0  0  0  0
   -4.4539    2.3965    0.7623 H   0  0  0  0  0  0  0  0  0  0  0  0
    2.2296   -3.4862   -1.0382 H   0  0  0  0  0  0  0  0  0  0  0  0
    1.2788   -4.6257   -0.0611 H   0  0  0  0  0  0  0  0  0  0  0  0
    1.8670   -5.1812   -1.6585 H   0  0  0  0  0  0  0  0  0  0  0  0
    4.6456   -0.7973    1.6483 H   0  0  0  0  0  0  0  0  0  0  0  0
    5.0027   -1.0397   -0.0682 H   0  0  0  0  0  0  0  0  0  0  0  0
    3.3915    1.7042   -1.1677 H   0  0  0  0  0  0  0  0  0  0  0  0
    3.4856    2.8544    0.1787 H   0  0  0  0  0  0  0  0  0  0  0  0
   -6.5959    1.2427   -2.5545 H   0  0  0  0  0  0  0  0  0  0  0  0
   -5.0057    0.6337   -3.2177 H   0  0  0  0  0  0  0  0  0  0  0  0
   -3.8577    1.2629   -2.0507 H   0  0  0  0  0  0  0  0  0  0  0  0
   -3.8608   -0.5265   -2.5762 H   0  0  0  0  0  0  0  0  0  0  0  0
   -5.3175    2.9518   -1.8104 H   0  0  0  0  0  0  0  0  0  0  0  0
    4.7218    1.4783    1.5037 H   0  0  0  0  0  0  0  0  0  0  0  0
   -7.7242    0.7350    0.2731 H   0  0  0  0  0  0  0  0  0  0  0  0
   -8.2103    0.0805   -1.3202 H   0  0  0  0  0  0  0  0  0  0  0  0
   -6.5701    2.9233    0.9846 H   0  0  0  0  0  0  0  0  0  0  0  0
   -6.0674    4.2575   -0.0663 H   0  0  0  0  0  0  0  0  0  0  0  0
    5.7134    2.6720   -0.1926 H   0  0  0  0  0  0  0  0  0  0  0  0
   -9.5211    2.0447   -0.4509 H   0  0  0  0  0  0  0  0  0  0  0  0
   -8.9160    2.1818   -2.1081 H   0  0  0  0  0  0  0  0  0  0  0  0
   -8.5062    4.0459    0.0394 H   0  0  0  0  0  0  0  0  0  0  0  0
   -7.7854    4.0945   -1.5810 H   0  0  0  0  0  0  0  0  0  0  0  0
    7.8080    1.8759   -0.3419 H   0  0  0  0  0  0  0  0  0  0  0  0
    5.5138    2.1658   -2.3487 H   0  0  0  0  0  0  0  0  0  0  0  0
    4.8202    0.5675   -2.0698 H   0  0  0  0  0  0  0  0  0  0  0  0
    8.7190   -0.1262    0.2267 H   0  0  0  0  0  0  0  0  0  0  0  0
    7.2436   -0.9761    0.6365 H   0  0  0  0  0  0  0  0  0  0  0  0
    6.5852    1.1173    2.3508 H   0  0  0  0  0  0  0  0  0  0  0  0
    7.7539    1.4687   -2.3508 H   0  0  0  0  0  0  0  0  0  0  0  0
    6.8109    0.3168   -3.3486 H   0  0  0  0  0  0  0  0  0  0  0  0
    8.4749   -0.7791   -1.9127 H   0  0  0  0  0  0  0  0  0  0  0  0
    6.8167   -1.3622   -1.6406 H   0  0  0  0  0  0  0  0  0  0  0  0
    9.2411    1.9194    1.8263 H   0  0  0  0  0  0  0  0  0  0  0  0
    8.0937    3.3710    1.3251 H   0  0  0  0  0  0  0  0  0  0  0  0
  1  2  1  0
  1  3  1  0
  1  4  1  0
  2  5  1  0
  2  6  1  0
  3  7  1  0
  5  7  1  0
  3  8  1  0
  4  9  1  0
  5 10  1  0
  6 11  1  0
  8 12  1  0
  9 12  1  0
  8 13  1  0
  9 14  1  0
 10 15  1  0
 11 16  1  0
 11 17  1  0
 14 18  1  0
 14 19  1  0
 15 20  1  0
 16 21  1  0
 17 22  1  0
 18 23  1  0
 18 24  1  0
 19 25  1  0
 23 25  1  0
 21 26  1  0
 22 26  1  0
 23 27  1  0
 25 28  1  0
 26 29  1  0
 27 30  1  0
 28 31  1  0
 30 31  1  0
 29 32  1  0
 29 33  1  0
 32 34  1  0
 32 35  1  0
 33 36  1  0
 34 37  1  0
 36 37  1  0
 35 38  1  0
 35 39  1  0
  1 40  1  0
  3 41  1  0
  4 42  1  0
  4 43  1  0
  5 44  1  0
  6 45  1  0
  6 46  1  0
  7 47  1  0
  8 48  1  0
  9 49  1  0
 10 50  1  0
 10 51  1  0
 11 52  1  0
 12 53  1  0
 12 54  1  0
 13 55  1  0
 13 56  1  0
 13 57  1  0
 14 58  1  0
 15 59  1  0
 15 60  1  0
 16 61  1  0
 16 62  1  0
 17 63  1  0
 17 64  1  0
 19 65  1  0
 20 66  1  0
 20 67  1  0
 20 68  1  0
 21 69  1  0
 21 70  1  0
 22 71  1  0
 22 72  1  0
 23 73  1  0
 24 74  1  0
 24 75  1  0
 24 76  1  0
 25 77  1  0
 26 78  1  0
 27 79  1  0
 27 80  1  0
 28 81  1  0
 28 82  1  0
 29 83  1  6
 30 84  1  0
 30 85  1  0
 31 86  1  0
 31 87  1  0
 32 88  1  0
 33 89  1  0
 33 90  1  0
 34 91  1  0
 34 92  1  0
 35 93  1  0
 36 94  1  0
 36 95  1  0
 37 96  1  0
 37 97  1  0
 38 98  1  0
 39 99  1  0
M  END
>  <PDBID>  (1) 
3VN2

>  <PDB ID>  (1) 
3VN2

>  <Generic Name>  (1) 
Telmisartan

>  <Brand Name>  (1) 
Ach-telmisartan Hctz#Act Telmisartan#Act Telmisartan/hct#Apo-telmisartan#Apo-telmisartan/hctz#Auro-telmisartan#Auro-telmisartan Hctz#Mar-telmisartan#Micardis#Micardis 40mg Tab#Micardis 80mg Tab#Micardis Hct#Micardis Plus#Mylan-telmisartan#Mylan-telmisartan Hctz#Ntp-telmisartan#Ntp-telmisartan Hctz#PMS-telmisartan#PMS-telmisartan-hctz#Pendo-telmisartan#Pendo-telmisartan-hctz#Ran-telmisartan#Ran-telmisartan Hctz#Sandoz Telmisartan#Sandoz Telmisartan Hct#Septa-telmisartan#Telmisartan#Telmisartan Hctz#Telmisartan Tablets#Telmisartan and Amlodipine#Telmisartan and Hydrochlorothiazide#Telmisartan and Hydrochlorothiazide 40 Mg/12.5 mg#Telmisartan and Hydrochlorothiazide 80 Mg/12.5 mg#Telmisartan and Hydrochlorothiazide 80 Mg/25 mg#Telmisartan and Hydrochlorthiazide#Telmisartan-hctz#Telmisartan/hctz#Teva-telmisartan#Teva-telmisartan Hctz#Torrent-telmisartan#Torrent-telmisartan and Hydrochlorothiazide#Twynsta#Van-telmisartan#Van-telmisartan-hctz#Zinda-telmisartan#Zinda-telmisartan/ Hctz#Pritor

>  <DrugBank ID>  (1) 
DB00966

>  <ATC Codes>  (1) 
C09DB04#C09DA07#C09CA07

>  <Ligand ID>  (1) 
TLS

>  <Target Name>  (1) 
Peroxisome proliferator-activated receptor gamma

>  <UniProt ID>  (1) 
P37231

>  <PDB ID.1>  (1) 
3VN2

>  <Seq. Identity>  (1) 
95%

$$$$
