PDB_DB00715_07
     RDKit          3D

 56 59  0  0  0  0  0  0  0  0999 V2000
    4.6183    2.5418    0.2614 F   0  0  0  0  0  0  0  0  0  0  0  0
    2.6927    2.2225   -1.1287 C   0  0  0  0  0  0  0  0  0  0  0  0
    2.4771    2.4309    1.3389 C   0  0  0  0  0  0  0  0  0  0  0  0
   -3.4116   -1.0954    1.7135 C   0  0  0  0  0  0  0  0  0  0  0  0
    2.7960    0.6907   -1.1030 C   0  0  0  0  0  0  0  0  0  0  0  0
    1.6040    1.2375    0.9945 C   0  0  0  0  0  0  0  0  0  0  0  0
   -3.9062    0.3271    1.8808 C   0  0  0  0  0  0  0  0  0  0  0  0
   -2.9100   -0.7496   -0.6088 C   0  0  0  0  0  0  0  0  0  0  0  0
    2.7490   -2.4427   -1.5597 C   0  0  0  0  0  0  0  0  0  0  0  0
    2.8866   -2.2166   -0.0963 C   0  0  0  0  0  0  0  0  0  0  0  0
    0.4022   -1.8080   -1.4865 C   0  0  0  0  0  0  0  0  0  0  0  0
   -3.2328    2.7431   -0.0816 C   0  0  0  0  0  0  0  0  0  0  0  0
   -0.2184   -2.1874    0.9046 C   0  0  0  0  0  0  0  0  0  0  0  0
    1.4228   -2.6180   -2.0186 N   0  0  0  0  0  0  0  0  0  0  0  0
   -1.5278   -2.1557    0.6433 O   0  0  0  0  0  0  0  0  0  0  0  0
   -4.2535    2.3292    0.7331 O   0  0  0  0  0  0  0  0  0  0  0  0
   -2.4911    1.6221   -0.4490 O   0  0  0  0  0  0  0  0  0  0  0  0
    3.2887    2.8231    0.1159 C   0  0  0  0  0  0  0  0  0  0  0  0
   -2.2656   -1.0420    0.7206 C   0  0  0  0  0  0  0  0  0  0  0  0
    2.4882    0.2383    0.2694 C   0  0  0  0  0  0  0  0  0  0  0  0
   -4.3670    0.9294    0.5839 C   0  0  0  0  0  0  0  0  0  0  0  0
   -3.4617    0.6581   -0.5636 C   0  0  0  0  0  0  0  0  0  0  0  0
    0.5581   -1.3375   -0.0719 C   0  0  1  0  0  0  0  0  0  0  0  0
    1.9457   -1.1562    0.4163 C   0  0  1  0  0  0  0  0  0  0  0  0
    1.6473    2.5604   -1.2143 H   0  0  0  0  0  0  0  0  0  0  0  0
    3.2452    2.6286   -1.9967 H   0  0  0  0  0  0  0  0  0  0  0  0
    1.8344    3.2675    1.6973 H   0  0  0  0  0  0  0  0  0  0  0  0
    3.1899    2.1947    2.1512 H   0  0  0  0  0  0  0  0  0  0  0  0
   -3.0992   -1.4314    2.7105 H   0  0  0  0  0  0  0  0  0  0  0  0
   -4.2356   -1.7223    1.3690 H   0  0  0  0  0  0  0  0  0  0  0  0
    2.1156    0.3499   -1.8918 H   0  0  0  0  0  0  0  0  0  0  0  0
    3.8824    0.4985   -1.3471 H   0  0  0  0  0  0  0  0  0  0  0  0
    0.7867    1.5575    0.3382 H   0  0  0  0  0  0  0  0  0  0  0  0
    1.2357    0.8241    1.9597 H   0  0  0  0  0  0  0  0  0  0  0  0
   -3.1680    0.9665    2.3688 H   0  0  0  0  0  0  0  0  0  0  0  0
   -4.8071    0.2970    2.5567 H   0  0  0  0  0  0  0  0  0  0  0  0
   -3.8195   -1.4102   -0.7408 H   0  0  0  0  0  0  0  0  0  0  0  0
   -2.2710   -0.8234   -1.4793 H   0  0  0  0  0  0  0  0  0  0  0  0
    3.2929   -3.4129   -1.7767 H   0  0  0  0  0  0  0  0  0  0  0  0
    3.3390   -1.6930   -2.1379 H   0  0  0  0  0  0  0  0  0  0  0  0
    3.9243   -1.8643    0.1004 H   0  0  0  0  0  0  0  0  0  0  0  0
    2.7775   -3.1638    0.4691 H   0  0  0  0  0  0  0  0  0  0  0  0
   -0.5347   -2.4487   -1.4791 H   0  0  0  0  0  0  0  0  0  0  0  0
    0.1503   -0.9870   -2.2016 H   0  0  0  0  0  0  0  0  0  0  0  0
   -3.6912    3.1330   -1.0294 H   0  0  0  0  0  0  0  0  0  0  0  0
   -2.5431    3.4715    0.3564 H   0  0  0  0  0  0  0  0  0  0  0  0
    0.1484   -3.2468    0.7410 H   0  0  0  0  0  0  0  0  0  0  0  0
    0.0921   -1.8286    1.9111 H   0  0  0  0  0  0  0  0  0  0  0  0
    1.1575   -3.5897   -2.2598 H   0  0  0  0  0  0  0  0  0  0  0  0
    3.1888    3.9238    0.0186 H   0  0  0  0  0  0  0  0  0  0  0  0
   -1.6477   -0.1537    1.0025 H   0  0  0  0  0  0  0  0  0  0  0  0
    3.4589    0.2467    0.8508 H   0  0  0  0  0  0  0  0  0  0  0  0
   -5.4414    0.7444    0.3707 H   0  0  0  0  0  0  0  0  0  0  0  0
   -4.0667    0.7763   -1.5064 H   0  0  0  0  0  0  0  0  0  0  0  0
    0.0434   -0.3261   -0.0473 H   0  0  0  0  0  0  0  0  0  0  0  0
    1.9307   -1.3232    1.5393 H   0  0  0  0  0  0  0  0  0  0  0  0
  2  5  1  0
  3  6  1  0
  4  7  1  0
  9 10  1  0
  9 14  1  0
 11 14  1  0
 13 15  1  0
 12 16  1  0
 12 17  1  0
  1 18  1  0
  2 18  1  0
  3 18  1  0
  4 19  1  0
  8 19  1  0
 15 19  1  0
  5 20  1  0
  6 20  1  0
  7 21  1  0
 16 21  1  0
  8 22  1  0
 17 22  1  0
 21 22  1  0
 11 23  1  0
 13 23  1  0
 10 24  1  0
 20 24  1  0
 23 24  1  0
  2 25  1  0
  2 26  1  0
  3 27  1  0
  3 28  1  0
  4 29  1  0
  4 30  1  0
  5 31  1  0
  5 32  1  0
  6 33  1  0
  6 34  1  0
  7 35  1  0
  7 36  1  0
  8 37  1  0
  8 38  1  0
  9 39  1  0
  9 40  1  0
 10 41  1  0
 10 42  1  0
 11 43  1  0
 11 44  1  0
 12 45  1  0
 12 46  1  0
 13 47  1  0
 13 48  1  0
 14 49  1  0
 18 50  1  0
 19 51  1  0
 20 52  1  0
 21 53  1  0
 22 54  1  0
 23 55  1  6
 24 56  1  1
M  END
>  <PDBID>  (1) 
5I6X

>  <PDB ID>  (1) 
5I6X

>  <Generic Name>  (1) 
Paroxetine

>  <Brand Name>  (1) 
Act Paroxetine#Apo-paroxetine#Auro-paroxetine#Bio-paroxetine#Brisdelle#Dom-paroxetine#Ipg-paroxetine#Jamp-paroxetine#Mar-paroxetine#Mint-paroxetine#Mylan-paroxetine#Ntp-paroxetine#Nu-paroxetine#PMS-paroxetine#Paroxetine#Paroxetine Hydrochloride#Paroxetine Hydrochloride Anhydrous#Paroxetine-10#Paroxetine-20#Paroxetine-30#Paxil#Paxil CR#Paxil Tab 10mg#Paxil Tab 20mg#Paxil Tab 30mg#Paxilcr CR#Pexeva#Priva-paroxetine#Q-paroxetine#Ratio-paroxetine#Riva-paroxetine#Sandoz Paroxetine#Sandoz Paroxetine Tablets#Teva-paroxetine#Aropax#PAXILCR#Sereupin#Seroxat#Seroxat CR

>  <DrugBank ID>  (1) 
DB00715

>  <ATC Codes>  (1) 
N06AB05

>  <Ligand ID>  (1) 
8PR

>  <Target Name>  (1) 
Sodium-dependent serotonin transporter

>  <UniProt ID>  (1) 
P31645

>  <PDB ID.1>  (1) 
5I6X

>  <Seq. Identity>  (1) 
99%

$$$$
