PDB_DB01409_07
     RDKit          3D

116124  0  0  0  0  0  0  0  0999 V2000
   -0.6477   -1.2790   -0.1709 C   0  0  2  0  0  0  0  0  0  0  0  0
   -0.8682   -2.6456    0.1535 O   0  0  0  0  0  0  0  0  0  0  0  0
   -2.2231   -0.7990    1.5895 C   0  0  0  0  0  0  0  0  0  0  0  0
   -2.9135   -1.1527   -0.8244 C   0  0  0  0  0  0  0  0  0  0  0  0
   -3.4366   -0.2488    2.2307 C   0  0  0  0  0  0  0  0  0  0  0  0
   -3.3919    1.2581    2.1118 C   0  0  0  0  0  0  0  0  0  0  0  0
   -2.1227    1.6974    2.7641 C   0  0  0  0  0  0  0  0  0  0  0  0
   -4.3137   -0.7345   -0.8253 C   0  0  0  0  0  0  0  0  0  0  0  0
   -4.8103   -1.1084   -2.2348 C   0  0  0  0  0  0  0  0  0  0  0  0
   -4.0101   -0.2082   -3.1790 C   0  0  0  0  0  0  0  0  0  0  0  0
    5.1309    1.0729    1.2695 O   0  0  0  0  0  0  0  0  0  0  0  0
    0.4279   -0.8706    0.5494 O   0  0  0  0  0  0  0  0  0  0  0  0
   -1.7931    0.7625   -0.1002 O   0  0  0  0  0  0  0  0  0  0  0  0
   -0.9984    0.2744    2.4621 S   0  0  0  0  0  0  0  0  0  0  0  0
   -2.3451   -0.4983   -2.4537 S   0  0  0  0  0  0  0  0  0  0  0  0
    5.2488    1.1799   -1.1752 C   0  0  0  0  0  0  0  0  0  0  0  0
    4.0188   -0.5770   -0.2673 C   0  0  2  0  0  0  0  0  0  0  0  0
    2.7209   -1.2900   -0.0747 C   0  0  0  0  0  0  0  0  0  0  0  0
    1.5055   -0.4357   -0.2426 C   0  0  2  0  0  0  0  0  0  0  0  0
    1.7116    1.0122    0.0015 C   0  0  0  0  0  0  0  0  0  0  0  0
    3.1436    1.4700   -0.0819 C   0  0  1  0  0  0  0  0  0  0  0  0
    3.7685    1.1833    1.2667 C   0  0  1  0  0  0  0  0  0  0  0  0
    4.5260   -0.1385    1.0782 C   0  0  2  0  0  0  0  0  0  0  0  0
    3.3168    0.5286   -2.2988 C   0  0  0  0  0  0  0  0  0  0  0  0
   -1.9661   -0.5977    0.1715 C   0  0  0  0  0  0  0  0  0  0  0  0
    3.8992    0.6671   -0.9945 N   0  0  0  0  0  0  0  0  0  0  0  0
   -0.6410    1.3548   -0.1424 C   0  0  1  0  0  0  0  0  0  0  0  0
   -0.7171    2.6447    0.3982 O   0  0  0  0  0  0  0  0  0  0  0  0
   -2.4402    0.4988    1.3367 C   0  0  0  0  0  0  0  0  0  0  0  0
   -1.8661   -0.5568   -0.8984 C   0  0  0  0  0  0  0  0  0  0  0  0
   -3.7298   -0.1152    1.6532 C   0  0  0  0  0  0  0  0  0  0  0  0
   -4.8394    0.8388    1.2914 C   0  0  0  0  0  0  0  0  0  0  0  0
   -4.5625    2.1404    1.9993 C   0  0  0  0  0  0  0  0  0  0  0  0
   -3.0540   -1.4351   -1.0433 C   0  0  0  0  0  0  0  0  0  0  0  0
   -2.9803   -2.0877   -2.4424 C   0  0  0  0  0  0  0  0  0  0  0  0
   -3.0299   -0.8894   -3.4008 C   0  0  0  0  0  0  0  0  0  0  0  0
    4.8430   -1.1666    2.0146 O   0  0  0  0  0  0  0  0  0  0  0  0
    0.3229    0.7003    0.5801 O   0  0  0  0  0  0  0  0  0  0  0  0
   -2.8697    1.5295   -0.8006 O   0  0  0  0  0  0  0  0  0  0  0  0
   -2.7285    2.1482    2.1309 S   0  0  0  0  0  0  0  0  0  0  0  0
   -1.6685    0.0733   -2.6239 S   0  0  0  0  0  0  0  0  0  0  0  0
    5.4728   -0.8614   -0.3424 C   0  0  0  0  0  0  0  0  0  0  0  0
    3.2191   -1.4174    0.1184 C   0  0  2  0  0  0  0  0  0  0  0  0
    1.7852   -1.0435    0.0081 C   0  0  0  0  0  0  0  0  0  0  0  0
    1.4906    0.4051   -0.0988 C   0  0  2  0  0  0  0  0  0  0  0  0
    2.5645    1.2856    0.5039 C   0  0  0  0  0  0  0  0  0  0  0  0
    3.9126    0.6625    0.5686 C   0  0  1  0  0  0  0  0  0  0  0  0
    4.0019   -0.0860    1.8991 C   0  0  1  0  0  0  0  0  0  0  0  0
    3.5804   -1.4910    1.5840 C   0  0  2  0  0  0  0  0  0  0  0  0
    3.8200   -0.0107   -1.7454 C   0  0  0  0  0  0  0  0  0  0  0  0
   -2.0185    0.6723   -0.0634 C   0  0  0  0  0  0  0  0  0  0  0  0
    4.1208   -0.3974   -0.3845 N   0  0  0  0  0  0  0  0  0  0  0  0
   -0.5244   -1.1814   -1.2741 H   0  0  0  0  0  0  0  0  0  0  0  0
   -0.5361   -2.8096    1.0504 H   0  0  0  0  0  0  0  0  0  0  0  0
   -2.1030   -1.8488    1.9547 H   0  0  0  0  0  0  0  0  0  0  0  0
   -2.8535   -2.2556   -0.9296 H   0  0  0  0  0  0  0  0  0  0  0  0
   -4.3945   -0.6814    2.0090 H   0  0  0  0  0  0  0  0  0  0  0  0
   -3.2967   -0.4344    3.3446 H   0  0  0  0  0  0  0  0  0  0  0  0
   -3.5801    1.6435    1.1146 H   0  0  0  0  0  0  0  0  0  0  0  0
   -4.2366    1.6363    2.7598 H   0  0  0  0  0  0  0  0  0  0  0  0
   -1.7276    2.6236    2.3005 H   0  0  0  0  0  0  0  0  0  0  0  0
   -2.2183    1.8942    3.8434 H   0  0  0  0  0  0  0  0  0  0  0  0
   -4.9567   -1.3960   -0.1805 H   0  0  0  0  0  0  0  0  0  0  0  0
   -4.5204    0.3249   -0.7138 H   0  0  0  0  0  0  0  0  0  0  0  0
   -5.8855   -0.9685   -2.3401 H   0  0  0  0  0  0  0  0  0  0  0  0
   -4.4467   -2.1320   -2.4082 H   0  0  0  0  0  0  0  0  0  0  0  0
   -4.3037    0.8381   -3.1138 H   0  0  0  0  0  0  0  0  0  0  0  0
   -3.9893   -0.6401   -4.1840 H   0  0  0  0  0  0  0  0  0  0  0  0
   -1.1278    1.1020    0.5473 H   0  0  0  0  0  0  0  0  0  0  0  0
    5.3670    2.2091   -0.7547 H   0  0  0  0  0  0  0  0  0  0  0  0
    5.5022    1.3086   -2.2693 H   0  0  0  0  0  0  0  0  0  0  0  0
    6.0248    0.4753   -0.8013 H   0  0  0  0  0  0  0  0  0  0  0  0
    4.7598   -1.2034   -0.8063 H   0  0  0  0  0  0  0  0  0  0  0  0
    2.7741   -1.7937    0.9161 H   0  0  0  0  0  0  0  0  0  0  0  0
    2.6828   -2.1198   -0.8206 H   0  0  0  0  0  0  0  0  0  0  0  0
    1.1388   -0.5567   -1.2959 H   0  0  0  0  0  0  0  0  0  0  0  0
    1.1475    1.6502   -0.7429 H   0  0  0  0  0  0  0  0  0  0  0  0
    1.3407    1.3564    0.9889 H   0  0  0  0  0  0  0  0  0  0  0  0
    3.2030    2.5223   -0.3571 H   0  0  0  0  0  0  0  0  0  0  0  0
    3.1822    1.2595    2.1832 H   0  0  0  0  0  0  0  0  0  0  0  0
    4.4646   -0.8753    1.9095 H   0  0  0  0  0  0  0  0  0  0  0  0
    3.1544   -0.5378   -2.5868 H   0  0  0  0  0  0  0  0  0  0  0  0
    3.9950    0.9221   -3.1141 H   0  0  0  0  0  0  0  0  0  0  0  0
    2.3860    1.1460   -2.4246 H   0  0  0  0  0  0  0  0  0  0  0  0
   -0.3006    1.4919   -1.1771 H   0  0  0  0  0  0  0  0  0  0  0  0
   -1.2141    3.2629   -0.1810 H   0  0  0  0  0  0  0  0  0  0  0  0
   -1.6300    0.0285    1.9292 H   0  0  0  0  0  0  0  0  0  0  0  0
   -0.9717   -1.1593   -0.6239 H   0  0  0  0  0  0  0  0  0  0  0  0
   -3.9828   -1.0966    1.3067 H   0  0  0  0  0  0  0  0  0  0  0  0
   -3.7843   -0.1874    2.7954 H   0  0  0  0  0  0  0  0  0  0  0  0
   -5.0002    0.9527    0.2163 H   0  0  0  0  0  0  0  0  0  0  0  0
   -5.7747    0.4248    1.7244 H   0  0  0  0  0  0  0  0  0  0  0  0
   -4.8452    2.9565    1.2936 H   0  0  0  0  0  0  0  0  0  0  0  0
   -5.0405    2.2372    2.9711 H   0  0  0  0  0  0  0  0  0  0  0  0
   -2.9942   -2.3433   -0.3717 H   0  0  0  0  0  0  0  0  0  0  0  0
   -4.0132   -0.9267   -1.0368 H   0  0  0  0  0  0  0  0  0  0  0  0
   -3.8559   -2.7272   -2.5422 H   0  0  0  0  0  0  0  0  0  0  0  0
   -2.0107   -2.5809   -2.4900 H   0  0  0  0  0  0  0  0  0  0  0  0
   -3.9925   -0.3814   -3.2971 H   0  0  0  0  0  0  0  0  0  0  0  0
   -2.7618   -1.2163   -4.4021 H   0  0  0  0  0  0  0  0  0  0  0  0
   -2.4108    1.7815   -1.6438 H   0  0  0  0  0  0  0  0  0  0  0  0
    6.1303   -0.2184    0.3116 H   0  0  0  0  0  0  0  0  0  0  0  0
    5.5673   -1.9433   -0.0656 H   0  0  0  0  0  0  0  0  0  0  0  0
    5.9739   -0.7992   -1.3533 H   0  0  0  0  0  0  0  0  0  0  0  0
    3.4846   -2.3762   -0.3686 H   0  0  0  0  0  0  0  0  0  0  0  0
    1.3788   -1.5397   -0.9219 H   0  0  0  0  0  0  0  0  0  0  0  0
    1.2402   -1.5342    0.8619 H   0  0  0  0  0  0  0  0  0  0  0  0
    1.3454    0.7627   -1.1464 H   0  0  0  0  0  0  0  0  0  0  0  0
    2.6386    2.2362   -0.0608 H   0  0  0  0  0  0  0  0  0  0  0  0
    2.2896    1.5963    1.5540 H   0  0  0  0  0  0  0  0  0  0  0  0
    4.7218    1.4219    0.4949 H   0  0  0  0  0  0  0  0  0  0  0  0
    3.5468    0.3797    2.7902 H   0  0  0  0  0  0  0  0  0  0  0  0
    2.9697   -2.0736    2.2825 H   0  0  0  0  0  0  0  0  0  0  0  0
    3.0057   -0.6683   -2.1196 H   0  0  0  0  0  0  0  0  0  0  0  0
    3.6138    1.0639   -1.8641 H   0  0  0  0  0  0  0  0  0  0  0  0
    4.6886   -0.2206   -2.4367 H   0  0  0  0  0  0  0  0  0  0  0  0
  1  2  1  0
  3  5  1  0
  5  6  1  0
  6  7  1  0
  4  8  1  0
  8  9  1  0
  9 10  1  0
  1 12  1  0
  3 14  1  0
  7 14  1  0
  4 15  1  0
 10 15  1  0
 17 18  1  0
 12 19  1  0
 18 19  1  0
 19 20  1  0
 20 21  1  0
 11 22  1  0
 21 22  1  0
 11 23  1  0
 17 23  1  0
 22 23  1  0
  1 25  1  0
  3 25  1  0
  4 25  1  0
 25 13  1  0
 26 16  1  0
 17 26  1  0
 21 26  1  0
 24 26  1  0
 27 28  1  0
 29 31  1  0
 31 32  1  0
 32 33  1  0
 30 34  1  0
 34 35  1  0
 35 36  1  0
 27 38  1  0
 29 40  1  0
 33 40  1  0
 30 41  1  0
 36 41  1  0
 43 44  1  0
 38 45  1  0
 44 45  1  0
 45 46  1  0
 46 47  1  0
 37 48  1  0
 47 48  1  0
 37 49  1  0
 43 49  1  0
 48 49  1  0
 27 51  1  0
 29 51  1  0
 30 51  1  0
 51 39  1  0
 52 42  1  0
 43 52  1  0
 47 52  1  0
 50 52  1  0
  1 53  1  6
  2 54  1  0
  3 55  1  0
  4 56  1  0
  5 57  1  0
  5 58  1  0
  6 59  1  0
  6 60  1  0
  7 61  1  0
  7 62  1  0
  8 63  1  0
  8 64  1  0
  9 65  1  0
  9 66  1  0
 10 67  1  0
 10 68  1  0
 13 69  1  0
 16 70  1  0
 16 71  1  0
 16 72  1  0
 17 73  1  6
 18 74  1  0
 18 75  1  0
 19 76  1  6
 20 77  1  0
 20 78  1  0
 21 79  1  6
 22 80  1  1
 23 81  1  1
 24 82  1  0
 24 83  1  0
 24 84  1  0
 27 85  1  6
 28 86  1  0
 29 87  1  0
 30 88  1  0
 31 89  1  0
 31 90  1  0
 32 91  1  0
 32 92  1  0
 33 93  1  0
 33 94  1  0
 34 95  1  0
 34 96  1  0
 35 97  1  0
 35 98  1  0
 36 99  1  0
 36100  1  0
 39101  1  0
 42102  1  0
 42103  1  0
 42104  1  0
 43105  1  6
 44106  1  0
 44107  1  0
 45108  1  6
 46109  1  0
 46110  1  0
 47111  1  1
 48112  1  1
 49113  1  1
 50114  1  0
 50115  1  0
 50116  1  0
M  CHG  2  26   1  52   1
M  END
>  <PDBID>  (1) 
4U15

>  <PDB ID>  (1) 
4U15

>  <Generic Name>  (1) 
Tiotropium

>  <Brand Name>  (1) 
Inspiolto Respimat#Spiriva#Spiriva Respimat#Stiolto Respimat

>  <DrugBank ID>  (1) 
DB01409

>  <ATC Codes>  (1) 
R03AL06#R03BB54#R03BB04

>  <Ligand ID>  (1) 
0HK

>  <Target Name>  (1) 
Muscarinic acetylcholine receptor M3

>  <UniProt ID>  (1) 
P20309

>  <PDB ID.1>  (1) 
4U15

>  <Seq. Identity>  (1) 
98%

$$$$
