PDB_DB00530_05
     RDKit          3D

 72 74  0  0  0  0  0  0  0  0999 V2000
    6.3567   -2.0397    0.1206 C   0  0  0  0  0  0  0  0  0  0  0  0
    6.4153   -0.5487    0.3934 C   0  0  0  0  0  0  0  0  0  0  0  0
    5.5979    0.2248   -0.6195 C   0  0  0  0  0  0  0  0  0  0  0  0
    4.1298   -0.2134   -0.5671 C   0  0  0  0  0  0  0  0  0  0  0  0
    3.2809    1.0001   -0.7245 C   0  0  0  0  0  0  0  0  0  0  0  0
    1.9071    0.7718   -1.0323 N   0  0  0  0  0  0  0  0  0  0  0  0
    1.1520    0.0713   -0.0220 C   0  0  0  0  0  0  0  0  0  0  0  0
   -0.2886    0.0113   -0.4803 C   0  0  0  0  0  0  0  0  0  0  0  0
   -1.1573    0.7534    0.4780 C   0  0  0  0  0  0  0  0  0  0  0  0
   -2.6208    0.5249    0.3461 C   0  0  0  0  0  0  0  0  0  0  0  0
   -3.2271    1.3492   -0.5911 O   0  0  0  0  0  0  0  0  0  0  0  0
   -4.1542    2.2274   -0.0689 C   0  0  0  0  0  0  0  0  0  0  0  0
   -3.6174    3.1984    0.9306 C   0  0  0  0  0  0  0  0  0  0  0  0
   -2.6275    4.0320    0.4797 O   0  0  0  0  0  0  0  0  0  0  0  0
   -2.9790    4.8504   -0.5695 C   0  0  0  0  0  0  0  0  0  0  0  0
   -3.0169   -0.9242    0.1615 C   0  0  0  0  0  0  0  0  0  0  0  0
   -4.3037   -1.0247   -0.3001 O   0  0  0  0  0  0  0  0  0  0  0  0
   -5.1817   -1.7334    0.4705 C   0  0  0  0  0  0  0  0  0  0  0  0
   -4.7894   -3.1684    0.6918 C   0  0  0  0  0  0  0  0  0  0  0  0
   -4.6713   -3.9129   -0.4595 O   0  0  0  0  0  0  0  0  0  0  0  0
   -5.7977   -4.0087   -1.2307 C   0  0  0  0  0  0  0  0  0  0  0  0
   -2.1298   -1.4999   -0.9409 C   0  0  0  0  0  0  0  0  0  0  0  0
   -0.6934   -1.4474   -0.5126 C   0  0  0  0  0  0  0  0  0  0  0  0
   -0.4590   -2.0442    0.7830 N   0  0  0  0  0  0  0  0  0  0  0  0
    0.9638   -2.0721    1.0416 C   0  0  0  0  0  0  0  0  0  0  0  0
    1.7210   -1.2515    0.1174 N   0  0  0  0  0  0  0  0  0  0  0  0
    3.4650    1.8395    0.5259 C   0  0  0  0  0  0  0  0  0  0  0  0
    4.8744    2.3248    0.5687 C   0  0  0  0  0  0  0  0  0  0  0  0
    5.7888    1.6854   -0.4182 C   0  0  0  0  0  0  0  0  0  0  0  0
    6.1802   -2.6335    1.0392 H   0  0  0  0  0  0  0  0  0  0  0  0
    5.4737   -2.2251   -0.5398 H   0  0  0  0  0  0  0  0  0  0  0  0
    7.2672   -2.4296   -0.3667 H   0  0  0  0  0  0  0  0  0  0  0  0
    5.9768   -0.3896    1.4016 H   0  0  0  0  0  0  0  0  0  0  0  0
    7.4445   -0.1901    0.3427 H   0  0  0  0  0  0  0  0  0  0  0  0
    5.9724   -0.0414   -1.6128 H   0  0  0  0  0  0  0  0  0  0  0  0
    3.9939   -0.6417    0.4469 H   0  0  0  0  0  0  0  0  0  0  0  0
    3.9582   -0.9790   -1.3564 H   0  0  0  0  0  0  0  0  0  0  0  0
    3.6997    1.6127   -1.5614 H   0  0  0  0  0  0  0  0  0  0  0  0
    1.4272    1.5534   -1.4856 H   0  0  0  0  0  0  0  0  0  0  0  0
    1.2658    0.6472    0.9164 H   0  0  0  0  0  0  0  0  0  0  0  0
   -0.4305    0.4251   -1.4919 H   0  0  0  0  0  0  0  0  0  0  0  0
   -0.7896    0.6216    1.5382 H   0  0  0  0  0  0  0  0  0  0  0  0
   -0.9788    1.8518    0.2755 H   0  0  0  0  0  0  0  0  0  0  0  0
   -3.0813    0.8126    1.3391 H   0  0  0  0  0  0  0  0  0  0  0  0
   -5.0062    1.7033    0.4234 H   0  0  0  0  0  0  0  0  0  0  0  0
   -4.6043    2.7899   -0.9052 H   0  0  0  0  0  0  0  0  0  0  0  0
   -3.2922    2.7524    1.8846 H   0  0  0  0  0  0  0  0  0  0  0  0
   -4.4901    3.8659    1.2022 H   0  0  0  0  0  0  0  0  0  0  0  0
   -3.8238    5.5347   -0.3411 H   0  0  0  0  0  0  0  0  0  0  0  0
   -2.0967    5.4802   -0.8274 H   0  0  0  0  0  0  0  0  0  0  0  0
   -3.2857    4.2252   -1.4262 H   0  0  0  0  0  0  0  0  0  0  0  0
   -2.8755   -1.4382    1.1141 H   0  0  0  0  0  0  0  0  0  0  0  0
   -6.1618   -1.7306   -0.0507 H   0  0  0  0  0  0  0  0  0  0  0  0
   -5.3870   -1.2525    1.4604 H   0  0  0  0  0  0  0  0  0  0  0  0
   -3.8927   -3.2847    1.3189 H   0  0  0  0  0  0  0  0  0  0  0  0
   -5.6309   -3.6412    1.2800 H   0  0  0  0  0  0  0  0  0  0  0  0
   -5.5166   -4.6524   -2.1147 H   0  0  0  0  0  0  0  0  0  0  0  0
   -6.6801   -4.4362   -0.7613 H   0  0  0  0  0  0  0  0  0  0  0  0
   -6.0024   -2.9789   -1.6468 H   0  0  0  0  0  0  0  0  0  0  0  0
   -2.4731   -2.4736   -1.2908 H   0  0  0  0  0  0  0  0  0  0  0  0
   -2.2314   -0.7795   -1.7919 H   0  0  0  0  0  0  0  0  0  0  0  0
   -0.1222   -2.0305   -1.2652 H   0  0  0  0  0  0  0  0  0  0  0  0
   -0.8882   -1.4920    1.5587 H   0  0  0  0  0  0  0  0  0  0  0  0
    1.3093   -3.1140    0.8828 H   0  0  0  0  0  0  0  0  0  0  0  0
    1.2064   -1.8148    2.1007 H   0  0  0  0  0  0  0  0  0  0  0  0
    1.8099   -1.7607   -0.7692 H   0  0  0  0  0  0  0  0  0  0  0  0
    2.6990    2.6339    0.5825 H   0  0  0  0  0  0  0  0  0  0  0  0
    3.3081    1.1566    1.3838 H   0  0  0  0  0  0  0  0  0  0  0  0
    4.8634    3.4296    0.3373 H   0  0  0  0  0  0  0  0  0  0  0  0
    5.3281    2.2511    1.5881 H   0  0  0  0  0  0  0  0  0  0  0  0
    6.8455    1.8313   -0.0490 H   0  0  0  0  0  0  0  0  0  0  0  0
    5.7737    2.2555   -1.3907 H   0  0  0  0  0  0  0  0  0  0  0  0
  1  2  1  0
  2  3  1  0
  3  4  1  0
  4  5  1  0
  5  6  1  0
  6  7  1  0
  7  8  1  0
  8  9  1  0
  9 10  1  0
 10 11  1  0
 11 12  1  0
 12 13  1  0
 13 14  1  0
 14 15  1  0
 10 16  1  0
 16 17  1  0
 17 18  1  0
 18 19  1  0
 19 20  1  0
 20 21  1  0
 16 22  1  0
  8 23  1  0
 22 23  1  0
 23 24  1  0
 24 25  1  0
  7 26  1  0
 25 26  1  0
  5 27  1  0
 27 28  1  0
  3 29  1  0
 28 29  1  0
  1 30  1  0
  1 31  1  0
  1 32  1  0
  2 33  1  0
  2 34  1  0
  3 35  1  0
  4 36  1  0
  4 37  1  0
  5 38  1  0
  6 39  1  0
  7 40  1  0
  8 41  1  0
  9 42  1  0
  9 43  1  0
 10 44  1  0
 12 45  1  0
 12 46  1  0
 13 47  1  0
 13 48  1  0
 15 49  1  0
 15 50  1  0
 15 51  1  0
 16 52  1  0
 18 53  1  0
 18 54  1  0
 19 55  1  0
 19 56  1  0
 21 57  1  0
 21 58  1  0
 21 59  1  0
 22 60  1  0
 22 61  1  0
 23 62  1  0
 24 63  1  0
 25 64  1  0
 25 65  1  0
 26 66  1  0
 27 67  1  0
 27 68  1  0
 28 69  1  0
 28 70  1  0
 29 71  1  0
 29 72  1  0
M  END
>  <PDBID>  (1) 
1M17

>  <PDB ID>  (1) 
1M17

>  <Generic Name>  (1) 
Erlotinib

>  <Brand Name>  (1) 
PMS-erlotinib#Tarceva#Teva-erlotinib

>  <DrugBank ID>  (1) 
DB00530

>  <ATC Codes>  (1) 
L01XE03

>  <Ligand ID>  (1) 
AQ4

>  <Target Name>  (1) 
Epidermal growth factor receptor

>  <UniProt ID>  (1) 
P00533

>  <PDB ID.1>  (1) 
1M17

>  <Seq. Identity>  (1) 
96%

$$$$
