PDB_DB00311_02
     RDKit          3D

 36 37  0  0  0  0  0  0  0  0999 V2000
   -4.8513    0.4508   -1.6226 N   0  0  0  0  0  0  0  0  0  0  0  0
   -0.5865   -0.2153    0.7925 C   0  0  2  0  0  0  0  0  0  0  0  0
   -0.1692    0.8496   -0.2333 C   0  0  1  0  0  0  0  0  0  0  0  0
    0.9318    0.2427   -1.0362 C   0  0  0  0  0  0  0  0  0  0  0  0
    1.9861   -0.2451   -0.0416 C   0  0  0  0  0  0  0  0  0  0  0  0
    4.1091   -0.9440   -0.6048 C   0  0  0  0  0  0  0  0  0  0  0  0
   -5.2957   -0.6072    0.8338 O   0  0  0  0  0  0  0  0  0  0  0  0
   -4.6277    1.9481    0.5389 O   0  0  0  0  0  0  0  0  0  0  0  0
   -4.2780    0.5680    0.0500 S   0  0  0  0  0  0  0  0  0  0  0  0
   -2.7559   -0.0017    0.0266 C   0  0  0  0  0  0  0  0  0  0  0  0
   -1.9321    0.1449    1.2086 N   0  0  0  0  0  0  0  0  0  0  0  0
   -1.7351    0.9512   -1.1787 S   0  0  0  0  0  0  0  0  0  0  0  0
    1.7365    0.3313    1.3394 C   0  0  0  0  0  0  0  0  0  0  0  0
    0.3962   -0.1593    1.9007 C   0  0  0  0  0  0  0  0  0  0  0  0
    3.2399    0.1337   -0.4445 O   0  0  0  0  0  0  0  0  0  0  0  0
    5.4811   -0.4877   -1.0495 C   0  0  0  0  0  0  0  0  0  0  0  0
   -5.4077    1.3169   -1.8182 H   0  0  0  0  0  0  0  0  0  0  0  0
   -4.0147    0.4974   -2.2459 H   0  0  0  0  0  0  0  0  0  0  0  0
   -0.5574   -1.2084    0.3017 H   0  0  0  0  0  0  0  0  0  0  0  0
    0.0923    1.7916    0.2397 H   0  0  0  0  0  0  0  0  0  0  0  0
    1.3700    0.9253   -1.7898 H   0  0  0  0  0  0  0  0  0  0  0  0
    0.5279   -0.6583   -1.5666 H   0  0  0  0  0  0  0  0  0  0  0  0
    1.9600   -1.3456    0.0638 H   0  0  0  0  0  0  0  0  0  0  0  0
    4.2089   -1.5581    0.3075 H   0  0  0  0  0  0  0  0  0  0  0  0
    3.6486   -1.5973   -1.4002 H   0  0  0  0  0  0  0  0  0  0  0  0
   -5.8780   -1.0211    0.1770 H   0  0  0  0  0  0  0  0  0  0  0  0
   -5.2037    2.0302    1.3656 H   0  0  0  0  0  0  0  0  0  0  0  0
   -2.6556   -1.0549   -0.3110 H   0  0  0  0  0  0  0  0  0  0  0  0
   -2.2144   -0.5543    1.9150 H   0  0  0  0  0  0  0  0  0  0  0  0
    1.7923    1.4289    1.3465 H   0  0  0  0  0  0  0  0  0  0  0  0
    2.5366   -0.0516    1.9912 H   0  0  0  0  0  0  0  0  0  0  0  0
    0.5568   -1.1895    2.2823 H   0  0  0  0  0  0  0  0  0  0  0  0
    0.0676    0.4752    2.7197 H   0  0  0  0  0  0  0  0  0  0  0  0
    5.8571   -1.2096   -1.8135 H   0  0  0  0  0  0  0  0  0  0  0  0
    6.2217   -0.4947   -0.2208 H   0  0  0  0  0  0  0  0  0  0  0  0
    5.4424    0.5181   -1.5499 H   0  0  0  0  0  0  0  0  0  0  0  0
  2  3  1  0
  3  4  1  0
  4  5  1  0
  1  9  1  0
  9  7  1  0
  8  9  1  0
  9 10  1  0
  2 11  1  0
 10 11  1  0
  3 12  1  0
 10 12  1  0
  5 13  1  0
  2 14  1  0
 13 14  1  0
  5 15  1  0
  6 15  1  0
  6 16  1  0
  1 17  1  0
  1 18  1  0
  2 19  1  6
  3 20  1  1
  4 21  1  0
  4 22  1  0
  5 23  1  0
  6 24  1  0
  6 25  1  0
  7 26  1  0
  8 27  1  0
 10 28  1  0
 11 29  1  0
 13 30  1  0
 13 31  1  0
 14 32  1  0
 14 33  1  0
 16 34  1  0
 16 35  1  0
 16 36  1  0
M  END
>  <PDBID>  (1) 
3DD0

>  <PDB ID>  (1) 
3DD0

>  <Generic Name>  (1) 
Ethoxzolamide

>  <Brand Name>  (1) 
Cardrase#Ethamide

>  <DrugBank ID>  (1) 
DB00311

>  <ATC Codes>  (1) 
nan

>  <Ligand ID>  (1) 
EZL

>  <Target Name>  (1) 
Carbonic anhydrase 1

>  <UniProt ID>  (1) 
P00915

>  <PDB ID.1>  (1) 
3DD0

>  <Seq. Identity>  (1) 
61%

$$$$
