PDB_DB09079_04
     RDKit          3D

 99103  0  0  0  0  0  0  0  0999 V2000
    3.6332   -1.0174    0.0048 C   0  0  0  0  0  0  0  0  0  0  0  0
    3.7503    0.3951    0.4639 C   0  0  0  0  0  0  0  0  0  0  0  0
    2.2922   -1.6659    0.1370 C   0  0  0  0  0  0  0  0  0  0  0  0
    3.9508   -0.9354   -1.4967 C   0  0  0  0  0  0  0  0  0  0  0  0
    4.7114    0.9876   -0.5576 C   0  0  0  0  0  0  0  0  0  0  0  0
    4.5500    0.4525    1.7870 C   0  0  0  0  0  0  0  0  0  0  0  0
    2.3119   -3.1615   -0.1957 C   0  0  0  0  0  0  0  0  0  0  0  0
    4.5067    2.4956   -0.4479 C   0  0  0  0  0  0  0  0  0  0  0  0
    5.3730    1.7055    1.7600 C   0  0  0  0  0  0  0  0  0  0  0  0
    0.6535    0.1021   -0.5116 C   0  0  0  0  0  0  0  0  0  0  0  0
    4.6971    2.8357    1.0122 C   0  0  1  0  0  0  0  0  0  0  0  0
    1.9219   -5.0570   -1.6388 C   0  0  0  0  0  0  0  0  0  0  0  0
    3.8994   -5.0829   -0.0680 C   0  0  0  0  0  0  0  0  0  0  0  0
   -0.5363    0.1352   -1.5240 C   0  0  0  0  0  0  0  0  0  0  0  0
    5.5238    4.0961    1.1968 C   0  0  2  0  0  0  0  0  0  0  0  0
   -1.7880   -0.4332   -0.9064 C   0  0  0  0  0  0  0  0  0  0  0  0
   -1.1449    1.2960    0.6562 C   0  0  0  0  0  0  0  0  0  0  0  0
    6.7824    3.9992    0.6503 O   0  0  0  0  0  0  0  0  0  0  0  0
    5.6524    4.2878    2.5899 O   0  0  0  0  0  0  0  0  0  0  0  0
   -2.3262    0.6090    0.0498 C   0  0  0  0  0  0  0  0  0  0  0  0
   -4.4638   -0.3895    0.5183 C   0  0  1  0  0  0  0  0  0  0  0  0
   -2.7012   -0.6398    2.1009 C   0  0  0  0  0  0  0  0  0  0  0  0
   -5.2696    0.6689   -0.1893 C   0  0  0  0  0  0  0  0  0  0  0  0
   -7.4424   -0.0372    0.5730 C   0  0  0  0  0  0  0  0  0  0  0  0
   -7.1479    1.3170   -1.3784 C   0  0  0  0  0  0  0  0  0  0  0  0
   -8.8590    0.3828    0.1706 C   0  0  0  0  0  0  0  0  0  0  0  0
   -7.7276    2.3800   -0.4526 C   0  0  0  0  0  0  0  0  0  0  0  0
  -10.1258    2.2721   -0.6408 C   0  0  0  0  0  0  0  0  0  0  0  0
   -4.2849   -1.5043   -0.3009 O   0  0  0  0  0  0  0  0  0  0  0  0
   -6.5889    0.2134   -0.5717 N   0  0  0  0  0  0  0  0  0  0  0  0
   -8.9594    1.8272    0.0915 N   0  0  0  0  0  0  0  0  0  0  0  0
   -3.2190    0.1473    1.0324 N   0  0  0  0  0  0  0  0  0  0  0  0
    0.0719    0.4299    0.8257 C   0  0  0  0  0  0  0  0  0  0  0  0
    1.2249   -1.1627   -0.6355 N   0  0  0  0  0  0  0  0  0  0  0  0
    3.2211   -3.9522    0.6894 C   0  0  0  0  0  0  0  0  0  0  0  0
    2.9079   -5.8849   -0.8864 C   0  0  0  0  0  0  0  0  0  0  0  0
    2.3322   -3.5638   -1.6052 C   0  0  0  0  0  0  0  0  0  0  0  0
    7.0042    5.0325   -0.2579 C   0  0  0  0  0  0  0  0  0  0  0  0
    4.1975    0.4568   -1.7646 N   0  0  0  0  0  0  0  0  0  0  0  0
    5.1254   -1.6209   -1.7973 O   0  0  0  0  0  0  0  0  0  0  0  0
    4.4408   -1.5763    0.5271 H   0  0  0  0  0  0  0  0  0  0  0  0
    2.8747    0.9912    0.5850 H   0  0  0  0  0  0  0  0  0  0  0  0
    2.0760   -1.6085    1.2572 H   0  0  0  0  0  0  0  0  0  0  0  0
    3.0992   -1.3037   -2.1154 H   0  0  0  0  0  0  0  0  0  0  0  0
    5.7580    0.7315   -0.3602 H   0  0  0  0  0  0  0  0  0  0  0  0
    3.8550    0.4043    2.6585 H   0  0  0  0  0  0  0  0  0  0  0  0
    5.1896   -0.4760    1.7804 H   0  0  0  0  0  0  0  0  0  0  0  0
    1.2511   -3.4748    0.1735 H   0  0  0  0  0  0  0  0  0  0  0  0
    3.4384    2.7176   -0.6977 H   0  0  0  0  0  0  0  0  0  0  0  0
    5.1962    2.9818   -1.1311 H   0  0  0  0  0  0  0  0  0  0  0  0
    5.5009    2.0491    2.8149 H   0  0  0  0  0  0  0  0  0  0  0  0
    6.4093    1.5144    1.3974 H   0  0  0  0  0  0  0  0  0  0  0  0
    1.2773    0.9295   -0.8613 H   0  0  0  0  0  0  0  0  0  0  0  0
    3.6991    2.9701    1.5237 H   0  0  0  0  0  0  0  0  0  0  0  0
    1.9599   -5.3425   -2.7070 H   0  0  0  0  0  0  0  0  0  0  0  0
    0.8743   -5.1650   -1.2984 H   0  0  0  0  0  0  0  0  0  0  0  0
    4.3032   -5.7846    0.7018 H   0  0  0  0  0  0  0  0  0  0  0  0
    4.7454   -4.7081   -0.6476 H   0  0  0  0  0  0  0  0  0  0  0  0
   -0.2819   -0.4585   -2.4255 H   0  0  0  0  0  0  0  0  0  0  0  0
   -0.7464    1.1618   -1.8474 H   0  0  0  0  0  0  0  0  0  0  0  0
    4.9598    4.9385    0.7868 H   0  0  0  0  0  0  0  0  0  0  0  0
   -1.6252   -1.4230   -0.4416 H   0  0  0  0  0  0  0  0  0  0  0  0
   -2.5022   -0.5825   -1.7416 H   0  0  0  0  0  0  0  0  0  0  0  0
   -1.3925    1.8435    1.5899 H   0  0  0  0  0  0  0  0  0  0  0  0
   -0.8250    2.1192   -0.0538 H   0  0  0  0  0  0  0  0  0  0  0  0
    4.7447    4.1330    2.9909 H   0  0  0  0  0  0  0  0  0  0  0  0
   -2.8727    1.3462   -0.5908 H   0  0  0  0  0  0  0  0  0  0  0  0
   -5.0254   -0.7616    1.4241 H   0  0  0  0  0  0  0  0  0  0  0  0
   -2.0869   -0.1134    2.8329 H   0  0  0  0  0  0  0  0  0  0  0  0
   -2.2621   -1.6246    1.7643 H   0  0  0  0  0  0  0  0  0  0  0  0
   -3.6119   -0.9829    2.6922 H   0  0  0  0  0  0  0  0  0  0  0  0
   -5.3281    1.6087    0.3670 H   0  0  0  0  0  0  0  0  0  0  0  0
   -4.7462    0.8837   -1.1578 H   0  0  0  0  0  0  0  0  0  0  0  0
   -7.4923   -1.1473    0.7133 H   0  0  0  0  0  0  0  0  0  0  0  0
   -7.1843    0.5278    1.4664 H   0  0  0  0  0  0  0  0  0  0  0  0
   -6.3662    1.8174   -1.9772 H   0  0  0  0  0  0  0  0  0  0  0  0
   -7.9578    0.9611   -2.0201 H   0  0  0  0  0  0  0  0  0  0  0  0
   -9.1867   -0.1378   -0.7391 H   0  0  0  0  0  0  0  0  0  0  0  0
   -9.5236    0.0566    1.0003 H   0  0  0  0  0  0  0  0  0  0  0  0
   -7.9538    3.2714   -1.0385 H   0  0  0  0  0  0  0  0  0  0  0  0
   -7.0720    2.6599    0.3680 H   0  0  0  0  0  0  0  0  0  0  0  0
  -11.0271    1.9599   -0.0792 H   0  0  0  0  0  0  0  0  0  0  0  0
  -10.1127    1.8000   -1.6558 H   0  0  0  0  0  0  0  0  0  0  0  0
  -10.0541    3.3883   -0.7087 H   0  0  0  0  0  0  0  0  0  0  0  0
   -4.7430   -1.3663   -1.1866 H   0  0  0  0  0  0  0  0  0  0  0  0
   -0.2189   -0.4732    1.4038 H   0  0  0  0  0  0  0  0  0  0  0  0
    0.7383    0.9976    1.5093 H   0  0  0  0  0  0  0  0  0  0  0  0
    0.5483   -1.9095   -0.9609 H   0  0  0  0  0  0  0  0  0  0  0  0
    3.9981   -3.3432    1.1583 H   0  0  0  0  0  0  0  0  0  0  0  0
    2.6854   -4.4715    1.5395 H   0  0  0  0  0  0  0  0  0  0  0  0
    2.3654   -6.5797   -0.2024 H   0  0  0  0  0  0  0  0  0  0  0  0
    3.5205   -6.5652   -1.5327 H   0  0  0  0  0  0  0  0  0  0  0  0
    1.5820   -3.0656   -2.2137 H   0  0  0  0  0  0  0  0  0  0  0  0
    3.2974   -3.5641   -2.1353 H   0  0  0  0  0  0  0  0  0  0  0  0
    8.0081    4.9691   -0.7225 H   0  0  0  0  0  0  0  0  0  0  0  0
    6.2618    5.1233   -1.0491 H   0  0  0  0  0  0  0  0  0  0  0  0
    7.0522    5.9609    0.3764 H   0  0  0  0  0  0  0  0  0  0  0  0
    3.3560    0.9784   -2.0808 H   0  0  0  0  0  0  0  0  0  0  0  0
    5.4219   -2.2031   -1.0374 H   0  0  0  0  0  0  0  0  0  0  0  0
  1  2  1  0
  1  3  1  0
  1  4  1  0
  2  5  1  0
  2  6  1  0
  3  7  1  0
  5  8  1  0
  6  9  1  0
  8 11  1  0
  9 11  1  0
 10 14  1  0
 11 15  1  0
 14 16  1  0
 15 18  1  0
 15 19  1  0
 16 20  1  0
 17 20  1  0
 21 23  1  0
 24 26  1  0
 25 27  1  0
 21 29  1  0
 23 30  1  0
 24 30  1  0
 25 30  1  0
 26 31  1  0
 27 31  1  0
 28 31  1  0
 20 32  1  0
 21 32  1  0
 22 32  1  0
 10 33  1  0
 17 33  1  0
  3 34  1  0
 10 34  1  0
  7 35  1  0
 13 35  1  0
 12 36  1  0
 13 36  1  0
  7 37  1  0
 12 37  1  0
 18 38  1  0
  4 39  1  0
  5 39  1  0
  4 40  1  0
  1 41  1  0
  2 42  1  0
  3 43  1  0
  4 44  1  0
  5 45  1  0
  6 46  1  0
  6 47  1  0
  7 48  1  0
  8 49  1  0
  8 50  1  0
  9 51  1  0
  9 52  1  0
 10 53  1  0
 11 54  1  1
 12 55  1  0
 12 56  1  0
 13 57  1  0
 13 58  1  0
 14 59  1  0
 14 60  1  0
 15 61  1  6
 16 62  1  0
 16 63  1  0
 17 64  1  0
 17 65  1  0
 19 66  1  0
 20 67  1  0
 21 68  1  1
 22 69  1  0
 22 70  1  0
 22 71  1  0
 23 72  1  0
 23 73  1  0
 24 74  1  0
 24 75  1  0
 25 76  1  0
 25 77  1  0
 26 78  1  0
 26 79  1  0
 27 80  1  0
 27 81  1  0
 28 82  1  0
 28 83  1  0
 28 84  1  0
 29 85  1  0
 33 86  1  0
 33 87  1  0
 34 88  1  0
 35 89  1  0
 35 90  1  0
 36 91  1  0
 36 92  1  0
 37 93  1  0
 37 94  1  0
 38 95  1  0
 38 96  1  0
 38 97  1  0
 39 98  1  0
 40 99  1  0
M  END
>  <PDBID>  (1) 
3C7Q

>  <PDB ID>  (1) 
3C7Q

>  <Generic Name>  (1) 
Nintedanib

>  <Brand Name>  (1) 
Ofev#Vargatef

>  <DrugBank ID>  (1) 
DB09079

>  <ATC Codes>  (1) 
L01XE31

>  <Ligand ID>  (1) 
XIN

>  <Target Name>  (1) 
Vascular endothelial growth factor receptor 3

>  <UniProt ID>  (1) 
P35916

>  <PDB ID.1>  (1) 
3C7Q

>  <Seq. Identity>  (1) 
67%

$$$$
