PDB_DB00390_06
     RDKit          3D

246260  0  0  0  0  0  0  0  0999 V2000
   -3.3053    1.0968   -0.3747 C   0  0  0  0  0  0  0  0  0  0  0  0
   -2.1982    1.4553    0.5513 C   0  0  0  0  0  0  0  0  0  0  0  0
   -1.4321    0.3197    1.1299 C   0  0  2  0  0  0  0  0  0  0  0  0
   -0.4517   -0.0866    0.1957 O   0  0  0  0  0  0  0  0  0  0  0  0
   -2.2301   -0.9005    1.4558 C   0  0  0  0  0  0  0  0  0  0  0  0
   -3.7060   -0.7421    1.2968 C   0  0  1  0  0  0  0  0  0  0  0  0
   -4.2350    0.0178    2.4642 C   0  0  0  0  0  0  0  0  0  0  0  0
   -5.5152    0.7776    2.1381 C   0  0  0  0  0  0  0  0  0  0  0  0
   -6.2394   -0.0549    1.1125 C   0  0  2  0  0  0  0  0  0  0  0  0
   -5.5211    0.0971   -0.1862 C   0  0  1  0  0  0  0  0  0  0  0  0
   -4.0458   -0.1587   -0.0430 C   0  0  1  0  0  0  0  0  0  0  0  0
   -6.1986   -0.8808   -1.1216 C   0  0  0  0  0  0  0  0  0  0  0  0
   -7.5647   -0.3682   -1.3770 C   0  0  1  0  0  0  0  0  0  0  0  0
   -8.1929   -1.2943   -2.2425 O   0  0  0  0  0  0  0  0  0  0  0  0
   -8.4354   -0.1726   -0.1527 C   0  0  1  0  0  0  0  0  0  0  0  0
   -7.6792    0.2542    1.0789 C   0  0  1  0  0  0  0  0  0  0  0  0
   -8.2244   -0.3997    2.2146 O   0  0  0  0  0  0  0  0  0  0  0  0
   -7.9833    1.7281    1.3111 C   0  0  0  0  0  0  0  0  0  0  0  0
   -9.4228    1.7813    0.8861 C   0  0  0  0  0  0  0  0  0  0  0  0
   -9.3528    0.9304   -0.4025 C   0  0  2  0  0  0  0  0  0  0  0  0
   -8.9931   -1.5304    0.1579 C   0  0  0  0  0  0  0  0  0  0  0  0
   -3.6636   -1.1928   -1.0951 C   0  0  0  0  0  0  0  0  0  0  0  0
    0.8281    0.0952    0.6553 C   0  0  1  0  0  0  0  0  0  0  0  0
    5.9113   -0.3443   -0.3496 C   0  0  2  0  0  0  0  0  0  0  0  0
   11.0361   -0.4254    0.2269 C   0  0  2  0  0  0  0  0  0  0  0  0
  -10.6949    0.8213   -0.9094 C   0  0  1  0  0  0  0  0  0  0  0  0
  -10.9989    0.2352   -2.2341 C   0  0  0  0  0  0  0  0  0  0  0  0
  -12.4103    0.4389   -2.2539 O   0  0  0  0  0  0  0  0  0  0  0  0
  -11.7296    0.1659   -0.0277 C   0  0  0  0  0  0  0  0  0  0  0  0
  -12.7497   -0.2771   -1.0864 C   0  0  0  0  0  0  0  0  0  0  0  0
  -14.0416    0.0992   -0.7221 O   0  0  0  0  0  0  0  0  0  0  0  0
    1.5910   -1.2079    0.7816 C   0  0  0  0  0  0  0  0  0  0  0  0
    6.8519    0.7313    0.1186 C   0  0  0  0  0  0  0  0  0  0  0  0
   11.8381   -0.9946   -0.8924 C   0  0  0  0  0  0  0  0  0  0  0  0
    2.5677   -1.3552   -0.4003 C   0  0  2  0  0  0  0  0  0  0  0  0
    3.0598   -2.6189   -0.3066 O   0  0  0  0  0  0  0  0  0  0  0  0
    7.8724    0.1037    1.0809 C   0  0  2  0  0  0  0  0  0  0  0  0
    8.5602    1.0884    1.7453 O   0  0  0  0  0  0  0  0  0  0  0  0
   12.6986    0.0036   -1.6230 C   0  0  2  0  0  0  0  0  0  0  0  0
   13.5717   -0.6869   -2.4405 O   0  0  0  0  0  0  0  0  0  0  0  0
    3.5487   -0.2434   -0.3495 C   0  0  2  0  0  0  0  0  0  0  0  0
    4.7176   -0.4188    0.2594 O   0  0  0  0  0  0  0  0  0  0  0  0
    8.7488   -0.8081    0.2729 C   0  0  2  0  0  0  0  0  0  0  0  0
    9.7820   -0.0475   -0.2515 O   0  0  0  0  0  0  0  0  0  0  0  0
   13.5024    0.7293   -0.5542 C   0  0  2  0  0  0  0  0  0  0  0  0
   14.2099   -0.2507    0.1373 O   0  0  0  0  0  0  0  0  0  0  0  0
    2.8733    1.0034    0.1711 C   0  0  2  0  0  0  0  0  0  0  0  0
    1.5135    0.9901   -0.1634 O   0  0  0  0  0  0  0  0  0  0  0  0
    7.8991   -1.4888   -0.7728 C   0  0  2  0  0  0  0  0  0  0  0  0
    6.5687   -1.5899   -0.4505 O   0  0  0  0  0  0  0  0  0  0  0  0
   12.5188    1.3719    0.3657 C   0  0  2  0  0  0  0  0  0  0  0  0
   11.6458    0.5306    0.9891 O   0  0  0  0  0  0  0  0  0  0  0  0
    3.4843    2.1947   -0.5102 C   0  0  0  0  0  0  0  0  0  0  0  0
    8.4110   -2.9384   -0.8503 C   0  0  0  0  0  0  0  0  0  0  0  0
   11.8529    2.5243   -0.3519 C   0  0  0  0  0  0  0  0  0  0  0  0
   -3.3053    1.0968   -0.3747 C   0  0  0  0  0  0  0  0  0  0  0  0
   -2.1982    1.4553    0.5513 C   0  0  0  0  0  0  0  0  0  0  0  0
   -1.4321    0.3197    1.1299 C   0  0  2  0  0  0  0  0  0  0  0  0
   -0.4517   -0.0866    0.1957 O   0  0  0  0  0  0  0  0  0  0  0  0
   -2.2301   -0.9005    1.4558 C   0  0  0  0  0  0  0  0  0  0  0  0
   -3.7060   -0.7421    1.2968 C   0  0  1  0  0  0  0  0  0  0  0  0
   -4.2350    0.0178    2.4642 C   0  0  0  0  0  0  0  0  0  0  0  0
   -5.5152    0.7776    2.1381 C   0  0  0  0  0  0  0  0  0  0  0  0
   -6.2394   -0.0549    1.1125 C   0  0  2  0  0  0  0  0  0  0  0  0
   -5.5211    0.0971   -0.1862 C   0  0  1  0  0  0  0  0  0  0  0  0
   -4.0458   -0.1587   -0.0430 C   0  0  1  0  0  0  0  0  0  0  0  0
   -6.1986   -0.8808   -1.1216 C   0  0  0  0  0  0  0  0  0  0  0  0
   -7.5647   -0.3682   -1.3770 C   0  0  1  0  0  0  0  0  0  0  0  0
   -8.1929   -1.2943   -2.2425 O   0  0  0  0  0  0  0  0  0  0  0  0
   -8.4354   -0.1726   -0.1527 C   0  0  1  0  0  0  0  0  0  0  0  0
   -7.6792    0.2542    1.0789 C   0  0  1  0  0  0  0  0  0  0  0  0
   -8.2244   -0.3997    2.2146 O   0  0  0  0  0  0  0  0  0  0  0  0
   -7.9833    1.7281    1.3111 C   0  0  0  0  0  0  0  0  0  0  0  0
   -9.4228    1.7813    0.8861 C   0  0  0  0  0  0  0  0  0  0  0  0
   -9.3528    0.9304   -0.4025 C   0  0  2  0  0  0  0  0  0  0  0  0
   -8.9931   -1.5304    0.1579 C   0  0  0  0  0  0  0  0  0  0  0  0
   -3.6636   -1.1928   -1.0951 C   0  0  0  0  0  0  0  0  0  0  0  0
    0.8281    0.0952    0.6553 C   0  0  1  0  0  0  0  0  0  0  0  0
    5.9113   -0.3443   -0.3496 C   0  0  2  0  0  0  0  0  0  0  0  0
   11.0361   -0.4254    0.2269 C   0  0  2  0  0  0  0  0  0  0  0  0
  -10.6949    0.8213   -0.9094 C   0  0  1  0  0  0  0  0  0  0  0  0
  -10.9989    0.2352   -2.2341 C   0  0  0  0  0  0  0  0  0  0  0  0
  -12.4103    0.4389   -2.2539 O   0  0  0  0  0  0  0  0  0  0  0  0
  -11.7296    0.1659   -0.0277 C   0  0  0  0  0  0  0  0  0  0  0  0
  -12.7497   -0.2771   -1.0864 C   0  0  0  0  0  0  0  0  0  0  0  0
  -14.0416    0.0992   -0.7221 O   0  0  0  0  0  0  0  0  0  0  0  0
    1.5910   -1.2079    0.7816 C   0  0  0  0  0  0  0  0  0  0  0  0
    6.8519    0.7313    0.1186 C   0  0  0  0  0  0  0  0  0  0  0  0
   11.8381   -0.9946   -0.8924 C   0  0  0  0  0  0  0  0  0  0  0  0
    2.5677   -1.3552   -0.4003 C   0  0  2  0  0  0  0  0  0  0  0  0
    3.0598   -2.6189   -0.3066 O   0  0  0  0  0  0  0  0  0  0  0  0
    7.8724    0.1037    1.0809 C   0  0  2  0  0  0  0  0  0  0  0  0
    8.5602    1.0884    1.7453 O   0  0  0  0  0  0  0  0  0  0  0  0
   12.6986    0.0036   -1.6230 C   0  0  2  0  0  0  0  0  0  0  0  0
   13.5717   -0.6869   -2.4405 O   0  0  0  0  0  0  0  0  0  0  0  0
    3.5487   -0.2434   -0.3495 C   0  0  2  0  0  0  0  0  0  0  0  0
    4.7176   -0.4188    0.2594 O   0  0  0  0  0  0  0  0  0  0  0  0
    8.7488   -0.8081    0.2729 C   0  0  2  0  0  0  0  0  0  0  0  0
    9.7820   -0.0475   -0.2515 O   0  0  0  0  0  0  0  0  0  0  0  0
   13.5024    0.7293   -0.5542 C   0  0  2  0  0  0  0  0  0  0  0  0
   14.2099   -0.2507    0.1373 O   0  0  0  0  0  0  0  0  0  0  0  0
    2.8733    1.0034    0.1711 C   0  0  2  0  0  0  0  0  0  0  0  0
    1.5135    0.9901   -0.1634 O   0  0  0  0  0  0  0  0  0  0  0  0
    7.8991   -1.4888   -0.7728 C   0  0  2  0  0  0  0  0  0  0  0  0
    6.5687   -1.5899   -0.4505 O   0  0  0  0  0  0  0  0  0  0  0  0
   12.5188    1.3719    0.3657 C   0  0  2  0  0  0  0  0  0  0  0  0
   11.6458    0.5306    0.9891 O   0  0  0  0  0  0  0  0  0  0  0  0
    3.4843    2.1947   -0.5102 C   0  0  0  0  0  0  0  0  0  0  0  0
    8.4110   -2.9384   -0.8503 C   0  0  0  0  0  0  0  0  0  0  0  0
   11.8529    2.5243   -0.3519 C   0  0  0  0  0  0  0  0  0  0  0  0
   -2.8828    1.0732   -1.4223 H   0  0  0  0  0  0  0  0  0  0  0  0
   -4.0097    1.9804   -0.4016 H   0  0  0  0  0  0  0  0  0  0  0  0
   -1.4565    2.0799   -0.0307 H   0  0  0  0  0  0  0  0  0  0  0  0
   -2.5542    2.1830    1.3416 H   0  0  0  0  0  0  0  0  0  0  0  0
   -0.8814    0.7093    2.0366 H   0  0  0  0  0  0  0  0  0  0  0  0
   -1.8564   -1.8310    0.9355 H   0  0  0  0  0  0  0  0  0  0  0  0
   -2.0511   -1.1357    2.5468 H   0  0  0  0  0  0  0  0  0  0  0  0
   -4.1410   -1.7860    1.2999 H   0  0  0  0  0  0  0  0  0  0  0  0
   -4.5430   -0.7328    3.2514 H   0  0  0  0  0  0  0  0  0  0  0  0
   -3.4878    0.6618    2.9673 H   0  0  0  0  0  0  0  0  0  0  0  0
   -5.3066    1.7714    1.7220 H   0  0  0  0  0  0  0  0  0  0  0  0
   -6.1340    0.8654    3.0385 H   0  0  0  0  0  0  0  0  0  0  0  0
   -6.1121   -1.1268    1.4461 H   0  0  0  0  0  0  0  0  0  0  0  0
   -5.7369    1.1180   -0.5743 H   0  0  0  0  0  0  0  0  0  0  0  0
   -5.6874   -0.9540   -2.0988 H   0  0  0  0  0  0  0  0  0  0  0  0
   -6.2352   -1.8795   -0.6298 H   0  0  0  0  0  0  0  0  0  0  0  0
   -7.4750    0.6204   -1.8974 H   0  0  0  0  0  0  0  0  0  0  0  0
   -7.8790   -1.2207   -3.1589 H   0  0  0  0  0  0  0  0  0  0  0  0
   -9.0991   -0.0819    2.4675 H   0  0  0  0  0  0  0  0  0  0  0  0
   -7.8234    1.9691    2.3800 H   0  0  0  0  0  0  0  0  0  0  0  0
   -7.3970    2.3671    0.6237 H   0  0  0  0  0  0  0  0  0  0  0  0
   -9.7206    2.8249    0.6120 H   0  0  0  0  0  0  0  0  0  0  0  0
  -10.1507    1.4106    1.5939 H   0  0  0  0  0  0  0  0  0  0  0  0
   -8.8041    1.6674   -1.0835 H   0  0  0  0  0  0  0  0  0  0  0  0
   -8.1207   -2.2487    0.0433 H   0  0  0  0  0  0  0  0  0  0  0  0
   -9.3106   -1.6684    1.2032 H   0  0  0  0  0  0  0  0  0  0  0  0
   -9.7158   -1.8988   -0.5961 H   0  0  0  0  0  0  0  0  0  0  0  0
   -4.2541   -2.1051   -1.0470 H   0  0  0  0  0  0  0  0  0  0  0  0
   -3.6669   -0.7027   -2.1106 H   0  0  0  0  0  0  0  0  0  0  0  0
   -2.5732   -1.4378   -0.9306 H   0  0  0  0  0  0  0  0  0  0  0  0
    0.7800    0.5363    1.6684 H   0  0  0  0  0  0  0  0  0  0  0  0
    5.6989   -0.1064   -1.4201 H   0  0  0  0  0  0  0  0  0  0  0  0
   10.8303   -1.2902    0.9302 H   0  0  0  0  0  0  0  0  0  0  0  0
  -11.0991    1.8884   -0.9906 H   0  0  0  0  0  0  0  0  0  0  0  0
  -10.8947   -0.8356   -2.3648 H   0  0  0  0  0  0  0  0  0  0  0  0
  -10.6330    0.8356   -3.0936 H   0  0  0  0  0  0  0  0  0  0  0  0
  -12.2521    0.8889    0.6531 H   0  0  0  0  0  0  0  0  0  0  0  0
  -11.3831   -0.6521    0.5801 H   0  0  0  0  0  0  0  0  0  0  0  0
  -12.6932   -1.3710   -1.2439 H   0  0  0  0  0  0  0  0  0  0  0  0
  -14.2511   -0.2772    0.1864 H   0  0  0  0  0  0  0  0  0  0  0  0
    0.8804   -2.0434    0.7289 H   0  0  0  0  0  0  0  0  0  0  0  0
    2.1146   -1.2646    1.7482 H   0  0  0  0  0  0  0  0  0  0  0  0
    7.4890    1.1352   -0.7227 H   0  0  0  0  0  0  0  0  0  0  0  0
    6.3639    1.5929    0.5647 H   0  0  0  0  0  0  0  0  0  0  0  0
   12.4784   -1.8432   -0.5975 H   0  0  0  0  0  0  0  0  0  0  0  0
   11.1220   -1.3890   -1.6673 H   0  0  0  0  0  0  0  0  0  0  0  0
    1.9263   -1.3010   -1.3058 H   0  0  0  0  0  0  0  0  0  0  0  0
    2.4662   -3.2524    0.2083 H   0  0  0  0  0  0  0  0  0  0  0  0
    7.2557   -0.5096    1.7982 H   0  0  0  0  0  0  0  0  0  0  0  0
    8.8037    0.7196    2.6496 H   0  0  0  0  0  0  0  0  0  0  0  0
   12.1008    0.6922   -2.2442 H   0  0  0  0  0  0  0  0  0  0  0  0
   13.7108   -0.1725   -3.2832 H   0  0  0  0  0  0  0  0  0  0  0  0
    3.7698   -0.0095   -1.4193 H   0  0  0  0  0  0  0  0  0  0  0  0
    9.1790   -1.5726    0.9849 H   0  0  0  0  0  0  0  0  0  0  0  0
   14.1503    1.4999   -0.9856 H   0  0  0  0  0  0  0  0  0  0  0  0
   15.0304   -0.4463   -0.3786 H   0  0  0  0  0  0  0  0  0  0  0  0
    2.9032    1.0745    1.2741 H   0  0  0  0  0  0  0  0  0  0  0  0
    8.1087   -1.0128   -1.7454 H   0  0  0  0  0  0  0  0  0  0  0  0
   13.1309    1.8556    1.1852 H   0  0  0  0  0  0  0  0  0  0  0  0
    2.8353    2.5365   -1.3652 H   0  0  0  0  0  0  0  0  0  0  0  0
    4.4464    1.9119   -0.9819 H   0  0  0  0  0  0  0  0  0  0  0  0
    3.7050    3.0017    0.2046 H   0  0  0  0  0  0  0  0  0  0  0  0
    9.4724   -3.0031   -1.0740 H   0  0  0  0  0  0  0  0  0  0  0  0
    8.1344   -3.3843    0.1492 H   0  0  0  0  0  0  0  0  0  0  0  0
    7.8129   -3.4961   -1.5974 H   0  0  0  0  0  0  0  0  0  0  0  0
   11.1443    2.2115   -1.1243 H   0  0  0  0  0  0  0  0  0  0  0  0
   11.3274    3.1299    0.4439 H   0  0  0  0  0  0  0  0  0  0  0  0
   12.6532    3.1228   -0.8176 H   0  0  0  0  0  0  0  0  0  0  0  0
   -2.8828    1.0732   -1.4223 H   0  0  0  0  0  0  0  0  0  0  0  0
   -4.0097    1.9804   -0.4016 H   0  0  0  0  0  0  0  0  0  0  0  0
   -1.4565    2.0799   -0.0307 H   0  0  0  0  0  0  0  0  0  0  0  0
   -2.5542    2.1830    1.3416 H   0  0  0  0  0  0  0  0  0  0  0  0
   -0.8814    0.7093    2.0366 H   0  0  0  0  0  0  0  0  0  0  0  0
   -1.8564   -1.8310    0.9355 H   0  0  0  0  0  0  0  0  0  0  0  0
   -2.0511   -1.1357    2.5468 H   0  0  0  0  0  0  0  0  0  0  0  0
   -4.1410   -1.7860    1.2999 H   0  0  0  0  0  0  0  0  0  0  0  0
   -4.5430   -0.7328    3.2514 H   0  0  0  0  0  0  0  0  0  0  0  0
   -3.4878    0.6618    2.9673 H   0  0  0  0  0  0  0  0  0  0  0  0
   -5.3066    1.7714    1.7220 H   0  0  0  0  0  0  0  0  0  0  0  0
   -6.1340    0.8654    3.0385 H   0  0  0  0  0  0  0  0  0  0  0  0
   -6.1121   -1.1268    1.4461 H   0  0  0  0  0  0  0  0  0  0  0  0
   -5.7369    1.1180   -0.5743 H   0  0  0  0  0  0  0  0  0  0  0  0
   -5.6874   -0.9540   -2.0988 H   0  0  0  0  0  0  0  0  0  0  0  0
   -6.2352   -1.8795   -0.6298 H   0  0  0  0  0  0  0  0  0  0  0  0
   -7.4750    0.6204   -1.8974 H   0  0  0  0  0  0  0  0  0  0  0  0
   -7.8790   -1.2207   -3.1589 H   0  0  0  0  0  0  0  0  0  0  0  0
   -9.0991   -0.0819    2.4675 H   0  0  0  0  0  0  0  0  0  0  0  0
   -7.8234    1.9691    2.3800 H   0  0  0  0  0  0  0  0  0  0  0  0
   -7.3970    2.3671    0.6237 H   0  0  0  0  0  0  0  0  0  0  0  0
   -9.7206    2.8249    0.6120 H   0  0  0  0  0  0  0  0  0  0  0  0
  -10.1507    1.4106    1.5939 H   0  0  0  0  0  0  0  0  0  0  0  0
   -8.8041    1.6674   -1.0835 H   0  0  0  0  0  0  0  0  0  0  0  0
   -8.1207   -2.2487    0.0433 H   0  0  0  0  0  0  0  0  0  0  0  0
   -9.3106   -1.6684    1.2032 H   0  0  0  0  0  0  0  0  0  0  0  0
   -9.7158   -1.8988   -0.5961 H   0  0  0  0  0  0  0  0  0  0  0  0
   -4.2541   -2.1051   -1.0470 H   0  0  0  0  0  0  0  0  0  0  0  0
   -3.6669   -0.7027   -2.1106 H   0  0  0  0  0  0  0  0  0  0  0  0
   -2.5732   -1.4378   -0.9306 H   0  0  0  0  0  0  0  0  0  0  0  0
    0.7800    0.5363    1.6684 H   0  0  0  0  0  0  0  0  0  0  0  0
    5.6989   -0.1064   -1.4201 H   0  0  0  0  0  0  0  0  0  0  0  0
   10.8303   -1.2902    0.9302 H   0  0  0  0  0  0  0  0  0  0  0  0
  -11.0991    1.8884   -0.9906 H   0  0  0  0  0  0  0  0  0  0  0  0
  -10.8947   -0.8356   -2.3648 H   0  0  0  0  0  0  0  0  0  0  0  0
  -10.6330    0.8356   -3.0936 H   0  0  0  0  0  0  0  0  0  0  0  0
  -12.2521    0.8889    0.6531 H   0  0  0  0  0  0  0  0  0  0  0  0
  -11.3831   -0.6521    0.5801 H   0  0  0  0  0  0  0  0  0  0  0  0
  -12.6932   -1.3710   -1.2439 H   0  0  0  0  0  0  0  0  0  0  0  0
  -14.2511   -0.2772    0.1864 H   0  0  0  0  0  0  0  0  0  0  0  0
    0.8804   -2.0434    0.7289 H   0  0  0  0  0  0  0  0  0  0  0  0
    2.1146   -1.2646    1.7482 H   0  0  0  0  0  0  0  0  0  0  0  0
    7.4890    1.1352   -0.7227 H   0  0  0  0  0  0  0  0  0  0  0  0
    6.3639    1.5929    0.5647 H   0  0  0  0  0  0  0  0  0  0  0  0
   12.4784   -1.8432   -0.5975 H   0  0  0  0  0  0  0  0  0  0  0  0
   11.1220   -1.3890   -1.6673 H   0  0  0  0  0  0  0  0  0  0  0  0
    1.9263   -1.3010   -1.3058 H   0  0  0  0  0  0  0  0  0  0  0  0
    2.4662   -3.2524    0.2083 H   0  0  0  0  0  0  0  0  0  0  0  0
    7.2557   -0.5096    1.7982 H   0  0  0  0  0  0  0  0  0  0  0  0
    8.8037    0.7196    2.6496 H   0  0  0  0  0  0  0  0  0  0  0  0
   12.1008    0.6922   -2.2442 H   0  0  0  0  0  0  0  0  0  0  0  0
   13.7108   -0.1725   -3.2832 H   0  0  0  0  0  0  0  0  0  0  0  0
    3.7698   -0.0095   -1.4193 H   0  0  0  0  0  0  0  0  0  0  0  0
    9.1790   -1.5726    0.9849 H   0  0  0  0  0  0  0  0  0  0  0  0
   14.1503    1.4999   -0.9856 H   0  0  0  0  0  0  0  0  0  0  0  0
   15.0304   -0.4463   -0.3786 H   0  0  0  0  0  0  0  0  0  0  0  0
    2.9032    1.0745    1.2741 H   0  0  0  0  0  0  0  0  0  0  0  0
    8.1087   -1.0128   -1.7454 H   0  0  0  0  0  0  0  0  0  0  0  0
   13.1309    1.8556    1.1852 H   0  0  0  0  0  0  0  0  0  0  0  0
    2.8353    2.5365   -1.3652 H   0  0  0  0  0  0  0  0  0  0  0  0
    4.4464    1.9119   -0.9819 H   0  0  0  0  0  0  0  0  0  0  0  0
    3.7050    3.0017    0.2046 H   0  0  0  0  0  0  0  0  0  0  0  0
    9.4724   -3.0031   -1.0740 H   0  0  0  0  0  0  0  0  0  0  0  0
    8.1344   -3.3843    0.1492 H   0  0  0  0  0  0  0  0  0  0  0  0
    7.8129   -3.4961   -1.5974 H   0  0  0  0  0  0  0  0  0  0  0  0
   11.1443    2.2115   -1.1243 H   0  0  0  0  0  0  0  0  0  0  0  0
   11.3274    3.1299    0.4439 H   0  0  0  0  0  0  0  0  0  0  0  0
   12.6532    3.1228   -0.8176 H   0  0  0  0  0  0  0  0  0  0  0  0
  1  2  1  0
  2  3  1  0
  3  4  1  0
  3  5  1  0
  5  6  1  0
  6  7  1  0
  7  8  1  0
  8  9  1  0
  9 10  1  0
  1 11  1  0
  6 11  1  0
 10 11  1  0
 10 12  1  0
 12 13  1  0
 13 14  1  0
 13 15  1  0
  9 16  1  0
 15 16  1  0
 16 17  1  1
 16 18  1  0
 18 19  1  0
 15 20  1  0
 19 20  1  0
 15 21  1  1
 11 22  1  6
  4 23  1  0
 20 26  1  0
 26 27  1  0
 27 28  1  0
 26 29  1  0
 28 30  1  0
 29 30  1  0
 30 31  1  0
 23 32  1  0
 24 33  1  0
 25 34  1  0
 32 35  1  0
 35 36  1  0
 33 37  1  0
 37 38  1  0
 34 39  1  0
 39 40  1  0
 35 41  1  0
 24 42  1  0
 41 42  1  0
 37 43  1  0
 25 44  1  0
 43 44  1  0
 39 45  1  0
 45 46  1  0
 41 47  1  0
 23 48  1  0
 47 48  1  0
 43 49  1  0
 24 50  1  0
 49 50  1  0
 45 51  1  0
 25 52  1  0
 51 52  1  0
 47 53  1  0
 49 54  1  0
 51 55  1  0
 56 57  1  0
 57 58  1  0
 58 59  1  0
 58 60  1  0
 60 61  1  0
 61 62  1  0
 62 63  1  0
 63 64  1  0
 64 65  1  0
 56 66  1  0
 61 66  1  0
 65 66  1  0
 65 67  1  0
 67 68  1  0
 68 69  1  0
 68 70  1  0
 64 71  1  0
 70 71  1  0
 71 72  1  1
 71 73  1  0
 73 74  1  0
 70 75  1  0
 74 75  1  0
 70 76  1  1
 66 77  1  6
 59 78  1  0
 75 81  1  0
 81 82  1  0
 82 83  1  0
 81 84  1  0
 83 85  1  0
 84 85  1  0
 85 86  1  0
 78 87  1  0
 79 88  1  0
 80 89  1  0
 87 90  1  0
 90 91  1  0
 88 92  1  0
 92 93  1  0
 89 94  1  0
 94 95  1  0
 90 96  1  0
 79 97  1  0
 96 97  1  0
 92 98  1  0
 80 99  1  0
 98 99  1  0
 94100  1  0
100101  1  0
 96102  1  0
 78103  1  0
102103  1  0
 98104  1  0
 79105  1  0
104105  1  0
100106  1  0
 80107  1  0
106107  1  0
102108  1  0
104109  1  0
106110  1  0
  1111  1  0
  1112  1  0
  2113  1  0
  2114  1  0
  3115  1  1
  5116  1  0
  5117  1  0
  6118  1  6
  7119  1  0
  7120  1  0
  8121  1  0
  8122  1  0
  9123  1  1
 10124  1  6
 12125  1  0
 12126  1  0
 13127  1  6
 14128  1  0
 17129  1  0
 18130  1  0
 18131  1  0
 19132  1  0
 19133  1  0
 20134  1  6
 21135  1  0
 21136  1  0
 21137  1  0
 22138  1  0
 22139  1  0
 22140  1  0
 23141  1  1
 24142  1  6
 25143  1  1
 26144  1  6
 27145  1  0
 27146  1  0
 29147  1  0
 29148  1  0
 30149  1  0
 31150  1  0
 32151  1  0
 32152  1  0
 33153  1  0
 33154  1  0
 34155  1  0
 34156  1  0
 35157  1  6
 36158  1  0
 37159  1  1
 38160  1  0
 39161  1  6
 40162  1  0
 41163  1  6
 43164  1  1
 45165  1  6
 46166  1  0
 47167  1  1
 49168  1  6
 51169  1  1
 53170  1  0
 53171  1  0
 53172  1  0
 54173  1  0
 54174  1  0
 54175  1  0
 55176  1  0
 55177  1  0
 55178  1  0
 56179  1  0
 56180  1  0
 57181  1  0
 57182  1  0
 58183  1  1
 60184  1  0
 60185  1  0
 61186  1  6
 62187  1  0
 62188  1  0
 63189  1  0
 63190  1  0
 64191  1  1
 65192  1  6
 67193  1  0
 67194  1  0
 68195  1  6
 69196  1  0
 72197  1  0
 73198  1  0
 73199  1  0
 74200  1  0
 74201  1  0
 75202  1  6
 76203  1  0
 76204  1  0
 76205  1  0
 77206  1  0
 77207  1  0
 77208  1  0
 78209  1  1
 79210  1  6
 80211  1  1
 81212  1  6
 82213  1  0
 82214  1  0
 84215  1  0
 84216  1  0
 85217  1  0
 86218  1  0
 87219  1  0
 87220  1  0
 88221  1  0
 88222  1  0
 89223  1  0
 89224  1  0
 90225  1  6
 91226  1  0
 92227  1  1
 93228  1  0
 94229  1  6
 95230  1  0
 96231  1  6
 98232  1  1
100233  1  6
101234  1  0
102235  1  1
104236  1  6
106237  1  1
108238  1  0
108239  1  0
108240  1  0
109241  1  0
109242  1  0
109243  1  0
110244  1  0
110245  1  0
110246  1  0
M  END
>  <PDBID>  (1) 
4RET

>  <PDB ID>  (1) 
4RET

>  <Generic Name>  (1) 
Digoxin

>  <Brand Name>  (1) 
Apo-digoxin#Digitek#Digox#Digoxin#Digoxin Injection C.S.D.#Lanoxin#Lanoxin Elx 0.05mg/ml Pediatric#Lanoxin Inj 0.05mg/ml Pediatric#Lanoxin Inj 0.25mg/ml#Lanoxin Tab 0.0625mg#Lanoxin Tab 0.125mg#Lanoxin Tab 0.25mg#Novo-digoxin Tab 0.25mg#PMS-digoxin#Pediatric Digoxin Injection C.S.D.#Toloxin#Agoxin#Cardiacin#Cardiogoxin#Cardioxin#Cardoxin#Celoxin#Centoxin#Digacin#Digocard-G#Digoxina#Eudigox#Lanacordin#Lanacrist#Lanicor#Lanoxicaps#Lenoxin

>  <DrugBank ID>  (1) 
DB00390

>  <ATC Codes>  (1) 
C01AA05

>  <Ligand ID>  (1) 
DGX

>  <Target Name>  (1) 
Sodium/potassium-transporting ATPase subunit alpha-1

>  <UniProt ID>  (1) 
P05023

>  <PDB ID.1>  (1) 
4RET

>  <Seq. Identity>  (1) 
94%

$$$$
