PDB_DB01222_06
     RDKit          3D

 73 77  0  0  0  0  0  0  0  0999 V2000
   -5.9209   -2.3096   -0.8334 C   0  0  0  0  0  0  0  0  0  0  0  0
   -4.5879   -2.9992   -0.8279 C   0  0  0  0  0  0  0  0  0  0  0  0
   -3.5777   -2.3035   -1.7087 C   0  0  0  0  0  0  0  0  0  0  0  0
   -2.4850    1.0136   -1.1843 C   0  0  1  0  0  0  0  0  0  0  0  0
   -1.1053    1.7055   -1.3531 C   0  0  0  0  0  0  0  0  0  0  0  0
   -0.3001    0.7061   -0.6306 C   0  0  1  0  0  0  0  0  0  0  0  0
    1.1198    0.9478   -0.3638 C   0  0  2  0  0  0  0  0  0  0  0  0
    1.7780    1.1819   -1.7257 C   0  0  0  0  0  0  0  0  0  0  0  0
    3.2222    1.4441   -1.4947 C   0  0  0  0  0  0  0  0  0  0  0  0
    3.7389    1.1066   -0.1616 C   0  0  0  0  0  0  0  0  0  0  0  0
    4.4188   -1.4090   -1.1062 C   0  0  0  0  0  0  0  0  0  0  0  0
    3.9131   -1.3443    0.3147 C   0  0  0  0  0  0  0  0  0  0  0  0
    3.1147   -0.0503    0.5597 C   0  0  2  0  0  0  0  0  0  0  0  0
   -0.5953   -0.9367    1.0591 C   0  0  0  0  0  0  0  0  0  0  0  0
   -3.4562    1.0895    1.1445 C   0  0  0  0  0  0  0  0  0  0  0  0
   -3.4651    2.5829    1.2958 C   0  0  0  0  0  0  0  0  0  0  0  0
   -0.6747    1.3774    1.7582 C   0  0  0  0  0  0  0  0  0  0  0  0
   -3.4004   -0.9030   -1.1703 C   0  0  2  0  0  0  0  0  0  0  0  0
   -2.4685   -0.1827   -1.9418 O   0  0  0  0  0  0  0  0  0  0  0  0
    5.2389    0.8189   -0.3127 C   0  0  0  0  0  0  0  0  0  0  0  0
    5.4727   -0.3385   -1.2535 C   0  0  0  0  0  0  0  0  0  0  0  0
    6.7187   -0.8954   -0.8816 O   0  0  0  0  0  0  0  0  0  0  0  0
    1.7155   -0.3412    0.1840 C   0  0  1  0  0  0  0  0  0  0  0  0
    0.8751   -1.0601    1.1481 C   0  0  1  0  0  0  0  0  0  0  0  0
   -1.0361    0.4453    0.6709 C   0  0  1  0  0  0  0  0  0  0  0  0
   -2.4722    0.5029    0.2120 C   0  0  2  0  0  0  0  0  0  0  0  0
   -2.8472   -0.8710    0.0778 O   0  0  0  0  0  0  0  0  0  0  0  0
   -4.7757    0.8231    0.6209 O   0  0  0  0  0  0  0  0  0  0  0  0
   -3.6547    3.2497    0.0742 O   0  0  0  0  0  0  0  0  0  0  0  0
    1.2275   -0.9329    2.4933 O   0  0  0  0  0  0  0  0  0  0  0  0
    3.3498    0.2144    2.0482 C   0  0  0  0  0  0  0  0  0  0  0  0
   -6.6934   -3.0830   -1.1203 H   0  0  0  0  0  0  0  0  0  0  0  0
   -6.0260   -1.4957   -1.5546 H   0  0  0  0  0  0  0  0  0  0  0  0
   -6.2402   -1.9472    0.1684 H   0  0  0  0  0  0  0  0  0  0  0  0
   -4.2260   -2.9567    0.2420 H   0  0  0  0  0  0  0  0  0  0  0  0
   -4.6818   -4.0776   -1.0706 H   0  0  0  0  0  0  0  0  0  0  0  0
   -2.6536   -2.8880   -1.7124 H   0  0  0  0  0  0  0  0  0  0  0  0
   -4.0457   -2.2007   -2.7149 H   0  0  0  0  0  0  0  0  0  0  0  0
   -3.3099    1.6049   -1.5185 H   0  0  0  0  0  0  0  0  0  0  0  0
   -0.8615    1.6699   -2.4333 H   0  0  0  0  0  0  0  0  0  0  0  0
   -1.1405    2.7087   -0.9388 H   0  0  0  0  0  0  0  0  0  0  0  0
   -0.3667   -0.2553   -1.2264 H   0  0  0  0  0  0  0  0  0  0  0  0
    1.3662    1.8282    0.2387 H   0  0  0  0  0  0  0  0  0  0  0  0
    1.2549    1.9647   -2.2954 H   0  0  0  0  0  0  0  0  0  0  0  0
    1.6580    0.2050   -2.2702 H   0  0  0  0  0  0  0  0  0  0  0  0
    3.3815    2.5512   -1.6706 H   0  0  0  0  0  0  0  0  0  0  0  0
    3.8059    0.9755   -2.3423 H   0  0  0  0  0  0  0  0  0  0  0  0
    3.7006    2.0270    0.4903 H   0  0  0  0  0  0  0  0  0  0  0  0
    3.6186   -1.3616   -1.8411 H   0  0  0  0  0  0  0  0  0  0  0  0
    4.9175   -2.3895   -1.2171 H   0  0  0  0  0  0  0  0  0  0  0  0
    4.8084   -1.3868    0.9717 H   0  0  0  0  0  0  0  0  0  0  0  0
    3.2779   -2.2259    0.4868 H   0  0  0  0  0  0  0  0  0  0  0  0
   -1.0581   -1.6350    0.3122 H   0  0  0  0  0  0  0  0  0  0  0  0
   -1.0649   -1.1380    2.0599 H   0  0  0  0  0  0  0  0  0  0  0  0
   -3.4299    0.5920    2.1145 H   0  0  0  0  0  0  0  0  0  0  0  0
   -4.4546    2.7981    1.8427 H   0  0  0  0  0  0  0  0  0  0  0  0
   -2.7282    3.0598    1.9000 H   0  0  0  0  0  0  0  0  0  0  0  0
   -0.5731    2.4247    1.4733 H   0  0  0  0  0  0  0  0  0  0  0  0
   -1.4125    1.2967    2.5790 H   0  0  0  0  0  0  0  0  0  0  0  0
    0.2992    1.1310    2.2507 H   0  0  0  0  0  0  0  0  0  0  0  0
   -4.3524   -0.3828   -1.3078 H   0  0  0  0  0  0  0  0  0  0  0  0
    5.6547    1.7544   -0.7895 H   0  0  0  0  0  0  0  0  0  0  0  0
    5.7393    0.7232    0.6490 H   0  0  0  0  0  0  0  0  0  0  0  0
    5.6037    0.0141   -2.2854 H   0  0  0  0  0  0  0  0  0  0  0  0
    6.6047   -1.4684   -0.0842 H   0  0  0  0  0  0  0  0  0  0  0  0
    1.7835   -0.9985   -0.7463 H   0  0  0  0  0  0  0  0  0  0  0  0
    1.0757   -2.1785    0.9753 H   0  0  0  0  0  0  0  0  0  0  0  0
   -5.0004   -0.0717    0.9732 H   0  0  0  0  0  0  0  0  0  0  0  0
   -4.5942    3.1820   -0.2245 H   0  0  0  0  0  0  0  0  0  0  0  0
    0.7456   -1.6215    3.0026 H   0  0  0  0  0  0  0  0  0  0  0  0
    2.6516    0.9127    2.4930 H   0  0  0  0  0  0  0  0  0  0  0  0
    3.5310   -0.7286    2.6180 H   0  0  0  0  0  0  0  0  0  0  0  0
    4.3541    0.7350    2.1327 H   0  0  0  0  0  0  0  0  0  0  0  0
  1  2  1  0
  2  3  1  0
  4  5  1  0
  5  6  1  0
  6  7  1  0
  7  8  1  0
  8  9  1  0
  9 10  1  0
 11 12  1  0
 10 13  1  0
 12 13  1  0
 15 16  1  0
  3 18  1  0
  4 19  1  0
 18 19  1  0
 10 20  1  0
 11 21  1  0
 20 21  1  0
 21 22  1  0
  7 23  1  0
 13 23  1  0
 14 24  1  0
 23 24  1  0
  6 25  1  0
 14 25  1  0
 25 17  1  1
  4 26  1  0
 26 15  1  1
 25 26  1  0
 18 27  1  0
 26 27  1  0
 15 28  1  0
 16 29  1  0
 24 30  1  0
 13 31  1  1
  1 32  1  0
  1 33  1  0
  1 34  1  0
  2 35  1  0
  2 36  1  0
  3 37  1  0
  3 38  1  0
  4 39  1  1
  5 40  1  0
  5 41  1  0
  6 42  1  6
  7 43  1  1
  8 44  1  0
  8 45  1  0
  9 46  1  0
  9 47  1  0
 10 48  1  0
 11 49  1  0
 11 50  1  0
 12 51  1  0
 12 52  1  0
 14 53  1  0
 14 54  1  0
 15 55  1  0
 16 56  1  0
 16 57  1  0
 17 58  1  0
 17 59  1  0
 17 60  1  0
 18 61  1  1
 20 62  1  0
 20 63  1  0
 21 64  1  0
 22 65  1  0
 23 66  1  6
 24 67  1  6
 28 68  1  0
 29 69  1  0
 30 70  1  0
 31 71  1  0
 31 72  1  0
 31 73  1  0
M  END
>  <PDBID>  (1) 
5NFP

>  <PDB ID>  (1) 
5NFP

>  <Generic Name>  (1) 
Budesonide

>  <Brand Name>  (1) 
Budesonide#Budesonide (enteric Coated)#Budesonide Inhalation#Budesonide Nasal#Childrens Rhinocort Allergy#Cortiment#Entocort#Entocort EC#Entocort Enema#Mylan-budesonide AQ#Pulmicort Flexhaler#Pulmicort Nebuamp 0.125 mg/ml#Pulmicort Nebuamp 0.25 mg/ml#Pulmicort Nebuamp 0.5 mg/ml#Pulmicort Respules#Pulmicort Turbuhaler 100 Mcg/dose#Pulmicort Turbuhaler 200 Mcg/dose#Pulmicort Turbuhaler 400 Mcg/dose#Rhinocort Allergy#Rhinocort Aqua#Rhinocort Aqua 100mcg#Rhinocort Turbuhaler 100 Mcg/dose#Symbicort#Symbicort 100 Turbuhaler#Symbicort 200 Turbuhaler#Symbicort Forte Turbuhaler#Uceris#Bidien#Budeson#Budicort#ENTOCORT#Noex#Pulmicort#Rhinocort#Rhinosol#Spirocort

>  <DrugBank ID>  (1) 
DB01222

>  <ATC Codes>  (1) 
R03AK07#A07EA06#R03BA02#D07AC09#R03AK12#R01AD05

>  <Ligand ID>  (1) 
8W5

>  <Target Name>  (1) 
Glucocorticoid receptor

>  <UniProt ID>  (1) 
P04150

>  <PDB ID.1>  (1) 
5NFP

>  <Seq. Identity>  (1) 
98%

$$$$
