PDB_DB00491_08
     RDKit          3D

 31 31  0  0  0  0  0  0  0  0999 V2000
    4.0959    0.3561   -1.0152 O   0  0  0  0  0  0  0  0  0  0  0  0
    0.9639    2.3356    1.3450 O   0  0  0  0  0  0  0  0  0  0  0  0
   -1.8035   -2.8420    0.6226 O   0  0  0  0  0  0  0  0  0  0  0  0
   -2.8211    0.1922    1.2849 O   0  0  0  0  0  0  0  0  0  0  0  0
   -1.5104   -0.0189   -1.9968 O   0  0  0  0  0  0  0  0  0  0  0  0
    2.8995    0.7232   -0.3474 C   0  0  0  0  0  0  0  0  0  0  0  0
   -0.2535    1.8475    0.8903 C   0  0  0  0  0  0  0  0  0  0  0  0
    1.9811   -0.4300   -0.4698 C   0  0  0  0  0  0  0  0  0  0  0  0
   -0.0125   -1.5241   -0.1090 C   0  0  0  0  0  0  0  0  0  0  0  0
   -1.2439   -1.5614    0.7657 C   0  0  1  0  0  0  0  0  0  0  0  0
   -2.1614   -0.4834    0.2627 C   0  0  2  0  0  0  0  0  0  0  0  0
   -1.4577    0.4505   -0.6876 C   0  0  1  0  0  0  0  0  0  0  0  0
   -0.0664    0.8341   -0.2466 C   0  0  2  0  0  0  0  0  0  0  0  0
    0.6946   -0.2843    0.1367 N   0  0  0  0  0  0  0  0  0  0  0  0
    4.5031   -0.3396   -0.4257 H   0  0  0  0  0  0  0  0  0  0  0  0
    0.7861    3.2146    1.7762 H   0  0  0  0  0  0  0  0  0  0  0  0
   -1.9150   -3.0608   -0.3434 H   0  0  0  0  0  0  0  0  0  0  0  0
   -3.5538   -0.3590    1.6554 H   0  0  0  0  0  0  0  0  0  0  0  0
   -2.3972    0.0828   -2.3785 H   0  0  0  0  0  0  0  0  0  0  0  0
    2.5452    1.6281   -0.8539 H   0  0  0  0  0  0  0  0  0  0  0  0
    3.2248    0.9123    0.7039 H   0  0  0  0  0  0  0  0  0  0  0  0
   -0.8466    1.3690    1.6955 H   0  0  0  0  0  0  0  0  0  0  0  0
   -0.8417    2.7200    0.5465 H   0  0  0  0  0  0  0  0  0  0  0  0
    1.8854   -0.6892   -1.5507 H   0  0  0  0  0  0  0  0  0  0  0  0
    2.4709   -1.3192    0.0018 H   0  0  0  0  0  0  0  0  0  0  0  0
   -0.1997   -1.7401   -1.1643 H   0  0  0  0  0  0  0  0  0  0  0  0
    0.6501   -2.3783    0.2337 H   0  0  0  0  0  0  0  0  0  0  0  0
   -0.9209   -1.4198    1.8044 H   0  0  0  0  0  0  0  0  0  0  0  0
   -2.9553   -0.9968   -0.3351 H   0  0  0  0  0  0  0  0  0  0  0  0
   -2.1175    1.3755   -0.7062 H   0  0  0  0  0  0  0  0  0  0  0  0
    0.3778    1.4054   -1.0950 H   0  0  0  0  0  0  0  0  0  0  0  0
  1  6  1  0
  2  7  1  0
  6  8  1  0
  3 10  1  0
  9 10  1  0
  4 11  1  0
 10 11  1  0
  5 12  1  0
 11 12  1  0
  7 13  1  0
 12 13  1  0
  8 14  1  0
  9 14  1  0
 13 14  1  0
  1 15  1  0
  2 16  1  0
  3 17  1  0
  4 18  1  0
  5 19  1  0
  6 20  1  0
  6 21  1  0
  7 22  1  0
  7 23  1  0
  8 24  1  0
  8 25  1  0
  9 26  1  0
  9 27  1  0
 10 28  1  1
 11 29  1  6
 12 30  1  6
 13 31  1  6
M  END
>  <PDBID>  (1) 
3L4W

>  <PDB ID>  (1) 
3L4W

>  <Generic Name>  (1) 
Miglitol

>  <Brand Name>  (1) 
Glyset#Miglitol#Diaban#Diamig#Diaset#Diastabol#Elitox#Euglitol#Glycet#Laiping#Migbose#Miglit#Mignar#Migtor#Misobit#Plumarol#Seibule

>  <DrugBank ID>  (1) 
DB00491

>  <ATC Codes>  (1) 
A10BF02

>  <Ligand ID>  (1) 
MIG

>  <Target Name>  (1) 
Maltase-glucoamylase, intestinal

>  <UniProt ID>  (1) 
O43451

>  <PDB ID.1>  (1) 
3L4W

>  <Seq. Identity>  (1) 
99%

$$$$
