PDB_DB00276_01
     RDKit          3D

138144  0  0  0  0  0  0  0  0999 V2000
    1.2656   -3.1058    2.5493 C   0  0  0  0  0  0  0  0  0  0  0  0
    1.0118   -2.4662    1.3502 O   0  0  0  0  0  0  0  0  0  0  0  0
    1.8408   -1.3768    1.1112 C   0  0  0  0  0  0  0  0  0  0  0  0
    2.5137   -1.5742   -0.1984 C   0  0  0  0  0  0  0  0  0  0  0  0
    3.2352   -0.3490   -0.6361 C   0  0  0  0  0  0  0  0  0  0  0  0
    4.5548   -0.2550   -0.0133 N   0  0  0  0  0  0  0  0  0  0  0  0
    5.4571    0.8782   -0.3108 S   0  0  0  0  0  0  0  0  0  0  0  0
    5.7898    2.0474    0.8557 C   0  0  0  0  0  0  0  0  0  0  0  0
    7.1407    0.1234   -0.5016 O   0  0  0  0  0  0  0  0  0  0  0  0
    5.4070    1.6139   -1.7802 O   0  0  0  0  0  0  0  0  0  0  0  0
    2.4842    0.9302   -0.5158 C   0  0  0  0  0  0  0  0  0  0  0  0
    1.6896    1.0218    0.7662 C   0  0  0  0  0  0  0  0  0  0  0  0
    0.8399   -0.1538    1.0389 C   0  0  0  0  0  0  0  0  0  0  0  0
   -0.1509   -0.5708    0.1863 N   0  0  0  0  0  0  0  0  0  0  0  0
   -1.0649    0.1749   -0.5502 C   0  0  0  0  0  0  0  0  0  0  0  0
   -2.1034    0.8648    0.2733 C   0  0  0  0  0  0  0  0  0  0  0  0
   -1.5327    1.9632    1.1380 C   0  0  0  0  0  0  0  0  0  0  0  0
   -2.6399    2.6585    1.9076 C   0  0  0  0  0  0  0  0  0  0  0  0
   -3.7891    3.1090    1.0764 C   0  0  0  0  0  0  0  0  0  0  0  0
   -4.2898    1.9777    0.1673 C   0  0  0  0  0  0  0  0  0  0  0  0
   -3.0663    1.5794   -0.6477 C   0  0  0  0  0  0  0  0  0  0  0  0
   -3.3932    0.9640   -1.8655 N   0  0  0  0  0  0  0  0  0  0  0  0
   -3.0642   -0.4070   -2.0032 C   0  0  0  0  0  0  0  0  0  0  0  0
   -4.1152   -1.2211   -1.3058 C   0  0  0  0  0  0  0  0  0  0  0  0
   -3.8356   -2.6817   -1.4641 C   0  0  0  0  0  0  0  0  0  0  0  0
   -2.5312   -2.9106   -0.6914 C   0  0  0  0  0  0  0  0  0  0  0  0
   -1.4263   -2.1943   -1.4114 C   0  0  0  0  0  0  0  0  0  0  0  0
   -1.6577   -0.7355   -1.6078 C   0  0  0  0  0  0  0  0  0  0  0  0
    1.2656   -3.1058    2.5493 C   0  0  0  0  0  0  0  0  0  0  0  0
    1.0118   -2.4662    1.3502 O   0  0  0  0  0  0  0  0  0  0  0  0
    1.8408   -1.3768    1.1112 C   0  0  0  0  0  0  0  0  0  0  0  0
    2.5137   -1.5742   -0.1984 C   0  0  0  0  0  0  0  0  0  0  0  0
    3.2352   -0.3490   -0.6361 C   0  0  0  0  0  0  0  0  0  0  0  0
    4.5548   -0.2550   -0.0133 N   0  0  0  0  0  0  0  0  0  0  0  0
    5.4571    0.8782   -0.3108 S   0  0  0  0  0  0  0  0  0  0  0  0
    5.7898    2.0474    0.8557 C   0  0  0  0  0  0  0  0  0  0  0  0
    7.1407    0.1234   -0.5016 O   0  0  0  0  0  0  0  0  0  0  0  0
    5.4070    1.6139   -1.7802 O   0  0  0  0  0  0  0  0  0  0  0  0
    2.4842    0.9302   -0.5158 C   0  0  0  0  0  0  0  0  0  0  0  0
    1.6896    1.0218    0.7662 C   0  0  0  0  0  0  0  0  0  0  0  0
    0.8399   -0.1538    1.0389 C   0  0  0  0  0  0  0  0  0  0  0  0
   -0.1509   -0.5708    0.1863 N   0  0  0  0  0  0  0  0  0  0  0  0
   -1.0649    0.1749   -0.5502 C   0  0  0  0  0  0  0  0  0  0  0  0
   -2.1034    0.8648    0.2733 C   0  0  0  0  0  0  0  0  0  0  0  0
   -1.5327    1.9632    1.1380 C   0  0  0  0  0  0  0  0  0  0  0  0
   -2.6399    2.6585    1.9076 C   0  0  0  0  0  0  0  0  0  0  0  0
   -3.7891    3.1090    1.0764 C   0  0  0  0  0  0  0  0  0  0  0  0
   -4.2898    1.9777    0.1673 C   0  0  0  0  0  0  0  0  0  0  0  0
   -3.0663    1.5794   -0.6477 C   0  0  0  0  0  0  0  0  0  0  0  0
   -3.3932    0.9640   -1.8655 N   0  0  0  0  0  0  0  0  0  0  0  0
   -3.0642   -0.4070   -2.0032 C   0  0  0  0  0  0  0  0  0  0  0  0
   -4.1152   -1.2211   -1.3058 C   0  0  0  0  0  0  0  0  0  0  0  0
   -3.8356   -2.6817   -1.4641 C   0  0  0  0  0  0  0  0  0  0  0  0
   -2.5312   -2.9106   -0.6914 C   0  0  0  0  0  0  0  0  0  0  0  0
   -1.4263   -2.1943   -1.4114 C   0  0  0  0  0  0  0  0  0  0  0  0
   -1.6577   -0.7355   -1.6078 C   0  0  0  0  0  0  0  0  0  0  0  0
    2.2897   -3.5015    2.6227 H   0  0  0  0  0  0  0  0  0  0  0  0
    0.5136   -3.9246    2.6309 H   0  0  0  0  0  0  0  0  0  0  0  0
    1.0119   -2.3852    3.3666 H   0  0  0  0  0  0  0  0  0  0  0  0
    2.5465   -1.2273    1.9291 H   0  0  0  0  0  0  0  0  0  0  0  0
    1.8461   -1.9926   -0.9735 H   0  0  0  0  0  0  0  0  0  0  0  0
    3.2934   -2.3666   -0.0371 H   0  0  0  0  0  0  0  0  0  0  0  0
    3.4653   -0.4918   -1.7346 H   0  0  0  0  0  0  0  0  0  0  0  0
    4.9092   -1.2602   -0.0123 H   0  0  0  0  0  0  0  0  0  0  0  0
    4.9402    2.2677    1.5388 H   0  0  0  0  0  0  0  0  0  0  0  0
    6.0366    3.0388    0.3743 H   0  0  0  0  0  0  0  0  0  0  0  0
    6.6703    1.8216    1.4970 H   0  0  0  0  0  0  0  0  0  0  0  0
    6.9039   -0.6605   -1.0701 H   0  0  0  0  0  0  0  0  0  0  0  0
    6.2911    1.9086   -2.1023 H   0  0  0  0  0  0  0  0  0  0  0  0
    3.2377    1.7611   -0.4796 H   0  0  0  0  0  0  0  0  0  0  0  0
    1.8890    1.0879   -1.4160 H   0  0  0  0  0  0  0  0  0  0  0  0
    1.2466    1.9907    0.8833 H   0  0  0  0  0  0  0  0  0  0  0  0
    2.4999    0.9873    1.5678 H   0  0  0  0  0  0  0  0  0  0  0  0
    0.5094   -0.1311    2.0947 H   0  0  0  0  0  0  0  0  0  0  0  0
   -0.6982   -1.3826    0.6663 H   0  0  0  0  0  0  0  0  0  0  0  0
   -0.5721    1.0557   -1.0940 H   0  0  0  0  0  0  0  0  0  0  0  0
   -2.6259    0.1782    0.9736 H   0  0  0  0  0  0  0  0  0  0  0  0
   -0.8770    1.5415    1.9051 H   0  0  0  0  0  0  0  0  0  0  0  0
   -1.0021    2.7349    0.5364 H   0  0  0  0  0  0  0  0  0  0  0  0
   -2.2112    3.5542    2.4121 H   0  0  0  0  0  0  0  0  0  0  0  0
   -3.0262    2.0121    2.7262 H   0  0  0  0  0  0  0  0  0  0  0  0
   -3.5300    3.9589    0.3977 H   0  0  0  0  0  0  0  0  0  0  0  0
   -4.6061    3.4084    1.7361 H   0  0  0  0  0  0  0  0  0  0  0  0
   -4.6750    1.1729    0.7893 H   0  0  0  0  0  0  0  0  0  0  0  0
   -5.0160    2.4131   -0.5252 H   0  0  0  0  0  0  0  0  0  0  0  0
   -2.5686    2.5523   -0.9115 H   0  0  0  0  0  0  0  0  0  0  0  0
   -4.4077    1.0905   -2.0831 H   0  0  0  0  0  0  0  0  0  0  0  0
   -3.1933   -0.6599   -3.0970 H   0  0  0  0  0  0  0  0  0  0  0  0
   -5.0752   -1.0235   -1.8721 H   0  0  0  0  0  0  0  0  0  0  0  0
   -4.3221   -0.9486   -0.2773 H   0  0  0  0  0  0  0  0  0  0  0  0
   -4.6412   -3.3157   -1.0616 H   0  0  0  0  0  0  0  0  0  0  0  0
   -3.7024   -2.8902   -2.5334 H   0  0  0  0  0  0  0  0  0  0  0  0
   -2.7074   -2.6159    0.3398 H   0  0  0  0  0  0  0  0  0  0  0  0
   -2.3380   -3.9949   -0.7392 H   0  0  0  0  0  0  0  0  0  0  0  0
   -1.3599   -2.7319   -2.4160 H   0  0  0  0  0  0  0  0  0  0  0  0
   -0.4780   -2.4385   -0.9351 H   0  0  0  0  0  0  0  0  0  0  0  0
   -1.0365   -0.4974   -2.5341 H   0  0  0  0  0  0  0  0  0  0  0  0
    2.2897   -3.5015    2.6227 H   0  0  0  0  0  0  0  0  0  0  0  0
    0.5136   -3.9246    2.6309 H   0  0  0  0  0  0  0  0  0  0  0  0
    1.0119   -2.3852    3.3666 H   0  0  0  0  0  0  0  0  0  0  0  0
    2.5465   -1.2273    1.9291 H   0  0  0  0  0  0  0  0  0  0  0  0
    1.8461   -1.9926   -0.9735 H   0  0  0  0  0  0  0  0  0  0  0  0
    3.2934   -2.3666   -0.0371 H   0  0  0  0  0  0  0  0  0  0  0  0
    3.4653   -0.4918   -1.7346 H   0  0  0  0  0  0  0  0  0  0  0  0
    4.9092   -1.2602   -0.0123 H   0  0  0  0  0  0  0  0  0  0  0  0
    4.9402    2.2677    1.5388 H   0  0  0  0  0  0  0  0  0  0  0  0
    6.0366    3.0388    0.3743 H   0  0  0  0  0  0  0  0  0  0  0  0
    6.6703    1.8216    1.4970 H   0  0  0  0  0  0  0  0  0  0  0  0
    6.9039   -0.6605   -1.0701 H   0  0  0  0  0  0  0  0  0  0  0  0
    6.2911    1.9086   -2.1023 H   0  0  0  0  0  0  0  0  0  0  0  0
    3.2377    1.7611   -0.4796 H   0  0  0  0  0  0  0  0  0  0  0  0
    1.8890    1.0879   -1.4160 H   0  0  0  0  0  0  0  0  0  0  0  0
    1.2466    1.9907    0.8833 H   0  0  0  0  0  0  0  0  0  0  0  0
    2.4999    0.9873    1.5678 H   0  0  0  0  0  0  0  0  0  0  0  0
    0.5094   -0.1311    2.0947 H   0  0  0  0  0  0  0  0  0  0  0  0
   -0.6982   -1.3826    0.6663 H   0  0  0  0  0  0  0  0  0  0  0  0
   -0.5721    1.0557   -1.0940 H   0  0  0  0  0  0  0  0  0  0  0  0
   -2.6259    0.1782    0.9736 H   0  0  0  0  0  0  0  0  0  0  0  0
   -0.8770    1.5415    1.9051 H   0  0  0  0  0  0  0  0  0  0  0  0
   -1.0021    2.7349    0.5364 H   0  0  0  0  0  0  0  0  0  0  0  0
   -2.2112    3.5542    2.4121 H   0  0  0  0  0  0  0  0  0  0  0  0
   -3.0262    2.0121    2.7262 H   0  0  0  0  0  0  0  0  0  0  0  0
   -3.5300    3.9589    0.3977 H   0  0  0  0  0  0  0  0  0  0  0  0
   -4.6061    3.4084    1.7361 H   0  0  0  0  0  0  0  0  0  0  0  0
   -4.6750    1.1729    0.7893 H   0  0  0  0  0  0  0  0  0  0  0  0
   -5.0160    2.4131   -0.5252 H   0  0  0  0  0  0  0  0  0  0  0  0
   -2.5686    2.5523   -0.9115 H   0  0  0  0  0  0  0  0  0  0  0  0
   -4.4077    1.0905   -2.0831 H   0  0  0  0  0  0  0  0  0  0  0  0
   -3.1933   -0.6599   -3.0970 H   0  0  0  0  0  0  0  0  0  0  0  0
   -5.0752   -1.0235   -1.8721 H   0  0  0  0  0  0  0  0  0  0  0  0
   -4.3221   -0.9486   -0.2773 H   0  0  0  0  0  0  0  0  0  0  0  0
   -4.6412   -3.3157   -1.0616 H   0  0  0  0  0  0  0  0  0  0  0  0
   -3.7024   -2.8902   -2.5334 H   0  0  0  0  0  0  0  0  0  0  0  0
   -2.7074   -2.6159    0.3398 H   0  0  0  0  0  0  0  0  0  0  0  0
   -2.3380   -3.9949   -0.7392 H   0  0  0  0  0  0  0  0  0  0  0  0
   -1.3599   -2.7319   -2.4160 H   0  0  0  0  0  0  0  0  0  0  0  0
   -0.4780   -2.4385   -0.9351 H   0  0  0  0  0  0  0  0  0  0  0  0
   -1.0365   -0.4974   -2.5341 H   0  0  0  0  0  0  0  0  0  0  0  0
  1  2  1  0
  2  3  1  0
  3  4  1  0
  4  5  1  0
  5  6  1  0
  6  7  1  0
  7  8  1  0
  7  9  1  0
  7 10  1  0
  5 11  1  0
 11 12  1  0
  3 13  1  0
 12 13  1  0
 13 14  1  0
 14 15  1  0
 15 16  1  0
 16 17  1  0
 17 18  1  0
 18 19  1  0
 19 20  1  0
 16 21  1  0
 20 21  1  0
 21 22  1  0
 22 23  1  0
 23 24  1  0
 24 25  1  0
 25 26  1  0
 26 27  1  0
 15 28  1  0
 23 28  1  0
 27 28  1  0
 29 30  1  0
 30 31  1  0
 31 32  1  0
 32 33  1  0
 33 34  1  0
 34 35  1  0
 35 36  1  0
 35 37  1  0
 35 38  1  0
 33 39  1  0
 39 40  1  0
 31 41  1  0
 40 41  1  0
 41 42  1  0
 42 43  1  0
 43 44  1  0
 44 45  1  0
 45 46  1  0
 46 47  1  0
 47 48  1  0
 44 49  1  0
 48 49  1  0
 49 50  1  0
 50 51  1  0
 51 52  1  0
 52 53  1  0
 53 54  1  0
 54 55  1  0
 43 56  1  0
 51 56  1  0
 55 56  1  0
  1 57  1  0
  1 58  1  0
  1 59  1  0
  3 60  1  0
  4 61  1  0
  4 62  1  0
  5 63  1  0
  6 64  1  0
  8 65  1  0
  8 66  1  0
  8 67  1  0
  9 68  1  0
 10 69  1  0
 11 70  1  0
 11 71  1  0
 12 72  1  0
 12 73  1  0
 13 74  1  0
 14 75  1  0
 15 76  1  0
 16 77  1  0
 17 78  1  0
 17 79  1  0
 18 80  1  0
 18 81  1  0
 19 82  1  0
 19 83  1  0
 20 84  1  0
 20 85  1  0
 21 86  1  0
 22 87  1  0
 23 88  1  0
 24 89  1  0
 24 90  1  0
 25 91  1  0
 25 92  1  0
 26 93  1  0
 26 94  1  0
 27 95  1  0
 27 96  1  0
 28 97  1  0
 29 98  1  0
 29 99  1  0
 29100  1  0
 31101  1  0
 32102  1  0
 32103  1  0
 33104  1  0
 34105  1  0
 36106  1  0
 36107  1  0
 36108  1  0
 37109  1  0
 38110  1  0
 39111  1  0
 39112  1  0
 40113  1  0
 40114  1  0
 41115  1  0
 42116  1  0
 43117  1  0
 44118  1  0
 45119  1  0
 45120  1  0
 46121  1  0
 46122  1  0
 47123  1  0
 47124  1  0
 48125  1  0
 48126  1  0
 49127  1  0
 50128  1  0
 51129  1  0
 52130  1  0
 52131  1  0
 53132  1  0
 53133  1  0
 54134  1  0
 54135  1  0
 55136  1  0
 55137  1  0
 56138  1  0
M  END
>  <PDBID>  (1) 
4G0U

>  <PDB ID>  (1) 
4G0U

>  <Generic Name>  (1) 
Amsacrine

>  <Brand Name>  (1) 
Amsa Pd Inj 50mg/ml#AMSA P-D#Amekrin#Amsidine#Amsidyl

>  <DrugBank ID>  (1) 
DB00276

>  <ATC Codes>  (1) 
L01XX01

>  <Ligand ID>  (1) 
ASW

>  <Target Name>  (1) 
DNA topoisomerase 2-alpha

>  <UniProt ID>  (1) 
P11388

>  <PDB ID.1>  (1) 
4G0U

>  <Seq. Identity>  (1) 
78%

$$$$
