PDB_DB06147_05
     RDKit          3D

 37 38  0  0  0  0  0  0  0  0999 V2000
   -0.3047   -1.4114    2.3878 O   0  0  0  0  0  0  0  0  0  0  0  0
   -0.4361   -0.3521    0.8513 S   0  0  0  0  0  0  0  0  0  0  0  0
   -0.9430    1.1077    1.6994 O   0  0  0  0  0  0  0  0  0  0  0  0
    1.1172   -0.0699    0.4740 C   0  0  0  0  0  0  0  0  0  0  0  0
    1.2527    0.8361   -0.7315 C   0  0  0  0  0  0  0  0  0  0  0  0
    2.6950    1.1141   -1.0799 C   0  0  0  0  0  0  0  0  0  0  0  0
    1.9718   -1.2917    0.1774 C   0  0  0  0  0  0  0  0  0  0  0  0
    3.4358   -0.9026    0.2229 C   0  0  0  0  0  0  0  0  0  0  0  0
    3.6568    0.5563   -0.0611 C   0  0  0  0  0  0  0  0  0  0  0  0
    4.9946    0.6999   -0.6038 N   0  0  0  0  0  0  0  0  0  0  0  0
   -1.5080   -0.8984    0.0900 N   0  0  0  0  0  0  0  0  0  0  0  0
   -2.8819   -0.6323    0.3972 C   0  0  0  0  0  0  0  0  0  0  0  0
   -3.2418    1.1696    0.3051 S   0  0  0  0  0  0  0  0  0  0  0  0
   -4.8552    1.0223   -0.5706 C   0  0  0  0  0  0  0  0  0  0  0  0
   -5.0461   -0.4953   -0.4293 C   0  0  0  0  0  0  0  0  0  0  0  0
   -3.7703   -1.0950   -0.6817 N   0  0  0  0  0  0  0  0  0  0  0  0
   -0.2950   -2.2855    1.8928 H   0  0  0  0  0  0  0  0  0  0  0  0
   -0.8003    1.7891    0.9874 H   0  0  0  0  0  0  0  0  0  0  0  0
    1.6687    0.4679    1.3050 H   0  0  0  0  0  0  0  0  0  0  0  0
    0.7766    0.3628   -1.6362 H   0  0  0  0  0  0  0  0  0  0  0  0
    0.6712    1.7676   -0.5366 H   0  0  0  0  0  0  0  0  0  0  0  0
    2.9840    0.7547   -2.0734 H   0  0  0  0  0  0  0  0  0  0  0  0
    2.8185    2.2182   -1.0724 H   0  0  0  0  0  0  0  0  0  0  0  0
    1.7647   -2.0207    0.9732 H   0  0  0  0  0  0  0  0  0  0  0  0
    1.7412   -1.7116   -0.8347 H   0  0  0  0  0  0  0  0  0  0  0  0
    4.0583   -1.5588   -0.4205 H   0  0  0  0  0  0  0  0  0  0  0  0
    3.7927   -1.0795    1.2748 H   0  0  0  0  0  0  0  0  0  0  0  0
    3.6091    1.1824    0.8529 H   0  0  0  0  0  0  0  0  0  0  0  0
    5.0144    1.4675   -1.3080 H   0  0  0  0  0  0  0  0  0  0  0  0
    5.6659    0.9641    0.1681 H   0  0  0  0  0  0  0  0  0  0  0  0
   -1.4787   -1.4026   -0.8201 H   0  0  0  0  0  0  0  0  0  0  0  0
   -3.2071   -0.9701    1.3785 H   0  0  0  0  0  0  0  0  0  0  0  0
   -5.6427    1.5448   -0.0003 H   0  0  0  0  0  0  0  0  0  0  0  0
   -4.7638    1.3278   -1.6143 H   0  0  0  0  0  0  0  0  0  0  0  0
   -5.3891   -0.6808    0.6216 H   0  0  0  0  0  0  0  0  0  0  0  0
   -5.7558   -0.8332   -1.1785 H   0  0  0  0  0  0  0  0  0  0  0  0
   -3.3696   -0.6614   -1.5552 H   0  0  0  0  0  0  0  0  0  0  0  0
  2  1  1  0
  2  3  1  0
  2  4  1  0
  4  5  1  0
  5  6  1  0
  4  7  1  0
  7  8  1  0
  6  9  1  0
  8  9  1  0
  9 10  1  0
  2 11  1  0
 11 12  1  0
 12 13  1  0
 13 14  1  0
 14 15  1  0
 12 16  1  0
 15 16  1  0
  1 17  1  0
  3 18  1  0
  4 19  1  0
  5 20  1  0
  5 21  1  0
  6 22  1  0
  6 23  1  0
  7 24  1  0
  7 25  1  0
  8 26  1  0
  8 27  1  0
  9 28  1  0
 10 29  1  0
 10 30  1  0
 11 31  1  0
 12 32  1  0
 14 33  1  0
 14 34  1  0
 15 35  1  0
 15 36  1  0
 16 37  1  0
M  END
>  <PDBID>  (1) 
3TYE

>  <PDB ID>  (1) 
3TYE

>  <Generic Name>  (1) 
Sulfathiazole

>  <Brand Name>  (1) 
Norsulfazolum#Sulfatiazol

>  <DrugBank ID>  (1) 
DB06147

>  <ATC Codes>  (1) 
J01EB07#D06BA02

>  <Ligand ID>  (1) 
YTZ

>  <Target Name>  (1) 
Dihydropteroate synthetase

>  <UniProt ID>  (1) 
Q27738

>  <PDB ID.1>  (1) 
3TYE

>  <Seq. Identity>  (1) 
35%

$$$$
