PDB_DB01104_05
     RDKit          3D

 49 51  0  0  0  0  0  0  0  0999 V2000
    5.6419   -0.9297    1.7420 Cl  0  0  0  0  0  0  0  0  0  0  0  0
    4.7019    0.0824    0.5830 C   0  0  0  0  0  0  0  0  0  0  0  0
    3.7186    0.8572    1.4180 C   0  0  0  0  0  0  0  0  0  0  0  0
    3.5429    2.4658    0.6726 Cl  0  0  0  0  0  0  0  0  0  0  0  0
    4.0451   -0.8482   -0.3669 C   0  0  0  0  0  0  0  0  0  0  0  0
    2.7586   -0.4133   -0.9655 C   0  0  0  0  0  0  0  0  0  0  0  0
    1.8427    0.3795   -0.0119 C   0  0  0  0  0  0  0  0  0  0  0  0
    2.3957    0.0752    1.3180 C   0  0  0  0  0  0  0  0  0  0  0  0
    0.4551   -0.0461   -0.3147 C   0  0  1  0  0  0  0  0  0  0  0  0
   -0.6656    0.6110    0.3802 C   0  0  0  0  0  0  0  0  0  0  0  0
   -0.6579    0.7810    1.8420 C   0  0  0  0  0  0  0  0  0  0  0  0
   -2.0800    1.2564    2.2279 C   0  0  0  0  0  0  0  0  0  0  0  0
   -2.9089    0.0197    2.3341 C   0  0  0  0  0  0  0  0  0  0  0  0
   -2.5570   -0.8537    1.1380 C   0  0  0  0  0  0  0  0  0  0  0  0
   -1.9727   -0.0516   -0.0054 C   0  0  0  0  0  0  0  0  0  0  0  0
   -1.8493   -0.9652   -1.1827 C   0  0  1  0  0  0  0  0  0  0  0  0
   -3.1032   -1.3577   -1.7460 N   0  0  0  0  0  0  0  0  0  0  0  0
   -3.9014   -0.3220   -2.3082 C   0  0  0  0  0  0  0  0  0  0  0  0
   -1.1191   -0.1495   -2.2629 C   0  0  0  0  0  0  0  0  0  0  0  0
    0.2204    0.2725   -1.7855 C   0  0  0  0  0  0  0  0  0  0  0  0
    5.4671    0.7553    0.1157 H   0  0  0  0  0  0  0  0  0  0  0  0
    4.0285    1.0046    2.4530 H   0  0  0  0  0  0  0  0  0  0  0  0
    4.7682   -0.9837   -1.2284 H   0  0  0  0  0  0  0  0  0  0  0  0
    3.9773   -1.8943    0.0578 H   0  0  0  0  0  0  0  0  0  0  0  0
    2.9961    0.2546   -1.8363 H   0  0  0  0  0  0  0  0  0  0  0  0
    2.2559   -1.3444   -1.3018 H   0  0  0  0  0  0  0  0  0  0  0  0
    1.9429    1.4570   -0.2414 H   0  0  0  0  0  0  0  0  0  0  0  0
    1.8551    0.2840    2.2123 H   0  0  0  0  0  0  0  0  0  0  0  0
    2.7001   -1.0119    1.3776 H   0  0  0  0  0  0  0  0  0  0  0  0
    0.4319   -1.1645   -0.1586 H   0  0  0  0  0  0  0  0  0  0  0  0
   -0.7189    1.6693   -0.0376 H   0  0  0  0  0  0  0  0  0  0  0  0
   -0.4888   -0.1016    2.4462 H   0  0  0  0  0  0  0  0  0  0  0  0
   -0.0483    1.6879    2.1365 H   0  0  0  0  0  0  0  0  0  0  0  0
   -2.4312    1.9318    1.4236 H   0  0  0  0  0  0  0  0  0  0  0  0
   -2.0487    1.8639    3.1538 H   0  0  0  0  0  0  0  0  0  0  0  0
   -2.6319   -0.4885    3.2819 H   0  0  0  0  0  0  0  0  0  0  0  0
   -3.9685    0.3157    2.3509 H   0  0  0  0  0  0  0  0  0  0  0  0
   -3.5427   -1.2403    0.7636 H   0  0  0  0  0  0  0  0  0  0  0  0
   -1.9657   -1.7198    1.4267 H   0  0  0  0  0  0  0  0  0  0  0  0
   -2.7293    0.7241   -0.2360 H   0  0  0  0  0  0  0  0  0  0  0  0
   -1.2920   -1.9023   -0.9468 H   0  0  0  0  0  0  0  0  0  0  0  0
   -2.9320   -2.0849   -2.4739 H   0  0  0  0  0  0  0  0  0  0  0  0
   -4.9092   -0.7799   -2.5330 H   0  0  0  0  0  0  0  0  0  0  0  0
   -3.5418    0.0391   -3.2948 H   0  0  0  0  0  0  0  0  0  0  0  0
   -4.1009    0.5491   -1.6956 H   0  0  0  0  0  0  0  0  0  0  0  0
   -1.7940    0.7443   -2.4150 H   0  0  0  0  0  0  0  0  0  0  0  0
   -1.0874   -0.7087   -3.2135 H   0  0  0  0  0  0  0  0  0  0  0  0
    0.2895    1.3920   -1.8508 H   0  0  0  0  0  0  0  0  0  0  0  0
    1.0107   -0.1115   -2.4421 H   0  0  0  0  0  0  0  0  0  0  0  0
  1  2  1  0
  2  3  1  0
  3  4  1  0
  2  5  1  0
  5  6  1  0
  6  7  1  0
  3  8  1  0
  7  8  1  0
  7  9  1  0
  9 10  1  0
 10 11  1  0
 11 12  1  0
 12 13  1  0
 13 14  1  0
 10 15  1  0
 14 15  1  0
 15 16  1  0
 16 17  1  0
 17 18  1  0
 16 19  1  0
  9 20  1  0
 19 20  1  0
  2 21  1  0
  3 22  1  0
  5 23  1  0
  5 24  1  0
  6 25  1  0
  6 26  1  0
  7 27  1  0
  8 28  1  0
  8 29  1  0
  9 30  1  6
 10 31  1  0
 11 32  1  0
 11 33  1  0
 12 34  1  0
 12 35  1  0
 13 36  1  0
 13 37  1  0
 14 38  1  0
 14 39  1  0
 15 40  1  0
 16 41  1  1
 17 42  1  0
 18 43  1  0
 18 44  1  0
 18 45  1  0
 19 46  1  0
 19 47  1  0
 20 48  1  0
 20 49  1  0
M  END
>  <PDBID>  (1) 
6AWO

>  <PDB ID>  (1) 
6AWO

>  <Generic Name>  (1) 
Sertraline

>  <Brand Name>  (1) 
Act Sertraline#Apo-sertraline#Auro-sertraline#Bio-sertraline#Dom-sertraline#Gd-sertraline#Ipg-sertraline#Jamp-sertraline#Mar-sertraline#Mint-sertraline#Mylan-sertraline#Nu-sertraline Capsules#PHL-sertraline#PMS-sertraline#Priva-sertraline#Q-sertraline#Ran-sertraline#Ratio-sertraline#Riva-sertraline#Sandoz Sertraline#Sertraline#Sertraline Hydrochloride#Sertraline Hydrochloride Tablets#Sertraline-100#Sertraline-25#Sertraline-50#Teva-sertraline#Van-sertraline#Zoloft#Zoloft Cap 100mg#Zoloft Cap 50mg#Lustral

>  <DrugBank ID>  (1) 
DB01104

>  <ATC Codes>  (1) 
N06AB06

>  <Ligand ID>  (1) 
SRE

>  <Target Name>  (1) 
Sodium-dependent serotonin transporter

>  <UniProt ID>  (1) 
P31645

>  <PDB ID.1>  (1) 
6AWO

>  <Seq. Identity>  (1) 
99%

$$$$
