PDB_DB00509_02
     RDKit          3D

 49 50  0  0  0  0  0  0  0  0999 V2000
   -1.9912   -0.5217   -0.1244 C   0  0  2  0  0  0  0  0  0  0  0  0
   -1.7049   -0.0419    1.2841 C   0  0  0  0  0  0  0  0  0  0  0  0
   -0.2261   -0.0381    1.5927 C   0  0  2  0  0  0  0  0  0  0  0  0
    0.5545    0.8822    0.6826 C   0  0  0  0  0  0  0  0  0  0  0  0
   -0.3869    1.2552   -0.4494 C   0  0  0  0  0  0  0  0  0  0  0  0
   -0.8484   -0.0731   -1.0325 C   0  0  0  0  0  0  0  0  0  0  0  0
   -3.2374    0.1243   -0.6920 C   0  0  0  0  0  0  0  0  0  0  0  0
   -4.4615   -0.1845    0.1389 C   0  0  1  0  0  0  0  0  0  0  0  0
   -5.6320    0.5248   -0.5450 C   0  0  0  0  0  0  0  0  0  0  0  0
    2.8426    0.7654    0.2667 C   0  0  0  0  0  0  0  0  0  0  0  0
    3.6635   -0.1002    1.2171 C   0  0  0  0  0  0  0  0  0  0  0  0
    4.1752   -1.3308    0.4905 C   0  0  0  0  0  0  0  0  0  0  0  0
    5.1939   -0.8409   -0.5153 C   0  0  0  0  0  0  0  0  0  0  0  0
    5.0324    0.6194   -0.7921 C   0  0  0  0  0  0  0  0  0  0  0  0
    3.5900    1.0549   -0.9670 C   0  0  0  0  0  0  0  0  0  0  0  0
   -4.7582   -1.6024    0.0741 N   0  0  0  0  0  0  0  0  0  0  0  0
    1.6014    0.2129    0.1516 O   0  0  0  0  0  0  0  0  0  0  0  0
    6.4560   -1.0576    0.0843 O   0  0  0  0  0  0  0  0  0  0  0  0
   -5.7731    0.1325   -1.8533 O   0  0  0  0  0  0  0  0  0  0  0  0
   -6.7762    0.2955    0.2184 O   0  0  0  0  0  0  0  0  0  0  0  0
    0.4351   -2.0564    1.4971 I   0  0  0  0  0  0  0  0  0  0  0  0
    5.0897   -2.5970    1.9514 I   0  0  0  0  0  0  0  0  0  0  0  0
    0.4738    2.5193   -1.8928 I   0  0  0  0  0  0  0  0  0  0  0  0
    6.0181    0.9909   -2.6739 I   0  0  0  0  0  0  0  0  0  0  0  0
   -2.0921   -1.6214   -0.1427 H   0  0  0  0  0  0  0  0  0  0  0  0
   -2.2179    0.9064    1.5361 H   0  0  0  0  0  0  0  0  0  0  0  0
   -2.1556   -0.8115    1.9635 H   0  0  0  0  0  0  0  0  0  0  0  0
   -0.1246    0.3814    2.6217 H   0  0  0  0  0  0  0  0  0  0  0  0
    0.8021    1.8425    1.1761 H   0  0  0  0  0  0  0  0  0  0  0  0
   -1.2778    1.8113   -0.0238 H   0  0  0  0  0  0  0  0  0  0  0  0
   -1.1997    0.0486   -2.0803 H   0  0  0  0  0  0  0  0  0  0  0  0
   -0.0800   -0.8598   -0.9757 H   0  0  0  0  0  0  0  0  0  0  0  0
   -3.0896    1.1951   -0.8386 H   0  0  0  0  0  0  0  0  0  0  0  0
   -3.4049   -0.3505   -1.6882 H   0  0  0  0  0  0  0  0  0  0  0  0
   -4.3782    0.1257    1.1815 H   0  0  0  0  0  0  0  0  0  0  0  0
   -5.4772    1.6363   -0.5470 H   0  0  0  0  0  0  0  0  0  0  0  0
    2.7099    1.7412    0.8238 H   0  0  0  0  0  0  0  0  0  0  0  0
    4.5981    0.4539    1.5334 H   0  0  0  0  0  0  0  0  0  0  0  0
    3.1475   -0.3255    2.1526 H   0  0  0  0  0  0  0  0  0  0  0  0
    3.3720   -1.9238    0.0205 H   0  0  0  0  0  0  0  0  0  0  0  0
    5.1936   -1.4669   -1.4263 H   0  0  0  0  0  0  0  0  0  0  0  0
    5.5672    1.2638   -0.0566 H   0  0  0  0  0  0  0  0  0  0  0  0
    3.2298    0.5438   -1.8790 H   0  0  0  0  0  0  0  0  0  0  0  0
    3.6534    2.1640   -1.1661 H   0  0  0  0  0  0  0  0  0  0  0  0
   -4.0491   -2.1039   -0.5233 H   0  0  0  0  0  0  0  0  0  0  0  0
   -4.7819   -2.0181    1.0346 H   0  0  0  0  0  0  0  0  0  0  0  0
    6.6300   -2.0350    0.1135 H   0  0  0  0  0  0  0  0  0  0  0  0
   -6.4837   -0.5437   -1.9823 H   0  0  0  0  0  0  0  0  0  0  0  0
   -7.4213    1.0134    0.0238 H   0  0  0  0  0  0  0  0  0  0  0  0
  1  2  1  0
  2  3  1  0
  3  4  1  0
  4  5  1  0
  1  6  1  0
  5  6  1  0
  1  7  1  0
  7  8  1  0
  8  9  1  0
 10 11  1  0
 11 12  1  0
 12 13  1  0
 13 14  1  0
 10 15  1  0
 14 15  1  0
  8 16  1  0
  4 17  1  0
 10 17  1  0
 13 18  1  0
  9 19  1  0
  9 20  1  0
  3 21  1  0
 12 22  1  0
  5 23  1  0
 14 24  1  0
  1 25  1  1
  2 26  1  0
  2 27  1  0
  3 28  1  1
  4 29  1  0
  5 30  1  0
  6 31  1  0
  6 32  1  0
  7 33  1  0
  7 34  1  0
  8 35  1  1
  9 36  1  0
 10 37  1  0
 11 38  1  0
 11 39  1  0
 12 40  1  0
 13 41  1  0
 14 42  1  0
 15 43  1  0
 15 44  1  0
 16 45  1  0
 16 46  1  0
 18 47  1  0
 19 48  1  0
 20 49  1  0
M  END
>  <PDBID>  (1) 
1Y0X

>  <PDB ID>  (1) 
1Y0X

>  <Generic Name>  (1) 
Dextrothyroxine

>  <Brand Name>  (1) 
Choloxin - Tab 4mg#Choloxin Tab 2mg#Choloxin Tablet 4mg#Choloxin#Dynothel#Eulipos#Lisolipin

>  <DrugBank ID>  (1) 
DB00509

>  <ATC Codes>  (1) 
C10AX01

>  <Ligand ID>  (1) 
T44

>  <Target Name>  (1) 
Thyroid hormone receptor beta

>  <UniProt ID>  (1) 
P10828

>  <PDB ID.1>  (1) 
1Y0X

>  <Seq. Identity>  (1) 
100%

$$$$
