PDB_DB06616_04
     RDKit          3D

170176  0  0  0  0  0  0  0  0999 V2000
    1.0638   -3.4292    0.1044 C   0  0  0  0  0  0  0  0  0  0  0  0
   -7.8317   -0.4819    1.1587 O   0  0  0  0  0  0  0  0  0  0  0  0
    5.6615    0.6729   -0.7530 C   0  0  0  0  0  0  0  0  0  0  0  0
   -2.8663    3.6767   -0.8511 N   0  0  0  0  0  0  0  0  0  0  0  0
   -8.4939    0.7539   -1.0458 Cl  0  0  0  0  0  0  0  0  0  0  0  0
   -5.4682   -2.6847   -1.9626 Cl  0  0  0  0  0  0  0  0  0  0  0  0
   -3.8805    2.9639   -0.0566 C   0  0  0  0  0  0  0  0  0  0  0  0
   -2.1910    2.5682    1.5917 C   0  0  0  0  0  0  0  0  0  0  0  0
   -6.1592   -0.1459   -1.9614 C   0  0  0  0  0  0  0  0  0  0  0  0
   -5.5795   -0.2677    0.5672 C   0  0  0  0  0  0  0  0  0  0  0  0
    0.9983    1.0944    0.8826 C   0  0  0  0  0  0  0  0  0  0  0  0
   -0.7475   -0.7009   -0.6945 C   0  0  0  0  0  0  0  0  0  0  0  0
    4.2141    0.9349   -0.4018 C   0  0  0  0  0  0  0  0  0  0  0  0
    3.3502    0.1031   -1.2994 C   0  0  0  0  0  0  0  0  0  0  0  0
    8.9420    0.7237    0.7074 C   0  0  0  0  0  0  0  0  0  0  0  0
    6.0096   -1.1588    0.7956 C   0  0  0  0  0  0  0  0  0  0  0  0
    7.1172   -1.1427   -1.3334 C   0  0  0  0  0  0  0  0  0  0  0  0
    7.2085   -0.7408    1.5641 C   0  0  0  0  0  0  0  0  0  0  0  0
    8.3609   -1.2965   -0.4939 C   0  0  0  0  0  0  0  0  0  0  0  0
   -0.8512    2.5302    1.1362 N   0  0  0  0  0  0  0  0  0  0  0  0
   -3.2207   -0.4319   -0.0037 N   0  0  0  0  0  0  0  0  0  0  0  0
    0.9983   -2.2648   -0.6567 O   0  0  0  0  0  0  0  0  0  0  0  0
    1.9966    0.2515   -1.0990 O   0  0  0  0  0  0  0  0  0  0  0  0
   -6.9077   -0.9988    0.2662 C   0  0  0  0  0  0  0  0  0  0  0  0
   -7.3443   -0.6072   -1.1353 C   0  0  0  0  0  0  0  0  0  0  0  0
   -4.9356   -1.0104   -1.6741 C   0  0  0  0  0  0  0  0  0  0  0  0
   -3.2021    1.8486    0.7230 C   0  0  0  0  0  0  0  0  0  0  0  0
   -4.4801   -0.8971   -0.2344 C   0  0  0  0  0  0  0  0  0  0  0  0
    0.4731   -1.1993    0.0589 C   0  0  0  0  0  0  0  0  0  0  0  0
    1.5288   -0.1148    0.1434 C   0  0  0  0  0  0  0  0  0  0  0  0
   -2.6806    0.8372   -0.2023 C   0  0  0  0  0  0  0  0  0  0  0  0
   -0.5054    1.0968    1.0304 C   0  0  0  0  0  0  0  0  0  0  0  0
   -1.1607    0.6688   -0.2547 C   0  0  0  0  0  0  0  0  0  0  0  0
    5.9834   -0.6964   -0.5633 N   0  0  0  0  0  0  0  0  0  0  0  0
    8.3334   -0.5637    0.7219 N   0  0  0  0  0  0  0  0  0  0  0  0
   -8.3829   -1.4681    1.9741 C   0  0  0  0  0  0  0  0  0  0  0  0
    1.0638   -3.4292    0.1044 C   0  0  0  0  0  0  0  0  0  0  0  0
   -7.8317   -0.4819    1.1587 O   0  0  0  0  0  0  0  0  0  0  0  0
    5.6615    0.6729   -0.7530 C   0  0  0  0  0  0  0  0  0  0  0  0
   -2.8663    3.6767   -0.8511 N   0  0  0  0  0  0  0  0  0  0  0  0
   -8.4939    0.7539   -1.0458 Cl  0  0  0  0  0  0  0  0  0  0  0  0
   -5.4682   -2.6847   -1.9626 Cl  0  0  0  0  0  0  0  0  0  0  0  0
   -3.8805    2.9639   -0.0566 C   0  0  0  0  0  0  0  0  0  0  0  0
   -2.1910    2.5682    1.5917 C   0  0  0  0  0  0  0  0  0  0  0  0
   -6.1592   -0.1459   -1.9614 C   0  0  0  0  0  0  0  0  0  0  0  0
   -5.5795   -0.2677    0.5672 C   0  0  0  0  0  0  0  0  0  0  0  0
    0.9983    1.0944    0.8826 C   0  0  0  0  0  0  0  0  0  0  0  0
   -0.7475   -0.7009   -0.6945 C   0  0  0  0  0  0  0  0  0  0  0  0
    4.2141    0.9349   -0.4018 C   0  0  0  0  0  0  0  0  0  0  0  0
    3.3502    0.1031   -1.2994 C   0  0  0  0  0  0  0  0  0  0  0  0
    8.9420    0.7237    0.7074 C   0  0  0  0  0  0  0  0  0  0  0  0
    6.0096   -1.1588    0.7956 C   0  0  0  0  0  0  0  0  0  0  0  0
    7.1172   -1.1427   -1.3334 C   0  0  0  0  0  0  0  0  0  0  0  0
    7.2085   -0.7408    1.5641 C   0  0  0  0  0  0  0  0  0  0  0  0
    8.3609   -1.2965   -0.4939 C   0  0  0  0  0  0  0  0  0  0  0  0
   -0.8512    2.5302    1.1362 N   0  0  0  0  0  0  0  0  0  0  0  0
   -3.2207   -0.4319   -0.0037 N   0  0  0  0  0  0  0  0  0  0  0  0
    0.9983   -2.2648   -0.6567 O   0  0  0  0  0  0  0  0  0  0  0  0
    1.9966    0.2515   -1.0990 O   0  0  0  0  0  0  0  0  0  0  0  0
   -6.9077   -0.9988    0.2662 C   0  0  0  0  0  0  0  0  0  0  0  0
   -7.3443   -0.6072   -1.1353 C   0  0  0  0  0  0  0  0  0  0  0  0
   -4.9356   -1.0104   -1.6741 C   0  0  0  0  0  0  0  0  0  0  0  0
   -3.2021    1.8486    0.7230 C   0  0  0  0  0  0  0  0  0  0  0  0
   -4.4801   -0.8971   -0.2344 C   0  0  0  0  0  0  0  0  0  0  0  0
    0.4731   -1.1993    0.0589 C   0  0  0  0  0  0  0  0  0  0  0  0
    1.5288   -0.1148    0.1434 C   0  0  0  0  0  0  0  0  0  0  0  0
   -2.6806    0.8372   -0.2023 C   0  0  0  0  0  0  0  0  0  0  0  0
   -0.5054    1.0968    1.0304 C   0  0  0  0  0  0  0  0  0  0  0  0
   -1.1607    0.6688   -0.2547 C   0  0  0  0  0  0  0  0  0  0  0  0
    5.9834   -0.6964   -0.5633 N   0  0  0  0  0  0  0  0  0  0  0  0
    8.3334   -0.5637    0.7219 N   0  0  0  0  0  0  0  0  0  0  0  0
   -8.3829   -1.4681    1.9741 C   0  0  0  0  0  0  0  0  0  0  0  0
    1.4910   -4.2272   -0.5341 H   0  0  0  0  0  0  0  0  0  0  0  0
    1.6667   -3.2802    1.0273 H   0  0  0  0  0  0  0  0  0  0  0  0
    0.0252   -3.6875    0.4039 H   0  0  0  0  0  0  0  0  0  0  0  0
    5.8555    0.9478   -1.8139 H   0  0  0  0  0  0  0  0  0  0  0  0
    6.2553    1.3736   -0.1268 H   0  0  0  0  0  0  0  0  0  0  0  0
   -2.8756    3.3932   -1.8340 H   0  0  0  0  0  0  0  0  0  0  0  0
   -2.9341    4.7019   -0.7443 H   0  0  0  0  0  0  0  0  0  0  0  0
   -4.2574    3.7077    0.6576 H   0  0  0  0  0  0  0  0  0  0  0  0
   -4.7170    2.6456   -0.6738 H   0  0  0  0  0  0  0  0  0  0  0  0
   -2.4792    3.6127    1.8162 H   0  0  0  0  0  0  0  0  0  0  0  0
   -2.1984    2.0426    2.5952 H   0  0  0  0  0  0  0  0  0  0  0  0
   -5.9967    0.9220   -1.7445 H   0  0  0  0  0  0  0  0  0  0  0  0
   -6.3568   -0.2478   -3.0502 H   0  0  0  0  0  0  0  0  0  0  0  0
   -5.7820    0.7604    0.2667 H   0  0  0  0  0  0  0  0  0  0  0  0
   -5.4284   -0.3489    1.6367 H   0  0  0  0  0  0  0  0  0  0  0  0
    1.3028    2.0130    0.3034 H   0  0  0  0  0  0  0  0  0  0  0  0
    1.4315    1.2115    1.8948 H   0  0  0  0  0  0  0  0  0  0  0  0
   -0.4696   -0.7034   -1.7919 H   0  0  0  0  0  0  0  0  0  0  0  0
   -1.5173   -1.4838   -0.6175 H   0  0  0  0  0  0  0  0  0  0  0  0
    3.9883    0.6656    0.6495 H   0  0  0  0  0  0  0  0  0  0  0  0
    3.9713    2.0327   -0.5358 H   0  0  0  0  0  0  0  0  0  0  0  0
    3.5856   -0.9787   -1.0739 H   0  0  0  0  0  0  0  0  0  0  0  0
    3.5646    0.3357   -2.3626 H   0  0  0  0  0  0  0  0  0  0  0  0
    9.9928    0.6141    1.0262 H   0  0  0  0  0  0  0  0  0  0  0  0
    8.4213    1.4793    1.3302 H   0  0  0  0  0  0  0  0  0  0  0  0
    8.9592    1.0887   -0.3566 H   0  0  0  0  0  0  0  0  0  0  0  0
    5.0856   -0.8985    1.2941 H   0  0  0  0  0  0  0  0  0  0  0  0
    6.0378   -2.2865    0.7272 H   0  0  0  0  0  0  0  0  0  0  0  0
    7.3247   -0.3773   -2.1058 H   0  0  0  0  0  0  0  0  0  0  0  0
    6.8314   -2.0713   -1.8653 H   0  0  0  0  0  0  0  0  0  0  0  0
    7.4424   -1.3959    2.4269 H   0  0  0  0  0  0  0  0  0  0  0  0
    6.9737    0.2666    2.0206 H   0  0  0  0  0  0  0  0  0  0  0  0
    8.4775   -2.3741   -0.2612 H   0  0  0  0  0  0  0  0  0  0  0  0
    9.2849   -1.0140   -1.0565 H   0  0  0  0  0  0  0  0  0  0  0  0
   -0.8112    2.9563    0.1699 H   0  0  0  0  0  0  0  0  0  0  0  0
   -2.7654   -0.9254    0.8350 H   0  0  0  0  0  0  0  0  0  0  0  0
   -6.8343   -2.0792    0.4269 H   0  0  0  0  0  0  0  0  0  0  0  0
   -7.8789   -1.4542   -1.6046 H   0  0  0  0  0  0  0  0  0  0  0  0
   -4.1450   -0.8193   -2.3985 H   0  0  0  0  0  0  0  0  0  0  0  0
   -3.9909    1.4493    1.4279 H   0  0  0  0  0  0  0  0  0  0  0  0
   -4.4876   -1.9864    0.1478 H   0  0  0  0  0  0  0  0  0  0  0  0
    0.2362   -1.5518    1.0746 H   0  0  0  0  0  0  0  0  0  0  0  0
    2.3656   -0.5030    0.7429 H   0  0  0  0  0  0  0  0  0  0  0  0
   -2.9043    1.2400   -1.2481 H   0  0  0  0  0  0  0  0  0  0  0  0
   -0.8660    0.5782    1.9242 H   0  0  0  0  0  0  0  0  0  0  0  0
   -0.7154    1.3711   -1.0324 H   0  0  0  0  0  0  0  0  0  0  0  0
   -8.8785   -2.1907    1.3132 H   0  0  0  0  0  0  0  0  0  0  0  0
   -7.5823   -1.9849    2.5762 H   0  0  0  0  0  0  0  0  0  0  0  0
   -9.0494   -0.9628    2.6991 H   0  0  0  0  0  0  0  0  0  0  0  0
    1.4910   -4.2272   -0.5341 H   0  0  0  0  0  0  0  0  0  0  0  0
    1.6667   -3.2802    1.0273 H   0  0  0  0  0  0  0  0  0  0  0  0
    0.0252   -3.6875    0.4039 H   0  0  0  0  0  0  0  0  0  0  0  0
    5.8555    0.9478   -1.8139 H   0  0  0  0  0  0  0  0  0  0  0  0
    6.2553    1.3736   -0.1268 H   0  0  0  0  0  0  0  0  0  0  0  0
   -2.8756    3.3932   -1.8340 H   0  0  0  0  0  0  0  0  0  0  0  0
   -2.9341    4.7019   -0.7443 H   0  0  0  0  0  0  0  0  0  0  0  0
   -4.2574    3.7077    0.6576 H   0  0  0  0  0  0  0  0  0  0  0  0
   -4.7170    2.6456   -0.6738 H   0  0  0  0  0  0  0  0  0  0  0  0
   -2.4792    3.6127    1.8162 H   0  0  0  0  0  0  0  0  0  0  0  0
   -2.1984    2.0426    2.5952 H   0  0  0  0  0  0  0  0  0  0  0  0
   -5.9967    0.9220   -1.7445 H   0  0  0  0  0  0  0  0  0  0  0  0
   -6.3568   -0.2478   -3.0502 H   0  0  0  0  0  0  0  0  0  0  0  0
   -5.7820    0.7604    0.2667 H   0  0  0  0  0  0  0  0  0  0  0  0
   -5.4284   -0.3489    1.6367 H   0  0  0  0  0  0  0  0  0  0  0  0
    1.3028    2.0130    0.3034 H   0  0  0  0  0  0  0  0  0  0  0  0
    1.4315    1.2115    1.8948 H   0  0  0  0  0  0  0  0  0  0  0  0
   -0.4696   -0.7034   -1.7919 H   0  0  0  0  0  0  0  0  0  0  0  0
   -1.5173   -1.4838   -0.6175 H   0  0  0  0  0  0  0  0  0  0  0  0
    3.9883    0.6656    0.6495 H   0  0  0  0  0  0  0  0  0  0  0  0
    3.9713    2.0327   -0.5358 H   0  0  0  0  0  0  0  0  0  0  0  0
    3.5856   -0.9787   -1.0739 H   0  0  0  0  0  0  0  0  0  0  0  0
    3.5646    0.3357   -2.3626 H   0  0  0  0  0  0  0  0  0  0  0  0
    9.9928    0.6141    1.0262 H   0  0  0  0  0  0  0  0  0  0  0  0
    8.4213    1.4793    1.3302 H   0  0  0  0  0  0  0  0  0  0  0  0
    8.9592    1.0887   -0.3566 H   0  0  0  0  0  0  0  0  0  0  0  0
    5.0856   -0.8985    1.2941 H   0  0  0  0  0  0  0  0  0  0  0  0
    6.0378   -2.2865    0.7272 H   0  0  0  0  0  0  0  0  0  0  0  0
    7.3247   -0.3773   -2.1058 H   0  0  0  0  0  0  0  0  0  0  0  0
    6.8314   -2.0713   -1.8653 H   0  0  0  0  0  0  0  0  0  0  0  0
    7.4424   -1.3959    2.4269 H   0  0  0  0  0  0  0  0  0  0  0  0
    6.9737    0.2666    2.0206 H   0  0  0  0  0  0  0  0  0  0  0  0
    8.4775   -2.3741   -0.2612 H   0  0  0  0  0  0  0  0  0  0  0  0
    9.2849   -1.0140   -1.0565 H   0  0  0  0  0  0  0  0  0  0  0  0
   -0.8112    2.9563    0.1699 H   0  0  0  0  0  0  0  0  0  0  0  0
   -2.7654   -0.9254    0.8350 H   0  0  0  0  0  0  0  0  0  0  0  0
   -6.8343   -2.0792    0.4269 H   0  0  0  0  0  0  0  0  0  0  0  0
   -7.8789   -1.4542   -1.6046 H   0  0  0  0  0  0  0  0  0  0  0  0
   -4.1450   -0.8193   -2.3985 H   0  0  0  0  0  0  0  0  0  0  0  0
   -3.9909    1.4493    1.4279 H   0  0  0  0  0  0  0  0  0  0  0  0
   -4.4876   -1.9864    0.1478 H   0  0  0  0  0  0  0  0  0  0  0  0
    0.2362   -1.5518    1.0746 H   0  0  0  0  0  0  0  0  0  0  0  0
    2.3656   -0.5030    0.7429 H   0  0  0  0  0  0  0  0  0  0  0  0
   -2.9043    1.2400   -1.2481 H   0  0  0  0  0  0  0  0  0  0  0  0
   -0.8660    0.5782    1.9242 H   0  0  0  0  0  0  0  0  0  0  0  0
   -0.7154    1.3711   -1.0324 H   0  0  0  0  0  0  0  0  0  0  0  0
   -8.8785   -2.1907    1.3132 H   0  0  0  0  0  0  0  0  0  0  0  0
   -7.5823   -1.9849    2.5762 H   0  0  0  0  0  0  0  0  0  0  0  0
   -9.0494   -0.9628    2.6991 H   0  0  0  0  0  0  0  0  0  0  0  0
  4  7  1  0
  3 13  1  0
 13 14  1  0
 16 18  1  0
 17 19  1  0
  8 20  1  0
  1 22  1  0
 14 23  1  0
  2 24  1  0
 10 24  1  0
  5 25  1  0
  9 25  1  0
 24 25  1  0
  6 26  1  0
  9 26  1  0
  7 27  1  0
  8 27  1  0
 10 28  1  0
 21 28  1  0
 26 28  1  0
 12 29  1  0
 22 29  1  0
 11 30  1  0
 23 30  1  0
 29 30  1  0
 21 31  1  0
 27 31  1  0
 11 32  1  0
 20 32  1  0
 12 33  1  0
 31 33  1  0
 32 33  1  0
  3 34  1  0
 16 34  1  0
 17 34  1  0
 15 35  1  0
 18 35  1  0
 19 35  1  0
  2 36  1  0
 40 43  1  0
 39 49  1  0
 49 50  1  0
 52 54  1  0
 53 55  1  0
 44 56  1  0
 37 58  1  0
 50 59  1  0
 38 60  1  0
 46 60  1  0
 41 61  1  0
 45 61  1  0
 60 61  1  0
 42 62  1  0
 45 62  1  0
 43 63  1  0
 44 63  1  0
 46 64  1  0
 57 64  1  0
 62 64  1  0
 48 65  1  0
 58 65  1  0
 47 66  1  0
 59 66  1  0
 65 66  1  0
 57 67  1  0
 63 67  1  0
 47 68  1  0
 56 68  1  0
 48 69  1  0
 67 69  1  0
 68 69  1  0
 39 70  1  0
 52 70  1  0
 53 70  1  0
 51 71  1  0
 54 71  1  0
 55 71  1  0
 38 72  1  0
  1 73  1  0
  1 74  1  0
  1 75  1  0
  3 76  1  0
  3 77  1  0
  4 78  1  0
  4 79  1  0
  7 80  1  0
  7 81  1  0
  8 82  1  0
  8 83  1  0
  9 84  1  0
  9 85  1  0
 10 86  1  0
 10 87  1  0
 11 88  1  0
 11 89  1  0
 12 90  1  0
 12 91  1  0
 13 92  1  0
 13 93  1  0
 14 94  1  0
 14 95  1  0
 15 96  1  0
 15 97  1  0
 15 98  1  0
 16 99  1  0
 16100  1  0
 17101  1  0
 17102  1  0
 18103  1  0
 18104  1  0
 19105  1  0
 19106  1  0
 20107  1  0
 21108  1  0
 24109  1  0
 25110  1  0
 26111  1  0
 27112  1  0
 28113  1  0
 29114  1  0
 30115  1  0
 31116  1  0
 32117  1  0
 33118  1  0
 36119  1  0
 36120  1  0
 36121  1  0
 37122  1  0
 37123  1  0
 37124  1  0
 39125  1  0
 39126  1  0
 40127  1  0
 40128  1  0
 43129  1  0
 43130  1  0
 44131  1  0
 44132  1  0
 45133  1  0
 45134  1  0
 46135  1  0
 46136  1  0
 47137  1  0
 47138  1  0
 48139  1  0
 48140  1  0
 49141  1  0
 49142  1  0
 50143  1  0
 50144  1  0
 51145  1  0
 51146  1  0
 51147  1  0
 52148  1  0
 52149  1  0
 53150  1  0
 53151  1  0
 54152  1  0
 54153  1  0
 55154  1  0
 55155  1  0
 56156  1  0
 57157  1  0
 60158  1  0
 61159  1  0
 62160  1  0
 63161  1  0
 64162  1  0
 65163  1  0
 66164  1  0
 67165  1  0
 68166  1  0
 69167  1  0
 72168  1  0
 72169  1  0
 72170  1  0
M  END
>  <PDBID>  (1) 
3UE4

>  <PDB ID>  (1) 
3UE4

>  <Generic Name>  (1) 
Bosutinib

>  <Brand Name>  (1) 
Bosulif

>  <DrugBank ID>  (1) 
DB06616

>  <ATC Codes>  (1) 
L01XE14

>  <Ligand ID>  (1) 
DB8

>  <Target Name>  (1) 
Tyrosine-protein kinase ABL1

>  <UniProt ID>  (1) 
P00519

>  <PDB ID.1>  (1) 
3UE4

>  <Seq. Identity>  (1) 
95%

$$$$
