PDB_DB06147_02
     RDKit          3D

 37 38  0  0  0  0  0  0  0  0999 V2000
    0.7480    1.1625    1.7497 O   0  0  0  0  0  0  0  0  0  0  0  0
    0.5832    0.0505    0.4837 S   0  0  0  0  0  0  0  0  0  0  0  0
    0.3868   -1.4542    1.5681 O   0  0  0  0  0  0  0  0  0  0  0  0
   -0.9951    0.2589   -0.0640 C   0  0  0  0  0  0  0  0  0  0  0  0
   -1.9699    0.0876    1.1092 C   0  0  0  0  0  0  0  0  0  0  0  0
   -3.3012    0.7076    0.7817 C   0  0  0  0  0  0  0  0  0  0  0  0
   -1.4458   -0.6594   -1.1517 C   0  0  0  0  0  0  0  0  0  0  0  0
   -2.9069   -0.9929   -1.0031 C   0  0  0  0  0  0  0  0  0  0  0  0
   -3.7307    0.2047   -0.5709 C   0  0  0  0  0  0  0  0  0  0  0  0
   -5.1054   -0.2793   -0.4211 N   0  0  0  0  0  0  0  0  0  0  0  0
    1.7362   -0.1739   -0.3373 N   0  0  0  0  0  0  0  0  0  0  0  0
    2.6859    0.8335   -0.7021 C   0  0  0  0  0  0  0  0  0  0  0  0
    3.4802    1.5644    0.7871 S   0  0  0  0  0  0  0  0  0  0  0  0
    5.1078    0.7250    0.5992 C   0  0  0  0  0  0  0  0  0  0  0  0
    4.6736   -0.3543   -0.4039 C   0  0  0  0  0  0  0  0  0  0  0  0
    3.8511    0.3162   -1.3837 N   0  0  0  0  0  0  0  0  0  0  0  0
    0.9117    2.0292    1.3148 H   0  0  0  0  0  0  0  0  0  0  0  0
    1.3119   -1.4549    1.9630 H   0  0  0  0  0  0  0  0  0  0  0  0
   -1.1385    1.3016   -0.4109 H   0  0  0  0  0  0  0  0  0  0  0  0
   -2.0536   -0.9637    1.4101 H   0  0  0  0  0  0  0  0  0  0  0  0
   -1.5101    0.6541    1.9521 H   0  0  0  0  0  0  0  0  0  0  0  0
   -3.1697    1.8036    0.8108 H   0  0  0  0  0  0  0  0  0  0  0  0
   -4.0055    0.4077    1.5899 H   0  0  0  0  0  0  0  0  0  0  0  0
   -1.3044   -0.2032   -2.1647 H   0  0  0  0  0  0  0  0  0  0  0  0
   -0.8772   -1.6137   -1.1781 H   0  0  0  0  0  0  0  0  0  0  0  0
   -3.3390   -1.3868   -1.9422 H   0  0  0  0  0  0  0  0  0  0  0  0
   -3.0861   -1.7841   -0.2323 H   0  0  0  0  0  0  0  0  0  0  0  0
   -3.7637    0.9967   -1.3438 H   0  0  0  0  0  0  0  0  0  0  0  0
   -5.0419   -1.2175    0.0519 H   0  0  0  0  0  0  0  0  0  0  0  0
   -5.6672    0.3249    0.2094 H   0  0  0  0  0  0  0  0  0  0  0  0
    2.1667   -1.1097   -0.5824 H   0  0  0  0  0  0  0  0  0  0  0  0
    2.2803    1.6531   -1.3030 H   0  0  0  0  0  0  0  0  0  0  0  0
    5.7967    1.4453    0.1601 H   0  0  0  0  0  0  0  0  0  0  0  0
    5.4203    0.2698    1.5408 H   0  0  0  0  0  0  0  0  0  0  0  0
    5.5255   -0.7906   -0.9231 H   0  0  0  0  0  0  0  0  0  0  0  0
    4.0950   -1.0842    0.1696 H   0  0  0  0  0  0  0  0  0  0  0  0
    3.6506   -0.3489   -2.1328 H   0  0  0  0  0  0  0  0  0  0  0  0
  2  1  1  0
  2  3  1  0
  2  4  1  0
  4  5  1  0
  5  6  1  0
  4  7  1  0
  7  8  1  0
  6  9  1  0
  8  9  1  0
  9 10  1  0
  2 11  1  0
 11 12  1  0
 12 13  1  0
 13 14  1  0
 14 15  1  0
 12 16  1  0
 15 16  1  0
  1 17  1  0
  3 18  1  0
  4 19  1  0
  5 20  1  0
  5 21  1  0
  6 22  1  0
  6 23  1  0
  7 24  1  0
  7 25  1  0
  8 26  1  0
  8 27  1  0
  9 28  1  0
 10 29  1  0
 10 30  1  0
 11 31  1  0
 12 32  1  0
 14 33  1  0
 14 34  1  0
 15 35  1  0
 15 36  1  0
 16 37  1  0
M  END
>  <PDBID>  (1) 
3TYE

>  <PDB ID>  (1) 
3TYE

>  <Generic Name>  (1) 
Sulfathiazole

>  <Brand Name>  (1) 
Norsulfazolum#Sulfatiazol

>  <DrugBank ID>  (1) 
DB06147

>  <ATC Codes>  (1) 
J01EB07#D06BA02

>  <Ligand ID>  (1) 
YTZ

>  <Target Name>  (1) 
Dihydropteroate synthetase

>  <UniProt ID>  (1) 
Q27738

>  <PDB ID.1>  (1) 
3TYE

>  <Seq. Identity>  (1) 
35%

$$$$
