PDB_DB00862_01
     RDKit          3D

164170  0  0  0  0  0  0  0  0999 V2000
   -2.2871   -5.3779   -0.4771 C   0  0  0  0  0  0  0  0  0  0  0  0
   -1.3770   -4.2345   -0.7811 C   0  0  0  0  0  0  0  0  0  0  0  0
   -1.2206   -3.3721    0.3190 O   0  0  0  0  0  0  0  0  0  0  0  0
   -0.3662   -2.3423   -0.0437 C   0  0  0  0  0  0  0  0  0  0  0  0
    0.9570   -2.6865    0.6710 C   0  0  0  0  0  0  0  0  0  0  0  0
    1.9802   -1.7490    0.0298 C   0  0  0  0  0  0  0  0  0  0  0  0
    1.6710   -0.3834    0.5846 C   0  0  0  0  0  0  0  0  0  0  0  0
    0.2631    0.0413    0.4590 C   0  0  0  0  0  0  0  0  0  0  0  0
   -0.7938   -1.0112    0.3992 C   0  0  0  0  0  0  0  0  0  0  0  0
    2.7084    0.7460   -0.1078 S   0  0  0  0  0  0  0  0  0  0  0  0
    2.1593    2.2795    1.0315 O   0  0  0  0  0  0  0  0  0  0  0  0
    1.8415    1.4117   -1.4889 O   0  0  0  0  0  0  0  0  0  0  0  0
    8.9656    0.5631    0.6247 C   0  0  0  0  0  0  0  0  0  0  0  0
    4.0504    0.8972   -0.1130 N   0  0  0  0  0  0  0  0  0  0  0  0
    4.7974    1.7585    0.8235 C   0  0  0  0  0  0  0  0  0  0  0  0
    5.8998    2.5101    0.1171 C   0  0  0  0  0  0  0  0  0  0  0  0
    6.9723    1.6106   -0.1923 N   0  0  0  0  0  0  0  0  0  0  0  0
    6.3595    0.3126   -0.4992 C   0  0  0  0  0  0  0  0  0  0  0  0
    5.0037    0.5400   -1.1401 C   0  0  0  0  0  0  0  0  0  0  0  0
    7.8372    1.5157    0.9682 C   0  0  0  0  0  0  0  0  0  0  0  0
   -1.9057   -0.4671   -0.4298 C   0  0  0  0  0  0  0  0  0  0  0  0
   -3.1416   -1.1328   -0.4070 N   0  0  0  0  0  0  0  0  0  0  0  0
   -4.0525   -0.7063   -1.4181 C   0  0  0  0  0  0  0  0  0  0  0  0
   -3.6415    0.6544   -1.8855 C   0  0  0  0  0  0  0  0  0  0  0  0
   -3.0996    1.4043   -0.8195 N   0  0  0  0  0  0  0  0  0  0  0  0
   -2.0049    0.9643   -0.1779 N   0  0  0  0  0  0  0  0  0  0  0  0
   -3.9983   -1.5761   -2.5054 O   0  0  0  0  0  0  0  0  0  0  0  0
   -4.7440    1.5255   -2.3731 C   0  0  0  0  0  0  0  0  0  0  0  0
   -4.8051    2.6630   -1.4740 N   0  0  0  0  0  0  0  0  0  0  0  0
   -4.0016    2.3056   -0.2950 C   0  0  0  0  0  0  0  0  0  0  0  0
   -6.0454    0.8579   -2.6068 C   0  0  0  0  0  0  0  0  0  0  0  0
   -4.9664    1.8618    0.7369 C   0  0  0  0  0  0  0  0  0  0  0  0
   -4.3852    1.3233    2.0009 C   0  0  0  0  0  0  0  0  0  0  0  0
   -5.5752    0.9394    2.8971 C   0  0  0  0  0  0  0  0  0  0  0  0
   -2.2871   -5.3779   -0.4771 C   0  0  0  0  0  0  0  0  0  0  0  0
   -1.3770   -4.2345   -0.7811 C   0  0  0  0  0  0  0  0  0  0  0  0
   -1.2206   -3.3721    0.3190 O   0  0  0  0  0  0  0  0  0  0  0  0
   -0.3662   -2.3423   -0.0437 C   0  0  0  0  0  0  0  0  0  0  0  0
    0.9570   -2.6865    0.6710 C   0  0  0  0  0  0  0  0  0  0  0  0
    1.9802   -1.7490    0.0298 C   0  0  0  0  0  0  0  0  0  0  0  0
    1.6710   -0.3834    0.5846 C   0  0  0  0  0  0  0  0  0  0  0  0
    0.2631    0.0413    0.4590 C   0  0  0  0  0  0  0  0  0  0  0  0
   -0.7938   -1.0112    0.3992 C   0  0  0  0  0  0  0  0  0  0  0  0
    2.7084    0.7460   -0.1078 S   0  0  0  0  0  0  0  0  0  0  0  0
    2.1593    2.2795    1.0315 O   0  0  0  0  0  0  0  0  0  0  0  0
    1.8415    1.4117   -1.4889 O   0  0  0  0  0  0  0  0  0  0  0  0
    8.9656    0.5631    0.6247 C   0  0  0  0  0  0  0  0  0  0  0  0
    4.0504    0.8972   -0.1130 N   0  0  0  0  0  0  0  0  0  0  0  0
    4.7974    1.7585    0.8235 C   0  0  0  0  0  0  0  0  0  0  0  0
    5.8998    2.5101    0.1171 C   0  0  0  0  0  0  0  0  0  0  0  0
    6.9723    1.6106   -0.1923 N   0  0  0  0  0  0  0  0  0  0  0  0
    6.3595    0.3126   -0.4992 C   0  0  0  0  0  0  0  0  0  0  0  0
    5.0037    0.5400   -1.1401 C   0  0  0  0  0  0  0  0  0  0  0  0
    7.8372    1.5157    0.9682 C   0  0  0  0  0  0  0  0  0  0  0  0
   -1.9057   -0.4671   -0.4298 C   0  0  0  0  0  0  0  0  0  0  0  0
   -3.1416   -1.1328   -0.4070 N   0  0  0  0  0  0  0  0  0  0  0  0
   -4.0525   -0.7063   -1.4181 C   0  0  0  0  0  0  0  0  0  0  0  0
   -3.6415    0.6544   -1.8855 C   0  0  0  0  0  0  0  0  0  0  0  0
   -3.0996    1.4043   -0.8195 N   0  0  0  0  0  0  0  0  0  0  0  0
   -2.0049    0.9643   -0.1779 N   0  0  0  0  0  0  0  0  0  0  0  0
   -3.9983   -1.5761   -2.5054 O   0  0  0  0  0  0  0  0  0  0  0  0
   -4.7440    1.5255   -2.3731 C   0  0  0  0  0  0  0  0  0  0  0  0
   -4.8051    2.6630   -1.4740 N   0  0  0  0  0  0  0  0  0  0  0  0
   -4.0016    2.3056   -0.2950 C   0  0  0  0  0  0  0  0  0  0  0  0
   -6.0454    0.8579   -2.6068 C   0  0  0  0  0  0  0  0  0  0  0  0
   -4.9664    1.8618    0.7369 C   0  0  0  0  0  0  0  0  0  0  0  0
   -4.3852    1.3233    2.0009 C   0  0  0  0  0  0  0  0  0  0  0  0
   -5.5752    0.9394    2.8971 C   0  0  0  0  0  0  0  0  0  0  0  0
   -1.9736   -6.3076   -1.0181 H   0  0  0  0  0  0  0  0  0  0  0  0
   -2.3734   -5.6322    0.5799 H   0  0  0  0  0  0  0  0  0  0  0  0
   -3.3356   -5.1814   -0.8452 H   0  0  0  0  0  0  0  0  0  0  0  0
   -1.8399   -3.6321   -1.5885 H   0  0  0  0  0  0  0  0  0  0  0  0
   -0.4035   -4.5892   -1.1655 H   0  0  0  0  0  0  0  0  0  0  0  0
   -0.0944   -2.4560   -1.1179 H   0  0  0  0  0  0  0  0  0  0  0  0
    0.9071   -2.4198    1.7446 H   0  0  0  0  0  0  0  0  0  0  0  0
    1.2655   -3.7142    0.4894 H   0  0  0  0  0  0  0  0  0  0  0  0
    2.9672   -2.0596    0.4810 H   0  0  0  0  0  0  0  0  0  0  0  0
    1.9778   -1.7974   -1.0576 H   0  0  0  0  0  0  0  0  0  0  0  0
    1.9091   -0.4725    1.6885 H   0  0  0  0  0  0  0  0  0  0  0  0
    0.0271    0.7084    1.3209 H   0  0  0  0  0  0  0  0  0  0  0  0
    0.1931    0.7245   -0.4395 H   0  0  0  0  0  0  0  0  0  0  0  0
   -1.2369   -1.1380    1.4387 H   0  0  0  0  0  0  0  0  0  0  0  0
    2.3191    1.7515    1.8450 H   0  0  0  0  0  0  0  0  0  0  0  0
    2.2029    2.3471   -1.5204 H   0  0  0  0  0  0  0  0  0  0  0  0
    9.8344    0.8338    1.2499 H   0  0  0  0  0  0  0  0  0  0  0  0
    9.1715    0.6897   -0.4630 H   0  0  0  0  0  0  0  0  0  0  0  0
    8.5860   -0.4620    0.8072 H   0  0  0  0  0  0  0  0  0  0  0  0
    5.1474    1.1927    1.6916 H   0  0  0  0  0  0  0  0  0  0  0  0
    4.0837    2.5227    1.1901 H   0  0  0  0  0  0  0  0  0  0  0  0
    6.2782    3.2677    0.8142 H   0  0  0  0  0  0  0  0  0  0  0  0
    5.4623    3.0158   -0.7601 H   0  0  0  0  0  0  0  0  0  0  0  0
    7.0456   -0.2343   -1.1908 H   0  0  0  0  0  0  0  0  0  0  0  0
    6.2304   -0.2659    0.4189 H   0  0  0  0  0  0  0  0  0  0  0  0
    4.7324   -0.3743   -1.6914 H   0  0  0  0  0  0  0  0  0  0  0  0
    5.1038    1.3487   -1.9013 H   0  0  0  0  0  0  0  0  0  0  0  0
    7.3236    1.1036    1.8512 H   0  0  0  0  0  0  0  0  0  0  0  0
    8.1856    2.5171    1.2205 H   0  0  0  0  0  0  0  0  0  0  0  0
   -1.5236   -0.5136   -1.5046 H   0  0  0  0  0  0  0  0  0  0  0  0
   -3.1190   -2.1145   -0.2378 H   0  0  0  0  0  0  0  0  0  0  0  0
   -5.0740   -0.7494   -0.9932 H   0  0  0  0  0  0  0  0  0  0  0  0
   -2.8527    0.5116   -2.6589 H   0  0  0  0  0  0  0  0  0  0  0  0
   -1.8675    1.2191    0.7972 H   0  0  0  0  0  0  0  0  0  0  0  0
   -4.6861   -2.2887   -2.4450 H   0  0  0  0  0  0  0  0  0  0  0  0
   -4.4194    1.9629   -3.3649 H   0  0  0  0  0  0  0  0  0  0  0  0
   -5.7658    2.9212   -1.2045 H   0  0  0  0  0  0  0  0  0  0  0  0
   -3.5459    3.2642    0.0579 H   0  0  0  0  0  0  0  0  0  0  0  0
   -6.5481    1.2379   -3.5450 H   0  0  0  0  0  0  0  0  0  0  0  0
   -6.7448    1.1293   -1.7894 H   0  0  0  0  0  0  0  0  0  0  0  0
   -6.0055   -0.2357   -2.7310 H   0  0  0  0  0  0  0  0  0  0  0  0
   -5.7196    1.1315    0.3772 H   0  0  0  0  0  0  0  0  0  0  0  0
   -5.5737    2.7707    1.0297 H   0  0  0  0  0  0  0  0  0  0  0  0
   -3.8005    2.0613    2.5854 H   0  0  0  0  0  0  0  0  0  0  0  0
   -3.8388    0.3619    1.8524 H   0  0  0  0  0  0  0  0  0  0  0  0
   -6.1880    0.2397    2.2579 H   0  0  0  0  0  0  0  0  0  0  0  0
   -5.2562    0.3617    3.7718 H   0  0  0  0  0  0  0  0  0  0  0  0
   -6.2220    1.7953    3.1064 H   0  0  0  0  0  0  0  0  0  0  0  0
   -1.9736   -6.3076   -1.0181 H   0  0  0  0  0  0  0  0  0  0  0  0
   -2.3734   -5.6322    0.5799 H   0  0  0  0  0  0  0  0  0  0  0  0
   -3.3356   -5.1814   -0.8452 H   0  0  0  0  0  0  0  0  0  0  0  0
   -1.8399   -3.6321   -1.5885 H   0  0  0  0  0  0  0  0  0  0  0  0
   -0.4035   -4.5892   -1.1655 H   0  0  0  0  0  0  0  0  0  0  0  0
   -0.0944   -2.4560   -1.1179 H   0  0  0  0  0  0  0  0  0  0  0  0
    0.9071   -2.4198    1.7446 H   0  0  0  0  0  0  0  0  0  0  0  0
    1.2655   -3.7142    0.4894 H   0  0  0  0  0  0  0  0  0  0  0  0
    2.9672   -2.0596    0.4810 H   0  0  0  0  0  0  0  0  0  0  0  0
    1.9778   -1.7974   -1.0576 H   0  0  0  0  0  0  0  0  0  0  0  0
    1.9091   -0.4725    1.6885 H   0  0  0  0  0  0  0  0  0  0  0  0
    0.0271    0.7084    1.3209 H   0  0  0  0  0  0  0  0  0  0  0  0
    0.1931    0.7245   -0.4395 H   0  0  0  0  0  0  0  0  0  0  0  0
   -1.2369   -1.1380    1.4387 H   0  0  0  0  0  0  0  0  0  0  0  0
    2.3191    1.7515    1.8450 H   0  0  0  0  0  0  0  0  0  0  0  0
    2.2029    2.3471   -1.5204 H   0  0  0  0  0  0  0  0  0  0  0  0
    9.8344    0.8338    1.2499 H   0  0  0  0  0  0  0  0  0  0  0  0
    9.1715    0.6897   -0.4630 H   0  0  0  0  0  0  0  0  0  0  0  0
    8.5860   -0.4620    0.8072 H   0  0  0  0  0  0  0  0  0  0  0  0
    5.1474    1.1927    1.6916 H   0  0  0  0  0  0  0  0  0  0  0  0
    4.0837    2.5227    1.1901 H   0  0  0  0  0  0  0  0  0  0  0  0
    6.2782    3.2677    0.8142 H   0  0  0  0  0  0  0  0  0  0  0  0
    5.4623    3.0158   -0.7601 H   0  0  0  0  0  0  0  0  0  0  0  0
    7.0456   -0.2343   -1.1908 H   0  0  0  0  0  0  0  0  0  0  0  0
    6.2304   -0.2659    0.4189 H   0  0  0  0  0  0  0  0  0  0  0  0
    4.7324   -0.3743   -1.6914 H   0  0  0  0  0  0  0  0  0  0  0  0
    5.1038    1.3487   -1.9013 H   0  0  0  0  0  0  0  0  0  0  0  0
    7.3236    1.1036    1.8512 H   0  0  0  0  0  0  0  0  0  0  0  0
    8.1856    2.5171    1.2205 H   0  0  0  0  0  0  0  0  0  0  0  0
   -1.5236   -0.5136   -1.5046 H   0  0  0  0  0  0  0  0  0  0  0  0
   -3.1190   -2.1145   -0.2378 H   0  0  0  0  0  0  0  0  0  0  0  0
   -5.0740   -0.7494   -0.9932 H   0  0  0  0  0  0  0  0  0  0  0  0
   -2.8527    0.5116   -2.6589 H   0  0  0  0  0  0  0  0  0  0  0  0
   -1.8675    1.2191    0.7972 H   0  0  0  0  0  0  0  0  0  0  0  0
   -4.6861   -2.2887   -2.4450 H   0  0  0  0  0  0  0  0  0  0  0  0
   -4.4194    1.9629   -3.3649 H   0  0  0  0  0  0  0  0  0  0  0  0
   -5.7658    2.9212   -1.2045 H   0  0  0  0  0  0  0  0  0  0  0  0
   -3.5459    3.2642    0.0579 H   0  0  0  0  0  0  0  0  0  0  0  0
   -6.5481    1.2379   -3.5450 H   0  0  0  0  0  0  0  0  0  0  0  0
   -6.7448    1.1293   -1.7894 H   0  0  0  0  0  0  0  0  0  0  0  0
   -6.0055   -0.2357   -2.7310 H   0  0  0  0  0  0  0  0  0  0  0  0
   -5.7196    1.1315    0.3772 H   0  0  0  0  0  0  0  0  0  0  0  0
   -5.5737    2.7707    1.0297 H   0  0  0  0  0  0  0  0  0  0  0  0
   -3.8005    2.0613    2.5854 H   0  0  0  0  0  0  0  0  0  0  0  0
   -3.8388    0.3619    1.8524 H   0  0  0  0  0  0  0  0  0  0  0  0
   -6.1880    0.2397    2.2579 H   0  0  0  0  0  0  0  0  0  0  0  0
   -5.2562    0.3617    3.7718 H   0  0  0  0  0  0  0  0  0  0  0  0
   -6.2220    1.7953    3.1064 H   0  0  0  0  0  0  0  0  0  0  0  0
  1  2  1  0
  2  3  1  0
  3  4  1  0
  4  5  1  0
  5  6  1  0
  6  7  1  0
  7  8  1  0
  4  9  1  0
  8  9  1  0
  7 10  1  0
 10 11  1  0
 10 12  1  0
 10 14  1  0
 14 15  1  0
 15 16  1  0
 16 17  1  0
 17 18  1  0
 14 19  1  0
 18 19  1  0
 13 20  1  0
 17 20  1  0
  9 21  1  0
 21 22  1  0
 22 23  1  0
 23 24  1  0
 24 25  1  0
 21 26  1  0
 25 26  1  0
 23 27  1  0
 24 28  1  0
 28 29  1  0
 25 30  1  0
 29 30  1  0
 28 31  1  0
 30 32  1  0
 32 33  1  0
 33 34  1  0
 35 36  1  0
 36 37  1  0
 37 38  1  0
 38 39  1  0
 39 40  1  0
 40 41  1  0
 41 42  1  0
 38 43  1  0
 42 43  1  0
 41 44  1  0
 44 45  1  0
 44 46  1  0
 44 48  1  0
 48 49  1  0
 49 50  1  0
 50 51  1  0
 51 52  1  0
 48 53  1  0
 52 53  1  0
 47 54  1  0
 51 54  1  0
 43 55  1  0
 55 56  1  0
 56 57  1  0
 57 58  1  0
 58 59  1  0
 55 60  1  0
 59 60  1  0
 57 61  1  0
 58 62  1  0
 62 63  1  0
 59 64  1  0
 63 64  1  0
 62 65  1  0
 64 66  1  0
 66 67  1  0
 67 68  1  0
  1 69  1  0
  1 70  1  0
  1 71  1  0
  2 72  1  0
  2 73  1  0
  4 74  1  0
  5 75  1  0
  5 76  1  0
  6 77  1  0
  6 78  1  0
  7 79  1  0
  8 80  1  0
  8 81  1  0
  9 82  1  0
 11 83  1  0
 12 84  1  0
 13 85  1  0
 13 86  1  0
 13 87  1  0
 15 88  1  0
 15 89  1  0
 16 90  1  0
 16 91  1  0
 18 92  1  0
 18 93  1  0
 19 94  1  0
 19 95  1  0
 20 96  1  0
 20 97  1  0
 21 98  1  0
 22 99  1  0
 23100  1  0
 24101  1  0
 26102  1  0
 27103  1  0
 28104  1  0
 29105  1  0
 30106  1  0
 31107  1  0
 31108  1  0
 31109  1  0
 32110  1  0
 32111  1  0
 33112  1  0
 33113  1  0
 34114  1  0
 34115  1  0
 34116  1  0
 35117  1  0
 35118  1  0
 35119  1  0
 36120  1  0
 36121  1  0
 38122  1  0
 39123  1  0
 39124  1  0
 40125  1  0
 40126  1  0
 41127  1  0
 42128  1  0
 42129  1  0
 43130  1  0
 45131  1  0
 46132  1  0
 47133  1  0
 47134  1  0
 47135  1  0
 49136  1  0
 49137  1  0
 50138  1  0
 50139  1  0
 52140  1  0
 52141  1  0
 53142  1  0
 53143  1  0
 54144  1  0
 54145  1  0
 55146  1  0
 56147  1  0
 57148  1  0
 58149  1  0
 60150  1  0
 61151  1  0
 62152  1  0
 63153  1  0
 64154  1  0
 65155  1  0
 65156  1  0
 65157  1  0
 66158  1  0
 66159  1  0
 67160  1  0
 67161  1  0
 68162  1  0
 68163  1  0
 68164  1  0
M  END
>  <PDBID>  (1) 
3B2R

>  <PDB ID>  (1) 
3B2R

>  <Generic Name>  (1) 
Vardenafil

>  <Brand Name>  (1) 
Levitra#Staxyn#Vivanza

>  <DrugBank ID>  (1) 
DB00862

>  <ATC Codes>  (1) 
G04BE09

>  <Ligand ID>  (1) 
VDN

>  <Target Name>  (1) 
cGMP-specific 3',5'-cyclic phosphodiesterase

>  <UniProt ID>  (1) 
O76074

>  <PDB ID.1>  (1) 
3B2R

>  <Seq. Identity>  (1) 
94%

$$$$
