PDB_DB00701_02
     RDKit          3D

 86 88  0  0  0  0  0  0  0  0999 V2000
   -4.7476   -2.9619   -1.8116 C   0  0  0  0  0  0  0  0  0  0  0  0
   -3.6341   -4.2771   -0.2253 C   0  0  0  0  0  0  0  0  0  0  0  0
   -1.6207   -1.6817   -1.2209 C   0  0  2  0  0  0  0  0  0  0  0  0
   -3.3619   -3.2149   -1.2624 C   0  0  2  0  0  0  0  0  0  0  0  0
   -1.8559    0.7633   -0.9838 C   0  0  2  0  0  0  0  0  0  0  0  0
   -0.7331    0.9431    0.0237 C   0  0  1  0  0  0  0  0  0  0  0  0
   -3.2204    0.7309   -0.4065 C   0  0  0  0  0  0  0  0  0  0  0  0
   -3.7311    1.9147    0.3143 C   0  0  0  0  0  0  0  0  0  0  0  0
   -5.1675    1.5480    0.7588 C   0  0  0  0  0  0  0  0  0  0  0  0
   -3.8557    3.1546   -0.5323 C   0  0  0  0  0  0  0  0  0  0  0  0
   -5.8943    2.7847    1.1558 C   0  0  0  0  0  0  0  0  0  0  0  0
   -4.0509    4.3207    0.4488 C   0  0  0  0  0  0  0  0  0  0  0  0
   -4.9983    3.9275    1.5571 C   0  0  0  0  0  0  0  0  0  0  0  0
    0.5259    0.9639   -0.7563 C   0  0  0  0  0  0  0  0  0  0  0  0
    1.8971    2.4164    0.4323 C   0  0  0  0  0  0  0  0  0  0  0  0
    3.1706    2.7886    1.1528 C   0  0  0  0  0  0  0  0  0  0  0  0
    4.0034   -0.6116    0.0562 C   0  0  0  0  0  0  0  0  0  0  0  0
    5.0505   -1.1870   -0.9216 C   0  0  0  0  0  0  0  0  0  0  0  0
    6.2118   -1.6495   -0.1215 C   0  0  0  0  0  0  0  0  0  0  0  0
    5.8735   -2.6118    0.9770 C   0  0  0  0  0  0  0  0  0  0  0  0
    4.5669   -2.3733    1.6417 C   0  0  0  0  0  0  0  0  0  0  0  0
    3.4781   -1.8746    0.7601 C   0  0  0  0  0  0  0  0  0  0  0  0
    3.4569    1.9751    2.3694 C   0  0  0  0  0  0  0  0  0  0  0  0
    4.3456    3.0027    0.2392 C   0  0  0  0  0  0  0  0  0  0  0  0
   -4.9127   -4.8812   -0.6804 C   0  0  0  0  0  0  0  0  0  0  0  0
   -1.6190   -0.3964   -1.7648 N   0  0  0  0  0  0  0  0  0  0  0  0
    1.7796    1.1096   -0.0711 N   0  0  0  0  0  0  0  0  0  0  0  0
    5.9923   -3.9863    0.5169 N   0  0  0  0  0  0  0  0  0  0  0  0
   -2.8668   -2.0831   -0.6632 O   0  0  0  0  0  0  0  0  0  0  0  0
   -0.6901   -1.9595   -0.2289 O   0  0  0  0  0  0  0  0  0  0  0  0
   -1.0204    2.0878    0.7543 O   0  0  0  0  0  0  0  0  0  0  0  0
    3.6138    1.0352   -2.0127 O   0  0  0  0  0  0  0  0  0  0  0  0
    1.9623   -1.0357   -1.5544 O   0  0  0  0  0  0  0  0  0  0  0  0
   -5.4524   -4.1343   -1.6923 O   0  0  0  0  0  0  0  0  0  0  0  0
    2.9374    0.3202   -0.7194 S   0  0  0  0  0  0  0  0  0  0  0  0
   -5.2049   -2.1332   -1.2445 H   0  0  0  0  0  0  0  0  0  0  0  0
   -4.6238   -2.6640   -2.8828 H   0  0  0  0  0  0  0  0  0  0  0  0
   -3.7174   -3.8333    0.7970 H   0  0  0  0  0  0  0  0  0  0  0  0
   -2.8189   -5.0388   -0.1972 H   0  0  0  0  0  0  0  0  0  0  0  0
   -1.4071   -2.4553   -2.0259 H   0  0  0  0  0  0  0  0  0  0  0  0
   -2.6713   -3.5751   -2.0571 H   0  0  0  0  0  0  0  0  0  0  0  0
   -1.7754    1.6224   -1.7486 H   0  0  0  0  0  0  0  0  0  0  0  0
   -0.7712    0.0553    0.7005 H   0  0  0  0  0  0  0  0  0  0  0  0
   -3.2017   -0.1072    0.3688 H   0  0  0  0  0  0  0  0  0  0  0  0
   -3.9705    0.3663   -1.1448 H   0  0  0  0  0  0  0  0  0  0  0  0
   -3.2424    2.1903    1.2553 H   0  0  0  0  0  0  0  0  0  0  0  0
   -5.0363    0.8828    1.6542 H   0  0  0  0  0  0  0  0  0  0  0  0
   -5.6773    0.9703   -0.0354 H   0  0  0  0  0  0  0  0  0  0  0  0
   -2.9668    3.3965   -1.1164 H   0  0  0  0  0  0  0  0  0  0  0  0
   -4.7879    3.1085   -1.1343 H   0  0  0  0  0  0  0  0  0  0  0  0
   -6.6039    2.6231    2.0098 H   0  0  0  0  0  0  0  0  0  0  0  0
   -6.4792    3.1351    0.2743 H   0  0  0  0  0  0  0  0  0  0  0  0
   -3.0904    4.6073    0.9290 H   0  0  0  0  0  0  0  0  0  0  0  0
   -4.4385    5.2082   -0.0644 H   0  0  0  0  0  0  0  0  0  0  0  0
   -5.6466    4.8009    1.7697 H   0  0  0  0  0  0  0  0  0  0  0  0
   -4.4594    3.7133    2.5149 H   0  0  0  0  0  0  0  0  0  0  0  0
    0.4519    1.9000   -1.4234 H   0  0  0  0  0  0  0  0  0  0  0  0
    0.4968    0.1077   -1.4777 H   0  0  0  0  0  0  0  0  0  0  0  0
    1.8234    3.1356   -0.4288 H   0  0  0  0  0  0  0  0  0  0  0  0
    1.1046    2.6060    1.1811 H   0  0  0  0  0  0  0  0  0  0  0  0
    2.9514    3.8309    1.5567 H   0  0  0  0  0  0  0  0  0  0  0  0
    4.6211   -0.1023    0.8179 H   0  0  0  0  0  0  0  0  0  0  0  0
    4.6212   -1.9343   -1.5906 H   0  0  0  0  0  0  0  0  0  0  0  0
    5.3696   -0.3112   -1.5314 H   0  0  0  0  0  0  0  0  0  0  0  0
    6.7753   -0.7589    0.2541 H   0  0  0  0  0  0  0  0  0  0  0  0
    6.9267   -2.1706   -0.8085 H   0  0  0  0  0  0  0  0  0  0  0  0
    6.6745   -2.4857    1.7627 H   0  0  0  0  0  0  0  0  0  0  0  0
    4.2235   -3.3616    2.0624 H   0  0  0  0  0  0  0  0  0  0  0  0
    4.6479   -1.7060    2.5411 H   0  0  0  0  0  0  0  0  0  0  0  0
    3.2730   -2.6027   -0.0495 H   0  0  0  0  0  0  0  0  0  0  0  0
    2.5889   -1.6663    1.3539 H   0  0  0  0  0  0  0  0  0  0  0  0
    3.1538    2.4432    3.3204 H   0  0  0  0  0  0  0  0  0  0  0  0
    4.5639    1.7831    2.4264 H   0  0  0  0  0  0  0  0  0  0  0  0
    2.9689    0.9834    2.2642 H   0  0  0  0  0  0  0  0  0  0  0  0
    3.9338    3.4316   -0.7100 H   0  0  0  0  0  0  0  0  0  0  0  0
    5.0210    3.8253    0.6224 H   0  0  0  0  0  0  0  0  0  0  0  0
    4.9928    2.1416    0.0913 H   0  0  0  0  0  0  0  0  0  0  0  0
   -5.6452   -4.8570    0.1738 H   0  0  0  0  0  0  0  0  0  0  0  0
   -4.7575   -5.9441   -0.9360 H   0  0  0  0  0  0  0  0  0  0  0  0
   -1.1633   -0.2589   -2.6718 H   0  0  0  0  0  0  0  0  0  0  0  0
    6.1863   -4.0285   -0.5081 H   0  0  0  0  0  0  0  0  0  0  0  0
    6.6783   -4.5377    1.0773 H   0  0  0  0  0  0  0  0  0  0  0  0
   -0.0078   -2.6229   -0.4790 H   0  0  0  0  0  0  0  0  0  0  0  0
   -1.0094    1.8536    1.7467 H   0  0  0  0  0  0  0  0  0  0  0  0
    3.0190    1.0910   -2.7976 H   0  0  0  0  0  0  0  0  0  0  0  0
    2.6737   -1.5247   -1.9911 H   0  0  0  0  0  0  0  0  0  0  0  0
  1  4  1  0
  2  4  1  0
  5  6  1  0
  5  7  1  0
  7  8  1  0
  8  9  1  0
  8 10  1  0
  9 11  1  0
 10 12  1  0
 11 13  1  0
 12 13  1  0
  6 14  1  0
 15 16  1  0
 17 18  1  0
 18 19  1  0
 19 20  1  0
 20 21  1  0
 17 22  1  0
 21 22  1  0
 16 23  1  0
 16 24  1  0
  2 25  1  0
  3 26  1  0
  5 26  1  0
 14 27  1  0
 15 27  1  0
 20 28  1  0
  3 29  1  0
  4 29  1  0
  3 30  1  0
  6 31  1  0
  1 34  1  0
 25 34  1  0
 17 35  1  0
 27 35  1  0
 35 32  1  0
 33 35  1  0
  1 36  1  0
  1 37  1  0
  2 38  1  0
  2 39  1  0
  3 40  1  6
  4 41  1  6
  5 42  1  6
  6 43  1  1
  7 44  1  0
  7 45  1  0
  8 46  1  0
  9 47  1  0
  9 48  1  0
 10 49  1  0
 10 50  1  0
 11 51  1  0
 11 52  1  0
 12 53  1  0
 12 54  1  0
 13 55  1  0
 13 56  1  0
 14 57  1  0
 14 58  1  0
 15 59  1  0
 15 60  1  0
 16 61  1  0
 17 62  1  0
 18 63  1  0
 18 64  1  0
 19 65  1  0
 19 66  1  0
 20 67  1  0
 21 68  1  0
 21 69  1  0
 22 70  1  0
 22 71  1  0
 23 72  1  0
 23 73  1  0
 23 74  1  0
 24 75  1  0
 24 76  1  0
 24 77  1  0
 25 78  1  0
 25 79  1  0
 26 80  1  0
 28 81  1  0
 28 82  1  0
 30 83  1  0
 31 84  1  0
 32 85  1  0
 33 86  1  0
M  END
>  <PDBID>  (1) 
1HPV

>  <PDB ID>  (1) 
1HPV

>  <Generic Name>  (1) 
Amprenavir

>  <Brand Name>  (1) 
Agenerase#Agemerase#Prozei

>  <DrugBank ID>  (1) 
DB00701

>  <ATC Codes>  (1) 
J05AE05

>  <Ligand ID>  (1) 
478

>  <Target Name>  (1) 
Pol polyprotein

>  <UniProt ID>  (1) 
Q72874

>  <PDB ID.1>  (1) 
1HPV

>  <Seq. Identity>  (1) 
99%

$$$$
