PDB_DB01045_04
     RDKit          3D

141145  0  0  0  0  0  0  0  0999 V2000
    3.6639   -0.1248    1.9234 C   0  0  0  0  0  0  0  0  0  0  0  0
    3.2422    0.8076    0.8362 C   0  0  2  0  0  0  0  0  0  0  0  0
    3.5130    0.2571   -0.5211 C   0  0  0  0  0  0  0  0  0  0  0  0
    2.6975   -0.9886   -0.6664 C   0  0  0  0  0  0  0  0  0  0  0  0
    1.6267   -2.7689    0.5651 C   0  0  0  0  0  0  0  0  0  0  0  0
    1.2123   -3.0778    2.0042 C   0  0  0  0  0  0  0  0  0  0  0  0
    2.4282   -3.5675    2.6699 C   0  0  0  0  0  0  0  0  0  0  0  0
    3.2285   -2.2783    2.9045 C   0  0  0  0  0  0  0  0  0  0  0  0
    3.6119   -1.5806    1.6209 C   0  0  0  0  0  0  0  0  0  0  0  0
    2.8751   -2.0170    0.4087 C   0  0  0  0  0  0  0  0  0  0  0  0
    0.3140   -2.1446    0.1892 C   0  0  0  0  0  0  0  0  0  0  0  0
   -0.6057   -3.1932    0.8463 C   0  0  2  0  0  0  0  0  0  0  0  0
   -1.6947   -2.5285    1.6673 C   0  0  0  0  0  0  0  0  0  0  0  0
    2.1927   -4.1701    4.0304 C   0  0  0  0  0  0  0  0  0  0  0  0
    2.7615    3.0491    0.3730 C   0  0  0  0  0  0  0  0  0  0  0  0
    1.9452    3.8994    1.3202 C   0  0  1  0  0  0  0  0  0  0  0  0
    0.8403    4.5722    0.5329 C   0  0  0  0  0  0  0  0  0  0  0  0
   -0.1740    3.5842    0.0274 C   0  0  0  0  0  0  0  0  0  0  0  0
   -1.5958    4.0163    0.3944 C   0  0  0  0  0  0  0  0  0  0  0  0
   -2.5935    3.4395   -0.5901 C   0  0  1  0  0  0  0  0  0  0  0  0
   -3.9875    3.4076   -0.0093 C   0  0  1  0  0  0  0  0  0  0  0  0
   -4.3048    2.0749    0.6366 C   0  0  2  0  0  0  0  0  0  0  0  0
   -5.4385    1.3693   -0.0742 C   0  0  2  0  0  0  0  0  0  0  0  0
   -5.3553   -0.1413    0.1221 C   0  0  2  0  0  0  0  0  0  0  0  0
   -5.6575   -0.9007   -1.1556 C   0  0  1  0  0  0  0  0  0  0  0  0
   -4.4587   -1.6674   -1.6434 C   0  0  1  0  0  0  0  0  0  0  0  0
   -4.3376   -2.9645   -0.9345 C   0  0  2  0  0  0  0  0  0  0  0  0
   -3.1596   -3.7873   -1.4826 C   0  0  0  0  0  0  0  0  0  0  0  0
   -1.8344   -3.2238   -1.0336 C   0  0  0  0  0  0  0  0  0  0  0  0
    1.4341    3.1470    2.5032 C   0  0  0  0  0  0  0  0  0  0  0  0
   -2.6406    4.2583   -1.8620 C   0  0  0  0  0  0  0  0  0  0  0  0
   -4.7987    2.3799    2.0549 C   0  0  0  0  0  0  0  0  0  0  0  0
   -6.3034   -0.4950    1.2311 C   0  0  0  0  0  0  0  0  0  0  0  0
   -4.5268   -1.9322   -3.1350 C   0  0  0  0  0  0  0  0  0  0  0  0
   -7.7913   -1.1802   -1.9223 C   0  0  2  0  0  0  0  0  0  0  0  0
   -8.1378   -2.2348   -2.9810 C   0  0  0  0  0  0  0  0  0  0  0  0
   -5.8616   -4.1628    0.2252 C   0  0  0  0  0  0  0  0  0  0  0  0
    9.6820    2.0403   -0.5113 C   0  0  0  0  0  0  0  0  0  0  0  0
    8.8072    1.7911   -2.7335 C   0  0  0  0  0  0  0  0  0  0  0  0
    7.3220    1.5176   -2.6290 C   0  0  0  0  0  0  0  0  0  0  0  0
    7.5735   -0.0809   -0.9592 C   0  0  0  0  0  0  0  0  0  0  0  0
    9.0443   -0.1255   -1.3030 C   0  0  0  0  0  0  0  0  0  0  0  0
    4.9368    0.1007   -0.9115 C   0  0  0  0  0  0  0  0  0  0  0  0
    3.6616    2.1520    1.0621 N   0  0  0  0  0  0  0  0  0  0  0  0
    5.6770    1.3446   -0.9158 N   0  0  0  0  0  0  0  0  0  0  0  0
    6.9912    1.2042   -1.2661 N   0  0  0  0  0  0  0  0  0  0  0  0
    9.5523    1.1825   -1.6662 N   0  0  0  0  0  0  0  0  0  0  0  0
    2.8769    0.2108    3.0548 O   0  0  0  0  0  0  0  0  0  0  0  0
    4.2908   -2.6140    3.7144 O   0  0  0  0  0  0  0  0  0  0  0  0
    0.1754   -3.9120    1.7544 O   0  0  0  0  0  0  0  0  0  0  0  0
    0.0481   -0.9621    0.9008 O   0  0  0  0  0  0  0  0  0  0  0  0
   -1.1873   -4.0186   -0.1036 O   0  0  0  0  0  0  0  0  0  0  0  0
   -5.4352   -3.7990   -1.0367 O   0  0  0  0  0  0  0  0  0  0  0  0
   -6.8118   -1.6463   -1.0507 O   0  0  0  0  0  0  0  0  0  0  0  0
   -8.9618   -0.7908   -1.2553 O   0  0  0  0  0  0  0  0  0  0  0  0
   -5.3178    1.6809   -1.4310 O   0  0  0  0  0  0  0  0  0  0  0  0
   -4.2340    4.4773    0.8485 O   0  0  0  0  0  0  0  0  0  0  0  0
    3.5281    3.9181   -0.4116 O   0  0  0  0  0  0  0  0  0  0  0  0
    2.9841   -1.4886   -1.9611 O   0  0  0  0  0  0  0  0  0  0  0  0
    4.6982    0.2158    2.2353 H   0  0  0  0  0  0  0  0  0  0  0  0
    2.1054    0.8442    0.9136 H   0  0  0  0  0  0  0  0  0  0  0  0
    3.0687    0.9867   -1.2747 H   0  0  0  0  0  0  0  0  0  0  0  0
    1.6227   -0.6536   -0.7704 H   0  0  0  0  0  0  0  0  0  0  0  0
    1.6088   -3.7813    0.0555 H   0  0  0  0  0  0  0  0  0  0  0  0
    0.8083   -2.1689    2.4998 H   0  0  0  0  0  0  0  0  0  0  0  0
    3.0396   -4.2304    2.0586 H   0  0  0  0  0  0  0  0  0  0  0  0
    2.5488   -1.6321    3.5131 H   0  0  0  0  0  0  0  0  0  0  0  0
    4.7048   -1.8917    1.5177 H   0  0  0  0  0  0  0  0  0  0  0  0
    3.5729   -2.7748   -0.1021 H   0  0  0  0  0  0  0  0  0  0  0  0
    0.1386   -2.0533   -0.8870 H   0  0  0  0  0  0  0  0  0  0  0  0
   -1.9839   -1.5810    1.2158 H   0  0  0  0  0  0  0  0  0  0  0  0
   -2.5291   -3.2352    1.8468 H   0  0  0  0  0  0  0  0  0  0  0  0
   -1.3117   -2.2746    2.7005 H   0  0  0  0  0  0  0  0  0  0  0  0
    1.2063   -3.8360    4.4565 H   0  0  0  0  0  0  0  0  0  0  0  0
    3.0224   -3.9636    4.7152 H   0  0  0  0  0  0  0  0  0  0  0  0
    2.1060   -5.2730    3.8883 H   0  0  0  0  0  0  0  0  0  0  0  0
    2.0471    2.5198   -0.2878 H   0  0  0  0  0  0  0  0  0  0  0  0
    2.6165    4.7106    1.6821 H   0  0  0  0  0  0  0  0  0  0  0  0
    0.3633    5.4017    1.1226 H   0  0  0  0  0  0  0  0  0  0  0  0
    1.3444    5.0205   -0.3713 H   0  0  0  0  0  0  0  0  0  0  0  0
   -0.1800    3.5250   -1.1005 H   0  0  0  0  0  0  0  0  0  0  0  0
    0.0218    2.5534    0.3730 H   0  0  0  0  0  0  0  0  0  0  0  0
   -1.8121    3.5751    1.3786 H   0  0  0  0  0  0  0  0  0  0  0  0
   -1.6758    5.1216    0.3664 H   0  0  0  0  0  0  0  0  0  0  0  0
   -2.3380    2.3946   -0.8709 H   0  0  0  0  0  0  0  0  0  0  0  0
   -4.7154    3.5378   -0.8563 H   0  0  0  0  0  0  0  0  0  0  0  0
   -3.4130    1.4406    0.7533 H   0  0  0  0  0  0  0  0  0  0  0  0
   -6.4414    1.7217    0.2817 H   0  0  0  0  0  0  0  0  0  0  0  0
   -4.2792   -0.3537    0.3878 H   0  0  0  0  0  0  0  0  0  0  0  0
   -5.8352   -0.1049   -1.9285 H   0  0  0  0  0  0  0  0  0  0  0  0
   -3.5685   -1.0443   -1.4010 H   0  0  0  0  0  0  0  0  0  0  0  0
   -4.1517   -2.7760    0.1486 H   0  0  0  0  0  0  0  0  0  0  0  0
   -3.3041   -4.8117   -1.0905 H   0  0  0  0  0  0  0  0  0  0  0  0
   -3.2561   -3.7896   -2.5682 H   0  0  0  0  0  0  0  0  0  0  0  0
   -1.1630   -3.2125   -1.9422 H   0  0  0  0  0  0  0  0  0  0  0  0
   -1.9348   -2.1694   -0.7362 H   0  0  0  0  0  0  0  0  0  0  0  0
    2.2912    2.8914    3.1523 H   0  0  0  0  0  0  0  0  0  0  0  0
    0.7720    2.3161    2.2628 H   0  0  0  0  0  0  0  0  0  0  0  0
    0.8283    3.8842    3.1039 H   0  0  0  0  0  0  0  0  0  0  0  0
   -3.1688    5.2169   -1.6295 H   0  0  0  0  0  0  0  0  0  0  0  0
   -3.2572    3.7335   -2.6033 H   0  0  0  0  0  0  0  0  0  0  0  0
   -1.6333    4.5214   -2.2254 H   0  0  0  0  0  0  0  0  0  0  0  0
   -4.6201    1.5275    2.7360 H   0  0  0  0  0  0  0  0  0  0  0  0
   -4.2513    3.2522    2.4745 H   0  0  0  0  0  0  0  0  0  0  0  0
   -5.8677    2.6748    2.0329 H   0  0  0  0  0  0  0  0  0  0  0  0
   -6.5823    0.3874    1.8581 H   0  0  0  0  0  0  0  0  0  0  0  0
   -5.7890   -1.1908    1.9453 H   0  0  0  0  0  0  0  0  0  0  0  0
   -7.2499   -0.9356    0.8838 H   0  0  0  0  0  0  0  0  0  0  0  0
   -5.1613   -1.1658   -3.5971 H   0  0  0  0  0  0  0  0  0  0  0  0
   -3.4741   -1.8538   -3.5104 H   0  0  0  0  0  0  0  0  0  0  0  0
   -4.9537   -2.9430   -3.3173 H   0  0  0  0  0  0  0  0  0  0  0  0
   -7.3968   -0.3222   -2.4851 H   0  0  0  0  0  0  0  0  0  0  0  0
   -9.1275   -1.9873   -3.4195 H   0  0  0  0  0  0  0  0  0  0  0  0
   -7.3468   -2.3470   -3.7242 H   0  0  0  0  0  0  0  0  0  0  0  0
   -8.2589   -3.1884   -2.4413 H   0  0  0  0  0  0  0  0  0  0  0  0
   -6.7529   -4.8255    0.1096 H   0  0  0  0  0  0  0  0  0  0  0  0
   -5.0911   -4.8378    0.6896 H   0  0  0  0  0  0  0  0  0  0  0  0
   -6.0502   -3.3425    0.9180 H   0  0  0  0  0  0  0  0  0  0  0  0
    9.2696    1.4961    0.3628 H   0  0  0  0  0  0  0  0  0  0  0  0
   10.7774    2.1808   -0.3045 H   0  0  0  0  0  0  0  0  0  0  0  0
    9.1803    3.0275   -0.6496 H   0  0  0  0  0  0  0  0  0  0  0  0
    9.0193    2.8850   -2.7272 H   0  0  0  0  0  0  0  0  0  0  0  0
    9.1685    1.3310   -3.6837 H   0  0  0  0  0  0  0  0  0  0  0  0
    6.8020    2.4130   -3.0249 H   0  0  0  0  0  0  0  0  0  0  0  0
    7.0920    0.6104   -3.2369 H   0  0  0  0  0  0  0  0  0  0  0  0
    7.4608   -0.2280    0.1274 H   0  0  0  0  0  0  0  0  0  0  0  0
    7.0932   -0.9145   -1.4887 H   0  0  0  0  0  0  0  0  0  0  0  0
    9.2411   -0.8687   -2.0956 H   0  0  0  0  0  0  0  0  0  0  0  0
    9.5963   -0.4628   -0.4127 H   0  0  0  0  0  0  0  0  0  0  0  0
    5.4901   -0.5859   -0.2779 H   0  0  0  0  0  0  0  0  0  0  0  0
    4.9230   -0.2219   -1.9938 H   0  0  0  0  0  0  0  0  0  0  0  0
    4.6431    2.3752    0.9273 H   0  0  0  0  0  0  0  0  0  0  0  0
    5.1984    2.0661   -1.5358 H   0  0  0  0  0  0  0  0  0  0  0  0
    1.9132    0.2560    2.7562 H   0  0  0  0  0  0  0  0  0  0  0  0
    4.3619   -2.0117    4.5209 H   0  0  0  0  0  0  0  0  0  0  0  0
   -0.5257   -0.3510    0.3860 H   0  0  0  0  0  0  0  0  0  0  0  0
   -9.2305   -1.5399   -0.6419 H   0  0  0  0  0  0  0  0  0  0  0  0
   -6.0530    2.2584   -1.7130 H   0  0  0  0  0  0  0  0  0  0  0  0
   -3.4448    4.7998    1.3277 H   0  0  0  0  0  0  0  0  0  0  0  0
    3.3649    3.7387   -1.3697 H   0  0  0  0  0  0  0  0  0  0  0  0
    2.5160   -0.9916   -2.6548 H   0  0  0  0  0  0  0  0  0  0  0  0
  1  2  1  0
  2  3  1  0
  3  4  1  0
  5  6  1  0
  6  7  1  0
  7  8  1  0
  1  9  1  0
  8  9  1  0
  4 10  1  0
  5 10  1  0
  9 10  1  0
  5 11  1  0
 11 12  1  0
 12 13  1  1
  7 14  1  0
 15 16  1  0
 16 17  1  0
 17 18  1  0
 18 19  1  0
 19 20  1  0
 20 21  1  0
 21 22  1  0
 22 23  1  0
 23 24  1  0
 24 25  1  0
 25 26  1  0
 26 27  1  0
 27 28  1  0
 28 29  1  0
 16 30  1  0
 20 31  1  0
 22 32  1  0
 24 33  1  0
 26 34  1  0
 35 36  1  0
 39 40  1  0
 41 42  1  0
  3 43  1  0
  2 44  1  0
 15 44  1  0
 43 45  1  0
 40 46  1  0
 41 46  1  0
 45 46  1  0
 38 47  1  0
 39 47  1  0
 42 47  1  0
  1 48  1  0
  8 49  1  0
  6 50  1  0
 12 50  1  0
 11 51  1  0
 12 52  1  0
 29 52  1  0
 27 53  1  0
 37 53  1  0
 25 54  1  0
 35 54  1  0
 35 55  1  0
 23 56  1  0
 21 57  1  0
 15 58  1  0
  4 59  1  0
  1 60  1  0
  2 61  1  6
  3 62  1  0
  4 63  1  0
  5 64  1  0
  6 65  1  0
  7 66  1  0
  8 67  1  0
  9 68  1  0
 10 69  1  0
 11 70  1  0
 13 71  1  0
 13 72  1  0
 13 73  1  0
 14 74  1  0
 14 75  1  0
 14 76  1  0
 15 77  1  0
 16 78  1  1
 17 79  1  0
 17 80  1  0
 18 81  1  0
 18 82  1  0
 19 83  1  0
 19 84  1  0
 20 85  1  6
 21 86  1  6
 22 87  1  1
 23 88  1  1
 24 89  1  1
 25 90  1  6
 26 91  1  6
 27 92  1  1
 28 93  1  0
 28 94  1  0
 29 95  1  0
 29 96  1  0
 30 97  1  0
 30 98  1  0
 30 99  1  0
 31100  1  0
 31101  1  0
 31102  1  0
 32103  1  0
 32104  1  0
 32105  1  0
 33106  1  0
 33107  1  0
 33108  1  0
 34109  1  0
 34110  1  0
 34111  1  0
 35112  1  6
 36113  1  0
 36114  1  0
 36115  1  0
 37116  1  0
 37117  1  0
 37118  1  0
 38119  1  0
 38120  1  0
 38121  1  0
 39122  1  0
 39123  1  0
 40124  1  0
 40125  1  0
 41126  1  0
 41127  1  0
 42128  1  0
 42129  1  0
 43130  1  0
 43131  1  0
 44132  1  0
 45133  1  0
 48134  1  0
 49135  1  0
 51136  1  0
 55137  1  0
 56138  1  0
 57139  1  0
 58140  1  0
 59141  1  0
M  END
>  <PDBID>  (1) 
5UAC

>  <PDB ID>  (1) 
5UAC

>  <Generic Name>  (1) 
Rifampicin

>  <Brand Name>  (1) 
Isonarif#Rifadin#Rifadin Cap 300mg#Rifadin IV#Rifadin IV Novaplus#Rifamate#Rifampin#Rifater#Rofact 150mg#Rofact 300mg#Rifadine#Rifaldin#Rifoldin#Rimactan#Rimactane#Rofact#Tubocin

>  <DrugBank ID>  (1) 
DB01045

>  <ATC Codes>  (1) 
J04AM02#J04AB02#J04AM06#J04AM05

>  <Ligand ID>  (1) 
RFP

>  <Target Name>  (1) 
DNA-directed RNA polymerase subunit beta

>  <UniProt ID>  (1) 
P0A8V2

>  <PDB ID.1>  (1) 
5UAC

>  <Seq. Identity>  (1) 
100%

$$$$
