PDB_DB04552_02
     RDKit          3D

 43 44  0  0  0  0  0  0  0  0999 V2000
    5.2682    1.5406   -0.6062 F   0  0  0  0  0  0  0  0  0  0  0  0
    4.3016    1.5970    0.3610 C   0  0  0  0  0  0  0  0  0  0  0  0
    3.7074    2.8596    0.3886 F   0  0  0  0  0  0  0  0  0  0  0  0
    4.8313    1.2761    1.5942 F   0  0  0  0  0  0  0  0  0  0  0  0
    3.2230    0.6125    0.0419 C   0  0  2  0  0  0  0  0  0  0  0  0
    2.1771    0.6822    1.1042 C   0  0  0  0  0  0  0  0  0  0  0  0
    0.9790   -0.2323    0.8021 C   0  0  0  0  0  0  0  0  0  0  0  0
    1.4293   -1.5839    0.3805 C   0  0  0  0  0  0  0  0  0  0  0  0
    2.5973   -1.6454   -0.5397 C   0  0  0  0  0  0  0  0  0  0  0  0
    3.7413   -0.8244    0.0504 C   0  0  0  0  0  0  0  0  0  0  0  0
    0.1576    0.4747   -0.1049 N   0  0  0  0  0  0  0  0  0  0  0  0
   -1.0923   -0.0869   -0.4673 C   0  0  0  0  0  0  0  0  0  0  0  0
   -1.7107    0.8054   -1.4421 N   0  0  0  0  0  0  0  0  0  0  0  0
   -2.0803   -0.2710    0.6276 C   0  0  0  0  0  0  0  0  0  0  0  0
   -2.6889    1.0156    1.1273 C   0  0  0  0  0  0  0  0  0  0  0  0
   -1.7301    1.8914    1.6317 O   0  0  0  0  0  0  0  0  0  0  0  0
   -3.4981    0.6588    2.2319 O   0  0  0  0  0  0  0  0  0  0  0  0
   -3.2249   -1.0991    0.0801 C   0  0  0  0  0  0  0  0  0  0  0  0
   -3.4504   -0.9516   -1.3797 C   0  0  0  0  0  0  0  0  0  0  0  0
   -2.9471    0.3249   -1.9685 C   0  0  0  0  0  0  0  0  0  0  0  0
    2.7228    0.8174   -0.9313 H   0  0  0  0  0  0  0  0  0  0  0  0
    2.6019    0.4469    2.1211 H   0  0  0  0  0  0  0  0  0  0  0  0
    1.7935    1.7177    1.1331 H   0  0  0  0  0  0  0  0  0  0  0  0
    0.4975   -0.3528    1.8195 H   0  0  0  0  0  0  0  0  0  0  0  0
    0.5645   -2.1507   -0.0222 H   0  0  0  0  0  0  0  0  0  0  0  0
    1.7253   -2.1562    1.3060 H   0  0  0  0  0  0  0  0  0  0  0  0
    2.9719   -2.7106   -0.5178 H   0  0  0  0  0  0  0  0  0  0  0  0
    2.3970   -1.3233   -1.5654 H   0  0  0  0  0  0  0  0  0  0  0  0
    4.6795   -0.9413   -0.5031 H   0  0  0  0  0  0  0  0  0  0  0  0
    3.8611   -1.0824    1.1289 H   0  0  0  0  0  0  0  0  0  0  0  0
    0.6947    0.6687   -0.9713 H   0  0  0  0  0  0  0  0  0  0  0  0
   -0.9297   -1.0516   -0.9879 H   0  0  0  0  0  0  0  0  0  0  0  0
   -0.9913    1.0287   -2.1653 H   0  0  0  0  0  0  0  0  0  0  0  0
   -1.6932   -0.8356    1.5007 H   0  0  0  0  0  0  0  0  0  0  0  0
   -3.2741    1.5532    0.3807 H   0  0  0  0  0  0  0  0  0  0  0  0
   -2.2234    2.4935    2.2683 H   0  0  0  0  0  0  0  0  0  0  0  0
   -3.9891    1.4416    2.5843 H   0  0  0  0  0  0  0  0  0  0  0  0
   -3.0188   -2.1934    0.2746 H   0  0  0  0  0  0  0  0  0  0  0  0
   -4.1608   -0.9008    0.6794 H   0  0  0  0  0  0  0  0  0  0  0  0
   -3.1086   -1.8175   -1.9944 H   0  0  0  0  0  0  0  0  0  0  0  0
   -4.5731   -0.9464   -1.5318 H   0  0  0  0  0  0  0  0  0  0  0  0
   -2.7828    0.1330   -3.0712 H   0  0  0  0  0  0  0  0  0  0  0  0
   -3.7550    1.1176   -1.9592 H   0  0  0  0  0  0  0  0  0  0  0  0
  2  1  1  0
  2  3  1  0
  2  4  1  0
  2  5  1  0
  5  6  1  0
  6  7  1  0
  7  8  1  0
  8  9  1  0
  5 10  1  0
  9 10  1  0
  7 11  1  0
 11 12  1  0
 12 13  1  0
 12 14  1  0
 14 15  1  0
 15 16  1  0
 15 17  1  0
 14 18  1  0
 18 19  1  0
 13 20  1  0
 19 20  1  0
  5 21  1  6
  6 22  1  0
  6 23  1  0
  7 24  1  0
  8 25  1  0
  8 26  1  0
  9 27  1  0
  9 28  1  0
 10 29  1  0
 10 30  1  0
 11 31  1  0
 12 32  1  0
 13 33  1  0
 14 34  1  0
 15 35  1  0
 16 36  1  0
 17 37  1  0
 18 38  1  0
 18 39  1  0
 19 40  1  0
 19 41  1  0
 20 42  1  0
 20 43  1  0
M  END
>  <PDBID>  (1) 
1TD7

>  <PDB ID>  (1) 
1TD7

>  <Generic Name>  (1) 
Niflumic Acid

>  <Brand Name>  (1) 
Niflam#Niflugel#Nifluril

>  <DrugBank ID>  (1) 
DB04552

>  <ATC Codes>  (1) 
M02AA17#M01AX02

>  <Ligand ID>  (1) 
NFL

>  <Target Name>  (1) 
Phospholipase A2

>  <UniProt ID>  (1) 
P04054

>  <PDB ID.1>  (1) 
1TD7

>  <Seq. Identity>  (1) 
43%

$$$$
