PDB_DB03849_04
     RDKit          3D

124128  0  0  0  0  0  0  0  0999 V2000
    4.9042    2.8286    1.0084 O   0  0  0  0  0  0  0  0  0  0  0  0
    4.8520    1.9521   -0.0991 C   0  0  0  0  0  0  0  0  0  0  0  0
    5.9490    1.1237   -0.0628 O   0  0  0  0  0  0  0  0  0  0  0  0
    3.5462    1.2047   -0.0181 C   0  0  0  0  0  0  0  0  0  0  0  0
    3.4412    0.2629   -1.1703 C   0  0  0  0  0  0  0  0  0  0  0  0
    2.1728   -0.5491   -1.1547 C   0  0  0  0  0  0  0  0  0  0  0  0
    3.5094    0.4092    1.2472 C   0  0  0  0  0  0  0  0  0  0  0  0
    2.2104   -0.3167    1.3477 C   0  0  0  0  0  0  0  0  0  0  0  0
    1.8441   -1.1603    0.1530 C   0  0  0  0  0  0  0  0  0  0  0  0
    2.5998   -2.4616    0.2986 C   0  0  0  0  0  0  0  0  0  0  0  0
    4.0381   -2.2575    0.2392 N   0  0  0  0  0  0  0  0  0  0  0  0
    0.3691   -1.4572    0.3282 C   0  0  0  0  0  0  0  0  0  0  0  0
   -0.2351   -2.3706   -0.6592 C   0  0  0  0  0  0  0  0  0  0  0  0
   -0.8198   -1.7116   -1.8746 C   0  0  0  0  0  0  0  0  0  0  0  0
   -1.7214   -0.5579   -1.5853 C   0  0  0  0  0  0  0  0  0  0  0  0
   -1.2572    0.5577   -2.2435 O   0  0  0  0  0  0  0  0  0  0  0  0
   -2.1868    1.1179   -3.1072 C   0  0  0  0  0  0  0  0  0  0  0  0
   -1.8143   -0.3793   -0.0870 C   0  0  0  0  0  0  0  0  0  0  0  0
   -0.4389   -0.1960    0.5311 C   0  0  0  0  0  0  0  0  0  0  0  0
   -2.6449    0.6918    0.1716 O   0  0  0  0  0  0  0  0  0  0  0  0
   -3.7784    0.2715    0.8370 C   0  0  0  0  0  0  0  0  0  0  0  0
   -5.0452    0.5541    0.0594 C   0  0  0  0  0  0  0  0  0  0  0  0
   -5.5306    1.8986    0.5320 C   0  0  0  0  0  0  0  0  0  0  0  0
   -5.1653    1.8902    1.9931 C   0  0  0  0  0  0  0  0  0  0  0  0
   -3.9951    0.9578    2.1467 C   0  0  0  0  0  0  0  0  0  0  0  0
    4.9042    2.8286    1.0084 O   0  0  0  0  0  0  0  0  0  0  0  0
    4.8520    1.9521   -0.0991 C   0  0  0  0  0  0  0  0  0  0  0  0
    5.9490    1.1237   -0.0628 O   0  0  0  0  0  0  0  0  0  0  0  0
    3.5462    1.2047   -0.0181 C   0  0  0  0  0  0  0  0  0  0  0  0
    3.4412    0.2629   -1.1703 C   0  0  0  0  0  0  0  0  0  0  0  0
    2.1728   -0.5491   -1.1547 C   0  0  0  0  0  0  0  0  0  0  0  0
    3.5094    0.4092    1.2472 C   0  0  0  0  0  0  0  0  0  0  0  0
    2.2104   -0.3167    1.3477 C   0  0  0  0  0  0  0  0  0  0  0  0
    1.8441   -1.1603    0.1530 C   0  0  0  0  0  0  0  0  0  0  0  0
    2.5998   -2.4616    0.2986 C   0  0  0  0  0  0  0  0  0  0  0  0
    4.0381   -2.2575    0.2392 N   0  0  0  0  0  0  0  0  0  0  0  0
    0.3691   -1.4572    0.3282 C   0  0  0  0  0  0  0  0  0  0  0  0
   -0.2351   -2.3706   -0.6592 C   0  0  0  0  0  0  0  0  0  0  0  0
   -0.8198   -1.7116   -1.8746 C   0  0  0  0  0  0  0  0  0  0  0  0
   -1.7214   -0.5579   -1.5853 C   0  0  0  0  0  0  0  0  0  0  0  0
   -1.2572    0.5577   -2.2435 O   0  0  0  0  0  0  0  0  0  0  0  0
   -2.1868    1.1179   -3.1072 C   0  0  0  0  0  0  0  0  0  0  0  0
   -1.8143   -0.3793   -0.0870 C   0  0  0  0  0  0  0  0  0  0  0  0
   -0.4389   -0.1960    0.5311 C   0  0  0  0  0  0  0  0  0  0  0  0
   -2.6449    0.6918    0.1716 O   0  0  0  0  0  0  0  0  0  0  0  0
   -3.7784    0.2715    0.8370 C   0  0  0  0  0  0  0  0  0  0  0  0
   -5.0452    0.5541    0.0594 C   0  0  0  0  0  0  0  0  0  0  0  0
   -5.5306    1.8986    0.5320 C   0  0  0  0  0  0  0  0  0  0  0  0
   -5.1653    1.8902    1.9931 C   0  0  0  0  0  0  0  0  0  0  0  0
   -3.9951    0.9578    2.1467 C   0  0  0  0  0  0  0  0  0  0  0  0
    4.2962    3.5985    0.8799 H   0  0  0  0  0  0  0  0  0  0  0  0
    4.9279    2.5539   -1.0330 H   0  0  0  0  0  0  0  0  0  0  0  0
    5.7660    0.1656   -0.0149 H   0  0  0  0  0  0  0  0  0  0  0  0
    2.6914    1.9360   -0.0008 H   0  0  0  0  0  0  0  0  0  0  0  0
    4.3068   -0.3807   -1.2463 H   0  0  0  0  0  0  0  0  0  0  0  0
    3.4192    0.8898   -2.1060 H   0  0  0  0  0  0  0  0  0  0  0  0
    1.3670    0.1349   -1.5426 H   0  0  0  0  0  0  0  0  0  0  0  0
    2.2827   -1.3315   -1.9346 H   0  0  0  0  0  0  0  0  0  0  0  0
    3.5152    1.1519    2.0923 H   0  0  0  0  0  0  0  0  0  0  0  0
    4.3928   -0.2031    1.3775 H   0  0  0  0  0  0  0  0  0  0  0  0
    2.2773   -1.0091    2.2190 H   0  0  0  0  0  0  0  0  0  0  0  0
    1.4069    0.4051    1.5880 H   0  0  0  0  0  0  0  0  0  0  0  0
    2.3759   -2.9697    1.2574 H   0  0  0  0  0  0  0  0  0  0  0  0
    2.3709   -3.1056   -0.5750 H   0  0  0  0  0  0  0  0  0  0  0  0
    4.4795   -2.6809   -0.5893 H   0  0  0  0  0  0  0  0  0  0  0  0
    4.5049   -2.5856    1.1195 H   0  0  0  0  0  0  0  0  0  0  0  0
    0.3204   -1.9859    1.3320 H   0  0  0  0  0  0  0  0  0  0  0  0
   -1.1054   -2.8900   -0.1541 H   0  0  0  0  0  0  0  0  0  0  0  0
    0.4171   -3.1713   -0.9869 H   0  0  0  0  0  0  0  0  0  0  0  0
   -1.4573   -2.4995   -2.3765 H   0  0  0  0  0  0  0  0  0  0  0  0
   -0.0247   -1.4919   -2.6210 H   0  0  0  0  0  0  0  0  0  0  0  0
   -2.7743   -0.7241   -1.9381 H   0  0  0  0  0  0  0  0  0  0  0  0
   -3.1043    1.4301   -2.5446 H   0  0  0  0  0  0  0  0  0  0  0  0
   -1.7481    2.0593   -3.4983 H   0  0  0  0  0  0  0  0  0  0  0  0
   -2.4107    0.4708   -3.9555 H   0  0  0  0  0  0  0  0  0  0  0  0
   -2.2843   -1.3006    0.3128 H   0  0  0  0  0  0  0  0  0  0  0  0
    0.0300    0.6923    0.0715 H   0  0  0  0  0  0  0  0  0  0  0  0
   -0.6049    0.0494    1.6007 H   0  0  0  0  0  0  0  0  0  0  0  0
   -3.7656   -0.8394    1.0147 H   0  0  0  0  0  0  0  0  0  0  0  0
   -4.9053    0.5072   -1.0308 H   0  0  0  0  0  0  0  0  0  0  0  0
   -5.8242   -0.1905    0.3257 H   0  0  0  0  0  0  0  0  0  0  0  0
   -5.1090    2.7414   -0.0238 H   0  0  0  0  0  0  0  0  0  0  0  0
   -6.6431    1.9864    0.4719 H   0  0  0  0  0  0  0  0  0  0  0  0
   -4.9135    2.9187    2.3032 H   0  0  0  0  0  0  0  0  0  0  0  0
   -6.0266    1.5491    2.6206 H   0  0  0  0  0  0  0  0  0  0  0  0
   -3.0851    1.5554    2.4143 H   0  0  0  0  0  0  0  0  0  0  0  0
   -4.1652    0.2607    2.9903 H   0  0  0  0  0  0  0  0  0  0  0  0
    4.2962    3.5985    0.8799 H   0  0  0  0  0  0  0  0  0  0  0  0
    4.9279    2.5539   -1.0330 H   0  0  0  0  0  0  0  0  0  0  0  0
    5.7660    0.1656   -0.0149 H   0  0  0  0  0  0  0  0  0  0  0  0
    2.6914    1.9360   -0.0008 H   0  0  0  0  0  0  0  0  0  0  0  0
    4.3068   -0.3807   -1.2463 H   0  0  0  0  0  0  0  0  0  0  0  0
    3.4192    0.8898   -2.1060 H   0  0  0  0  0  0  0  0  0  0  0  0
    1.3670    0.1349   -1.5426 H   0  0  0  0  0  0  0  0  0  0  0  0
    2.2827   -1.3315   -1.9346 H   0  0  0  0  0  0  0  0  0  0  0  0
    3.5152    1.1519    2.0923 H   0  0  0  0  0  0  0  0  0  0  0  0
    4.3928   -0.2031    1.3775 H   0  0  0  0  0  0  0  0  0  0  0  0
    2.2773   -1.0091    2.2190 H   0  0  0  0  0  0  0  0  0  0  0  0
    1.4069    0.4051    1.5880 H   0  0  0  0  0  0  0  0  0  0  0  0
    2.3759   -2.9697    1.2574 H   0  0  0  0  0  0  0  0  0  0  0  0
    2.3709   -3.1056   -0.5750 H   0  0  0  0  0  0  0  0  0  0  0  0
    4.4795   -2.6809   -0.5893 H   0  0  0  0  0  0  0  0  0  0  0  0
    4.5049   -2.5856    1.1195 H   0  0  0  0  0  0  0  0  0  0  0  0
    0.3204   -1.9859    1.3320 H   0  0  0  0  0  0  0  0  0  0  0  0
   -1.1054   -2.8900   -0.1541 H   0  0  0  0  0  0  0  0  0  0  0  0
    0.4171   -3.1713   -0.9869 H   0  0  0  0  0  0  0  0  0  0  0  0
   -1.4573   -2.4995   -2.3765 H   0  0  0  0  0  0  0  0  0  0  0  0
   -0.0247   -1.4919   -2.6210 H   0  0  0  0  0  0  0  0  0  0  0  0
   -2.7743   -0.7241   -1.9381 H   0  0  0  0  0  0  0  0  0  0  0  0
   -3.1043    1.4301   -2.5446 H   0  0  0  0  0  0  0  0  0  0  0  0
   -1.7481    2.0593   -3.4983 H   0  0  0  0  0  0  0  0  0  0  0  0
   -2.4107    0.4708   -3.9555 H   0  0  0  0  0  0  0  0  0  0  0  0
   -2.2843   -1.3006    0.3128 H   0  0  0  0  0  0  0  0  0  0  0  0
    0.0300    0.6923    0.0715 H   0  0  0  0  0  0  0  0  0  0  0  0
   -0.6049    0.0494    1.6007 H   0  0  0  0  0  0  0  0  0  0  0  0
   -3.7656   -0.8394    1.0147 H   0  0  0  0  0  0  0  0  0  0  0  0
   -4.9053    0.5072   -1.0308 H   0  0  0  0  0  0  0  0  0  0  0  0
   -5.8242   -0.1905    0.3257 H   0  0  0  0  0  0  0  0  0  0  0  0
   -5.1090    2.7414   -0.0238 H   0  0  0  0  0  0  0  0  0  0  0  0
   -6.6431    1.9864    0.4719 H   0  0  0  0  0  0  0  0  0  0  0  0
   -4.9135    2.9187    2.3032 H   0  0  0  0  0  0  0  0  0  0  0  0
   -6.0266    1.5491    2.6206 H   0  0  0  0  0  0  0  0  0  0  0  0
   -3.0851    1.5554    2.4143 H   0  0  0  0  0  0  0  0  0  0  0  0
   -4.1652    0.2607    2.9903 H   0  0  0  0  0  0  0  0  0  0  0  0
  1  2  1  0
  2  3  1  0
  2  4  1  0
  4  5  1  0
  5  6  1  0
  4  7  1  0
  7  8  1  0
  6  9  1  0
  8  9  1  0
  9 10  1  0
 10 11  1  0
  9 12  1  0
 12 13  1  0
 13 14  1  0
 14 15  1  0
 15 16  1  0
 16 17  1  0
 15 18  1  0
 12 19  1  0
 18 19  1  0
 18 20  1  0
 20 21  1  0
 21 22  1  0
 22 23  1  0
 23 24  1  0
 21 25  1  0
 24 25  1  0
 26 27  1  0
 27 28  1  0
 27 29  1  0
 29 30  1  0
 30 31  1  0
 29 32  1  0
 32 33  1  0
 31 34  1  0
 33 34  1  0
 34 35  1  0
 35 36  1  0
 34 37  1  0
 37 38  1  0
 38 39  1  0
 39 40  1  0
 40 41  1  0
 41 42  1  0
 40 43  1  0
 37 44  1  0
 43 44  1  0
 43 45  1  0
 45 46  1  0
 46 47  1  0
 47 48  1  0
 48 49  1  0
 46 50  1  0
 49 50  1  0
  1 51  1  0
  2 52  1  0
  3 53  1  0
  4 54  1  0
  5 55  1  0
  5 56  1  0
  6 57  1  0
  6 58  1  0
  7 59  1  0
  7 60  1  0
  8 61  1  0
  8 62  1  0
 10 63  1  0
 10 64  1  0
 11 65  1  0
 11 66  1  0
 12 67  1  0
 13 68  1  0
 13 69  1  0
 14 70  1  0
 14 71  1  0
 15 72  1  0
 17 73  1  0
 17 74  1  0
 17 75  1  0
 18 76  1  0
 19 77  1  0
 19 78  1  0
 21 79  1  0
 22 80  1  0
 22 81  1  0
 23 82  1  0
 23 83  1  0
 24 84  1  0
 24 85  1  0
 25 86  1  0
 25 87  1  0
 26 88  1  0
 27 89  1  0
 28 90  1  0
 29 91  1  0
 30 92  1  0
 30 93  1  0
 31 94  1  0
 31 95  1  0
 32 96  1  0
 32 97  1  0
 33 98  1  0
 33 99  1  0
 35100  1  0
 35101  1  0
 36102  1  0
 36103  1  0
 37104  1  0
 38105  1  0
 38106  1  0
 39107  1  0
 39108  1  0
 40109  1  0
 42110  1  0
 42111  1  0
 42112  1  0
 43113  1  0
 44114  1  0
 44115  1  0
 46116  1  0
 47117  1  0
 47118  1  0
 48119  1  0
 48120  1  0
 49121  1  0
 49122  1  0
 50123  1  0
 50124  1  0
M  END
>  <PDBID>  (1) 
1XLX

>  <PDB ID>  (1) 
1XLX

>  <Generic Name>  (1) 
Cilomilast

>  <Brand Name>  (1) 
nan

>  <DrugBank ID>  (1) 
DB03849

>  <ATC Codes>  (1) 
nan

>  <Ligand ID>  (1) 
CIO

>  <Target Name>  (1) 
cAMP-specific 3',5'-cyclic phosphodiesterase 4B

>  <UniProt ID>  (1) 
Q07343

>  <PDB ID.1>  (1) 
1XLX

>  <Seq. Identity>  (1) 
97%

$$$$
