PDB_DB00834_05
     RDKit          3D

 83 87  0  0  0  0  0  0  0  0999 V2000
   -0.2224    6.4575   -0.0635 O   0  0  0  0  0  0  0  0  0  0  0  0
   -0.5008    5.0985    0.2012 C   0  0  0  0  0  0  0  0  0  0  0  0
    0.3851    4.6622    1.3404 C   0  0  0  0  0  0  0  0  0  0  0  0
   -0.2278    4.3573   -1.0706 C   0  0  0  0  0  0  0  0  0  0  0  0
   -0.5147    2.8788   -0.9880 C   0  0  0  0  0  0  0  0  0  0  0  0
   -1.8979    2.5184   -1.4485 C   0  0  0  0  0  0  0  0  0  0  0  0
   -0.4840    2.5308    0.4970 C   0  0  2  0  0  0  0  0  0  0  0  0
    0.6932    3.1650    1.1160 C   0  0  0  0  0  0  0  0  0  0  0  0
   -0.7577    1.0973    0.7232 C   0  0  0  0  0  0  0  0  0  0  0  0
   -0.0603    0.1260   -0.1472 C   0  0  1  0  0  0  0  0  0  0  0  0
    1.4293    0.0982   -0.0312 C   0  0  0  0  0  0  0  0  0  0  0  0
    1.9445   -0.9770   -1.0033 C   0  0  0  0  0  0  0  0  0  0  0  0
    3.3853   -0.6038   -1.3142 C   0  0  0  0  0  0  0  0  0  0  0  0
    4.0023    0.1181   -0.1721 C   0  0  0  0  0  0  0  0  0  0  0  0
    5.4328   -0.1922   -0.1716 N   0  0  0  0  0  0  0  0  0  0  0  0
    6.1071    0.2560   -1.3495 C   0  0  0  0  0  0  0  0  0  0  0  0
    5.7186   -1.5614    0.1208 C   0  0  0  0  0  0  0  0  0  0  0  0
    3.4915   -0.2685    1.1841 C   0  0  0  0  0  0  0  0  0  0  0  0
    1.9856   -0.2370    1.3007 C   0  0  0  0  0  0  0  0  0  0  0  0
   -0.5329   -1.2906   -0.0614 C   0  0  0  0  0  0  0  0  0  0  0  0
   -1.8396   -1.4901    0.6109 C   0  0  2  0  0  0  0  0  0  0  0  0
   -1.7088   -1.4748    2.1161 C   0  0  0  0  0  0  0  0  0  0  0  0
   -2.6223   -2.6919    0.2266 C   0  0  1  0  0  0  0  0  0  0  0  0
   -2.4170   -3.2036   -1.1536 C   0  0  0  0  0  0  0  0  0  0  0  0
   -3.2630   -4.4096   -1.4505 C   0  0  0  0  0  0  0  0  0  0  0  0
   -3.0150   -5.5885   -0.5696 C   0  0  0  0  0  0  0  0  0  0  0  0
   -2.2450   -3.7188    1.1234 O   0  0  0  0  0  0  0  0  0  0  0  0
   -4.0446   -2.2954    0.5223 C   0  0  0  0  0  0  0  0  0  0  0  0
   -4.0601   -0.7913    0.6994 C   0  0  0  0  0  0  0  0  0  0  0  0
   -2.7348   -0.3794    0.1043 C   0  0  1  0  0  0  0  0  0  0  0  0
   -2.2670    0.9504    0.4997 C   0  0  2  0  0  0  0  0  0  0  0  0
   -2.8132    2.0389   -0.3926 C   0  0  0  0  0  0  0  0  0  0  0  0
    0.6562    6.7341    0.2384 H   0  0  0  0  0  0  0  0  0  0  0  0
   -1.5804    5.0734    0.4453 H   0  0  0  0  0  0  0  0  0  0  0  0
   -0.2307    4.7675    2.2702 H   0  0  0  0  0  0  0  0  0  0  0  0
    1.3000    5.2513    1.4347 H   0  0  0  0  0  0  0  0  0  0  0  0
    0.8629    4.5209   -1.3034 H   0  0  0  0  0  0  0  0  0  0  0  0
   -0.8111    4.8174   -1.8817 H   0  0  0  0  0  0  0  0  0  0  0  0
    0.2576    2.3719   -1.5666 H   0  0  0  0  0  0  0  0  0  0  0  0
   -1.8266    1.8645   -2.3469 H   0  0  0  0  0  0  0  0  0  0  0  0
   -2.3451    3.4774   -1.8486 H   0  0  0  0  0  0  0  0  0  0  0  0
   -1.3731    3.1057    0.9164 H   0  0  0  0  0  0  0  0  0  0  0  0
    1.0024    2.7013    2.0776 H   0  0  0  0  0  0  0  0  0  0  0  0
    1.6161    3.2130    0.4829 H   0  0  0  0  0  0  0  0  0  0  0  0
   -0.4897    0.8568    1.7877 H   0  0  0  0  0  0  0  0  0  0  0  0
   -0.2628    0.4518   -1.2134 H   0  0  0  0  0  0  0  0  0  0  0  0
    1.8683    1.0264   -0.3917 H   0  0  0  0  0  0  0  0  0  0  0  0
    1.3243   -1.0399   -1.8982 H   0  0  0  0  0  0  0  0  0  0  0  0
    2.0172   -1.9676   -0.4648 H   0  0  0  0  0  0  0  0  0  0  0  0
    3.9704   -1.4498   -1.7124 H   0  0  0  0  0  0  0  0  0  0  0  0
    3.3090    0.1411   -2.1622 H   0  0  0  0  0  0  0  0  0  0  0  0
    3.9509    1.2373   -0.2675 H   0  0  0  0  0  0  0  0  0  0  0  0
    7.1757    0.5089   -1.0924 H   0  0  0  0  0  0  0  0  0  0  0  0
    5.6888    1.1431   -1.8231 H   0  0  0  0  0  0  0  0  0  0  0  0
    6.1839   -0.5331   -2.1256 H   0  0  0  0  0  0  0  0  0  0  0  0
    6.6364   -1.8842   -0.4335 H   0  0  0  0  0  0  0  0  0  0  0  0
    5.9642   -1.7049    1.2084 H   0  0  0  0  0  0  0  0  0  0  0  0
    4.9151   -2.2686   -0.1015 H   0  0  0  0  0  0  0  0  0  0  0  0
    3.9376    0.4771    1.9065 H   0  0  0  0  0  0  0  0  0  0  0  0
    3.9364   -1.2366    1.4587 H   0  0  0  0  0  0  0  0  0  0  0  0
    1.6993    0.4190    2.1304 H   0  0  0  0  0  0  0  0  0  0  0  0
    1.6922   -1.2716    1.6474 H   0  0  0  0  0  0  0  0  0  0  0  0
   -0.6034   -1.7445   -1.0946 H   0  0  0  0  0  0  0  0  0  0  0  0
    0.2044   -1.9726    0.4556 H   0  0  0  0  0  0  0  0  0  0  0  0
   -2.2181   -0.6475    2.6081 H   0  0  0  0  0  0  0  0  0  0  0  0
   -0.6075   -1.5172    2.3455 H   0  0  0  0  0  0  0  0  0  0  0  0
   -2.1130   -2.4165    2.5778 H   0  0  0  0  0  0  0  0  0  0  0  0
   -1.3515   -3.5927   -1.1907 H   0  0  0  0  0  0  0  0  0  0  0  0
   -2.5896   -2.4630   -1.9442 H   0  0  0  0  0  0  0  0  0  0  0  0
   -4.3521   -4.1644   -1.4947 H   0  0  0  0  0  0  0  0  0  0  0  0
   -3.0016   -4.7236   -2.5002 H   0  0  0  0  0  0  0  0  0  0  0  0
   -3.3756   -6.4986   -1.1131 H   0  0  0  0  0  0  0  0  0  0  0  0
   -3.5310   -5.5282    0.4229 H   0  0  0  0  0  0  0  0  0  0  0  0
   -1.9426   -5.7391   -0.4142 H   0  0  0  0  0  0  0  0  0  0  0  0
   -1.3007   -3.9262    1.0139 H   0  0  0  0  0  0  0  0  0  0  0  0
   -4.4014   -2.8113    1.4395 H   0  0  0  0  0  0  0  0  0  0  0  0
   -4.7445   -2.5420   -0.2999 H   0  0  0  0  0  0  0  0  0  0  0  0
   -4.0776   -0.5229    1.7807 H   0  0  0  0  0  0  0  0  0  0  0  0
   -4.9216   -0.3279    0.1798 H   0  0  0  0  0  0  0  0  0  0  0  0
   -2.8069   -0.4984   -0.9881 H   0  0  0  0  0  0  0  0  0  0  0  0
   -2.7038    1.1750    1.5232 H   0  0  0  0  0  0  0  0  0  0  0  0
   -3.7055    1.5821   -0.9168 H   0  0  0  0  0  0  0  0  0  0  0  0
   -3.2483    2.8961    0.1698 H   0  0  0  0  0  0  0  0  0  0  0  0
  1  2  1  0
  2  3  1  0
  2  4  1  0
  4  5  1  0
  5  6  1  0
  5  7  1  0
  3  8  1  0
  7  8  1  0
  7  9  1  0
  9 10  1  0
 10 11  1  0
 11 12  1  0
 12 13  1  0
 13 14  1  0
 14 15  1  0
 15 16  1  0
 15 17  1  0
 14 18  1  0
 11 19  1  0
 18 19  1  0
 10 20  1  0
 20 21  1  0
 21 22  1  1
 21 23  1  0
 23 24  1  0
 24 25  1  0
 25 26  1  0
 23 27  1  1
 23 28  1  0
 28 29  1  0
 21 30  1  0
 29 30  1  0
  9 31  1  0
 30 31  1  0
  6 32  1  0
 31 32  1  0
  1 33  1  0
  2 34  1  0
  3 35  1  0
  3 36  1  0
  4 37  1  0
  4 38  1  0
  5 39  1  0
  6 40  1  0
  6 41  1  0
  7 42  1  1
  8 43  1  0
  8 44  1  0
  9 45  1  0
 10 46  1  6
 11 47  1  0
 12 48  1  0
 12 49  1  0
 13 50  1  0
 13 51  1  0
 14 52  1  0
 16 53  1  0
 16 54  1  0
 16 55  1  0
 17 56  1  0
 17 57  1  0
 17 58  1  0
 18 59  1  0
 18 60  1  0
 19 61  1  0
 19 62  1  0
 20 63  1  0
 20 64  1  0
 22 65  1  0
 22 66  1  0
 22 67  1  0
 24 68  1  0
 24 69  1  0
 25 70  1  0
 25 71  1  0
 26 72  1  0
 26 73  1  0
 26 74  1  0
 27 75  1  0
 28 76  1  0
 28 77  1  0
 29 78  1  0
 29 79  1  0
 30 80  1  6
 31 81  1  1
 32 82  1  0
 32 83  1  0
M  END
>  <PDBID>  (1) 
2W8Y

>  <PDB ID>  (1) 
2W8Y

>  <Generic Name>  (1) 
Mifepristone

>  <Brand Name>  (1) 
Korlym#Mifegymiso#Corlux#Mefipil#Mifegyne#Mifeprex

>  <DrugBank ID>  (1) 
DB00834

>  <ATC Codes>  (1) 
G03XB01#G03XB51

>  <Ligand ID>  (1) 
486

>  <Target Name>  (1) 
Progesterone receptor

>  <UniProt ID>  (1) 
P06401

>  <PDB ID.1>  (1) 
2W8Y

>  <Seq. Identity>  (1) 
96%

$$$$
