PDB_DB00705_06
     RDKit          3D

 78 81  0  0  0  0  0  0  0  0999 V2000
   -3.9412   -1.0394   -0.6493 C   0  0  0  0  0  0  0  0  0  0  0  0
   -5.1098   -0.9661    0.2807 C   0  0  0  0  0  0  0  0  0  0  0  0
   -4.9444   -1.8189    1.5327 C   0  0  0  0  0  0  0  0  0  0  0  0
   -4.6517   -3.2580    1.1578 C   0  0  0  0  0  0  0  0  0  0  0  0
   -3.7110   -3.3340   -0.0228 C   0  0  0  0  0  0  0  0  0  0  0  0
   -2.7184    0.8255    0.3354 C   0  0  0  0  0  0  0  0  0  0  0  0
   -1.2007    0.8763    0.3590 C   0  0  0  0  0  0  0  0  0  0  0  0
   -1.5184    1.4295   -1.9630 C   0  0  0  0  0  0  0  0  0  0  0  0
   -2.7089    0.4685   -2.0553 C   0  0  0  0  0  0  0  0  0  0  0  0
    0.6180    1.7138   -1.0452 C   0  0  0  0  0  0  0  0  0  0  0  0
    1.8015    1.0927   -0.4007 C   0  0  0  0  0  0  0  0  0  0  0  0
    2.9798    2.0715   -0.5371 C   0  0  0  0  0  0  0  0  0  0  0  0
    5.0992    0.8464   -0.0533 C   0  0  0  0  0  0  0  0  0  0  0  0
    5.0415   -0.6423    0.0014 C   0  0  0  0  0  0  0  0  0  0  0  0
    4.7690   -1.0099    1.4674 C   0  0  0  0  0  0  0  0  0  0  0  0
    3.3356   -0.5847    1.7069 C   0  0  0  0  0  0  0  0  0  0  0  0
    3.0938    0.8542    1.5002 C   0  0  0  0  0  0  0  0  0  0  0  0
    3.9584    1.5770    0.5370 C   0  0  0  0  0  0  0  0  0  0  0  0
   -5.8655    1.2861   -0.2906 C   0  0  0  0  0  0  0  0  0  0  0  0
   -7.1926    0.9072   -0.9258 C   0  0  0  0  0  0  0  0  0  0  0  0
   -6.1869    2.5811    0.4891 C   0  0  0  0  0  0  0  0  0  0  0  0
    8.4794   -2.6241    0.1087 C   0  0  0  0  0  0  0  0  0  0  0  0
   -5.4089    0.3561    0.6644 N   0  0  0  0  0  0  0  0  0  0  0  0
   -3.0245   -2.1120   -0.2762 N   0  0  0  0  0  0  0  0  0  0  0  0
   -3.3074    0.2116   -0.7714 N   0  0  0  0  0  0  0  0  0  0  0  0
   -0.6243    1.0339   -0.9129 N   0  0  0  0  0  0  0  0  0  0  0  0
    1.6975    1.0105    1.0190 N   0  0  0  0  0  0  0  0  0  0  0  0
    6.2520   -1.2168   -0.4958 N   0  0  0  0  0  0  0  0  0  0  0  0
    0.8517    1.7727   -2.4590 O   0  0  0  0  0  0  0  0  0  0  0  0
    8.6936   -0.2500   -1.1749 O   0  0  0  0  0  0  0  0  0  0  0  0
    7.8914   -0.2375    1.3189 O   0  0  0  0  0  0  0  0  0  0  0  0
    7.6463   -0.9692    0.1010 S   0  0  0  0  0  0  0  0  0  0  0  0
   -4.2947   -1.3404   -1.6842 H   0  0  0  0  0  0  0  0  0  0  0  0
   -5.9760   -1.4356   -0.3137 H   0  0  0  0  0  0  0  0  0  0  0  0
   -5.8954   -1.8091    2.0933 H   0  0  0  0  0  0  0  0  0  0  0  0
   -4.1194   -1.4797    2.1708 H   0  0  0  0  0  0  0  0  0  0  0  0
   -4.1381   -3.7220    2.0222 H   0  0  0  0  0  0  0  0  0  0  0  0
   -5.6033   -3.7620    0.9989 H   0  0  0  0  0  0  0  0  0  0  0  0
   -4.3080   -3.6490   -0.9005 H   0  0  0  0  0  0  0  0  0  0  0  0
   -2.9368   -4.1313    0.1286 H   0  0  0  0  0  0  0  0  0  0  0  0
   -3.0507    1.9107    0.3337 H   0  0  0  0  0  0  0  0  0  0  0  0
   -3.0784    0.4269    1.2780 H   0  0  0  0  0  0  0  0  0  0  0  0
   -0.7726   -0.0251    0.8608 H   0  0  0  0  0  0  0  0  0  0  0  0
   -0.9291    1.7449    1.0055 H   0  0  0  0  0  0  0  0  0  0  0  0
   -1.8659    2.4845   -1.8103 H   0  0  0  0  0  0  0  0  0  0  0  0
   -0.9696    1.3292   -2.9327 H   0  0  0  0  0  0  0  0  0  0  0  0
   -2.4104   -0.4395   -2.5881 H   0  0  0  0  0  0  0  0  0  0  0  0
   -3.4676    0.9930   -2.6786 H   0  0  0  0  0  0  0  0  0  0  0  0
    0.5369    2.7752   -0.6934 H   0  0  0  0  0  0  0  0  0  0  0  0
    2.0939    0.1289   -0.8714 H   0  0  0  0  0  0  0  0  0  0  0  0
    3.4307    2.0485   -1.5266 H   0  0  0  0  0  0  0  0  0  0  0  0
    2.6271    3.0911   -0.3221 H   0  0  0  0  0  0  0  0  0  0  0  0
    5.1773    1.1366   -1.1420 H   0  0  0  0  0  0  0  0  0  0  0  0
    6.0840    1.1561    0.3833 H   0  0  0  0  0  0  0  0  0  0  0  0
    4.1529   -1.0396   -0.5569 H   0  0  0  0  0  0  0  0  0  0  0  0
    5.4136   -0.3624    2.0948 H   0  0  0  0  0  0  0  0  0  0  0  0
    4.8563   -2.0783    1.6543 H   0  0  0  0  0  0  0  0  0  0  0  0
    2.7040   -1.1877    1.0194 H   0  0  0  0  0  0  0  0  0  0  0  0
    3.0329   -0.8867    2.7532 H   0  0  0  0  0  0  0  0  0  0  0  0
    3.0874    1.3525    2.5084 H   0  0  0  0  0  0  0  0  0  0  0  0
    4.3434    2.4993    1.0298 H   0  0  0  0  0  0  0  0  0  0  0  0
   -5.1407    1.5804   -1.0530 H   0  0  0  0  0  0  0  0  0  0  0  0
   -7.1004    0.0604   -1.6157 H   0  0  0  0  0  0  0  0  0  0  0  0
   -7.9474    0.8254   -0.1471 H   0  0  0  0  0  0  0  0  0  0  0  0
   -7.4814    1.7868   -1.5650 H   0  0  0  0  0  0  0  0  0  0  0  0
   -6.6909    2.2360    1.4169 H   0  0  0  0  0  0  0  0  0  0  0  0
   -6.8497    3.2135   -0.1032 H   0  0  0  0  0  0  0  0  0  0  0  0
   -5.2436    3.0973    0.7879 H   0  0  0  0  0  0  0  0  0  0  0  0
    9.5520   -2.4209    0.0045 H   0  0  0  0  0  0  0  0  0  0  0  0
    8.2068   -3.1017    1.0655 H   0  0  0  0  0  0  0  0  0  0  0  0
    8.0393   -3.1635   -0.7659 H   0  0  0  0  0  0  0  0  0  0  0  0
   -5.9199    0.4030    1.5726 H   0  0  0  0  0  0  0  0  0  0  0  0
   -2.4143   -2.2666   -1.1211 H   0  0  0  0  0  0  0  0  0  0  0  0
    1.3677    1.9713    1.3552 H   0  0  0  0  0  0  0  0  0  0  0  0
    6.0869   -2.0384   -1.1295 H   0  0  0  0  0  0  0  0  0  0  0  0
    1.1530    0.8812   -2.7243 H   0  0  0  0  0  0  0  0  0  0  0  0
    8.0628   -0.1556   -1.9416 H   0  0  0  0  0  0  0  0  0  0  0  0
    8.5012    0.5106    1.4986 H   0  0  0  0  0  0  0  0  0  0  0  0
  1  2  1  0
  2  3  1  0
  3  4  1  0
  4  5  1  0
  6  7  1  0
  8  9  1  0
 10 11  1  0
 11 12  1  0
 13 14  1  0
 14 15  1  0
 15 16  1  0
 16 17  1  0
 12 18  1  0
 13 18  1  0
 17 18  1  0
 19 20  1  0
 19 21  1  0
  2 23  1  0
 19 23  1  0
  1 24  1  0
  5 24  1  0
  1 25  1  0
  6 25  1  0
  9 25  1  0
  7 26  1  0
  8 26  1  0
 10 26  1  0
 11 27  1  0
 17 27  1  0
 14 28  1  0
 10 29  1  0
 22 32  1  0
 28 32  1  0
 32 30  1  0
 31 32  1  0
  1 33  1  0
  2 34  1  0
  3 35  1  0
  3 36  1  0
  4 37  1  0
  4 38  1  0
  5 39  1  0
  5 40  1  0
  6 41  1  0
  6 42  1  0
  7 43  1  0
  7 44  1  0
  8 45  1  0
  8 46  1  0
  9 47  1  0
  9 48  1  0
 10 49  1  0
 11 50  1  0
 12 51  1  0
 12 52  1  0
 13 53  1  0
 13 54  1  0
 14 55  1  0
 15 56  1  0
 15 57  1  0
 16 58  1  0
 16 59  1  0
 17 60  1  0
 18 61  1  0
 19 62  1  0
 20 63  1  0
 20 64  1  0
 20 65  1  0
 21 66  1  0
 21 67  1  0
 21 68  1  0
 22 69  1  0
 22 70  1  0
 22 71  1  0
 23 72  1  0
 24 73  1  0
 27 74  1  0
 28 75  1  0
 29 76  1  0
 30 77  1  0
 31 78  1  0
M  END
>  <PDBID>  (1) 
1KLM

>  <PDB ID>  (1) 
1KLM

>  <Generic Name>  (1) 
Delavirdine

>  <Brand Name>  (1) 
Rescriptor

>  <DrugBank ID>  (1) 
DB00705

>  <ATC Codes>  (1) 
J05AG02

>  <Ligand ID>  (1) 
SPP

>  <Target Name>  (1) 
Reverse transcriptase/RNaseH

>  <UniProt ID>  (1) 
Q72547

>  <PDB ID.1>  (1) 
1KLM

>  <Seq. Identity>  (1) 
95%

$$$$
