PDB_DB06401_03
     RDKit          3D

348367  0  0  0  0  0  0  0  0999 V2000
    4.9958   -1.2109    0.5061 C   0  0  1  0  0  0  0  0  0  0  0  0
    5.5615   -2.6277    0.6223 C   0  0  0  0  0  0  0  0  0  0  0  0
    6.0740   -2.9344    2.0022 C   0  0  0  0  0  0  0  0  0  0  0  0
    7.1204   -1.8781    2.3379 C   0  0  0  0  0  0  0  0  0  0  0  0
    6.3811   -0.5903    2.5250 C   0  0  0  0  0  0  0  0  0  0  0  0
    5.3886   -0.2805    1.4659 C   0  0  1  0  0  0  0  0  0  0  0  0
    5.9404   -0.2535    0.1023 N   0  0  0  0  0  0  0  0  0  0  0  0
    5.7859    1.0028   -0.5335 C   0  0  0  0  0  0  0  0  0  0  0  0
    5.2633    1.0031   -1.9239 C   0  0  0  0  0  0  0  0  0  0  0  0
    3.9878    0.5798   -2.1401 O   0  0  0  0  0  0  0  0  0  0  0  0
    3.0187    1.4260   -1.6155 C   0  0  0  0  0  0  0  0  0  0  0  0
    2.1263    1.9904   -2.7042 C   0  0  0  0  0  0  0  0  0  0  0  0
    0.8752    1.1496   -2.8377 C   0  0  0  0  0  0  0  0  0  0  0  0
    2.1336    0.6823   -0.6713 C   0  0  0  0  0  0  0  0  0  0  0  0
    0.7884    1.3531   -0.4326 C   0  0  0  0  0  0  0  0  0  0  0  0
   -0.0699    1.4192   -1.6554 C   0  0  0  0  0  0  0  0  0  0  0  0
   -1.1399    0.4066   -1.7279 C   0  0  0  0  0  0  0  0  0  0  0  0
   -2.1397    0.5205   -0.6776 N   0  0  0  0  0  0  0  0  0  0  0  0
   -2.8900    1.7201   -0.8787 C   0  0  0  0  0  0  0  0  0  0  0  0
   -2.8276    2.7115    0.2246 C   0  0  0  0  0  0  0  0  0  0  0  0
   -4.0650    3.0175    0.9582 C   0  0  0  0  0  0  0  0  0  0  0  0
   -5.2883    3.0711    0.1309 C   0  0  0  0  0  0  0  0  0  0  0  0
   -5.5430    4.4377   -0.1545 O   0  0  0  0  0  0  0  0  0  0  0  0
   -5.3433    2.2200   -1.0816 C   0  0  0  0  0  0  0  0  0  0  0  0
   -4.2560    1.2662   -1.3002 C   0  0  0  0  0  0  0  0  0  0  0  0
   -4.4231   -0.1356   -0.7308 C   0  0  0  0  0  0  0  0  0  0  0  0
   -5.2611   -0.2281    0.4803 C   0  0  0  0  0  0  0  0  0  0  0  0
   -3.0288   -0.6286   -0.6919 C   0  0  2  0  0  0  0  0  0  0  0  0
   -2.6096   -1.7139    0.2043 C   0  0  0  0  0  0  0  0  0  0  0  0
   -3.5029   -2.9351    0.1878 C   0  0  0  0  0  0  0  0  0  0  0  0
   -3.9754   -3.3373    1.5722 C   0  0  0  0  0  0  0  0  0  0  0  0
   -2.8099   -3.6223    2.4932 C   0  0  0  0  0  0  0  0  0  0  0  0
   -3.2227   -3.2299    3.7883 O   0  0  0  0  0  0  0  0  0  0  0  0
   -1.6174   -2.7198    2.1565 C   0  0  0  0  0  0  0  0  0  0  0  0
   -2.2586   -1.4217    1.6126 C   0  0  0  0  0  0  0  0  0  0  0  0
    8.1847    0.7517   -0.4760 C   0  0  1  0  0  0  0  0  0  0  0  0
    9.0374   -0.4722   -0.5369 C   0  0  0  0  0  0  0  0  0  0  0  0
    8.3721   -1.6824   -1.0860 C   0  0  0  0  0  0  0  0  0  0  0  0
    6.9084   -1.5453   -1.3465 C   0  0  0  0  0  0  0  0  0  0  0  0
    6.7010   -0.3053   -2.1915 C   0  0  0  0  0  0  0  0  0  0  0  0
    7.0953    0.8875   -1.3721 C   0  0  1  0  0  0  0  0  0  0  0  0
    6.8564    0.7043    0.0729 N   0  0  0  0  0  0  0  0  0  0  0  0
    6.3699    1.8897    0.7421 C   0  0  0  0  0  0  0  0  0  0  0  0
    4.9853    1.6922    1.2738 C   0  0  0  0  0  0  0  0  0  0  0  0
    4.0507    1.3875    0.2761 O   0  0  0  0  0  0  0  0  0  0  0  0
    2.7938    1.2153    0.8406 C   0  0  0  0  0  0  0  0  0  0  0  0
    1.7606    2.1485    0.2361 C   0  0  0  0  0  0  0  0  0  0  0  0
    0.9764    1.4931   -0.8544 C   0  0  0  0  0  0  0  0  0  0  0  0
    2.2930   -0.1962    0.6145 C   0  0  0  0  0  0  0  0  0  0  0  0
    0.7866   -0.1308    0.9414 C   0  0  0  0  0  0  0  0  0  0  0  0
    0.1053    0.3227   -0.3107 C   0  0  0  0  0  0  0  0  0  0  0  0
   -1.2806    0.7888   -0.1331 C   0  0  0  0  0  0  0  0  0  0  0  0
   -2.3103   -0.0737    0.2975 N   0  0  0  0  0  0  0  0  0  0  0  0
   -2.3205   -0.5483    1.6291 C   0  0  0  0  0  0  0  0  0  0  0  0
   -2.2639   -2.0347    1.6686 C   0  0  0  0  0  0  0  0  0  0  0  0
   -2.5004   -2.5803    3.0721 C   0  0  0  0  0  0  0  0  0  0  0  0
   -3.9919   -2.2941    3.3051 C   0  0  0  0  0  0  0  0  0  0  0  0
   -4.4129   -2.8686    4.4997 O   0  0  0  0  0  0  0  0  0  0  0  0
   -4.1039   -0.8156    3.4130 C   0  0  0  0  0  0  0  0  0  0  0  0
   -3.5541   -0.0020    2.3228 C   0  0  0  0  0  0  0  0  0  0  0  0
   -4.5313    0.1538    1.1432 C   0  0  1  0  0  0  0  0  0  0  0  0
   -5.5556    1.2346    1.4040 C   0  0  0  0  0  0  0  0  0  0  0  0
   -3.6178    0.5169    0.0229 C   0  0  2  0  0  0  0  0  0  0  0  0
   -4.0322    0.2588   -1.3497 C   0  0  0  0  0  0  0  0  0  0  0  0
   -4.1904   -1.1913   -1.7352 C   0  0  0  0  0  0  0  0  0  0  0  0
   -5.4776   -1.4525   -2.4988 C   0  0  0  0  0  0  0  0  0  0  0  0
   -5.4324   -0.5510   -3.7278 C   0  0  0  0  0  0  0  0  0  0  0  0
   -6.6213   -0.7727   -4.4256 O   0  0  0  0  0  0  0  0  0  0  0  0
   -5.2824    0.8964   -3.3325 C   0  0  0  0  0  0  0  0  0  0  0  0
   -5.2510    1.0413   -1.8060 C   0  0  0  0  0  0  0  0  0  0  0  0
    5.9750    0.9506   -1.0392 C   0  0  0  0  0  0  0  0  0  0  0  0
    7.4471    0.9642   -1.3031 C   0  0  0  0  0  0  0  0  0  0  0  0
    8.1362   -0.3213   -0.9950 C   0  0  0  0  0  0  0  0  0  0  0  0
    7.2249   -1.4875   -0.8205 C   0  0  0  0  0  0  0  0  0  0  0  0
    6.4322   -1.4052    0.4460 C   0  0  0  0  0  0  0  0  0  0  0  0
    6.4563   -0.0498    1.1002 C   0  0  0  0  0  0  0  0  0  0  0  0
    5.6367    0.8691    0.3762 N   0  0  0  0  0  0  0  0  0  0  0  0
    5.4223    2.1147    1.0038 C   0  0  0  0  0  0  0  0  0  0  0  0
    4.1703    2.8544    0.6612 C   0  0  0  0  0  0  0  0  0  0  0  0
    3.0476    2.2114    1.0430 O   0  0  0  0  0  0  0  0  0  0  0  0
    2.7406    1.0422    0.5039 C   0  0  0  0  0  0  0  0  0  0  0  0
    2.6324   -0.1034    1.5107 C   0  0  0  0  0  0  0  0  0  0  0  0
    1.2315   -0.3379    1.9958 C   0  0  0  0  0  0  0  0  0  0  0  0
    1.3756    1.1193   -0.2381 C   0  0  0  0  0  0  0  0  0  0  0  0
    0.9427   -0.3163   -0.3988 C   0  0  0  0  0  0  0  0  0  0  0  0
    0.3336   -0.8659    0.8630 C   0  0  0  0  0  0  0  0  0  0  0  0
   -1.0480   -0.3887    1.1602 C   0  0  0  0  0  0  0  0  0  0  0  0
   -2.0738   -0.7174    0.3002 N   0  0  0  0  0  0  0  0  0  0  0  0
   -2.5431   -2.0214    0.1228 C   0  0  0  0  0  0  0  0  0  0  0  0
   -3.3787   -2.6269    1.1946 C   0  0  0  0  0  0  0  0  0  0  0  0
   -4.8405   -2.6248    1.0221 C   0  0  0  0  0  0  0  0  0  0  0  0
   -5.3738   -2.8004   -0.3505 C   0  0  0  0  0  0  0  0  0  0  0  0
   -6.2072   -3.9393   -0.4678 O   0  0  0  0  0  0  0  0  0  0  0  0
   -4.3413   -2.9244   -1.4099 C   0  0  0  0  0  0  0  0  0  0  0  0
   -3.1389   -2.0569   -1.2570 C   0  0  0  0  0  0  0  0  0  0  0  0
   -3.4118   -0.5831   -1.6101 C   0  0  0  0  0  0  0  0  0  0  0  0
   -2.9549   -0.4135   -3.0452 C   0  0  0  0  0  0  0  0  0  0  0  0
   -2.5909    0.2058   -0.6302 C   0  0  1  0  0  0  0  0  0  0  0  0
   -3.2314    1.4201   -0.0324 C   0  0  0  0  0  0  0  0  0  0  0  0
   -3.8068    2.4072   -0.9707 C   0  0  0  0  0  0  0  0  0  0  0  0
   -5.3026    2.4532   -1.0373 C   0  0  0  0  0  0  0  0  0  0  0  0
   -5.9507    2.4265    0.3307 C   0  0  0  0  0  0  0  0  0  0  0  0
   -7.3469    2.3855    0.0983 O   0  0  0  0  0  0  0  0  0  0  0  0
   -5.5460    1.0891    0.9416 C   0  0  0  0  0  0  0  0  0  0  0  0
   -4.0796    1.1505    1.1881 C   0  0  0  0  0  0  0  0  0  0  0  0
    6.4651   -1.0612    0.0326 C   0  0  2  0  0  0  0  0  0  0  0  0
    5.9930   -2.4273    0.4822 C   0  0  0  0  0  0  0  0  0  0  0  0
    5.0437   -2.2178    1.6515 C   0  0  0  0  0  0  0  0  0  0  0  0
    5.8878   -1.6649    2.7885 C   0  0  0  0  0  0  0  0  0  0  0  0
    6.3141   -0.2799    2.4259 C   0  0  0  0  0  0  0  0  0  0  0  0
    6.6728   -0.0757    1.0059 C   0  0  2  0  0  0  0  0  0  0  0  0
    5.4669   -0.0419    0.0699 N   0  0  0  0  0  0  0  0  0  0  0  0
    5.4292    1.0657   -0.8260 C   0  0  0  0  0  0  0  0  0  0  0  0
    5.1179    0.6940   -2.2445 C   0  0  0  0  0  0  0  0  0  0  0  0
    3.9313    0.0846   -2.4700 O   0  0  0  0  0  0  0  0  0  0  0  0
    2.7745    0.7375   -2.1454 C   0  0  0  0  0  0  0  0  0  0  0  0
    1.8164    0.9226   -3.2819 C   0  0  0  0  0  0  0  0  0  0  0  0
    0.5507    0.1176   -3.1242 C   0  0  0  0  0  0  0  0  0  0  0  0
    2.0739   -0.0582   -1.0665 C   0  0  0  0  0  0  0  0  0  0  0  0
    0.7111    0.4432   -0.7198 C   0  0  0  0  0  0  0  0  0  0  0  0
   -0.1677    0.6888   -1.8925 C   0  0  0  0  0  0  0  0  0  0  0  0
   -1.5119    0.0852   -1.8658 C   0  0  0  0  0  0  0  0  0  0  0  0
   -2.3644    0.4739   -0.7891 N   0  0  0  0  0  0  0  0  0  0  0  0
   -2.7989    1.8175   -0.8007 C   0  0  0  0  0  0  0  0  0  0  0  0
   -2.2885    2.6084    0.3626 C   0  0  0  0  0  0  0  0  0  0  0  0
   -3.2047    2.7411    1.5111 C   0  0  0  0  0  0  0  0  0  0  0  0
   -4.5822    3.1818    1.1626 C   0  0  0  0  0  0  0  0  0  0  0  0
   -4.6433    4.5758    1.4208 O   0  0  0  0  0  0  0  0  0  0  0  0
   -4.9946    2.8841   -0.2408 C   0  0  0  0  0  0  0  0  0  0  0  0
   -4.2946    1.7645   -0.9075 C   0  0  0  0  0  0  0  0  0  0  0  0
   -4.7361    0.3671   -0.5644 C   0  0  0  0  0  0  0  0  0  0  0  0
   -5.6052    0.2514    0.6265 C   0  0  0  0  0  0  0  0  0  0  0  0
   -3.5113   -0.4214   -0.6385 C   0  0  2  0  0  0  0  0  0  0  0  0
   -3.1353   -1.4361    0.3518 C   0  0  0  0  0  0  0  0  0  0  0  0
   -4.1663   -2.4948    0.6699 C   0  0  0  0  0  0  0  0  0  0  0  0
   -3.3639   -3.7002    1.2049 C   0  0  0  0  0  0  0  0  0  0  0  0
   -2.5760   -3.2809    2.4334 C   0  0  0  0  0  0  0  0  0  0  0  0
   -3.5245   -2.8981    3.3897 O   0  0  0  0  0  0  0  0  0  0  0  0
   -1.6697   -2.0989    2.1748 C   0  0  0  0  0  0  0  0  0  0  0  0
   -2.5501   -0.9731    1.6468 C   0  0  0  0  0  0  0  0  0  0  0  0
    4.0157   -1.2225    0.0210 H   0  0  0  0  0  0  0  0  0  0  0  0
    6.4079   -2.7397   -0.0853 H   0  0  0  0  0  0  0  0  0  0  0  0
    4.8170   -3.4056    0.3728 H   0  0  0  0  0  0  0  0  0  0  0  0
    5.2807   -2.9150    2.7587 H   0  0  0  0  0  0  0  0  0  0  0  0
    6.5552   -3.9333    1.9587 H   0  0  0  0  0  0  0  0  0  0  0  0
    7.8967   -1.7903    1.5779 H   0  0  0  0  0  0  0  0  0  0  0  0
    7.5747   -2.1329    3.3387 H   0  0  0  0  0  0  0  0  0  0  0  0
    7.1391    0.2443    2.5783 H   0  0  0  0  0  0  0  0  0  0  0  0
    5.8608   -0.5576    3.5167 H   0  0  0  0  0  0  0  0  0  0  0  0
    4.6781    0.5489    1.7568 H   0  0  0  0  0  0  0  0  0  0  0  0
    5.2468    1.7565    0.1187 H   0  0  0  0  0  0  0  0  0  0  0  0
    6.8368    1.4471   -0.5689 H   0  0  0  0  0  0  0  0  0  0  0  0
    5.4663    1.9812   -2.4557 H   0  0  0  0  0  0  0  0  0  0  0  0
    5.9280    0.2869   -2.5008 H   0  0  0  0  0  0  0  0  0  0  0  0
    3.5472    2.2552   -1.1151 H   0  0  0  0  0  0  0  0  0  0  0  0
    1.8115    3.0012   -2.3791 H   0  0  0  0  0  0  0  0  0  0  0  0
    2.6024    2.0525   -3.6766 H   0  0  0  0  0  0  0  0  0  0  0  0
    0.3259    1.5086   -3.7353 H   0  0  0  0  0  0  0  0  0  0  0  0
    1.0896    0.0810   -2.9321 H   0  0  0  0  0  0  0  0  0  0  0  0
    2.6384    0.6881    0.3212 H   0  0  0  0  0  0  0  0  0  0  0  0
    1.9553   -0.3377   -1.0494 H   0  0  0  0  0  0  0  0  0  0  0  0
    1.0193    2.3615   -0.0182 H   0  0  0  0  0  0  0  0  0  0  0  0
    0.3034    0.7871    0.4021 H   0  0  0  0  0  0  0  0  0  0  0  0
   -0.3935    2.4724   -1.7972 H   0  0  0  0  0  0  0  0  0  0  0  0
   -1.6935    0.5556   -2.6868 H   0  0  0  0  0  0  0  0  0  0  0  0
   -0.6883   -0.5944   -1.7894 H   0  0  0  0  0  0  0  0  0  0  0  0
   -2.4232    2.2722   -1.7572 H   0  0  0  0  0  0  0  0  0  0  0  0
   -2.0956    2.2844    0.9825 H   0  0  0  0  0  0  0  0  0  0  0  0
   -2.3294    3.6874   -0.0502 H   0  0  0  0  0  0  0  0  0  0  0  0
   -3.9268    4.0161    1.4583 H   0  0  0  0  0  0  0  0  0  0  0  0
   -4.1675    2.3037    1.8134 H   0  0  0  0  0  0  0  0  0  0  0  0
   -6.1431    2.8169    0.8331 H   0  0  0  0  0  0  0  0  0  0  0  0
   -6.4771    4.6795   -0.0633 H   0  0  0  0  0  0  0  0  0  0  0  0
   -5.3762    2.9565   -1.9573 H   0  0  0  0  0  0  0  0  0  0  0  0
   -6.3450    1.7483   -1.1564 H   0  0  0  0  0  0  0  0  0  0  0  0
   -4.1827    1.1124   -2.4251 H   0  0  0  0  0  0  0  0  0  0  0  0
   -4.9995   -0.7379   -1.5088 H   0  0  0  0  0  0  0  0  0  0  0  0
   -4.8278    0.0539    1.4328 H   0  0  0  0  0  0  0  0  0  0  0  0
   -5.7925   -1.2061    0.4895 H   0  0  0  0  0  0  0  0  0  0  0  0
   -6.1419    0.4795    0.3638 H   0  0  0  0  0  0  0  0  0  0  0  0
   -2.8498   -1.1015   -1.7181 H   0  0  0  0  0  0  0  0  0  0  0  0
   -1.6172   -2.0759   -0.2316 H   0  0  0  0  0  0  0  0  0  0  0  0
   -4.3633   -2.8471   -0.4863 H   0  0  0  0  0  0  0  0  0  0  0  0
   -2.9578   -3.8546   -0.1881 H   0  0  0  0  0  0  0  0  0  0  0  0
   -4.7057   -2.6448    2.0168 H   0  0  0  0  0  0  0  0  0  0  0  0
   -4.5105   -4.3102    1.4297 H   0  0  0  0  0  0  0  0  0  0  0  0
   -2.5342   -4.6779    2.5508 H   0  0  0  0  0  0  0  0  0  0  0  0
   -1.0470   -2.4643    3.0643 H   0  0  0  0  0  0  0  0  0  0  0  0
   -1.0369   -3.2327    1.3879 H   0  0  0  0  0  0  0  0  0  0  0  0
   -3.0578   -1.2360    2.3228 H   0  0  0  0  0  0  0  0  0  0  0  0
   -1.4812   -0.6511    1.7498 H   0  0  0  0  0  0  0  0  0  0  0  0
    8.7717    1.6743   -0.2037 H   0  0  0  0  0  0  0  0  0  0  0  0
    9.9575   -0.1958   -1.1253 H   0  0  0  0  0  0  0  0  0  0  0  0
    9.4213   -0.6882    0.4907 H   0  0  0  0  0  0  0  0  0  0  0  0
    8.6082   -2.5744   -0.4399 H   0  0  0  0  0  0  0  0  0  0  0  0
    8.8705   -1.9285   -2.0665 H   0  0  0  0  0  0  0  0  0  0  0  0
    6.5950   -2.4094   -1.9732 H   0  0  0  0  0  0  0  0  0  0  0  0
    6.2921   -1.5340   -0.4346 H   0  0  0  0  0  0  0  0  0  0  0  0
    5.6542   -0.1955   -2.5028 H   0  0  0  0  0  0  0  0  0  0  0  0
    7.3805   -0.3920   -3.0674 H   0  0  0  0  0  0  0  0  0  0  0  0
    6.8179    1.8642   -1.8186 H   0  0  0  0  0  0  0  0  0  0  0  0
    7.0399    2.0487    1.6368 H   0  0  0  0  0  0  0  0  0  0  0  0
    6.4422    2.7744    0.0840 H   0  0  0  0  0  0  0  0  0  0  0  0
    4.9557    0.9571    2.0924 H   0  0  0  0  0  0  0  0  0  0  0  0
    4.6455    2.6669    1.7331 H   0  0  0  0  0  0  0  0  0  0  0  0
    2.8680    1.3674    1.9502 H   0  0  0  0  0  0  0  0  0  0  0  0
    2.2856    3.0098   -0.2113 H   0  0  0  0  0  0  0  0  0  0  0  0
    1.0451    2.5231    1.0091 H   0  0  0  0  0  0  0  0  0  0  0  0
    0.2821    2.2283   -1.2820 H   0  0  0  0  0  0  0  0  0  0  0  0
    1.6443    1.1366   -1.6474 H   0  0  0  0  0  0  0  0  0  0  0  0
    2.7737   -0.9345    1.2557 H   0  0  0  0  0  0  0  0  0  0  0  0
    2.4042   -0.4344   -0.4490 H   0  0  0  0  0  0  0  0  0  0  0  0
    0.6367    0.6197    1.7331 H   0  0  0  0  0  0  0  0  0  0  0  0
    0.4516   -1.0991    1.2684 H   0  0  0  0  0  0  0  0  0  0  0  0
    0.1616   -0.4559   -1.0884 H   0  0  0  0  0  0  0  0  0  0  0  0
   -1.6054    1.2068   -1.1416 H   0  0  0  0  0  0  0  0  0  0  0  0
   -1.2285    1.7303    0.5074 H   0  0  0  0  0  0  0  0  0  0  0  0
   -1.4587   -0.1461    2.1789 H   0  0  0  0  0  0  0  0  0  0  0  0
   -1.3476   -2.4872    1.2926 H   0  0  0  0  0  0  0  0  0  0  0  0
   -3.0893   -2.5014    1.0703 H   0  0  0  0  0  0  0  0  0  0  0  0
   -2.3903   -3.6682    3.0255 H   0  0  0  0  0  0  0  0  0  0  0  0
   -1.9085   -2.0791    3.8369 H   0  0  0  0  0  0  0  0  0  0  0  0
   -4.5777   -2.6536    2.4376 H   0  0  0  0  0  0  0  0  0  0  0  0
   -5.0171   -3.6172    4.2649 H   0  0  0  0  0  0  0  0  0  0  0  0
   -3.7075   -0.4881    4.4179 H   0  0  0  0  0  0  0  0  0  0  0  0
   -5.2102   -0.5905    3.4978 H   0  0  0  0  0  0  0  0  0  0  0  0
   -3.3490    1.0180    2.6891 H   0  0  0  0  0  0  0  0  0  0  0  0
   -5.0555   -0.7898    1.0487 H   0  0  0  0  0  0  0  0  0  0  0  0
   -5.3731    2.1372    0.7848 H   0  0  0  0  0  0  0  0  0  0  0  0
   -5.4343    1.5834    2.4672 H   0  0  0  0  0  0  0  0  0  0  0  0
   -6.5886    0.8538    1.2634 H   0  0  0  0  0  0  0  0  0  0  0  0
   -3.4242    1.6301    0.1458 H   0  0  0  0  0  0  0  0  0  0  0  0
   -3.2285    0.6520   -2.0477 H   0  0  0  0  0  0  0  0  0  0  0  0
   -4.0782   -1.8439   -0.8755 H   0  0  0  0  0  0  0  0  0  0  0  0
   -3.3797   -1.5096   -2.4550 H   0  0  0  0  0  0  0  0  0  0  0  0
   -5.4512   -2.5207   -2.7805 H   0  0  0  0  0  0  0  0  0  0  0  0
   -6.3831   -1.2834   -1.9192 H   0  0  0  0  0  0  0  0  0  0  0  0
   -4.5880   -0.8400   -4.3806 H   0  0  0  0  0  0  0  0  0  0  0  0
   -6.8484   -1.7287   -4.3037 H   0  0  0  0  0  0  0  0  0  0  0  0
   -6.1235    1.4682   -3.7719 H   0  0  0  0  0  0  0  0  0  0  0  0
   -4.3507    1.2999   -3.7584 H   0  0  0  0  0  0  0  0  0  0  0  0
   -5.1587    2.1256   -1.6040 H   0  0  0  0  0  0  0  0  0  0  0  0
   -6.1959    0.6874   -1.4272 H   0  0  0  0  0  0  0  0  0  0  0  0
    5.5546    1.9047   -1.4136 H   0  0  0  0  0  0  0  0  0  0  0  0
    5.4519    0.1421   -1.6139 H   0  0  0  0  0  0  0  0  0  0  0  0
    7.8702    1.8340   -0.7527 H   0  0  0  0  0  0  0  0  0  0  0  0
    7.5756    1.1853   -2.3908 H   0  0  0  0  0  0  0  0  0  0  0  0
    8.8077   -0.2700   -0.1019 H   0  0  0  0  0  0  0  0  0  0  0  0
    8.8414   -0.5933   -1.8364 H   0  0  0  0  0  0  0  0  0  0  0  0
    7.8856   -2.4004   -0.7354 H   0  0  0  0  0  0  0  0  0  0  0  0
    6.5980   -1.6965   -1.7094 H   0  0  0  0  0  0  0  0  0  0  0  0
    6.8097   -2.1299    1.2235 H   0  0  0  0  0  0  0  0  0  0  0  0
    5.3553   -1.6598    0.2835 H   0  0  0  0  0  0  0  0  0  0  0  0
    7.4708    0.3246    1.3101 H   0  0  0  0  0  0  0  0  0  0  0  0
    5.9751   -0.1893    2.1054 H   0  0  0  0  0  0  0  0  0  0  0  0
    5.3600    1.9067    2.1228 H   0  0  0  0  0  0  0  0  0  0  0  0
    6.3261    2.7878    0.9461 H   0  0  0  0  0  0  0  0  0  0  0  0
    4.2469    3.8915    1.1389 H   0  0  0  0  0  0  0  0  0  0  0  0
    4.1854    3.0520   -0.4653 H   0  0  0  0  0  0  0  0  0  0  0  0
    3.4157    0.6626   -0.2738 H   0  0  0  0  0  0  0  0  0  0  0  0
    3.1118   -1.0303    1.1397 H   0  0  0  0  0  0  0  0  0  0  0  0
    3.2206    0.2279    2.3940 H   0  0  0  0  0  0  0  0  0  0  0  0
    0.8473    0.6192    2.4042 H   0  0  0  0  0  0  0  0  0  0  0  0
    1.2882   -1.0564    2.8226 H   0  0  0  0  0  0  0  0  0  0  0  0
    0.7014    1.7314    0.3572 H   0  0  0  0  0  0  0  0  0  0  0  0
    1.5379    1.5250   -1.2503 H   0  0  0  0  0  0  0  0  0  0  0  0
    0.3740   -0.5219   -1.3184 H   0  0  0  0  0  0  0  0  0  0  0  0
    1.8933   -0.9152   -0.5531 H   0  0  0  0  0  0  0  0  0  0  0  0
    0.4693   -1.9440    0.8477 H   0  0  0  0  0  0  0  0  0  0  0  0
   -0.9699    0.7362    1.2346 H   0  0  0  0  0  0  0  0  0  0  0  0
   -1.3359   -0.6774    2.2160 H   0  0  0  0  0  0  0  0  0  0  0  0
   -1.6267   -2.7011    0.0753 H   0  0  0  0  0  0  0  0  0  0  0  0
   -3.1429   -2.0533    2.1420 H   0  0  0  0  0  0  0  0  0  0  0  0
   -3.0582   -3.6784    1.4671 H   0  0  0  0  0  0  0  0  0  0  0  0
   -5.2721   -3.4677    1.6424 H   0  0  0  0  0  0  0  0  0  0  0  0
   -5.2714   -1.7109    1.5272 H   0  0  0  0  0  0  0  0  0  0  0  0
   -6.0753   -1.9454   -0.5731 H   0  0  0  0  0  0  0  0  0  0  0  0
   -7.1628   -3.7133   -0.3433 H   0  0  0  0  0  0  0  0  0  0  0  0
   -4.7806   -2.7000   -2.4126 H   0  0  0  0  0  0  0  0  0  0  0  0
   -3.9890   -3.9767   -1.4448 H   0  0  0  0  0  0  0  0  0  0  0  0
   -2.3847   -2.4793   -1.9900 H   0  0  0  0  0  0  0  0  0  0  0  0
   -4.4907   -0.4656   -1.5100 H   0  0  0  0  0  0  0  0  0  0  0  0
   -3.7672   -0.6770   -3.7544 H   0  0  0  0  0  0  0  0  0  0  0  0
   -2.4675    0.5264   -3.2772 H   0  0  0  0  0  0  0  0  0  0  0  0
   -2.1658   -1.2026   -3.2208 H   0  0  0  0  0  0  0  0  0  0  0  0
   -1.7103    0.5847   -1.2398 H   0  0  0  0  0  0  0  0  0  0  0  0
   -2.3438    1.9832    0.4345 H   0  0  0  0  0  0  0  0  0  0  0  0
   -3.5007    3.4761   -0.7430 H   0  0  0  0  0  0  0  0  0  0  0  0
   -3.4272    2.2403   -1.9916 H   0  0  0  0  0  0  0  0  0  0  0  0
   -5.6266    3.3990   -1.5179 H   0  0  0  0  0  0  0  0  0  0  0  0
   -5.7655    1.6344   -1.6249 H   0  0  0  0  0  0  0  0  0  0  0  0
   -5.6617    3.2462    0.9850 H   0  0  0  0  0  0  0  0  0  0  0  0
   -7.7382    3.1685    0.5730 H   0  0  0  0  0  0  0  0  0  0  0  0
   -6.0344    0.9394    1.9282 H   0  0  0  0  0  0  0  0  0  0  0  0
   -5.8375    0.2559    0.3064 H   0  0  0  0  0  0  0  0  0  0  0  0
   -3.6553    0.2398    1.6697 H   0  0  0  0  0  0  0  0  0  0  0  0
   -3.9499    1.9511    1.9820 H   0  0  0  0  0  0  0  0  0  0  0  0
    7.1495   -1.1314   -0.8568 H   0  0  0  0  0  0  0  0  0  0  0  0
    5.4822   -2.9760   -0.3349 H   0  0  0  0  0  0  0  0  0  0  0  0
    6.8402   -3.0362    0.8644 H   0  0  0  0  0  0  0  0  0  0  0  0
    4.3508   -1.4087    1.3440 H   0  0  0  0  0  0  0  0  0  0  0  0
    4.5107   -3.1247    1.9340 H   0  0  0  0  0  0  0  0  0  0  0  0
    5.3032   -1.6098    3.7302 H   0  0  0  0  0  0  0  0  0  0  0  0
    6.7664   -2.3261    2.9619 H   0  0  0  0  0  0  0  0  0  0  0  0
    7.2237   -0.0455    3.0453 H   0  0  0  0  0  0  0  0  0  0  0  0
    5.5677    0.4961    2.7282 H   0  0  0  0  0  0  0  0  0  0  0  0
    7.3960    0.7524    0.8238 H   0  0  0  0  0  0  0  0  0  0  0  0
    4.6359    1.7648   -0.4506 H   0  0  0  0  0  0  0  0  0  0  0  0
    6.3807    1.6405   -0.7389 H   0  0  0  0  0  0  0  0  0  0  0  0
    5.3271    1.5504   -2.9521 H   0  0  0  0  0  0  0  0  0  0  0  0
    5.9105   -0.0627   -2.5377 H   0  0  0  0  0  0  0  0  0  0  0  0
    3.0449    1.7203   -1.7075 H   0  0  0  0  0  0  0  0  0  0  0  0
    1.5137    1.9885   -3.3149 H   0  0  0  0  0  0  0  0  0  0  0  0
    2.2484    0.6882   -4.2708 H   0  0  0  0  0  0  0  0  0  0  0  0
   -0.0896    0.3366   -4.0053 H   0  0  0  0  0  0  0  0  0  0  0  0
    0.7419   -0.9598   -3.0124 H   0  0  0  0  0  0  0  0  0  0  0  0
    2.6852    0.0170   -0.1284 H   0  0  0  0  0  0  0  0  0  0  0  0
    2.0203   -1.1279   -1.3613 H   0  0  0  0  0  0  0  0  0  0  0  0
    0.2302   -0.3148   -0.0701 H   0  0  0  0  0  0  0  0  0  0  0  0
    0.8459    1.3755   -0.0969 H   0  0  0  0  0  0  0  0  0  0  0  0
   -0.1794    1.7989   -2.0719 H   0  0  0  0  0  0  0  0  0  0  0  0
   -2.0276    0.3371   -2.8152 H   0  0  0  0  0  0  0  0  0  0  0  0
   -1.4076   -1.0188   -1.8621 H   0  0  0  0  0  0  0  0  0  0  0  0
   -2.3306    2.3059   -1.7097 H   0  0  0  0  0  0  0  0  0  0  0  0
   -1.3457    2.1041    0.7204 H   0  0  0  0  0  0  0  0  0  0  0  0
   -1.9406    3.6425    0.0692 H   0  0  0  0  0  0  0  0  0  0  0  0
   -2.7455    3.4508    2.2361 H   0  0  0  0  0  0  0  0  0  0  0  0
   -3.3060    1.7853    2.1050 H   0  0  0  0  0  0  0  0  0  0  0  0
   -5.3509    2.7535    1.8500 H   0  0  0  0  0  0  0  0  0  0  0  0
   -3.8791    4.9943    0.9746 H   0  0  0  0  0  0  0  0  0  0  0  0
   -4.7228    3.8204   -0.8251 H   0  0  0  0  0  0  0  0  0  0  0  0
   -6.0799    2.7994   -0.3994 H   0  0  0  0  0  0  0  0  0  0  0  0
   -4.4977    1.9087   -2.0166 H   0  0  0  0  0  0  0  0  0  0  0  0
   -5.4403    0.0398   -1.4039 H   0  0  0  0  0  0  0  0  0  0  0  0
   -5.1701    0.3668    1.6011 H   0  0  0  0  0  0  0  0  0  0  0  0
   -6.2403   -0.6693    0.5104 H   0  0  0  0  0  0  0  0  0  0  0  0
   -6.3998    1.0563    0.5408 H   0  0  0  0  0  0  0  0  0  0  0  0
   -3.5218   -0.9992   -1.6213 H   0  0  0  0  0  0  0  0  0  0  0  0
   -2.2957   -2.0389   -0.1313 H   0  0  0  0  0  0  0  0  0  0  0  0
   -4.7117   -2.8588   -0.2078 H   0  0  0  0  0  0  0  0  0  0  0  0
   -4.8029   -2.2242    1.5350 H   0  0  0  0  0  0  0  0  0  0  0  0
   -4.1297   -4.4206    1.5594 H   0  0  0  0  0  0  0  0  0  0  0  0
   -2.7575   -4.1630    0.4275 H   0  0  0  0  0  0  0  0  0  0  0  0
   -2.0393   -4.1748    2.7851 H   0  0  0  0  0  0  0  0  0  0  0  0
   -1.2195   -1.8286    3.1475 H   0  0  0  0  0  0  0  0  0  0  0  0
   -0.8954   -2.4004    1.4390 H   0  0  0  0  0  0  0  0  0  0  0  0
   -3.3119   -0.8569    2.4703 H   0  0  0  0  0  0  0  0  0  0  0  0
   -1.8953   -0.0912    1.5630 H   0  0  0  0  0  0  0  0  0  0  0  0
  1  2  1  0
  2  3  1  0
  3  4  1  0
  4  5  1  0
  5  6  1  0
  6  1  1  0
  1  7  1  0
  6  7  1  0
  7  8  1  0
  8  9  1  0
  9 10  1  0
 10 11  1  0
 11 12  1  0
 12 13  1  0
 11 14  1  0
 14 15  1  0
 13 16  1  0
 15 16  1  0
 16 17  1  0
 17 18  1  0
 18 19  1  0
 19 20  1  0
 20 21  1  0
 21 22  1  0
 22 23  1  0
 22 24  1  0
 19 25  1  0
 24 25  1  0
 25 26  1  0
 26 27  1  0
 18 28  1  0
 26 28  1  0
 28 29  1  0
 29 30  1  0
 30 31  1  0
 31 32  1  0
 32 33  1  0
 32 34  1  0
 29 35  1  0
 34 35  1  0
 36 37  1  0
 37 38  1  0
 38 39  1  0
 39 40  1  0
 40 41  1  0
 41 36  1  0
 36 42  1  0
 41 42  1  0
 42 43  1  0
 43 44  1  0
 44 45  1  0
 45 46  1  0
 46 47  1  0
 47 48  1  0
 46 49  1  0
 49 50  1  0
 48 51  1  0
 50 51  1  0
 51 52  1  0
 52 53  1  0
 53 54  1  0
 54 55  1  0
 55 56  1  0
 56 57  1  0
 57 58  1  0
 57 59  1  0
 54 60  1  0
 59 60  1  0
 60 61  1  0
 61 62  1  0
 53 63  1  0
 61 63  1  0
 63 64  1  0
 64 65  1  0
 65 66  1  0
 66 67  1  0
 67 68  1  0
 67 69  1  0
 64 70  1  0
 69 70  1  0
 71 72  1  0
 72 73  1  0
 73 74  1  0
 74 75  1  0
 75 76  1  0
 71 77  1  0
 76 77  1  0
 77 78  1  0
 78 79  1  0
 79 80  1  0
 80 81  1  0
 81 82  1  0
 82 83  1  0
 81 84  1  0
 84 85  1  0
 83 86  1  0
 85 86  1  0
 86 87  1  0
 87 88  1  0
 88 89  1  0
 89 90  1  0
 90 91  1  0
 91 92  1  0
 92 93  1  0
 92 94  1  0
 89 95  1  0
 94 95  1  0
 95 96  1  0
 96 97  1  0
 88 98  1  0
 96 98  1  0
 98 99  1  0
 99100  1  0
100101  1  0
101102  1  0
102103  1  0
102104  1  0
 99105  1  0
104105  1  0
106107  1  0
107108  1  0
108109  1  0
109110  1  0
110111  1  0
111106  1  0
106112  1  0
111112  1  0
112113  1  0
113114  1  0
114115  1  0
115116  1  0
116117  1  0
117118  1  0
116119  1  0
119120  1  0
118121  1  0
120121  1  0
121122  1  0
122123  1  0
123124  1  0
124125  1  0
125126  1  0
126127  1  0
127128  1  0
127129  1  0
124130  1  0
129130  1  0
130131  1  0
131132  1  0
123133  1  0
131133  1  0
133134  1  0
134135  1  0
135136  1  0
136137  1  0
137138  1  0
137139  1  0
134140  1  0
139140  1  0
  1141  1  6
  2142  1  0
  2143  1  0
  3144  1  0
  3145  1  0
  4146  1  0
  4147  1  0
  5148  1  0
  5149  1  0
  6150  1  1
  8151  1  0
  8152  1  0
  9153  1  0
  9154  1  0
 11155  1  0
 12156  1  0
 12157  1  0
 13158  1  0
 13159  1  0
 14160  1  0
 14161  1  0
 15162  1  0
 15163  1  0
 16164  1  0
 17165  1  0
 17166  1  0
 19167  1  0
 20168  1  0
 20169  1  0
 21170  1  0
 21171  1  0
 22172  1  0
 23173  1  0
 24174  1  0
 24175  1  0
 25176  1  0
 26177  1  0
 27178  1  0
 27179  1  0
 27180  1  0
 28181  1  6
 29182  1  0
 30183  1  0
 30184  1  0
 31185  1  0
 31186  1  0
 32187  1  0
 34188  1  0
 34189  1  0
 35190  1  0
 35191  1  0
 36192  1  1
 37193  1  0
 37194  1  0
 38195  1  0
 38196  1  0
 39197  1  0
 39198  1  0
 40199  1  0
 40200  1  0
 41201  1  6
 43202  1  0
 43203  1  0
 44204  1  0
 44205  1  0
 46206  1  0
 47207  1  0
 47208  1  0
 48209  1  0
 48210  1  0
 49211  1  0
 49212  1  0
 50213  1  0
 50214  1  0
 51215  1  0
 52216  1  0
 52217  1  0
 54218  1  0
 55219  1  0
 55220  1  0
 56221  1  0
 56222  1  0
 57223  1  0
 58224  1  0
 59225  1  0
 59226  1  0
 60227  1  0
 61228  1  6
 62229  1  0
 62230  1  0
 62231  1  0
 63232  1  6
 64233  1  0
 65234  1  0
 65235  1  0
 66236  1  0
 66237  1  0
 67238  1  0
 68239  1  0
 69240  1  0
 69241  1  0
 70242  1  0
 70243  1  0
 71244  1  0
 71245  1  0
 72246  1  0
 72247  1  0
 73248  1  0
 73249  1  0
 74250  1  0
 74251  1  0
 75252  1  0
 75253  1  0
 76254  1  0
 76255  1  0
 78256  1  0
 78257  1  0
 79258  1  0
 79259  1  0
 81260  1  0
 82261  1  0
 82262  1  0
 83263  1  0
 83264  1  0
 84265  1  0
 84266  1  0
 85267  1  0
 85268  1  0
 86269  1  0
 87270  1  0
 87271  1  0
 89272  1  0
 90273  1  0
 90274  1  0
 91275  1  0
 91276  1  0
 92277  1  0
 93278  1  0
 94279  1  0
 94280  1  0
 95281  1  0
 96282  1  0
 97283  1  0
 97284  1  0
 97285  1  0
 98286  1  6
 99287  1  0
100288  1  0
100289  1  0
101290  1  0
101291  1  0
102292  1  0
103293  1  0
104294  1  0
104295  1  0
105296  1  0
105297  1  0
106298  1  6
107299  1  0
107300  1  0
108301  1  0
108302  1  0
109303  1  0
109304  1  0
110305  1  0
110306  1  0
111307  1  1
113308  1  0
113309  1  0
114310  1  0
114311  1  0
116312  1  0
117313  1  0
117314  1  0
118315  1  0
118316  1  0
119317  1  0
119318  1  0
120319  1  0
120320  1  0
121321  1  0
122322  1  0
122323  1  0
124324  1  0
125325  1  0
125326  1  0
126327  1  0
126328  1  0
127329  1  0
128330  1  0
129331  1  0
129332  1  0
130333  1  0
131334  1  0
132335  1  0
132336  1  0
132337  1  0
133338  1  6
134339  1  0
135340  1  0
135341  1  0
136342  1  0
136343  1  0
137344  1  0
139345  1  0
139346  1  0
140347  1  0
140348  1  0
M  END
>  <PDBID>  (1) 
4XI3

>  <PDB ID>  (1) 
4XI3

>  <Generic Name>  (1) 
Bazedoxifene

>  <Brand Name>  (1) 
Duavee#Duavive#Aprela#Viviant

>  <DrugBank ID>  (1) 
DB06401

>  <ATC Codes>  (1) 
G03CC07#G03XC02

>  <Ligand ID>  (1) 
29S

>  <Target Name>  (1) 
Estrogen receptor

>  <UniProt ID>  (1) 
P03372

>  <PDB ID.1>  (1) 
4XI3

>  <Seq. Identity>  (1) 
92%

$$$$
