PDB_DB00540_05
     RDKit          3D

 55 57  0  0  0  0  0  0  0  0999 V2000
    5.5926   -1.2628    0.2465 C   0  0  0  0  0  0  0  0  0  0  0  0
    4.1147   -1.2819    0.2185 N   0  0  0  0  0  0  0  0  0  0  0  0
    3.6646   -0.0498    0.7650 C   0  0  0  0  0  0  0  0  0  0  0  0
    2.1575   -0.0038    0.8134 C   0  0  0  0  0  0  0  0  0  0  0  0
    1.5622   -0.1254   -0.5603 C   0  0  0  0  0  0  0  0  0  0  0  0
    0.0485   -0.0499   -0.5923 C   0  0  0  0  0  0  0  0  0  0  0  0
   -0.5102   -1.1301    0.2073 C   0  0  0  0  0  0  0  0  0  0  0  0
   -0.2813   -2.4360   -0.5685 C   0  0  0  0  0  0  0  0  0  0  0  0
   -1.5785   -2.9068   -1.2398 C   0  0  0  0  0  0  0  0  0  0  0  0
   -2.4016   -3.4939   -0.1175 C   0  0  0  0  0  0  0  0  0  0  0  0
   -0.3399    1.3467   -0.3626 C   0  0  0  0  0  0  0  0  0  0  0  0
   -0.1780    2.1059   -1.6893 C   0  0  0  0  0  0  0  0  0  0  0  0
   -0.3322    3.6097   -1.4465 C   0  0  0  0  0  0  0  0  0  0  0  0
   -1.7963    3.8010   -1.0454 C   0  0  0  0  0  0  0  0  0  0  0  0
   -1.9709    3.0999    0.2642 C   0  0  0  0  0  0  0  0  0  0  0  0
   -1.7084    1.6042    0.1769 C   0  0  0  0  0  0  0  0  0  0  0  0
   -1.6842    1.1272    1.6360 C   0  0  0  0  0  0  0  0  0  0  0  0
   -2.2498   -0.2337    1.7445 C   0  0  0  0  0  0  0  0  0  0  0  0
   -1.9841   -1.0895    0.4944 C   0  0  0  0  0  0  0  0  0  0  0  0
   -2.4355   -2.4803    0.9767 C   0  0  0  0  0  0  0  0  0  0  0  0
    5.9283   -0.2580   -0.0111 H   0  0  0  0  0  0  0  0  0  0  0  0
    5.9143   -2.0420   -0.4770 H   0  0  0  0  0  0  0  0  0  0  0  0
    5.8789   -1.4806    1.2879 H   0  0  0  0  0  0  0  0  0  0  0  0
    3.8046   -1.5356   -0.7198 H   0  0  0  0  0  0  0  0  0  0  0  0
    3.9957   -0.0353    1.8461 H   0  0  0  0  0  0  0  0  0  0  0  0
    4.0775    0.8425    0.2400 H   0  0  0  0  0  0  0  0  0  0  0  0
    1.9082    0.9684    1.2988 H   0  0  0  0  0  0  0  0  0  0  0  0
    1.8579   -0.8651    1.4466 H   0  0  0  0  0  0  0  0  0  0  0  0
    1.9300   -1.0578   -1.0379 H   0  0  0  0  0  0  0  0  0  0  0  0
    2.0258    0.6942   -1.1566 H   0  0  0  0  0  0  0  0  0  0  0  0
   -0.2021   -0.2842   -1.6825 H   0  0  0  0  0  0  0  0  0  0  0  0
   -0.0304   -1.2937    1.1918 H   0  0  0  0  0  0  0  0  0  0  0  0
    0.0331   -3.2569    0.0893 H   0  0  0  0  0  0  0  0  0  0  0  0
    0.4345   -2.3466   -1.3787 H   0  0  0  0  0  0  0  0  0  0  0  0
   -1.2680   -3.7600   -1.8802 H   0  0  0  0  0  0  0  0  0  0  0  0
   -2.0710   -2.1270   -1.8125 H   0  0  0  0  0  0  0  0  0  0  0  0
   -1.8030   -4.3697    0.2705 H   0  0  0  0  0  0  0  0  0  0  0  0
   -3.3627   -3.8946   -0.4252 H   0  0  0  0  0  0  0  0  0  0  0  0
    0.3734    1.8452    0.3261 H   0  0  0  0  0  0  0  0  0  0  0  0
    0.7988    1.9667   -2.1462 H   0  0  0  0  0  0  0  0  0  0  0  0
   -0.9385    1.7671   -2.4322 H   0  0  0  0  0  0  0  0  0  0  0  0
   -0.1160    4.1149   -2.3889 H   0  0  0  0  0  0  0  0  0  0  0  0
    0.3039    3.8992   -0.6084 H   0  0  0  0  0  0  0  0  0  0  0  0
   -1.9193    4.8800   -0.8680 H   0  0  0  0  0  0  0  0  0  0  0  0
   -2.4864    3.4880   -1.8347 H   0  0  0  0  0  0  0  0  0  0  0  0
   -3.0125    3.2284    0.6356 H   0  0  0  0  0  0  0  0  0  0  0  0
   -1.2674    3.5158    0.9863 H   0  0  0  0  0  0  0  0  0  0  0  0
   -2.5320    1.1822   -0.3963 H   0  0  0  0  0  0  0  0  0  0  0  0
   -2.3123    1.8098    2.2799 H   0  0  0  0  0  0  0  0  0  0  0  0
   -0.6523    1.2236    2.0341 H   0  0  0  0  0  0  0  0  0  0  0  0
   -1.6907   -0.7729    2.5647 H   0  0  0  0  0  0  0  0  0  0  0  0
   -3.3091   -0.2932    2.0250 H   0  0  0  0  0  0  0  0  0  0  0  0
   -2.6306   -0.8429   -0.3405 H   0  0  0  0  0  0  0  0  0  0  0  0
   -1.8517   -2.7196    1.8620 H   0  0  0  0  0  0  0  0  0  0  0  0
   -3.4983   -2.3410    1.2907 H   0  0  0  0  0  0  0  0  0  0  0  0
  1  2  1  0
  2  3  1  0
  3  4  1  0
  4  5  1  0
  5  6  1  0
  6  7  1  0
  7  8  1  0
  8  9  1  0
  9 10  1  0
  6 11  1  0
 11 12  1  0
 12 13  1  0
 13 14  1  0
 14 15  1  0
 11 16  1  0
 15 16  1  0
 16 17  1  0
 17 18  1  0
  7 19  1  0
 18 19  1  0
 10 20  1  0
 19 20  1  0
  1 21  1  0
  1 22  1  0
  1 23  1  0
  2 24  1  0
  3 25  1  0
  3 26  1  0
  4 27  1  0
  4 28  1  0
  5 29  1  0
  5 30  1  0
  6 31  1  0
  7 32  1  0
  8 33  1  0
  8 34  1  0
  9 35  1  0
  9 36  1  0
 10 37  1  0
 10 38  1  0
 11 39  1  0
 12 40  1  0
 12 41  1  0
 13 42  1  0
 13 43  1  0
 14 44  1  0
 14 45  1  0
 15 46  1  0
 15 47  1  0
 16 48  1  0
 17 49  1  0
 17 50  1  0
 18 51  1  0
 18 52  1  0
 19 53  1  0
 20 54  1  0
 20 55  1  0
M  END
>  <PDBID>  (1) 
4M48

>  <PDB ID>  (1) 
4M48

>  <Generic Name>  (1) 
Nortriptyline

>  <Brand Name>  (1) 
Apo-nortriptyline - Cap 10mg#Apo-nortriptyline - Cap 25mg#Ava-nortriptyline#Aventyl#Dom-nortriptyline 10mg Capsules#Dom-nortriptyline 25mg Capsules#Gen-nortriptyline Capsules 10mg#Gen-nortriptyline Capsules 25mg#Nortriptyline#Nortriptyline Hydrochloride#Nortriptyline-10#Nortriptyline-25#Norventyl#Nu-nortriptyline - Cap 10mg#Nu-nortriptyline - Cap 25mg#PMS-nortriptyline#Pamelor#Ratio-nortriptyline#Teva-nortriptyline#Allegron#Noritren#Norpress#Nortrilen#Sensoval

>  <DrugBank ID>  (1) 
DB00540

>  <ATC Codes>  (1) 
N06AA10

>  <Ligand ID>  (1) 
21B

>  <Target Name>  (1) 
Sodium-dependent noradrenaline transporter

>  <UniProt ID>  (1) 
P23975

>  <PDB ID.1>  (1) 
4M48

>  <Seq. Identity>  (1) 
57%

$$$$
