PDB_DB00380_03
     RDKit          3D

 43 44  0  0  0  0  0  0  0  0999 V2000
    4.4344    2.2144    1.1789 O   0  0  0  0  0  0  0  0  0  0  0  0
    3.7664    1.3713    0.3327 C   0  0  0  0  0  0  0  0  0  0  0  0
    4.5152    0.1154    0.2524 N   0  0  0  0  0  0  0  0  0  0  0  0
    4.0051   -0.7195   -0.7877 C   0  0  0  0  0  0  0  0  0  0  0  0
    4.6850   -1.9556   -0.6919 O   0  0  0  0  0  0  0  0  0  0  0  0
    2.5133   -0.9749   -0.5997 C   0  0  0  0  0  0  0  0  0  0  0  0
    2.3932    0.9606    0.8207 C   0  0  0  0  0  0  0  0  0  0  0  0
    1.8031    0.1680   -0.2371 N   0  0  0  0  0  0  0  0  0  0  0  0
    0.4318    0.3006   -0.3808 C   0  0  0  0  0  0  0  0  0  0  0  0
   -0.5038   -0.4783    0.4665 C   0  0  2  0  0  0  0  0  0  0  0  0
   -0.3169   -1.9600    0.2450 C   0  0  0  0  0  0  0  0  0  0  0  0
   -1.8853   -0.1635    0.1474 N   0  0  0  0  0  0  0  0  0  0  0  0
   -2.1352    1.2784    0.3381 C   0  0  0  0  0  0  0  0  0  0  0  0
   -3.6427    1.4342    0.3447 C   0  0  0  0  0  0  0  0  0  0  0  0
   -3.9724    2.6361   -0.3003 O   0  0  0  0  0  0  0  0  0  0  0  0
   -4.3342    0.3848   -0.3627 N   0  0  0  0  0  0  0  0  0  0  0  0
   -4.1149   -0.9294    0.2244 C   0  0  0  0  0  0  0  0  0  0  0  0
   -2.8202   -0.8817    1.0160 C   0  0  0  0  0  0  0  0  0  0  0  0
   -4.0319   -1.8293   -0.8407 O   0  0  0  0  0  0  0  0  0  0  0  0
    4.1625    3.1657    1.0570 H   0  0  0  0  0  0  0  0  0  0  0  0
    3.6940    1.8512   -0.6752 H   0  0  0  0  0  0  0  0  0  0  0  0
    5.5254    0.2554    0.2121 H   0  0  0  0  0  0  0  0  0  0  0  0
    4.1865   -0.3346   -1.8015 H   0  0  0  0  0  0  0  0  0  0  0  0
    4.1285   -2.5834   -0.1356 H   0  0  0  0  0  0  0  0  0  0  0  0
    2.4513   -1.8541    0.0734 H   0  0  0  0  0  0  0  0  0  0  0  0
    2.1869   -1.2931   -1.6394 H   0  0  0  0  0  0  0  0  0  0  0  0
    1.7624    1.8758    0.9199 H   0  0  0  0  0  0  0  0  0  0  0  0
    2.5155    0.4256    1.7673 H   0  0  0  0  0  0  0  0  0  0  0  0
    0.1638    0.0546   -1.4552 H   0  0  0  0  0  0  0  0  0  0  0  0
    0.1882    1.4064   -0.3171 H   0  0  0  0  0  0  0  0  0  0  0  0
   -0.3408   -0.2552    1.5557 H   0  0  0  0  0  0  0  0  0  0  0  0
   -1.2892   -2.4910   -0.0033 H   0  0  0  0  0  0  0  0  0  0  0  0
    0.2473   -2.0805   -0.7164 H   0  0  0  0  0  0  0  0  0  0  0  0
    0.1219   -2.4997    1.0804 H   0  0  0  0  0  0  0  0  0  0  0  0
   -1.7801    1.8129   -0.5663 H   0  0  0  0  0  0  0  0  0  0  0  0
   -1.7450    1.6481    1.2840 H   0  0  0  0  0  0  0  0  0  0  0  0
   -4.0448    1.4466    1.3953 H   0  0  0  0  0  0  0  0  0  0  0  0
   -3.3186    3.3312    0.0274 H   0  0  0  0  0  0  0  0  0  0  0  0
   -4.1824    0.4099   -1.3840 H   0  0  0  0  0  0  0  0  0  0  0  0
   -4.9802   -1.2023    0.8232 H   0  0  0  0  0  0  0  0  0  0  0  0
   -2.4228   -1.8136    1.3430 H   0  0  0  0  0  0  0  0  0  0  0  0
   -3.0632   -0.2480    1.9158 H   0  0  0  0  0  0  0  0  0  0  0  0
   -4.9571   -1.9992   -1.1506 H   0  0  0  0  0  0  0  0  0  0  0  0
  1  2  1  0
  2  3  1  0
  3  4  1  0
  4  5  1  0
  4  6  1  0
  2  7  1  0
  6  8  1  0
  7  8  1  0
  8  9  1  0
  9 10  1  0
 10 11  1  0
 10 12  1  0
 12 13  1  0
 13 14  1  0
 14 15  1  0
 14 16  1  0
 16 17  1  0
 12 18  1  0
 17 18  1  0
 17 19  1  0
  1 20  1  0
  2 21  1  0
  3 22  1  0
  4 23  1  0
  5 24  1  0
  6 25  1  0
  6 26  1  0
  7 27  1  0
  7 28  1  0
  9 29  1  0
  9 30  1  0
 10 31  1  1
 11 32  1  0
 11 33  1  0
 11 34  1  0
 13 35  1  0
 13 36  1  0
 14 37  1  0
 15 38  1  0
 16 39  1  0
 17 40  1  0
 18 41  1  0
 18 42  1  0
 19 43  1  0
M  END
>  <PDBID>  (1) 
1QZR

>  <PDB ID>  (1) 
1QZR

>  <Generic Name>  (1) 
Dexrazoxane

>  <Brand Name>  (1) 
Dexrazoxane#Dexrazoxane Hydrochloride#Zinecard#Ao Nuo Xian#Cardioxane#Dexrazoxane#Savene#Totect

>  <DrugBank ID>  (1) 
DB00380

>  <ATC Codes>  (1) 
V03AF02

>  <Ligand ID>  (1) 
CDX

>  <Target Name>  (1) 
DNA topoisomerase 2-alpha

>  <UniProt ID>  (1) 
P11388

>  <PDB ID.1>  (1) 
1QZR

>  <Seq. Identity>  (1) 
51%

$$$$
