PDB_DB00988_02
     RDKit          3D

 28 28  0  0  0  0  0  0  0  0999 V2000
    1.6241    0.3721   -0.2776 C   0  0  0  0  0  0  0  0  0  0  0  0
    0.4031   -0.2521   -0.9055 C   0  0  0  0  0  0  0  0  0  0  0  0
   -2.3522    0.3629    0.1213 C   0  0  0  0  0  0  0  0  0  0  0  0
   -0.3531   -1.1426    0.0115 C   0  0  0  0  0  0  0  0  0  0  0  0
   -0.5025    0.8834   -1.3554 C   0  0  0  0  0  0  0  0  0  0  0  0
   -1.9447    0.4692   -1.3390 C   0  0  0  0  0  0  0  0  0  0  0  0
   -1.3174   -0.4070    0.9098 C   0  0  0  0  0  0  0  0  0  0  0  0
   -2.0098   -1.3958    1.6304 O   0  0  0  0  0  0  0  0  0  0  0  0
   -2.5159    1.6621    0.5784 O   0  0  0  0  0  0  0  0  0  0  0  0
    2.6168   -0.6602    0.1972 C   0  0  0  0  0  0  0  0  0  0  0  0
    3.7507    0.0387    0.7825 N   0  0  0  0  0  0  0  0  0  0  0  0
    1.3040    0.9842    0.5628 H   0  0  0  0  0  0  0  0  0  0  0  0
    2.1487    1.0267   -1.0028 H   0  0  0  0  0  0  0  0  0  0  0  0
    0.2654   -1.7863    0.6409 H   0  0  0  0  0  0  0  0  0  0  0  0
   -0.3877    1.6819   -0.5778 H   0  0  0  0  0  0  0  0  0  0  0  0
   -2.5290    1.3194   -1.7763 H   0  0  0  0  0  0  0  0  0  0  0  0
   -1.5129   -1.6932    2.4218 H   0  0  0  0  0  0  0  0  0  0  0  0
   -2.6428    1.7212    1.5521 H   0  0  0  0  0  0  0  0  0  0  0  0
    2.9956   -1.2961   -0.6200 H   0  0  0  0  0  0  0  0  0  0  0  0
    2.2220   -1.3255    0.9757 H   0  0  0  0  0  0  0  0  0  0  0  0
    3.7548    1.0516    0.4771 H   0  0  0  0  0  0  0  0  0  0  0  0
    3.7109    0.0616    1.8263 H   0  0  0  0  0  0  0  0  0  0  0  0
    0.7411   -0.8423   -1.7805 H   0  0  0  0  0  0  0  0  0  0  0  0
   -3.3495   -0.1272    0.1499 H   0  0  0  0  0  0  0  0  0  0  0  0
   -0.9923   -1.8165   -0.6319 H   0  0  0  0  0  0  0  0  0  0  0  0
   -0.1787    1.3101   -2.3218 H   0  0  0  0  0  0  0  0  0  0  0  0
   -2.1416   -0.4794   -1.8603 H   0  0  0  0  0  0  0  0  0  0  0  0
   -0.8071    0.2791    1.6112 H   0  0  0  0  0  0  0  0  0  0  0  0
  1  2  1  0
  2  4  1  0
  2  5  1  0
  3  6  1  0
  5  6  1  0
  3  7  1  0
  4  7  1  0
  7  8  1  0
  3  9  1  0
  1 10  1  0
 10 11  1  0
  1 12  1  0
  1 13  1  0
  4 14  1  0
  5 15  1  0
  6 16  1  0
  8 17  1  0
  9 18  1  0
 10 19  1  0
 10 20  1  0
 11 21  1  0
 11 22  1  0
  2 23  1  0
  3 24  1  0
  4 25  1  0
  5 26  1  0
  6 27  1  0
  7 28  1  0
M  END
>  <PDBID>  (1) 
4XP1

>  <PDB ID>  (1) 
4XP1

>  <Generic Name>  (1) 
Dopamine

>  <Brand Name>  (1) 
Dopamine#Dopamine HCl#Dopamine HCl Inj 4%#Dopamine Hydrochloride#Dopamine Hydrochloride and Dextrose#Intropin Injection 40mg/ml#Intropin#Revimine

>  <DrugBank ID>  (1) 
DB00988

>  <ATC Codes>  (1) 
C01CA04

>  <Ligand ID>  (1) 
LDP

>  <Target Name>  (1) 
Sodium-dependent dopamine transporter

>  <UniProt ID>  (1) 
Q01959

>  <PDB ID.1>  (1) 
4XP1

>  <Seq. Identity>  (1) 
52%

$$$$
