PDB_DB00655_02
     RDKit          3D

100106  0  0  0  0  0  0  0  0999 V2000
    0.2674    0.7978    0.3253 C   0  0  2  0  0  0  0  0  0  0  0  0
   -1.9306    1.8359   -0.1790 C   0  0  0  0  0  0  0  0  0  0  0  0
   -2.5476    0.4883   -0.1407 C   0  0  2  0  0  0  0  0  0  0  0  0
   -2.5619   -0.2081   -1.4712 C   0  0  0  0  0  0  0  0  0  0  0  0
   -4.9144    0.9004   -0.3886 O   0  0  0  0  0  0  0  0  0  0  0  0
    5.4824   -0.4405   -0.9136 O   0  0  0  0  0  0  0  0  0  0  0  0
   -3.9247    0.4341    0.4384 C   0  0  1  0  0  0  0  0  0  0  0  0
   -4.0661   -1.0546    0.7457 C   0  0  0  0  0  0  0  0  0  0  0  0
   -2.6404   -1.5414    1.0274 C   0  0  0  0  0  0  0  0  0  0  0  0
   -1.7829   -0.3358    0.9052 C   0  0  1  0  0  0  0  0  0  0  0  0
   -0.4173   -0.5749    0.3566 C   0  0  2  0  0  0  0  0  0  0  0  0
   -0.4900    1.7196   -0.5695 C   0  0  0  0  0  0  0  0  0  0  0  0
    0.3009   -1.5447    1.2339 C   0  0  0  0  0  0  0  0  0  0  0  0
    1.6389   -1.0251    1.7296 C   0  0  0  0  0  0  0  0  0  0  0  0
    2.3733   -0.5502    0.5045 C   0  0  0  0  0  0  0  0  0  0  0  0
    1.7102    0.7245    0.0294 C   0  0  0  0  0  0  0  0  0  0  0  0
    3.8139   -0.2636    0.7270 C   0  0  0  0  0  0  0  0  0  0  0  0
    4.3639    0.3449   -0.5540 C   0  0  0  0  0  0  0  0  0  0  0  0
    3.3797    0.2135   -1.6936 C   0  0  0  0  0  0  0  0  0  0  0  0
    2.0686    0.8810   -1.4256 C   0  0  0  0  0  0  0  0  0  0  0  0
    0.2674    0.7978    0.3253 C   0  0  2  0  0  0  0  0  0  0  0  0
   -1.9306    1.8359   -0.1790 C   0  0  0  0  0  0  0  0  0  0  0  0
   -2.5476    0.4883   -0.1407 C   0  0  2  0  0  0  0  0  0  0  0  0
   -2.5619   -0.2081   -1.4712 C   0  0  0  0  0  0  0  0  0  0  0  0
   -4.9144    0.9004   -0.3886 O   0  0  0  0  0  0  0  0  0  0  0  0
    5.4824   -0.4405   -0.9136 O   0  0  0  0  0  0  0  0  0  0  0  0
   -3.9247    0.4341    0.4384 C   0  0  1  0  0  0  0  0  0  0  0  0
   -4.0661   -1.0546    0.7457 C   0  0  0  0  0  0  0  0  0  0  0  0
   -2.6404   -1.5414    1.0274 C   0  0  0  0  0  0  0  0  0  0  0  0
   -1.7829   -0.3358    0.9052 C   0  0  1  0  0  0  0  0  0  0  0  0
   -0.4173   -0.5749    0.3566 C   0  0  2  0  0  0  0  0  0  0  0  0
   -0.4900    1.7196   -0.5695 C   0  0  0  0  0  0  0  0  0  0  0  0
    0.3009   -1.5447    1.2339 C   0  0  0  0  0  0  0  0  0  0  0  0
    1.6389   -1.0251    1.7296 C   0  0  0  0  0  0  0  0  0  0  0  0
    2.3733   -0.5502    0.5045 C   0  0  0  0  0  0  0  0  0  0  0  0
    1.7102    0.7245    0.0294 C   0  0  0  0  0  0  0  0  0  0  0  0
    3.8139   -0.2636    0.7270 C   0  0  0  0  0  0  0  0  0  0  0  0
    4.3639    0.3449   -0.5540 C   0  0  0  0  0  0  0  0  0  0  0  0
    3.3797    0.2135   -1.6936 C   0  0  0  0  0  0  0  0  0  0  0  0
    2.0686    0.8810   -1.4256 C   0  0  0  0  0  0  0  0  0  0  0  0
    0.1473    1.1897    1.3765 H   0  0  0  0  0  0  0  0  0  0  0  0
   -2.4519    2.5066   -0.9042 H   0  0  0  0  0  0  0  0  0  0  0  0
   -1.9776    2.2781    0.8321 H   0  0  0  0  0  0  0  0  0  0  0  0
   -3.4999    0.0929   -2.0212 H   0  0  0  0  0  0  0  0  0  0  0  0
   -2.6026   -1.3033   -1.3996 H   0  0  0  0  0  0  0  0  0  0  0  0
   -1.7094    0.0509   -2.1220 H   0  0  0  0  0  0  0  0  0  0  0  0
   -5.3170    0.1505   -0.8595 H   0  0  0  0  0  0  0  0  0  0  0  0
    6.1536    0.0644   -1.4007 H   0  0  0  0  0  0  0  0  0  0  0  0
   -3.9167    0.9606    1.4246 H   0  0  0  0  0  0  0  0  0  0  0  0
   -4.7208   -1.2141    1.6388 H   0  0  0  0  0  0  0  0  0  0  0  0
   -4.4425   -1.5364   -0.1620 H   0  0  0  0  0  0  0  0  0  0  0  0
   -2.5645   -1.9587    2.0601 H   0  0  0  0  0  0  0  0  0  0  0  0
   -2.3524   -2.3523    0.3424 H   0  0  0  0  0  0  0  0  0  0  0  0
   -1.7574    0.2744    1.8243 H   0  0  0  0  0  0  0  0  0  0  0  0
   -0.5058   -0.9303   -0.7052 H   0  0  0  0  0  0  0  0  0  0  0  0
   -0.3418    1.4865   -1.6433 H   0  0  0  0  0  0  0  0  0  0  0  0
   -0.0394    2.7468   -0.4357 H   0  0  0  0  0  0  0  0  0  0  0  0
    0.5524   -2.4399    0.5924 H   0  0  0  0  0  0  0  0  0  0  0  0
   -0.3186   -1.9513    2.0562 H   0  0  0  0  0  0  0  0  0  0  0  0
    1.4125   -0.1835    2.4232 H   0  0  0  0  0  0  0  0  0  0  0  0
    2.1644   -1.8512    2.2259 H   0  0  0  0  0  0  0  0  0  0  0  0
    2.2541   -1.3475   -0.2689 H   0  0  0  0  0  0  0  0  0  0  0  0
    2.2175    1.5801    0.5646 H   0  0  0  0  0  0  0  0  0  0  0  0
    4.4103   -1.1174    1.0827 H   0  0  0  0  0  0  0  0  0  0  0  0
    3.8929    0.5357    1.5207 H   0  0  0  0  0  0  0  0  0  0  0  0
    4.7386    1.3678   -0.4144 H   0  0  0  0  0  0  0  0  0  0  0  0
    3.8428    0.7112   -2.5707 H   0  0  0  0  0  0  0  0  0  0  0  0
    3.2885   -0.8590   -1.9629 H   0  0  0  0  0  0  0  0  0  0  0  0
    2.0284    1.9256   -1.7691 H   0  0  0  0  0  0  0  0  0  0  0  0
    1.2919    0.3221   -2.0125 H   0  0  0  0  0  0  0  0  0  0  0  0
    0.1473    1.1897    1.3765 H   0  0  0  0  0  0  0  0  0  0  0  0
   -2.4519    2.5066   -0.9042 H   0  0  0  0  0  0  0  0  0  0  0  0
   -1.9776    2.2781    0.8321 H   0  0  0  0  0  0  0  0  0  0  0  0
   -3.4999    0.0929   -2.0212 H   0  0  0  0  0  0  0  0  0  0  0  0
   -2.6026   -1.3033   -1.3996 H   0  0  0  0  0  0  0  0  0  0  0  0
   -1.7094    0.0509   -2.1220 H   0  0  0  0  0  0  0  0  0  0  0  0
   -5.3170    0.1505   -0.8595 H   0  0  0  0  0  0  0  0  0  0  0  0
    6.1536    0.0644   -1.4007 H   0  0  0  0  0  0  0  0  0  0  0  0
   -3.9167    0.9606    1.4246 H   0  0  0  0  0  0  0  0  0  0  0  0
   -4.7208   -1.2141    1.6388 H   0  0  0  0  0  0  0  0  0  0  0  0
   -4.4425   -1.5364   -0.1620 H   0  0  0  0  0  0  0  0  0  0  0  0
   -2.5645   -1.9587    2.0601 H   0  0  0  0  0  0  0  0  0  0  0  0
   -2.3524   -2.3523    0.3424 H   0  0  0  0  0  0  0  0  0  0  0  0
   -1.7574    0.2744    1.8243 H   0  0  0  0  0  0  0  0  0  0  0  0
   -0.5058   -0.9303   -0.7052 H   0  0  0  0  0  0  0  0  0  0  0  0
   -0.3418    1.4865   -1.6433 H   0  0  0  0  0  0  0  0  0  0  0  0
   -0.0394    2.7468   -0.4357 H   0  0  0  0  0  0  0  0  0  0  0  0
    0.5524   -2.4399    0.5924 H   0  0  0  0  0  0  0  0  0  0  0  0
   -0.3186   -1.9513    2.0562 H   0  0  0  0  0  0  0  0  0  0  0  0
    1.4125   -0.1835    2.4232 H   0  0  0  0  0  0  0  0  0  0  0  0
    2.1644   -1.8512    2.2259 H   0  0  0  0  0  0  0  0  0  0  0  0
    2.2541   -1.3475   -0.2689 H   0  0  0  0  0  0  0  0  0  0  0  0
    2.2175    1.5801    0.5646 H   0  0  0  0  0  0  0  0  0  0  0  0
    4.4103   -1.1174    1.0827 H   0  0  0  0  0  0  0  0  0  0  0  0
    3.8929    0.5357    1.5207 H   0  0  0  0  0  0  0  0  0  0  0  0
    4.7386    1.3678   -0.4144 H   0  0  0  0  0  0  0  0  0  0  0  0
    3.8428    0.7112   -2.5707 H   0  0  0  0  0  0  0  0  0  0  0  0
    3.2885   -0.8590   -1.9629 H   0  0  0  0  0  0  0  0  0  0  0  0
    2.0284    1.9256   -1.7691 H   0  0  0  0  0  0  0  0  0  0  0  0
    1.2919    0.3221   -2.0125 H   0  0  0  0  0  0  0  0  0  0  0  0
  2  3  1  0
  3  4  1  6
  3  7  1  0
  5  7  1  0
  7  8  1  0
  8  9  1  0
  3 10  1  0
  9 10  1  0
  1 11  1  0
 10 11  1  0
  1 12  1  0
  2 12  1  0
 11 13  1  0
 13 14  1  0
 14 15  1  0
  1 16  1  0
 15 16  1  0
 15 17  1  0
  6 18  1  0
 17 18  1  0
 18 19  1  0
 16 20  1  0
 19 20  1  0
 22 23  1  0
 23 24  1  6
 23 27  1  0
 25 27  1  0
 27 28  1  0
 28 29  1  0
 23 30  1  0
 29 30  1  0
 21 31  1  0
 30 31  1  0
 21 32  1  0
 22 32  1  0
 31 33  1  0
 33 34  1  0
 34 35  1  0
 21 36  1  0
 35 36  1  0
 35 37  1  0
 26 38  1  0
 37 38  1  0
 38 39  1  0
 36 40  1  0
 39 40  1  0
  1 41  1  1
  2 42  1  0
  2 43  1  0
  4 44  1  0
  4 45  1  0
  4 46  1  0
  5 47  1  0
  6 48  1  0
  7 49  1  1
  8 50  1  0
  8 51  1  0
  9 52  1  0
  9 53  1  0
 10 54  1  1
 11 55  1  6
 12 56  1  0
 12 57  1  0
 13 58  1  0
 13 59  1  0
 14 60  1  0
 14 61  1  0
 15 62  1  0
 16 63  1  0
 17 64  1  0
 17 65  1  0
 18 66  1  0
 19 67  1  0
 19 68  1  0
 20 69  1  0
 20 70  1  0
 21 71  1  1
 22 72  1  0
 22 73  1  0
 24 74  1  0
 24 75  1  0
 24 76  1  0
 25 77  1  0
 26 78  1  0
 27 79  1  1
 28 80  1  0
 28 81  1  0
 29 82  1  0
 29 83  1  0
 30 84  1  1
 31 85  1  6
 32 86  1  0
 32 87  1  0
 33 88  1  0
 33 89  1  0
 34 90  1  0
 34 91  1  0
 35 92  1  0
 36 93  1  0
 37 94  1  0
 37 95  1  0
 38 96  1  0
 39 97  1  0
 39 98  1  0
 40 99  1  0
 40100  1  0
M  END
>  <PDBID>  (1) 
3HM1

>  <PDB ID>  (1) 
3HM1

>  <Generic Name>  (1) 
Estrone

>  <Brand Name>  (1) 
Estragyn Vaginal Cream#Oestrilin Cones Vaginaux#Oestrilin Creme Vaginale 1mg#Estrone

>  <DrugBank ID>  (1) 
DB00655

>  <ATC Codes>  (1) 
G03CA07#G03CC04

>  <Ligand ID>  (1) 
J3Z

>  <Target Name>  (1) 
Estrogen receptor

>  <UniProt ID>  (1) 
P03372

>  <PDB ID.1>  (1) 
3HM1

>  <Seq. Identity>  (1) 
93%

$$$$
