PDB_DB11363_06
     RDKit          3D

 90 95  0  0  0  0  0  0  0  0999 V2000
    5.9304   -0.3577   -1.3964 C   0  0  0  0  0  0  0  0  0  0  0  0
    7.3663   -0.3278    0.7026 C   0  0  0  0  0  0  0  0  0  0  0  0
    7.1668   -0.8148   -0.6600 C   0  0  0  0  0  0  0  0  0  0  0  0
    3.5395    0.2691   -0.7937 C   0  0  0  0  0  0  0  0  0  0  0  0
    3.0869    0.8940    0.5417 C   0  0  0  0  0  0  0  0  0  0  0  0
   -1.4408   -0.1360   -0.6504 C   0  0  0  0  0  0  0  0  0  0  0  0
    0.4405   -1.7879   -0.4961 C   0  0  0  0  0  0  0  0  0  0  0  0
    1.1392   -0.5235   -0.9351 C   0  0  0  0  0  0  0  0  0  0  0  0
    1.8143    1.6166    0.2312 C   0  0  0  0  0  0  0  0  0  0  0  0
    1.8885    2.3867   -1.0459 C   0  0  0  0  0  0  0  0  0  0  0  0
    1.3711    2.5362    1.3436 C   0  0  0  0  0  0  0  0  0  0  0  0
   -3.2651   -2.5131   -0.8817 C   0  0  0  0  0  0  0  0  0  0  0  0
   -5.3930    0.4781    0.1399 C   0  0  0  0  0  0  0  0  0  0  0  0
   -4.5520    0.0328    1.3333 C   0  0  0  0  0  0  0  0  0  0  0  0
    8.6907   -2.3361    1.2282 N   0  0  0  0  0  0  0  0  0  0  0  0
    7.5526   -1.5501    1.6227 C   0  0  0  0  0  0  0  0  0  0  0  0
    6.3845    0.5663    1.3379 C   0  0  0  0  0  0  0  0  0  0  0  0
    5.3478    1.0773    0.4064 C   0  0  0  0  0  0  0  0  0  0  0  0
    4.8797   -0.1724   -0.3670 C   0  0  0  0  0  0  0  0  0  0  0  0
    4.1845    1.6516    1.0093 N   0  0  0  0  0  0  0  0  0  0  0  0
    0.7894    0.5122    0.0940 C   0  0  0  0  0  0  0  0  0  0  0  0
    2.5778   -0.8162   -1.1199 C   0  0  0  0  0  0  0  0  0  0  0  0
    2.9579   -1.9988   -0.4556 O   0  0  0  0  0  0  0  0  0  0  0  0
   -0.6030    0.9864   -0.1770 C   0  0  0  0  0  0  0  0  0  0  0  0
   -1.0278   -1.5000   -0.2654 C   0  0  0  0  0  0  0  0  0  0  0  0
   -1.7879   -2.5637   -1.0765 C   0  0  0  0  0  0  0  0  0  0  0  0
   -2.8559    0.0628   -0.3671 N   0  0  0  0  0  0  0  0  0  0  0  0
   -3.3544    1.2002   -1.1447 C   0  0  0  0  0  0  0  0  0  0  0  0
   -4.6588    1.6362   -0.5405 C   0  0  0  0  0  0  0  0  0  0  0  0
   -3.0919    0.2896    1.0452 C   0  0  0  0  0  0  0  0  0  0  0  0
   -6.6737    0.9783    0.5761 N   0  0  0  0  0  0  0  0  0  0  0  0
   -7.5792    0.8128   -0.5677 C   0  0  0  0  0  0  0  0  0  0  0  0
   -8.1696   -0.5874   -0.5248 C   0  0  0  0  0  0  0  0  0  0  0  0
   -9.0306   -0.6656    0.5484 O   0  0  0  0  0  0  0  0  0  0  0  0
   -8.6907    0.1854    1.5861 C   0  0  0  0  0  0  0  0  0  0  0  0
   -7.1754    0.3083    1.7339 C   0  0  0  0  0  0  0  0  0  0  0  0
    6.1327    0.6551   -1.8548 H   0  0  0  0  0  0  0  0  0  0  0  0
    5.6984   -1.0646   -2.1949 H   0  0  0  0  0  0  0  0  0  0  0  0
    8.3772    0.1752    0.7483 H   0  0  0  0  0  0  0  0  0  0  0  0
    8.0525   -0.5891   -1.3163 H   0  0  0  0  0  0  0  0  0  0  0  0
    7.1172   -1.9427   -0.6861 H   0  0  0  0  0  0  0  0  0  0  0  0
    3.6303    1.0617   -1.5420 H   0  0  0  0  0  0  0  0  0  0  0  0
    2.8726    0.0799    1.2654 H   0  0  0  0  0  0  0  0  0  0  0  0
   -1.4092   -0.0963   -1.7999 H   0  0  0  0  0  0  0  0  0  0  0  0
    0.8723   -2.0412    0.5182 H   0  0  0  0  0  0  0  0  0  0  0  0
    0.5994   -2.6218   -1.1949 H   0  0  0  0  0  0  0  0  0  0  0  0
    0.6811   -0.1785   -1.9025 H   0  0  0  0  0  0  0  0  0  0  0  0
    2.8312    2.9892   -1.0967 H   0  0  0  0  0  0  0  0  0  0  0  0
    1.7684    1.7913   -1.9590 H   0  0  0  0  0  0  0  0  0  0  0  0
    1.0509    3.1330   -1.0472 H   0  0  0  0  0  0  0  0  0  0  0  0
    2.1992    3.1404    1.7153 H   0  0  0  0  0  0  0  0  0  0  0  0
    0.8263    2.0018    2.1517 H   0  0  0  0  0  0  0  0  0  0  0  0
    0.6308    3.2384    0.9004 H   0  0  0  0  0  0  0  0  0  0  0  0
   -3.4441   -2.4466    0.2249 H   0  0  0  0  0  0  0  0  0  0  0  0
   -3.8062   -1.7734   -1.4668 H   0  0  0  0  0  0  0  0  0  0  0  0
   -3.6900   -3.5317   -1.1455 H   0  0  0  0  0  0  0  0  0  0  0  0
   -5.5067   -0.3255   -0.6071 H   0  0  0  0  0  0  0  0  0  0  0  0
   -4.7705   -1.0201    1.5416 H   0  0  0  0  0  0  0  0  0  0  0  0
   -4.9106    0.6468    2.1951 H   0  0  0  0  0  0  0  0  0  0  0  0
    9.4608   -2.1491    1.9083 H   0  0  0  0  0  0  0  0  0  0  0  0
    8.9702   -2.0427    0.2696 H   0  0  0  0  0  0  0  0  0  0  0  0
    6.6515   -2.1957    1.5298 H   0  0  0  0  0  0  0  0  0  0  0  0
    7.5786   -1.2275    2.6840 H   0  0  0  0  0  0  0  0  0  0  0  0
    6.8848    1.4138    1.8587 H   0  0  0  0  0  0  0  0  0  0  0  0
    5.8522    0.0094    2.1621 H   0  0  0  0  0  0  0  0  0  0  0  0
    5.8079    1.8010   -0.2926 H   0  0  0  0  0  0  0  0  0  0  0  0
    4.8840   -1.0674    0.2896 H   0  0  0  0  0  0  0  0  0  0  0  0
    4.2605    1.7071    2.0558 H   0  0  0  0  0  0  0  0  0  0  0  0
    0.8284   -0.0226    1.0924 H   0  0  0  0  0  0  0  0  0  0  0  0
    2.7283   -1.0632   -2.2133 H   0  0  0  0  0  0  0  0  0  0  0  0
    2.9787   -1.8646    0.5249 H   0  0  0  0  0  0  0  0  0  0  0  0
   -0.5410    1.7800   -0.9674 H   0  0  0  0  0  0  0  0  0  0  0  0
   -0.9868    1.4891    0.7408 H   0  0  0  0  0  0  0  0  0  0  0  0
   -1.3065   -1.7362    0.7984 H   0  0  0  0  0  0  0  0  0  0  0  0
   -1.4181   -3.5612   -0.7868 H   0  0  0  0  0  0  0  0  0  0  0  0
   -1.5575   -2.4333   -2.1702 H   0  0  0  0  0  0  0  0  0  0  0  0
   -3.4439    0.8347   -2.1826 H   0  0  0  0  0  0  0  0  0  0  0  0
   -2.6047    2.0288   -1.1541 H   0  0  0  0  0  0  0  0  0  0  0  0
   -5.3270    2.0875   -1.2922 H   0  0  0  0  0  0  0  0  0  0  0  0
   -4.4937    2.4169    0.2349 H   0  0  0  0  0  0  0  0  0  0  0  0
   -2.4595   -0.3634    1.6278 H   0  0  0  0  0  0  0  0  0  0  0  0
   -2.9163    1.3795    1.2346 H   0  0  0  0  0  0  0  0  0  0  0  0
   -8.3667    1.5680   -0.5344 H   0  0  0  0  0  0  0  0  0  0  0  0
   -7.0156    0.8774   -1.5331 H   0  0  0  0  0  0  0  0  0  0  0  0
   -8.7430   -0.7268   -1.4517 H   0  0  0  0  0  0  0  0  0  0  0  0
   -7.3494   -1.3343   -0.4767 H   0  0  0  0  0  0  0  0  0  0  0  0
   -9.0834   -0.1924    2.5620 H   0  0  0  0  0  0  0  0  0  0  0  0
   -9.0856    1.1895    1.3910 H   0  0  0  0  0  0  0  0  0  0  0  0
   -6.7454   -0.6861    1.9214 H   0  0  0  0  0  0  0  0  0  0  0  0
   -7.0037    0.9729    2.6167 H   0  0  0  0  0  0  0  0  0  0  0  0
  1  3  1  0
  2  3  1  0
  4  5  1  0
  7  8  1  0
  5  9  1  0
  9 10  1  0
  9 11  1  0
 13 14  1  0
  2 16  1  0
 15 16  1  0
  2 17  1  0
 17 18  1  0
  1 19  1  0
  4 19  1  0
 18 19  1  0
  5 20  1  0
 18 20  1  0
  8 21  1  0
  9 21  1  0
  4 22  1  0
  8 22  1  0
 22 23  1  0
  6 24  1  0
 21 24  1  0
  6 25  1  0
  7 25  1  0
 12 26  1  0
 25 26  1  0
  6 27  1  0
 27 28  1  0
 13 29  1  0
 28 29  1  0
 14 30  1  0
 27 30  1  0
 13 31  1  0
 31 32  1  0
 32 33  1  0
 33 34  1  0
 34 35  1  0
 31 36  1  0
 35 36  1  0
  1 37  1  0
  1 38  1  0
  2 39  1  0
  3 40  1  0
  3 41  1  0
  4 42  1  0
  5 43  1  0
  6 44  1  0
  7 45  1  0
  7 46  1  0
  8 47  1  0
 10 48  1  0
 10 49  1  0
 10 50  1  0
 11 51  1  0
 11 52  1  0
 11 53  1  0
 12 54  1  0
 12 55  1  0
 12 56  1  0
 13 57  1  0
 14 58  1  0
 14 59  1  0
 15 60  1  0
 15 61  1  0
 16 62  1  0
 16 63  1  0
 17 64  1  0
 17 65  1  0
 18 66  1  0
 19 67  1  0
 20 68  1  0
 21 69  1  0
 22 70  1  0
 23 71  1  0
 24 72  1  0
 24 73  1  0
 25 74  1  0
 26 75  1  0
 26 76  1  0
 28 77  1  0
 28 78  1  0
 29 79  1  0
 29 80  1  0
 30 81  1  0
 30 82  1  0
 32 83  1  0
 32 84  1  0
 33 85  1  0
 33 86  1  0
 35 87  1  0
 35 88  1  0
 36 89  1  0
 36 90  1  0
M  END
>  <PDBID>  (1) 
3AOX

>  <PDB ID>  (1) 
3AOX

>  <Generic Name>  (1) 
Alectinib

>  <Brand Name>  (1) 
Alecensa#Alecensaro

>  <DrugBank ID>  (1) 
DB11363

>  <ATC Codes>  (1) 
nan

>  <Ligand ID>  (1) 
EMH

>  <Target Name>  (1) 
ALK tyrosine kinase receptor

>  <UniProt ID>  (1) 
Q9UM73

>  <PDB ID.1>  (1) 
3AOX

>  <Seq. Identity>  (1) 
100%

$$$$
