PDB_DB00513_08
     RDKit          3D

 25 24  0  0  0  0  0  0  0  0999 V2000
    3.3394   -0.3043    0.3490 C   0  0  0  0  0  0  0  0  0  0  0  0
    3.0707   -0.8187    1.6355 O   0  0  0  0  0  0  0  0  0  0  0  0
    3.3872    1.0877    0.4927 O   0  0  0  0  0  0  0  0  0  0  0  0
    2.1558   -0.7029   -0.5145 C   0  0  0  0  0  0  0  0  0  0  0  0
    0.9361   -0.0908    0.0949 C   0  0  0  0  0  0  0  0  0  0  0  0
   -0.3341   -0.3986   -0.6560 C   0  0  0  0  0  0  0  0  0  0  0  0
   -1.4676    0.2862    0.0803 C   0  0  0  0  0  0  0  0  0  0  0  0
   -2.7600   -0.0085   -0.6567 C   0  0  0  0  0  0  0  0  0  0  0  0
   -3.8960    0.6082   -0.0207 N   0  0  0  0  0  0  0  0  0  0  0  0
    2.3285   -0.3716   -1.5626 H   0  0  0  0  0  0  0  0  0  0  0  0
    2.1252   -1.8118   -0.5152 H   0  0  0  0  0  0  0  0  0  0  0  0
    1.0635    1.0024    0.1261 H   0  0  0  0  0  0  0  0  0  0  0  0
    0.8303   -0.4810    1.1189 H   0  0  0  0  0  0  0  0  0  0  0  0
   -0.5407   -1.4697   -0.7424 H   0  0  0  0  0  0  0  0  0  0  0  0
   -0.2583    0.0330   -1.6684 H   0  0  0  0  0  0  0  0  0  0  0  0
   -1.2983    1.3820    0.1253 H   0  0  0  0  0  0  0  0  0  0  0  0
   -1.5005   -0.1757    1.1020 H   0  0  0  0  0  0  0  0  0  0  0  0
   -2.6455    0.4748   -1.6677 H   0  0  0  0  0  0  0  0  0  0  0  0
   -2.8997   -1.0879   -0.7493 H   0  0  0  0  0  0  0  0  0  0  0  0
   -4.7018    0.5184   -0.7035 H   0  0  0  0  0  0  0  0  0  0  0  0
   -3.7416    1.6149    0.1548 H   0  0  0  0  0  0  0  0  0  0  0  0
   -4.1706    0.0739    0.8364 H   0  0  0  0  0  0  0  0  0  0  0  0
    4.2878   -0.7311   -0.0005 H   0  0  0  0  0  0  0  0  0  0  0  0
    2.6060   -0.1438    2.1785 H   0  0  0  0  0  0  0  0  0  0  0  0
    4.0840    1.2986    1.1633 H   0  0  0  0  0  0  0  0  0  0  0  0
  1  2  1  0
  1  3  1  0
  1  4  1  0
  4  5  1  0
  5  6  1  0
  6  7  1  0
  7  8  1  0
  8  9  1  0
  4 10  1  0
  4 11  1  0
  5 12  1  0
  5 13  1  0
  6 14  1  0
  6 15  1  0
  7 16  1  0
  7 17  1  0
  8 18  1  0
  8 19  1  0
  9 20  1  0
  9 21  1  0
 22  9  1  0
  1 23  1  0
  2 24  1  0
  3 25  1  0
M  CHG  1   9   1
M  END
>  <PDBID>  (1) 
1HPK

>  <PDB ID>  (1) 
1HPK

>  <Generic Name>  (1) 
Aminocaproic Acid

>  <Brand Name>  (1) 
Amicar#Aminocaproic Acid#Exoden White Tooth#Acepramin#Amocap#Caproamin#Caprocat#Caprolisin#E-Capro#Epsicaprom#Hemocid#Inselon#Ipron#Ipsilon#Kai Nai Yin#Minocap#Plaslloid#Resplamin

>  <DrugBank ID>  (1) 
DB00513

>  <ATC Codes>  (1) 
B02AA01

>  <Ligand ID>  (1) 
ACA

>  <Target Name>  (1) 
Plasminogen

>  <UniProt ID>  (1) 
P00747

>  <PDB ID.1>  (1) 
1HPK

>  <Seq. Identity>  (1) 
100%

$$$$
