PDB_DB05990_04
     RDKit          3D

 76 79  0  0  0  0  0  0  0  0999 V2000
   -3.4547   -2.3439    0.7078 C   0  0  0  0  0  0  0  0  0  0  0  0
   -4.1190   -1.6511    1.8456 C   0  0  0  0  0  0  0  0  0  0  0  0
   -5.1399   -0.7079    1.3028 C   0  0  1  0  0  0  0  0  0  0  0  0
   -5.1145    0.4536    2.1069 O   0  0  0  0  0  0  0  0  0  0  0  0
   -5.1060   -0.4737   -0.1431 C   0  0  0  0  0  0  0  0  0  0  0  0
   -3.7192   -0.3862   -0.7822 C   0  0  1  0  0  0  0  0  0  0  0  0
   -3.2164    0.9986   -0.9643 C   0  0  2  0  0  0  0  0  0  0  0  0
   -2.0853    1.4215   -0.0555 C   0  0  1  0  0  0  0  0  0  0  0  0
   -2.4192    1.6782    1.2253 O   0  0  0  0  0  0  0  0  0  0  0  0
   -1.0102    0.3926   -0.2572 C   0  0  2  0  0  0  0  0  0  0  0  0
   -1.5455   -0.8917    0.3973 C   0  0  1  0  0  0  0  0  0  0  0  0
   -2.7706   -1.4039   -0.2719 C   0  0  1  0  0  0  0  0  0  0  0  0
   -0.4700   -1.8765    0.6401 C   0  0  0  0  0  0  0  0  0  0  0  0
    0.8341   -1.6959   -0.0660 C   0  0  0  0  0  0  0  0  0  0  0  0
    1.2818   -0.2790   -0.2958 C   0  0  1  0  0  0  0  0  0  0  0  0
    0.2676    0.6271    0.4371 C   0  0  1  0  0  0  0  0  0  0  0  0
    0.9026    1.9400    0.3114 C   0  0  0  0  0  0  0  0  0  0  0  0
    2.3556    1.6174    0.5727 C   0  0  0  0  0  0  0  0  0  0  0  0
    2.5267    0.1170    0.3485 C   0  0  2  0  0  0  0  0  0  0  0  0
    1.2931    0.0488   -1.7641 C   0  0  0  0  0  0  0  0  0  0  0  0
   -2.2697   -2.3306   -1.3995 C   0  0  0  0  0  0  0  0  0  0  0  0
    3.8343   -0.1704   -0.3294 C   0  0  2  0  0  0  0  0  0  0  0  0
    3.9782   -1.6446   -0.5463 C   0  0  0  0  0  0  0  0  0  0  0  0
    4.9999    0.3229    0.4962 C   0  0  0  0  0  0  0  0  0  0  0  0
    6.2725    0.0221   -0.2348 C   0  0  0  0  0  0  0  0  0  0  0  0
    7.4866    0.5420    0.5381 C   0  0  0  0  0  0  0  0  0  0  0  0
   -3.5065    3.4035   -1.1420 C   0  0  0  0  0  0  0  0  0  0  0  0
   -4.2490    2.0719   -0.9311 C   0  0  0  0  0  0  0  0  0  0  0  0
    7.5625   -0.0426    1.7790 O   0  0  0  0  0  0  0  0  0  0  0  0
    7.4983    1.9187    0.5482 O   0  0  0  0  0  0  0  0  0  0  0  0
   -4.2264   -2.9561    0.1893 H   0  0  0  0  0  0  0  0  0  0  0  0
   -2.6856   -3.0240    1.1241 H   0  0  0  0  0  0  0  0  0  0  0  0
   -4.5886   -2.4748    2.4639 H   0  0  0  0  0  0  0  0  0  0  0  0
   -3.4354   -1.1482    2.5534 H   0  0  0  0  0  0  0  0  0  0  0  0
   -6.1522   -1.1501    1.5557 H   0  0  0  0  0  0  0  0  0  0  0  0
   -5.9976    0.8921    2.0097 H   0  0  0  0  0  0  0  0  0  0  0  0
   -5.7245   -1.2934   -0.6293 H   0  0  0  0  0  0  0  0  0  0  0  0
   -5.6720    0.4482   -0.3932 H   0  0  0  0  0  0  0  0  0  0  0  0
   -3.9713   -0.7266   -1.8447 H   0  0  0  0  0  0  0  0  0  0  0  0
   -2.7434    1.1052   -1.9953 H   0  0  0  0  0  0  0  0  0  0  0  0
   -1.6761    2.3726   -0.4872 H   0  0  0  0  0  0  0  0  0  0  0  0
   -1.7942    1.4550    1.9208 H   0  0  0  0  0  0  0  0  0  0  0  0
   -0.9681    0.1835   -1.3340 H   0  0  0  0  0  0  0  0  0  0  0  0
   -1.8767   -0.5193    1.4155 H   0  0  0  0  0  0  0  0  0  0  0  0
   -0.2359   -2.0119    1.7392 H   0  0  0  0  0  0  0  0  0  0  0  0
   -0.8234   -2.9078    0.3363 H   0  0  0  0  0  0  0  0  0  0  0  0
    0.8202   -2.1989   -1.0520 H   0  0  0  0  0  0  0  0  0  0  0  0
    1.6275   -2.1953    0.5263 H   0  0  0  0  0  0  0  0  0  0  0  0
    0.2638    0.2882    1.4832 H   0  0  0  0  0  0  0  0  0  0  0  0
    0.5266    2.5888    1.1505 H   0  0  0  0  0  0  0  0  0  0  0  0
    0.7270    2.5105   -0.6000 H   0  0  0  0  0  0  0  0  0  0  0  0
    2.6803    1.9026    1.5923 H   0  0  0  0  0  0  0  0  0  0  0  0
    2.9872    2.2025   -0.1243 H   0  0  0  0  0  0  0  0  0  0  0  0
    2.5542   -0.3316    1.3838 H   0  0  0  0  0  0  0  0  0  0  0  0
    2.2565   -0.0817   -2.2714 H   0  0  0  0  0  0  0  0  0  0  0  0
    0.9393    1.0648   -2.0067 H   0  0  0  0  0  0  0  0  0  0  0  0
    0.5844   -0.6327   -2.3209 H   0  0  0  0  0  0  0  0  0  0  0  0
   -1.4018   -1.9123   -1.9040 H   0  0  0  0  0  0  0  0  0  0  0  0
   -3.1097   -2.2927   -2.1576 H   0  0  0  0  0  0  0  0  0  0  0  0
   -2.2039   -3.3696   -1.0874 H   0  0  0  0  0  0  0  0  0  0  0  0
    3.8875    0.3829   -1.2832 H   0  0  0  0  0  0  0  0  0  0  0  0
    3.1461   -2.0210   -1.2165 H   0  0  0  0  0  0  0  0  0  0  0  0
    4.0083   -2.2253    0.3925 H   0  0  0  0  0  0  0  0  0  0  0  0
    4.9424   -1.9186   -1.0777 H   0  0  0  0  0  0  0  0  0  0  0  0
    4.9971   -0.2386    1.4724 H   0  0  0  0  0  0  0  0  0  0  0  0
    4.9642    1.4185    0.6660 H   0  0  0  0  0  0  0  0  0  0  0  0
    6.2597    0.4634   -1.2344 H   0  0  0  0  0  0  0  0  0  0  0  0
    6.4634   -1.0722   -0.3379 H   0  0  0  0  0  0  0  0  0  0  0  0
    8.3745    0.2058   -0.0657 H   0  0  0  0  0  0  0  0  0  0  0  0
   -4.3293    4.1293   -1.4117 H   0  0  0  0  0  0  0  0  0  0  0  0
   -2.7527    3.3370   -1.9240 H   0  0  0  0  0  0  0  0  0  0  0  0
   -3.1351    3.7566   -0.1583 H   0  0  0  0  0  0  0  0  0  0  0  0
   -4.9286    1.9653   -1.7850 H   0  0  0  0  0  0  0  0  0  0  0  0
   -4.7619    2.2096    0.0350 H   0  0  0  0  0  0  0  0  0  0  0  0
    8.4672   -0.1381    2.1386 H   0  0  0  0  0  0  0  0  0  0  0  0
    6.8185    2.2806    1.1476 H   0  0  0  0  0  0  0  0  0  0  0  0
  1  2  1  0
  2  3  1  0
  3  4  1  0
  3  5  1  0
  5  6  1  0
  6  7  1  0
  7  8  1  0
  8  9  1  0
  8 10  1  0
 10 11  1  0
  1 12  1  0
  6 12  1  0
 11 12  1  0
 11 13  1  0
 13 14  1  0
 14 15  1  0
 10 16  1  0
 15 16  1  0
 16 17  1  0
 17 18  1  0
 15 19  1  0
 18 19  1  0
 15 20  1  6
 12 21  1  6
 19 22  1  0
 22 23  1  0
 22 24  1  0
 24 25  1  0
 25 26  1  0
  7 28  1  0
 27 28  1  0
 26 29  1  0
 26 30  1  0
  1 31  1  0
  1 32  1  0
  2 33  1  0
  2 34  1  0
  3 35  1  6
  4 36  1  0
  5 37  1  0
  5 38  1  0
  6 39  1  6
  7 40  1  6
  8 41  1  6
  9 42  1  0
 10 43  1  6
 11 44  1  1
 13 45  1  0
 13 46  1  0
 14 47  1  0
 14 48  1  0
 16 49  1  1
 17 50  1  0
 17 51  1  0
 18 52  1  0
 18 53  1  0
 19 54  1  1
 20 55  1  0
 20 56  1  0
 20 57  1  0
 21 58  1  0
 21 59  1  0
 21 60  1  0
 22 61  1  6
 23 62  1  0
 23 63  1  0
 23 64  1  0
 24 65  1  0
 24 66  1  0
 25 67  1  0
 25 68  1  0
 26 69  1  0
 27 70  1  0
 27 71  1  0
 27 72  1  0
 28 73  1  0
 28 74  1  0
 29 75  1  0
 30 76  1  0
M  END
>  <PDBID>  (1) 
1OT7

>  <PDB ID>  (1) 
1OT7

>  <Generic Name>  (1) 
Obeticholic acid

>  <Brand Name>  (1) 
Ocaliva

>  <DrugBank ID>  (1) 
DB05990

>  <ATC Codes>  (1) 
A05AA04

>  <Ligand ID>  (1) 
CHC

>  <Target Name>  (1) 
Bile acid receptor

>  <UniProt ID>  (1) 
Q96RI1

>  <PDB ID.1>  (1) 
1OT7

>  <Seq. Identity>  (1) 
95%

$$$$
