PDB_DB00703_07
     RDKit          3D

 30 30  0  0  0  0  0  0  0  0999 V2000
   -3.8510   -0.8176    0.8681 N   0  0  0  0  0  0  0  0  0  0  0  0
   -3.0564   -0.0816   -0.3486 S   0  0  0  0  0  0  0  0  0  0  0  0
   -3.1565   -0.5611   -1.7297 O   0  0  0  0  0  0  0  0  0  0  0  0
   -4.2558    1.4247   -0.4360 O   0  0  0  0  0  0  0  0  0  0  0  0
   -1.7395    0.7242    0.2757 C   0  0  1  0  0  0  0  0  0  0  0  0
   -0.6718   -0.3273    1.3534 S   0  0  0  0  0  0  0  0  0  0  0  0
    0.8993    0.2495    0.5776 C   0  0  2  0  0  0  0  0  0  0  0  0
    0.3152    0.4545   -0.7652 N   0  0  0  0  0  0  0  0  0  0  0  0
   -0.1077   -0.8808   -1.1927 C   0  0  0  0  0  0  0  0  0  0  0  0
   -0.7719    1.2962   -0.5910 N   0  0  0  0  0  0  0  0  0  0  0  0
    1.8604   -0.7917    0.6041 N   0  0  0  0  0  0  0  0  0  0  0  0
    3.1204   -0.3988    0.0739 C   0  0  0  0  0  0  0  0  0  0  0  0
    3.0971   -0.0412   -1.2504 O   0  0  0  0  0  0  0  0  0  0  0  0
    3.7794    0.7134    0.8656 C   0  0  0  0  0  0  0  0  0  0  0  0
   -4.7970   -1.1906    0.7028 H   0  0  0  0  0  0  0  0  0  0  0  0
   -3.2784   -1.4023    1.5198 H   0  0  0  0  0  0  0  0  0  0  0  0
   -3.1241   -1.4970   -2.0498 H   0  0  0  0  0  0  0  0  0  0  0  0
   -4.1661    1.6822    0.5267 H   0  0  0  0  0  0  0  0  0  0  0  0
   -2.0656    1.5255    1.0003 H   0  0  0  0  0  0  0  0  0  0  0  0
    1.1851    1.1985    1.0288 H   0  0  0  0  0  0  0  0  0  0  0  0
   -0.4675   -0.8819   -2.2367 H   0  0  0  0  0  0  0  0  0  0  0  0
    0.7961   -1.5256   -1.1193 H   0  0  0  0  0  0  0  0  0  0  0  0
   -0.8338   -1.3169   -0.4848 H   0  0  0  0  0  0  0  0  0  0  0  0
   -0.4109    2.2246   -0.3200 H   0  0  0  0  0  0  0  0  0  0  0  0
    1.9156   -1.3519    1.4558 H   0  0  0  0  0  0  0  0  0  0  0  0
    3.8147   -1.2807    0.1760 H   0  0  0  0  0  0  0  0  0  0  0  0
    4.0251   -0.1353   -1.6362 H   0  0  0  0  0  0  0  0  0  0  0  0
    3.2567    1.6841    0.7455 H   0  0  0  0  0  0  0  0  0  0  0  0
    4.8002    0.8439    0.4524 H   0  0  0  0  0  0  0  0  0  0  0  0
    3.8888    0.4610    1.9337 H   0  0  0  0  0  0  0  0  0  0  0  0
  1  2  1  0
  2  3  1  0
  2  4  1  0
  2  5  1  0
  5  6  1  0
  6  7  1  0
  7  8  1  0
  8  9  1  0
  5 10  1  0
  8 10  1  0
  7 11  1  0
 11 12  1  0
 12 13  1  0
 12 14  1  0
  1 15  1  0
  1 16  1  0
  3 17  1  0
  4 18  1  0
  5 19  1  1
  7 20  1  1
  9 21  1  0
  9 22  1  0
  9 23  1  0
 10 24  1  0
 11 25  1  0
 12 26  1  0
 13 27  1  0
 14 28  1  0
 14 29  1  0
 14 30  1  0
M  END
>  <PDBID>  (1) 
1BZM

>  <PDB ID>  (1) 
1BZM

>  <Generic Name>  (1) 
Methazolamide

>  <Brand Name>  (1) 
Methazolamide#Neptazane#Neptazane Tablets 25mg#Neptazane Tablets 25mg USP#Neptazane Tablets 50mg#Naptazane

>  <DrugBank ID>  (1) 
DB00703

>  <ATC Codes>  (1) 
S01EC05

>  <Ligand ID>  (1) 
MZM

>  <Target Name>  (1) 
Carbonic anhydrase 1

>  <UniProt ID>  (1) 
P00915

>  <PDB ID.1>  (1) 
1BZM

>  <Seq. Identity>  (1) 
100%

$$$$
