PDB_DB01536_00
     RDKit          3D

 53 56  0  0  0  0  0  0  0  0999 V2000
    2.3581   -1.6507   -0.0004 C   0  0  0  0  0  0  0  0  0  0  0  0
    1.5844   -0.4032    0.3553 C   0  0  1  0  0  0  0  0  0  0  0  0
   -0.5730   -1.7057    0.2304 C   0  0  0  0  0  0  0  0  0  0  0  0
   -1.8759   -1.4766    0.8881 C   0  0  0  0  0  0  0  0  0  0  0  0
   -2.6607   -0.3084    0.4949 C   0  0  1  0  0  0  0  0  0  0  0  0
   -1.9165    0.4138   -0.6393 C   0  0  1  0  0  0  0  0  0  0  0  0
   -2.8465    1.4732   -0.9998 C   0  0  0  0  0  0  0  0  0  0  0  0
   -4.2242    0.8458   -0.7954 C   0  0  0  0  0  0  0  0  0  0  0  0
   -3.9631   -0.5389   -0.1816 C   0  0  0  0  0  0  0  0  0  0  0  0
   -2.8992    0.6435    1.6539 C   0  0  0  0  0  0  0  0  0  0  0  0
    1.5729   -0.1541    1.8432 C   0  0  0  0  0  0  0  0  0  0  0  0
    3.8487   -1.4963    0.3309 C   0  0  0  0  0  0  0  0  0  0  0  0
    4.4677   -0.3445   -0.4000 C   0  0  0  0  0  0  0  0  0  0  0  0
    3.6865    0.9016   -0.0324 C   0  0  0  0  0  0  0  0  0  0  0  0
    2.2535    0.7331   -0.3994 C   0  0  0  0  0  0  0  0  0  0  0  0
    1.5283    2.0273   -0.2914 C   0  0  0  0  0  0  0  0  0  0  0  0
    0.0750    1.9316   -0.6835 C   0  0  0  0  0  0  0  0  0  0  0  0
   -0.6001    0.7655   -0.0729 C   0  0  2  0  0  0  0  0  0  0  0  0
    0.2008   -0.5376   -0.2173 C   0  0  1  0  0  0  0  0  0  0  0  0
    4.4509   -0.6072   -1.7502 O   0  0  0  0  0  0  0  0  0  0  0  0
   -5.0188   -0.7809    0.6914 O   0  0  0  0  0  0  0  0  0  0  0  0
    2.0340   -2.5542    0.5118 H   0  0  0  0  0  0  0  0  0  0  0  0
    2.3108   -1.7374   -1.1183 H   0  0  0  0  0  0  0  0  0  0  0  0
    0.0686   -2.2931    0.9533 H   0  0  0  0  0  0  0  0  0  0  0  0
   -0.7400   -2.4449   -0.6097 H   0  0  0  0  0  0  0  0  0  0  0  0
   -1.7218   -1.4372    2.0092 H   0  0  0  0  0  0  0  0  0  0  0  0
   -2.5225   -2.3965    0.7621 H   0  0  0  0  0  0  0  0  0  0  0  0
   -1.8671   -0.3425   -1.4667 H   0  0  0  0  0  0  0  0  0  0  0  0
   -2.7702    1.6728   -2.1083 H   0  0  0  0  0  0  0  0  0  0  0  0
   -2.7448    2.4429   -0.5131 H   0  0  0  0  0  0  0  0  0  0  0  0
   -4.7358    1.4563   -0.0345 H   0  0  0  0  0  0  0  0  0  0  0  0
   -4.7756    0.7167   -1.7253 H   0  0  0  0  0  0  0  0  0  0  0  0
   -3.9190   -1.2644   -1.0168 H   0  0  0  0  0  0  0  0  0  0  0  0
   -3.9433    0.4607    2.0317 H   0  0  0  0  0  0  0  0  0  0  0  0
   -2.8305    1.6928    1.3816 H   0  0  0  0  0  0  0  0  0  0  0  0
   -2.2314    0.4004    2.5230 H   0  0  0  0  0  0  0  0  0  0  0  0
    2.2572   -0.8752    2.3347 H   0  0  0  0  0  0  0  0  0  0  0  0
    1.8187    0.8958    2.0976 H   0  0  0  0  0  0  0  0  0  0  0  0
    0.5524   -0.3631    2.2110 H   0  0  0  0  0  0  0  0  0  0  0  0
    4.3378   -2.4275    0.0006 H   0  0  0  0  0  0  0  0  0  0  0  0
    4.0132   -1.3790    1.4091 H   0  0  0  0  0  0  0  0  0  0  0  0
    5.4857   -0.2095   -0.0208 H   0  0  0  0  0  0  0  0  0  0  0  0
    3.8157    1.0541    1.0559 H   0  0  0  0  0  0  0  0  0  0  0  0
    4.1035    1.7260   -0.6319 H   0  0  0  0  0  0  0  0  0  0  0  0
    2.2235    0.4244   -1.4829 H   0  0  0  0  0  0  0  0  0  0  0  0
    1.6549    2.4741    0.7262 H   0  0  0  0  0  0  0  0  0  0  0  0
    2.0033    2.7400   -0.9970 H   0  0  0  0  0  0  0  0  0  0  0  0
   -0.0332    1.9491   -1.7886 H   0  0  0  0  0  0  0  0  0  0  0  0
   -0.4173    2.8528   -0.3088 H   0  0  0  0  0  0  0  0  0  0  0  0
   -0.6554    0.9438    1.0385 H   0  0  0  0  0  0  0  0  0  0  0  0
    0.3514   -0.6184   -1.3374 H   0  0  0  0  0  0  0  0  0  0  0  0
    4.7295   -1.5640   -1.8702 H   0  0  0  0  0  0  0  0  0  0  0  0
   -5.3012   -1.7270    0.6336 H   0  0  0  0  0  0  0  0  0  0  0  0
  1  2  1  0
  3  4  1  0
  4  5  1  0
  5  6  1  0
  6  7  1  0
  7  8  1  0
  5  9  1  0
  8  9  1  0
  5 10  1  1
  2 11  1  1
  1 12  1  0
 12 13  1  0
 13 14  1  0
  2 15  1  0
 14 15  1  0
 15 16  1  0
 16 17  1  0
  6 18  1  0
 17 18  1  0
  2 19  1  0
  3 19  1  0
 18 19  1  0
 13 20  1  0
  9 21  1  0
  1 22  1  0
  1 23  1  0
  3 24  1  0
  3 25  1  0
  4 26  1  0
  4 27  1  0
  6 28  1  6
  7 29  1  0
  7 30  1  0
  8 31  1  0
  8 32  1  0
  9 33  1  0
 10 34  1  0
 10 35  1  0
 10 36  1  0
 11 37  1  0
 11 38  1  0
 11 39  1  0
 12 40  1  0
 12 41  1  0
 13 42  1  0
 14 43  1  0
 14 44  1  0
 15 45  1  0
 16 46  1  0
 16 47  1  0
 17 48  1  0
 17 49  1  0
 18 50  1  1
 19 51  1  6
 20 52  1  0
 21 53  1  0
M  END
>  <PDBID>  (1) 
1QYX

>  <PDB ID>  (1) 
1QYX

>  <Generic Name>  (1) 
4-Androstenedione

>  <Brand Name>  (1) 
nan

>  <DrugBank ID>  (1) 
DB01536

>  <ATC Codes>  (1) 
nan

>  <Ligand ID>  (1) 
ASD

>  <Target Name>  (1) 
Estradiol 17-beta-dehydrogenase 1

>  <UniProt ID>  (1) 
P14061

>  <PDB ID.1>  (1) 
1QYX

>  <Seq. Identity>  (1) 
89%

$$$$
