PDB_DB04573_06
     RDKit          3D

102108  0  0  0  0  0  0  0  0999 V2000
    0.3643    0.6319   -0.1979 C   0  0  1  0  0  0  0  0  0  0  0  0
   -0.2973    1.1481   -1.3993 C   0  0  0  0  0  0  0  0  0  0  0  0
   -1.7527    1.0160   -1.5384 C   0  0  0  0  0  0  0  0  0  0  0  0
   -2.4376    0.0943   -0.5846 C   0  0  2  0  0  0  0  0  0  0  0  0
   -2.4565   -1.3310   -1.0802 C   0  0  0  0  0  0  0  0  0  0  0  0
   -3.8291    0.4836   -0.2192 C   0  0  1  0  0  0  0  0  0  0  0  0
   -4.7481    0.1313   -1.2299 O   0  0  0  0  0  0  0  0  0  0  0  0
   -4.0636   -0.3609    1.0225 C   0  0  2  0  0  0  0  0  0  0  0  0
   -4.9433    0.2459    1.8982 O   0  0  0  0  0  0  0  0  0  0  0  0
   -2.6865   -0.5691    1.6457 C   0  0  0  0  0  0  0  0  0  0  0  0
   -1.7619    0.1848    0.7918 C   0  0  1  0  0  0  0  0  0  0  0  0
   -0.4147   -0.4266    0.5566 C   0  0  2  0  0  0  0  0  0  0  0  0
    0.2819   -0.8498    1.7987 C   0  0  0  0  0  0  0  0  0  0  0  0
    1.7037   -1.2203    1.5409 C   0  0  0  0  0  0  0  0  0  0  0  0
    2.4289   -0.0417    0.8783 C   0  0  0  0  0  0  0  0  0  0  0  0
    3.9017   -0.3453    0.8139 C   0  0  0  0  0  0  0  0  0  0  0  0
    4.4975   -0.1445   -0.5403 C   0  0  0  0  0  0  0  0  0  0  0  0
    5.8848   -0.0182   -0.3820 O   0  0  0  0  0  0  0  0  0  0  0  0
    4.0000    1.1636   -1.0988 C   0  0  0  0  0  0  0  0  0  0  0  0
    2.5025    1.1235   -1.3442 C   0  0  0  0  0  0  0  0  0  0  0  0
    1.7991    0.1489   -0.4658 C   0  0  2  0  0  0  0  0  0  0  0  0
    0.3508    0.7627   -0.0432 C   0  0  1  0  0  0  0  0  0  0  0  0
   -0.4312    1.5145   -1.0231 C   0  0  0  0  0  0  0  0  0  0  0  0
   -1.7287    0.9408   -1.4807 C   0  0  0  0  0  0  0  0  0  0  0  0
   -2.4222    0.0337   -0.5638 C   0  0  2  0  0  0  0  0  0  0  0  0
   -2.5078   -1.3939   -1.1165 C   0  0  0  0  0  0  0  0  0  0  0  0
   -3.7924    0.4185   -0.1263 C   0  0  1  0  0  0  0  0  0  0  0  0
   -4.7624    0.3033   -1.0941 O   0  0  0  0  0  0  0  0  0  0  0  0
   -4.0007   -0.5544    1.0290 C   0  0  2  0  0  0  0  0  0  0  0  0
   -4.8506   -0.0339    1.9915 O   0  0  0  0  0  0  0  0  0  0  0  0
   -2.6119   -0.8434    1.5929 C   0  0  0  0  0  0  0  0  0  0  0  0
   -1.7217   -0.0007    0.8043 C   0  0  1  0  0  0  0  0  0  0  0  0
   -0.3589   -0.4909    0.4945 C   0  0  2  0  0  0  0  0  0  0  0  0
    0.3835   -1.0876    1.6480 C   0  0  0  0  0  0  0  0  0  0  0  0
    1.8101   -1.3815    1.2541 C   0  0  0  0  0  0  0  0  0  0  0  0
    2.4316   -0.0595    0.8245 C   0  0  1  0  0  0  0  0  0  0  0  0
    3.9045   -0.1218    0.7636 C   0  0  0  0  0  0  0  0  0  0  0  0
    4.3991   -0.0752   -0.6422 C   0  0  0  0  0  0  0  0  0  0  0  0
    5.8026   -0.0498   -0.6138 O   0  0  0  0  0  0  0  0  0  0  0  0
    3.9416    1.2409   -1.2352 C   0  0  0  0  0  0  0  0  0  0  0  0
    2.4564    1.3851   -1.2439 C   0  0  0  0  0  0  0  0  0  0  0  0
    1.7406    0.3507   -0.4544 C   0  0  2  0  0  0  0  0  0  0  0  0
    0.5038    1.4726    0.5461 H   0  0  0  0  0  0  0  0  0  0  0  0
    0.1961    0.6762   -2.3014 H   0  0  0  0  0  0  0  0  0  0  0  0
   -0.0301    2.2421   -1.5094 H   0  0  0  0  0  0  0  0  0  0  0  0
   -2.0415    0.6698   -2.5709 H   0  0  0  0  0  0  0  0  0  0  0  0
   -2.2721    2.0168   -1.4461 H   0  0  0  0  0  0  0  0  0  0  0  0
   -2.3683   -2.0660   -0.2660 H   0  0  0  0  0  0  0  0  0  0  0  0
   -1.6208   -1.5382   -1.7919 H   0  0  0  0  0  0  0  0  0  0  0  0
   -3.4342   -1.5598   -1.5922 H   0  0  0  0  0  0  0  0  0  0  0  0
   -3.9173    1.5574    0.0484 H   0  0  0  0  0  0  0  0  0  0  0  0
   -5.5232    0.7476   -1.1261 H   0  0  0  0  0  0  0  0  0  0  0  0
   -4.4539   -1.3455    0.6677 H   0  0  0  0  0  0  0  0  0  0  0  0
   -5.8149   -0.2393    1.8541 H   0  0  0  0  0  0  0  0  0  0  0  0
   -2.4578   -1.6303    1.7973 H   0  0  0  0  0  0  0  0  0  0  0  0
   -2.7309   -0.1043    2.6662 H   0  0  0  0  0  0  0  0  0  0  0  0
   -1.7044    1.2489    1.0445 H   0  0  0  0  0  0  0  0  0  0  0  0
   -0.4669   -1.3117   -0.1246 H   0  0  0  0  0  0  0  0  0  0  0  0
   -0.2356   -1.7687    2.1819 H   0  0  0  0  0  0  0  0  0  0  0  0
    0.2188   -0.1110    2.6208 H   0  0  0  0  0  0  0  0  0  0  0  0
    1.7317   -2.0382    0.7911 H   0  0  0  0  0  0  0  0  0  0  0  0
    2.2317   -1.5651    2.4332 H   0  0  0  0  0  0  0  0  0  0  0  0
    2.1908    0.8447    1.5032 H   0  0  0  0  0  0  0  0  0  0  0  0
    4.1045   -1.3699    1.2186 H   0  0  0  0  0  0  0  0  0  0  0  0
    4.4084    0.3488    1.5296 H   0  0  0  0  0  0  0  0  0  0  0  0
    4.3438   -0.9971   -1.2294 H   0  0  0  0  0  0  0  0  0  0  0  0
    6.2309   -0.6563    0.3126 H   0  0  0  0  0  0  0  0  0  0  0  0
    4.5346    1.4031   -2.0459 H   0  0  0  0  0  0  0  0  0  0  0  0
    4.2503    1.9521   -0.3842 H   0  0  0  0  0  0  0  0  0  0  0  0
    2.3837    0.7654   -2.4044 H   0  0  0  0  0  0  0  0  0  0  0  0
    2.0889    2.1476   -1.3158 H   0  0  0  0  0  0  0  0  0  0  0  0
    1.6807   -0.8559   -0.9321 H   0  0  0  0  0  0  0  0  0  0  0  0
    0.4944    1.3909    0.8881 H   0  0  0  0  0  0  0  0  0  0  0  0
    0.1760    1.7097   -1.9571 H   0  0  0  0  0  0  0  0  0  0  0  0
   -0.6551    2.5609   -0.6527 H   0  0  0  0  0  0  0  0  0  0  0  0
   -1.5787    0.3911   -2.4596 H   0  0  0  0  0  0  0  0  0  0  0  0
   -2.4456    1.7687   -1.7666 H   0  0  0  0  0  0  0  0  0  0  0  0
   -2.2166   -2.1404   -0.3799 H   0  0  0  0  0  0  0  0  0  0  0  0
   -1.8178   -1.4780   -1.9774 H   0  0  0  0  0  0  0  0  0  0  0  0
   -3.5578   -1.6061   -1.4337 H   0  0  0  0  0  0  0  0  0  0  0  0
   -3.7819    1.4486    0.3305 H   0  0  0  0  0  0  0  0  0  0  0  0
   -5.5260    0.8936   -0.8038 H   0  0  0  0  0  0  0  0  0  0  0  0
   -4.3842   -1.4896    0.5730 H   0  0  0  0  0  0  0  0  0  0  0  0
   -5.7354   -0.4607    1.8691 H   0  0  0  0  0  0  0  0  0  0  0  0
   -2.3926   -1.9129    1.6421 H   0  0  0  0  0  0  0  0  0  0  0  0
   -2.6245   -0.4732    2.6594 H   0  0  0  0  0  0  0  0  0  0  0  0
   -1.7362    1.0404    1.1838 H   0  0  0  0  0  0  0  0  0  0  0  0
   -0.3264   -1.2272   -0.3422 H   0  0  0  0  0  0  0  0  0  0  0  0
   -0.0920   -2.0642    1.8756 H   0  0  0  0  0  0  0  0  0  0  0  0
    0.3131   -0.4762    2.5595 H   0  0  0  0  0  0  0  0  0  0  0  0
    1.8000   -2.0975    0.4252 H   0  0  0  0  0  0  0  0  0  0  0  0
    2.3268   -1.7845    2.1464 H   0  0  0  0  0  0  0  0  0  0  0  0
    2.1406    0.6703    1.6361 H   0  0  0  0  0  0  0  0  0  0  0  0
    4.2821   -1.0605    1.2479 H   0  0  0  0  0  0  0  0  0  0  0  0
    4.3732    0.7214    1.3374 H   0  0  0  0  0  0  0  0  0  0  0  0
    4.0182   -0.9428   -1.1948 H   0  0  0  0  0  0  0  0  0  0  0  0
    6.1268   -0.7433    0.0214 H   0  0  0  0  0  0  0  0  0  0  0  0
    4.4129    1.3220   -2.2372 H   0  0  0  0  0  0  0  0  0  0  0  0
    4.3917    2.0497   -0.6216 H   0  0  0  0  0  0  0  0  0  0  0  0
    2.1361    1.2904   -2.3132 H   0  0  0  0  0  0  0  0  0  0  0  0
    2.1711    2.4169   -0.8976 H   0  0  0  0  0  0  0  0  0  0  0  0
    1.6754   -0.5751   -1.0825 H   0  0  0  0  0  0  0  0  0  0  0  0
  1  2  1  0
  2  3  1  0
  3  4  1  0
  4  5  1  6
  4  6  1  0
  6  7  1  0
  6  8  1  0
  8  9  1  0
  8 10  1  0
  4 11  1  0
 10 11  1  0
  1 12  1  0
 11 12  1  0
 12 13  1  0
 13 14  1  0
 14 15  1  0
 15 16  1  0
 16 17  1  0
 17 18  1  0
 17 19  1  0
 19 20  1  0
  1 21  1  0
 15 21  1  0
 20 21  1  0
 22 23  1  0
 23 24  1  0
 24 25  1  0
 25 26  1  6
 25 27  1  0
 27 28  1  0
 27 29  1  0
 29 30  1  0
 29 31  1  0
 25 32  1  0
 31 32  1  0
 22 33  1  0
 32 33  1  0
 33 34  1  0
 34 35  1  0
 35 36  1  0
 36 37  1  0
 37 38  1  0
 38 39  1  0
 38 40  1  0
 40 41  1  0
 22 42  1  0
 36 42  1  0
 41 42  1  0
  1 43  1  1
  2 44  1  0
  2 45  1  0
  3 46  1  0
  3 47  1  0
  5 48  1  0
  5 49  1  0
  5 50  1  0
  6 51  1  1
  7 52  1  0
  8 53  1  6
  9 54  1  0
 10 55  1  0
 10 56  1  0
 11 57  1  1
 12 58  1  6
 13 59  1  0
 13 60  1  0
 14 61  1  0
 14 62  1  0
 15 63  1  0
 16 64  1  0
 16 65  1  0
 17 66  1  0
 18 67  1  0
 19 68  1  0
 19 69  1  0
 20 70  1  0
 20 71  1  0
 21 72  1  6
 22 73  1  1
 23 74  1  0
 23 75  1  0
 24 76  1  0
 24 77  1  0
 26 78  1  0
 26 79  1  0
 26 80  1  0
 27 81  1  1
 28 82  1  0
 29 83  1  6
 30 84  1  0
 31 85  1  0
 31 86  1  0
 32 87  1  1
 33 88  1  6
 34 89  1  0
 34 90  1  0
 35 91  1  0
 35 92  1  0
 36 93  1  1
 37 94  1  0
 37 95  1  0
 38 96  1  0
 39 97  1  0
 40 98  1  0
 40 99  1  0
 41100  1  0
 41101  1  0
 42102  1  6
M  END
>  <PDBID>  (1) 
3Q95

>  <PDB ID>  (1) 
3Q95

>  <Generic Name>  (1) 
Estriol

>  <Brand Name>  (1) 
Aacifemine#Colpoestriol#Ovestin#Synapause E

>  <DrugBank ID>  (1) 
DB04573

>  <ATC Codes>  (1) 
G03CC06#G03CA04

>  <Ligand ID>  (1) 
ESL

>  <Target Name>  (1) 
Estrogen receptor

>  <UniProt ID>  (1) 
P03372

>  <PDB ID.1>  (1) 
3Q95

>  <Seq. Identity>  (1) 
93%

$$$$
