PDB_DB01361_02
     RDKit          3D

134137  0  0  0  0  0  0  0  0999 V2000
    5.2219   -4.7974    2.0665 C   0  0  0  0  0  0  0  0  0  0  0  0
    5.3032   -3.4712    1.6441 O   0  0  0  0  0  0  0  0  0  0  0  0
    4.2208   -3.0606    0.9147 C   0  0  1  0  0  0  0  0  0  0  0  0
    3.5479   -1.9005    1.6379 C   0  0  0  0  0  0  0  0  0  0  0  0
    2.5592   -1.2569    0.7594 C   0  0  1  0  0  0  0  0  0  0  0  0
    2.4235   -2.0000   -0.4333 O   0  0  0  0  0  0  0  0  0  0  0  0
    3.5438   -1.9351   -1.2016 C   0  0  1  0  0  0  0  0  0  0  0  0
    3.9343   -0.5112   -1.4911 C   0  0  0  0  0  0  0  0  0  0  0  0
    4.6685   -2.6600   -0.4682 C   0  0  2  0  0  0  0  0  0  0  0  0
    4.9224   -3.8177   -1.1985 O   0  0  0  0  0  0  0  0  0  0  0  0
    6.2066   -3.8273   -1.7258 C   0  0  1  0  0  0  0  0  0  0  0  0
    6.8924   -4.8875   -1.1524 O   0  0  0  0  0  0  0  0  0  0  0  0
    6.2583   -3.9782   -3.2226 C   0  0  0  0  0  0  0  0  0  0  0  0
    1.3295   -0.9553    1.2975 O   0  0  0  0  0  0  0  0  0  0  0  0
    0.8956    0.3568    1.1639 C   0  0  2  0  0  0  0  0  0  0  0  0
    0.9357    0.9650    2.5474 C   0  0  2  0  0  0  0  0  0  0  0  0
    1.5162    2.3858    2.5415 C   0  0  0  0  0  0  0  0  0  0  0  0
    2.6580    2.3596    1.7698 O   0  0  0  0  0  0  0  0  0  0  0  0
    0.5739    3.3141    2.2480 O   0  0  0  0  0  0  0  0  0  0  0  0
    0.9802    4.4812    1.7095 C   0  0  2  0  0  0  0  0  0  0  0  0
    2.1674    5.0203    2.4877 C   0  0  0  0  0  0  0  0  0  0  0  0
   -0.0695    5.5773    1.7626 C   0  0  2  0  0  0  0  0  0  0  0  0
   -0.3805    5.6917    3.2679 C   0  0  0  0  0  0  0  0  0  0  0  0
   -1.3509    5.3069    1.0921 C   0  0  1  0  0  0  0  0  0  0  0  0
   -2.3921    6.1637    1.4796 O   0  0  0  0  0  0  0  0  0  0  0  0
   -3.4562    5.7011    2.1127 C   0  0  2  0  0  0  0  0  0  0  0  0
   -4.6854    5.9338    1.4842 O   0  0  0  0  0  0  0  0  0  0  0  0
   -3.5875    6.2815    3.4972 C   0  0  0  0  0  0  0  0  0  0  0  0
   -1.3778    5.1127   -0.3803 C   0  0  2  0  0  0  0  0  0  0  0  0
   -1.2126    3.7798   -0.9699 C   0  0  2  0  0  0  0  0  0  0  0  0
   -1.1242    4.0359   -2.3846 O   0  0  0  0  0  0  0  0  0  0  0  0
   -2.2674    2.7573   -0.9220 C   0  0  2  0  0  0  0  0  0  0  0  0
   -3.5105    3.4549   -1.0257 O   0  0  0  0  0  0  0  0  0  0  0  0
   -3.3691    2.5240   -0.0733 C   0  0  0  0  0  0  0  0  0  0  0  0
   -1.9946    1.7194   -1.9693 C   0  0  0  0  0  0  0  0  0  0  0  0
   -0.8327    0.8539   -1.8972 C   0  0  1  0  0  0  0  0  0  0  0  0
    0.5070    1.3284   -2.3263 C   0  0  0  0  0  0  0  0  0  0  0  0
   -0.7159   -0.1308   -0.7607 C   0  0  2  0  0  0  0  0  0  0  0  0
   -1.9434   -0.8386   -0.8462 O   0  0  0  0  0  0  0  0  0  0  0  0
   -1.8278   -2.0697   -1.4515 C   0  0  2  0  0  0  0  0  0  0  0  0
   -2.4416   -2.0769   -2.7097 O   0  0  0  0  0  0  0  0  0  0  0  0
   -2.1166   -3.3054   -3.3015 C   0  0  2  0  0  0  0  0  0  0  0  0
   -2.3419   -3.2854   -4.7878 C   0  0  0  0  0  0  0  0  0  0  0  0
   -2.9874   -4.3967   -2.7015 C   0  0  0  0  0  0  0  0  0  0  0  0
   -3.3987   -4.0103   -1.2952 C   0  0  2  0  0  0  0  0  0  0  0  0
   -4.5735   -3.1749   -1.4152 N   0  0  0  0  0  0  0  0  0  0  0  0
   -5.0275   -2.6756   -0.1377 C   0  0  0  0  0  0  0  0  0  0  0  0
   -5.6433   -3.8229   -2.1221 C   0  0  0  0  0  0  0  0  0  0  0  0
   -2.2806   -3.1980   -0.6317 C   0  0  1  0  0  0  0  0  0  0  0  0
   -1.2868   -4.1353   -0.3177 O   0  0  0  0  0  0  0  0  0  0  0  0
   -1.1586   -4.4128    1.0167 C   0  0  2  0  0  0  0  0  0  0  0  0
    0.1034   -4.2281    1.5318 O   0  0  0  0  0  0  0  0  0  0  0  0
   -1.5454   -5.8768    1.2269 C   0  0  0  0  0  0  0  0  0  0  0  0
   -0.4954    0.2719    0.5891 C   0  0  1  0  0  0  0  0  0  0  0  0
   -1.3414   -0.6364    1.4967 C   0  0  0  0  0  0  0  0  0  0  0  0
   -0.4458    6.0485   -1.1331 C   0  0  0  0  0  0  0  0  0  0  0  0
    1.6111    0.0849    3.5552 C   0  0  0  0  0  0  0  0  0  0  0  0
    6.1294   -5.0454    2.6497 H   0  0  0  0  0  0  0  0  0  0  0  0
    4.3605   -4.9903    2.7362 H   0  0  0  0  0  0  0  0  0  0  0  0
    5.1277   -5.4937    1.2231 H   0  0  0  0  0  0  0  0  0  0  0  0
    3.5109   -3.9088    0.8183 H   0  0  0  0  0  0  0  0  0  0  0  0
    3.1352   -2.3497    2.5659 H   0  0  0  0  0  0  0  0  0  0  0  0
    4.2951   -1.1610    1.9892 H   0  0  0  0  0  0  0  0  0  0  0  0
    2.9744   -0.2944    0.3960 H   0  0  0  0  0  0  0  0  0  0  0  0
    3.3127   -2.4151   -2.1790 H   0  0  0  0  0  0  0  0  0  0  0  0
    3.1146    0.2000   -1.5469 H   0  0  0  0  0  0  0  0  0  0  0  0
    4.5524   -0.4689   -2.4438 H   0  0  0  0  0  0  0  0  0  0  0  0
    4.6766   -0.1834   -0.7050 H   0  0  0  0  0  0  0  0  0  0  0  0
    5.5811   -2.0480   -0.4980 H   0  0  0  0  0  0  0  0  0  0  0  0
    6.7481   -2.8874   -1.4133 H   0  0  0  0  0  0  0  0  0  0  0  0
    7.6369   -5.2117   -1.7101 H   0  0  0  0  0  0  0  0  0  0  0  0
    7.1871   -4.5347   -3.4921 H   0  0  0  0  0  0  0  0  0  0  0  0
    6.3462   -2.9965   -3.7393 H   0  0  0  0  0  0  0  0  0  0  0  0
    5.3721   -4.4675   -3.6678 H   0  0  0  0  0  0  0  0  0  0  0  0
    1.6289    0.9005    0.5722 H   0  0  0  0  0  0  0  0  0  0  0  0
   -0.1148    1.1189    2.8704 H   0  0  0  0  0  0  0  0  0  0  0  0
    1.8767    2.6373    3.5809 H   0  0  0  0  0  0  0  0  0  0  0  0
    2.4576    2.6909    0.8699 H   0  0  0  0  0  0  0  0  0  0  0  0
    1.3668    4.3310    0.6895 H   0  0  0  0  0  0  0  0  0  0  0  0
    3.1452    4.8187    1.9484 H   0  0  0  0  0  0  0  0  0  0  0  0
    2.3049    4.5834    3.4794 H   0  0  0  0  0  0  0  0  0  0  0  0
    2.1398    6.1526    2.5254 H   0  0  0  0  0  0  0  0  0  0  0  0
    0.4474    6.5111    1.4784 H   0  0  0  0  0  0  0  0  0  0  0  0
    0.5774    5.5552    3.8555 H   0  0  0  0  0  0  0  0  0  0  0  0
   -0.9879    4.8292    3.5989 H   0  0  0  0  0  0  0  0  0  0  0  0
   -0.7392    6.6772    3.5569 H   0  0  0  0  0  0  0  0  0  0  0  0
   -1.7530    4.3567    1.5204 H   0  0  0  0  0  0  0  0  0  0  0  0
   -3.3167    4.5950    2.2866 H   0  0  0  0  0  0  0  0  0  0  0  0
   -4.5687    6.3083    0.5871 H   0  0  0  0  0  0  0  0  0  0  0  0
   -4.6483    6.5051    3.7591 H   0  0  0  0  0  0  0  0  0  0  0  0
   -3.0347    7.2670    3.5412 H   0  0  0  0  0  0  0  0  0  0  0  0
   -3.1104    5.6443    4.2752 H   0  0  0  0  0  0  0  0  0  0  0  0
   -2.4082    5.4673   -0.7192 H   0  0  0  0  0  0  0  0  0  0  0  0
   -0.1894    3.4251   -0.7541 H   0  0  0  0  0  0  0  0  0  0  0  0
   -2.0085    4.3963   -2.6211 H   0  0  0  0  0  0  0  0  0  0  0  0
   -4.0664    1.6527   -0.2985 H   0  0  0  0  0  0  0  0  0  0  0  0
   -3.3092    2.6274    0.9992 H   0  0  0  0  0  0  0  0  0  0  0  0
   -2.9213    1.0655   -2.0474 H   0  0  0  0  0  0  0  0  0  0  0  0
   -2.0690    2.3005   -2.9465 H   0  0  0  0  0  0  0  0  0  0  0  0
   -1.0589    0.0953   -2.7644 H   0  0  0  0  0  0  0  0  0  0  0  0
    1.0643    0.4142   -2.7202 H   0  0  0  0  0  0  0  0  0  0  0  0
    0.4463    1.9611   -3.2665 H   0  0  0  0  0  0  0  0  0  0  0  0
    1.1764    1.7383   -1.5864 H   0  0  0  0  0  0  0  0  0  0  0  0
    0.0880   -0.8435   -1.1282 H   0  0  0  0  0  0  0  0  0  0  0  0
   -0.7316   -2.1980   -1.6922 H   0  0  0  0  0  0  0  0  0  0  0  0
   -1.0711   -3.5311   -3.0300 H   0  0  0  0  0  0  0  0  0  0  0  0
   -2.5730   -2.2411   -5.0923 H   0  0  0  0  0  0  0  0  0  0  0  0
   -3.1363   -3.9876   -5.0762 H   0  0  0  0  0  0  0  0  0  0  0  0
   -1.4093   -3.6199   -5.2947 H   0  0  0  0  0  0  0  0  0  0  0  0
   -3.8429   -4.6032   -3.3671 H   0  0  0  0  0  0  0  0  0  0  0  0
   -2.3766   -5.3115   -2.6344 H   0  0  0  0  0  0  0  0  0  0  0  0
   -3.6352   -4.8512   -0.6378 H   0  0  0  0  0  0  0  0  0  0  0  0
   -6.1366   -2.6261   -0.1794 H   0  0  0  0  0  0  0  0  0  0  0  0
   -4.7143   -1.6021    0.0109 H   0  0  0  0  0  0  0  0  0  0  0  0
   -4.7506   -3.3090    0.7110 H   0  0  0  0  0  0  0  0  0  0  0  0
   -6.6087   -3.6540   -1.5596 H   0  0  0  0  0  0  0  0  0  0  0  0
   -5.4167   -4.9058   -2.1350 H   0  0  0  0  0  0  0  0  0  0  0  0
   -5.7806   -3.3670   -3.1022 H   0  0  0  0  0  0  0  0  0  0  0  0
   -2.7180   -2.8648    0.3205 H   0  0  0  0  0  0  0  0  0  0  0  0
   -1.8684   -3.8443    1.6576 H   0  0  0  0  0  0  0  0  0  0  0  0
    0.0990   -3.6625    2.3529 H   0  0  0  0  0  0  0  0  0  0  0  0
   -0.8691   -6.3140    2.0153 H   0  0  0  0  0  0  0  0  0  0  0  0
   -1.3968   -6.4135    0.2875 H   0  0  0  0  0  0  0  0  0  0  0  0
   -2.5989   -5.9711    1.5569 H   0  0  0  0  0  0  0  0  0  0  0  0
   -0.9437    1.2952    0.7718 H   0  0  0  0  0  0  0  0  0  0  0  0
   -2.4000   -0.6491    1.1318 H   0  0  0  0  0  0  0  0  0  0  0  0
   -1.2774   -0.3854    2.5540 H   0  0  0  0  0  0  0  0  0  0  0  0
   -0.8740   -1.6335    1.3836 H   0  0  0  0  0  0  0  0  0  0  0  0
    0.6103    5.9627   -0.8249 H   0  0  0  0  0  0  0  0  0  0  0  0
   -0.8125    7.0960   -1.1139 H   0  0  0  0  0  0  0  0  0  0  0  0
   -0.4471    5.8086   -2.2252 H   0  0  0  0  0  0  0  0  0  0  0  0
    1.3388    0.3569    4.5985 H   0  0  0  0  0  0  0  0  0  0  0  0
    2.7150    0.2946    3.4742 H   0  0  0  0  0  0  0  0  0  0  0  0
    1.3517   -0.9716    3.4332 H   0  0  0  0  0  0  0  0  0  0  0  0
  1  2  1  0
  2  3  1  0
  3  4  1  0
  4  5  1  0
  5  6  1  0
  6  7  1  0
  7  8  1  0
  3  9  1  0
  7  9  1  0
  9 10  1  0
 10 11  1  0
 11 12  1  0
 11 13  1  0
  5 14  1  0
 14 15  1  0
 15 16  1  0
 16 17  1  0
 17 18  1  0
 17 19  1  0
 19 20  1  0
 20 21  1  0
 20 22  1  0
 22 23  1  0
 22 24  1  0
 24 25  1  0
 25 26  1  0
 26 27  1  0
 26 28  1  0
 24 29  1  0
 29 30  1  0
 30 31  1  0
 30 32  1  0
 32 33  1  6
 32 34  1  0
 33 34  1  0
 32 35  1  0
 35 36  1  0
 36 37  1  0
 36 38  1  0
 38 39  1  0
 39 40  1  0
 40 41  1  0
 41 42  1  0
 42 43  1  0
 42 44  1  0
 44 45  1  0
 45 46  1  0
 46 47  1  0
 46 48  1  0
 40 49  1  0
 45 49  1  0
 49 50  1  0
 50 51  1  0
 51 52  1  0
 51 53  1  0
 15 54  1  0
 38 54  1  0
 54 55  1  0
 29 56  1  0
 16 57  1  0
  1 58  1  0
  1 59  1  0
  1 60  1  0
  3 61  1  6
  4 62  1  0
  4 63  1  0
  5 64  1  6
  7 65  1  6
  8 66  1  0
  8 67  1  0
  8 68  1  0
  9 69  1  1
 11 70  1  6
 12 71  1  0
 13 72  1  0
 13 73  1  0
 13 74  1  0
 15 75  1  6
 16 76  1  1
 17 77  1  0
 18 78  1  0
 20 79  1  6
 21 80  1  0
 21 81  1  0
 21 82  1  0
 22 83  1  6
 23 84  1  0
 23 85  1  0
 23 86  1  0
 24 87  1  1
 26 88  1  1
 27 89  1  0
 28 90  1  0
 28 91  1  0
 28 92  1  0
 29 93  1  6
 30 94  1  1
 31 95  1  0
 34 96  1  0
 34 97  1  0
 35 98  1  0
 35 99  1  0
 36100  1  6
 37101  1  0
 37102  1  0
 37103  1  0
 38104  1  6
 40105  1  6
 42106  1  6
 43107  1  0
 43108  1  0
 43109  1  0
 44110  1  0
 44111  1  0
 45112  1  1
 47113  1  0
 47114  1  0
 47115  1  0
 48116  1  0
 48117  1  0
 48118  1  0
 49119  1  1
 51120  1  1
 52121  1  0
 53122  1  0
 53123  1  0
 53124  1  0
 54125  1  6
 55126  1  0
 55127  1  0
 55128  1  0
 56129  1  0
 56130  1  0
 56131  1  0
 57132  1  0
 57133  1  0
 57134  1  0
M  END
>  <PDBID>  (1) 
1OND

>  <PDB ID>  (1) 
1OND

>  <Generic Name>  (1) 
Troleandomycin

>  <Brand Name>  (1) 
Tao#Triocetin

>  <DrugBank ID>  (1) 
DB01361

>  <ATC Codes>  (1) 
J01FA08

>  <Ligand ID>  (1) 
TAO

>  <Target Name>  (1) 
50S ribosomal protein L32

>  <UniProt ID>  (1) 
P49228

>  <PDB ID.1>  (1) 
1OND

>  <Seq. Identity>  (1) 
100%

$$$$
