PDB_DB00523_04
     RDKit          3D

 62 62  0  0  0  0  0  0  0  0999 V2000
   -3.9282    0.5818   -0.3486 C   0  0  0  0  0  0  0  0  0  0  0  0
   -3.6690    0.4907   -1.8323 C   0  0  0  0  0  0  0  0  0  0  0  0
   -3.7602   -0.9180   -2.3638 C   0  0  0  0  0  0  0  0  0  0  0  0
   -2.7954   -1.7614   -1.5818 C   0  0  0  0  0  0  0  0  0  0  0  0
   -3.0606   -1.7258   -0.1169 C   0  0  2  0  0  0  0  0  0  0  0  0
   -3.1777   -0.3772    0.4957 C   0  0  1  0  0  0  0  0  0  0  0  0
   -1.8926    0.1352    1.1047 C   0  0  0  0  0  0  0  0  0  0  0  0
   -0.8552    0.5769    0.1972 C   0  0  0  0  0  0  0  0  0  0  0  0
    0.3390    1.1214    0.9560 C   0  0  0  0  0  0  0  0  0  0  0  0
    1.3876    1.5985   -0.0226 C   0  0  0  0  0  0  0  0  0  0  0  0
    2.6353    2.1547    0.4515 C   0  0  0  0  0  0  0  0  0  0  0  0
    3.7203    1.4726    1.1328 C   0  0  0  0  0  0  0  0  0  0  0  0
    4.5630    0.4584    0.4596 C   0  0  0  0  0  0  0  0  0  0  0  0
    3.9536   -0.7816   -0.0652 C   0  0  0  0  0  0  0  0  0  0  0  0
    4.9784   -1.7116   -0.7287 C   0  0  0  0  0  0  0  0  0  0  0  0
   -5.4207    0.1959   -0.2229 C   0  0  0  0  0  0  0  0  0  0  0  0
   -3.8437    2.0086    0.0571 C   0  0  0  0  0  0  0  0  0  0  0  0
   -2.0593   -2.6050    0.5978 C   0  0  0  0  0  0  0  0  0  0  0  0
    0.8702    0.1729    1.9553 C   0  0  0  0  0  0  0  0  0  0  0  0
    5.4041    1.1006   -0.6448 C   0  0  0  0  0  0  0  0  0  0  0  0
    5.6111   -1.1523   -1.8008 O   0  0  0  0  0  0  0  0  0  0  0  0
    4.2879   -2.8418   -1.1561 O   0  0  0  0  0  0  0  0  0  0  0  0
   -4.5364    1.0386   -2.3117 H   0  0  0  0  0  0  0  0  0  0  0  0
   -2.7808    0.9984   -2.1891 H   0  0  0  0  0  0  0  0  0  0  0  0
   -3.4169   -0.8900   -3.4149 H   0  0  0  0  0  0  0  0  0  0  0  0
   -4.7654   -1.3398   -2.3478 H   0  0  0  0  0  0  0  0  0  0  0  0
   -2.9810   -2.8268   -1.9133 H   0  0  0  0  0  0  0  0  0  0  0  0
   -1.7886   -1.5232   -1.9005 H   0  0  0  0  0  0  0  0  0  0  0  0
   -4.0557   -2.2520    0.0181 H   0  0  0  0  0  0  0  0  0  0  0  0
   -3.8196   -0.5199    1.4258 H   0  0  0  0  0  0  0  0  0  0  0  0
   -2.1477    0.9036    1.8391 H   0  0  0  0  0  0  0  0  0  0  0  0
   -1.5291   -0.7584    1.6984 H   0  0  0  0  0  0  0  0  0  0  0  0
   -1.1306    1.3813   -0.5178 H   0  0  0  0  0  0  0  0  0  0  0  0
   -0.4043   -0.2135   -0.4519 H   0  0  0  0  0  0  0  0  0  0  0  0
    0.0181    2.0505    1.5305 H   0  0  0  0  0  0  0  0  0  0  0  0
    0.8556    2.4683   -0.5869 H   0  0  0  0  0  0  0  0  0  0  0  0
    1.4763    0.8590   -0.8739 H   0  0  0  0  0  0  0  0  0  0  0  0
    2.3200    3.0255    1.1743 H   0  0  0  0  0  0  0  0  0  0  0  0
    3.0483    2.8296   -0.3990 H   0  0  0  0  0  0  0  0  0  0  0  0
    3.3562    0.9824    2.0862 H   0  0  0  0  0  0  0  0  0  0  0  0
    4.4432    2.2583    1.5945 H   0  0  0  0  0  0  0  0  0  0  0  0
    5.3444    0.1304    1.2238 H   0  0  0  0  0  0  0  0  0  0  0  0
    3.1281   -0.6465   -0.7829 H   0  0  0  0  0  0  0  0  0  0  0  0
    3.5094   -1.4204    0.7715 H   0  0  0  0  0  0  0  0  0  0  0  0
    5.6730   -2.0198    0.0896 H   0  0  0  0  0  0  0  0  0  0  0  0
   -5.6763    0.3284    0.8482 H   0  0  0  0  0  0  0  0  0  0  0  0
   -5.5626   -0.8677   -0.4657 H   0  0  0  0  0  0  0  0  0  0  0  0
   -6.0529    0.8838   -0.8028 H   0  0  0  0  0  0  0  0  0  0  0  0
   -4.8385    2.4842   -0.0671 H   0  0  0  0  0  0  0  0  0  0  0  0
   -3.6052    2.1490    1.1526 H   0  0  0  0  0  0  0  0  0  0  0  0
   -3.1542    2.6317   -0.5433 H   0  0  0  0  0  0  0  0  0  0  0  0
   -2.2427   -3.6599    0.2351 H   0  0  0  0  0  0  0  0  0  0  0  0
   -2.2759   -2.6564    1.6947 H   0  0  0  0  0  0  0  0  0  0  0  0
   -1.0200   -2.3845    0.3606 H   0  0  0  0  0  0  0  0  0  0  0  0
    1.2526    0.7145    2.8873 H   0  0  0  0  0  0  0  0  0  0  0  0
    1.6090   -0.5457    1.5620 H   0  0  0  0  0  0  0  0  0  0  0  0
    0.0965   -0.5048    2.4364 H   0  0  0  0  0  0  0  0  0  0  0  0
    6.3876    0.6166   -0.6321 H   0  0  0  0  0  0  0  0  0  0  0  0
    4.9501    1.0135   -1.6229 H   0  0  0  0  0  0  0  0  0  0  0  0
    5.6193    2.1760   -0.3658 H   0  0  0  0  0  0  0  0  0  0  0  0
    6.5509   -1.4331   -1.8801 H   0  0  0  0  0  0  0  0  0  0  0  0
    4.8577   -3.6546   -1.1281 H   0  0  0  0  0  0  0  0  0  0  0  0
  1  2  1  0
  2  3  1  0
  3  4  1  0
  4  5  1  0
  1  6  1  0
  5  6  1  0
  6  7  1  0
  7  8  1  0
  8  9  1  0
  9 10  1  0
 10 11  1  0
 11 12  1  0
 12 13  1  0
 13 14  1  0
 14 15  1  0
  1 16  1  0
  1 17  1  0
  5 18  1  0
  9 19  1  0
 13 20  1  0
 15 21  1  0
 15 22  1  0
  2 23  1  0
  2 24  1  0
  3 25  1  0
  3 26  1  0
  4 27  1  0
  4 28  1  0
  5 29  1  6
  6 30  1  1
  7 31  1  0
  7 32  1  0
  8 33  1  0
  8 34  1  0
  9 35  1  0
 10 36  1  0
 10 37  1  0
 11 38  1  0
 11 39  1  0
 12 40  1  0
 12 41  1  0
 13 42  1  0
 14 43  1  0
 14 44  1  0
 15 45  1  0
 16 46  1  0
 16 47  1  0
 16 48  1  0
 17 49  1  0
 17 50  1  0
 17 51  1  0
 18 52  1  0
 18 53  1  0
 18 54  1  0
 19 55  1  0
 19 56  1  0
 19 57  1  0
 20 58  1  0
 20 59  1  0
 20 60  1  0
 21 61  1  0
 22 62  1  0
M  END
>  <PDBID>  (1) 
3OAP

>  <PDB ID>  (1) 
3OAP

>  <Generic Name>  (1) 
Alitretinoin

>  <Brand Name>  (1) 
Panretin#Toctino

>  <DrugBank ID>  (1) 
DB00523

>  <ATC Codes>  (1) 
D11AH04#L01XX22

>  <Ligand ID>  (1) 
9CR

>  <Target Name>  (1) 
Retinoic acid receptor RXR-beta

>  <UniProt ID>  (1) 
P28702

>  <PDB ID.1>  (1) 
3OAP

>  <Seq. Identity>  (1) 
87%

$$$$
