PDB_DB08915_01
     RDKit          3D

 74 77  0  0  0  0  0  0  0  0999 V2000
   -1.9127    1.3648    1.3619 C   0  0  0  0  0  0  0  0  0  0  0  0
   -2.6132    0.0967    0.9335 C   0  0  0  0  0  0  0  0  0  0  0  0
   -3.7935   -0.0951    1.6505 O   0  0  0  0  0  0  0  0  0  0  0  0
   -4.6599   -0.7688    0.7985 C   0  0  0  0  0  0  0  0  0  0  0  0
   -6.0868   -0.3487    1.0764 C   0  0  0  0  0  0  0  0  0  0  0  0
   -6.3247    1.1069    0.8832 C   0  0  0  0  0  0  0  0  0  0  0  0
   -6.7123    1.5000   -0.5098 C   0  0  0  0  0  0  0  0  0  0  0  0
   -7.7040    0.6039   -1.1666 C   0  0  0  0  0  0  0  0  0  0  0  0
   -8.2070   -0.4061   -0.1631 C   0  0  0  0  0  0  0  0  0  0  0  0
   -7.0292   -1.2260    0.2863 C   0  0  0  0  0  0  0  0  0  0  0  0
   -4.3084   -0.4171   -0.5388 N   0  0  0  0  0  0  0  0  0  0  0  0
   -2.9743    0.1543   -0.5087 C   0  0  0  0  0  0  0  0  0  0  0  0
   -2.0956   -0.7137   -1.3351 C   0  0  0  0  0  0  0  0  0  0  0  0
   -0.6324   -0.3876   -1.3004 C   0  0  0  0  0  0  0  0  0  0  0  0
   -0.0485   -0.4623   -0.0479 O   0  0  0  0  0  0  0  0  0  0  0  0
    1.2992   -0.1430   -0.1796 C   0  0  0  0  0  0  0  0  0  0  0  0
    1.5738    1.2118    0.5059 C   0  0  0  0  0  0  0  0  0  0  0  0
    2.9439    1.6293   -0.0256 C   0  0  0  0  0  0  0  0  0  0  0  0
    2.2201   -1.1289    0.4134 C   0  0  0  0  0  0  0  0  0  0  0  0
    2.0711   -2.4947   -0.1723 C   0  0  0  0  0  0  0  0  0  0  0  0
    2.5218   -2.5232   -1.5989 C   0  0  0  0  0  0  0  0  0  0  0  0
    3.6863   -0.7409    0.1172 C   0  0  0  0  0  0  0  0  0  0  0  0
    3.6429   -1.0681   -1.6689 S   0  0  0  0  0  0  0  0  0  0  0  0
    3.9965    0.6267    0.4717 C   0  0  0  0  0  0  0  0  0  0  0  0
    5.3108    1.1635    0.0701 C   0  0  0  0  0  0  0  0  0  0  0  0
    6.5632    0.4668    0.3954 C   0  0  2  0  0  0  0  0  0  0  0  0
    7.6030    1.3819   -0.0821 O   0  0  0  0  0  0  0  0  0  0  0  0
    8.4660    1.6313    0.9827 C   0  0  0  0  0  0  0  0  0  0  0  0
    6.8723   -0.7286   -0.5156 C   0  0  0  0  0  0  0  0  0  0  0  0
    6.7707   -0.3240   -1.8506 O   0  0  0  0  0  0  0  0  0  0  0  0
    8.1907   -1.1677   -0.2565 O   0  0  0  0  0  0  0  0  0  0  0  0
   -1.5988    1.9753    0.4872 H   0  0  0  0  0  0  0  0  0  0  0  0
   -0.9838    1.1479    1.9686 H   0  0  0  0  0  0  0  0  0  0  0  0
   -2.5928    1.9047    2.0548 H   0  0  0  0  0  0  0  0  0  0  0  0
   -1.9621   -0.7710    1.2132 H   0  0  0  0  0  0  0  0  0  0  0  0
   -4.5634   -1.8481    1.0376 H   0  0  0  0  0  0  0  0  0  0  0  0
   -6.3007   -0.5718    2.1644 H   0  0  0  0  0  0  0  0  0  0  0  0
   -7.0578    1.4864    1.6471 H   0  0  0  0  0  0  0  0  0  0  0  0
   -5.3743    1.6451    1.1217 H   0  0  0  0  0  0  0  0  0  0  0  0
   -7.1904    2.5218   -0.4384 H   0  0  0  0  0  0  0  0  0  0  0  0
   -5.8212    1.6652   -1.1692 H   0  0  0  0  0  0  0  0  0  0  0  0
   -8.5251    1.1373   -1.6801 H   0  0  0  0  0  0  0  0  0  0  0  0
   -7.1548    0.0190   -1.9605 H   0  0  0  0  0  0  0  0  0  0  0  0
   -9.0133   -1.0518   -0.5950 H   0  0  0  0  0  0  0  0  0  0  0  0
   -8.5657    0.1611    0.7214 H   0  0  0  0  0  0  0  0  0  0  0  0
   -6.4716   -1.5464   -0.6390 H   0  0  0  0  0  0  0  0  0  0  0  0
   -7.3490   -2.1256    0.8435 H   0  0  0  0  0  0  0  0  0  0  0  0
   -4.3703   -1.2713   -1.1372 H   0  0  0  0  0  0  0  0  0  0  0  0
   -3.0433    1.1935   -0.9031 H   0  0  0  0  0  0  0  0  0  0  0  0
   -2.2712   -1.7608   -1.0664 H   0  0  0  0  0  0  0  0  0  0  0  0
   -2.4022   -0.6077   -2.4171 H   0  0  0  0  0  0  0  0  0  0  0  0
   -0.1161   -1.0972   -1.9721 H   0  0  0  0  0  0  0  0  0  0  0  0
   -0.4228    0.6288   -1.7282 H   0  0  0  0  0  0  0  0  0  0  0  0
    1.5555    0.0438   -1.2391 H   0  0  0  0  0  0  0  0  0  0  0  0
    1.6592    1.0778    1.6056 H   0  0  0  0  0  0  0  0  0  0  0  0
    0.8443    1.9669    0.2200 H   0  0  0  0  0  0  0  0  0  0  0  0
    3.2603    2.6173    0.2878 H   0  0  0  0  0  0  0  0  0  0  0  0
    2.9076    1.5155   -1.1226 H   0  0  0  0  0  0  0  0  0  0  0  0
    2.0886   -1.2265    1.5044 H   0  0  0  0  0  0  0  0  0  0  0  0
    1.0284   -2.8640   -0.0441 H   0  0  0  0  0  0  0  0  0  0  0  0
    2.7727   -3.1680    0.4099 H   0  0  0  0  0  0  0  0  0  0  0  0
    3.2166   -3.3970   -1.7677 H   0  0  0  0  0  0  0  0  0  0  0  0
    1.7404   -2.4781   -2.3547 H   0  0  0  0  0  0  0  0  0  0  0  0
    4.2632   -1.4792    0.6963 H   0  0  0  0  0  0  0  0  0  0  0  0
    3.8883    0.7244    1.6159 H   0  0  0  0  0  0  0  0  0  0  0  0
    5.4129    2.2668    0.4026 H   0  0  0  0  0  0  0  0  0  0  0  0
    5.3441    1.3304   -1.0738 H   0  0  0  0  0  0  0  0  0  0  0  0
    6.7404    0.2292    1.4474 H   0  0  0  0  0  0  0  0  0  0  0  0
    8.9494    0.7058    1.3649 H   0  0  0  0  0  0  0  0  0  0  0  0
    7.8724    2.1383    1.7693 H   0  0  0  0  0  0  0  0  0  0  0  0
    9.1916    2.3831    0.6082 H   0  0  0  0  0  0  0  0  0  0  0  0
    6.2305   -1.5531   -0.3184 H   0  0  0  0  0  0  0  0  0  0  0  0
    7.2615    0.5270   -1.9427 H   0  0  0  0  0  0  0  0  0  0  0  0
    8.2928   -1.9884   -0.8173 H   0  0  0  0  0  0  0  0  0  0  0  0
  1  2  1  0
  2  3  1  0
  3  4  1  0
  4  5  1  0
  5  6  1  0
  6  7  1  0
  7  8  1  0
  8  9  1  0
  5 10  1  0
  9 10  1  0
  4 11  1  0
  2 12  1  0
 11 12  1  0
 12 13  1  0
 13 14  1  0
 14 15  1  0
 15 16  1  0
 16 17  1  0
 17 18  1  0
 16 19  1  0
 19 20  1  0
 20 21  1  0
 19 22  1  0
 21 23  1  0
 22 23  1  0
 18 24  1  0
 22 24  1  0
 24 25  1  0
 25 26  1  0
 26 27  1  0
 27 28  1  0
 26 29  1  0
 29 30  1  0
 29 31  1  0
  1 32  1  0
  1 33  1  0
  1 34  1  0
  2 35  1  0
  4 36  1  0
  5 37  1  0
  6 38  1  0
  6 39  1  0
  7 40  1  0
  7 41  1  0
  8 42  1  0
  8 43  1  0
  9 44  1  0
  9 45  1  0
 10 46  1  0
 10 47  1  0
 11 48  1  0
 12 49  1  0
 13 50  1  0
 13 51  1  0
 14 52  1  0
 14 53  1  0
 16 54  1  0
 17 55  1  0
 17 56  1  0
 18 57  1  0
 18 58  1  0
 19 59  1  0
 20 60  1  0
 20 61  1  0
 21 62  1  0
 21 63  1  0
 22 64  1  0
 24 65  1  0
 25 66  1  0
 25 67  1  0
 26 68  1  1
 28 69  1  0
 28 70  1  0
 28 71  1  0
 29 72  1  0
 30 73  1  0
 31 74  1  0
M  END
>  <PDBID>  (1) 
3G8I

>  <PDB ID>  (1) 
3G8I

>  <Generic Name>  (1) 
Aleglitazar

>  <Brand Name>  (1) 
nan

>  <DrugBank ID>  (1) 
DB08915

>  <ATC Codes>  (1) 
nan

>  <Ligand ID>  (1) 
RO7

>  <Target Name>  (1) 
Peroxisome proliferator-activated receptor alpha

>  <UniProt ID>  (1) 
Q07869

>  <PDB ID.1>  (1) 
3G8I

>  <Seq. Identity>  (1) 
100%

$$$$
