PDB_DB01041_08
     RDKit          3D

172180  0  0  0  0  0  0  0  0999 V2000
   -1.7217    1.0536   -1.2785 O   0  0  0  0  0  0  0  0  0  0  0  0
   -1.9747   -0.2786   -1.1679 C   0  0  0  0  0  0  0  0  0  0  0  0
   -3.4203   -0.4645   -1.2980 N   0  0  0  0  0  0  0  0  0  0  0  0
   -4.1622    0.2196   -0.2893 C   0  0  0  0  0  0  0  0  0  0  0  0
   -4.9077    1.2918   -0.7920 O   0  0  0  0  0  0  0  0  0  0  0  0
   -3.3247    0.6175    0.9060 C   0  0  0  0  0  0  0  0  0  0  0  0
   -2.4827   -0.5881    1.2696 C   0  0  0  0  0  0  0  0  0  0  0  0
   -1.5613   -0.9261    0.1132 C   0  0  2  0  0  0  0  0  0  0  0  0
   -0.2347   -0.7522    0.5203 N   0  0  0  0  0  0  0  0  0  0  0  0
    4.2683   -0.1099   -0.3701 C   0  0  0  0  0  0  0  0  0  0  0  0
    3.2699   -1.2519   -0.2042 C   0  0  0  0  0  0  0  0  0  0  0  0
    1.9195   -0.6397   -0.2806 C   0  0  0  0  0  0  0  0  0  0  0  0
    1.7658    0.2321    0.9803 C   0  0  0  0  0  0  0  0  0  0  0  0
    0.3349   -2.1004   -1.3231 O   0  0  0  0  0  0  0  0  0  0  0  0
   -0.1425    1.0857    2.0149 O   0  0  0  0  0  0  0  0  0  0  0  0
    2.6187    1.4336    0.7542 C   0  0  0  0  0  0  0  0  0  0  0  0
    4.0416    1.0181    0.5705 C   0  0  0  0  0  0  0  0  0  0  0  0
    0.2644    0.5290    0.8111 C   0  0  2  0  0  0  0  0  0  0  0  0
    0.7613   -1.5517   -0.1153 C   0  0  0  0  0  0  0  0  0  0  0  0
   -1.7217    1.0536   -1.2785 O   0  0  0  0  0  0  0  0  0  0  0  0
   -1.9747   -0.2786   -1.1679 C   0  0  0  0  0  0  0  0  0  0  0  0
   -3.4203   -0.4645   -1.2980 N   0  0  0  0  0  0  0  0  0  0  0  0
   -4.1622    0.2196   -0.2893 C   0  0  0  0  0  0  0  0  0  0  0  0
   -4.9077    1.2918   -0.7920 O   0  0  0  0  0  0  0  0  0  0  0  0
   -3.3247    0.6175    0.9060 C   0  0  0  0  0  0  0  0  0  0  0  0
   -2.4827   -0.5881    1.2696 C   0  0  0  0  0  0  0  0  0  0  0  0
   -1.5613   -0.9261    0.1132 C   0  0  2  0  0  0  0  0  0  0  0  0
   -0.2347   -0.7522    0.5203 N   0  0  0  0  0  0  0  0  0  0  0  0
    4.2683   -0.1099   -0.3701 C   0  0  0  0  0  0  0  0  0  0  0  0
    3.2699   -1.2519   -0.2042 C   0  0  0  0  0  0  0  0  0  0  0  0
    1.9195   -0.6397   -0.2806 C   0  0  0  0  0  0  0  0  0  0  0  0
    1.7658    0.2321    0.9803 C   0  0  0  0  0  0  0  0  0  0  0  0
    0.3349   -2.1004   -1.3231 O   0  0  0  0  0  0  0  0  0  0  0  0
   -0.1425    1.0857    2.0149 O   0  0  0  0  0  0  0  0  0  0  0  0
    2.6187    1.4336    0.7542 C   0  0  0  0  0  0  0  0  0  0  0  0
    4.0416    1.0181    0.5705 C   0  0  0  0  0  0  0  0  0  0  0  0
    0.2644    0.5290    0.8111 C   0  0  2  0  0  0  0  0  0  0  0  0
    0.7613   -1.5517   -0.1153 C   0  0  0  0  0  0  0  0  0  0  0  0
   -2.1194    1.6379   -0.4910 O   0  0  0  0  0  0  0  0  0  0  0  0
   -2.3357    0.4226   -1.0780 C   0  0  0  0  0  0  0  0  0  0  0  0
   -3.7241    0.0296   -1.1136 N   0  0  0  0  0  0  0  0  0  0  0  0
   -4.3264    0.0901    0.2020 C   0  0  0  0  0  0  0  0  0  0  0  0
   -4.9695    1.3228    0.2897 O   0  0  0  0  0  0  0  0  0  0  0  0
   -3.3088   -0.0945    1.3046 C   0  0  0  0  0  0  0  0  0  0  0  0
   -2.2323   -1.1028    0.9054 C   0  0  0  0  0  0  0  0  0  0  0  0
   -1.5666   -0.7142   -0.3863 C   0  0  2  0  0  0  0  0  0  0  0  0
   -0.2247   -0.3752   -0.3497 N   0  0  0  0  0  0  0  0  0  0  0  0
    4.3639   -0.2445    0.1229 C   0  0  0  0  0  0  0  0  0  0  0  0
    3.2592   -1.2883   -0.0207 C   0  0  0  0  0  0  0  0  0  0  0  0
    2.0266   -0.5553   -0.3829 C   0  0  0  0  0  0  0  0  0  0  0  0
    1.6403    0.3007    0.8373 C   0  0  0  0  0  0  0  0  0  0  0  0
    0.7154   -2.0702   -1.6874 O   0  0  0  0  0  0  0  0  0  0  0  0
    0.5163    1.8140   -0.5335 O   0  0  0  0  0  0  0  0  0  0  0  0
    2.6245    1.4058    0.9006 C   0  0  0  0  0  0  0  0  0  0  0  0
    4.0046    0.8665    1.0381 C   0  0  0  0  0  0  0  0  0  0  0  0
    0.2533    0.7407    0.3534 C   0  0  0  0  0  0  0  0  0  0  0  0
    0.7704   -1.3846   -0.4792 C   0  0  0  0  0  0  0  0  0  0  0  0
   -1.7217    1.0536   -1.2785 O   0  0  0  0  0  0  0  0  0  0  0  0
   -1.9747   -0.2786   -1.1679 C   0  0  0  0  0  0  0  0  0  0  0  0
   -3.4203   -0.4645   -1.2980 N   0  0  0  0  0  0  0  0  0  0  0  0
   -4.1622    0.2196   -0.2893 C   0  0  0  0  0  0  0  0  0  0  0  0
   -4.9077    1.2918   -0.7920 O   0  0  0  0  0  0  0  0  0  0  0  0
   -3.3247    0.6175    0.9060 C   0  0  0  0  0  0  0  0  0  0  0  0
   -2.4827   -0.5881    1.2696 C   0  0  0  0  0  0  0  0  0  0  0  0
   -1.5613   -0.9261    0.1132 C   0  0  2  0  0  0  0  0  0  0  0  0
   -0.2347   -0.7522    0.5203 N   0  0  0  0  0  0  0  0  0  0  0  0
    4.2683   -0.1099   -0.3701 C   0  0  0  0  0  0  0  0  0  0  0  0
    3.2699   -1.2519   -0.2042 C   0  0  0  0  0  0  0  0  0  0  0  0
    1.9195   -0.6397   -0.2806 C   0  0  0  0  0  0  0  0  0  0  0  0
    1.7658    0.2321    0.9803 C   0  0  0  0  0  0  0  0  0  0  0  0
    0.3349   -2.1004   -1.3231 O   0  0  0  0  0  0  0  0  0  0  0  0
   -0.1425    1.0857    2.0149 O   0  0  0  0  0  0  0  0  0  0  0  0
    2.6187    1.4336    0.7542 C   0  0  0  0  0  0  0  0  0  0  0  0
    4.0416    1.0181    0.5705 C   0  0  0  0  0  0  0  0  0  0  0  0
    0.2644    0.5290    0.8111 C   0  0  2  0  0  0  0  0  0  0  0  0
    0.7613   -1.5517   -0.1153 C   0  0  0  0  0  0  0  0  0  0  0  0
   -2.4565    1.6088   -1.6224 H   0  0  0  0  0  0  0  0  0  0  0  0
   -1.5165   -0.8389   -2.0118 H   0  0  0  0  0  0  0  0  0  0  0  0
   -3.5828   -1.4924   -1.3461 H   0  0  0  0  0  0  0  0  0  0  0  0
   -4.9289   -0.5080    0.1112 H   0  0  0  0  0  0  0  0  0  0  0  0
   -5.0834    1.9710   -0.0794 H   0  0  0  0  0  0  0  0  0  0  0  0
   -4.0065    0.7950    1.7817 H   0  0  0  0  0  0  0  0  0  0  0  0
   -2.7503    1.5322    0.7642 H   0  0  0  0  0  0  0  0  0  0  0  0
   -3.2009   -1.4033    1.4990 H   0  0  0  0  0  0  0  0  0  0  0  0
   -1.9572   -0.3660    2.2025 H   0  0  0  0  0  0  0  0  0  0  0  0
   -1.7051   -2.0387   -0.0532 H   0  0  0  0  0  0  0  0  0  0  0  0
    4.2095    0.2180   -1.4308 H   0  0  0  0  0  0  0  0  0  0  0  0
    5.2660   -0.5510   -0.1848 H   0  0  0  0  0  0  0  0  0  0  0  0
    3.4062   -1.6606    0.8258 H   0  0  0  0  0  0  0  0  0  0  0  0
    3.4918   -2.0014   -0.9830 H   0  0  0  0  0  0  0  0  0  0  0  0
    1.7982    0.0694   -1.1300 H   0  0  0  0  0  0  0  0  0  0  0  0
    1.9727   -0.3278    1.8923 H   0  0  0  0  0  0  0  0  0  0  0  0
    0.7942   -1.5664   -2.0450 H   0  0  0  0  0  0  0  0  0  0  0  0
   -0.2266    2.0753    1.8620 H   0  0  0  0  0  0  0  0  0  0  0  0
    2.5596    2.0801    1.6557 H   0  0  0  0  0  0  0  0  0  0  0  0
    2.2097    1.9913   -0.1114 H   0  0  0  0  0  0  0  0  0  0  0  0
    4.5922    1.9071    0.1588 H   0  0  0  0  0  0  0  0  0  0  0  0
    4.5092    0.8066    1.5525 H   0  0  0  0  0  0  0  0  0  0  0  0
    0.2318    1.2705   -0.0252 H   0  0  0  0  0  0  0  0  0  0  0  0
    1.0618   -2.3889    0.5410 H   0  0  0  0  0  0  0  0  0  0  0  0
   -2.4565    1.6088   -1.6224 H   0  0  0  0  0  0  0  0  0  0  0  0
   -1.5165   -0.8389   -2.0118 H   0  0  0  0  0  0  0  0  0  0  0  0
   -3.5828   -1.4924   -1.3461 H   0  0  0  0  0  0  0  0  0  0  0  0
   -4.9289   -0.5080    0.1112 H   0  0  0  0  0  0  0  0  0  0  0  0
   -5.0834    1.9710   -0.0794 H   0  0  0  0  0  0  0  0  0  0  0  0
   -4.0065    0.7950    1.7817 H   0  0  0  0  0  0  0  0  0  0  0  0
   -2.7503    1.5322    0.7642 H   0  0  0  0  0  0  0  0  0  0  0  0
   -3.2009   -1.4033    1.4990 H   0  0  0  0  0  0  0  0  0  0  0  0
   -1.9572   -0.3660    2.2025 H   0  0  0  0  0  0  0  0  0  0  0  0
   -1.7051   -2.0387   -0.0532 H   0  0  0  0  0  0  0  0  0  0  0  0
    4.2095    0.2180   -1.4308 H   0  0  0  0  0  0  0  0  0  0  0  0
    5.2660   -0.5510   -0.1848 H   0  0  0  0  0  0  0  0  0  0  0  0
    3.4062   -1.6606    0.8258 H   0  0  0  0  0  0  0  0  0  0  0  0
    3.4918   -2.0014   -0.9830 H   0  0  0  0  0  0  0  0  0  0  0  0
    1.7982    0.0694   -1.1300 H   0  0  0  0  0  0  0  0  0  0  0  0
    1.9727   -0.3278    1.8923 H   0  0  0  0  0  0  0  0  0  0  0  0
    0.7942   -1.5664   -2.0450 H   0  0  0  0  0  0  0  0  0  0  0  0
   -0.2266    2.0753    1.8620 H   0  0  0  0  0  0  0  0  0  0  0  0
    2.5596    2.0801    1.6557 H   0  0  0  0  0  0  0  0  0  0  0  0
    2.2097    1.9913   -0.1114 H   0  0  0  0  0  0  0  0  0  0  0  0
    4.5922    1.9071    0.1588 H   0  0  0  0  0  0  0  0  0  0  0  0
    4.5092    0.8066    1.5525 H   0  0  0  0  0  0  0  0  0  0  0  0
    0.2318    1.2705   -0.0252 H   0  0  0  0  0  0  0  0  0  0  0  0
    1.0618   -2.3889    0.5410 H   0  0  0  0  0  0  0  0  0  0  0  0
   -2.9032    2.2366   -0.4635 H   0  0  0  0  0  0  0  0  0  0  0  0
   -1.9695    0.4550   -2.1216 H   0  0  0  0  0  0  0  0  0  0  0  0
   -3.7399   -0.9680   -1.4259 H   0  0  0  0  0  0  0  0  0  0  0  0
   -5.1180   -0.6861    0.2264 H   0  0  0  0  0  0  0  0  0  0  0  0
   -4.6877    1.7546    1.1145 H   0  0  0  0  0  0  0  0  0  0  0  0
   -3.8496   -0.5280    2.1713 H   0  0  0  0  0  0  0  0  0  0  0  0
   -2.8706    0.8554    1.6407 H   0  0  0  0  0  0  0  0  0  0  0  0
   -2.7616   -2.0830    0.8450 H   0  0  0  0  0  0  0  0  0  0  0  0
   -1.5356   -1.1884    1.7541 H   0  0  0  0  0  0  0  0  0  0  0  0
   -1.6927   -1.5918   -1.0781 H   0  0  0  0  0  0  0  0  0  0  0  0
    4.5540    0.1469   -0.9125 H   0  0  0  0  0  0  0  0  0  0  0  0
    5.3115   -0.7007    0.4637 H   0  0  0  0  0  0  0  0  0  0  0  0
    3.1327   -1.8890    0.8798 H   0  0  0  0  0  0  0  0  0  0  0  0
    3.5622   -1.9081   -0.9095 H   0  0  0  0  0  0  0  0  0  0  0  0
    2.1706    0.1262   -1.2346 H   0  0  0  0  0  0  0  0  0  0  0  0
    1.5704   -0.3093    1.7414 H   0  0  0  0  0  0  0  0  0  0  0  0
    0.6685   -1.3907   -2.4084 H   0  0  0  0  0  0  0  0  0  0  0  0
    0.5899    1.4141   -1.4315 H   0  0  0  0  0  0  0  0  0  0  0  0
    2.4058    1.9930    1.8408 H   0  0  0  0  0  0  0  0  0  0  0  0
    2.4937    2.1044    0.0743 H   0  0  0  0  0  0  0  0  0  0  0  0
    4.2228    0.5495    2.0777 H   0  0  0  0  0  0  0  0  0  0  0  0
    4.7154    1.7125    0.8344 H   0  0  0  0  0  0  0  0  0  0  0  0
   -0.3570    1.1508    1.1545 H   0  0  0  0  0  0  0  0  0  0  0  0
    0.7211   -2.0569    0.3798 H   0  0  0  0  0  0  0  0  0  0  0  0
   -2.4565    1.6088   -1.6224 H   0  0  0  0  0  0  0  0  0  0  0  0
   -1.5165   -0.8389   -2.0118 H   0  0  0  0  0  0  0  0  0  0  0  0
   -3.5828   -1.4924   -1.3461 H   0  0  0  0  0  0  0  0  0  0  0  0
   -4.9289   -0.5080    0.1112 H   0  0  0  0  0  0  0  0  0  0  0  0
   -5.0834    1.9710   -0.0794 H   0  0  0  0  0  0  0  0  0  0  0  0
   -4.0065    0.7950    1.7817 H   0  0  0  0  0  0  0  0  0  0  0  0
   -2.7503    1.5322    0.7642 H   0  0  0  0  0  0  0  0  0  0  0  0
   -3.2009   -1.4033    1.4990 H   0  0  0  0  0  0  0  0  0  0  0  0
   -1.9572   -0.3660    2.2025 H   0  0  0  0  0  0  0  0  0  0  0  0
   -1.7051   -2.0387   -0.0532 H   0  0  0  0  0  0  0  0  0  0  0  0
    4.2095    0.2180   -1.4308 H   0  0  0  0  0  0  0  0  0  0  0  0
    5.2660   -0.5510   -0.1848 H   0  0  0  0  0  0  0  0  0  0  0  0
    3.4062   -1.6606    0.8258 H   0  0  0  0  0  0  0  0  0  0  0  0
    3.4918   -2.0014   -0.9830 H   0  0  0  0  0  0  0  0  0  0  0  0
    1.7982    0.0694   -1.1300 H   0  0  0  0  0  0  0  0  0  0  0  0
    1.9727   -0.3278    1.8923 H   0  0  0  0  0  0  0  0  0  0  0  0
    0.7942   -1.5664   -2.0450 H   0  0  0  0  0  0  0  0  0  0  0  0
   -0.2266    2.0753    1.8620 H   0  0  0  0  0  0  0  0  0  0  0  0
    2.5596    2.0801    1.6557 H   0  0  0  0  0  0  0  0  0  0  0  0
    2.2097    1.9913   -0.1114 H   0  0  0  0  0  0  0  0  0  0  0  0
    4.5922    1.9071    0.1588 H   0  0  0  0  0  0  0  0  0  0  0  0
    4.5092    0.8066    1.5525 H   0  0  0  0  0  0  0  0  0  0  0  0
    0.2318    1.2705   -0.0252 H   0  0  0  0  0  0  0  0  0  0  0  0
    1.0618   -2.3889    0.5410 H   0  0  0  0  0  0  0  0  0  0  0  0
  1  2  1  0
  2  3  1  0
  3  4  1  0
  4  5  1  0
  4  6  1  0
  6  7  1  0
  2  8  1  0
  7  8  1  0
  8  9  1  0
 10 11  1  0
 11 12  1  0
 12 13  1  0
 13 16  1  0
 10 17  1  0
 16 17  1  0
  9 18  1  0
 13 18  1  0
 15 18  1  0
  9 19  1  0
 12 19  1  0
 14 19  1  0
 20 21  1  0
 21 22  1  0
 22 23  1  0
 23 24  1  0
 23 25  1  0
 25 26  1  0
 21 27  1  0
 26 27  1  0
 27 28  1  0
 29 30  1  0
 30 31  1  0
 31 32  1  0
 32 35  1  0
 29 36  1  0
 35 36  1  0
 28 37  1  0
 32 37  1  0
 34 37  1  0
 28 38  1  0
 31 38  1  0
 33 38  1  0
 39 40  1  0
 40 41  1  0
 41 42  1  0
 42 43  1  0
 42 44  1  0
 44 45  1  0
 40 46  1  0
 45 46  1  0
 46 47  1  0
 48 49  1  0
 49 50  1  0
 50 51  1  0
 51 54  1  0
 48 55  1  0
 54 55  1  0
 47 56  1  0
 51 56  1  0
 53 56  1  0
 47 57  1  0
 50 57  1  0
 52 57  1  0
 58 59  1  0
 59 60  1  0
 60 61  1  0
 61 62  1  0
 61 63  1  0
 63 64  1  0
 59 65  1  0
 64 65  1  0
 65 66  1  0
 67 68  1  0
 68 69  1  0
 69 70  1  0
 70 73  1  0
 67 74  1  0
 73 74  1  0
 66 75  1  0
 70 75  1  0
 72 75  1  0
 66 76  1  0
 69 76  1  0
 71 76  1  0
  1 77  1  0
  2 78  1  0
  3 79  1  0
  4 80  1  0
  5 81  1  0
  6 82  1  0
  6 83  1  0
  7 84  1  0
  7 85  1  0
  8 86  1  6
 10 87  1  0
 10 88  1  0
 11 89  1  0
 11 90  1  0
 12 91  1  0
 13 92  1  0
 14 93  1  0
 15 94  1  0
 16 95  1  0
 16 96  1  0
 17 97  1  0
 17 98  1  0
 18 99  1  6
 19100  1  0
 20101  1  0
 21102  1  0
 22103  1  0
 23104  1  0
 24105  1  0
 25106  1  0
 25107  1  0
 26108  1  0
 26109  1  0
 27110  1  6
 29111  1  0
 29112  1  0
 30113  1  0
 30114  1  0
 31115  1  0
 32116  1  0
 33117  1  0
 34118  1  0
 35119  1  0
 35120  1  0
 36121  1  0
 36122  1  0
 37123  1  6
 38124  1  0
 39125  1  0
 40126  1  0
 41127  1  0
 42128  1  0
 43129  1  0
 44130  1  0
 44131  1  0
 45132  1  0
 45133  1  0
 46134  1  6
 48135  1  0
 48136  1  0
 49137  1  0
 49138  1  0
 50139  1  0
 51140  1  0
 52141  1  0
 53142  1  0
 54143  1  0
 54144  1  0
 55145  1  0
 55146  1  0
 56147  1  0
 57148  1  0
 58149  1  0
 59150  1  0
 60151  1  0
 61152  1  0
 62153  1  0
 63154  1  0
 63155  1  0
 64156  1  0
 64157  1  0
 65158  1  6
 67159  1  0
 67160  1  0
 68161  1  0
 68162  1  0
 69163  1  0
 70164  1  0
 71165  1  0
 72166  1  0
 73167  1  0
 73168  1  0
 74169  1  0
 74170  1  0
 75171  1  6
 76172  1  0
M  END
>  <PDBID>  (1) 
4TZC

>  <PDB ID>  (1) 
4TZC

>  <Generic Name>  (1) 
Thalidomide

>  <Brand Name>  (1) 
Thalomid#Contergan#Distaval#K-17#Pro-ban M#Sedalis#Softenon#Talimol#Thaled

>  <DrugBank ID>  (1) 
DB01041

>  <ATC Codes>  (1) 
L04AX02

>  <Ligand ID>  (1) 
EF2

>  <Target Name>  (1) 
Protein cereblon

>  <UniProt ID>  (1) 
Q96SW2

>  <PDB ID.1>  (1) 
4TZC

>  <Seq. Identity>  (1) 
97%

$$$$
