PDB_DB05990_06
     RDKit          3D

 76 79  0  0  0  0  0  0  0  0999 V2000
   -3.4561   -0.9176    1.4443 C   0  0  0  0  0  0  0  0  0  0  0  0
   -4.6172   -1.8418    1.1587 C   0  0  0  0  0  0  0  0  0  0  0  0
   -5.4634   -1.1818    0.1080 C   0  0  1  0  0  0  0  0  0  0  0  0
   -6.1076   -0.1053    0.7187 O   0  0  0  0  0  0  0  0  0  0  0  0
   -4.7431   -0.8069   -1.1440 C   0  0  0  0  0  0  0  0  0  0  0  0
   -3.3211   -0.4589   -1.0338 C   0  0  1  0  0  0  0  0  0  0  0  0
   -3.0723    0.9834   -1.4166 C   0  0  2  0  0  0  0  0  0  0  0  0
   -1.6302    1.3485   -1.4081 C   0  0  1  0  0  0  0  0  0  0  0  0
   -1.3695    2.5498   -0.7773 O   0  0  0  0  0  0  0  0  0  0  0  0
   -0.7222    0.2336   -0.8595 C   0  0  2  0  0  0  0  0  0  0  0  0
   -1.3183   -0.1840    0.4353 C   0  0  1  0  0  0  0  0  0  0  0  0
   -2.6070   -0.9230    0.1930 C   0  0  1  0  0  0  0  0  0  0  0  0
   -0.3669   -0.9098    1.3478 C   0  0  0  0  0  0  0  0  0  0  0  0
    0.8829   -0.0888    1.5156 C   0  0  0  0  0  0  0  0  0  0  0  0
    1.5626    0.0643    0.2228 C   0  0  1  0  0  0  0  0  0  0  0  0
    0.6166    0.8556   -0.7025 C   0  0  1  0  0  0  0  0  0  0  0  0
    1.4746    0.9912   -1.9000 C   0  0  0  0  0  0  0  0  0  0  0  0
    2.8660    1.2499   -1.2811 C   0  0  0  0  0  0  0  0  0  0  0  0
    2.6715    1.0851    0.1846 C   0  0  2  0  0  0  0  0  0  0  0  0
    1.8729   -1.2349   -0.4315 C   0  0  0  0  0  0  0  0  0  0  0  0
   -2.2262   -2.4011   -0.0035 C   0  0  0  0  0  0  0  0  0  0  0  0
    3.7841    0.9747    1.0865 C   0  0  2  0  0  0  0  0  0  0  0  0
    4.7244    2.1671    0.7749 C   0  0  0  0  0  0  0  0  0  0  0  0
    4.5851   -0.2366    1.2628 C   0  0  0  0  0  0  0  0  0  0  0  0
    5.3247   -0.7901    0.0953 C   0  0  0  0  0  0  0  0  0  0  0  0
    6.1023   -2.0450    0.5578 C   0  0  0  0  0  0  0  0  0  0  0  0
   -3.6652    3.3980   -1.1502 C   0  0  0  0  0  0  0  0  0  0  0  0
   -3.9576    1.9755   -0.7126 C   0  0  0  0  0  0  0  0  0  0  0  0
    5.2486   -3.0081    1.0485 O   0  0  0  0  0  0  0  0  0  0  0  0
    6.8487   -2.5575   -0.4872 O   0  0  0  0  0  0  0  0  0  0  0  0
   -2.8366   -1.3583    2.2517 H   0  0  0  0  0  0  0  0  0  0  0  0
   -3.8011    0.0499    1.7779 H   0  0  0  0  0  0  0  0  0  0  0  0
   -5.2874   -1.9153    2.0700 H   0  0  0  0  0  0  0  0  0  0  0  0
   -4.3272   -2.8303    0.8004 H   0  0  0  0  0  0  0  0  0  0  0  0
   -6.2997   -1.9162   -0.1047 H   0  0  0  0  0  0  0  0  0  0  0  0
   -6.9181    0.1761    0.2022 H   0  0  0  0  0  0  0  0  0  0  0  0
   -5.3419   -0.0108   -1.6345 H   0  0  0  0  0  0  0  0  0  0  0  0
   -4.9063   -1.6860   -1.8470 H   0  0  0  0  0  0  0  0  0  0  0  0
   -2.7850   -1.0111   -1.8787 H   0  0  0  0  0  0  0  0  0  0  0  0
   -3.4108    1.0467   -2.5000 H   0  0  0  0  0  0  0  0  0  0  0  0
   -1.2221    1.4895   -2.4578 H   0  0  0  0  0  0  0  0  0  0  0  0
   -1.3135    2.5400    0.1862 H   0  0  0  0  0  0  0  0  0  0  0  0
   -0.6875   -0.5376   -1.6275 H   0  0  0  0  0  0  0  0  0  0  0  0
   -1.6214    0.7361    1.0208 H   0  0  0  0  0  0  0  0  0  0  0  0
   -0.1784   -1.9539    1.0996 H   0  0  0  0  0  0  0  0  0  0  0  0
   -0.8539   -0.9217    2.3685 H   0  0  0  0  0  0  0  0  0  0  0  0
    1.5219   -0.6390    2.2601 H   0  0  0  0  0  0  0  0  0  0  0  0
    0.5919    0.8726    1.9639 H   0  0  0  0  0  0  0  0  0  0  0  0
    0.5668    1.8756   -0.2171 H   0  0  0  0  0  0  0  0  0  0  0  0
    1.4773    0.1662   -2.6065 H   0  0  0  0  0  0  0  0  0  0  0  0
    1.1703    1.9115   -2.4492 H   0  0  0  0  0  0  0  0  0  0  0  0
    3.1468    2.3305   -1.4786 H   0  0  0  0  0  0  0  0  0  0  0  0
    3.6248    0.6377   -1.7465 H   0  0  0  0  0  0  0  0  0  0  0  0
    2.1060    2.0538    0.4874 H   0  0  0  0  0  0  0  0  0  0  0  0
    2.4387   -1.1294   -1.3789 H   0  0  0  0  0  0  0  0  0  0  0  0
    0.9142   -1.7008   -0.7378 H   0  0  0  0  0  0  0  0  0  0  0  0
    2.3869   -1.9496    0.2192 H   0  0  0  0  0  0  0  0  0  0  0  0
   -1.2719   -2.5377   -0.5037 H   0  0  0  0  0  0  0  0  0  0  0  0
   -2.9885   -2.8684   -0.7011 H   0  0  0  0  0  0  0  0  0  0  0  0
   -2.2316   -2.9582    0.9329 H   0  0  0  0  0  0  0  0  0  0  0  0
    3.4021    1.2775    2.1266 H   0  0  0  0  0  0  0  0  0  0  0  0
    4.0624    3.0590    0.8488 H   0  0  0  0  0  0  0  0  0  0  0  0
    5.0731    2.1081   -0.2621 H   0  0  0  0  0  0  0  0  0  0  0  0
    5.4996    2.2563    1.5329 H   0  0  0  0  0  0  0  0  0  0  0  0
    5.3873   -0.0185    2.0427 H   0  0  0  0  0  0  0  0  0  0  0  0
    4.0422   -1.0955    1.7242 H   0  0  0  0  0  0  0  0  0  0  0  0
    6.1033   -0.1184   -0.3153 H   0  0  0  0  0  0  0  0  0  0  0  0
    4.7220   -1.1506   -0.7405 H   0  0  0  0  0  0  0  0  0  0  0  0
    6.7978   -1.7698    1.3874 H   0  0  0  0  0  0  0  0  0  0  0  0
   -3.0613    3.4327   -2.0820 H   0  0  0  0  0  0  0  0  0  0  0  0
   -3.1362    3.9877   -0.3738 H   0  0  0  0  0  0  0  0  0  0  0  0
   -4.6189    3.9672   -1.3484 H   0  0  0  0  0  0  0  0  0  0  0  0
   -3.8068    1.9858    0.3973 H   0  0  0  0  0  0  0  0  0  0  0  0
   -5.0202    1.8219   -0.8795 H   0  0  0  0  0  0  0  0  0  0  0  0
    5.2533   -3.7973    0.4508 H   0  0  0  0  0  0  0  0  0  0  0  0
    7.7167   -2.0937   -0.5927 H   0  0  0  0  0  0  0  0  0  0  0  0
  1  2  1  0
  2  3  1  0
  3  4  1  0
  3  5  1  0
  5  6  1  0
  6  7  1  0
  7  8  1  0
  8  9  1  0
  8 10  1  0
 10 11  1  0
  1 12  1  0
  6 12  1  0
 11 12  1  0
 11 13  1  0
 13 14  1  0
 14 15  1  0
 10 16  1  0
 15 16  1  0
 16 17  1  0
 17 18  1  0
 15 19  1  0
 18 19  1  0
 15 20  1  6
 12 21  1  6
 19 22  1  0
 22 23  1  0
 22 24  1  0
 24 25  1  0
 25 26  1  0
  7 28  1  0
 27 28  1  0
 26 29  1  0
 26 30  1  0
  1 31  1  0
  1 32  1  0
  2 33  1  0
  2 34  1  0
  3 35  1  6
  4 36  1  0
  5 37  1  0
  5 38  1  0
  6 39  1  6
  7 40  1  6
  8 41  1  6
  9 42  1  0
 10 43  1  6
 11 44  1  1
 13 45  1  0
 13 46  1  0
 14 47  1  0
 14 48  1  0
 16 49  1  1
 17 50  1  0
 17 51  1  0
 18 52  1  0
 18 53  1  0
 19 54  1  1
 20 55  1  0
 20 56  1  0
 20 57  1  0
 21 58  1  0
 21 59  1  0
 21 60  1  0
 22 61  1  1
 23 62  1  0
 23 63  1  0
 23 64  1  0
 24 65  1  0
 24 66  1  0
 25 67  1  0
 25 68  1  0
 26 69  1  0
 27 70  1  0
 27 71  1  0
 27 72  1  0
 28 73  1  0
 28 74  1  0
 29 75  1  0
 30 76  1  0
M  END
>  <PDBID>  (1) 
1OT7

>  <PDB ID>  (1) 
1OT7

>  <Generic Name>  (1) 
Obeticholic acid

>  <Brand Name>  (1) 
Ocaliva

>  <DrugBank ID>  (1) 
DB05990

>  <ATC Codes>  (1) 
A05AA04

>  <Ligand ID>  (1) 
CHC

>  <Target Name>  (1) 
Bile acid receptor

>  <UniProt ID>  (1) 
Q96RI1

>  <PDB ID.1>  (1) 
1OT7

>  <Seq. Identity>  (1) 
95%

$$$$
