PDB_DB00877_04
     RDKit          3D

162165  0  0  0  0  0  0  0  0999 V2000
    2.7616   -2.4741    1.4748 C   0  0  0  0  0  0  0  0  0  0  0  0
    2.3131   -1.4847    0.6737 O   0  0  0  0  0  0  0  0  0  0  0  0
    1.9658   -2.4535    2.6380 O   0  0  0  0  0  0  0  0  0  0  0  0
    2.7630   -3.8650    0.9483 C   0  0  2  0  0  0  0  0  0  0  0  0
    4.1869   -4.3569    0.6515 C   0  0  0  0  0  0  0  0  0  0  0  0
    4.1449   -5.8780    0.8261 C   0  0  0  0  0  0  0  0  0  0  0  0
    2.8879   -6.3776    0.1495 C   0  0  0  0  0  0  0  0  0  0  0  0
    2.3235   -5.3452   -0.8061 C   0  0  0  0  0  0  0  0  0  0  0  0
    1.9792   -4.0985   -0.2091 N   0  0  0  0  0  0  0  0  0  0  0  0
    0.5525   -3.9457    0.0029 C   0  0  2  0  0  0  0  0  0  0  0  0
    0.1124   -5.0189    0.7337 O   0  0  0  0  0  0  0  0  0  0  0  0
   -0.1783   -3.6296   -1.2412 C   0  0  0  0  0  0  0  0  0  0  0  0
    0.4487   -4.0814   -2.4198 O   0  0  0  0  0  0  0  0  0  0  0  0
   -1.6067   -4.0478   -1.3243 C   0  0  1  0  0  0  0  0  0  0  0  0
   -2.4572   -3.2757   -0.4912 O   0  0  0  0  0  0  0  0  0  0  0  0
   -2.0145   -3.6463   -2.6302 O   0  0  0  0  0  0  0  0  0  0  0  0
   -1.8796   -5.5071   -1.2527 C   0  0  1  0  0  0  0  0  0  0  0  0
   -2.8396   -5.9377   -0.1776 C   0  0  0  0  0  0  0  0  0  0  0  0
   -3.9534   -4.9553    0.0683 C   0  0  0  0  0  0  0  0  0  0  0  0
   -3.7417   -3.7330   -0.7947 C   0  0  1  0  0  0  0  0  0  0  0  0
   -4.8100   -2.7110   -0.7046 C   0  0  0  0  0  0  0  0  0  0  0  0
   -5.1108   -2.2064    0.6867 C   0  0  2  0  0  0  0  0  0  0  0  0
   -6.3977   -2.5550    1.0792 O   0  0  0  0  0  0  0  0  0  0  0  0
   -5.0249   -0.6985    0.6579 C   0  0  0  0  0  0  0  0  0  0  0  0
   -5.8407   -0.0002    1.6862 C   0  0  0  0  0  0  0  0  0  0  0  0
   -7.2550    0.2993    1.2059 C   0  0  0  0  0  0  0  0  0  0  0  0
   -7.3057    1.2963    0.0936 C   0  0  0  0  0  0  0  0  0  0  0  0
   -7.6902    2.6427    0.7185 C   0  0  0  0  0  0  0  0  0  0  0  0
   -6.3909    3.3054    1.1184 C   0  0  0  0  0  0  0  0  0  0  0  0
   -6.4544    4.7887    0.7760 C   0  0  2  0  0  0  0  0  0  0  0  0
   -5.0667    5.3390    0.9741 C   0  0  0  0  0  0  0  0  0  0  0  0
   -4.1303    4.9228   -0.1457 C   0  0  2  0  0  0  0  0  0  0  0  0
   -2.9660    5.8820   -0.2709 C   0  0  0  0  0  0  0  0  0  0  0  0
   -2.8021    6.3187   -1.6038 O   0  0  0  0  0  0  0  0  0  0  0  0
   -1.6745    5.2629    0.2613 C   0  0  2  0  0  0  0  0  0  0  0  0
   -1.2430    6.0527    1.2979 O   0  0  0  0  0  0  0  0  0  0  0  0
   -0.7417    5.1347   -0.8863 C   0  0  2  0  0  0  0  0  0  0  0  0
   -1.2738    4.2250   -1.7893 O   0  0  0  0  0  0  0  0  0  0  0  0
    0.6805    4.8360   -0.5409 C   0  0  0  0  0  0  0  0  0  0  0  0
    0.9156    3.4896    0.0493 C   0  0  0  0  0  0  0  0  0  0  0  0
    1.8532    2.6264   -0.7611 C   0  0  2  0  0  0  0  0  0  0  0  0
    1.9891    1.2868   -0.0202 C   0  0  0  0  0  0  0  0  0  0  0  0
    0.6563    0.9852    0.3620 O   0  0  0  0  0  0  0  0  0  0  0  0
    2.4996    0.2157   -0.9163 C   0  0  0  0  0  0  0  0  0  0  0  0
    3.1684   -0.9469   -0.2563 C   0  0  1  0  0  0  0  0  0  0  0  0
    4.5511   -0.6796    0.1872 C   0  0  1  0  0  0  0  0  0  0  0  0
    5.3511   -0.0811   -0.9475 C   0  0  0  0  0  0  0  0  0  0  0  0
    6.7841    0.1809   -0.5230 C   0  0  1  0  0  0  0  0  0  0  0  0
    7.5364   -1.0297   -0.1005 C   0  0  0  0  0  0  0  0  0  0  0  0
    8.8818   -0.5483    0.4553 C   0  0  1  0  0  0  0  0  0  0  0  0
    9.5416   -1.5352    1.1301 O   0  0  0  0  0  0  0  0  0  0  0  0
    9.6535    0.0895   -0.6555 C   0  0  2  0  0  0  0  0  0  0  0  0
   10.8974    0.5084   -0.2527 O   0  0  0  0  0  0  0  0  0  0  0  0
    8.8639    1.3437   -1.0553 C   0  0  0  0  0  0  0  0  0  0  0  0
    7.5574    0.8517   -1.6384 C   0  0  0  0  0  0  0  0  0  0  0  0
   -2.3826   -6.0918   -2.5793 C   0  0  0  0  0  0  0  0  0  0  0  0
   -3.5622   -0.3065    0.6843 C   0  0  0  0  0  0  0  0  0  0  0  0
   -7.3604    5.4267    1.8050 C   0  0  0  0  0  0  0  0  0  0  0  0
   -4.9082    5.0034   -1.4609 C   0  0  0  0  0  0  0  0  0  0  0  0
    1.2477    5.9647    0.2887 C   0  0  0  0  0  0  0  0  0  0  0  0
    3.1928    3.2363   -0.9765 C   0  0  0  0  0  0  0  0  0  0  0  0
    4.7099    0.2088    1.3818 C   0  0  0  0  0  0  0  0  0  0  0  0
   -6.4672   -3.3409    2.2020 C   0  0  0  0  0  0  0  0  0  0  0  0
   -1.2563    5.4158    2.5350 C   0  0  0  0  0  0  0  0  0  0  0  0
    9.7204   -1.3124    2.4755 C   0  0  0  0  0  0  0  0  0  0  0  0
   -1.8817   -2.6677   -2.7008 H   0  0  0  0  0  0  0  0  0  0  0  0
   -0.5935    3.8458   -2.3973 H   0  0  0  0  0  0  0  0  0  0  0  0
   11.6391    0.1720   -0.8254 H   0  0  0  0  0  0  0  0  0  0  0  0
    3.8071   -2.2981    1.8717 H   0  0  0  0  0  0  0  0  0  0  0  0
    2.1594   -1.6116    3.1196 H   0  0  0  0  0  0  0  0  0  0  0  0
    2.3872   -4.5356    1.7482 H   0  0  0  0  0  0  0  0  0  0  0  0
    4.9181   -3.8918    1.3246 H   0  0  0  0  0  0  0  0  0  0  0  0
    4.4061   -4.1881   -0.4216 H   0  0  0  0  0  0  0  0  0  0  0  0
    5.0537   -6.3352    0.3817 H   0  0  0  0  0  0  0  0  0  0  0  0
    4.1079   -6.1821    1.8752 H   0  0  0  0  0  0  0  0  0  0  0  0
    2.1306   -6.7573    0.8659 H   0  0  0  0  0  0  0  0  0  0  0  0
    3.1846   -7.2472   -0.4735 H   0  0  0  0  0  0  0  0  0  0  0  0
    1.4154   -5.8197   -1.2282 H   0  0  0  0  0  0  0  0  0  0  0  0
    3.1153   -5.2205   -1.6047 H   0  0  0  0  0  0  0  0  0  0  0  0
    0.4391   -3.0490    0.6870 H   0  0  0  0  0  0  0  0  0  0  0  0
   -0.4942   -4.7538    1.4670 H   0  0  0  0  0  0  0  0  0  0  0  0
   -0.1969   -2.5045   -1.3966 H   0  0  0  0  0  0  0  0  0  0  0  0
   -0.1604   -3.8407   -3.1629 H   0  0  0  0  0  0  0  0  0  0  0  0
   -0.9354   -6.0623   -1.0550 H   0  0  0  0  0  0  0  0  0  0  0  0
   -2.3655   -6.1859    0.7881 H   0  0  0  0  0  0  0  0  0  0  0  0
   -3.3184   -6.8932   -0.5143 H   0  0  0  0  0  0  0  0  0  0  0  0
   -3.9341   -4.6059    1.1208 H   0  0  0  0  0  0  0  0  0  0  0  0
   -4.9524   -5.3643   -0.1405 H   0  0  0  0  0  0  0  0  0  0  0  0
   -3.7790   -4.1271   -1.8554 H   0  0  0  0  0  0  0  0  0  0  0  0
   -5.7210   -3.1329   -1.1788 H   0  0  0  0  0  0  0  0  0  0  0  0
   -4.5121   -1.8571   -1.3406 H   0  0  0  0  0  0  0  0  0  0  0  0
   -4.4172   -2.6583    1.4276 H   0  0  0  0  0  0  0  0  0  0  0  0
   -5.4051   -0.3638   -0.3501 H   0  0  0  0  0  0  0  0  0  0  0  0
   -5.3329    0.9481    1.9864 H   0  0  0  0  0  0  0  0  0  0  0  0
   -5.9247   -0.5926    2.6017 H   0  0  0  0  0  0  0  0  0  0  0  0
   -7.8701    0.6079    2.0766 H   0  0  0  0  0  0  0  0  0  0  0  0
   -7.6981   -0.6435    0.8374 H   0  0  0  0  0  0  0  0  0  0  0  0
   -6.3719    1.4274   -0.4577 H   0  0  0  0  0  0  0  0  0  0  0  0
   -8.1429    1.0728   -0.6280 H   0  0  0  0  0  0  0  0  0  0  0  0
   -8.2651    2.4529    1.6315 H   0  0  0  0  0  0  0  0  0  0  0  0
   -8.2357    3.2759   -0.0108 H   0  0  0  0  0  0  0  0  0  0  0  0
   -5.5391    2.9041    0.5011 H   0  0  0  0  0  0  0  0  0  0  0  0
   -6.1571    3.2096    2.1787 H   0  0  0  0  0  0  0  0  0  0  0  0
   -6.8732    4.9865   -0.2095 H   0  0  0  0  0  0  0  0  0  0  0  0
   -5.1288    6.4440    0.9591 H   0  0  0  0  0  0  0  0  0  0  0  0
   -4.7019    4.9792    1.9681 H   0  0  0  0  0  0  0  0  0  0  0  0
   -3.7953    3.8755   -0.0266 H   0  0  0  0  0  0  0  0  0  0  0  0
   -3.2513    6.7914    0.2974 H   0  0  0  0  0  0  0  0  0  0  0  0
   -3.4291    7.0618   -1.7920 H   0  0  0  0  0  0  0  0  0  0  0  0
   -1.9484    4.2557    0.6621 H   0  0  0  0  0  0  0  0  0  0  0  0
   -0.7357    6.1265   -1.4252 H   0  0  0  0  0  0  0  0  0  0  0  0
    1.2440    4.8732   -1.5209 H   0  0  0  0  0  0  0  0  0  0  0  0
    1.3401    3.6288    1.0741 H   0  0  0  0  0  0  0  0  0  0  0  0
   -0.0337    2.9502    0.1408 H   0  0  0  0  0  0  0  0  0  0  0  0
    1.3985    2.3869   -1.7353 H   0  0  0  0  0  0  0  0  0  0  0  0
    2.5180    1.4304    0.9300 H   0  0  0  0  0  0  0  0  0  0  0  0
    0.6233    0.3821    1.1298 H   0  0  0  0  0  0  0  0  0  0  0  0
    1.5691   -0.1877   -1.4603 H   0  0  0  0  0  0  0  0  0  0  0  0
    3.1259    0.5566   -1.7629 H   0  0  0  0  0  0  0  0  0  0  0  0
    3.2790   -1.7123   -1.1074 H   0  0  0  0  0  0  0  0  0  0  0  0
    5.0895   -1.6330    0.4349 H   0  0  0  0  0  0  0  0  0  0  0  0
    5.3048   -0.6677   -1.8649 H   0  0  0  0  0  0  0  0  0  0  0  0
    4.9620    0.9539   -1.2037 H   0  0  0  0  0  0  0  0  0  0  0  0
    6.7618    0.8985    0.3228 H   0  0  0  0  0  0  0  0  0  0  0  0
    7.7774   -1.7134   -0.9424 H   0  0  0  0  0  0  0  0  0  0  0  0
    7.0783   -1.6044    0.6956 H   0  0  0  0  0  0  0  0  0  0  0  0
    8.6214    0.2576    1.1799 H   0  0  0  0  0  0  0  0  0  0  0  0
    9.6691   -0.5416   -1.5833 H   0  0  0  0  0  0  0  0  0  0  0  0
    8.6209    1.9045   -0.1301 H   0  0  0  0  0  0  0  0  0  0  0  0
    9.4438    1.9422   -1.7902 H   0  0  0  0  0  0  0  0  0  0  0  0
    6.9345    1.6933   -2.0066 H   0  0  0  0  0  0  0  0  0  0  0  0
    7.7644    0.1529   -2.4744 H   0  0  0  0  0  0  0  0  0  0  0  0
   -3.4544   -6.4252   -2.4629 H   0  0  0  0  0  0  0  0  0  0  0  0
   -2.3714   -5.3721   -3.3961 H   0  0  0  0  0  0  0  0  0  0  0  0
   -1.8314   -6.9815   -2.8937 H   0  0  0  0  0  0  0  0  0  0  0  0
   -2.9699   -1.0604    1.2427 H   0  0  0  0  0  0  0  0  0  0  0  0
   -3.3719    0.6626    1.1558 H   0  0  0  0  0  0  0  0  0  0  0  0
   -3.1317   -0.3104   -0.3534 H   0  0  0  0  0  0  0  0  0  0  0  0
   -7.3722    4.8755    2.7633 H   0  0  0  0  0  0  0  0  0  0  0  0
   -7.1062    6.5002    1.9424 H   0  0  0  0  0  0  0  0  0  0  0  0
   -8.4136    5.3976    1.4086 H   0  0  0  0  0  0  0  0  0  0  0  0
   -5.4914    5.9467   -1.4414 H   0  0  0  0  0  0  0  0  0  0  0  0
   -4.1864    5.1092   -2.3153 H   0  0  0  0  0  0  0  0  0  0  0  0
   -5.5075    4.1090   -1.6472 H   0  0  0  0  0  0  0  0  0  0  0  0
    0.6182    6.8550    0.1365 H   0  0  0  0  0  0  0  0  0  0  0  0
    1.3781    5.6942    1.3563 H   0  0  0  0  0  0  0  0  0  0  0  0
    2.2781    6.2682   -0.0603 H   0  0  0  0  0  0  0  0  0  0  0  0
    3.6245    2.8077   -1.9297 H   0  0  0  0  0  0  0  0  0  0  0  0
    3.9087    3.0906   -0.1405 H   0  0  0  0  0  0  0  0  0  0  0  0
    3.1674    4.3277   -1.1538 H   0  0  0  0  0  0  0  0  0  0  0  0
    5.7046   -0.0552    1.8594 H   0  0  0  0  0  0  0  0  0  0  0  0
    4.8767    1.2886    1.0927 H   0  0  0  0  0  0  0  0  0  0  0  0
    3.9841    0.0682    2.1836 H   0  0  0  0  0  0  0  0  0  0  0  0
   -6.0337   -2.9120    3.1164 H   0  0  0  0  0  0  0  0  0  0  0  0
   -6.1353   -4.4060    2.0231 H   0  0  0  0  0  0  0  0  0  0  0  0
   -7.5664   -3.4619    2.4417 H   0  0  0  0  0  0  0  0  0  0  0  0
   -2.2514    5.0681    2.8371 H   0  0  0  0  0  0  0  0  0  0  0  0
   -0.9836    6.2167    3.2852 H   0  0  0  0  0  0  0  0  0  0  0  0
   -0.4512    4.6590    2.6301 H   0  0  0  0  0  0  0  0  0  0  0  0
   10.2737   -2.2084    2.8746 H   0  0  0  0  0  0  0  0  0  0  0  0
    8.7643   -1.2942    3.0585 H   0  0  0  0  0  0  0  0  0  0  0  0
   10.3583   -0.4402    2.7010 H   0  0  0  0  0  0  0  0  0  0  0  0
  1  2  1  0
  1  3  1  0
  1  4  1  0
  4  5  1  0
  5  6  1  0
  6  7  1  0
  7  8  1  0
  4  9  1  0
  8  9  1  0
  9 10  1  0
 10 11  1  0
 10 12  1  0
 12 13  1  0
 12 14  1  0
 14 15  1  0
 14 16  1  6
 14 17  1  0
 17 18  1  0
 18 19  1  0
 15 20  1  0
 19 20  1  0
 20 21  1  0
 21 22  1  0
 22 23  1  0
 22 24  1  0
 24 25  1  0
 25 26  1  0
 26 27  1  0
 27 28  1  0
 28 29  1  0
 29 30  1  0
 30 31  1  0
 31 32  1  0
 32 33  1  0
 33 34  1  0
 33 35  1  0
 35 36  1  0
 35 37  1  0
 37 38  1  0
 37 39  1  0
 39 40  1  0
 40 41  1  0
 41 42  1  0
 42 43  1  0
 42 44  1  0
  2 45  1  0
 44 45  1  0
 45 46  1  0
 46 47  1  0
 47 48  1  0
 48 49  1  0
 49 50  1  0
 50 51  1  0
 50 52  1  0
 52 53  1  0
 52 54  1  0
 48 55  1  0
 54 55  1  0
 17 56  1  0
 24 57  1  0
 30 58  1  0
 32 59  1  0
 39 60  1  0
 41 61  1  0
 46 62  1  0
 23 63  1  0
 36 64  1  0
 51 65  1  0
 16 66  1  0
 38 67  1  0
 53 68  1  0
  1 69  1  0
  3 70  1  0
  4 71  1  1
  5 72  1  0
  5 73  1  0
  6 74  1  0
  6 75  1  0
  7 76  1  0
  7 77  1  0
  8 78  1  0
  8 79  1  0
 10 80  1  1
 11 81  1  0
 12 82  1  0
 13 83  1  0
 17 84  1  1
 18 85  1  0
 18 86  1  0
 19 87  1  0
 19 88  1  0
 20 89  1  6
 21 90  1  0
 21 91  1  0
 22 92  1  1
 24 93  1  0
 25 94  1  0
 25 95  1  0
 26 96  1  0
 26 97  1  0
 27 98  1  0
 27 99  1  0
 28100  1  0
 28101  1  0
 29102  1  0
 29103  1  0
 30104  1  6
 31105  1  0
 31106  1  0
 32107  1  1
 33108  1  0
 34109  1  0
 35110  1  1
 37111  1  6
 39112  1  0
 40113  1  0
 40114  1  0
 41115  1  6
 42116  1  0
 43117  1  0
 44118  1  0
 44119  1  0
 45120  1  6
 46121  1  1
 47122  1  0
 47123  1  0
 48124  1  1
 49125  1  0
 49126  1  0
 50127  1  1
 52128  1  6
 54129  1  0
 54130  1  0
 55131  1  0
 55132  1  0
 56133  1  0
 56134  1  0
 56135  1  0
 57136  1  0
 57137  1  0
 57138  1  0
 58139  1  0
 58140  1  0
 58141  1  0
 59142  1  0
 59143  1  0
 59144  1  0
 60145  1  0
 60146  1  0
 60147  1  0
 61148  1  0
 61149  1  0
 61150  1  0
 62151  1  0
 62152  1  0
 62153  1  0
 63154  1  0
 63155  1  0
 63156  1  0
 64157  1  0
 64158  1  0
 64159  1  0
 65160  1  0
 65161  1  0
 65162  1  0
M  END
>  <PDBID>  (1) 
1FKB

>  <PDB ID>  (1) 
1FKB

>  <Generic Name>  (1) 
Sirolimus

>  <Brand Name>  (1) 
Gd-sirolimus#Rapamune#Rapamune Oral Solution#Sirolimus

>  <DrugBank ID>  (1) 
DB00877

>  <ATC Codes>  (1) 
S01XA23#L04AA10

>  <Ligand ID>  (1) 
RAP

>  <Target Name>  (1) 
Peptidyl-prolyl cis-trans isomerase FKBP1A

>  <UniProt ID>  (1) 
P62942

>  <PDB ID.1>  (1) 
1FKB

>  <Seq. Identity>  (1) 
100%

$$$$
