PDB_DB01045_03
     RDKit          3D

141145  0  0  0  0  0  0  0  0999 V2000
    1.2093    0.1666    0.4641 C   0  0  0  0  0  0  0  0  0  0  0  0
    2.5943    0.7654    0.4169 C   0  0  2  0  0  0  0  0  0  0  0  0
    3.6591   -0.2493    0.7595 C   0  0  0  0  0  0  0  0  0  0  0  0
    3.4558   -1.6200    0.2653 C   0  0  0  0  0  0  0  0  0  0  0  0
    1.8198   -3.3758   -0.4614 C   0  0  0  0  0  0  0  0  0  0  0  0
    1.1062   -3.3159   -1.7681 C   0  0  0  0  0  0  0  0  0  0  0  0
    1.3685   -2.1087   -2.6054 C   0  0  0  0  0  0  0  0  0  0  0  0
    1.4737   -0.8374   -1.7912 C   0  0  0  0  0  0  0  0  0  0  0  0
    1.0893   -1.0761   -0.3504 C   0  0  0  0  0  0  0  0  0  0  0  0
    2.0255   -2.0951    0.2375 C   0  0  0  0  0  0  0  0  0  0  0  0
    0.8669   -4.2425    0.3598 C   0  0  0  0  0  0  0  0  0  0  0  0
   -0.4418   -4.1328   -0.3776 C   0  0  2  0  0  0  0  0  0  0  0  0
   -0.8497   -5.5439   -0.7942 C   0  0  0  0  0  0  0  0  0  0  0  0
    2.5434   -2.2804   -3.5503 C   0  0  0  0  0  0  0  0  0  0  0  0
    1.6688    2.8346    1.3067 C   0  0  0  0  0  0  0  0  0  0  0  0
    1.5317    3.5570    0.0176 C   0  0  1  0  0  0  0  0  0  0  0  0
    0.1517    3.8197   -0.4663 C   0  0  0  0  0  0  0  0  0  0  0  0
   -0.7574    4.5266    0.4784 C   0  0  0  0  0  0  0  0  0  0  0  0
   -2.1554    3.8943    0.4814 C   0  0  0  0  0  0  0  0  0  0  0  0
   -2.8084    3.9983   -0.8356 C   0  0  1  0  0  0  0  0  0  0  0  0
   -4.0414    3.2311   -1.0729 C   0  0  1  0  0  0  0  0  0  0  0  0
   -4.0787    1.7975   -0.7300 C   0  0  2  0  0  0  0  0  0  0  0  0
   -4.5010    1.4634    0.6701 C   0  0  2  0  0  0  0  0  0  0  0  0
   -5.7808    0.6552    0.7590 C   0  0  2  0  0  0  0  0  0  0  0  0
   -5.6418   -0.7547    0.2725 C   0  0  1  0  0  0  0  0  0  0  0  0
   -5.5035   -1.7884    1.3543 C   0  0  1  0  0  0  0  0  0  0  0  0
   -4.1170   -2.3974    1.4395 C   0  0  2  0  0  0  0  0  0  0  0  0
   -3.8379   -3.2878    0.2410 C   0  0  0  0  0  0  0  0  0  0  0  0
   -2.4454   -2.9396   -0.3023 C   0  0  0  0  0  0  0  0  0  0  0  0
    2.2713    4.8987    0.0176 C   0  0  0  0  0  0  0  0  0  0  0  0
   -3.1479    5.4847   -1.0573 C   0  0  0  0  0  0  0  0  0  0  0  0
   -2.7690    1.0975   -1.1063 C   0  0  0  0  0  0  0  0  0  0  0  0
   -6.9213    1.4215    0.1164 C   0  0  0  0  0  0  0  0  0  0  0  0
   -5.8307   -1.2801    2.7403 C   0  0  0  0  0  0  0  0  0  0  0  0
   -6.3851   -1.2539   -1.8893 C   0  0  2  0  0  0  0  0  0  0  0  0
   -6.9211   -2.6236   -2.2519 C   0  0  0  0  0  0  0  0  0  0  0  0
   -3.1443   -2.8953    3.4347 C   0  0  0  0  0  0  0  0  0  0  0  0
   10.0138    1.4212    1.6380 C   0  0  0  0  0  0  0  0  0  0  0  0
    8.7721    1.7310   -0.4054 C   0  0  0  0  0  0  0  0  0  0  0  0
    7.3995    1.2668    0.0041 C   0  0  0  0  0  0  0  0  0  0  0  0
    8.4077   -0.7838    0.7388 C   0  0  0  0  0  0  0  0  0  0  0  0
    9.6942   -0.3776    0.0869 C   0  0  0  0  0  0  0  0  0  0  0  0
    4.9827    0.2758    0.2401 C   0  0  0  0  0  0  0  0  0  0  0  0
    2.7095    1.8343    1.3495 N   0  0  0  0  0  0  0  0  0  0  0  0
    6.0716   -0.6308    0.5207 N   0  0  0  0  0  0  0  0  0  0  0  0
    7.2838   -0.1569    0.0658 N   0  0  0  0  0  0  0  0  0  0  0  0
    9.8428    1.0523    0.2636 N   0  0  0  0  0  0  0  0  0  0  0  0
    0.9659   -0.1851    1.7969 O   0  0  0  0  0  0  0  0  0  0  0  0
    0.6544    0.1803   -2.2753 O   0  0  0  0  0  0  0  0  0  0  0  0
   -0.2527   -3.4081   -1.5196 O   0  0  0  0  0  0  0  0  0  0  0  0
    0.6805   -3.7584    1.6458 O   0  0  0  0  0  0  0  0  0  0  0  0
   -1.4636   -3.6152    0.3671 O   0  0  0  0  0  0  0  0  0  0  0  0
   -4.1342   -3.2517    2.5457 O   0  0  0  0  0  0  0  0  0  0  0  0
   -6.6990   -1.0074   -0.5889 O   0  0  0  0  0  0  0  0  0  0  0  0
   -7.1291   -0.3606   -2.7003 O   0  0  0  0  0  0  0  0  0  0  0  0
   -4.6981    2.5872    1.4692 O   0  0  0  0  0  0  0  0  0  0  0  0
   -5.1589    3.8622   -0.4733 O   0  0  0  0  0  0  0  0  0  0  0  0
    0.4718    2.3843    1.8616 O   0  0  0  0  0  0  0  0  0  0  0  0
    4.1050   -2.4994    1.1723 O   0  0  0  0  0  0  0  0  0  0  0  0
    0.4835    0.8974    0.0658 H   0  0  0  0  0  0  0  0  0  0  0  0
    2.7882    1.0821   -0.6278 H   0  0  0  0  0  0  0  0  0  0  0  0
    3.7783   -0.2747    1.8836 H   0  0  0  0  0  0  0  0  0  0  0  0
    3.9742   -1.7579   -0.6959 H   0  0  0  0  0  0  0  0  0  0  0  0
    2.7792   -3.9221   -0.5221 H   0  0  0  0  0  0  0  0  0  0  0  0
    1.3944   -4.2112   -2.3552 H   0  0  0  0  0  0  0  0  0  0  0  0
    0.4820   -1.9692   -3.2752 H   0  0  0  0  0  0  0  0  0  0  0  0
    2.5187   -0.4912   -1.8879 H   0  0  0  0  0  0  0  0  0  0  0  0
    0.0689   -1.4430   -0.2991 H   0  0  0  0  0  0  0  0  0  0  0  0
    1.7322   -2.1993    1.3127 H   0  0  0  0  0  0  0  0  0  0  0  0
    1.2224   -5.2824    0.4425 H   0  0  0  0  0  0  0  0  0  0  0  0
   -0.4979   -5.7802   -1.8032 H   0  0  0  0  0  0  0  0  0  0  0  0
   -1.9530   -5.6735   -0.6971 H   0  0  0  0  0  0  0  0  0  0  0  0
   -0.3974   -6.2586   -0.0812 H   0  0  0  0  0  0  0  0  0  0  0  0
    2.2296   -2.9144   -4.4262 H   0  0  0  0  0  0  0  0  0  0  0  0
    3.3555   -2.7751   -2.9690 H   0  0  0  0  0  0  0  0  0  0  0  0
    2.8861   -1.2845   -3.8830 H   0  0  0  0  0  0  0  0  0  0  0  0
    2.0185    3.6176    2.0525 H   0  0  0  0  0  0  0  0  0  0  0  0
    2.0463    2.9683   -0.7972 H   0  0  0  0  0  0  0  0  0  0  0  0
    0.2684    4.4655   -1.3913 H   0  0  0  0  0  0  0  0  0  0  0  0
   -0.3805    2.9166   -0.8326 H   0  0  0  0  0  0  0  0  0  0  0  0
   -0.4171    4.5089    1.5356 H   0  0  0  0  0  0  0  0  0  0  0  0
   -0.8462    5.6272    0.2463 H   0  0  0  0  0  0  0  0  0  0  0  0
   -2.7156    4.4932    1.2604 H   0  0  0  0  0  0  0  0  0  0  0  0
   -2.0342    2.9037    0.8974 H   0  0  0  0  0  0  0  0  0  0  0  0
   -2.0387    3.7899   -1.6167 H   0  0  0  0  0  0  0  0  0  0  0  0
   -4.2652    3.3087   -2.1618 H   0  0  0  0  0  0  0  0  0  0  0  0
   -4.8383    1.3300   -1.3955 H   0  0  0  0  0  0  0  0  0  0  0  0
   -3.7247    0.7848    1.1267 H   0  0  0  0  0  0  0  0  0  0  0  0
   -6.0415    0.6857    1.8642 H   0  0  0  0  0  0  0  0  0  0  0  0
   -4.7206   -0.8106   -0.3417 H   0  0  0  0  0  0  0  0  0  0  0  0
   -6.1816   -2.6589    1.1988 H   0  0  0  0  0  0  0  0  0  0  0  0
   -3.3198   -1.6537    1.5909 H   0  0  0  0  0  0  0  0  0  0  0  0
   -4.6185   -3.0760   -0.4986 H   0  0  0  0  0  0  0  0  0  0  0  0
   -3.8257   -4.3542    0.4786 H   0  0  0  0  0  0  0  0  0  0  0  0
   -2.4840   -3.1103   -1.3819 H   0  0  0  0  0  0  0  0  0  0  0  0
   -2.2772   -1.8330   -0.1583 H   0  0  0  0  0  0  0  0  0  0  0  0
    3.3481    4.7452   -0.2086 H   0  0  0  0  0  0  0  0  0  0  0  0
    1.8767    5.4864   -0.8621 H   0  0  0  0  0  0  0  0  0  0  0  0
    2.0740    5.4842    0.9144 H   0  0  0  0  0  0  0  0  0  0  0  0
   -3.4921    5.9633   -0.1258 H   0  0  0  0  0  0  0  0  0  0  0  0
   -2.2024    6.0201   -1.3390 H   0  0  0  0  0  0  0  0  0  0  0  0
   -3.8357    5.6069   -1.9090 H   0  0  0  0  0  0  0  0  0  0  0  0
   -2.1866    0.7941   -0.2214 H   0  0  0  0  0  0  0  0  0  0  0  0
   -2.9614    0.1349   -1.6655 H   0  0  0  0  0  0  0  0  0  0  0  0
   -2.1934    1.7161   -1.8330 H   0  0  0  0  0  0  0  0  0  0  0  0
   -6.7623    1.6827   -0.9253 H   0  0  0  0  0  0  0  0  0  0  0  0
   -7.0776    2.3338    0.7671 H   0  0  0  0  0  0  0  0  0  0  0  0
   -7.8855    0.8612    0.2264 H   0  0  0  0  0  0  0  0  0  0  0  0
   -5.1298   -0.5540    3.1460 H   0  0  0  0  0  0  0  0  0  0  0  0
   -5.7443   -2.1908    3.4062 H   0  0  0  0  0  0  0  0  0  0  0  0
   -6.8954   -0.9798    2.8328 H   0  0  0  0  0  0  0  0  0  0  0  0
   -5.3247   -1.2315   -2.1370 H   0  0  0  0  0  0  0  0  0  0  0  0
   -7.5757   -3.0308   -1.4316 H   0  0  0  0  0  0  0  0  0  0  0  0
   -6.0870   -3.3134   -2.3659 H   0  0  0  0  0  0  0  0  0  0  0  0
   -7.4873   -2.6292   -3.2127 H   0  0  0  0  0  0  0  0  0  0  0  0
   -3.2816   -1.8771    3.7864 H   0  0  0  0  0  0  0  0  0  0  0  0
   -2.1616   -3.0751    2.9530 H   0  0  0  0  0  0  0  0  0  0  0  0
   -3.2203   -3.6175    4.2874 H   0  0  0  0  0  0  0  0  0  0  0  0
   10.9045    2.0751    1.7952 H   0  0  0  0  0  0  0  0  0  0  0  0
   10.1667    0.4984    2.2420 H   0  0  0  0  0  0  0  0  0  0  0  0
    9.0794    1.9134    1.9901 H   0  0  0  0  0  0  0  0  0  0  0  0
    8.9345    1.6438   -1.5032 H   0  0  0  0  0  0  0  0  0  0  0  0
    8.8520    2.8132   -0.1608 H   0  0  0  0  0  0  0  0  0  0  0  0
    7.1287    1.7277    0.9637 H   0  0  0  0  0  0  0  0  0  0  0  0
    6.6826    1.6489   -0.7654 H   0  0  0  0  0  0  0  0  0  0  0  0
    8.2598   -1.8789    0.6719 H   0  0  0  0  0  0  0  0  0  0  0  0
    8.3991   -0.4204    1.7823 H   0  0  0  0  0  0  0  0  0  0  0  0
    9.6840   -0.6084   -0.9935 H   0  0  0  0  0  0  0  0  0  0  0  0
   10.5587   -0.8571    0.5675 H   0  0  0  0  0  0  0  0  0  0  0  0
    5.1825    1.3049    0.5612 H   0  0  0  0  0  0  0  0  0  0  0  0
    4.8791    0.2821   -0.8849 H   0  0  0  0  0  0  0  0  0  0  0  0
    3.6058    2.3308    1.3200 H   0  0  0  0  0  0  0  0  0  0  0  0
    5.8634   -1.5349    0.0288 H   0  0  0  0  0  0  0  0  0  0  0  0
    1.7618   -0.0718    2.3726 H   0  0  0  0  0  0  0  0  0  0  0  0
   -0.0953   -0.2925   -2.7590 H   0  0  0  0  0  0  0  0  0  0  0  0
   -0.1579   -4.0313    2.0521 H   0  0  0  0  0  0  0  0  0  0  0  0
   -6.7772   -0.5177   -3.6188 H   0  0  0  0  0  0  0  0  0  0  0  0
   -4.3455    2.3573    2.3676 H   0  0  0  0  0  0  0  0  0  0  0  0
   -4.9047    4.5266    0.1823 H   0  0  0  0  0  0  0  0  0  0  0  0
    0.4937    2.3935    2.8587 H   0  0  0  0  0  0  0  0  0  0  0  0
    4.3264   -3.3513    0.7645 H   0  0  0  0  0  0  0  0  0  0  0  0
  1  2  1  0
  2  3  1  0
  3  4  1  0
  5  6  1  0
  6  7  1  0
  7  8  1  0
  1  9  1  0
  8  9  1  0
  4 10  1  0
  5 10  1  0
  9 10  1  0
  5 11  1  0
 11 12  1  0
 12 13  1  6
  7 14  1  0
 15 16  1  0
 16 17  1  0
 17 18  1  0
 18 19  1  0
 19 20  1  0
 20 21  1  0
 21 22  1  0
 22 23  1  0
 23 24  1  0
 24 25  1  0
 25 26  1  0
 26 27  1  0
 27 28  1  0
 28 29  1  0
 16 30  1  0
 20 31  1  0
 22 32  1  0
 24 33  1  0
 26 34  1  0
 35 36  1  0
 39 40  1  0
 41 42  1  0
  3 43  1  0
  2 44  1  0
 15 44  1  0
 43 45  1  0
 40 46  1  0
 41 46  1  0
 45 46  1  0
 38 47  1  0
 39 47  1  0
 42 47  1  0
  1 48  1  0
  8 49  1  0
  6 50  1  0
 12 50  1  0
 11 51  1  0
 12 52  1  0
 29 52  1  0
 27 53  1  0
 37 53  1  0
 25 54  1  0
 35 54  1  0
 35 55  1  0
 23 56  1  0
 21 57  1  0
 15 58  1  0
  4 59  1  0
  1 60  1  0
  2 61  1  6
  3 62  1  0
  4 63  1  0
  5 64  1  0
  6 65  1  0
  7 66  1  0
  8 67  1  0
  9 68  1  0
 10 69  1  0
 11 70  1  0
 13 71  1  0
 13 72  1  0
 13 73  1  0
 14 74  1  0
 14 75  1  0
 14 76  1  0
 15 77  1  0
 16 78  1  6
 17 79  1  0
 17 80  1  0
 18 81  1  0
 18 82  1  0
 19 83  1  0
 19 84  1  0
 20 85  1  6
 21 86  1  6
 22 87  1  6
 23 88  1  1
 24 89  1  1
 25 90  1  6
 26 91  1  6
 27 92  1  1
 28 93  1  0
 28 94  1  0
 29 95  1  0
 29 96  1  0
 30 97  1  0
 30 98  1  0
 30 99  1  0
 31100  1  0
 31101  1  0
 31102  1  0
 32103  1  0
 32104  1  0
 32105  1  0
 33106  1  0
 33107  1  0
 33108  1  0
 34109  1  0
 34110  1  0
 34111  1  0
 35112  1  1
 36113  1  0
 36114  1  0
 36115  1  0
 37116  1  0
 37117  1  0
 37118  1  0
 38119  1  0
 38120  1  0
 38121  1  0
 39122  1  0
 39123  1  0
 40124  1  0
 40125  1  0
 41126  1  0
 41127  1  0
 42128  1  0
 42129  1  0
 43130  1  0
 43131  1  0
 44132  1  0
 45133  1  0
 48134  1  0
 49135  1  0
 51136  1  0
 55137  1  0
 56138  1  0
 57139  1  0
 58140  1  0
 59141  1  0
M  END
>  <PDBID>  (1) 
5UAC

>  <PDB ID>  (1) 
5UAC

>  <Generic Name>  (1) 
Rifampicin

>  <Brand Name>  (1) 
Isonarif#Rifadin#Rifadin Cap 300mg#Rifadin IV#Rifadin IV Novaplus#Rifamate#Rifampin#Rifater#Rofact 150mg#Rofact 300mg#Rifadine#Rifaldin#Rifoldin#Rimactan#Rimactane#Rofact#Tubocin

>  <DrugBank ID>  (1) 
DB01045

>  <ATC Codes>  (1) 
J04AM02#J04AB02#J04AM06#J04AM05

>  <Ligand ID>  (1) 
RFP

>  <Target Name>  (1) 
DNA-directed RNA polymerase subunit beta

>  <UniProt ID>  (1) 
P0A8V2

>  <PDB ID.1>  (1) 
5UAC

>  <Seq. Identity>  (1) 
100%

$$$$
