PDB_DB12332_06
     RDKit          3D

116122  0  0  0  0  0  0  0  0999 V2000
   -3.2662    0.6693    2.1882 O   0  0  0  0  0  0  0  0  0  0  0  0
   -4.1052    0.5985    1.0959 C   0  0  1  0  0  0  0  0  0  0  0  0
   -4.3669    1.8685    0.4862 N   0  0  0  0  0  0  0  0  0  0  0  0
   -3.3311    2.3285   -0.4008 C   0  0  0  0  0  0  0  0  0  0  0  0
   -1.9417    2.2065    0.1955 C   0  0  0  0  0  0  0  0  0  0  0  0
   -1.4545    0.8178    0.1026 C   0  0  0  0  0  0  0  0  0  0  0  0
   -2.4175   -0.1255   -0.6125 C   0  0  0  0  0  0  0  0  0  0  0  0
   -3.6597   -0.4450    0.0916 C   0  0  0  0  0  0  0  0  0  0  0  0
   -3.6731   -1.7934    0.7703 C   0  0  0  0  0  0  0  0  0  0  0  0
   -3.2241   -2.9208   -0.0965 C   0  0  0  0  0  0  0  0  0  0  0  0
   -4.2262   -3.6317   -0.6873 F   0  0  0  0  0  0  0  0  0  0  0  0
   -2.1670   -2.4841   -1.1243 C   0  0  0  0  0  0  0  0  0  0  0  0
   -1.4620   -1.3380   -0.5427 C   0  0  0  0  0  0  0  0  0  0  0  0
   -0.3352   -0.7985   -1.2168 N   0  0  0  0  0  0  0  0  0  0  0  0
   -0.2745    0.6266   -0.8287 C   0  0  2  0  0  0  0  0  0  0  0  0
    1.0543    0.9535   -0.2143 C   0  0  0  0  0  0  0  0  0  0  0  0
    2.0815    0.7463   -1.3083 C   0  0  0  0  0  0  0  0  0  0  0  0
    3.5029    0.6356   -0.7745 C   0  0  0  0  0  0  0  0  0  0  0  0
    1.2756    0.0105    0.9443 C   0  0  0  0  0  0  0  0  0  0  0  0
    2.7072   -0.0559    1.3861 C   0  0  0  0  0  0  0  0  0  0  0  0
    3.5146   -0.5320    0.1572 C   0  0  0  0  0  0  0  0  0  0  0  0
    4.8256   -1.0813    0.5688 C   0  0  0  0  0  0  0  0  0  0  0  0
    5.6602   -0.1962    1.2660 N   0  0  0  0  0  0  0  0  0  0  0  0
    6.2230    0.8690    0.5174 C   0  0  0  0  0  0  0  0  0  0  0  0
   -3.2662    0.6693    2.1882 O   0  0  0  0  0  0  0  0  0  0  0  0
   -4.1052    0.5985    1.0959 C   0  0  1  0  0  0  0  0  0  0  0  0
   -4.3669    1.8685    0.4862 N   0  0  0  0  0  0  0  0  0  0  0  0
   -3.3311    2.3285   -0.4008 C   0  0  0  0  0  0  0  0  0  0  0  0
   -1.9417    2.2065    0.1955 C   0  0  0  0  0  0  0  0  0  0  0  0
   -1.4545    0.8178    0.1026 C   0  0  0  0  0  0  0  0  0  0  0  0
   -2.4175   -0.1255   -0.6125 C   0  0  0  0  0  0  0  0  0  0  0  0
   -3.6597   -0.4450    0.0916 C   0  0  0  0  0  0  0  0  0  0  0  0
   -3.6731   -1.7934    0.7703 C   0  0  0  0  0  0  0  0  0  0  0  0
   -3.2241   -2.9208   -0.0965 C   0  0  0  0  0  0  0  0  0  0  0  0
   -4.2262   -3.6317   -0.6873 F   0  0  0  0  0  0  0  0  0  0  0  0
   -2.1670   -2.4841   -1.1243 C   0  0  0  0  0  0  0  0  0  0  0  0
   -1.4620   -1.3380   -0.5427 C   0  0  0  0  0  0  0  0  0  0  0  0
   -0.3352   -0.7985   -1.2168 N   0  0  0  0  0  0  0  0  0  0  0  0
   -0.2745    0.6266   -0.8287 C   0  0  2  0  0  0  0  0  0  0  0  0
    1.0543    0.9535   -0.2143 C   0  0  0  0  0  0  0  0  0  0  0  0
    2.0815    0.7463   -1.3083 C   0  0  0  0  0  0  0  0  0  0  0  0
    3.5029    0.6356   -0.7745 C   0  0  0  0  0  0  0  0  0  0  0  0
    1.2756    0.0105    0.9443 C   0  0  0  0  0  0  0  0  0  0  0  0
    2.7072   -0.0559    1.3861 C   0  0  0  0  0  0  0  0  0  0  0  0
    3.5146   -0.5320    0.1572 C   0  0  0  0  0  0  0  0  0  0  0  0
    4.8256   -1.0813    0.5688 C   0  0  0  0  0  0  0  0  0  0  0  0
    5.6602   -0.1962    1.2660 N   0  0  0  0  0  0  0  0  0  0  0  0
    6.2230    0.8690    0.5174 C   0  0  0  0  0  0  0  0  0  0  0  0
   -3.6838    1.3103    2.8264 H   0  0  0  0  0  0  0  0  0  0  0  0
   -5.0943    0.2148    1.4858 H   0  0  0  0  0  0  0  0  0  0  0  0
   -5.2310    1.7450   -0.1101 H   0  0  0  0  0  0  0  0  0  0  0  0
   -3.4935    3.4384   -0.5268 H   0  0  0  0  0  0  0  0  0  0  0  0
   -3.3824    1.9055   -1.4138 H   0  0  0  0  0  0  0  0  0  0  0  0
   -1.2507    2.9878   -0.1976 H   0  0  0  0  0  0  0  0  0  0  0  0
   -2.0571    2.4598    1.2850 H   0  0  0  0  0  0  0  0  0  0  0  0
   -1.2081    0.3482    1.0615 H   0  0  0  0  0  0  0  0  0  0  0  0
   -2.5032    0.0897   -1.6932 H   0  0  0  0  0  0  0  0  0  0  0  0
   -4.4967   -0.4879   -0.6706 H   0  0  0  0  0  0  0  0  0  0  0  0
   -4.7486   -1.9937    1.0421 H   0  0  0  0  0  0  0  0  0  0  0  0
   -3.1365   -1.7062    1.7191 H   0  0  0  0  0  0  0  0  0  0  0  0
   -2.6702   -3.6426    0.5667 H   0  0  0  0  0  0  0  0  0  0  0  0
   -1.4591   -3.3306   -1.3203 H   0  0  0  0  0  0  0  0  0  0  0  0
   -2.7155   -2.2051   -2.0389 H   0  0  0  0  0  0  0  0  0  0  0  0
   -1.3223   -1.4912    0.5512 H   0  0  0  0  0  0  0  0  0  0  0  0
   -0.4986   -0.8143   -2.2295 H   0  0  0  0  0  0  0  0  0  0  0  0
   -0.4474    1.2878   -1.6930 H   0  0  0  0  0  0  0  0  0  0  0  0
    1.0142    1.9999    0.1488 H   0  0  0  0  0  0  0  0  0  0  0  0
    1.9820    1.5931   -2.0185 H   0  0  0  0  0  0  0  0  0  0  0  0
    1.8429   -0.2123   -1.8056 H   0  0  0  0  0  0  0  0  0  0  0  0
    4.1036    0.3432   -1.6873 H   0  0  0  0  0  0  0  0  0  0  0  0
    3.8275    1.5846   -0.3418 H   0  0  0  0  0  0  0  0  0  0  0  0
    1.0141   -1.0209    0.5803 H   0  0  0  0  0  0  0  0  0  0  0  0
    0.6662    0.3265    1.7966 H   0  0  0  0  0  0  0  0  0  0  0  0
    2.7702   -0.8159    2.1875 H   0  0  0  0  0  0  0  0  0  0  0  0
    3.0739    0.9361    1.7155 H   0  0  0  0  0  0  0  0  0  0  0  0
    2.8465   -1.3104   -0.2961 H   0  0  0  0  0  0  0  0  0  0  0  0
    5.3134   -1.4480   -0.3981 H   0  0  0  0  0  0  0  0  0  0  0  0
    4.5973   -2.0188    1.1603 H   0  0  0  0  0  0  0  0  0  0  0  0
    6.2237   -0.5982    2.0204 H   0  0  0  0  0  0  0  0  0  0  0  0
    7.3325    0.9317    0.7501 H   0  0  0  0  0  0  0  0  0  0  0  0
    6.0696    0.8444   -0.5696 H   0  0  0  0  0  0  0  0  0  0  0  0
    5.7811    1.8210    0.9227 H   0  0  0  0  0  0  0  0  0  0  0  0
   -3.6838    1.3103    2.8264 H   0  0  0  0  0  0  0  0  0  0  0  0
   -5.0943    0.2148    1.4858 H   0  0  0  0  0  0  0  0  0  0  0  0
   -5.2310    1.7450   -0.1101 H   0  0  0  0  0  0  0  0  0  0  0  0
   -3.4935    3.4384   -0.5268 H   0  0  0  0  0  0  0  0  0  0  0  0
   -3.3824    1.9055   -1.4138 H   0  0  0  0  0  0  0  0  0  0  0  0
   -1.2507    2.9878   -0.1976 H   0  0  0  0  0  0  0  0  0  0  0  0
   -2.0571    2.4598    1.2850 H   0  0  0  0  0  0  0  0  0  0  0  0
   -1.2081    0.3482    1.0615 H   0  0  0  0  0  0  0  0  0  0  0  0
   -2.5032    0.0897   -1.6932 H   0  0  0  0  0  0  0  0  0  0  0  0
   -4.4967   -0.4879   -0.6706 H   0  0  0  0  0  0  0  0  0  0  0  0
   -4.7486   -1.9937    1.0421 H   0  0  0  0  0  0  0  0  0  0  0  0
   -3.1365   -1.7062    1.7191 H   0  0  0  0  0  0  0  0  0  0  0  0
   -2.6702   -3.6426    0.5667 H   0  0  0  0  0  0  0  0  0  0  0  0
   -1.4591   -3.3306   -1.3203 H   0  0  0  0  0  0  0  0  0  0  0  0
   -2.7155   -2.2051   -2.0389 H   0  0  0  0  0  0  0  0  0  0  0  0
   -1.3223   -1.4912    0.5512 H   0  0  0  0  0  0  0  0  0  0  0  0
   -0.4986   -0.8143   -2.2295 H   0  0  0  0  0  0  0  0  0  0  0  0
   -0.4474    1.2878   -1.6930 H   0  0  0  0  0  0  0  0  0  0  0  0
    1.0142    1.9999    0.1488 H   0  0  0  0  0  0  0  0  0  0  0  0
    1.9820    1.5931   -2.0185 H   0  0  0  0  0  0  0  0  0  0  0  0
    1.8429   -0.2123   -1.8056 H   0  0  0  0  0  0  0  0  0  0  0  0
    4.1036    0.3432   -1.6873 H   0  0  0  0  0  0  0  0  0  0  0  0
    3.8275    1.5846   -0.3418 H   0  0  0  0  0  0  0  0  0  0  0  0
    1.0141   -1.0209    0.5803 H   0  0  0  0  0  0  0  0  0  0  0  0
    0.6662    0.3265    1.7966 H   0  0  0  0  0  0  0  0  0  0  0  0
    2.7702   -0.8159    2.1875 H   0  0  0  0  0  0  0  0  0  0  0  0
    3.0739    0.9361    1.7155 H   0  0  0  0  0  0  0  0  0  0  0  0
    2.8465   -1.3104   -0.2961 H   0  0  0  0  0  0  0  0  0  0  0  0
    5.3134   -1.4480   -0.3981 H   0  0  0  0  0  0  0  0  0  0  0  0
    4.5973   -2.0188    1.1603 H   0  0  0  0  0  0  0  0  0  0  0  0
    6.2237   -0.5982    2.0204 H   0  0  0  0  0  0  0  0  0  0  0  0
    7.3325    0.9317    0.7501 H   0  0  0  0  0  0  0  0  0  0  0  0
    6.0696    0.8444   -0.5696 H   0  0  0  0  0  0  0  0  0  0  0  0
    5.7811    1.8210    0.9227 H   0  0  0  0  0  0  0  0  0  0  0  0
  1  2  1  0
  2  3  1  0
  3  4  1  0
  4  5  1  0
  5  6  1  0
  6  7  1  0
  2  8  1  0
  7  8  1  0
  8  9  1  0
  9 10  1  0
 10 11  1  0
 10 12  1  0
  7 13  1  0
 12 13  1  0
 13 14  1  0
  6 15  1  0
 14 15  1  0
 15 16  1  0
 16 17  1  0
 17 18  1  0
 16 19  1  0
 19 20  1  0
 18 21  1  0
 20 21  1  0
 21 22  1  0
 22 23  1  0
 23 24  1  0
 25 26  1  0
 26 27  1  0
 27 28  1  0
 28 29  1  0
 29 30  1  0
 30 31  1  0
 26 32  1  0
 31 32  1  0
 32 33  1  0
 33 34  1  0
 34 35  1  0
 34 36  1  0
 31 37  1  0
 36 37  1  0
 37 38  1  0
 30 39  1  0
 38 39  1  0
 39 40  1  0
 40 41  1  0
 41 42  1  0
 40 43  1  0
 43 44  1  0
 42 45  1  0
 44 45  1  0
 45 46  1  0
 46 47  1  0
 47 48  1  0
  1 49  1  0
  2 50  1  1
  3 51  1  0
  4 52  1  0
  4 53  1  0
  5 54  1  0
  5 55  1  0
  6 56  1  0
  7 57  1  0
  8 58  1  0
  9 59  1  0
  9 60  1  0
 10 61  1  0
 12 62  1  0
 12 63  1  0
 13 64  1  0
 14 65  1  0
 15 66  1  6
 16 67  1  0
 17 68  1  0
 17 69  1  0
 18 70  1  0
 18 71  1  0
 19 72  1  0
 19 73  1  0
 20 74  1  0
 20 75  1  0
 21 76  1  0
 22 77  1  0
 22 78  1  0
 23 79  1  0
 24 80  1  0
 24 81  1  0
 24 82  1  0
 25 83  1  0
 26 84  1  1
 27 85  1  0
 28 86  1  0
 28 87  1  0
 29 88  1  0
 29 89  1  0
 30 90  1  0
 31 91  1  0
 32 92  1  0
 33 93  1  0
 33 94  1  0
 34 95  1  0
 36 96  1  0
 36 97  1  0
 37 98  1  0
 38 99  1  0
 39100  1  6
 40101  1  0
 41102  1  0
 41103  1  0
 42104  1  0
 42105  1  0
 43106  1  0
 43107  1  0
 44108  1  0
 44109  1  0
 45110  1  0
 46111  1  0
 46112  1  0
 47113  1  0
 48114  1  0
 48115  1  0
 48116  1  0
M  END
>  <PDBID>  (1) 
4RV6

>  <PDB ID>  (1) 
4RV6

>  <Generic Name>  (1) 
Rucaparib

>  <Brand Name>  (1) 
Rubraca

>  <DrugBank ID>  (1) 
DB12332

>  <ATC Codes>  (1) 
nan

>  <Ligand ID>  (1) 
RPB

>  <Target Name>  (1) 
Poly [ADP-ribose] polymerase 1

>  <UniProt ID>  (1) 
P09874

>  <PDB ID.1>  (1) 
4RV6

>  <Seq. Identity>  (1) 
100%

$$$$
