PDB_DB00783_05
     RDKit          3D

 50 53  0  0  0  0  0  0  0  0999 V2000
    2.4940    0.7906   -1.2610 C   0  0  0  0  0  0  0  0  0  0  0  0
    3.7964    1.1603   -0.6350 C   0  0  0  0  0  0  0  0  0  0  0  0
    4.3632   -0.0318    0.0839 C   0  0  0  0  0  0  0  0  0  0  0  0
    5.6310    0.3243    0.5444 O   0  0  0  0  0  0  0  0  0  0  0  0
    3.5052   -0.4725    1.2330 C   0  0  0  0  0  0  0  0  0  0  0  0
    2.0160   -0.3273    0.9309 C   0  0  0  0  0  0  0  0  0  0  0  0
    1.4822    0.8510    1.6677 C   0  0  0  0  0  0  0  0  0  0  0  0
    0.2017    1.4041    1.0886 C   0  0  0  0  0  0  0  0  0  0  0  0
   -0.4987    0.2696    0.3813 C   0  0  2  0  0  0  0  0  0  0  0  0
    0.3158   -0.1986   -0.8338 C   0  0  1  0  0  0  0  0  0  0  0  0
    1.7596   -0.3089   -0.5447 C   0  0  0  0  0  0  0  0  0  0  0  0
   -0.3149   -1.5028   -1.2744 C   0  0  0  0  0  0  0  0  0  0  0  0
   -1.7631   -1.3647   -1.5746 C   0  0  0  0  0  0  0  0  0  0  0  0
   -2.5324   -0.7230   -0.4644 C   0  0  1  0  0  0  0  0  0  0  0  0
   -1.8238    0.6074   -0.1676 C   0  0  1  0  0  0  0  0  0  0  0  0
   -2.7845    1.2772    0.7210 C   0  0  0  0  0  0  0  0  0  0  0  0
   -4.1035    1.0550   -0.0341 C   0  0  0  0  0  0  0  0  0  0  0  0
   -3.8874   -0.2373   -0.8332 C   0  0  2  0  0  0  0  0  0  0  0  0
   -4.8512   -1.1485   -0.3655 O   0  0  0  0  0  0  0  0  0  0  0  0
   -2.5687   -1.6091    0.7463 C   0  0  0  0  0  0  0  0  0  0  0  0
    1.8831    1.7313   -1.3452 H   0  0  0  0  0  0  0  0  0  0  0  0
    2.6115    0.4519   -2.3311 H   0  0  0  0  0  0  0  0  0  0  0  0
    3.7603    2.0694   -0.0040 H   0  0  0  0  0  0  0  0  0  0  0  0
    4.5083    1.4024   -1.4652 H   0  0  0  0  0  0  0  0  0  0  0  0
    4.5094   -0.8303   -0.6855 H   0  0  0  0  0  0  0  0  0  0  0  0
    5.9640   -0.4661    1.0562 H   0  0  0  0  0  0  0  0  0  0  0  0
    3.7766   -1.5267    1.4603 H   0  0  0  0  0  0  0  0  0  0  0  0
    3.7762    0.1330    2.1346 H   0  0  0  0  0  0  0  0  0  0  0  0
    1.5419   -1.2555    1.3339 H   0  0  0  0  0  0  0  0  0  0  0  0
    2.2579    1.6398    1.8175 H   0  0  0  0  0  0  0  0  0  0  0  0
    1.2380    0.5017    2.7143 H   0  0  0  0  0  0  0  0  0  0  0  0
   -0.4819    1.7377    1.8970 H   0  0  0  0  0  0  0  0  0  0  0  0
    0.3710    2.2771    0.4369 H   0  0  0  0  0  0  0  0  0  0  0  0
   -0.4907   -0.5977    1.0800 H   0  0  0  0  0  0  0  0  0  0  0  0
    0.1010    0.5390   -1.6552 H   0  0  0  0  0  0  0  0  0  0  0  0
    2.1341   -1.2713   -0.9579 H   0  0  0  0  0  0  0  0  0  0  0  0
    0.2130   -1.8280   -2.2036 H   0  0  0  0  0  0  0  0  0  0  0  0
   -0.0760   -2.2698   -0.5089 H   0  0  0  0  0  0  0  0  0  0  0  0
   -1.9055   -0.8700   -2.5410 H   0  0  0  0  0  0  0  0  0  0  0  0
   -2.1794   -2.4042   -1.6977 H   0  0  0  0  0  0  0  0  0  0  0  0
   -1.7510    1.1313   -1.1276 H   0  0  0  0  0  0  0  0  0  0  0  0
   -2.8267    0.9058    1.7442 H   0  0  0  0  0  0  0  0  0  0  0  0
   -2.5916    2.3884    0.7061 H   0  0  0  0  0  0  0  0  0  0  0  0
   -4.9572    0.9908    0.6369 H   0  0  0  0  0  0  0  0  0  0  0  0
   -4.1898    1.8701   -0.7978 H   0  0  0  0  0  0  0  0  0  0  0  0
   -4.0543   -0.0895   -1.9047 H   0  0  0  0  0  0  0  0  0  0  0  0
   -5.6894   -0.5996   -0.2430 H   0  0  0  0  0  0  0  0  0  0  0  0
   -2.3781   -1.0843    1.6938 H   0  0  0  0  0  0  0  0  0  0  0  0
   -1.9020   -2.4606    0.5925 H   0  0  0  0  0  0  0  0  0  0  0  0
   -3.6093   -2.0311    0.8406 H   0  0  0  0  0  0  0  0  0  0  0  0
  1  2  1  0
  2  3  1  0
  3  4  1  0
  3  5  1  0
  5  6  1  0
  6  7  1  0
  7  8  1  0
  8  9  1  0
  9 10  1  0
  1 11  1  0
  6 11  1  0
 10 11  1  0
 10 12  1  0
 12 13  1  0
 13 14  1  0
  9 15  1  0
 14 15  1  0
 15 16  1  0
 16 17  1  0
 14 18  1  0
 17 18  1  0
 18 19  1  0
 14 20  1  1
  1 21  1  0
  1 22  1  0
  2 23  1  0
  2 24  1  0
  3 25  1  0
  4 26  1  0
  5 27  1  0
  5 28  1  0
  6 29  1  0
  7 30  1  0
  7 31  1  0
  8 32  1  0
  8 33  1  0
  9 34  1  1
 10 35  1  6
 11 36  1  0
 12 37  1  0
 12 38  1  0
 13 39  1  0
 13 40  1  0
 15 41  1  6
 16 42  1  0
 16 43  1  0
 17 44  1  0
 17 45  1  0
 18 46  1  6
 19 47  1  0
 20 48  1  0
 20 49  1  0
 20 50  1  0
M  END
>  <PDBID>  (1) 
2OCF

>  <PDB ID>  (1) 
2OCF

>  <Generic Name>  (1) 
Estradiol

>  <Brand Name>  (1) 
Activella#Activelle#Activelle Ld#Alora#Amabelz#Angeliq#Climara#Climara 100#Climara 25#Climara 50#Climara 75#Climara Pro#Combipatch#Combipatch (estradiol/norethindrone Acetate Transdermal System)#Delestrogen#Delestrogen Inj 10mg/ml#Depo-estradiol#Divigel#Elestrin#Estalis 140/50 Mcg#Estalis 250/50 Mcg#Estalis Sequi#Estrace#Estrace Tab 1mg#Estrace Tab 2mg#Estracomb#Estraderm-100#Estraderm-25#Estraderm-50#Estradiol#Estradiol / Norethindrone Acetate#Estradiol Transdermal System#Estradiol Valerate#Estradot 100#Estradot 25#Estradot 37.5#Estradot 50#Estradot 75#Estring#Estrogel#Estrogel Propak#Evamist#Femring#Lopreeza#Lupin-estradiol#Menostar#Mimvey#Mimvey Lo#Minivelle#Natazia#Neo Pause Injection#Neo-diol Inj 20mg/ml#Oesclim#PMS-estradiol Valerate Inj 10mg/ml#Prefesta#Sandoz Estradiol Derm 100#Sandoz Estradiol Derm 50#Sandoz Estradiol Derm 75#Vagifem#Vagifem 10#Vivelle 100mcg#Vivelle 37.5mcg#Vivelle 50mcg#Vivelle 75mcg#Vivelle Dot#Vivelle-dot#Yuvafem#Estraderm MX#Estraderm TTS#Estrasorb#Estrofem#Femtrace#Innofem#Vivelle

>  <DrugBank ID>  (1) 
DB00783

>  <ATC Codes>  (1) 
G03FA16#G03FA11#G03FA12#G03FB12#G03FA17#G03FA05#G03FB09#G03FA14#G03FA08#G03AA14#G03EA03#G03FB01#G03AB08#G03EA02#G03FB05#G03HB01#G03FB11#G03CA53#G03FB04#G03FA07#G03FB07#G03FB02#G03FB10#G03FA06#G03CA03#G03FA15#G03FA09#G03FA13#G03EA01#G03FB06#G03FA01#G03FA02#G02BB01#G03FA03#G03FB08#G03FA10#G03FA04#G03FB03

>  <Ligand ID>  (1) 
EST

>  <Target Name>  (1) 
Estrogen receptor

>  <UniProt ID>  (1) 
P03372

>  <PDB ID.1>  (1) 
2OCF

>  <Seq. Identity>  (1) 
94%

$$$$
