PDB_DB01229_00
     RDKit          3D

290302  0  0  0  0  0  0  0  0999 V2000
   -1.2983   -0.3195    1.9727 O   0  0  0  0  0  0  0  0  0  0  0  0
   -1.7392   -1.0178    0.7921 C   0  0  1  0  0  0  0  0  0  0  0  0
   -3.1909   -0.5939    0.7241 C   0  0  1  0  0  0  0  0  0  0  0  0
   -3.0601    0.8148    0.7282 O   0  0  0  0  0  0  0  0  0  0  0  0
   -3.1291    1.5750    1.7720 C   0  0  0  0  0  0  0  0  0  0  0  0
   -4.2647    2.4486    1.9292 O   0  0  0  0  0  0  0  0  0  0  0  0
   -2.0132    2.5828    1.8211 C   0  0  0  0  0  0  0  0  0  0  0  0
   -2.1169    3.4531    3.0702 C   0  0  0  0  0  0  0  0  0  0  0  0
   -2.7915    4.7626    2.8525 C   0  0  0  0  0  0  0  0  0  0  0  0
   -1.9289    5.6647    1.9941 C   0  0  0  0  0  0  0  0  0  0  0  0
   -1.3742    4.8027    0.8768 C   0  0  0  0  0  0  0  0  0  0  0  0
   -2.2687    3.5879    0.6678 C   0  0  0  0  0  0  0  0  0  0  0  0
   -4.0326   -0.9688   -0.4092 C   0  0  2  0  0  0  0  0  0  0  0  0
   -5.1808    0.0234   -0.5231 C   0  0  2  0  0  0  0  0  0  0  0  0
   -4.8429    1.0449   -1.3433 O   0  0  0  0  0  0  0  0  0  0  0  0
   -5.5899    2.0479   -1.7274 C   0  0  0  0  0  0  0  0  0  0  0  0
   -6.0151    1.9754   -3.0889 O   0  0  0  0  0  0  0  0  0  0  0  0
   -4.9185    3.3795   -1.6305 C   0  0  0  0  0  0  0  0  0  0  0  0
   -5.9984    0.1853    0.7027 C   0  0  0  0  0  0  0  0  0  0  0  0
   -6.9151   -0.7935    0.3062 O   0  0  0  0  0  0  0  0  0  0  0  0
   -6.4974   -0.5117   -0.9881 C   0  0  2  0  0  0  0  0  0  0  0  0
   -6.5251   -1.6400   -1.8993 C   0  0  0  0  0  0  0  0  0  0  0  0
   -5.2108   -2.2629   -2.0882 C   0  0  2  0  0  0  0  0  0  0  0  0
   -5.5412   -3.6129   -2.3950 O   0  0  0  0  0  0  0  0  0  0  0  0
   -4.3601   -2.3776   -0.7735 C   0  0  2  0  0  0  0  0  0  0  0  0
   -5.2565   -3.1847    0.0521 C   0  0  0  0  0  0  0  0  0  0  0  0
   -3.1575   -3.0688   -1.3771 C   0  0  0  0  0  0  0  0  0  0  0  0
   -3.4994   -3.8301   -2.5447 O   0  0  0  0  0  0  0  0  0  0  0  0
   -2.2626   -3.9053   -0.6313 C   0  0  2  0  0  0  0  0  0  0  0  0
   -2.8131   -4.8612    0.1885 O   0  0  0  0  0  0  0  0  0  0  0  0
   -2.5798   -6.1677   -0.1487 C   0  0  0  0  0  0  0  0  0  0  0  0
   -3.7694   -6.8418   -0.3998 O   0  0  0  0  0  0  0  0  0  0  0  0
   -1.8009   -6.9309    0.8968 C   0  0  0  0  0  0  0  0  0  0  0  0
   -1.0806   -3.3214    0.0623 C   0  0  1  0  0  0  0  0  0  0  0  0
    0.0109   -2.8047   -0.8057 C   0  0  0  0  0  0  0  0  0  0  0  0
    0.3332   -1.3250   -0.5791 C   0  0  1  0  0  0  0  0  0  0  0  0
    1.0095   -0.8187   -1.6882 O   0  0  0  0  0  0  0  0  0  0  0  0
    2.3954   -0.7105   -1.4266 C   0  0  0  0  0  0  0  0  0  0  0  0
    3.1111   -1.2762   -2.4432 O   0  0  0  0  0  0  0  0  0  0  0  0
    2.8648    0.6924   -1.1866 C   0  0  2  0  0  0  0  0  0  0  0  0
    2.5383    1.5336   -2.2111 O   0  0  0  0  0  0  0  0  0  0  0  0
    4.3753    0.6340   -0.9456 C   0  0  1  0  0  0  0  0  0  0  0  0
    4.8285    1.9203   -0.5459 N   0  0  0  0  0  0  0  0  0  0  0  0
    4.7544    2.9493   -1.4898 C   0  0  0  0  0  0  0  0  0  0  0  0
    3.9197    3.9988   -1.0864 O   0  0  0  0  0  0  0  0  0  0  0  0
    6.1318    3.5709   -1.6772 C   0  0  0  0  0  0  0  0  0  0  0  0
    6.6532    4.1450   -0.3863 C   0  0  0  0  0  0  0  0  0  0  0  0
    7.9996    3.5497   -0.0900 C   0  0  0  0  0  0  0  0  0  0  0  0
    8.9674    3.6759   -1.2384 C   0  0  0  0  0  0  0  0  0  0  0  0
    8.3664    3.2862   -2.5583 C   0  0  0  0  0  0  0  0  0  0  0  0
    7.0679    2.5368   -2.2423 C   0  0  0  0  0  0  0  0  0  0  0  0
    4.7285   -0.3859    0.1030 C   0  0  0  0  0  0  0  0  0  0  0  0
    4.1282   -0.1298    1.4414 C   0  0  0  0  0  0  0  0  0  0  0  0
    5.1471   -0.2261    2.5733 C   0  0  0  0  0  0  0  0  0  0  0  0
    6.0335   -1.4331    2.4388 C   0  0  0  0  0  0  0  0  0  0  0  0
    6.6888   -1.5227    1.0948 C   0  0  0  0  0  0  0  0  0  0  0  0
    6.2629   -0.3279    0.2590 C   0  0  0  0  0  0  0  0  0  0  0  0
   -0.8483   -0.4978   -0.2745 C   0  0  0  0  0  0  0  0  0  0  0  0
    0.0001   -3.2084   -2.2344 C   0  0  0  0  0  0  0  0  0  0  0  0
   -1.4088   -2.4125    1.2446 C   0  0  0  0  0  0  0  0  0  0  0  0
   -2.3905   -3.0124    2.1878 C   0  0  0  0  0  0  0  0  0  0  0  0
   -0.0991   -2.4795    2.0711 C   0  0  0  0  0  0  0  0  0  0  0  0
   -1.2983   -0.3195    1.9727 O   0  0  0  0  0  0  0  0  0  0  0  0
   -1.7392   -1.0178    0.7921 C   0  0  1  0  0  0  0  0  0  0  0  0
   -3.1909   -0.5939    0.7241 C   0  0  1  0  0  0  0  0  0  0  0  0
   -3.0601    0.8148    0.7282 O   0  0  0  0  0  0  0  0  0  0  0  0
   -3.1291    1.5750    1.7720 C   0  0  0  0  0  0  0  0  0  0  0  0
   -4.2647    2.4486    1.9292 O   0  0  0  0  0  0  0  0  0  0  0  0
   -2.0132    2.5828    1.8211 C   0  0  0  0  0  0  0  0  0  0  0  0
   -2.1169    3.4531    3.0702 C   0  0  0  0  0  0  0  0  0  0  0  0
   -2.7915    4.7626    2.8525 C   0  0  0  0  0  0  0  0  0  0  0  0
   -1.9289    5.6647    1.9941 C   0  0  0  0  0  0  0  0  0  0  0  0
   -1.3742    4.8027    0.8768 C   0  0  0  0  0  0  0  0  0  0  0  0
   -2.2687    3.5879    0.6678 C   0  0  0  0  0  0  0  0  0  0  0  0
   -4.0326   -0.9688   -0.4092 C   0  0  2  0  0  0  0  0  0  0  0  0
   -5.1808    0.0234   -0.5231 C   0  0  2  0  0  0  0  0  0  0  0  0
   -4.8429    1.0449   -1.3433 O   0  0  0  0  0  0  0  0  0  0  0  0
   -5.5899    2.0479   -1.7274 C   0  0  0  0  0  0  0  0  0  0  0  0
   -6.0151    1.9754   -3.0889 O   0  0  0  0  0  0  0  0  0  0  0  0
   -4.9185    3.3795   -1.6305 C   0  0  0  0  0  0  0  0  0  0  0  0
   -5.9984    0.1853    0.7027 C   0  0  0  0  0  0  0  0  0  0  0  0
   -6.9151   -0.7935    0.3062 O   0  0  0  0  0  0  0  0  0  0  0  0
   -6.4974   -0.5117   -0.9881 C   0  0  2  0  0  0  0  0  0  0  0  0
   -6.5251   -1.6400   -1.8993 C   0  0  0  0  0  0  0  0  0  0  0  0
   -5.2108   -2.2629   -2.0882 C   0  0  2  0  0  0  0  0  0  0  0  0
   -5.5412   -3.6129   -2.3950 O   0  0  0  0  0  0  0  0  0  0  0  0
   -4.3601   -2.3776   -0.7735 C   0  0  2  0  0  0  0  0  0  0  0  0
   -5.2565   -3.1847    0.0521 C   0  0  0  0  0  0  0  0  0  0  0  0
   -3.1575   -3.0688   -1.3771 C   0  0  0  0  0  0  0  0  0  0  0  0
   -3.4994   -3.8301   -2.5447 O   0  0  0  0  0  0  0  0  0  0  0  0
   -2.2626   -3.9053   -0.6313 C   0  0  2  0  0  0  0  0  0  0  0  0
   -2.8131   -4.8612    0.1885 O   0  0  0  0  0  0  0  0  0  0  0  0
   -2.5798   -6.1677   -0.1487 C   0  0  0  0  0  0  0  0  0  0  0  0
   -3.7694   -6.8418   -0.3998 O   0  0  0  0  0  0  0  0  0  0  0  0
   -1.8009   -6.9309    0.8968 C   0  0  0  0  0  0  0  0  0  0  0  0
   -1.0806   -3.3214    0.0623 C   0  0  1  0  0  0  0  0  0  0  0  0
    0.0109   -2.8047   -0.8057 C   0  0  0  0  0  0  0  0  0  0  0  0
    0.3332   -1.3250   -0.5791 C   0  0  1  0  0  0  0  0  0  0  0  0
    1.0095   -0.8187   -1.6882 O   0  0  0  0  0  0  0  0  0  0  0  0
    2.3954   -0.7105   -1.4266 C   0  0  0  0  0  0  0  0  0  0  0  0
    3.1111   -1.2762   -2.4432 O   0  0  0  0  0  0  0  0  0  0  0  0
    2.8648    0.6924   -1.1866 C   0  0  2  0  0  0  0  0  0  0  0  0
    2.5383    1.5336   -2.2111 O   0  0  0  0  0  0  0  0  0  0  0  0
    4.3753    0.6340   -0.9456 C   0  0  1  0  0  0  0  0  0  0  0  0
    4.8285    1.9203   -0.5459 N   0  0  0  0  0  0  0  0  0  0  0  0
    4.7544    2.9493   -1.4898 C   0  0  0  0  0  0  0  0  0  0  0  0
    3.9197    3.9988   -1.0864 O   0  0  0  0  0  0  0  0  0  0  0  0
    6.1318    3.5709   -1.6772 C   0  0  0  0  0  0  0  0  0  0  0  0
    6.6532    4.1450   -0.3863 C   0  0  0  0  0  0  0  0  0  0  0  0
    7.9996    3.5497   -0.0900 C   0  0  0  0  0  0  0  0  0  0  0  0
    8.9674    3.6759   -1.2384 C   0  0  0  0  0  0  0  0  0  0  0  0
    8.3664    3.2862   -2.5583 C   0  0  0  0  0  0  0  0  0  0  0  0
    7.0679    2.5368   -2.2423 C   0  0  0  0  0  0  0  0  0  0  0  0
    4.7285   -0.3859    0.1030 C   0  0  0  0  0  0  0  0  0  0  0  0
    4.1282   -0.1298    1.4414 C   0  0  0  0  0  0  0  0  0  0  0  0
    5.1471   -0.2261    2.5733 C   0  0  0  0  0  0  0  0  0  0  0  0
    6.0335   -1.4331    2.4388 C   0  0  0  0  0  0  0  0  0  0  0  0
    6.6888   -1.5227    1.0948 C   0  0  0  0  0  0  0  0  0  0  0  0
    6.2629   -0.3279    0.2590 C   0  0  0  0  0  0  0  0  0  0  0  0
   -0.8483   -0.4978   -0.2745 C   0  0  0  0  0  0  0  0  0  0  0  0
    0.0001   -3.2084   -2.2344 C   0  0  0  0  0  0  0  0  0  0  0  0
   -1.4088   -2.4125    1.2446 C   0  0  0  0  0  0  0  0  0  0  0  0
   -2.3905   -3.0124    2.1878 C   0  0  0  0  0  0  0  0  0  0  0  0
   -0.0991   -2.4795    2.0711 C   0  0  0  0  0  0  0  0  0  0  0  0
   -0.4450    0.0982    1.8460 H   0  0  0  0  0  0  0  0  0  0  0  0
   -3.5638   -0.8149    1.7592 H   0  0  0  0  0  0  0  0  0  0  0  0
   -3.1754    1.1331    2.7969 H   0  0  0  0  0  0  0  0  0  0  0  0
   -4.7084    2.6493    1.1162 H   0  0  0  0  0  0  0  0  0  0  0  0
   -1.0063    2.2419    1.6445 H   0  0  0  0  0  0  0  0  0  0  0  0
   -2.5403    2.8970    3.9203 H   0  0  0  0  0  0  0  0  0  0  0  0
   -1.0481    3.6962    3.3513 H   0  0  0  0  0  0  0  0  0  0  0  0
   -3.7943    4.7394    2.4336 H   0  0  0  0  0  0  0  0  0  0  0  0
   -2.8983    5.2392    3.8624 H   0  0  0  0  0  0  0  0  0  0  0  0
   -2.4861    6.5332    1.6040 H   0  0  0  0  0  0  0  0  0  0  0  0
   -1.0803    6.0595    2.5749 H   0  0  0  0  0  0  0  0  0  0  0  0
   -0.3627    4.4537    1.0965 H   0  0  0  0  0  0  0  0  0  0  0  0
   -1.4109    5.3882   -0.0487 H   0  0  0  0  0  0  0  0  0  0  0  0
   -1.9609    3.0960   -0.2573 H   0  0  0  0  0  0  0  0  0  0  0  0
   -3.3070    3.9306    0.6597 H   0  0  0  0  0  0  0  0  0  0  0  0
   -3.3897   -0.6934   -1.3362 H   0  0  0  0  0  0  0  0  0  0  0  0
   -6.5576    2.0887   -1.1926 H   0  0  0  0  0  0  0  0  0  0  0  0
   -6.8995    2.3799   -3.2074 H   0  0  0  0  0  0  0  0  0  0  0  0
   -3.8246    3.3285   -1.7169 H   0  0  0  0  0  0  0  0  0  0  0  0
   -5.2193    3.9785   -0.7471 H   0  0  0  0  0  0  0  0  0  0  0  0
   -5.2290    4.0542   -2.4991 H   0  0  0  0  0  0  0  0  0  0  0  0
   -6.5162    1.1853    0.6989 H   0  0  0  0  0  0  0  0  0  0  0  0
   -5.5599    0.0580    1.6865 H   0  0  0  0  0  0  0  0  0  0  0  0
   -7.1555    0.3030   -1.3647 H   0  0  0  0  0  0  0  0  0  0  0  0
   -6.8030   -1.2935   -2.9586 H   0  0  0  0  0  0  0  0  0  0  0  0
   -7.3684   -2.3442   -1.7040 H   0  0  0  0  0  0  0  0  0  0  0  0
   -4.6077   -1.7839   -2.8445 H   0  0  0  0  0  0  0  0  0  0  0  0
   -6.4483   -3.7320   -2.7043 H   0  0  0  0  0  0  0  0  0  0  0  0
   -5.4451   -2.8797    1.0882 H   0  0  0  0  0  0  0  0  0  0  0  0
   -4.9135   -4.2639   -0.0041 H   0  0  0  0  0  0  0  0  0  0  0  0
   -6.3026   -3.3508   -0.3653 H   0  0  0  0  0  0  0  0  0  0  0  0
   -2.6797   -2.1993   -1.9134 H   0  0  0  0  0  0  0  0  0  0  0  0
   -2.6524   -4.1659   -2.8772 H   0  0  0  0  0  0  0  0  0  0  0  0
   -1.7115   -4.5706   -1.4032 H   0  0  0  0  0  0  0  0  0  0  0  0
   -1.9715   -6.1813   -1.0919 H   0  0  0  0  0  0  0  0  0  0  0  0
   -4.2276   -6.5205   -1.2151 H   0  0  0  0  0  0  0  0  0  0  0  0
   -0.9982   -7.5372    0.3938 H   0  0  0  0  0  0  0  0  0  0  0  0
   -1.2930   -6.2903    1.6340 H   0  0  0  0  0  0  0  0  0  0  0  0
   -2.4795   -7.6372    1.4127 H   0  0  0  0  0  0  0  0  0  0  0  0
   -0.6414   -4.2322    0.5953 H   0  0  0  0  0  0  0  0  0  0  0  0
    1.0000   -3.2914   -0.4656 H   0  0  0  0  0  0  0  0  0  0  0  0
    1.0886   -1.2475    0.2430 H   0  0  0  0  0  0  0  0  0  0  0  0
    2.5748   -1.2517   -0.4366 H   0  0  0  0  0  0  0  0  0  0  0  0
    3.0671   -0.7867   -3.2854 H   0  0  0  0  0  0  0  0  0  0  0  0
    2.4482    1.1277   -0.2362 H   0  0  0  0  0  0  0  0  0  0  0  0
    1.5932    1.5266   -2.4346 H   0  0  0  0  0  0  0  0  0  0  0  0
    4.8809    0.2963   -1.9005 H   0  0  0  0  0  0  0  0  0  0  0  0
    4.6677    2.1918    0.4373 H   0  0  0  0  0  0  0  0  0  0  0  0
    4.4045    2.6143   -2.5074 H   0  0  0  0  0  0  0  0  0  0  0  0
    4.1957    4.7752   -1.6664 H   0  0  0  0  0  0  0  0  0  0  0  0
    6.0935    4.4013   -2.4194 H   0  0  0  0  0  0  0  0  0  0  0  0
    6.7052    5.2577   -0.4041 H   0  0  0  0  0  0  0  0  0  0  0  0
    5.9905    3.8733    0.4759 H   0  0  0  0  0  0  0  0  0  0  0  0
    7.8848    2.5098    0.2325 H   0  0  0  0  0  0  0  0  0  0  0  0
    8.4264    4.1487    0.7647 H   0  0  0  0  0  0  0  0  0  0  0  0
    9.4270    4.7024   -1.2552 H   0  0  0  0  0  0  0  0  0  0  0  0
    9.8132    2.9663   -1.0334 H   0  0  0  0  0  0  0  0  0  0  0  0
    8.0574    4.2024   -3.1188 H   0  0  0  0  0  0  0  0  0  0  0  0
    9.0061    2.6146   -3.1480 H   0  0  0  0  0  0  0  0  0  0  0  0
    7.2722    1.7207   -1.5282 H   0  0  0  0  0  0  0  0  0  0  0  0
    6.6523    2.1673   -3.1954 H   0  0  0  0  0  0  0  0  0  0  0  0
    4.4554   -1.4295   -0.2022 H   0  0  0  0  0  0  0  0  0  0  0  0
    3.3294   -0.8720    1.7365 H   0  0  0  0  0  0  0  0  0  0  0  0
    3.6353    0.8609    1.5491 H   0  0  0  0  0  0  0  0  0  0  0  0
    5.7374    0.6970    2.7016 H   0  0  0  0  0  0  0  0  0  0  0  0
    4.5871   -0.3739    3.5429 H   0  0  0  0  0  0  0  0  0  0  0  0
    5.4618   -2.3625    2.6554 H   0  0  0  0  0  0  0  0  0  0  0  0
    6.8309   -1.3448    3.2044 H   0  0  0  0  0  0  0  0  0  0  0  0
    6.3272   -2.4455    0.5745 H   0  0  0  0  0  0  0  0  0  0  0  0
    7.7840   -1.5390    1.1186 H   0  0  0  0  0  0  0  0  0  0  0  0
    6.4812    0.5902    0.8139 H   0  0  0  0  0  0  0  0  0  0  0  0
    6.6723   -0.3996   -0.7559 H   0  0  0  0  0  0  0  0  0  0  0  0
   -0.4532    0.5375   -0.0306 H   0  0  0  0  0  0  0  0  0  0  0  0
   -1.3648   -0.3166   -1.2495 H   0  0  0  0  0  0  0  0  0  0  0  0
   -0.6898   -2.7399   -2.9140 H   0  0  0  0  0  0  0  0  0  0  0  0
    0.0481   -4.3230   -2.2798 H   0  0  0  0  0  0  0  0  0  0  0  0
    1.0183   -2.9234   -2.6614 H   0  0  0  0  0  0  0  0  0  0  0  0
   -2.0921   -2.6634    3.2425 H   0  0  0  0  0  0  0  0  0  0  0  0
   -3.4220   -2.7968    2.1181 H   0  0  0  0  0  0  0  0  0  0  0  0
   -2.1594   -4.1121    2.2540 H   0  0  0  0  0  0  0  0  0  0  0  0
    0.2759   -1.5373    2.4126 H   0  0  0  0  0  0  0  0  0  0  0  0
   -0.2669   -3.0632    3.0417 H   0  0  0  0  0  0  0  0  0  0  0  0
    0.6906   -3.0634    1.5951 H   0  0  0  0  0  0  0  0  0  0  0  0
   -0.4450    0.0982    1.8460 H   0  0  0  0  0  0  0  0  0  0  0  0
   -3.5638   -0.8149    1.7592 H   0  0  0  0  0  0  0  0  0  0  0  0
   -3.1754    1.1331    2.7969 H   0  0  0  0  0  0  0  0  0  0  0  0
   -4.7084    2.6493    1.1162 H   0  0  0  0  0  0  0  0  0  0  0  0
   -1.0063    2.2419    1.6445 H   0  0  0  0  0  0  0  0  0  0  0  0
   -2.5403    2.8970    3.9203 H   0  0  0  0  0  0  0  0  0  0  0  0
   -1.0481    3.6962    3.3513 H   0  0  0  0  0  0  0  0  0  0  0  0
   -3.7943    4.7394    2.4336 H   0  0  0  0  0  0  0  0  0  0  0  0
   -2.8983    5.2392    3.8624 H   0  0  0  0  0  0  0  0  0  0  0  0
   -2.4861    6.5332    1.6040 H   0  0  0  0  0  0  0  0  0  0  0  0
   -1.0803    6.0595    2.5749 H   0  0  0  0  0  0  0  0  0  0  0  0
   -0.3627    4.4537    1.0965 H   0  0  0  0  0  0  0  0  0  0  0  0
   -1.4109    5.3882   -0.0487 H   0  0  0  0  0  0  0  0  0  0  0  0
   -1.9609    3.0960   -0.2573 H   0  0  0  0  0  0  0  0  0  0  0  0
   -3.3070    3.9306    0.6597 H   0  0  0  0  0  0  0  0  0  0  0  0
   -3.3897   -0.6934   -1.3362 H   0  0  0  0  0  0  0  0  0  0  0  0
   -6.5576    2.0887   -1.1926 H   0  0  0  0  0  0  0  0  0  0  0  0
   -6.8995    2.3799   -3.2074 H   0  0  0  0  0  0  0  0  0  0  0  0
   -3.8246    3.3285   -1.7169 H   0  0  0  0  0  0  0  0  0  0  0  0
   -5.2193    3.9785   -0.7471 H   0  0  0  0  0  0  0  0  0  0  0  0
   -5.2290    4.0542   -2.4991 H   0  0  0  0  0  0  0  0  0  0  0  0
   -6.5162    1.1853    0.6989 H   0  0  0  0  0  0  0  0  0  0  0  0
   -5.5599    0.0580    1.6865 H   0  0  0  0  0  0  0  0  0  0  0  0
   -7.1555    0.3030   -1.3647 H   0  0  0  0  0  0  0  0  0  0  0  0
   -6.8030   -1.2935   -2.9586 H   0  0  0  0  0  0  0  0  0  0  0  0
   -7.3684   -2.3442   -1.7040 H   0  0  0  0  0  0  0  0  0  0  0  0
   -4.6077   -1.7839   -2.8445 H   0  0  0  0  0  0  0  0  0  0  0  0
   -6.4483   -3.7320   -2.7043 H   0  0  0  0  0  0  0  0  0  0  0  0
   -5.4451   -2.8797    1.0882 H   0  0  0  0  0  0  0  0  0  0  0  0
   -4.9135   -4.2639   -0.0041 H   0  0  0  0  0  0  0  0  0  0  0  0
   -6.3026   -3.3508   -0.3653 H   0  0  0  0  0  0  0  0  0  0  0  0
   -2.6797   -2.1993   -1.9134 H   0  0  0  0  0  0  0  0  0  0  0  0
   -2.6524   -4.1659   -2.8772 H   0  0  0  0  0  0  0  0  0  0  0  0
   -1.7115   -4.5706   -1.4032 H   0  0  0  0  0  0  0  0  0  0  0  0
   -1.9715   -6.1813   -1.0919 H   0  0  0  0  0  0  0  0  0  0  0  0
   -4.2276   -6.5205   -1.2151 H   0  0  0  0  0  0  0  0  0  0  0  0
   -0.9982   -7.5372    0.3938 H   0  0  0  0  0  0  0  0  0  0  0  0
   -1.2930   -6.2903    1.6340 H   0  0  0  0  0  0  0  0  0  0  0  0
   -2.4795   -7.6372    1.4127 H   0  0  0  0  0  0  0  0  0  0  0  0
   -0.6414   -4.2322    0.5953 H   0  0  0  0  0  0  0  0  0  0  0  0
    1.0000   -3.2914   -0.4656 H   0  0  0  0  0  0  0  0  0  0  0  0
    1.0886   -1.2475    0.2430 H   0  0  0  0  0  0  0  0  0  0  0  0
    2.5748   -1.2517   -0.4366 H   0  0  0  0  0  0  0  0  0  0  0  0
    3.0671   -0.7867   -3.2854 H   0  0  0  0  0  0  0  0  0  0  0  0
    2.4482    1.1277   -0.2362 H   0  0  0  0  0  0  0  0  0  0  0  0
    1.5932    1.5266   -2.4346 H   0  0  0  0  0  0  0  0  0  0  0  0
    4.8809    0.2963   -1.9005 H   0  0  0  0  0  0  0  0  0  0  0  0
    4.6677    2.1918    0.4373 H   0  0  0  0  0  0  0  0  0  0  0  0
    4.4045    2.6143   -2.5074 H   0  0  0  0  0  0  0  0  0  0  0  0
    4.1957    4.7752   -1.6664 H   0  0  0  0  0  0  0  0  0  0  0  0
    6.0935    4.4013   -2.4194 H   0  0  0  0  0  0  0  0  0  0  0  0
    6.7052    5.2577   -0.4041 H   0  0  0  0  0  0  0  0  0  0  0  0
    5.9905    3.8733    0.4759 H   0  0  0  0  0  0  0  0  0  0  0  0
    7.8848    2.5098    0.2325 H   0  0  0  0  0  0  0  0  0  0  0  0
    8.4264    4.1487    0.7647 H   0  0  0  0  0  0  0  0  0  0  0  0
    9.4270    4.7024   -1.2552 H   0  0  0  0  0  0  0  0  0  0  0  0
    9.8132    2.9663   -1.0334 H   0  0  0  0  0  0  0  0  0  0  0  0
    8.0574    4.2024   -3.1188 H   0  0  0  0  0  0  0  0  0  0  0  0
    9.0061    2.6146   -3.1480 H   0  0  0  0  0  0  0  0  0  0  0  0
    7.2722    1.7207   -1.5282 H   0  0  0  0  0  0  0  0  0  0  0  0
    6.6523    2.1673   -3.1954 H   0  0  0  0  0  0  0  0  0  0  0  0
    4.4554   -1.4295   -0.2022 H   0  0  0  0  0  0  0  0  0  0  0  0
    3.3294   -0.8720    1.7365 H   0  0  0  0  0  0  0  0  0  0  0  0
    3.6353    0.8609    1.5491 H   0  0  0  0  0  0  0  0  0  0  0  0
    5.7374    0.6970    2.7016 H   0  0  0  0  0  0  0  0  0  0  0  0
    4.5871   -0.3739    3.5429 H   0  0  0  0  0  0  0  0  0  0  0  0
    5.4618   -2.3625    2.6554 H   0  0  0  0  0  0  0  0  0  0  0  0
    6.8309   -1.3448    3.2044 H   0  0  0  0  0  0  0  0  0  0  0  0
    6.3272   -2.4455    0.5745 H   0  0  0  0  0  0  0  0  0  0  0  0
    7.7840   -1.5390    1.1186 H   0  0  0  0  0  0  0  0  0  0  0  0
    6.4812    0.5902    0.8139 H   0  0  0  0  0  0  0  0  0  0  0  0
    6.6723   -0.3996   -0.7559 H   0  0  0  0  0  0  0  0  0  0  0  0
   -0.4532    0.5375   -0.0306 H   0  0  0  0  0  0  0  0  0  0  0  0
   -1.3648   -0.3166   -1.2495 H   0  0  0  0  0  0  0  0  0  0  0  0
   -0.6898   -2.7399   -2.9140 H   0  0  0  0  0  0  0  0  0  0  0  0
    0.0481   -4.3230   -2.2798 H   0  0  0  0  0  0  0  0  0  0  0  0
    1.0183   -2.9234   -2.6614 H   0  0  0  0  0  0  0  0  0  0  0  0
   -2.0921   -2.6634    3.2425 H   0  0  0  0  0  0  0  0  0  0  0  0
   -3.4220   -2.7968    2.1181 H   0  0  0  0  0  0  0  0  0  0  0  0
   -2.1594   -4.1121    2.2540 H   0  0  0  0  0  0  0  0  0  0  0  0
    0.2759   -1.5373    2.4126 H   0  0  0  0  0  0  0  0  0  0  0  0
   -0.2669   -3.0632    3.0417 H   0  0  0  0  0  0  0  0  0  0  0  0
    0.6906   -3.0634    1.5951 H   0  0  0  0  0  0  0  0  0  0  0  0
  2  1  1  1
  2  3  1  0
  3  4  1  0
  4  5  1  0
  5  6  1  0
  5  7  1  0
  7  8  1  0
  8  9  1  0
  9 10  1  0
 10 11  1  0
  7 12  1  0
 11 12  1  0
  3 13  1  0
 13 14  1  0
 14 15  1  6
 15 16  1  0
 16 17  1  0
 16 18  1  0
 14 19  1  0
 19 20  1  0
 14 21  1  0
 20 21  1  0
 21 22  1  0
 22 23  1  0
 23 24  1  0
 13 25  1  0
 23 25  1  0
 25 26  1  1
 25 27  1  0
 27 28  1  0
 27 29  1  0
 29 30  1  0
 30 31  1  0
 31 32  1  0
 31 33  1  0
 29 34  1  0
 34 35  1  0
 35 36  1  0
 36 37  1  0
 37 38  1  0
 38 39  1  0
 38 40  1  0
 40 41  1  0
 40 42  1  0
 42 43  1  0
 43 44  1  0
 44 45  1  0
 44 46  1  0
 46 47  1  0
 47 48  1  0
 48 49  1  0
 49 50  1  0
 46 51  1  0
 50 51  1  0
 42 52  1  0
 52 53  1  0
 53 54  1  0
 54 55  1  0
 55 56  1  0
 52 57  1  0
 56 57  1  0
  2 58  1  0
 36 58  1  0
 35 59  1  0
  2 60  1  0
 34 60  1  0
 60 61  1  0
 60 62  1  0
 64 63  1  1
 64 65  1  0
 65 66  1  0
 66 67  1  0
 67 68  1  0
 67 69  1  0
 69 70  1  0
 70 71  1  0
 71 72  1  0
 72 73  1  0
 69 74  1  0
 73 74  1  0
 65 75  1  0
 75 76  1  0
 76 77  1  6
 77 78  1  0
 78 79  1  0
 78 80  1  0
 76 81  1  0
 81 82  1  0
 76 83  1  0
 82 83  1  0
 83 84  1  0
 84 85  1  0
 85 86  1  0
 75 87  1  0
 85 87  1  0
 87 88  1  1
 87 89  1  0
 89 90  1  0
 89 91  1  0
 91 92  1  0
 92 93  1  0
 93 94  1  0
 93 95  1  0
 91 96  1  0
 96 97  1  0
 97 98  1  0
 98 99  1  0
 99100  1  0
100101  1  0
100102  1  0
102103  1  0
102104  1  0
104105  1  0
105106  1  0
106107  1  0
106108  1  0
108109  1  0
109110  1  0
110111  1  0
111112  1  0
108113  1  0
112113  1  0
104114  1  0
114115  1  0
115116  1  0
116117  1  0
117118  1  0
114119  1  0
118119  1  0
 64120  1  0
 98120  1  0
 97121  1  0
 64122  1  0
 96122  1  0
122123  1  0
122124  1  0
  1125  1  0
  3126  1  1
  5127  1  0
  6128  1  0
  7129  1  0
  8130  1  0
  8131  1  0
  9132  1  0
  9133  1  0
 10134  1  0
 10135  1  0
 11136  1  0
 11137  1  0
 12138  1  0
 12139  1  0
 13140  1  6
 16141  1  0
 17142  1  0
 18143  1  0
 18144  1  0
 18145  1  0
 19146  1  0
 19147  1  0
 21148  1  6
 22149  1  0
 22150  1  0
 23151  1  6
 24152  1  0
 26153  1  0
 26154  1  0
 26155  1  0
 27156  1  0
 28157  1  0
 29158  1  6
 31159  1  0
 32160  1  0
 33161  1  0
 33162  1  0
 33163  1  0
 34164  1  1
 35165  1  0
 36166  1  1
 38167  1  0
 39168  1  0
 40169  1  1
 41170  1  0
 42171  1  6
 43172  1  0
 44173  1  0
 45174  1  0
 46175  1  0
 47176  1  0
 47177  1  0
 48178  1  0
 48179  1  0
 49180  1  0
 49181  1  0
 50182  1  0
 50183  1  0
 51184  1  0
 51185  1  0
 52186  1  0
 53187  1  0
 53188  1  0
 54189  1  0
 54190  1  0
 55191  1  0
 55192  1  0
 56193  1  0
 56194  1  0
 57195  1  0
 57196  1  0
 58197  1  0
 58198  1  0
 59199  1  0
 59200  1  0
 59201  1  0
 61202  1  0
 61203  1  0
 61204  1  0
 62205  1  0
 62206  1  0
 62207  1  0
 63208  1  0
 65209  1  1
 67210  1  0
 68211  1  0
 69212  1  0
 70213  1  0
 70214  1  0
 71215  1  0
 71216  1  0
 72217  1  0
 72218  1  0
 73219  1  0
 73220  1  0
 74221  1  0
 74222  1  0
 75223  1  6
 78224  1  0
 79225  1  0
 80226  1  0
 80227  1  0
 80228  1  0
 81229  1  0
 81230  1  0
 83231  1  6
 84232  1  0
 84233  1  0
 85234  1  6
 86235  1  0
 88236  1  0
 88237  1  0
 88238  1  0
 89239  1  0
 90240  1  0
 91241  1  6
 93242  1  0
 94243  1  0
 95244  1  0
 95245  1  0
 95246  1  0
 96247  1  1
 97248  1  0
 98249  1  1
100250  1  0
101251  1  0
102252  1  1
103253  1  0
104254  1  6
105255  1  0
106256  1  0
107257  1  0
108258  1  0
109259  1  0
109260  1  0
110261  1  0
110262  1  0
111263  1  0
111264  1  0
112265  1  0
112266  1  0
113267  1  0
113268  1  0
114269  1  0
115270  1  0
115271  1  0
116272  1  0
116273  1  0
117274  1  0
117275  1  0
118276  1  0
118277  1  0
119278  1  0
119279  1  0
120280  1  0
120281  1  0
121282  1  0
121283  1  0
121284  1  0
123285  1  0
123286  1  0
123287  1  0
124288  1  0
124289  1  0
124290  1  0
M  END
>  <PDBID>  (1) 
5M50

>  <PDB ID>  (1) 
5M50

>  <Generic Name>  (1) 
Paclitaxel

>  <Brand Name>  (1) 
Abraxane#Abraxane for Injectable Suspension#Aj-paclitaxel#Apo-paclitaxel Injectable#Paclitaxel#Paclitaxel Injection#Paclitaxel Injection USP#Paclitaxel Injection, USP#Paclitaxel Paclitaxel#Paclitaxel for Injection#Paclitaxel for Injection USP#Paxene#Taxol#Teva-paclitaxel for Injection#Onxol#Paxceed

>  <DrugBank ID>  (1) 
DB01229

>  <ATC Codes>  (1) 
L01CD01

>  <Ligand ID>  (1) 
TA1

>  <Target Name>  (1) 
Tubulin beta-1 chain

>  <UniProt ID>  (1) 
Q9H4B7

>  <PDB ID.1>  (1) 
5M50

>  <Seq. Identity>  (1) 
78%

$$$$
