PDB_DB05239_03
     RDKit          3D

 65 68  0  0  0  0  0  0  0  0999 V2000
   -1.1528   -1.0114    1.3560 O   0  0  0  0  0  0  0  0  0  0  0  0
   -0.2247   -1.2774    0.3116 C   0  0  0  0  0  0  0  0  0  0  0  0
   -0.9803   -1.7837   -0.8695 C   0  0  0  0  0  0  0  0  0  0  0  0
   -0.1950   -2.1833   -2.0575 C   0  0  0  0  0  0  0  0  0  0  0  0
   -0.9934   -1.9493   -3.3296 C   0  0  0  0  0  0  0  0  0  0  0  0
   -1.0674   -0.4341   -3.4749 C   0  0  2  0  0  0  0  0  0  0  0  0
    0.1735    0.0292   -3.7923 F   0  0  0  0  0  0  0  0  0  0  0  0
   -1.6649    0.2109   -2.2295 C   0  0  1  0  0  0  0  0  0  0  0  0
   -2.7499    0.9386   -2.7239 F   0  0  0  0  0  0  0  0  0  0  0  0
   -2.1187   -0.8024   -1.2539 C   0  0  2  0  0  0  0  0  0  0  0  0
   -2.7017   -0.3923   -0.0518 N   0  0  0  0  0  0  0  0  0  0  0  0
   -3.4237    0.8234    0.0193 C   0  0  0  0  0  0  0  0  0  0  0  0
   -3.2531    1.3864    1.4350 C   0  0  0  0  0  0  0  0  0  0  0  0
   -3.9155    0.5171    2.4670 C   0  0  0  0  0  0  0  0  0  0  0  0
   -5.4191    0.7286    2.2406 C   0  0  1  0  0  0  0  0  0  0  0  0
   -5.8638    2.8054    2.3380 I   0  0  0  0  0  0  0  0  0  0  0  0
   -4.8946    0.7330   -0.2348 C   0  0  0  0  0  0  0  0  0  0  0  0
   -5.2234   -0.0109   -1.3617 F   0  0  0  0  0  0  0  0  0  0  0  0
   -5.7222    0.2037    0.8796 C   0  0  0  0  0  0  0  0  0  0  0  0
    0.6312   -0.1863    0.1530 N   0  0  0  0  0  0  0  0  0  0  0  0
    1.8066   -0.1816   -0.6250 C   0  0  0  0  0  0  0  0  0  0  0  0
    2.3660    0.8638    0.3561 C   0  0  0  0  0  0  0  0  0  0  0  0
    1.3474    0.2416    1.2985 C   0  0  0  0  0  0  0  0  0  0  0  0
    2.0596    2.1641    0.0145 O   0  0  0  0  0  0  0  0  0  0  0  0
    3.7850    0.6823    0.7495 C   0  0  2  0  0  0  0  0  0  0  0  0
    4.6943    1.0699   -0.3937 C   0  0  0  0  0  0  0  0  0  0  0  0
    6.0824    1.2205    0.2033 C   0  0  0  0  0  0  0  0  0  0  0  0
    6.4947    0.0191    0.9955 C   0  0  0  0  0  0  0  0  0  0  0  0
    5.3964   -0.5689    1.8453 C   0  0  0  0  0  0  0  0  0  0  0  0
    4.1284   -0.6977    1.1128 N   0  0  0  0  0  0  0  0  0  0  0  0
   -0.7000   -0.5414    2.1078 H   0  0  0  0  0  0  0  0  0  0  0  0
    0.3688   -2.1420    0.7011 H   0  0  0  0  0  0  0  0  0  0  0  0
   -1.5390   -2.6996   -0.5096 H   0  0  0  0  0  0  0  0  0  0  0  0
    0.0500   -3.2906   -2.0574 H   0  0  0  0  0  0  0  0  0  0  0  0
    0.7655   -1.6860   -2.2035 H   0  0  0  0  0  0  0  0  0  0  0  0
   -1.9624   -2.4439   -3.3424 H   0  0  0  0  0  0  0  0  0  0  0  0
   -0.3544   -2.3044   -4.1745 H   0  0  0  0  0  0  0  0  0  0  0  0
   -1.7012   -0.2770   -4.3872 H   0  0  0  0  0  0  0  0  0  0  0  0
   -0.9202    0.9282   -1.8748 H   0  0  0  0  0  0  0  0  0  0  0  0
   -2.8697   -1.4623   -1.7937 H   0  0  0  0  0  0  0  0  0  0  0  0
   -3.2056   -1.2074    0.3799 H   0  0  0  0  0  0  0  0  0  0  0  0
   -2.9543    1.5785   -0.6167 H   0  0  0  0  0  0  0  0  0  0  0  0
   -2.1773    1.4780    1.6590 H   0  0  0  0  0  0  0  0  0  0  0  0
   -3.7612    2.3736    1.4917 H   0  0  0  0  0  0  0  0  0  0  0  0
   -3.7579   -0.5690    2.3061 H   0  0  0  0  0  0  0  0  0  0  0  0
   -3.6024    0.8746    3.4540 H   0  0  0  0  0  0  0  0  0  0  0  0
   -6.0203    0.1470    2.9644 H   0  0  0  0  0  0  0  0  0  0  0  0
   -5.2518    1.7828   -0.4490 H   0  0  0  0  0  0  0  0  0  0  0  0
   -6.7882    0.4966    0.6622 H   0  0  0  0  0  0  0  0  0  0  0  0
   -5.7243   -0.9032    0.8157 H   0  0  0  0  0  0  0  0  0  0  0  0
    1.7829    0.3377   -1.6251 H   0  0  0  0  0  0  0  0  0  0  0  0
    2.4354   -1.1019   -0.6207 H   0  0  0  0  0  0  0  0  0  0  0  0
    1.8073   -0.5675    1.9083 H   0  0  0  0  0  0  0  0  0  0  0  0
    0.7967    1.0096    1.9166 H   0  0  0  0  0  0  0  0  0  0  0  0
    2.1708    2.7324    0.8258 H   0  0  0  0  0  0  0  0  0  0  0  0
    4.0471    1.3360    1.6141 H   0  0  0  0  0  0  0  0  0  0  0  0
    4.4240    2.0633   -0.8199 H   0  0  0  0  0  0  0  0  0  0  0  0
    4.7458    0.3046   -1.1871 H   0  0  0  0  0  0  0  0  0  0  0  0
    6.8151    1.3657   -0.6167 H   0  0  0  0  0  0  0  0  0  0  0  0
    6.1213    2.1403    0.8383 H   0  0  0  0  0  0  0  0  0  0  0  0
    6.9987   -0.7409    0.3656 H   0  0  0  0  0  0  0  0  0  0  0  0
    7.2843    0.3655    1.7237 H   0  0  0  0  0  0  0  0  0  0  0  0
    5.1683    0.1790    2.6591 H   0  0  0  0  0  0  0  0  0  0  0  0
    5.7298   -1.5147    2.2698 H   0  0  0  0  0  0  0  0  0  0  0  0
    4.3773   -1.1999    0.2375 H   0  0  0  0  0  0  0  0  0  0  0  0
  1  2  1  0
  2  3  1  0
  3  4  1  0
  4  5  1  0
  5  6  1  0
  6  7  1  0
  6  8  1  0
  8  9  1  0
  3 10  1  0
  8 10  1  0
 10 11  1  0
 11 12  1  0
 12 13  1  0
 13 14  1  0
 14 15  1  0
 15 16  1  0
 12 17  1  0
 17 18  1  0
 15 19  1  0
 17 19  1  0
  2 20  1  0
 20 21  1  0
 21 22  1  0
 20 23  1  0
 22 23  1  0
 22 24  1  0
 22 25  1  0
 25 26  1  0
 26 27  1  0
 27 28  1  0
 28 29  1  0
 25 30  1  0
 29 30  1  0
  1 31  1  0
  2 32  1  0
  3 33  1  0
  4 34  1  0
  4 35  1  0
  5 36  1  0
  5 37  1  0
  6 38  1  6
  8 39  1  1
 10 40  1  6
 11 41  1  0
 12 42  1  0
 13 43  1  0
 13 44  1  0
 14 45  1  0
 14 46  1  0
 15 47  1  1
 17 48  1  0
 19 49  1  0
 19 50  1  0
 21 51  1  0
 21 52  1  0
 23 53  1  0
 23 54  1  0
 24 55  1  0
 25 56  1  1
 26 57  1  0
 26 58  1  0
 27 59  1  0
 27 60  1  0
 28 61  1  0
 28 62  1  0
 29 63  1  0
 29 64  1  0
 30 65  1  0
M  END
>  <PDBID>  (1) 
4LMN

>  <PDB ID>  (1) 
4LMN

>  <Generic Name>  (1) 
Cobimetinib

>  <Brand Name>  (1) 
Cotellic

>  <DrugBank ID>  (1) 
DB05239

>  <ATC Codes>  (1) 
nan

>  <Ligand ID>  (1) 
EUI

>  <Target Name>  (1) 
Dual specificity mitogen-activated protein kinase kinase 1

>  <UniProt ID>  (1) 
Q02750

>  <PDB ID.1>  (1) 
4LMN

>  <Seq. Identity>  (1) 
97%

$$$$
