PDB_DB00203_09
     RDKit          3D

 79 82  0  0  0  0  0  0  0  0999 V2000
   -4.4857    4.3453   -1.7880 C   0  0  0  0  0  0  0  0  0  0  0  0
   -4.0910    2.8833   -1.7833 C   0  0  0  0  0  0  0  0  0  0  0  0
   -5.0764    2.1603   -0.8992 C   0  0  0  0  0  0  0  0  0  0  0  0
   -4.7616    0.6658   -0.8283 C   0  0  0  0  0  0  0  0  0  0  0  0
   -5.8000    0.1155    0.0601 N   0  0  0  0  0  0  0  0  0  0  0  0
   -5.1856    0.0379    1.3399 N   0  0  0  0  0  0  0  0  0  0  0  0
   -6.0080   -0.9184    2.0968 C   0  0  0  0  0  0  0  0  0  0  0  0
   -3.9410   -0.5894    0.9615 C   0  0  0  0  0  0  0  0  0  0  0  0
   -2.8967   -0.6022    2.0068 C   0  0  0  0  0  0  0  0  0  0  0  0
   -3.0898    0.3471    2.9901 O   0  0  0  0  0  0  0  0  0  0  0  0
   -1.6003   -0.4301    1.3275 N   0  0  0  0  0  0  0  0  0  0  0  0
   -1.6723   -1.0716    0.0391 C   0  0  0  0  0  0  0  0  0  0  0  0
   -2.4975   -0.3192   -0.9095 N   0  0  0  0  0  0  0  0  0  0  0  0
   -3.4767    0.3779   -0.1394 C   0  0  0  0  0  0  0  0  0  0  0  0
   -0.3494   -1.4557   -0.5219 C   0  0  0  0  0  0  0  0  0  0  0  0
    0.6000   -0.3293   -0.7370 C   0  0  0  0  0  0  0  0  0  0  0  0
    1.9889   -0.9281   -0.9302 C   0  0  0  0  0  0  0  0  0  0  0  0
    2.4695   -1.4817    0.3956 C   0  0  0  0  0  0  0  0  0  0  0  0
    1.2768   -1.8068    1.2855 C   0  0  0  0  0  0  0  0  0  0  0  0
    0.2488   -2.5117    0.4178 C   0  0  0  0  0  0  0  0  0  0  0  0
    0.8055   -3.5529   -0.2764 O   0  0  0  0  0  0  0  0  0  0  0  0
    0.2313   -4.7589    0.0987 C   0  0  0  0  0  0  0  0  0  0  0  0
    0.4037   -5.0745    1.5635 C   0  0  0  0  0  0  0  0  0  0  0  0
    3.0928    0.1293   -1.6195 S   0  0  0  0  0  0  0  0  0  0  0  0
    2.5125    0.6315   -3.0649 O   0  0  0  0  0  0  0  0  0  0  0  0
    4.2350   -1.2032   -2.3489 O   0  0  0  0  0  0  0  0  0  0  0  0
    4.0691    0.9149   -0.8547 N   0  0  0  0  0  0  0  0  0  0  0  0
    5.5141    0.6815   -0.9868 C   0  0  0  0  0  0  0  0  0  0  0  0
    6.2373    1.9916   -1.2526 C   0  0  0  0  0  0  0  0  0  0  0  0
    6.0799    2.8116   -0.0633 N   0  0  0  0  0  0  0  0  0  0  0  0
    6.7150    2.1327    1.0231 C   0  0  0  0  0  0  0  0  0  0  0  0
    4.6843    3.0747    0.1300 C   0  0  0  0  0  0  0  0  0  0  0  0
    3.8595    1.8092    0.2239 C   0  0  0  0  0  0  0  0  0  0  0  0
   -3.6503    4.9984   -1.4205 H   0  0  0  0  0  0  0  0  0  0  0  0
   -4.8173    4.6658   -2.8124 H   0  0  0  0  0  0  0  0  0  0  0  0
   -5.3508    4.5557   -1.1248 H   0  0  0  0  0  0  0  0  0  0  0  0
   -3.0527    2.8176   -1.4069 H   0  0  0  0  0  0  0  0  0  0  0  0
   -4.1565    2.4920   -2.8053 H   0  0  0  0  0  0  0  0  0  0  0  0
   -6.0723    2.2660   -1.3285 H   0  0  0  0  0  0  0  0  0  0  0  0
   -5.0930    2.5968    0.1167 H   0  0  0  0  0  0  0  0  0  0  0  0
   -4.8956    0.1967   -1.8052 H   0  0  0  0  0  0  0  0  0  0  0  0
   -6.6449    0.6989    0.0757 H   0  0  0  0  0  0  0  0  0  0  0  0
   -5.5151   -1.9147    2.0754 H   0  0  0  0  0  0  0  0  0  0  0  0
   -6.0489   -0.5115    3.1283 H   0  0  0  0  0  0  0  0  0  0  0  0
   -7.0193   -1.0200    1.6542 H   0  0  0  0  0  0  0  0  0  0  0  0
   -4.1962   -1.5788    0.5362 H   0  0  0  0  0  0  0  0  0  0  0  0
   -2.8484   -1.6416    2.4434 H   0  0  0  0  0  0  0  0  0  0  0  0
   -2.2653    0.8180    3.1900 H   0  0  0  0  0  0  0  0  0  0  0  0
   -1.3275    0.5657    1.2871 H   0  0  0  0  0  0  0  0  0  0  0  0
   -2.2366   -2.0363    0.2056 H   0  0  0  0  0  0  0  0  0  0  0  0
   -1.9057    0.3076   -1.5000 H   0  0  0  0  0  0  0  0  0  0  0  0
   -3.0612    1.2589    0.4073 H   0  0  0  0  0  0  0  0  0  0  0  0
   -0.5107   -1.9671   -1.4829 H   0  0  0  0  0  0  0  0  0  0  0  0
    0.6108    0.4220    0.0871 H   0  0  0  0  0  0  0  0  0  0  0  0
    0.3443    0.1822   -1.6871 H   0  0  0  0  0  0  0  0  0  0  0  0
    1.8146   -1.8336   -1.5846 H   0  0  0  0  0  0  0  0  0  0  0  0
    3.1153   -0.8043    0.9511 H   0  0  0  0  0  0  0  0  0  0  0  0
    3.0757   -2.4189    0.2209 H   0  0  0  0  0  0  0  0  0  0  0  0
    1.6006   -2.4577    2.1020 H   0  0  0  0  0  0  0  0  0  0  0  0
    0.8661   -0.8759    1.6832 H   0  0  0  0  0  0  0  0  0  0  0  0
   -0.5225   -2.9135    1.1042 H   0  0  0  0  0  0  0  0  0  0  0  0
   -0.8578   -4.7922   -0.1198 H   0  0  0  0  0  0  0  0  0  0  0  0
    0.6920   -5.5443   -0.5343 H   0  0  0  0  0  0  0  0  0  0  0  0
   -0.3680   -4.6241    2.2015 H   0  0  0  0  0  0  0  0  0  0  0  0
    0.3157   -6.1810    1.6606 H   0  0  0  0  0  0  0  0  0  0  0  0
    1.4478   -4.8442    1.9153 H   0  0  0  0  0  0  0  0  0  0  0  0
    2.7658    1.5541   -3.3292 H   0  0  0  0  0  0  0  0  0  0  0  0
    4.3771   -1.6970   -1.4983 H   0  0  0  0  0  0  0  0  0  0  0  0
    5.8457    0.2528   -0.0356 H   0  0  0  0  0  0  0  0  0  0  0  0
    5.7288    0.0184   -1.8438 H   0  0  0  0  0  0  0  0  0  0  0  0
    5.8397    2.4727   -2.1609 H   0  0  0  0  0  0  0  0  0  0  0  0
    7.3092    1.7276   -1.3833 H   0  0  0  0  0  0  0  0  0  0  0  0
    7.3025    2.8797    1.6263 H   0  0  0  0  0  0  0  0  0  0  0  0
    7.4936    1.4043    0.6565 H   0  0  0  0  0  0  0  0  0  0  0  0
    6.0435    1.6186    1.7138 H   0  0  0  0  0  0  0  0  0  0  0  0
    4.3157    3.6835   -0.6978 H   0  0  0  0  0  0  0  0  0  0  0  0
    4.5766    3.6117    1.1145 H   0  0  0  0  0  0  0  0  0  0  0  0
    4.0509    1.3864    1.2336 H   0  0  0  0  0  0  0  0  0  0  0  0
    2.7922    2.1279    0.2150 H   0  0  0  0  0  0  0  0  0  0  0  0
  1  2  1  0
  2  3  1  0
  3  4  1  0
  4  5  1  0
  5  6  1  0
  6  7  1  0
  6  8  1  0
  8  9  1  0
  9 10  1  0
  9 11  1  0
 11 12  1  0
 12 13  1  0
  4 14  1  0
  8 14  1  0
 13 14  1  0
 12 15  1  0
 15 16  1  0
 16 17  1  0
 17 18  1  0
 18 19  1  0
 15 20  1  0
 19 20  1  0
 20 21  1  0
 21 22  1  0
 22 23  1  0
 17 24  1  0
 24 25  1  0
 24 26  1  0
 24 27  1  0
 27 28  1  0
 28 29  1  0
 29 30  1  0
 30 31  1  0
 30 32  1  0
 27 33  1  0
 32 33  1  0
  1 34  1  0
  1 35  1  0
  1 36  1  0
  2 37  1  0
  2 38  1  0
  3 39  1  0
  3 40  1  0
  4 41  1  0
  5 42  1  0
  7 43  1  0
  7 44  1  0
  7 45  1  0
  8 46  1  0
  9 47  1  0
 10 48  1  0
 11 49  1  0
 12 50  1  0
 13 51  1  0
 14 52  1  0
 15 53  1  0
 16 54  1  0
 16 55  1  0
 17 56  1  0
 18 57  1  0
 18 58  1  0
 19 59  1  0
 19 60  1  0
 20 61  1  0
 22 62  1  0
 22 63  1  0
 23 64  1  0
 23 65  1  0
 23 66  1  0
 25 67  1  0
 26 68  1  0
 28 69  1  0
 28 70  1  0
 29 71  1  0
 29 72  1  0
 31 73  1  0
 31 74  1  0
 31 75  1  0
 32 76  1  0
 32 77  1  0
 33 78  1  0
 33 79  1  0
M  END
>  <PDBID>  (1) 
1UDT

>  <PDB ID>  (1) 
1UDT

>  <Generic Name>  (1) 
Sildenafil

>  <Brand Name>  (1) 
Act Sildenafil#Apo-sildenafil#Apo-sildenafil R#Auro-sildenafil#Dom-sildenafil#Gd-sildenafil#Ipg-sildenafil#Jamp-sildenafil#M-sildenafil#Mar-sildenafil#Mint-sildenafil#Myl-sildenafil#Mylan-sildenafil#PMS-sildenafil#PMS-sildenafil R#Pb-sildenafil#Priva-sildenafil#Ran-sildenafil#Ratio-sildenafil#Ratio-sildenafil R#Revatio#Riva-sildenafil#Sandoz Sildenafil#Sildenafil#Sildenafil Citrate#Sildenafil R#Sildenafil Tablets#Teva-sildenafil#Van-sildenafil#Viagra

>  <DrugBank ID>  (1) 
DB00203

>  <ATC Codes>  (1) 
G04BE03

>  <Ligand ID>  (1) 
VIA

>  <Target Name>  (1) 
cGMP-specific 3',5'-cyclic phosphodiesterase

>  <UniProt ID>  (1) 
O76074

>  <PDB ID.1>  (1) 
1UDT

>  <Seq. Identity>  (1) 
94%

$$$$
