PDB_DB00328_03
     RDKit          3D

236244  0  0  0  0  0  0  0  0999 V2000
   -0.3654   -0.2890   -0.9217 C   0  0  0  0  0  0  0  0  0  0  0  0
   -1.6623    0.5292   -0.8711 C   0  0  0  0  0  0  0  0  0  0  0  0
   -2.9036   -0.2437   -1.0376 C   0  0  0  0  0  0  0  0  0  0  0  0
   -2.9471   -1.5105   -0.2175 C   0  0  0  0  0  0  0  0  0  0  0  0
   -1.8109   -2.3512   -0.7544 C   0  0  0  0  0  0  0  0  0  0  0  0
   -0.5288   -1.6553   -0.3547 C   0  0  0  0  0  0  0  0  0  0  0  0
   -4.7076   -2.3602    1.0101 C   0  0  0  0  0  0  0  0  0  0  0  0
   -1.4693    1.1036    0.5132 C   0  0  1  0  0  0  0  0  0  0  0  0
   -0.1054    1.6352    0.4070 C   0  0  0  0  0  0  0  0  0  0  0  0
    1.8742    0.6246   -0.5608 C   0  0  0  0  0  0  0  0  0  0  0  0
    2.6643   -0.6534   -0.7447 C   0  0  0  0  0  0  0  0  0  0  0  0
    4.0465   -0.2274   -1.2506 C   0  0  0  0  0  0  0  0  0  0  0  0
    5.0462   -1.3446   -1.0953 C   0  0  0  0  0  0  0  0  0  0  0  0
    5.3082   -1.6561    0.3438 C   0  0  0  0  0  0  0  0  0  0  0  0
    4.1417   -1.2524    1.2005 C   0  0  0  0  0  0  0  0  0  0  0  0
    2.8215   -1.4442    0.5132 C   0  0  0  0  0  0  0  0  0  0  0  0
    0.1510    2.8449   -0.3932 C   0  0  0  0  0  0  0  0  0  0  0  0
   -2.5713    1.7441    1.1485 C   0  0  0  0  0  0  0  0  0  0  0  0
   -3.2863    2.9126    0.6332 C   0  0  0  0  0  0  0  0  0  0  0  0
    0.5678    0.4442   -0.0938 N   0  0  0  0  0  0  0  0  0  0  0  0
   -4.1634   -2.1337   -0.2476 O   0  0  0  0  0  0  0  0  0  0  0  0
    2.5996    1.3187    0.4106 O   0  0  0  0  0  0  0  0  0  0  0  0
   -2.4647    4.0236    0.4823 O   0  0  0  0  0  0  0  0  0  0  0  0
   -4.2200    3.3001    1.6352 O   0  0  0  0  0  0  0  0  0  0  0  0
    5.6344   -3.4006    0.4712 Cl  0  0  0  0  0  0  0  0  0  0  0  0
   -0.3654   -0.2890   -0.9217 C   0  0  0  0  0  0  0  0  0  0  0  0
   -1.6623    0.5292   -0.8711 C   0  0  0  0  0  0  0  0  0  0  0  0
   -2.9036   -0.2437   -1.0376 C   0  0  0  0  0  0  0  0  0  0  0  0
   -2.9471   -1.5105   -0.2175 C   0  0  0  0  0  0  0  0  0  0  0  0
   -1.8109   -2.3512   -0.7544 C   0  0  0  0  0  0  0  0  0  0  0  0
   -0.5288   -1.6553   -0.3547 C   0  0  0  0  0  0  0  0  0  0  0  0
   -4.7076   -2.3602    1.0101 C   0  0  0  0  0  0  0  0  0  0  0  0
   -1.4693    1.1036    0.5132 C   0  0  1  0  0  0  0  0  0  0  0  0
   -0.1054    1.6352    0.4070 C   0  0  0  0  0  0  0  0  0  0  0  0
    1.8742    0.6246   -0.5608 C   0  0  0  0  0  0  0  0  0  0  0  0
    2.6643   -0.6534   -0.7447 C   0  0  0  0  0  0  0  0  0  0  0  0
    4.0465   -0.2274   -1.2506 C   0  0  0  0  0  0  0  0  0  0  0  0
    5.0462   -1.3446   -1.0953 C   0  0  0  0  0  0  0  0  0  0  0  0
    5.3082   -1.6561    0.3438 C   0  0  0  0  0  0  0  0  0  0  0  0
    4.1417   -1.2524    1.2005 C   0  0  0  0  0  0  0  0  0  0  0  0
    2.8215   -1.4442    0.5132 C   0  0  0  0  0  0  0  0  0  0  0  0
    0.1510    2.8449   -0.3932 C   0  0  0  0  0  0  0  0  0  0  0  0
   -2.5713    1.7441    1.1485 C   0  0  0  0  0  0  0  0  0  0  0  0
   -3.2863    2.9126    0.6332 C   0  0  0  0  0  0  0  0  0  0  0  0
    0.5678    0.4442   -0.0938 N   0  0  0  0  0  0  0  0  0  0  0  0
   -4.1634   -2.1337   -0.2476 O   0  0  0  0  0  0  0  0  0  0  0  0
    2.5996    1.3187    0.4106 O   0  0  0  0  0  0  0  0  0  0  0  0
   -2.4647    4.0236    0.4823 O   0  0  0  0  0  0  0  0  0  0  0  0
   -4.2200    3.3001    1.6352 O   0  0  0  0  0  0  0  0  0  0  0  0
    5.6344   -3.4006    0.4712 Cl  0  0  0  0  0  0  0  0  0  0  0  0
   -0.5353   -0.6362    0.0630 C   0  0  0  0  0  0  0  0  0  0  0  0
   -1.8723    0.1085   -0.1048 C   0  0  0  0  0  0  0  0  0  0  0  0
   -2.9910   -0.6373    0.5535 C   0  0  0  0  0  0  0  0  0  0  0  0
   -2.9674   -2.0356   -0.0568 C   0  0  0  0  0  0  0  0  0  0  0  0
   -1.9638   -2.1772   -1.1578 C   0  0  0  0  0  0  0  0  0  0  0  0
   -0.5336   -1.8852   -0.7253 C   0  0  0  0  0  0  0  0  0  0  0  0
   -4.8424   -3.4046    0.0219 C   0  0  0  0  0  0  0  0  0  0  0  0
   -1.5023    1.4126    0.5687 C   0  0  0  0  0  0  0  0  0  0  0  0
   -0.1805    1.6745   -0.0834 C   0  0  0  0  0  0  0  0  0  0  0  0
    1.5596    0.1835   -0.9036 C   0  0  0  0  0  0  0  0  0  0  0  0
    2.5292   -0.8642   -0.3267 C   0  0  0  0  0  0  0  0  0  0  0  0
    3.7007   -0.8954   -1.2668 C   0  0  0  0  0  0  0  0  0  0  0  0
    4.9626   -1.4087   -0.6852 C   0  0  0  0  0  0  0  0  0  0  0  0
    5.0878   -1.3347    0.7959 C   0  0  0  0  0  0  0  0  0  0  0  0
    4.3138   -0.1073    1.2595 C   0  0  0  0  0  0  0  0  0  0  0  0
    2.8526   -0.4391    1.0644 C   0  0  0  0  0  0  0  0  0  0  0  0
   -0.2332    2.3356   -1.4173 C   0  0  0  0  0  0  0  0  0  0  0  0
   -2.5859    2.3807    0.3444 C   0  0  0  0  0  0  0  0  0  0  0  0
   -2.3857    3.7405    0.9419 C   0  0  0  0  0  0  0  0  0  0  0  0
    0.4054    0.3489   -0.1494 N   0  0  0  0  0  0  0  0  0  0  0  0
   -4.2142   -2.3364   -0.5717 O   0  0  0  0  0  0  0  0  0  0  0  0
    2.3115    1.3626   -0.9085 O   0  0  0  0  0  0  0  0  0  0  0  0
   -1.2793    4.4057    0.4899 O   0  0  0  0  0  0  0  0  0  0  0  0
   -2.3334    3.6949    2.3334 O   0  0  0  0  0  0  0  0  0  0  0  0
    6.7802   -1.0894    1.3204 Cl  0  0  0  0  0  0  0  0  0  0  0  0
   -0.3654   -0.2890   -0.9217 C   0  0  0  0  0  0  0  0  0  0  0  0
   -1.6623    0.5292   -0.8711 C   0  0  0  0  0  0  0  0  0  0  0  0
   -2.9036   -0.2437   -1.0376 C   0  0  0  0  0  0  0  0  0  0  0  0
   -2.9471   -1.5105   -0.2175 C   0  0  0  0  0  0  0  0  0  0  0  0
   -1.8109   -2.3512   -0.7544 C   0  0  0  0  0  0  0  0  0  0  0  0
   -0.5288   -1.6553   -0.3547 C   0  0  0  0  0  0  0  0  0  0  0  0
   -4.7076   -2.3602    1.0101 C   0  0  0  0  0  0  0  0  0  0  0  0
   -1.4693    1.1036    0.5132 C   0  0  1  0  0  0  0  0  0  0  0  0
   -0.1054    1.6352    0.4070 C   0  0  0  0  0  0  0  0  0  0  0  0
    1.8742    0.6246   -0.5608 C   0  0  0  0  0  0  0  0  0  0  0  0
    2.6643   -0.6534   -0.7447 C   0  0  0  0  0  0  0  0  0  0  0  0
    4.0465   -0.2274   -1.2506 C   0  0  0  0  0  0  0  0  0  0  0  0
    5.0462   -1.3446   -1.0953 C   0  0  0  0  0  0  0  0  0  0  0  0
    5.3082   -1.6561    0.3438 C   0  0  0  0  0  0  0  0  0  0  0  0
    4.1417   -1.2524    1.2005 C   0  0  0  0  0  0  0  0  0  0  0  0
    2.8215   -1.4442    0.5132 C   0  0  0  0  0  0  0  0  0  0  0  0
    0.1510    2.8449   -0.3932 C   0  0  0  0  0  0  0  0  0  0  0  0
   -2.5713    1.7441    1.1485 C   0  0  0  0  0  0  0  0  0  0  0  0
   -3.2863    2.9126    0.6332 C   0  0  0  0  0  0  0  0  0  0  0  0
    0.5678    0.4442   -0.0938 N   0  0  0  0  0  0  0  0  0  0  0  0
   -4.1634   -2.1337   -0.2476 O   0  0  0  0  0  0  0  0  0  0  0  0
    2.5996    1.3187    0.4106 O   0  0  0  0  0  0  0  0  0  0  0  0
   -2.4647    4.0236    0.4823 O   0  0  0  0  0  0  0  0  0  0  0  0
   -4.2200    3.3001    1.6352 O   0  0  0  0  0  0  0  0  0  0  0  0
    5.6344   -3.4006    0.4712 Cl  0  0  0  0  0  0  0  0  0  0  0  0
    0.0474   -0.2902   -1.9593 H   0  0  0  0  0  0  0  0  0  0  0  0
   -1.5869    1.2692   -1.6734 H   0  0  0  0  0  0  0  0  0  0  0  0
   -3.7557    0.4084   -0.8710 H   0  0  0  0  0  0  0  0  0  0  0  0
   -2.9593   -0.5716   -2.1075 H   0  0  0  0  0  0  0  0  0  0  0  0
   -2.6973   -1.3321    0.8640 H   0  0  0  0  0  0  0  0  0  0  0  0
   -1.7926   -3.3463   -0.2725 H   0  0  0  0  0  0  0  0  0  0  0  0
   -1.8195   -2.4193   -1.8545 H   0  0  0  0  0  0  0  0  0  0  0  0
    0.2764   -2.3255   -0.7256 H   0  0  0  0  0  0  0  0  0  0  0  0
   -0.4652   -1.6796    0.7411 H   0  0  0  0  0  0  0  0  0  0  0  0
   -4.8813   -1.4641    1.6034 H   0  0  0  0  0  0  0  0  0  0  0  0
   -5.7273   -2.8119    0.8257 H   0  0  0  0  0  0  0  0  0  0  0  0
   -4.1445   -3.1117    1.5871 H   0  0  0  0  0  0  0  0  0  0  0  0
   -1.3066    0.1347    1.1194 H   0  0  0  0  0  0  0  0  0  0  0  0
    0.2426    1.8556    1.4632 H   0  0  0  0  0  0  0  0  0  0  0  0
    1.9291    1.1243   -1.5663 H   0  0  0  0  0  0  0  0  0  0  0  0
    2.2732   -1.3052   -1.5411 H   0  0  0  0  0  0  0  0  0  0  0  0
    3.9450   -0.0261   -2.3388 H   0  0  0  0  0  0  0  0  0  0  0  0
    4.4063    0.6858   -0.7451 H   0  0  0  0  0  0  0  0  0  0  0  0
    4.7258   -2.2225   -1.6945 H   0  0  0  0  0  0  0  0  0  0  0  0
    5.9944   -0.9938   -1.5464 H   0  0  0  0  0  0  0  0  0  0  0  0
    6.2248   -1.1324    0.7117 H   0  0  0  0  0  0  0  0  0  0  0  0
    4.1388   -1.9478    2.0843 H   0  0  0  0  0  0  0  0  0  0  0  0
    4.2611   -0.2372    1.6307 H   0  0  0  0  0  0  0  0  0  0  0  0
    2.0297   -1.2182    1.2655 H   0  0  0  0  0  0  0  0  0  0  0  0
    2.7154   -2.5446    0.3119 H   0  0  0  0  0  0  0  0  0  0  0  0
   -0.5349    3.0903   -1.1967 H   0  0  0  0  0  0  0  0  0  0  0  0
    1.1699    2.8535   -0.8896 H   0  0  0  0  0  0  0  0  0  0  0  0
    0.2256    3.7617    0.2653 H   0  0  0  0  0  0  0  0  0  0  0  0
   -2.2706    2.0101    2.2132 H   0  0  0  0  0  0  0  0  0  0  0  0
   -3.3672    0.9550    1.3522 H   0  0  0  0  0  0  0  0  0  0  0  0
   -3.9263    2.7369   -0.2555 H   0  0  0  0  0  0  0  0  0  0  0  0
    2.1713    1.2138    1.2852 H   0  0  0  0  0  0  0  0  0  0  0  0
   -2.7775    4.6527   -0.1961 H   0  0  0  0  0  0  0  0  0  0  0  0
   -4.4130    4.2698    1.5455 H   0  0  0  0  0  0  0  0  0  0  0  0
    0.0474   -0.2902   -1.9593 H   0  0  0  0  0  0  0  0  0  0  0  0
   -1.5869    1.2692   -1.6734 H   0  0  0  0  0  0  0  0  0  0  0  0
   -3.7557    0.4084   -0.8710 H   0  0  0  0  0  0  0  0  0  0  0  0
   -2.9593   -0.5716   -2.1075 H   0  0  0  0  0  0  0  0  0  0  0  0
   -2.6973   -1.3321    0.8640 H   0  0  0  0  0  0  0  0  0  0  0  0
   -1.7926   -3.3463   -0.2725 H   0  0  0  0  0  0  0  0  0  0  0  0
   -1.8195   -2.4193   -1.8545 H   0  0  0  0  0  0  0  0  0  0  0  0
    0.2764   -2.3255   -0.7256 H   0  0  0  0  0  0  0  0  0  0  0  0
   -0.4652   -1.6796    0.7411 H   0  0  0  0  0  0  0  0  0  0  0  0
   -4.8813   -1.4641    1.6034 H   0  0  0  0  0  0  0  0  0  0  0  0
   -5.7273   -2.8119    0.8257 H   0  0  0  0  0  0  0  0  0  0  0  0
   -4.1445   -3.1117    1.5871 H   0  0  0  0  0  0  0  0  0  0  0  0
   -1.3066    0.1347    1.1194 H   0  0  0  0  0  0  0  0  0  0  0  0
    0.2426    1.8556    1.4632 H   0  0  0  0  0  0  0  0  0  0  0  0
    1.9291    1.1243   -1.5663 H   0  0  0  0  0  0  0  0  0  0  0  0
    2.2732   -1.3052   -1.5411 H   0  0  0  0  0  0  0  0  0  0  0  0
    3.9450   -0.0261   -2.3388 H   0  0  0  0  0  0  0  0  0  0  0  0
    4.4063    0.6858   -0.7451 H   0  0  0  0  0  0  0  0  0  0  0  0
    4.7258   -2.2225   -1.6945 H   0  0  0  0  0  0  0  0  0  0  0  0
    5.9944   -0.9938   -1.5464 H   0  0  0  0  0  0  0  0  0  0  0  0
    6.2248   -1.1324    0.7117 H   0  0  0  0  0  0  0  0  0  0  0  0
    4.1388   -1.9478    2.0843 H   0  0  0  0  0  0  0  0  0  0  0  0
    4.2611   -0.2372    1.6307 H   0  0  0  0  0  0  0  0  0  0  0  0
    2.0297   -1.2182    1.2655 H   0  0  0  0  0  0  0  0  0  0  0  0
    2.7154   -2.5446    0.3119 H   0  0  0  0  0  0  0  0  0  0  0  0
   -0.5349    3.0903   -1.1967 H   0  0  0  0  0  0  0  0  0  0  0  0
    1.1699    2.8535   -0.8896 H   0  0  0  0  0  0  0  0  0  0  0  0
    0.2256    3.7617    0.2653 H   0  0  0  0  0  0  0  0  0  0  0  0
   -2.2706    2.0101    2.2132 H   0  0  0  0  0  0  0  0  0  0  0  0
   -3.3672    0.9550    1.3522 H   0  0  0  0  0  0  0  0  0  0  0  0
   -3.9263    2.7369   -0.2555 H   0  0  0  0  0  0  0  0  0  0  0  0
    2.1713    1.2138    1.2852 H   0  0  0  0  0  0  0  0  0  0  0  0
   -2.7775    4.6527   -0.1961 H   0  0  0  0  0  0  0  0  0  0  0  0
   -4.4130    4.2698    1.5455 H   0  0  0  0  0  0  0  0  0  0  0  0
   -0.5437   -0.9127    1.1605 H   0  0  0  0  0  0  0  0  0  0  0  0
   -2.0170    0.2992   -1.1646 H   0  0  0  0  0  0  0  0  0  0  0  0
   -3.9364   -0.1466    0.2489 H   0  0  0  0  0  0  0  0  0  0  0  0
   -2.9253   -0.6743    1.6401 H   0  0  0  0  0  0  0  0  0  0  0  0
   -2.7361   -2.7408    0.7438 H   0  0  0  0  0  0  0  0  0  0  0  0
   -1.9739   -3.2416   -1.4657 H   0  0  0  0  0  0  0  0  0  0  0  0
   -2.2101   -1.5532   -2.0407 H   0  0  0  0  0  0  0  0  0  0  0  0
    0.0576   -1.8480   -1.6590 H   0  0  0  0  0  0  0  0  0  0  0  0
   -0.1598   -2.7202   -0.0992 H   0  0  0  0  0  0  0  0  0  0  0  0
   -4.2831   -4.3587   -0.0584 H   0  0  0  0  0  0  0  0  0  0  0  0
   -5.8075   -3.5501   -0.5102 H   0  0  0  0  0  0  0  0  0  0  0  0
   -5.0912   -3.2423    1.0920 H   0  0  0  0  0  0  0  0  0  0  0  0
   -1.3046    1.1886    1.6437 H   0  0  0  0  0  0  0  0  0  0  0  0
    0.5049    2.2383    0.6251 H   0  0  0  0  0  0  0  0  0  0  0  0
    1.4064   -0.0540   -1.9853 H   0  0  0  0  0  0  0  0  0  0  0  0
    2.0641   -1.8708   -0.3567 H   0  0  0  0  0  0  0  0  0  0  0  0
    3.4173   -1.5463   -2.1241 H   0  0  0  0  0  0  0  0  0  0  0  0
    3.8510    0.1222   -1.7365 H   0  0  0  0  0  0  0  0  0  0  0  0
    5.2027   -2.4638   -1.0069 H   0  0  0  0  0  0  0  0  0  0  0  0
    5.8148   -0.8078   -1.1214 H   0  0  0  0  0  0  0  0  0  0  0  0
    4.6869   -2.2647    1.2276 H   0  0  0  0  0  0  0  0  0  0  0  0
    4.4709    0.0321    2.3559 H   0  0  0  0  0  0  0  0  0  0  0  0
    4.6138    0.7516    0.6638 H   0  0  0  0  0  0  0  0  0  0  0  0
    2.2668    0.4257    1.4356 H   0  0  0  0  0  0  0  0  0  0  0  0
    2.5790   -1.2839    1.7558 H   0  0  0  0  0  0  0  0  0  0  0  0
    0.1307    1.6270   -2.2213 H   0  0  0  0  0  0  0  0  0  0  0  0
   -1.2355    2.6483   -1.7640 H   0  0  0  0  0  0  0  0  0  0  0  0
    0.3843    3.2834   -1.4502 H   0  0  0  0  0  0  0  0  0  0  0  0
   -3.4885    1.9609    0.8948 H   0  0  0  0  0  0  0  0  0  0  0  0
   -2.9249    2.3827   -0.7066 H   0  0  0  0  0  0  0  0  0  0  0  0
   -3.2837    4.3548    0.6430 H   0  0  0  0  0  0  0  0  0  0  0  0
    2.3775    1.8098   -0.0511 H   0  0  0  0  0  0  0  0  0  0  0  0
   -1.2176    5.2849    0.9211 H   0  0  0  0  0  0  0  0  0  0  0  0
   -2.7726    4.4734    2.7318 H   0  0  0  0  0  0  0  0  0  0  0  0
    0.0474   -0.2902   -1.9593 H   0  0  0  0  0  0  0  0  0  0  0  0
   -1.5869    1.2692   -1.6734 H   0  0  0  0  0  0  0  0  0  0  0  0
   -3.7557    0.4084   -0.8710 H   0  0  0  0  0  0  0  0  0  0  0  0
   -2.9593   -0.5716   -2.1075 H   0  0  0  0  0  0  0  0  0  0  0  0
   -2.6973   -1.3321    0.8640 H   0  0  0  0  0  0  0  0  0  0  0  0
   -1.7926   -3.3463   -0.2725 H   0  0  0  0  0  0  0  0  0  0  0  0
   -1.8195   -2.4193   -1.8545 H   0  0  0  0  0  0  0  0  0  0  0  0
    0.2764   -2.3255   -0.7256 H   0  0  0  0  0  0  0  0  0  0  0  0
   -0.4652   -1.6796    0.7411 H   0  0  0  0  0  0  0  0  0  0  0  0
   -4.8813   -1.4641    1.6034 H   0  0  0  0  0  0  0  0  0  0  0  0
   -5.7273   -2.8119    0.8257 H   0  0  0  0  0  0  0  0  0  0  0  0
   -4.1445   -3.1117    1.5871 H   0  0  0  0  0  0  0  0  0  0  0  0
   -1.3066    0.1347    1.1194 H   0  0  0  0  0  0  0  0  0  0  0  0
    0.2426    1.8556    1.4632 H   0  0  0  0  0  0  0  0  0  0  0  0
    1.9291    1.1243   -1.5663 H   0  0  0  0  0  0  0  0  0  0  0  0
    2.2732   -1.3052   -1.5411 H   0  0  0  0  0  0  0  0  0  0  0  0
    3.9450   -0.0261   -2.3388 H   0  0  0  0  0  0  0  0  0  0  0  0
    4.4063    0.6858   -0.7451 H   0  0  0  0  0  0  0  0  0  0  0  0
    4.7258   -2.2225   -1.6945 H   0  0  0  0  0  0  0  0  0  0  0  0
    5.9944   -0.9938   -1.5464 H   0  0  0  0  0  0  0  0  0  0  0  0
    6.2248   -1.1324    0.7117 H   0  0  0  0  0  0  0  0  0  0  0  0
    4.1388   -1.9478    2.0843 H   0  0  0  0  0  0  0  0  0  0  0  0
    4.2611   -0.2372    1.6307 H   0  0  0  0  0  0  0  0  0  0  0  0
    2.0297   -1.2182    1.2655 H   0  0  0  0  0  0  0  0  0  0  0  0
    2.7154   -2.5446    0.3119 H   0  0  0  0  0  0  0  0  0  0  0  0
   -0.5349    3.0903   -1.1967 H   0  0  0  0  0  0  0  0  0  0  0  0
    1.1699    2.8535   -0.8896 H   0  0  0  0  0  0  0  0  0  0  0  0
    0.2256    3.7617    0.2653 H   0  0  0  0  0  0  0  0  0  0  0  0
   -2.2706    2.0101    2.2132 H   0  0  0  0  0  0  0  0  0  0  0  0
   -3.3672    0.9550    1.3522 H   0  0  0  0  0  0  0  0  0  0  0  0
   -3.9263    2.7369   -0.2555 H   0  0  0  0  0  0  0  0  0  0  0  0
    2.1713    1.2138    1.2852 H   0  0  0  0  0  0  0  0  0  0  0  0
   -2.7775    4.6527   -0.1961 H   0  0  0  0  0  0  0  0  0  0  0  0
   -4.4130    4.2698    1.5455 H   0  0  0  0  0  0  0  0  0  0  0  0
  1  2  1  0
  2  3  1  0
  3  4  1  0
  4  5  1  0
  1  6  1  0
  5  6  1  0
  2  8  1  0
  8  9  1  0
 10 11  1  0
 11 12  1  0
 12 13  1  0
 13 14  1  0
 14 15  1  0
 11 16  1  0
 15 16  1  0
  9 17  1  0
  8 18  1  0
 18 19  1  0
  1 20  1  0
  9 20  1  0
 10 20  1  0
  4 21  1  0
  7 21  1  0
 10 22  1  0
 19 23  1  0
 19 24  1  0
 14 25  1  0
 26 27  1  0
 27 28  1  0
 28 29  1  0
 29 30  1  0
 26 31  1  0
 30 31  1  0
 27 33  1  0
 33 34  1  0
 35 36  1  0
 36 37  1  0
 37 38  1  0
 38 39  1  0
 39 40  1  0
 36 41  1  0
 40 41  1  0
 34 42  1  0
 33 43  1  0
 43 44  1  0
 26 45  1  0
 34 45  1  0
 35 45  1  0
 29 46  1  0
 32 46  1  0
 35 47  1  0
 44 48  1  0
 44 49  1  0
 39 50  1  0
 51 52  1  0
 52 53  1  0
 53 54  1  0
 54 55  1  0
 51 56  1  0
 55 56  1  0
 52 58  1  0
 58 59  1  0
 60 61  1  0
 61 62  1  0
 62 63  1  0
 63 64  1  0
 64 65  1  0
 61 66  1  0
 65 66  1  0
 59 67  1  0
 58 68  1  0
 68 69  1  0
 51 70  1  0
 59 70  1  0
 60 70  1  0
 54 71  1  0
 57 71  1  0
 60 72  1  0
 69 73  1  0
 69 74  1  0
 64 75  1  0
 76 77  1  0
 77 78  1  0
 78 79  1  0
 79 80  1  0
 76 81  1  0
 80 81  1  0
 77 83  1  0
 83 84  1  0
 85 86  1  0
 86 87  1  0
 87 88  1  0
 88 89  1  0
 89 90  1  0
 86 91  1  0
 90 91  1  0
 84 92  1  0
 83 93  1  0
 93 94  1  0
 76 95  1  0
 84 95  1  0
 85 95  1  0
 79 96  1  0
 82 96  1  0
 85 97  1  0
 94 98  1  0
 94 99  1  0
 89100  1  0
  1101  1  0
  2102  1  0
  3103  1  0
  3104  1  0
  4105  1  0
  5106  1  0
  5107  1  0
  6108  1  0
  6109  1  0
  7110  1  0
  7111  1  0
  7112  1  0
  8113  1  1
  9114  1  0
 10115  1  0
 11116  1  0
 12117  1  0
 12118  1  0
 13119  1  0
 13120  1  0
 14121  1  0
 15122  1  0
 15123  1  0
 16124  1  0
 16125  1  0
 17126  1  0
 17127  1  0
 17128  1  0
 18129  1  0
 18130  1  0
 19131  1  0
 22132  1  0
 23133  1  0
 24134  1  0
 26135  1  0
 27136  1  0
 28137  1  0
 28138  1  0
 29139  1  0
 30140  1  0
 30141  1  0
 31142  1  0
 31143  1  0
 32144  1  0
 32145  1  0
 32146  1  0
 33147  1  1
 34148  1  0
 35149  1  0
 36150  1  0
 37151  1  0
 37152  1  0
 38153  1  0
 38154  1  0
 39155  1  0
 40156  1  0
 40157  1  0
 41158  1  0
 41159  1  0
 42160  1  0
 42161  1  0
 42162  1  0
 43163  1  0
 43164  1  0
 44165  1  0
 47166  1  0
 48167  1  0
 49168  1  0
 51169  1  0
 52170  1  0
 53171  1  0
 53172  1  0
 54173  1  0
 55174  1  0
 55175  1  0
 56176  1  0
 56177  1  0
 57178  1  0
 57179  1  0
 57180  1  0
 58181  1  0
 59182  1  0
 60183  1  0
 61184  1  0
 62185  1  0
 62186  1  0
 63187  1  0
 63188  1  0
 64189  1  0
 65190  1  0
 65191  1  0
 66192  1  0
 66193  1  0
 67194  1  0
 67195  1  0
 67196  1  0
 68197  1  0
 68198  1  0
 69199  1  0
 72200  1  0
 73201  1  0
 74202  1  0
 76203  1  0
 77204  1  0
 78205  1  0
 78206  1  0
 79207  1  0
 80208  1  0
 80209  1  0
 81210  1  0
 81211  1  0
 82212  1  0
 82213  1  0
 82214  1  0
 83215  1  1
 84216  1  0
 85217  1  0
 86218  1  0
 87219  1  0
 87220  1  0
 88221  1  0
 88222  1  0
 89223  1  0
 90224  1  0
 90225  1  0
 91226  1  0
 91227  1  0
 92228  1  0
 92229  1  0
 92230  1  0
 93231  1  0
 93232  1  0
 94233  1  0
 97234  1  0
 98235  1  0
 99236  1  0
M  END
>  <PDBID>  (1) 
4COX

>  <PDB ID>  (1) 
4COX

>  <Generic Name>  (1) 
Indomethacin

>  <Brand Name>  (1) 
Apo Indomethacin Cap 25mg#Apo Indomethacin Cap 50mg#Ftp-indomethacin#Indocid Cap 25mg#Indocid Cap 50mg#Indocid SR 75mg#Indocid Sterile Oph Susp 1%#Indocid Sup 100mg#Indocid Sup 50mg#Indocin#Indocollyre#Indomethacin#Indomethacin ER#Indomethacin Extended-release#Mint-indomethacin#Novo-methacin - 100mg Sup#Novo-methacin - Sup 50mg#Ntp-indomethacin#Nu-indo Cap 25mg#Nu-indo Cap 50mg#Pro-indo 25 Cap 25mg#Pro-indo 50 Cap 50mg#Ratio-indomethacin#Rhodacine - Cap 25mg#Rhodacine - Cap 50mg#Rhodacine - Sup 100mg#Rhodacine - Sup 50mg#Sandoz Indomethacin#Teva-indomethacin#Tivorbex#Arthrexin#Elmetacin#Indaflex#Indocid#Indolar SR#Indomed#Indoxen#Metindol#Mikametan#Nu-Indo#Reumacide

>  <DrugBank ID>  (1) 
DB00328

>  <ATC Codes>  (1) 
S01CC02#M02AA23#M01AB01#M01AB51#S01BC01#C01EB03

>  <Ligand ID>  (1) 
IMN

>  <Target Name>  (1) 
Prostaglandin G/H synthase 2

>  <UniProt ID>  (1) 
P35354

>  <PDB ID.1>  (1) 
4COX

>  <Seq. Identity>  (1) 
84%

$$$$
