PDB_DB01254_08
     RDKit          3D

154160  0  0  0  0  0  0  0  0999 V2000
   -1.9940   -0.2258    1.6056 C   0  0  0  0  0  0  0  0  0  0  0  0
   -3.1407   -0.1088    0.5850 C   0  0  0  0  0  0  0  0  0  0  0  0
   -4.0403   -1.2866    0.7152 C   0  0  0  0  0  0  0  0  0  0  0  0
    7.3037   -0.9552    0.0722 N   0  0  0  0  0  0  0  0  0  0  0  0
   -7.8721   -2.0788    0.7730 C   0  0  0  0  0  0  0  0  0  0  0  0
   -8.0000   -1.6996   -0.6653 C   0  0  0  0  0  0  0  0  0  0  0  0
   -7.1782   -0.5422   -1.1067 C   0  0  0  0  0  0  0  0  0  0  0  0
   -7.9876    0.6606   -1.4906 C   0  0  0  0  0  0  0  0  0  0  0  0
    1.3901    1.5532   -0.3333 C   0  0  0  0  0  0  0  0  0  0  0  0
    2.4617    0.5131   -0.0607 C   0  0  0  0  0  0  0  0  0  0  0  0
    3.7552    1.0945   -0.6340 C   0  0  0  0  0  0  0  0  0  0  0  0
    3.0028    3.2911   -0.5989 C   0  0  0  0  0  0  0  0  0  0  0  0
    2.5179    4.2920    0.4196 C   0  0  0  0  0  0  0  0  0  0  0  0
    5.1077   -0.1802    0.9026 C   0  0  0  0  0  0  0  0  0  0  0  0
    5.9879    0.6998   -1.1080 C   0  0  0  0  0  0  0  0  0  0  0  0
    7.0404   -2.3555    0.1669 C   0  0  0  0  0  0  0  0  0  0  0  0
    7.7189   -3.1803   -0.8867 C   0  0  0  0  0  0  0  0  0  0  0  0
    0.2262    1.0198   -0.9462 N   0  0  0  0  0  0  0  0  0  0  0  0
   -0.5055    0.0512   -0.1624 C   0  0  1  0  0  0  0  0  0  0  0  0
   -0.9478    0.6117    1.0993 N   0  0  0  0  0  0  0  0  0  0  0  0
   -2.1545   -0.2472   -0.9353 S   0  0  0  0  0  0  0  0  0  0  0  0
   -5.1428   -1.2910   -0.1890 N   0  0  0  0  0  0  0  0  0  0  0  0
   -6.0765   -0.2250   -0.1077 C   0  0  2  0  0  0  0  0  0  0  0  0
   -6.6438    0.0711    1.2370 C   0  0  0  0  0  0  0  0  0  0  0  0
   -7.6903   -0.8929    1.6852 C   0  0  0  0  0  0  0  0  0  0  0  0
   -7.3754    1.7211    1.1965 Cl  0  0  0  0  0  0  0  0  0  0  0  0
   -4.3665   -1.6258    2.0300 O   0  0  0  0  0  0  0  0  0  0  0  0
    3.9784    2.3672   -0.0228 N   0  0  0  0  0  0  0  0  0  0  0  0
    1.8735    2.6298   -1.1712 N   0  0  0  0  0  0  0  0  0  0  0  0
    4.8023    0.1391   -0.4523 N   0  0  0  0  0  0  0  0  0  0  0  0
    6.6050   -0.2575    1.1246 C   0  0  0  0  0  0  0  0  0  0  0  0
    7.0384   -0.3607   -1.2004 C   0  0  0  0  0  0  0  0  0  0  0  0
    9.0986   -3.0857   -0.8711 O   0  0  0  0  0  0  0  0  0  0  0  0
   -2.0160   -0.2652    1.4162 C   0  0  0  0  0  0  0  0  0  0  0  0
   -3.1942   -0.0641    0.5114 C   0  0  0  0  0  0  0  0  0  0  0  0
   -4.0140   -1.3014    0.2467 C   0  0  0  0  0  0  0  0  0  0  0  0
    7.2732   -0.4417   -0.6085 N   0  0  0  0  0  0  0  0  0  0  0  0
   -7.9128   -1.8894   -0.9969 C   0  0  0  0  0  0  0  0  0  0  0  0
   -8.0053   -1.4396    0.4288 C   0  0  0  0  0  0  0  0  0  0  0  0
   -6.9673   -0.3842    0.7615 C   0  0  0  0  0  0  0  0  0  0  0  0
   -7.7160    0.8757    1.1842 C   0  0  0  0  0  0  0  0  0  0  0  0
    1.4725    0.2444   -0.0238 C   0  0  0  0  0  0  0  0  0  0  0  0
    2.7299    0.0142   -0.8336 C   0  0  0  0  0  0  0  0  0  0  0  0
    3.8631    0.3207    0.1223 C   0  0  2  0  0  0  0  0  0  0  0  0
    2.4078    1.8443    1.3430 C   0  0  0  0  0  0  0  0  0  0  0  0
    2.8459    3.2645    1.4394 C   0  0  0  0  0  0  0  0  0  0  0  0
    5.9404    1.2606    0.5306 C   0  0  0  0  0  0  0  0  0  0  0  0
    5.4110    0.6943   -1.6807 C   0  0  0  0  0  0  0  0  0  0  0  0
    7.3635   -1.4069    0.4389 C   0  0  0  0  0  0  0  0  0  0  0  0
    7.4211   -2.8138   -0.1253 C   0  0  0  0  0  0  0  0  0  0  0  0
    0.2544   -0.0648   -0.6921 N   0  0  0  0  0  0  0  0  0  0  0  0
   -0.7533    0.8543   -0.2409 C   0  0  2  0  0  0  0  0  0  0  0  0
   -1.0407    0.7338    1.1463 N   0  0  0  0  0  0  0  0  0  0  0  0
   -2.3714    0.5159   -0.9919 S   0  0  0  0  0  0  0  0  0  0  0  0
   -5.0617   -1.0316   -0.6592 N   0  0  0  0  0  0  0  0  0  0  0  0
   -6.0372   -0.0752   -0.3702 C   0  0  0  0  0  0  0  0  0  0  0  0
   -6.8068    0.2505   -1.6484 C   0  0  0  0  0  0  0  0  0  0  0  0
   -7.9367   -0.6862   -1.9202 C   0  0  0  0  0  0  0  0  0  0  0  0
   -7.3544    1.9257   -1.6825 Cl  0  0  0  0  0  0  0  0  0  0  0  0
   -4.4710   -1.8069    1.4436 O   0  0  0  0  0  0  0  0  0  0  0  0
    3.4275    0.8637    1.3838 N   0  0  0  0  0  0  0  0  0  0  0  0
    1.4867    1.7085    0.2238 N   0  0  0  0  0  0  0  0  0  0  0  0
    4.8625    1.1800   -0.4362 N   0  0  0  0  0  0  0  0  0  0  0  0
    7.2724    0.8904   -0.0443 C   0  0  0  0  0  0  0  0  0  0  0  0
    6.1400   -0.6245   -1.4966 C   0  0  0  0  0  0  0  0  0  0  0  0
    8.5452   -2.9441   -0.9469 O   0  0  0  0  0  0  0  0  0  0  0  0
   -1.6324   -1.2710    1.5775 H   0  0  0  0  0  0  0  0  0  0  0  0
   -2.2877    0.1396    2.5895 H   0  0  0  0  0  0  0  0  0  0  0  0
   -3.6537    0.8646    0.6750 H   0  0  0  0  0  0  0  0  0  0  0  0
   -3.4076   -2.1731    0.3839 H   0  0  0  0  0  0  0  0  0  0  0  0
   -8.8569   -2.5396    1.0717 H   0  0  0  0  0  0  0  0  0  0  0  0
   -7.1198   -2.8486    0.9837 H   0  0  0  0  0  0  0  0  0  0  0  0
   -7.7270   -2.6272   -1.2517 H   0  0  0  0  0  0  0  0  0  0  0  0
   -9.0818   -1.5426   -0.9531 H   0  0  0  0  0  0  0  0  0  0  0  0
   -6.6207   -0.8390   -2.0464 H   0  0  0  0  0  0  0  0  0  0  0  0
   -7.3313    1.5319   -1.6715 H   0  0  0  0  0  0  0  0  0  0  0  0
   -8.4606    0.4307   -2.4768 H   0  0  0  0  0  0  0  0  0  0  0  0
   -8.8309    0.8812   -0.8081 H   0  0  0  0  0  0  0  0  0  0  0  0
    1.1087    2.0062    0.6575 H   0  0  0  0  0  0  0  0  0  0  0  0
    2.6415    0.4007    1.0287 H   0  0  0  0  0  0  0  0  0  0  0  0
    2.2349   -0.4687   -0.4828 H   0  0  0  0  0  0  0  0  0  0  0  0
    3.5716    1.2967   -1.7219 H   0  0  0  0  0  0  0  0  0  0  0  0
    3.5423    3.8695   -1.3820 H   0  0  0  0  0  0  0  0  0  0  0  0
    3.1758    5.1730    0.4419 H   0  0  0  0  0  0  0  0  0  0  0  0
    2.3412    3.8430    1.4193 H   0  0  0  0  0  0  0  0  0  0  0  0
    1.5147    4.6470    0.0752 H   0  0  0  0  0  0  0  0  0  0  0  0
    4.6763    0.5927    1.5852 H   0  0  0  0  0  0  0  0  0  0  0  0
    4.6208   -1.1516    1.2186 H   0  0  0  0  0  0  0  0  0  0  0  0
    5.6979    1.0462   -2.1197 H   0  0  0  0  0  0  0  0  0  0  0  0
    6.3488    1.5631   -0.5209 H   0  0  0  0  0  0  0  0  0  0  0  0
    5.9626   -2.6009    0.1410 H   0  0  0  0  0  0  0  0  0  0  0  0
    7.4212   -2.6981    1.1571 H   0  0  0  0  0  0  0  0  0  0  0  0
    7.2857   -3.0427   -1.8985 H   0  0  0  0  0  0  0  0  0  0  0  0
    7.4876   -4.2567   -0.6288 H   0  0  0  0  0  0  0  0  0  0  0  0
    0.2773    0.8294   -1.9491 H   0  0  0  0  0  0  0  0  0  0  0  0
    0.0251   -0.8826    0.0366 H   0  0  0  0  0  0  0  0  0  0  0  0
   -1.3214    1.5758    0.8566 H   0  0  0  0  0  0  0  0  0  0  0  0
   -4.8074   -1.3663   -1.1622 H   0  0  0  0  0  0  0  0  0  0  0  0
   -5.6093    0.7399   -0.4654 H   0  0  0  0  0  0  0  0  0  0  0  0
   -5.7958    0.1975    1.9698 H   0  0  0  0  0  0  0  0  0  0  0  0
   -8.6723   -0.3882    1.9174 H   0  0  0  0  0  0  0  0  0  0  0  0
   -7.3540   -1.3054    2.6823 H   0  0  0  0  0  0  0  0  0  0  0  0
   -3.7464   -1.2778    2.6883 H   0  0  0  0  0  0  0  0  0  0  0  0
    3.7495    2.2953    0.9928 H   0  0  0  0  0  0  0  0  0  0  0  0
    1.9187    2.3996   -2.1650 H   0  0  0  0  0  0  0  0  0  0  0  0
    7.0194    0.7790    1.2471 H   0  0  0  0  0  0  0  0  0  0  0  0
    6.7499   -0.8263    2.0876 H   0  0  0  0  0  0  0  0  0  0  0  0
    6.7898   -1.0668   -1.9954 H   0  0  0  0  0  0  0  0  0  0  0  0
    7.9851    0.1534   -1.5391 H   0  0  0  0  0  0  0  0  0  0  0  0
    9.3780   -2.1992   -1.1814 H   0  0  0  0  0  0  0  0  0  0  0  0
   -2.2876   -0.1470    2.4990 H   0  0  0  0  0  0  0  0  0  0  0  0
   -1.6232   -1.3054    1.2724 H   0  0  0  0  0  0  0  0  0  0  0  0
   -3.8301    0.7387    0.9628 H   0  0  0  0  0  0  0  0  0  0  0  0
   -3.3621   -2.0901   -0.2017 H   0  0  0  0  0  0  0  0  0  0  0  0
   -7.0087   -2.4958   -1.2021 H   0  0  0  0  0  0  0  0  0  0  0  0
   -8.7924   -2.4994   -1.2517 H   0  0  0  0  0  0  0  0  0  0  0  0
   -9.0191   -1.0532    0.6235 H   0  0  0  0  0  0  0  0  0  0  0  0
   -7.8936   -2.3456    1.0724 H   0  0  0  0  0  0  0  0  0  0  0  0
   -6.4085   -0.6988    1.6519 H   0  0  0  0  0  0  0  0  0  0  0  0
   -8.4918    1.1681    0.4714 H   0  0  0  0  0  0  0  0  0  0  0  0
   -8.2250    0.6298    2.1386 H   0  0  0  0  0  0  0  0  0  0  0  0
   -6.9877    1.6713    1.4306 H   0  0  0  0  0  0  0  0  0  0  0  0
    1.4998   -0.2687    0.9466 H   0  0  0  0  0  0  0  0  0  0  0  0
    2.7068   -1.0341   -1.1793 H   0  0  0  0  0  0  0  0  0  0  0  0
    2.7212    0.6821   -1.7070 H   0  0  0  0  0  0  0  0  0  0  0  0
    4.3578   -0.6479    0.3314 H   0  0  0  0  0  0  0  0  0  0  0  0
    1.7469    1.6680    2.2473 H   0  0  0  0  0  0  0  0  0  0  0  0
    3.8426    3.4733    1.0010 H   0  0  0  0  0  0  0  0  0  0  0  0
    2.8870    3.5942    2.5119 H   0  0  0  0  0  0  0  0  0  0  0  0
    2.1294    3.9710    0.9666 H   0  0  0  0  0  0  0  0  0  0  0  0
    6.0230    2.2851    0.9361 H   0  0  0  0  0  0  0  0  0  0  0  0
    5.7739    0.5904    1.4037 H   0  0  0  0  0  0  0  0  0  0  0  0
    4.6523    0.5780   -2.4676 H   0  0  0  0  0  0  0  0  0  0  0  0
    6.1584    1.4354   -2.0287 H   0  0  0  0  0  0  0  0  0  0  0  0
    6.5065   -1.3713    1.1391 H   0  0  0  0  0  0  0  0  0  0  0  0
    8.3043   -1.2132    0.9902 H   0  0  0  0  0  0  0  0  0  0  0  0
    6.5213   -3.0869   -0.7060 H   0  0  0  0  0  0  0  0  0  0  0  0
    7.5461   -3.5529    0.6954 H   0  0  0  0  0  0  0  0  0  0  0  0
    0.3891    0.0855   -1.7320 H   0  0  0  0  0  0  0  0  0  0  0  0
   -0.4717    1.9171   -0.4450 H   0  0  0  0  0  0  0  0  0  0  0  0
   -1.2764    1.6007    1.6495 H   0  0  0  0  0  0  0  0  0  0  0  0
   -4.7067   -1.0145   -1.6375 H   0  0  0  0  0  0  0  0  0  0  0  0
   -5.5746    0.9348   -0.0907 H   0  0  0  0  0  0  0  0  0  0  0  0
   -6.0675    0.1491   -2.4938 H   0  0  0  0  0  0  0  0  0  0  0  0
   -8.9343   -0.1828   -1.8469 H   0  0  0  0  0  0  0  0  0  0  0  0
   -7.8864   -1.0903   -2.9682 H   0  0  0  0  0  0  0  0  0  0  0  0
   -4.1178   -1.3538    2.2530 H   0  0  0  0  0  0  0  0  0  0  0  0
    3.1981    0.0816    2.0592 H   0  0  0  0  0  0  0  0  0  0  0  0
    1.9426    2.1801   -0.6017 H   0  0  0  0  0  0  0  0  0  0  0  0
    7.9752    0.8307    0.8394 H   0  0  0  0  0  0  0  0  0  0  0  0
    7.7133    1.6354   -0.7299 H   0  0  0  0  0  0  0  0  0  0  0  0
    6.5797   -0.8803   -2.5003 H   0  0  0  0  0  0  0  0  0  0  0  0
    5.4572   -1.4198   -1.2023 H   0  0  0  0  0  0  0  0  0  0  0  0
    9.2744   -2.3506   -0.5878 H   0  0  0  0  0  0  0  0  0  0  0  0
  1  2  1  0
  2  3  1  0
  5  6  1  0
  6  7  1  0
  7  8  1  0
  9 10  1  0
 10 11  1  0
 12 13  1  0
  4 16  1  0
 16 17  1  0
  9 18  1  0
 18 19  1  0
  1 20  1  0
 19 20  1  0
  2 21  1  0
 19 21  1  0
  3 22  1  0
  7 23  1  0
 22 23  1  0
 23 24  1  0
  5 25  1  0
 24 25  1  0
 24 26  1  0
  3 27  1  0
 11 28  1  0
 12 28  1  0
  9 29  1  0
 12 29  1  0
 11 30  1  0
 14 30  1  0
 15 30  1  0
  4 31  1  0
 14 31  1  0
  4 32  1  0
 15 32  1  0
 17 33  1  0
 34 35  1  0
 35 36  1  0
 38 39  1  0
 39 40  1  0
 40 41  1  0
 42 43  1  0
 43 44  1  0
 45 46  1  0
 37 49  1  0
 49 50  1  0
 42 51  1  0
 51 52  1  0
 34 53  1  0
 52 53  1  0
 35 54  1  0
 52 54  1  0
 36 55  1  0
 40 56  1  0
 55 56  1  0
 56 57  1  0
 38 58  1  0
 57 58  1  0
 57 59  1  0
 36 60  1  0
 44 61  1  0
 45 61  1  0
 42 62  1  0
 45 62  1  0
 44 63  1  0
 47 63  1  0
 48 63  1  0
 37 64  1  0
 47 64  1  0
 37 65  1  0
 48 65  1  0
 50 66  1  0
  1 67  1  0
  1 68  1  0
  2 69  1  0
  3 70  1  0
  5 71  1  0
  5 72  1  0
  6 73  1  0
  6 74  1  0
  7 75  1  0
  8 76  1  0
  8 77  1  0
  8 78  1  0
  9 79  1  0
 10 80  1  0
 10 81  1  0
 11 82  1  0
 12 83  1  0
 13 84  1  0
 13 85  1  0
 13 86  1  0
 14 87  1  0
 14 88  1  0
 15 89  1  0
 15 90  1  0
 16 91  1  0
 16 92  1  0
 17 93  1  0
 17 94  1  0
 18 95  1  0
 19 96  1  1
 20 97  1  0
 22 98  1  0
 23 99  1  6
 24100  1  0
 25101  1  0
 25102  1  0
 27103  1  0
 28104  1  0
 29105  1  0
 31106  1  0
 31107  1  0
 32108  1  0
 32109  1  0
 33110  1  0
 34111  1  0
 34112  1  0
 35113  1  0
 36114  1  0
 38115  1  0
 38116  1  0
 39117  1  0
 39118  1  0
 40119  1  0
 41120  1  0
 41121  1  0
 41122  1  0
 42123  1  0
 43124  1  0
 43125  1  0
 44126  1  1
 45127  1  0
 46128  1  0
 46129  1  0
 46130  1  0
 47131  1  0
 47132  1  0
 48133  1  0
 48134  1  0
 49135  1  0
 49136  1  0
 50137  1  0
 50138  1  0
 51139  1  0
 52140  1  1
 53141  1  0
 55142  1  0
 56143  1  0
 57144  1  0
 58145  1  0
 58146  1  0
 60147  1  0
 61148  1  0
 62149  1  0
 64150  1  0
 64151  1  0
 65152  1  0
 65153  1  0
 66154  1  0
M  END
>  <PDBID>  (1) 
2GQG

>  <PDB ID>  (1) 
2GQG

>  <Generic Name>  (1) 
Dasatinib

>  <Brand Name>  (1) 
Sprycel

>  <DrugBank ID>  (1) 
DB01254

>  <ATC Codes>  (1) 
L01XE06

>  <Ligand ID>  (1) 
1N1

>  <Target Name>  (1) 
Tyrosine-protein kinase ABL1

>  <UniProt ID>  (1) 
P00519

>  <PDB ID.1>  (1) 
2GQG

>  <Seq. Identity>  (1) 
96%

$$$$
