PDB_DB00148_01
     RDKit          3D

 22 21  0  0  0  0  0  0  0  0999 V2000
    2.5238   -0.6563    1.1562 O   0  0  0  0  0  0  0  0  0  0  0  0
    2.2366   -0.1473   -0.1230 C   0  0  0  0  0  0  0  0  0  0  0  0
    3.2795    0.7157   -0.4875 O   0  0  0  0  0  0  0  0  0  0  0  0
    0.9072    0.5741   -0.1625 C   0  0  0  0  0  0  0  0  0  0  0  0
   -0.1619   -0.2918    0.1912 N   0  0  0  0  0  0  0  0  0  0  0  0
   -0.4177   -1.3177   -0.7848 C   0  0  0  0  0  0  0  0  0  0  0  0
   -1.3537    0.3396    0.6584 C   0  0  0  0  0  0  0  0  0  0  0  0
   -1.8946    1.2505   -0.3393 N   0  0  0  0  0  0  0  0  0  0  0  0
   -2.3859   -0.5875    1.0433 N   0  0  0  0  0  0  0  0  0  0  0  0
    2.6130    0.1618    1.7321 H   0  0  0  0  0  0  0  0  0  0  0  0
    2.2563   -0.9753   -0.8456 H   0  0  0  0  0  0  0  0  0  0  0  0
    2.9270    1.3508   -1.1477 H   0  0  0  0  0  0  0  0  0  0  0  0
    0.7641    0.8634   -1.2373 H   0  0  0  0  0  0  0  0  0  0  0  0
    0.9568    1.4823    0.4479 H   0  0  0  0  0  0  0  0  0  0  0  0
   -0.7200   -0.9131   -1.7795 H   0  0  0  0  0  0  0  0  0  0  0  0
   -1.2348   -1.9637   -0.3418 H   0  0  0  0  0  0  0  0  0  0  0  0
    0.4670   -1.9323   -0.9640 H   0  0  0  0  0  0  0  0  0  0  0  0
   -1.0756    0.8984    1.5950 H   0  0  0  0  0  0  0  0  0  0  0  0
   -2.9127    1.0979   -0.5031 H   0  0  0  0  0  0  0  0  0  0  0  0
   -1.6754    2.2472   -0.0835 H   0  0  0  0  0  0  0  0  0  0  0  0
   -2.0721   -1.3250    1.6845 H   0  0  0  0  0  0  0  0  0  0  0  0
   -3.0268   -0.8717    0.2911 H   0  0  0  0  0  0  0  0  0  0  0  0
  1  2  1  0
  2  3  1  0
  2  4  1  0
  4  5  1  0
  5  6  1  0
  5  7  1  0
  7  8  1  0
  7  9  1  0
  1 10  1  0
  2 11  1  0
  3 12  1  0
  4 13  1  0
  4 14  1  0
  6 15  1  0
  6 16  1  0
  6 17  1  0
  7 18  1  0
  8 19  1  0
  8 20  1  0
  9 21  1  0
  9 22  1  0
M  END
>  <PDBID>  (1) 
3B6R

>  <PDB ID>  (1) 
3B6R

>  <Generic Name>  (1) 
Creatine

>  <Brand Name>  (1) 
nan

>  <DrugBank ID>  (1) 
DB00148

>  <ATC Codes>  (1) 
nan

>  <Ligand ID>  (1) 
CRN

>  <Target Name>  (1) 
Creatine kinase B-type

>  <UniProt ID>  (1) 
P12277

>  <PDB ID.1>  (1) 
3B6R

>  <Seq. Identity>  (1) 
96%

$$$$
