PDB_DB00255_04
     RDKit          3D

108110  0  0  0  0  0  0  0  0999 V2000
   -0.0796   -3.2604    1.0332 C   0  0  0  0  0  0  0  0  0  0  0  0
   -0.9463   -1.9990    1.1984 C   0  0  0  0  0  0  0  0  0  0  0  0
   -0.8962   -1.1549   -0.0851 C   0  0  0  0  0  0  0  0  0  0  0  0
   -1.7116    0.0434    0.2069 C   0  0  0  0  0  0  0  0  0  0  0  0
   -3.1309   -0.3763    0.5212 C   0  0  0  0  0  0  0  0  0  0  0  0
   -4.1273    0.6902    0.7310 C   0  0  0  0  0  0  0  0  0  0  0  0
   -3.9876    1.8641   -0.1960 C   0  0  0  0  0  0  0  0  0  0  0  0
   -4.8677    2.8584    0.2475 O   0  0  0  0  0  0  0  0  0  0  0  0
   -2.5372    2.3210    0.0152 C   0  0  0  0  0  0  0  0  0  0  0  0
   -1.7191    1.1989   -0.6917 C   0  0  0  0  0  0  0  0  0  0  0  0
    0.4766   -1.0671   -0.6567 C   0  0  0  0  0  0  0  0  0  0  0  0
    1.5395   -0.3904   -0.0015 C   0  0  0  0  0  0  0  0  0  0  0  0
    2.9184   -0.5299   -0.5869 C   0  0  0  0  0  0  0  0  0  0  0  0
    3.6954    0.7713   -0.5224 C   0  0  0  0  0  0  0  0  0  0  0  0
    3.8122    1.0623    0.9719 C   0  0  0  0  0  0  0  0  0  0  0  0
    4.4748    2.2564    1.0981 O   0  0  0  0  0  0  0  0  0  0  0  0
    2.5200    1.0717    1.6804 C   0  0  0  0  0  0  0  0  0  0  0  0
    1.7175   -0.2330    1.4543 C   0  0  0  0  0  0  0  0  0  0  0  0
    0.2896   -0.8086   -2.1169 C   0  0  0  0  0  0  0  0  0  0  0  0
    1.4414   -0.6630   -3.0327 C   0  0  0  0  0  0  0  0  0  0  0  0
   -0.0796   -3.2604    1.0332 C   0  0  0  0  0  0  0  0  0  0  0  0
   -0.9463   -1.9990    1.1984 C   0  0  0  0  0  0  0  0  0  0  0  0
   -0.8962   -1.1549   -0.0851 C   0  0  0  0  0  0  0  0  0  0  0  0
   -1.7116    0.0434    0.2069 C   0  0  0  0  0  0  0  0  0  0  0  0
   -3.1309   -0.3763    0.5212 C   0  0  0  0  0  0  0  0  0  0  0  0
   -4.1273    0.6902    0.7310 C   0  0  0  0  0  0  0  0  0  0  0  0
   -3.9876    1.8641   -0.1960 C   0  0  0  0  0  0  0  0  0  0  0  0
   -4.8677    2.8584    0.2475 O   0  0  0  0  0  0  0  0  0  0  0  0
   -2.5372    2.3210    0.0152 C   0  0  0  0  0  0  0  0  0  0  0  0
   -1.7191    1.1989   -0.6917 C   0  0  0  0  0  0  0  0  0  0  0  0
    0.4766   -1.0671   -0.6567 C   0  0  0  0  0  0  0  0  0  0  0  0
    1.5395   -0.3904   -0.0015 C   0  0  0  0  0  0  0  0  0  0  0  0
    2.9184   -0.5299   -0.5869 C   0  0  0  0  0  0  0  0  0  0  0  0
    3.6954    0.7713   -0.5224 C   0  0  0  0  0  0  0  0  0  0  0  0
    3.8122    1.0623    0.9719 C   0  0  0  0  0  0  0  0  0  0  0  0
    4.4748    2.2564    1.0981 O   0  0  0  0  0  0  0  0  0  0  0  0
    2.5200    1.0717    1.6804 C   0  0  0  0  0  0  0  0  0  0  0  0
    1.7175   -0.2330    1.4543 C   0  0  0  0  0  0  0  0  0  0  0  0
    0.2896   -0.8086   -2.1169 C   0  0  0  0  0  0  0  0  0  0  0  0
    1.4414   -0.6630   -3.0327 C   0  0  0  0  0  0  0  0  0  0  0  0
    0.9934   -3.0190    1.1442 H   0  0  0  0  0  0  0  0  0  0  0  0
   -0.3179   -3.7027    0.0683 H   0  0  0  0  0  0  0  0  0  0  0  0
   -0.3003   -3.9599    1.8908 H   0  0  0  0  0  0  0  0  0  0  0  0
   -2.0122   -2.4178    1.2524 H   0  0  0  0  0  0  0  0  0  0  0  0
   -0.7575   -1.5473    2.1171 H   0  0  0  0  0  0  0  0  0  0  0  0
   -1.4465   -1.7836   -0.8109 H   0  0  0  0  0  0  0  0  0  0  0  0
   -1.3940    0.4558    1.2479 H   0  0  0  0  0  0  0  0  0  0  0  0
   -3.1091   -0.9540    1.5082 H   0  0  0  0  0  0  0  0  0  0  0  0
   -3.4737   -1.1427   -0.2141 H   0  0  0  0  0  0  0  0  0  0  0  0
   -4.1086    1.0296    1.7914 H   0  0  0  0  0  0  0  0  0  0  0  0
   -5.1316    0.2559    0.5274 H   0  0  0  0  0  0  0  0  0  0  0  0
   -4.1644    1.5646   -1.2300 H   0  0  0  0  0  0  0  0  0  0  0  0
   -4.4983    3.7426   -0.0129 H   0  0  0  0  0  0  0  0  0  0  0  0
   -2.3967    3.2814   -0.5154 H   0  0  0  0  0  0  0  0  0  0  0  0
   -2.3336    2.3330    1.0829 H   0  0  0  0  0  0  0  0  0  0  0  0
   -0.7506    1.7331   -0.8211 H   0  0  0  0  0  0  0  0  0  0  0  0
   -2.2911    1.0516   -1.6302 H   0  0  0  0  0  0  0  0  0  0  0  0
    0.7685   -2.1917   -0.6688 H   0  0  0  0  0  0  0  0  0  0  0  0
    1.3584    0.7680   -0.3199 H   0  0  0  0  0  0  0  0  0  0  0  0
    3.0831   -1.1589   -1.4264 H   0  0  0  0  0  0  0  0  0  0  0  0
    3.4692   -1.1546    0.2612 H   0  0  0  0  0  0  0  0  0  0  0  0
    4.7227    0.5602   -0.8778 H   0  0  0  0  0  0  0  0  0  0  0  0
    3.1658    1.5487   -1.0708 H   0  0  0  0  0  0  0  0  0  0  0  0
    4.4704    0.2673    1.3804 H   0  0  0  0  0  0  0  0  0  0  0  0
    5.4530    2.0765    0.9476 H   0  0  0  0  0  0  0  0  0  0  0  0
    1.8878    1.9448    1.4302 H   0  0  0  0  0  0  0  0  0  0  0  0
    2.7260    1.0858    2.7745 H   0  0  0  0  0  0  0  0  0  0  0  0
    2.3624   -1.0070    1.9269 H   0  0  0  0  0  0  0  0  0  0  0  0
    0.8063   -0.0121    2.0473 H   0  0  0  0  0  0  0  0  0  0  0  0
   -0.3101   -1.6950   -2.5512 H   0  0  0  0  0  0  0  0  0  0  0  0
   -0.3447    0.1137   -2.3233 H   0  0  0  0  0  0  0  0  0  0  0  0
    1.9856   -1.5910   -3.2976 H   0  0  0  0  0  0  0  0  0  0  0  0
    0.9469   -0.3607   -4.0487 H   0  0  0  0  0  0  0  0  0  0  0  0
    2.0596    0.2305   -2.8479 H   0  0  0  0  0  0  0  0  0  0  0  0
    0.9934   -3.0190    1.1442 H   0  0  0  0  0  0  0  0  0  0  0  0
   -0.3179   -3.7027    0.0683 H   0  0  0  0  0  0  0  0  0  0  0  0
   -0.3003   -3.9599    1.8908 H   0  0  0  0  0  0  0  0  0  0  0  0
   -2.0122   -2.4178    1.2524 H   0  0  0  0  0  0  0  0  0  0  0  0
   -0.7575   -1.5473    2.1171 H   0  0  0  0  0  0  0  0  0  0  0  0
   -1.4465   -1.7836   -0.8109 H   0  0  0  0  0  0  0  0  0  0  0  0
   -1.3940    0.4558    1.2479 H   0  0  0  0  0  0  0  0  0  0  0  0
   -3.1091   -0.9540    1.5082 H   0  0  0  0  0  0  0  0  0  0  0  0
   -3.4737   -1.1427   -0.2141 H   0  0  0  0  0  0  0  0  0  0  0  0
   -4.1086    1.0296    1.7914 H   0  0  0  0  0  0  0  0  0  0  0  0
   -5.1316    0.2559    0.5274 H   0  0  0  0  0  0  0  0  0  0  0  0
   -4.1644    1.5646   -1.2300 H   0  0  0  0  0  0  0  0  0  0  0  0
   -4.4983    3.7426   -0.0129 H   0  0  0  0  0  0  0  0  0  0  0  0
   -2.3967    3.2814   -0.5154 H   0  0  0  0  0  0  0  0  0  0  0  0
   -2.3336    2.3330    1.0829 H   0  0  0  0  0  0  0  0  0  0  0  0
   -0.7506    1.7331   -0.8211 H   0  0  0  0  0  0  0  0  0  0  0  0
   -2.2911    1.0516   -1.6302 H   0  0  0  0  0  0  0  0  0  0  0  0
    0.7685   -2.1917   -0.6688 H   0  0  0  0  0  0  0  0  0  0  0  0
    1.3584    0.7680   -0.3199 H   0  0  0  0  0  0  0  0  0  0  0  0
    3.0831   -1.1589   -1.4264 H   0  0  0  0  0  0  0  0  0  0  0  0
    3.4692   -1.1546    0.2612 H   0  0  0  0  0  0  0  0  0  0  0  0
    4.7227    0.5602   -0.8778 H   0  0  0  0  0  0  0  0  0  0  0  0
    3.1658    1.5487   -1.0708 H   0  0  0  0  0  0  0  0  0  0  0  0
    4.4704    0.2673    1.3804 H   0  0  0  0  0  0  0  0  0  0  0  0
    5.4530    2.0765    0.9476 H   0  0  0  0  0  0  0  0  0  0  0  0
    1.8878    1.9448    1.4302 H   0  0  0  0  0  0  0  0  0  0  0  0
    2.7260    1.0858    2.7745 H   0  0  0  0  0  0  0  0  0  0  0  0
    2.3624   -1.0070    1.9269 H   0  0  0  0  0  0  0  0  0  0  0  0
    0.8063   -0.0121    2.0473 H   0  0  0  0  0  0  0  0  0  0  0  0
   -0.3101   -1.6950   -2.5512 H   0  0  0  0  0  0  0  0  0  0  0  0
   -0.3447    0.1137   -2.3233 H   0  0  0  0  0  0  0  0  0  0  0  0
    1.9856   -1.5910   -3.2976 H   0  0  0  0  0  0  0  0  0  0  0  0
    0.9469   -0.3607   -4.0487 H   0  0  0  0  0  0  0  0  0  0  0  0
    2.0596    0.2305   -2.8479 H   0  0  0  0  0  0  0  0  0  0  0  0
  1  2  1  0
  2  3  1  0
  3  4  1  0
  4  5  1  0
  5  6  1  0
  6  7  1  0
  7  8  1  0
  7  9  1  0
  4 10  1  0
  9 10  1  0
  3 11  1  0
 11 12  1  0
 12 13  1  0
 13 14  1  0
 14 15  1  0
 15 16  1  0
 15 17  1  0
 12 18  1  0
 17 18  1  0
 11 19  1  0
 19 20  1  0
 21 22  1  0
 22 23  1  0
 23 24  1  0
 24 25  1  0
 25 26  1  0
 26 27  1  0
 27 28  1  0
 27 29  1  0
 24 30  1  0
 29 30  1  0
 23 31  1  0
 31 32  1  0
 32 33  1  0
 33 34  1  0
 34 35  1  0
 35 36  1  0
 35 37  1  0
 32 38  1  0
 37 38  1  0
 31 39  1  0
 39 40  1  0
  1 41  1  0
  1 42  1  0
  1 43  1  0
  2 44  1  0
  2 45  1  0
  3 46  1  0
  4 47  1  0
  5 48  1  0
  5 49  1  0
  6 50  1  0
  6 51  1  0
  7 52  1  0
  8 53  1  0
  9 54  1  0
  9 55  1  0
 10 56  1  0
 10 57  1  0
 11 58  1  0
 12 59  1  0
 13 60  1  0
 13 61  1  0
 14 62  1  0
 14 63  1  0
 15 64  1  0
 16 65  1  0
 17 66  1  0
 17 67  1  0
 18 68  1  0
 18 69  1  0
 19 70  1  0
 19 71  1  0
 20 72  1  0
 20 73  1  0
 20 74  1  0
 21 75  1  0
 21 76  1  0
 21 77  1  0
 22 78  1  0
 22 79  1  0
 23 80  1  0
 24 81  1  0
 25 82  1  0
 25 83  1  0
 26 84  1  0
 26 85  1  0
 27 86  1  0
 28 87  1  0
 29 88  1  0
 29 89  1  0
 30 90  1  0
 30 91  1  0
 31 92  1  0
 32 93  1  0
 33 94  1  0
 33 95  1  0
 34 96  1  0
 34 97  1  0
 35 98  1  0
 36 99  1  0
 37100  1  0
 37101  1  0
 38102  1  0
 38103  1  0
 39104  1  0
 39105  1  0
 40106  1  0
 40107  1  0
 40108  1  0
M  END
>  <PDBID>  (1) 
4ZN7

>  <PDB ID>  (1) 
4ZN7

>  <Generic Name>  (1) 
Diethylstilbestrol

>  <Brand Name>  (1) 
Honvol Ampoules 250mg#Honvol Tablets 100mg#Stilbestrol 0.5mg Tablet#Stilbestrol 1.0mg Tablet#Stilbestrol Tab 1mg#Stilbestrol Tablets 0.1 mg#Stilbestrol Tablets 0.5 mg#Stilbestrol Tablets 1.0 mg#Stilboestrol Tab 0.1mg#Stilboestrol Tab 0.5mg#Distilbene#Stilbestrol#Stilbetin

>  <DrugBank ID>  (1) 
DB00255

>  <ATC Codes>  (1) 
L02AA01#G03CC05#L02AA04#G03CB02

>  <Ligand ID>  (1) 
DES

>  <Target Name>  (1) 
Estrogen receptor

>  <UniProt ID>  (1) 
P03372

>  <PDB ID.1>  (1) 
4ZN7

>  <Seq. Identity>  (1) 
93%

$$$$
