PDB_DB00864_03
     RDKit          3D

140143  0  0  0  0  0  0  0  0999 V2000
    1.5213   -1.9601   -1.0495 C   0  0  0  0  0  0  0  0  0  0  0  0
    0.7383   -2.8578   -0.0976 C   0  0  2  0  0  0  0  0  0  0  0  0
    1.6642   -3.8830    0.5144 C   0  0  0  0  0  0  0  0  0  0  0  0
    1.9615   -5.0172   -0.4254 C   0  0  0  0  0  0  0  0  0  0  0  0
    0.7583   -5.4925   -1.1712 C   0  0  0  0  0  0  0  0  0  0  0  0
   -0.0365   -4.3863   -1.7961 C   0  0  0  0  0  0  0  0  0  0  0  0
   -1.4335   -3.8825    0.0883 C   0  0  0  0  0  0  0  0  0  0  0  0
   -2.3882   -2.8085    0.5150 C   0  0  0  0  0  0  0  0  0  0  0  0
   -3.4246   -2.4892   -0.5672 C   0  0  1  0  0  0  0  0  0  0  0  0
   -4.3831   -3.5900   -0.7638 C   0  0  1  0  0  0  0  0  0  0  0  0
   -5.7907   -3.3765   -0.3555 C   0  0  0  0  0  0  0  0  0  0  0  0
   -6.0845   -1.9692    0.1805 C   0  0  1  0  0  0  0  0  0  0  0  0
   -5.2352   -1.0385   -0.5978 C   0  0  1  0  0  0  0  0  0  0  0  0
   -5.5905    0.4284   -0.4578 C   0  0  2  0  0  0  0  0  0  0  0  0
   -5.5224    0.9296    0.9424 C   0  0  0  0  0  0  0  0  0  0  0  0
   -4.3083    1.7555    1.2831 C   0  0  2  0  0  0  0  0  0  0  0  0
   -3.7909    2.5926    0.1520 C   0  0  0  0  0  0  0  0  0  0  0  0
   -3.0125    3.8096    0.6828 C   0  0  0  0  0  0  0  0  0  0  0  0
   -1.9261    4.1048   -0.2782 C   0  0  0  0  0  0  0  0  0  0  0  0
   -0.6594    4.6583    0.2550 C   0  0  2  0  0  0  0  0  0  0  0  0
    0.1538    3.7101    1.1034 C   0  0  0  0  0  0  0  0  0  0  0  0
    0.8152    2.6280    0.2848 C   0  0  0  0  0  0  0  0  0  0  0  0
    0.8661    1.2996    0.9483 C   0  0  1  0  0  0  0  0  0  0  0  0
    2.2817    0.7008    0.8787 C   0  0  2  0  0  0  0  0  0  0  0  0
    2.5378    0.0133   -0.4301 C   0  0  1  0  0  0  0  0  0  0  0  0
    3.9227    0.5087   -0.9486 C   0  0  0  0  0  0  0  0  0  0  0  0
    4.9713    0.1443    0.0258 C   0  0  0  0  0  0  0  0  0  0  0  0
    6.3717    0.5463   -0.2137 C   0  0  1  0  0  0  0  0  0  0  0  0
    7.1911    0.0420    0.9641 C   0  0  0  0  0  0  0  0  0  0  0  0
    8.4119   -0.7246    0.5879 C   0  0  2  0  0  0  0  0  0  0  0  0
    9.2824    0.0055   -0.4085 C   0  0  1  0  0  0  0  0  0  0  0  0
    8.4595    0.7533   -1.4241 C   0  0  0  0  0  0  0  0  0  0  0  0
    7.0381    0.1272   -1.4686 C   0  0  0  0  0  0  0  0  0  0  0  0
   -4.3183   -4.1447   -2.1986 C   0  0  0  0  0  0  0  0  0  0  0  0
   -3.1678    0.8802    1.8187 C   0  0  0  0  0  0  0  0  0  0  0  0
   -4.0447    4.9458    0.7008 C   0  0  0  0  0  0  0  0  0  0  0  0
   -0.7526    5.9921    0.9130 C   0  0  0  0  0  0  0  0  0  0  0  0
   -1.2522    7.0840   -0.0082 C   0  0  0  0  0  0  0  0  0  0  0  0
   -0.2884    7.2205   -1.1953 C   0  0  0  0  0  0  0  0  0  0  0  0
    2.5323   -0.2123    2.0380 C   0  0  0  0  0  0  0  0  0  0  0  0
    4.1322   -0.2284   -2.2587 C   0  0  0  0  0  0  0  0  0  0  0  0
   -8.1080   -1.7114    1.2062 C   0  0  0  0  0  0  0  0  0  0  0  0
   -6.7425    1.5231   -2.1794 C   0  0  0  0  0  0  0  0  0  0  0  0
    8.6847   -2.9545    1.0731 C   0  0  0  0  0  0  0  0  0  0  0  0
   -0.3826   -3.4068   -0.7864 N   0  0  0  0  0  0  0  0  0  0  0  0
    2.5375   -1.3543   -0.3376 O   0  0  0  0  0  0  0  0  0  0  0  0
    0.6314   -1.1058   -1.6404 O   0  0  0  0  0  0  0  0  0  0  0  0
   -0.9509   -4.5160    1.2296 O   0  0  0  0  0  0  0  0  0  0  0  0
   -3.1091   -3.2418    1.6313 O   0  0  0  0  0  0  0  0  0  0  0  0
   -3.9302   -1.2565   -0.2778 O   0  0  0  0  0  0  0  0  0  0  0  0
   -2.6649   -2.3507   -1.7550 O   0  0  0  0  0  0  0  0  0  0  0  0
   -7.4469   -1.7845    0.0085 O   0  0  0  0  0  0  0  0  0  0  0  0
   -6.7956    0.7186   -1.0919 O   0  0  0  0  0  0  0  0  0  0  0  0
   -0.4803    3.2454    2.2235 O   0  0  0  0  0  0  0  0  0  0  0  0
    0.5447    1.3312    2.2998 O   0  0  0  0  0  0  0  0  0  0  0  0
    8.1377   -2.0316    0.2155 O   0  0  0  0  0  0  0  0  0  0  0  0
   10.1312    0.8585    0.3013 O   0  0  0  0  0  0  0  0  0  0  0  0
    1.9205   -2.6474   -1.8390 H   0  0  0  0  0  0  0  0  0  0  0  0
    0.3650   -2.2020    0.7023 H   0  0  0  0  0  0  0  0  0  0  0  0
    1.3532   -4.2566    1.4895 H   0  0  0  0  0  0  0  0  0  0  0  0
    2.6430   -3.3493    0.6939 H   0  0  0  0  0  0  0  0  0  0  0  0
    2.7777   -4.7352   -1.1244 H   0  0  0  0  0  0  0  0  0  0  0  0
    2.3498   -5.8593    0.1901 H   0  0  0  0  0  0  0  0  0  0  0  0
    1.1270   -6.1417   -2.0142 H   0  0  0  0  0  0  0  0  0  0  0  0
    0.0984   -6.1250   -0.5456 H   0  0  0  0  0  0  0  0  0  0  0  0
   -0.9893   -4.8354   -2.1477 H   0  0  0  0  0  0  0  0  0  0  0  0
    0.5054   -3.8894   -2.6034 H   0  0  0  0  0  0  0  0  0  0  0  0
   -1.9980   -4.6510   -0.4835 H   0  0  0  0  0  0  0  0  0  0  0  0
   -1.8362   -1.8953    0.8125 H   0  0  0  0  0  0  0  0  0  0  0  0
   -4.0111   -4.4655   -0.1447 H   0  0  0  0  0  0  0  0  0  0  0  0
   -6.4413   -3.4990   -1.2494 H   0  0  0  0  0  0  0  0  0  0  0  0
   -6.1765   -4.1433    0.3741 H   0  0  0  0  0  0  0  0  0  0  0  0
   -5.7801   -2.0170    1.2514 H   0  0  0  0  0  0  0  0  0  0  0  0
   -5.3497   -1.2636   -1.7001 H   0  0  0  0  0  0  0  0  0  0  0  0
   -4.8365    0.9874   -1.0505 H   0  0  0  0  0  0  0  0  0  0  0  0
   -6.4099    1.5371    1.2369 H   0  0  0  0  0  0  0  0  0  0  0  0
   -5.5012    0.0739    1.6649 H   0  0  0  0  0  0  0  0  0  0  0  0
   -4.5809    2.4033    2.1683 H   0  0  0  0  0  0  0  0  0  0  0  0
   -4.6020    2.9430   -0.5149 H   0  0  0  0  0  0  0  0  0  0  0  0
   -3.0621    1.9534   -0.4198 H   0  0  0  0  0  0  0  0  0  0  0  0
   -2.7173    3.5277    1.6991 H   0  0  0  0  0  0  0  0  0  0  0  0
   -2.3527    4.7515   -1.0895 H   0  0  0  0  0  0  0  0  0  0  0  0
   -1.6665    3.1505   -0.8263 H   0  0  0  0  0  0  0  0  0  0  0  0
   -0.0011    4.8255   -0.6597 H   0  0  0  0  0  0  0  0  0  0  0  0
    1.0104    4.3474    1.4857 H   0  0  0  0  0  0  0  0  0  0  0  0
    0.2666    2.5371   -0.6977 H   0  0  0  0  0  0  0  0  0  0  0  0
    1.8668    2.9107   -0.0183 H   0  0  0  0  0  0  0  0  0  0  0  0
    0.2005    0.5484    0.4829 H   0  0  0  0  0  0  0  0  0  0  0  0
    2.9555    1.5781    0.9528 H   0  0  0  0  0  0  0  0  0  0  0  0
    1.7655    0.3342   -1.1520 H   0  0  0  0  0  0  0  0  0  0  0  0
    3.8657    1.5808   -1.1882 H   0  0  0  0  0  0  0  0  0  0  0  0
    4.9612   -0.9770    0.2379 H   0  0  0  0  0  0  0  0  0  0  0  0
    4.6769    0.5771    1.0213 H   0  0  0  0  0  0  0  0  0  0  0  0
    6.4320    1.6848   -0.1384 H   0  0  0  0  0  0  0  0  0  0  0  0
    6.5557   -0.6469    1.5919 H   0  0  0  0  0  0  0  0  0  0  0  0
    7.4396    0.8779    1.6511 H   0  0  0  0  0  0  0  0  0  0  0  0
    9.0347   -0.8071    1.5286 H   0  0  0  0  0  0  0  0  0  0  0  0
    9.9102   -0.7254   -0.9375 H   0  0  0  0  0  0  0  0  0  0  0  0
    8.8950    0.8018   -2.4228 H   0  0  0  0  0  0  0  0  0  0  0  0
    8.3146    1.7877   -1.0566 H   0  0  0  0  0  0  0  0  0  0  0  0
    6.6168    0.5366   -2.3993 H   0  0  0  0  0  0  0  0  0  0  0  0
    7.1142   -0.9549   -1.5545 H   0  0  0  0  0  0  0  0  0  0  0  0
   -3.5430   -4.9318   -2.2955 H   0  0  0  0  0  0  0  0  0  0  0  0
   -3.9828   -3.2936   -2.8302 H   0  0  0  0  0  0  0  0  0  0  0  0
   -5.3069   -4.5321   -2.5198 H   0  0  0  0  0  0  0  0  0  0  0  0
   -2.4805    0.7100    0.9670 H   0  0  0  0  0  0  0  0  0  0  0  0
   -3.5470   -0.0905    2.1742 H   0  0  0  0  0  0  0  0  0  0  0  0
   -2.6108    1.4169    2.6202 H   0  0  0  0  0  0  0  0  0  0  0  0
   -4.1322    5.3974   -0.2901 H   0  0  0  0  0  0  0  0  0  0  0  0
   -5.0642    4.5309    0.9511 H   0  0  0  0  0  0  0  0  0  0  0  0
   -3.8136    5.6688    1.5110 H   0  0  0  0  0  0  0  0  0  0  0  0
   -1.4108    6.0095    1.8026 H   0  0  0  0  0  0  0  0  0  0  0  0
    0.2437    6.3259    1.2705 H   0  0  0  0  0  0  0  0  0  0  0  0
   -2.2272    6.8537   -0.4631 H   0  0  0  0  0  0  0  0  0  0  0  0
   -1.2503    8.0327    0.5608 H   0  0  0  0  0  0  0  0  0  0  0  0
   -0.6172    6.5531   -2.0256 H   0  0  0  0  0  0  0  0  0  0  0  0
   -0.3053    8.2634   -1.5330 H   0  0  0  0  0  0  0  0  0  0  0  0
    0.7436    6.9822   -0.8734 H   0  0  0  0  0  0  0  0  0  0  0  0
    3.1509   -1.1073    1.7850 H   0  0  0  0  0  0  0  0  0  0  0  0
    3.1005    0.3461    2.8094 H   0  0  0  0  0  0  0  0  0  0  0  0
    1.5820   -0.5082    2.5348 H   0  0  0  0  0  0  0  0  0  0  0  0
    4.4218    0.4447   -3.0962 H   0  0  0  0  0  0  0  0  0  0  0  0
    3.1751   -0.7287   -2.5829 H   0  0  0  0  0  0  0  0  0  0  0  0
    4.8666   -1.0285   -2.1656 H   0  0  0  0  0  0  0  0  0  0  0  0
   -7.7004   -0.8536    1.7771 H   0  0  0  0  0  0  0  0  0  0  0  0
   -9.1937   -1.5422    1.0504 H   0  0  0  0  0  0  0  0  0  0  0  0
   -7.9390   -2.6144    1.8335 H   0  0  0  0  0  0  0  0  0  0  0  0
   -6.3507    2.5311   -2.0649 H   0  0  0  0  0  0  0  0  0  0  0  0
   -6.0348    1.0234   -2.9138 H   0  0  0  0  0  0  0  0  0  0  0  0
   -7.7180    1.5005   -2.7429 H   0  0  0  0  0  0  0  0  0  0  0  0
    8.3201   -2.8708    2.1282 H   0  0  0  0  0  0  0  0  0  0  0  0
    9.8020   -2.9611    1.0428 H   0  0  0  0  0  0  0  0  0  0  0  0
    8.3662   -3.9631    0.7154 H   0  0  0  0  0  0  0  0  0  0  0  0
    0.7122   -1.1109   -2.6451 H   0  0  0  0  0  0  0  0  0  0  0  0
   -1.3575   -5.4194    1.3650 H   0  0  0  0  0  0  0  0  0  0  0  0
   -2.8738   -4.1533    1.8829 H   0  0  0  0  0  0  0  0  0  0  0  0
   -2.9613   -1.5814   -2.2856 H   0  0  0  0  0  0  0  0  0  0  0  0
   -0.4786    3.8661    2.9931 H   0  0  0  0  0  0  0  0  0  0  0  0
   -0.1609    0.6910    2.5532 H   0  0  0  0  0  0  0  0  0  0  0  0
    9.6090    1.1934    1.0712 H   0  0  0  0  0  0  0  0  0  0  0  0
  1  2  1  0
  2  3  1  0
  3  4  1  0
  4  5  1  0
  5  6  1  0
  7  8  1  0
  8  9  1  0
  9 10  1  0
 10 11  1  0
 11 12  1  0
 12 13  1  0
 13 14  1  0
 14 15  1  0
 15 16  1  0
 16 17  1  0
 17 18  1  0
 18 19  1  0
 19 20  1  0
 20 21  1  0
 21 22  1  0
 22 23  1  0
 23 24  1  0
 24 25  1  0
 25 26  1  0
 26 27  1  0
 27 28  1  0
 28 29  1  0
 29 30  1  0
 30 31  1  0
 31 32  1  0
 28 33  1  0
 32 33  1  0
 10 34  1  0
 16 35  1  0
 18 36  1  0
 20 37  1  0
 37 38  1  0
 38 39  1  0
 24 40  1  0
 26 41  1  0
  2 45  1  0
  6 45  1  0
  7 45  1  0
  1 46  1  0
 25 46  1  0
  1 47  1  0
  7 48  1  0
  8 49  1  0
  9 50  1  0
 13 50  1  0
  9 51  1  6
 12 52  1  0
 42 52  1  0
 14 53  1  0
 43 53  1  0
 21 54  1  0
 23 55  1  0
 30 56  1  0
 44 56  1  0
 31 57  1  0
  1 58  1  0
  2 59  1  1
  3 60  1  0
  3 61  1  0
  4 62  1  0
  4 63  1  0
  5 64  1  0
  5 65  1  0
  6 66  1  0
  6 67  1  0
  7 68  1  0
  8 69  1  0
 10 70  1  1
 11 71  1  0
 11 72  1  0
 12 73  1  1
 13 74  1  6
 14 75  1  6
 15 76  1  0
 15 77  1  0
 16 78  1  1
 17 79  1  0
 17 80  1  0
 18 81  1  0
 19 82  1  0
 19 83  1  0
 20 84  1  6
 21 85  1  0
 22 86  1  0
 22 87  1  0
 23 88  1  6
 24 89  1  1
 25 90  1  6
 26 91  1  0
 27 92  1  0
 27 93  1  0
 28 94  1  6
 29 95  1  0
 29 96  1  0
 30 97  1  1
 31 98  1  6
 32 99  1  0
 32100  1  0
 33101  1  0
 33102  1  0
 34103  1  0
 34104  1  0
 34105  1  0
 35106  1  0
 35107  1  0
 35108  1  0
 36109  1  0
 36110  1  0
 36111  1  0
 37112  1  0
 37113  1  0
 38114  1  0
 38115  1  0
 39116  1  0
 39117  1  0
 39118  1  0
 40119  1  0
 40120  1  0
 40121  1  0
 41122  1  0
 41123  1  0
 41124  1  0
 42125  1  0
 42126  1  0
 42127  1  0
 43128  1  0
 43129  1  0
 43130  1  0
 44131  1  0
 44132  1  0
 44133  1  0
 47134  1  0
 48135  1  0
 49136  1  0
 51137  1  0
 54138  1  0
 55139  1  0
 57140  1  0
M  END
>  <PDBID>  (1) 
1FKF

>  <PDB ID>  (1) 
1FKF

>  <Generic Name>  (1) 
Tacrolimus

>  <Brand Name>  (1) 
Ach-tacrolimus#Advagraf#Astagraf XL#Envarsus XR#Hecoria#Prograf#Protopic#Ran-tacrolimus#Sandoz Tacrolimus#Tacrolimus

>  <DrugBank ID>  (1) 
DB00864

>  <ATC Codes>  (1) 
D11AH01#L04AD02

>  <Ligand ID>  (1) 
FK5

>  <Target Name>  (1) 
Peptidyl-prolyl cis-trans isomerase FKBP1A

>  <UniProt ID>  (1) 
P62942

>  <PDB ID.1>  (1) 
1FKF

>  <Seq. Identity>  (1) 
100%

$$$$
