PDB_DB00390_01
     RDKit          3D

246260  0  0  0  0  0  0  0  0999 V2000
    3.3848    1.1155   -1.6006 C   0  0  0  0  0  0  0  0  0  0  0  0
    1.8969    1.0594   -1.6187 C   0  0  0  0  0  0  0  0  0  0  0  0
    1.3791   -0.2627   -1.0825 C   0  0  2  0  0  0  0  0  0  0  0  0
    0.0180   -0.0976   -0.8765 O   0  0  0  0  0  0  0  0  0  0  0  0
    2.1468   -0.6888    0.1147 C   0  0  0  0  0  0  0  0  0  0  0  0
    3.0032    0.3790    0.7406 C   0  0  1  0  0  0  0  0  0  0  0  0
    3.6255   -0.2052    1.9782 C   0  0  0  0  0  0  0  0  0  0  0  0
    4.9400   -0.9066    1.7204 C   0  0  0  0  0  0  0  0  0  0  0  0
    5.8911    0.0321    0.9975 C   0  0  2  0  0  0  0  0  0  0  0  0
    5.2749    0.3386   -0.3186 C   0  0  1  0  0  0  0  0  0  0  0  0
    3.9634    1.0331   -0.1847 C   0  0  1  0  0  0  0  0  0  0  0  0
    6.2617    1.1894   -1.0859 C   0  0  0  0  0  0  0  0  0  0  0  0
    7.4818    0.3533   -1.2612 C   0  0  1  0  0  0  0  0  0  0  0  0
    8.2927    0.8666   -2.2416 O   0  0  0  0  0  0  0  0  0  0  0  0
    8.2386    0.0996    0.0553 C   0  0  1  0  0  0  0  0  0  0  0  0
    7.2312   -0.5452    0.9897 C   0  0  1  0  0  0  0  0  0  0  0  0
    7.7502   -0.4286    2.2968 O   0  0  0  0  0  0  0  0  0  0  0  0
    7.3304   -2.0056    0.6331 C   0  0  0  0  0  0  0  0  0  0  0  0
    8.8433   -2.1720    0.6593 C   0  0  0  0  0  0  0  0  0  0  0  0
    9.2613   -0.9175   -0.1425 C   0  0  2  0  0  0  0  0  0  0  0  0
    8.6096    1.4213    0.5928 C   0  0  0  0  0  0  0  0  0  0  0  0
    4.1280    2.4828    0.2755 C   0  0  0  0  0  0  0  0  0  0  0  0
   -0.7570   -0.9306   -1.6716 C   0  0  1  0  0  0  0  0  0  0  0  0
   -5.3565    0.7497   -0.0789 C   0  0  2  0  0  0  0  0  0  0  0  0
  -10.2663    0.0641    0.5116 C   0  0  2  0  0  0  0  0  0  0  0  0
   10.6799   -0.7117    0.1449 C   0  0  1  0  0  0  0  0  0  0  0  0
   11.3743    0.4006   -0.5743 C   0  0  0  0  0  0  0  0  0  0  0  0
   12.1888    1.0602    0.3660 O   0  0  0  0  0  0  0  0  0  0  0  0
   11.1434   -0.6590    1.5507 C   0  0  0  0  0  0  0  0  0  0  0  0
   12.4054    0.2041    1.4114 C   0  0  0  0  0  0  0  0  0  0  0  0
   13.4727   -0.6244    1.0715 O   0  0  0  0  0  0  0  0  0  0  0  0
   -1.5107   -1.8364   -0.7469 C   0  0  0  0  0  0  0  0  0  0  0  0
   -6.3310    1.1378   -1.1508 C   0  0  0  0  0  0  0  0  0  0  0  0
  -10.9161   -0.5637    1.7087 C   0  0  0  0  0  0  0  0  0  0  0  0
   -2.5668   -1.1043    0.0455 C   0  0  2  0  0  0  0  0  0  0  0  0
   -3.4462   -1.9904    0.6501 O   0  0  0  0  0  0  0  0  0  0  0  0
   -7.5570    1.8011   -0.5778 C   0  0  2  0  0  0  0  0  0  0  0  0
   -7.2637    3.0095    0.0209 O   0  0  0  0  0  0  0  0  0  0  0  0
  -12.3958   -0.2802    1.7850 C   0  0  2  0  0  0  0  0  0  0  0  0
  -12.9101   -1.1193    2.7879 O   0  0  0  0  0  0  0  0  0  0  0  0
   -3.3467   -0.1460   -0.8779 C   0  0  2  0  0  0  0  0  0  0  0  0
   -4.6612   -0.3544   -0.5878 O   0  0  0  0  0  0  0  0  0  0  0  0
   -8.1061    0.7819    0.4304 C   0  0  2  0  0  0  0  0  0  0  0  0
   -9.3815    1.0703    0.8319 O   0  0  0  0  0  0  0  0  0  0  0  0
  -13.1363   -0.6227    0.5147 C   0  0  2  0  0  0  0  0  0  0  0  0
  -13.7227   -1.8865    0.5829 O   0  0  0  0  0  0  0  0  0  0  0  0
   -2.9504   -0.4202   -2.3150 C   0  0  2  0  0  0  0  0  0  0  0  0
   -1.6061   -0.2795   -2.5089 O   0  0  0  0  0  0  0  0  0  0  0  0
   -7.0841    0.7401    1.5368 C   0  0  2  0  0  0  0  0  0  0  0  0
   -5.8069    0.5679    1.1750 O   0  0  0  0  0  0  0  0  0  0  0  0
  -12.1558   -0.5823   -0.6262 C   0  0  2  0  0  0  0  0  0  0  0  0
  -11.2366    0.4478   -0.4166 O   0  0  0  0  0  0  0  0  0  0  0  0
   -3.6841    0.4235   -3.2973 C   0  0  0  0  0  0  0  0  0  0  0  0
   -7.5410   -0.2351    2.6333 C   0  0  0  0  0  0  0  0  0  0  0  0
  -12.8933   -0.3462   -1.9073 C   0  0  0  0  0  0  0  0  0  0  0  0
    3.3848    1.1155   -1.6006 C   0  0  0  0  0  0  0  0  0  0  0  0
    1.8969    1.0594   -1.6187 C   0  0  0  0  0  0  0  0  0  0  0  0
    1.3791   -0.2627   -1.0825 C   0  0  2  0  0  0  0  0  0  0  0  0
    0.0180   -0.0976   -0.8765 O   0  0  0  0  0  0  0  0  0  0  0  0
    2.1468   -0.6888    0.1147 C   0  0  0  0  0  0  0  0  0  0  0  0
    3.0032    0.3790    0.7406 C   0  0  1  0  0  0  0  0  0  0  0  0
    3.6255   -0.2052    1.9782 C   0  0  0  0  0  0  0  0  0  0  0  0
    4.9400   -0.9066    1.7204 C   0  0  0  0  0  0  0  0  0  0  0  0
    5.8911    0.0321    0.9975 C   0  0  2  0  0  0  0  0  0  0  0  0
    5.2749    0.3386   -0.3186 C   0  0  1  0  0  0  0  0  0  0  0  0
    3.9634    1.0331   -0.1847 C   0  0  1  0  0  0  0  0  0  0  0  0
    6.2617    1.1894   -1.0859 C   0  0  0  0  0  0  0  0  0  0  0  0
    7.4818    0.3533   -1.2612 C   0  0  1  0  0  0  0  0  0  0  0  0
    8.2927    0.8666   -2.2416 O   0  0  0  0  0  0  0  0  0  0  0  0
    8.2386    0.0996    0.0553 C   0  0  1  0  0  0  0  0  0  0  0  0
    7.2312   -0.5452    0.9897 C   0  0  1  0  0  0  0  0  0  0  0  0
    7.7502   -0.4286    2.2968 O   0  0  0  0  0  0  0  0  0  0  0  0
    7.3304   -2.0056    0.6331 C   0  0  0  0  0  0  0  0  0  0  0  0
    8.8433   -2.1720    0.6593 C   0  0  0  0  0  0  0  0  0  0  0  0
    9.2613   -0.9175   -0.1425 C   0  0  2  0  0  0  0  0  0  0  0  0
    8.6096    1.4213    0.5928 C   0  0  0  0  0  0  0  0  0  0  0  0
    4.1280    2.4828    0.2755 C   0  0  0  0  0  0  0  0  0  0  0  0
   -0.7570   -0.9306   -1.6716 C   0  0  1  0  0  0  0  0  0  0  0  0
   -5.3565    0.7497   -0.0789 C   0  0  2  0  0  0  0  0  0  0  0  0
  -10.2663    0.0641    0.5116 C   0  0  2  0  0  0  0  0  0  0  0  0
   10.6799   -0.7117    0.1449 C   0  0  1  0  0  0  0  0  0  0  0  0
   11.3743    0.4006   -0.5743 C   0  0  0  0  0  0  0  0  0  0  0  0
   12.1888    1.0602    0.3660 O   0  0  0  0  0  0  0  0  0  0  0  0
   11.1434   -0.6590    1.5507 C   0  0  0  0  0  0  0  0  0  0  0  0
   12.4054    0.2041    1.4114 C   0  0  0  0  0  0  0  0  0  0  0  0
   13.4727   -0.6244    1.0715 O   0  0  0  0  0  0  0  0  0  0  0  0
   -1.5107   -1.8364   -0.7469 C   0  0  0  0  0  0  0  0  0  0  0  0
   -6.3310    1.1378   -1.1508 C   0  0  0  0  0  0  0  0  0  0  0  0
  -10.9161   -0.5637    1.7087 C   0  0  0  0  0  0  0  0  0  0  0  0
   -2.5668   -1.1043    0.0455 C   0  0  2  0  0  0  0  0  0  0  0  0
   -3.4462   -1.9904    0.6501 O   0  0  0  0  0  0  0  0  0  0  0  0
   -7.5570    1.8011   -0.5778 C   0  0  2  0  0  0  0  0  0  0  0  0
   -7.2637    3.0095    0.0209 O   0  0  0  0  0  0  0  0  0  0  0  0
  -12.3958   -0.2802    1.7850 C   0  0  2  0  0  0  0  0  0  0  0  0
  -12.9101   -1.1193    2.7879 O   0  0  0  0  0  0  0  0  0  0  0  0
   -3.3467   -0.1460   -0.8779 C   0  0  2  0  0  0  0  0  0  0  0  0
   -4.6612   -0.3544   -0.5878 O   0  0  0  0  0  0  0  0  0  0  0  0
   -8.1061    0.7819    0.4304 C   0  0  2  0  0  0  0  0  0  0  0  0
   -9.3815    1.0703    0.8319 O   0  0  0  0  0  0  0  0  0  0  0  0
  -13.1363   -0.6227    0.5147 C   0  0  2  0  0  0  0  0  0  0  0  0
  -13.7227   -1.8865    0.5829 O   0  0  0  0  0  0  0  0  0  0  0  0
   -2.9504   -0.4202   -2.3150 C   0  0  2  0  0  0  0  0  0  0  0  0
   -1.6061   -0.2795   -2.5089 O   0  0  0  0  0  0  0  0  0  0  0  0
   -7.0841    0.7401    1.5368 C   0  0  2  0  0  0  0  0  0  0  0  0
   -5.8069    0.5679    1.1750 O   0  0  0  0  0  0  0  0  0  0  0  0
  -12.1558   -0.5823   -0.6262 C   0  0  2  0  0  0  0  0  0  0  0  0
  -11.2366    0.4478   -0.4166 O   0  0  0  0  0  0  0  0  0  0  0  0
   -3.6841    0.4235   -3.2973 C   0  0  0  0  0  0  0  0  0  0  0  0
   -7.5410   -0.2351    2.6333 C   0  0  0  0  0  0  0  0  0  0  0  0
  -12.8933   -0.3462   -1.9073 C   0  0  0  0  0  0  0  0  0  0  0  0
    3.7798    0.3030   -2.2483 H   0  0  0  0  0  0  0  0  0  0  0  0
    3.7021    2.0633   -2.0637 H   0  0  0  0  0  0  0  0  0  0  0  0
    1.4474    1.9202   -1.0672 H   0  0  0  0  0  0  0  0  0  0  0  0
    1.5625    1.1473   -2.6539 H   0  0  0  0  0  0  0  0  0  0  0  0
    1.4801   -1.0533   -1.8738 H   0  0  0  0  0  0  0  0  0  0  0  0
    1.4946   -1.0859    0.9387 H   0  0  0  0  0  0  0  0  0  0  0  0
    2.8380   -1.5341   -0.1427 H   0  0  0  0  0  0  0  0  0  0  0  0
    2.2823    1.1713    1.1026 H   0  0  0  0  0  0  0  0  0  0  0  0
    3.7427    0.5517    2.8030 H   0  0  0  0  0  0  0  0  0  0  0  0
    2.9314   -0.9679    2.3879 H   0  0  0  0  0  0  0  0  0  0  0  0
    4.7739   -1.7765    1.0755 H   0  0  0  0  0  0  0  0  0  0  0  0
    5.3249   -1.2426    2.6877 H   0  0  0  0  0  0  0  0  0  0  0  0
    5.9138    0.9654    1.6318 H   0  0  0  0  0  0  0  0  0  0  0  0
    5.1089   -0.5935   -0.8953 H   0  0  0  0  0  0  0  0  0  0  0  0
    5.8801    1.4368   -2.0851 H   0  0  0  0  0  0  0  0  0  0  0  0
    6.5199    2.1168   -0.5737 H   0  0  0  0  0  0  0  0  0  0  0  0
    7.1632   -0.6697   -1.6058 H   0  0  0  0  0  0  0  0  0  0  0  0
    8.1686    1.8618   -2.2392 H   0  0  0  0  0  0  0  0  0  0  0  0
    7.2002    0.1242    2.8705 H   0  0  0  0  0  0  0  0  0  0  0  0
    6.9315   -2.6243    1.4627 H   0  0  0  0  0  0  0  0  0  0  0  0
    6.9211   -2.2538   -0.3455 H   0  0  0  0  0  0  0  0  0  0  0  0
    9.2108   -2.0922    1.7008 H   0  0  0  0  0  0  0  0  0  0  0  0
    9.1803   -3.0930    0.1616 H   0  0  0  0  0  0  0  0  0  0  0  0
    9.1887   -1.3051   -1.2085 H   0  0  0  0  0  0  0  0  0  0  0  0
    9.5793    1.5240    1.0865 H   0  0  0  0  0  0  0  0  0  0  0  0
    7.8509    1.7505    1.3679 H   0  0  0  0  0  0  0  0  0  0  0  0
    8.5145    2.2365   -0.1891 H   0  0  0  0  0  0  0  0  0  0  0  0
    3.1478    2.9077    0.5844 H   0  0  0  0  0  0  0  0  0  0  0  0
    4.4849    3.1250   -0.5665 H   0  0  0  0  0  0  0  0  0  0  0  0
    4.7989    2.5917    1.1266 H   0  0  0  0  0  0  0  0  0  0  0  0
   -0.1083   -1.5850   -2.3251 H   0  0  0  0  0  0  0  0  0  0  0  0
   -4.6455    1.6417   -0.0210 H   0  0  0  0  0  0  0  0  0  0  0  0
   -9.6760   -0.7440   -0.0105 H   0  0  0  0  0  0  0  0  0  0  0  0
   11.1902   -1.6527   -0.2684 H   0  0  0  0  0  0  0  0  0  0  0  0
   12.0642    0.0806   -1.3830 H   0  0  0  0  0  0  0  0  0  0  0  0
   10.7208    1.1640   -0.9978 H   0  0  0  0  0  0  0  0  0  0  0  0
   10.4785   -0.2968    2.3138 H   0  0  0  0  0  0  0  0  0  0  0  0
   11.5375   -1.6452    1.9443 H   0  0  0  0  0  0  0  0  0  0  0  0
   12.6140    0.7754    2.3245 H   0  0  0  0  0  0  0  0  0  0  0  0
   13.7673   -0.5070    0.1305 H   0  0  0  0  0  0  0  0  0  0  0  0
   -2.0091   -2.6624   -1.2999 H   0  0  0  0  0  0  0  0  0  0  0  0
   -0.8398   -2.3279   -0.0001 H   0  0  0  0  0  0  0  0  0  0  0  0
   -5.8647    1.7513   -1.9527 H   0  0  0  0  0  0  0  0  0  0  0  0
   -6.7219    0.2332   -1.7046 H   0  0  0  0  0  0  0  0  0  0  0  0
  -10.4674   -0.2158    2.6383 H   0  0  0  0  0  0  0  0  0  0  0  0
  -10.8093   -1.6791    1.6970 H   0  0  0  0  0  0  0  0  0  0  0  0
   -2.1129   -0.4773    0.8294 H   0  0  0  0  0  0  0  0  0  0  0  0
   -4.0958   -2.3108   -0.0527 H   0  0  0  0  0  0  0  0  0  0  0  0
   -8.2808    1.9188   -1.4356 H   0  0  0  0  0  0  0  0  0  0  0  0
   -8.0245    3.6226   -0.1210 H   0  0  0  0  0  0  0  0  0  0  0  0
  -12.6163    0.7560    2.0926 H   0  0  0  0  0  0  0  0  0  0  0  0
  -13.3621   -0.6182    3.5007 H   0  0  0  0  0  0  0  0  0  0  0  0
   -3.0659    0.9124   -0.6509 H   0  0  0  0  0  0  0  0  0  0  0  0
   -8.0864   -0.2066   -0.0658 H   0  0  0  0  0  0  0  0  0  0  0  0
  -13.9570    0.0904    0.3058 H   0  0  0  0  0  0  0  0  0  0  0  0
  -14.4378   -1.8459    1.2921 H   0  0  0  0  0  0  0  0  0  0  0  0
   -3.2142   -1.4950   -2.5365 H   0  0  0  0  0  0  0  0  0  0  0  0
   -7.1582    1.7611    2.0262 H   0  0  0  0  0  0  0  0  0  0  0  0
  -11.6312   -1.5719   -0.7105 H   0  0  0  0  0  0  0  0  0  0  0  0
   -3.2401    0.2972   -4.3065 H   0  0  0  0  0  0  0  0  0  0  0  0
   -4.7638    0.1381   -3.4240 H   0  0  0  0  0  0  0  0  0  0  0  0
   -3.7213    1.5057   -3.0010 H   0  0  0  0  0  0  0  0  0  0  0  0
   -8.2295    0.2939    3.3205 H   0  0  0  0  0  0  0  0  0  0  0  0
   -8.0843   -1.0952    2.2105 H   0  0  0  0  0  0  0  0  0  0  0  0
   -6.6447   -0.5137    3.2176 H   0  0  0  0  0  0  0  0  0  0  0  0
  -13.9732   -0.5798   -1.7677 H   0  0  0  0  0  0  0  0  0  0  0  0
  -12.4937   -1.0244   -2.7140 H   0  0  0  0  0  0  0  0  0  0  0  0
  -12.7869    0.6999   -2.2508 H   0  0  0  0  0  0  0  0  0  0  0  0
    3.7798    0.3030   -2.2483 H   0  0  0  0  0  0  0  0  0  0  0  0
    3.7021    2.0633   -2.0637 H   0  0  0  0  0  0  0  0  0  0  0  0
    1.4474    1.9202   -1.0672 H   0  0  0  0  0  0  0  0  0  0  0  0
    1.5625    1.1473   -2.6539 H   0  0  0  0  0  0  0  0  0  0  0  0
    1.4801   -1.0533   -1.8738 H   0  0  0  0  0  0  0  0  0  0  0  0
    1.4946   -1.0859    0.9387 H   0  0  0  0  0  0  0  0  0  0  0  0
    2.8380   -1.5341   -0.1427 H   0  0  0  0  0  0  0  0  0  0  0  0
    2.2823    1.1713    1.1026 H   0  0  0  0  0  0  0  0  0  0  0  0
    3.7427    0.5517    2.8030 H   0  0  0  0  0  0  0  0  0  0  0  0
    2.9314   -0.9679    2.3879 H   0  0  0  0  0  0  0  0  0  0  0  0
    4.7739   -1.7765    1.0755 H   0  0  0  0  0  0  0  0  0  0  0  0
    5.3249   -1.2426    2.6877 H   0  0  0  0  0  0  0  0  0  0  0  0
    5.9138    0.9654    1.6318 H   0  0  0  0  0  0  0  0  0  0  0  0
    5.1089   -0.5935   -0.8953 H   0  0  0  0  0  0  0  0  0  0  0  0
    5.8801    1.4368   -2.0851 H   0  0  0  0  0  0  0  0  0  0  0  0
    6.5199    2.1168   -0.5737 H   0  0  0  0  0  0  0  0  0  0  0  0
    7.1632   -0.6697   -1.6058 H   0  0  0  0  0  0  0  0  0  0  0  0
    8.1686    1.8618   -2.2392 H   0  0  0  0  0  0  0  0  0  0  0  0
    7.2002    0.1242    2.8705 H   0  0  0  0  0  0  0  0  0  0  0  0
    6.9315   -2.6243    1.4627 H   0  0  0  0  0  0  0  0  0  0  0  0
    6.9211   -2.2538   -0.3455 H   0  0  0  0  0  0  0  0  0  0  0  0
    9.2108   -2.0922    1.7008 H   0  0  0  0  0  0  0  0  0  0  0  0
    9.1803   -3.0930    0.1616 H   0  0  0  0  0  0  0  0  0  0  0  0
    9.1887   -1.3051   -1.2085 H   0  0  0  0  0  0  0  0  0  0  0  0
    9.5793    1.5240    1.0865 H   0  0  0  0  0  0  0  0  0  0  0  0
    7.8509    1.7505    1.3679 H   0  0  0  0  0  0  0  0  0  0  0  0
    8.5145    2.2365   -0.1891 H   0  0  0  0  0  0  0  0  0  0  0  0
    3.1478    2.9077    0.5844 H   0  0  0  0  0  0  0  0  0  0  0  0
    4.4849    3.1250   -0.5665 H   0  0  0  0  0  0  0  0  0  0  0  0
    4.7989    2.5917    1.1266 H   0  0  0  0  0  0  0  0  0  0  0  0
   -0.1083   -1.5850   -2.3251 H   0  0  0  0  0  0  0  0  0  0  0  0
   -4.6455    1.6417   -0.0210 H   0  0  0  0  0  0  0  0  0  0  0  0
   -9.6760   -0.7440   -0.0105 H   0  0  0  0  0  0  0  0  0  0  0  0
   11.1902   -1.6527   -0.2684 H   0  0  0  0  0  0  0  0  0  0  0  0
   12.0642    0.0806   -1.3830 H   0  0  0  0  0  0  0  0  0  0  0  0
   10.7208    1.1640   -0.9978 H   0  0  0  0  0  0  0  0  0  0  0  0
   10.4785   -0.2968    2.3138 H   0  0  0  0  0  0  0  0  0  0  0  0
   11.5375   -1.6452    1.9443 H   0  0  0  0  0  0  0  0  0  0  0  0
   12.6140    0.7754    2.3245 H   0  0  0  0  0  0  0  0  0  0  0  0
   13.7673   -0.5070    0.1305 H   0  0  0  0  0  0  0  0  0  0  0  0
   -2.0091   -2.6624   -1.2999 H   0  0  0  0  0  0  0  0  0  0  0  0
   -0.8398   -2.3279   -0.0001 H   0  0  0  0  0  0  0  0  0  0  0  0
   -5.8647    1.7513   -1.9527 H   0  0  0  0  0  0  0  0  0  0  0  0
   -6.7219    0.2332   -1.7046 H   0  0  0  0  0  0  0  0  0  0  0  0
  -10.4674   -0.2158    2.6383 H   0  0  0  0  0  0  0  0  0  0  0  0
  -10.8093   -1.6791    1.6970 H   0  0  0  0  0  0  0  0  0  0  0  0
   -2.1129   -0.4773    0.8294 H   0  0  0  0  0  0  0  0  0  0  0  0
   -4.0958   -2.3108   -0.0527 H   0  0  0  0  0  0  0  0  0  0  0  0
   -8.2808    1.9188   -1.4356 H   0  0  0  0  0  0  0  0  0  0  0  0
   -8.0245    3.6226   -0.1210 H   0  0  0  0  0  0  0  0  0  0  0  0
  -12.6163    0.7560    2.0926 H   0  0  0  0  0  0  0  0  0  0  0  0
  -13.3621   -0.6182    3.5007 H   0  0  0  0  0  0  0  0  0  0  0  0
   -3.0659    0.9124   -0.6509 H   0  0  0  0  0  0  0  0  0  0  0  0
   -8.0864   -0.2066   -0.0658 H   0  0  0  0  0  0  0  0  0  0  0  0
  -13.9570    0.0904    0.3058 H   0  0  0  0  0  0  0  0  0  0  0  0
  -14.4378   -1.8459    1.2921 H   0  0  0  0  0  0  0  0  0  0  0  0
   -3.2142   -1.4950   -2.5365 H   0  0  0  0  0  0  0  0  0  0  0  0
   -7.1582    1.7611    2.0262 H   0  0  0  0  0  0  0  0  0  0  0  0
  -11.6312   -1.5719   -0.7105 H   0  0  0  0  0  0  0  0  0  0  0  0
   -3.2401    0.2972   -4.3065 H   0  0  0  0  0  0  0  0  0  0  0  0
   -4.7638    0.1381   -3.4240 H   0  0  0  0  0  0  0  0  0  0  0  0
   -3.7213    1.5057   -3.0010 H   0  0  0  0  0  0  0  0  0  0  0  0
   -8.2295    0.2939    3.3205 H   0  0  0  0  0  0  0  0  0  0  0  0
   -8.0843   -1.0952    2.2105 H   0  0  0  0  0  0  0  0  0  0  0  0
   -6.6447   -0.5137    3.2176 H   0  0  0  0  0  0  0  0  0  0  0  0
  -13.9732   -0.5798   -1.7677 H   0  0  0  0  0  0  0  0  0  0  0  0
  -12.4937   -1.0244   -2.7140 H   0  0  0  0  0  0  0  0  0  0  0  0
  -12.7869    0.6999   -2.2508 H   0  0  0  0  0  0  0  0  0  0  0  0
  1  2  1  0
  2  3  1  0
  3  4  1  0
  3  5  1  0
  5  6  1  0
  6  7  1  0
  7  8  1  0
  8  9  1  0
  9 10  1  0
  1 11  1  0
  6 11  1  0
 10 11  1  0
 10 12  1  0
 12 13  1  0
 13 14  1  0
 13 15  1  0
  9 16  1  0
 15 16  1  0
 16 17  1  1
 16 18  1  0
 18 19  1  0
 15 20  1  0
 19 20  1  0
 15 21  1  1
 11 22  1  1
  4 23  1  0
 20 26  1  0
 26 27  1  0
 27 28  1  0
 26 29  1  0
 28 30  1  0
 29 30  1  0
 30 31  1  0
 23 32  1  0
 24 33  1  0
 25 34  1  0
 32 35  1  0
 35 36  1  0
 33 37  1  0
 37 38  1  0
 34 39  1  0
 39 40  1  0
 35 41  1  0
 24 42  1  0
 41 42  1  0
 37 43  1  0
 25 44  1  0
 43 44  1  0
 39 45  1  0
 45 46  1  0
 41 47  1  0
 23 48  1  0
 47 48  1  0
 43 49  1  0
 24 50  1  0
 49 50  1  0
 45 51  1  0
 25 52  1  0
 51 52  1  0
 47 53  1  0
 49 54  1  0
 51 55  1  0
 56 57  1  0
 57 58  1  0
 58 59  1  0
 58 60  1  0
 60 61  1  0
 61 62  1  0
 62 63  1  0
 63 64  1  0
 64 65  1  0
 56 66  1  0
 61 66  1  0
 65 66  1  0
 65 67  1  0
 67 68  1  0
 68 69  1  0
 68 70  1  0
 64 71  1  0
 70 71  1  0
 71 72  1  1
 71 73  1  0
 73 74  1  0
 70 75  1  0
 74 75  1  0
 70 76  1  1
 66 77  1  1
 59 78  1  0
 75 81  1  0
 81 82  1  0
 82 83  1  0
 81 84  1  0
 83 85  1  0
 84 85  1  0
 85 86  1  0
 78 87  1  0
 79 88  1  0
 80 89  1  0
 87 90  1  0
 90 91  1  0
 88 92  1  0
 92 93  1  0
 89 94  1  0
 94 95  1  0
 90 96  1  0
 79 97  1  0
 96 97  1  0
 92 98  1  0
 80 99  1  0
 98 99  1  0
 94100  1  0
100101  1  0
 96102  1  0
 78103  1  0
102103  1  0
 98104  1  0
 79105  1  0
104105  1  0
100106  1  0
 80107  1  0
106107  1  0
102108  1  0
104109  1  0
106110  1  0
  1111  1  0
  1112  1  0
  2113  1  0
  2114  1  0
  3115  1  6
  5116  1  0
  5117  1  0
  6118  1  1
  7119  1  0
  7120  1  0
  8121  1  0
  8122  1  0
  9123  1  1
 10124  1  6
 12125  1  0
 12126  1  0
 13127  1  6
 14128  1  0
 17129  1  0
 18130  1  0
 18131  1  0
 19132  1  0
 19133  1  0
 20134  1  6
 21135  1  0
 21136  1  0
 21137  1  0
 22138  1  0
 22139  1  0
 22140  1  0
 23141  1  6
 24142  1  1
 25143  1  6
 26144  1  6
 27145  1  0
 27146  1  0
 29147  1  0
 29148  1  0
 30149  1  0
 31150  1  0
 32151  1  0
 32152  1  0
 33153  1  0
 33154  1  0
 34155  1  0
 34156  1  0
 35157  1  1
 36158  1  0
 37159  1  6
 38160  1  0
 39161  1  1
 40162  1  0
 41163  1  1
 43164  1  6
 45165  1  6
 46166  1  0
 47167  1  6
 49168  1  1
 51169  1  6
 53170  1  0
 53171  1  0
 53172  1  0
 54173  1  0
 54174  1  0
 54175  1  0
 55176  1  0
 55177  1  0
 55178  1  0
 56179  1  0
 56180  1  0
 57181  1  0
 57182  1  0
 58183  1  6
 60184  1  0
 60185  1  0
 61186  1  1
 62187  1  0
 62188  1  0
 63189  1  0
 63190  1  0
 64191  1  1
 65192  1  6
 67193  1  0
 67194  1  0
 68195  1  6
 69196  1  0
 72197  1  0
 73198  1  0
 73199  1  0
 74200  1  0
 74201  1  0
 75202  1  6
 76203  1  0
 76204  1  0
 76205  1  0
 77206  1  0
 77207  1  0
 77208  1  0
 78209  1  6
 79210  1  1
 80211  1  6
 81212  1  6
 82213  1  0
 82214  1  0
 84215  1  0
 84216  1  0
 85217  1  0
 86218  1  0
 87219  1  0
 87220  1  0
 88221  1  0
 88222  1  0
 89223  1  0
 89224  1  0
 90225  1  1
 91226  1  0
 92227  1  6
 93228  1  0
 94229  1  1
 95230  1  0
 96231  1  1
 98232  1  6
100233  1  6
101234  1  0
102235  1  6
104236  1  1
106237  1  6
108238  1  0
108239  1  0
108240  1  0
109241  1  0
109242  1  0
109243  1  0
110244  1  0
110245  1  0
110246  1  0
M  END
>  <PDBID>  (1) 
4RET

>  <PDB ID>  (1) 
4RET

>  <Generic Name>  (1) 
Digoxin

>  <Brand Name>  (1) 
Apo-digoxin#Digitek#Digox#Digoxin#Digoxin Injection C.S.D.#Lanoxin#Lanoxin Elx 0.05mg/ml Pediatric#Lanoxin Inj 0.05mg/ml Pediatric#Lanoxin Inj 0.25mg/ml#Lanoxin Tab 0.0625mg#Lanoxin Tab 0.125mg#Lanoxin Tab 0.25mg#Novo-digoxin Tab 0.25mg#PMS-digoxin#Pediatric Digoxin Injection C.S.D.#Toloxin#Agoxin#Cardiacin#Cardiogoxin#Cardioxin#Cardoxin#Celoxin#Centoxin#Digacin#Digocard-G#Digoxina#Eudigox#Lanacordin#Lanacrist#Lanicor#Lanoxicaps#Lenoxin

>  <DrugBank ID>  (1) 
DB00390

>  <ATC Codes>  (1) 
C01AA05

>  <Ligand ID>  (1) 
DGX

>  <Target Name>  (1) 
Sodium/potassium-transporting ATPase subunit alpha-1

>  <UniProt ID>  (1) 
P05023

>  <PDB ID.1>  (1) 
4RET

>  <Seq. Identity>  (1) 
94%

$$$$
