PDB_DB00530_09
     RDKit          3D

 72 74  0  0  0  0  0  0  0  0999 V2000
    7.7845   -0.8536   -0.6580 C   0  0  0  0  0  0  0  0  0  0  0  0
    6.3839   -1.3194   -0.3967 C   0  0  0  0  0  0  0  0  0  0  0  0
    5.4167   -0.1695   -0.0869 C   0  0  0  0  0  0  0  0  0  0  0  0
    4.0721   -0.7818    0.1515 C   0  0  0  0  0  0  0  0  0  0  0  0
    3.1181    0.0797    0.9476 C   0  0  0  0  0  0  0  0  0  0  0  0
    1.7932   -0.0039    0.4748 N   0  0  0  0  0  0  0  0  0  0  0  0
    0.9900    1.1613    0.4610 C   0  0  0  0  0  0  0  0  0  0  0  0
   -0.4245    0.8671   -0.0101 C   0  0  0  0  0  0  0  0  0  0  0  0
   -1.2278    0.0951    0.9754 C   0  0  0  0  0  0  0  0  0  0  0  0
   -2.4465   -0.4423    0.3207 C   0  0  0  0  0  0  0  0  0  0  0  0
   -2.4812   -1.7835    0.0968 O   0  0  0  0  0  0  0  0  0  0  0  0
   -3.5614   -2.4473    0.6351 C   0  0  0  0  0  0  0  0  0  0  0  0
   -3.4840   -3.9236    0.3160 C   0  0  0  0  0  0  0  0  0  0  0  0
   -4.6519   -4.4883    0.9003 O   0  0  0  0  0  0  0  0  0  0  0  0
   -4.5923   -5.8563    0.6145 C   0  0  0  0  0  0  0  0  0  0  0  0
   -2.8738    0.3840   -0.9165 C   0  0  0  0  0  0  0  0  0  0  0  0
   -3.2191    1.6477   -0.4235 O   0  0  0  0  0  0  0  0  0  0  0  0
   -4.6496    1.7534   -0.3915 C   0  0  0  0  0  0  0  0  0  0  0  0
   -5.0105    3.0979    0.1890 C   0  0  0  0  0  0  0  0  0  0  0  0
   -6.3664    3.2959    0.3001 O   0  0  0  0  0  0  0  0  0  0  0  0
   -6.9899    3.1622   -0.9198 C   0  0  0  0  0  0  0  0  0  0  0  0
   -1.8210    0.4754   -1.9292 C   0  0  0  0  0  0  0  0  0  0  0  0
   -0.4476    0.1487   -1.3145 C   0  0  0  0  0  0  0  0  0  0  0  0
    0.6461    0.6016   -2.1120 N   0  0  0  0  0  0  0  0  0  0  0  0
    1.0114    1.9546   -1.8182 C   0  0  0  0  0  0  0  0  0  0  0  0
    1.5112    2.1381   -0.4752 N   0  0  0  0  0  0  0  0  0  0  0  0
    3.7097    1.4491    1.0349 C   0  0  0  0  0  0  0  0  0  0  0  0
    4.9608    1.2910    1.9179 C   0  0  0  0  0  0  0  0  0  0  0  0
    5.9750    0.5499    1.1117 C   0  0  0  0  0  0  0  0  0  0  0  0
    8.4170   -0.8524    0.2590 H   0  0  0  0  0  0  0  0  0  0  0  0
    7.8622    0.1207   -1.1578 H   0  0  0  0  0  0  0  0  0  0  0  0
    8.2593   -1.6543   -1.3064 H   0  0  0  0  0  0  0  0  0  0  0  0
    6.0082   -1.9933   -1.1605 H   0  0  0  0  0  0  0  0  0  0  0  0
    6.4399   -1.9024    0.5718 H   0  0  0  0  0  0  0  0  0  0  0  0
    5.4420    0.5000   -0.9677 H   0  0  0  0  0  0  0  0  0  0  0  0
    3.6072   -0.9406   -0.8420 H   0  0  0  0  0  0  0  0  0  0  0  0
    4.1861   -1.7930    0.6027 H   0  0  0  0  0  0  0  0  0  0  0  0
    3.1441   -0.3309    2.0025 H   0  0  0  0  0  0  0  0  0  0  0  0
    1.2759   -0.7869    0.9057 H   0  0  0  0  0  0  0  0  0  0  0  0
    0.8798    1.5648    1.4889 H   0  0  0  0  0  0  0  0  0  0  0  0
   -0.8945    1.8811   -0.1671 H   0  0  0  0  0  0  0  0  0  0  0  0
   -0.6182   -0.7148    1.4616 H   0  0  0  0  0  0  0  0  0  0  0  0
   -1.4809    0.8048    1.8154 H   0  0  0  0  0  0  0  0  0  0  0  0
   -3.3056   -0.2359    1.0219 H   0  0  0  0  0  0  0  0  0  0  0  0
   -4.5494   -2.1025    0.3057 H   0  0  0  0  0  0  0  0  0  0  0  0
   -3.5103   -2.3273    1.7609 H   0  0  0  0  0  0  0  0  0  0  0  0
   -2.5772   -4.3932    0.7712 H   0  0  0  0  0  0  0  0  0  0  0  0
   -3.5350   -4.0500   -0.7785 H   0  0  0  0  0  0  0  0  0  0  0  0
   -4.5661   -6.0558   -0.4567 H   0  0  0  0  0  0  0  0  0  0  0  0
   -5.5017   -6.3672    1.0617 H   0  0  0  0  0  0  0  0  0  0  0  0
   -3.7000   -6.2503    1.1740 H   0  0  0  0  0  0  0  0  0  0  0  0
   -3.7744   -0.1165   -1.2492 H   0  0  0  0  0  0  0  0  0  0  0  0
   -5.0962    0.9731    0.2415 H   0  0  0  0  0  0  0  0  0  0  0  0
   -5.0203    1.6901   -1.4424 H   0  0  0  0  0  0  0  0  0  0  0  0
   -4.5793    3.9218   -0.4598 H   0  0  0  0  0  0  0  0  0  0  0  0
   -4.5429    3.2454    1.2085 H   0  0  0  0  0  0  0  0  0  0  0  0
   -8.1007    3.3473   -0.8314 H   0  0  0  0  0  0  0  0  0  0  0  0
   -6.9662    2.0984   -1.3057 H   0  0  0  0  0  0  0  0  0  0  0  0
   -6.5153    3.7892   -1.6872 H   0  0  0  0  0  0  0  0  0  0  0  0
   -1.6985    1.4963   -2.3423 H   0  0  0  0  0  0  0  0  0  0  0  0
   -1.9036   -0.1890   -2.8044 H   0  0  0  0  0  0  0  0  0  0  0  0
   -0.3768   -0.9517   -1.2010 H   0  0  0  0  0  0  0  0  0  0  0  0
    0.5037    0.5118   -3.1373 H   0  0  0  0  0  0  0  0  0  0  0  0
    1.8729    2.2031   -2.5097 H   0  0  0  0  0  0  0  0  0  0  0  0
    0.2239    2.6821   -2.0987 H   0  0  0  0  0  0  0  0  0  0  0  0
    1.1266    3.0818   -0.1567 H   0  0  0  0  0  0  0  0  0  0  0  0
    4.0465    1.7808    0.0203 H   0  0  0  0  0  0  0  0  0  0  0  0
    3.1017    2.2150    1.5064 H   0  0  0  0  0  0  0  0  0  0  0  0
    4.6685    0.5907    2.7563 H   0  0  0  0  0  0  0  0  0  0  0  0
    5.3007    2.2374    2.3398 H   0  0  0  0  0  0  0  0  0  0  0  0
    6.6068   -0.1273    1.7476 H   0  0  0  0  0  0  0  0  0  0  0  0
    6.7147    1.3159    0.7327 H   0  0  0  0  0  0  0  0  0  0  0  0
  1  2  1  0
  2  3  1  0
  3  4  1  0
  4  5  1  0
  5  6  1  0
  6  7  1  0
  7  8  1  0
  8  9  1  0
  9 10  1  0
 10 11  1  0
 11 12  1  0
 12 13  1  0
 13 14  1  0
 14 15  1  0
 10 16  1  0
 16 17  1  0
 17 18  1  0
 18 19  1  0
 19 20  1  0
 20 21  1  0
 16 22  1  0
  8 23  1  0
 22 23  1  0
 23 24  1  0
 24 25  1  0
  7 26  1  0
 25 26  1  0
  5 27  1  0
 27 28  1  0
  3 29  1  0
 28 29  1  0
  1 30  1  0
  1 31  1  0
  1 32  1  0
  2 33  1  0
  2 34  1  0
  3 35  1  0
  4 36  1  0
  4 37  1  0
  5 38  1  0
  6 39  1  0
  7 40  1  0
  8 41  1  0
  9 42  1  0
  9 43  1  0
 10 44  1  0
 12 45  1  0
 12 46  1  0
 13 47  1  0
 13 48  1  0
 15 49  1  0
 15 50  1  0
 15 51  1  0
 16 52  1  0
 18 53  1  0
 18 54  1  0
 19 55  1  0
 19 56  1  0
 21 57  1  0
 21 58  1  0
 21 59  1  0
 22 60  1  0
 22 61  1  0
 23 62  1  0
 24 63  1  0
 25 64  1  0
 25 65  1  0
 26 66  1  0
 27 67  1  0
 27 68  1  0
 28 69  1  0
 28 70  1  0
 29 71  1  0
 29 72  1  0
M  END
>  <PDBID>  (1) 
1M17

>  <PDB ID>  (1) 
1M17

>  <Generic Name>  (1) 
Erlotinib

>  <Brand Name>  (1) 
PMS-erlotinib#Tarceva#Teva-erlotinib

>  <DrugBank ID>  (1) 
DB00530

>  <ATC Codes>  (1) 
L01XE03

>  <Ligand ID>  (1) 
AQ4

>  <Target Name>  (1) 
Epidermal growth factor receptor

>  <UniProt ID>  (1) 
P00533

>  <PDB ID.1>  (1) 
1M17

>  <Seq. Identity>  (1) 
96%

$$$$
