PDB_DB09324_06
     RDKit          3D

 32 33  0  0  0  0  0  0  0  0999 V2000
    1.5594    1.3225    1.2711 C   0  0  0  0  0  0  0  0  0  0  0  0
    0.8451    0.8243    0.1025 C   0  0  0  0  0  0  0  0  0  0  0  0
    1.4020    1.1491   -1.2307 C   0  0  0  0  0  0  0  0  0  0  0  0
   -0.8747    1.5706    0.1045 S   0  0  0  0  0  0  0  0  0  0  0  0
   -0.8728    3.1679   -0.6697 O   0  0  0  0  0  0  0  0  0  0  0  0
   -1.5091    1.7151    1.7117 O   0  0  0  0  0  0  0  0  0  0  0  0
   -1.5449    0.2446   -0.8770 C   0  0  2  0  0  0  0  0  0  0  0  0
   -2.6453   -0.5068   -0.2251 C   0  0  0  0  0  0  0  0  0  0  0  0
   -1.6892   -1.6768   -0.2988 C   0  0  0  0  0  0  0  0  0  0  0  0
   -1.4257   -2.2545    0.9347 O   0  0  0  0  0  0  0  0  0  0  0  0
   -0.6151   -0.8188   -0.8030 N   0  0  0  0  0  0  0  0  0  0  0  0
    0.3593   -0.5983    0.1903 C   0  0  1  0  0  0  0  0  0  0  0  0
    1.5686   -1.4875   -0.1264 C   0  0  0  0  0  0  0  0  0  0  0  0
    1.1839   -2.8392   -0.1289 O   0  0  0  0  0  0  0  0  0  0  0  0
    2.5807   -1.3244    0.8001 O   0  0  0  0  0  0  0  0  0  0  0  0
    2.5775    1.6954    0.9589 H   0  0  0  0  0  0  0  0  0  0  0  0
    1.7430    0.4956    2.0053 H   0  0  0  0  0  0  0  0  0  0  0  0
    1.0962    2.1490    1.8338 H   0  0  0  0  0  0  0  0  0  0  0  0
    2.5078    1.2145   -1.2339 H   0  0  0  0  0  0  0  0  0  0  0  0
    1.0119    2.1222   -1.6487 H   0  0  0  0  0  0  0  0  0  0  0  0
    1.0538    0.3723   -1.9608 H   0  0  0  0  0  0  0  0  0  0  0  0
   -0.1644    3.6131   -0.1085 H   0  0  0  0  0  0  0  0  0  0  0  0
   -2.4556    1.9274    1.5613 H   0  0  0  0  0  0  0  0  0  0  0  0
   -1.7187    0.5467   -1.9385 H   0  0  0  0  0  0  0  0  0  0  0  0
   -2.9496   -0.1936    0.7828 H   0  0  0  0  0  0  0  0  0  0  0  0
   -3.4889   -0.6730   -0.9522 H   0  0  0  0  0  0  0  0  0  0  0  0
   -1.9264   -2.4378   -1.0697 H   0  0  0  0  0  0  0  0  0  0  0  0
   -2.2856   -2.6270    1.2604 H   0  0  0  0  0  0  0  0  0  0  0  0
    0.0425   -0.8452    1.2123 H   0  0  0  0  0  0  0  0  0  0  0  0
    1.9794   -1.2519   -1.1373 H   0  0  0  0  0  0  0  0  0  0  0  0
    1.1981   -3.2091    0.7962 H   0  0  0  0  0  0  0  0  0  0  0  0
    3.4566   -1.3862    0.3606 H   0  0  0  0  0  0  0  0  0  0  0  0
  2  1  1  0
  2  3  1  0
  2  4  1  0
  4  5  1  0
  4  6  1  0
  4  7  1  0
  7  8  1  0
  8  9  1  0
  9 10  1  0
  7 11  1  0
  9 11  1  0
  2 12  1  0
 11 12  1  0
 12 13  1  0
 13 14  1  0
 13 15  1  0
  1 16  1  0
  1 17  1  0
  1 18  1  0
  3 19  1  0
  3 20  1  0
  3 21  1  0
  5 22  1  0
  6 23  1  0
  7 24  1  6
  8 25  1  0
  8 26  1  0
  9 27  1  0
 10 28  1  0
 12 29  1  1
 13 30  1  0
 14 31  1  0
 15 32  1  0
M  END
>  <PDBID>  (1) 
4FH2

>  <PDB ID>  (1) 
4FH2

>  <Generic Name>  (1) 
Sulbactam

>  <Brand Name>  (1) 
Ampicillin Sodium and Sulbactam Sodium#Ampicillin and Sulbactam#Unasyn

>  <DrugBank ID>  (1) 
DB09324

>  <ATC Codes>  (1) 
J01CG01

>  <Ligand ID>  (1) 
0RN

>  <Target Name>  (1) 
Beta-lactamase

>  <UniProt ID>  (1) 
P00807

>  <PDB ID.1>  (1) 
4FH2

>  <Seq. Identity>  (1) 
31%

$$$$
