PDB_DB01232_09
     RDKit          3D

123127  0  0  0  0  0  0  0  0999 V2000
   -4.6573   -1.0401   -1.2124 C   0  0  0  0  0  0  0  0  0  0  0  0
   -4.9926   -1.5746   -2.5270 O   0  0  0  0  0  0  0  0  0  0  0  0
   -5.0920    1.1726   -0.1675 N   0  0  0  0  0  0  0  0  0  0  0  0
   -5.2112    0.3628   -1.3131 C   0  0  2  0  0  0  0  0  0  0  0  0
   -6.6586    0.2209   -1.8069 C   0  0  0  0  0  0  0  0  0  0  0  0
   -7.3273    1.5176   -2.0020 C   0  0  0  0  0  0  0  0  0  0  0  0
   -7.4575    3.8250   -1.3023 C   0  0  0  0  0  0  0  0  0  0  0  0
   -6.8925    4.8148   -0.3303 C   0  0  0  0  0  0  0  0  0  0  0  0
   -6.9069    4.1914    1.0404 C   0  0  0  0  0  0  0  0  0  0  0  0
   -6.5846    2.7179    0.9094 C   0  0  0  0  0  0  0  0  0  0  0  0
   -6.4960    2.6699   -1.5585 C   0  0  0  0  0  0  0  0  0  0  0  0
   -5.7288    2.4348   -0.3076 C   0  0  0  0  0  0  0  0  0  0  0  0
   -3.3389   -1.3022   -1.0447 N   0  0  0  0  0  0  0  0  0  0  0  0
   -2.5025   -0.9918    0.0603 C   0  0  2  0  0  0  0  0  0  0  0  0
   -1.2215   -1.8532   -0.1546 C   0  0  0  0  0  0  0  0  0  0  0  0
   -0.6997   -1.4181   -1.3772 O   0  0  0  0  0  0  0  0  0  0  0  0
   -3.0307   -1.2679    1.3993 C   0  0  0  0  0  0  0  0  0  0  0  0
   -3.3344   -2.6870    1.7582 C   0  0  1  0  0  0  0  0  0  0  0  0
   -3.8603   -2.7453    3.0677 O   0  0  0  0  0  0  0  0  0  0  0  0
   -4.0914   -3.4595    0.8635 N   0  0  0  0  0  0  0  0  0  0  0  0
    1.7958   -0.9364    0.2027 C   0  0  1  0  0  0  0  0  0  0  0  0
    3.1270   -1.4714    0.2529 O   0  0  0  0  0  0  0  0  0  0  0  0
    0.9927   -2.0869    0.8576 C   0  0  1  0  0  0  0  0  0  0  0  0
   -0.3892   -1.9118    0.9314 N   0  0  0  0  0  0  0  0  0  0  0  0
    1.6299   -3.3136    0.3723 C   0  0  0  0  0  0  0  0  0  0  0  0
    1.1927   -4.6619    0.7340 C   0  0  0  0  0  0  0  0  0  0  0  0
   -0.1593   -5.1238    0.3547 C   0  0  0  0  0  0  0  0  0  0  0  0
    1.3911   -4.9813    2.2132 C   0  0  0  0  0  0  0  0  0  0  0  0
   -0.0992   -6.6422    0.2162 C   0  0  0  0  0  0  0  0  0  0  0  0
    1.0731   -6.4364    2.4183 C   0  0  0  0  0  0  0  0  0  0  0  0
    0.9543   -7.2172    1.1464 C   0  0  0  0  0  0  0  0  0  0  0  0
    2.8591    1.2409    0.7857 N   0  0  0  0  0  0  0  0  0  0  0  0
    1.8650    0.2564    1.0810 C   0  0  0  0  0  0  0  0  0  0  0  0
    2.7469    2.0261   -0.3471 C   0  0  2  0  0  0  0  0  0  0  0  0
    3.2878    1.3375   -1.5972 C   0  0  0  0  0  0  0  0  0  0  0  0
    3.1051    2.3204   -2.6190 O   0  0  0  0  0  0  0  0  0  0  0  0
    3.5082    3.3314   -0.3338 C   0  0  0  0  0  0  0  0  0  0  0  0
    3.7192    3.9909    0.9627 C   0  0  2  0  0  0  0  0  0  0  0  0
    4.9304    4.9293    0.7948 C   0  0  0  0  0  0  0  0  0  0  0  0
    5.7560    5.0005    2.0552 C   0  0  0  0  0  0  0  0  0  0  0  0
    6.4373    3.6870    2.3556 C   0  0  0  0  0  0  0  0  0  0  0  0
    5.5596    2.5323    1.8462 C   0  0  0  0  0  0  0  0  0  0  0  0
    4.1480    2.9833    1.9954 C   0  0  2  0  0  0  0  0  0  0  0  0
    3.1175    1.9186    2.0403 C   0  0  0  0  0  0  0  0  0  0  0  0
    4.6775    1.0951   -1.3908 N   0  0  0  0  0  0  0  0  0  0  0  0
    5.3887    0.6242   -2.5359 C   0  0  0  0  0  0  0  0  0  0  0  0
    4.9087   -0.7130   -3.0625 C   0  0  0  0  0  0  0  0  0  0  0  0
    5.4590    1.6263   -3.6652 C   0  0  0  0  0  0  0  0  0  0  0  0
    6.8409    0.3809   -2.0942 C   0  0  0  0  0  0  0  0  0  0  0  0
   -5.4016   -1.5896   -0.5817 H   0  0  0  0  0  0  0  0  0  0  0  0
   -4.5416   -2.4593   -2.5567 H   0  0  0  0  0  0  0  0  0  0  0  0
   -4.1062    1.2428    0.1357 H   0  0  0  0  0  0  0  0  0  0  0  0
   -4.6815    0.8913   -2.1520 H   0  0  0  0  0  0  0  0  0  0  0  0
   -6.5548   -0.3715   -2.7703 H   0  0  0  0  0  0  0  0  0  0  0  0
   -7.2485   -0.3964   -1.0995 H   0  0  0  0  0  0  0  0  0  0  0  0
   -7.5589    1.6890   -3.0993 H   0  0  0  0  0  0  0  0  0  0  0  0
   -8.3259    1.5823   -1.4617 H   0  0  0  0  0  0  0  0  0  0  0  0
   -8.4118    3.4408   -0.8510 H   0  0  0  0  0  0  0  0  0  0  0  0
   -7.7473    4.3560   -2.2265 H   0  0  0  0  0  0  0  0  0  0  0  0
   -7.5917    5.6884   -0.3164 H   0  0  0  0  0  0  0  0  0  0  0  0
   -5.9084    5.2148   -0.6221 H   0  0  0  0  0  0  0  0  0  0  0  0
   -6.1654    4.7048    1.6730 H   0  0  0  0  0  0  0  0  0  0  0  0
   -7.9363    4.3194    1.4511 H   0  0  0  0  0  0  0  0  0  0  0  0
   -5.9913    2.4444    1.8051 H   0  0  0  0  0  0  0  0  0  0  0  0
   -7.5058    2.1368    0.9418 H   0  0  0  0  0  0  0  0  0  0  0  0
   -5.8088    3.0415   -2.3696 H   0  0  0  0  0  0  0  0  0  0  0  0
   -4.9174    3.2126   -0.2838 H   0  0  0  0  0  0  0  0  0  0  0  0
   -2.8049   -1.6966   -1.8646 H   0  0  0  0  0  0  0  0  0  0  0  0
   -2.1244    0.0389   -0.0205 H   0  0  0  0  0  0  0  0  0  0  0  0
   -1.6831   -2.8552   -0.3805 H   0  0  0  0  0  0  0  0  0  0  0  0
   -0.8475   -0.4198   -1.3811 H   0  0  0  0  0  0  0  0  0  0  0  0
   -2.3516   -0.8652    2.1763 H   0  0  0  0  0  0  0  0  0  0  0  0
   -3.9703   -0.6220    1.6113 H   0  0  0  0  0  0  0  0  0  0  0  0
   -2.3404   -3.2406    1.8937 H   0  0  0  0  0  0  0  0  0  0  0  0
   -4.8498   -2.7986    3.0127 H   0  0  0  0  0  0  0  0  0  0  0  0
   -4.9802   -3.8782    1.2717 H   0  0  0  0  0  0  0  0  0  0  0  0
   -3.5799   -4.2884    0.4708 H   0  0  0  0  0  0  0  0  0  0  0  0
    1.4105   -0.8440   -0.7872 H   0  0  0  0  0  0  0  0  0  0  0  0
    3.3141   -1.8881   -0.6380 H   0  0  0  0  0  0  0  0  0  0  0  0
    1.3564   -1.9828    1.9556 H   0  0  0  0  0  0  0  0  0  0  0  0
   -0.5796   -1.1716    1.6614 H   0  0  0  0  0  0  0  0  0  0  0  0
    1.8017   -3.3096   -0.7485 H   0  0  0  0  0  0  0  0  0  0  0  0
    2.7275   -3.2558    0.7375 H   0  0  0  0  0  0  0  0  0  0  0  0
    1.9237   -5.3783    0.2214 H   0  0  0  0  0  0  0  0  0  0  0  0
   -0.9614   -4.8230    1.0240 H   0  0  0  0  0  0  0  0  0  0  0  0
   -0.3667   -4.7555   -0.6879 H   0  0  0  0  0  0  0  0  0  0  0  0
    2.4487   -4.7563    2.5146 H   0  0  0  0  0  0  0  0  0  0  0  0
    0.7443   -4.3385    2.8476 H   0  0  0  0  0  0  0  0  0  0  0  0
   -1.0679   -7.0427    0.5110 H   0  0  0  0  0  0  0  0  0  0  0  0
    0.1887   -6.9333   -0.8111 H   0  0  0  0  0  0  0  0  0  0  0  0
    1.9221   -6.8910    3.0008 H   0  0  0  0  0  0  0  0  0  0  0  0
    0.1607   -6.5993    3.0250 H   0  0  0  0  0  0  0  0  0  0  0  0
    1.9229   -7.3737    0.6247 H   0  0  0  0  0  0  0  0  0  0  0  0
    0.6087   -8.2457    1.4145 H   0  0  0  0  0  0  0  0  0  0  0  0
    0.8718    0.8053    1.1133 H   0  0  0  0  0  0  0  0  0  0  0  0
    1.9581   -0.1253    2.1359 H   0  0  0  0  0  0  0  0  0  0  0  0
    1.6855    2.3063   -0.6180 H   0  0  0  0  0  0  0  0  0  0  0  0
    2.7152    0.4911   -1.9468 H   0  0  0  0  0  0  0  0  0  0  0  0
    2.1757    2.6525   -2.4651 H   0  0  0  0  0  0  0  0  0  0  0  0
    4.5207    3.1733   -0.8070 H   0  0  0  0  0  0  0  0  0  0  0  0
    2.9969    4.0338   -1.0245 H   0  0  0  0  0  0  0  0  0  0  0  0
    2.8617    4.5557    1.3715 H   0  0  0  0  0  0  0  0  0  0  0  0
    4.6346    5.9308    0.4612 H   0  0  0  0  0  0  0  0  0  0  0  0
    5.6158    4.5141    0.0063 H   0  0  0  0  0  0  0  0  0  0  0  0
    6.5619    5.7352    1.8499 H   0  0  0  0  0  0  0  0  0  0  0  0
    5.1978    5.3880    2.9198 H   0  0  0  0  0  0  0  0  0  0  0  0
    6.5780    3.6342    3.4563 H   0  0  0  0  0  0  0  0  0  0  0  0
    7.4678    3.6315    1.9131 H   0  0  0  0  0  0  0  0  0  0  0  0
    5.7278    1.6686    2.5275 H   0  0  0  0  0  0  0  0  0  0  0  0
    5.8498    2.2561    0.8273 H   0  0  0  0  0  0  0  0  0  0  0  0
    4.0705    3.5313    2.9871 H   0  0  0  0  0  0  0  0  0  0  0  0
    3.4011    1.1512    2.7831 H   0  0  0  0  0  0  0  0  0  0  0  0
    2.1670    2.3682    2.4035 H   0  0  0  0  0  0  0  0  0  0  0  0
    4.8453    0.5056   -0.5757 H   0  0  0  0  0  0  0  0  0  0  0  0
    5.6388   -1.0025   -3.8707 H   0  0  0  0  0  0  0  0  0  0  0  0
    5.0000   -1.4762   -2.2857 H   0  0  0  0  0  0  0  0  0  0  0  0
    3.8864   -0.6309   -3.5088 H   0  0  0  0  0  0  0  0  0  0  0  0
    6.2937    1.3077   -4.3577 H   0  0  0  0  0  0  0  0  0  0  0  0
    5.7304    2.6341   -3.3120 H   0  0  0  0  0  0  0  0  0  0  0  0
    4.5423    1.6044   -4.3055 H   0  0  0  0  0  0  0  0  0  0  0  0
    7.1078    1.0757   -1.2722 H   0  0  0  0  0  0  0  0  0  0  0  0
    6.9799   -0.6433   -1.7078 H   0  0  0  0  0  0  0  0  0  0  0  0
    7.5592    0.6170   -2.9353 H   0  0  0  0  0  0  0  0  0  0  0  0
  1  2  1  0
  1  4  1  0
  3  4  1  0
  4  5  1  0
  5  6  1  0
  7  8  1  0
  8  9  1  0
  9 10  1  0
  6 11  1  0
  7 11  1  0
  3 12  1  0
 10 12  1  0
 11 12  1  0
  1 13  1  0
 13 14  1  0
 14 15  1  0
 15 16  1  0
 14 17  1  0
 17 18  1  0
 18 19  1  0
 18 20  1  0
 21 22  1  0
 21 23  1  0
 15 24  1  0
 23 24  1  0
 23 25  1  0
 25 26  1  0
 26 27  1  0
 26 28  1  0
 27 29  1  0
 28 30  1  0
 29 31  1  0
 30 31  1  0
 21 33  1  0
 32 33  1  0
 32 34  1  0
 34 35  1  0
 35 36  1  0
 34 37  1  0
 37 38  1  0
 38 39  1  0
 39 40  1  0
 40 41  1  0
 41 42  1  0
 38 43  1  0
 42 43  1  0
 32 44  1  0
 43 44  1  0
 35 45  1  0
 46 45  1  0
 46 47  1  0
 46 48  1  0
 46 49  1  0
  1 50  1  0
  2 51  1  0
  3 52  1  0
  4 53  1  6
  5 54  1  0
  5 55  1  0
  6 56  1  0
  6 57  1  0
  7 58  1  0
  7 59  1  0
  8 60  1  0
  8 61  1  0
  9 62  1  0
  9 63  1  0
 10 64  1  0
 10 65  1  0
 11 66  1  0
 12 67  1  0
 13 68  1  0
 14 69  1  1
 15 70  1  0
 16 71  1  0
 17 72  1  0
 17 73  1  0
 18 74  1  1
 19 75  1  0
 20 76  1  0
 20 77  1  0
 21 78  1  6
 22 79  1  0
 23 80  1  1
 24 81  1  0
 25 82  1  0
 25 83  1  0
 26 84  1  0
 27 85  1  0
 27 86  1  0
 28 87  1  0
 28 88  1  0
 29 89  1  0
 29 90  1  0
 30 91  1  0
 30 92  1  0
 31 93  1  0
 31 94  1  0
 33 95  1  0
 33 96  1  0
 34 97  1  6
 35 98  1  0
 36 99  1  0
 37100  1  0
 37101  1  0
 38102  1  1
 39103  1  0
 39104  1  0
 40105  1  0
 40106  1  0
 41107  1  0
 41108  1  0
 42109  1  0
 42110  1  0
 43111  1  1
 44112  1  0
 44113  1  0
 45114  1  0
 47115  1  0
 47116  1  0
 47117  1  0
 48118  1  0
 48119  1  0
 48120  1  0
 49121  1  0
 49122  1  0
 49123  1  0
M  END
>  <PDBID>  (1) 
1HXB

>  <PDB ID>  (1) 
1HXB

>  <Generic Name>  (1) 
Saquinavir

>  <Brand Name>  (1) 
Fortovase Roche#Invirase#Invirase - Cap 200mg#Fortovase#ROC

>  <DrugBank ID>  (1) 
DB01232

>  <ATC Codes>  (1) 
J05AE01

>  <Ligand ID>  (1) 
ROC

>  <Target Name>  (1) 
Pol polyprotein

>  <UniProt ID>  (1) 
Q72874

>  <PDB ID.1>  (1) 
1HXB

>  <Seq. Identity>  (1) 
100%

$$$$
