PDB_DB01232_07
     RDKit          3D

123127  0  0  0  0  0  0  0  0999 V2000
    4.9471    0.3393   -0.8747 C   0  0  0  0  0  0  0  0  0  0  0  0
    6.2020    0.6153   -0.3414 O   0  0  0  0  0  0  0  0  0  0  0  0
    5.0422   -1.8473    0.1853 N   0  0  0  0  0  0  0  0  0  0  0  0
    4.8394   -1.1487   -1.0928 C   0  0  2  0  0  0  0  0  0  0  0  0
    5.7180   -1.6848   -2.1874 C   0  0  0  0  0  0  0  0  0  0  0  0
    6.2820   -3.0102   -1.6514 C   0  0  0  0  0  0  0  0  0  0  0  0
    8.0766   -3.7601   -0.1347 C   0  0  0  0  0  0  0  0  0  0  0  0
    8.7619   -3.5717    1.1936 C   0  0  0  0  0  0  0  0  0  0  0  0
    7.9145   -2.9161    2.2415 C   0  0  0  0  0  0  0  0  0  0  0  0
    6.4724   -2.9293    1.7659 C   0  0  0  0  0  0  0  0  0  0  0  0
    7.2514   -2.5981   -0.5622 C   0  0  0  0  0  0  0  0  0  0  0  0
    6.4142   -1.9968    0.5495 C   0  0  0  0  0  0  0  0  0  0  0  0
    3.9547    0.9892   -0.1863 N   0  0  0  0  0  0  0  0  0  0  0  0
    2.6953    1.3491   -0.5225 C   0  0  2  0  0  0  0  0  0  0  0  0
    1.6417    0.3164   -0.9714 C   0  0  0  0  0  0  0  0  0  0  0  0
    1.5779   -0.6307    0.0318 O   0  0  0  0  0  0  0  0  0  0  0  0
    2.6883    2.4563   -1.6194 C   0  0  0  0  0  0  0  0  0  0  0  0
    3.3941    3.6737   -1.1414 C   0  0  1  0  0  0  0  0  0  0  0  0
    4.7171    3.3347   -0.8521 O   0  0  0  0  0  0  0  0  0  0  0  0
    3.2681    4.7990   -2.0330 N   0  0  0  0  0  0  0  0  0  0  0  0
   -1.2998    0.1371    0.5501 C   0  0  1  0  0  0  0  0  0  0  0  0
   -0.6372   -0.9739    0.8443 O   0  0  0  0  0  0  0  0  0  0  0  0
   -0.4317    1.2880   -0.0062 C   0  0  1  0  0  0  0  0  0  0  0  0
    0.3580    0.9562   -1.1063 N   0  0  0  0  0  0  0  0  0  0  0  0
   -1.4378    2.3625   -0.3440 C   0  0  0  0  0  0  0  0  0  0  0  0
   -0.9048    3.6857   -0.8029 C   0  0  0  0  0  0  0  0  0  0  0  0
   -2.1818    4.5337   -1.0588 C   0  0  0  0  0  0  0  0  0  0  0  0
   -0.1145    4.3318    0.3286 C   0  0  0  0  0  0  0  0  0  0  0  0
   -1.8144    5.9415   -1.3647 C   0  0  0  0  0  0  0  0  0  0  0  0
    0.2094    5.7542   -0.0081 C   0  0  0  0  0  0  0  0  0  0  0  0
   -1.1100    6.5123   -0.1371 C   0  0  0  0  0  0  0  0  0  0  0  0
   -3.5791   -0.8595    0.3488 N   0  0  0  0  0  0  0  0  0  0  0  0
   -2.5618   -0.0517   -0.1985 C   0  0  0  0  0  0  0  0  0  0  0  0
   -3.4565   -2.2573    0.3723 C   0  0  2  0  0  0  0  0  0  0  0  0
   -4.0233   -2.7325   -1.0035 C   0  0  0  0  0  0  0  0  0  0  0  0
   -3.9412   -4.1038   -1.0906 O   0  0  0  0  0  0  0  0  0  0  0  0
   -4.4018   -2.8706    1.3830 C   0  0  0  0  0  0  0  0  0  0  0  0
   -4.2981   -2.3338    2.7658 C   0  0  2  0  0  0  0  0  0  0  0  0
   -5.6679   -2.4709    3.4048 C   0  0  0  0  0  0  0  0  0  0  0  0
   -5.6975   -1.8051    4.7553 C   0  0  0  0  0  0  0  0  0  0  0  0
   -5.5292   -0.3076    4.5070 C   0  0  0  0  0  0  0  0  0  0  0  0
   -4.1534   -0.1120    3.9739 C   0  0  0  0  0  0  0  0  0  0  0  0
   -3.7972   -0.9093    2.7654 C   0  0  2  0  0  0  0  0  0  0  0  0
   -4.2469   -0.2707    1.4879 C   0  0  0  0  0  0  0  0  0  0  0  0
   -5.3729   -2.2373   -1.0970 N   0  0  0  0  0  0  0  0  0  0  0  0
   -5.7761   -1.7809   -2.3803 C   0  0  0  0  0  0  0  0  0  0  0  0
   -5.7747   -2.9245   -3.3830 C   0  0  0  0  0  0  0  0  0  0  0  0
   -7.2261   -1.2808   -2.3523 C   0  0  0  0  0  0  0  0  0  0  0  0
   -4.9631   -0.6807   -2.9826 C   0  0  0  0  0  0  0  0  0  0  0  0
    5.0742    0.7464   -1.9539 H   0  0  0  0  0  0  0  0  0  0  0  0
    6.1821    1.2918    0.3818 H   0  0  0  0  0  0  0  0  0  0  0  0
    4.6016   -1.2254    0.9035 H   0  0  0  0  0  0  0  0  0  0  0  0
    3.7991   -1.3827   -1.3819 H   0  0  0  0  0  0  0  0  0  0  0  0
    6.6062   -0.9952   -2.2831 H   0  0  0  0  0  0  0  0  0  0  0  0
    5.2017   -1.8339   -3.1406 H   0  0  0  0  0  0  0  0  0  0  0  0
    5.4597   -3.5602   -1.1220 H   0  0  0  0  0  0  0  0  0  0  0  0
    6.7199   -3.6374   -2.4186 H   0  0  0  0  0  0  0  0  0  0  0  0
    7.4877   -4.6790   -0.1988 H   0  0  0  0  0  0  0  0  0  0  0  0
    8.9111   -3.8553   -0.8921 H   0  0  0  0  0  0  0  0  0  0  0  0
    9.7211   -2.9903    1.0904 H   0  0  0  0  0  0  0  0  0  0  0  0
    9.0508   -4.5876    1.5465 H   0  0  0  0  0  0  0  0  0  0  0  0
    8.0056   -3.4571    3.2215 H   0  0  0  0  0  0  0  0  0  0  0  0
    8.2416   -1.8542    2.3692 H   0  0  0  0  0  0  0  0  0  0  0  0
    5.8562   -2.4598    2.5786 H   0  0  0  0  0  0  0  0  0  0  0  0
    6.1480   -3.9431    1.5269 H   0  0  0  0  0  0  0  0  0  0  0  0
    7.9076   -1.8149   -1.0256 H   0  0  0  0  0  0  0  0  0  0  0  0
    6.9420   -1.0880    0.8824 H   0  0  0  0  0  0  0  0  0  0  0  0
    4.2588    1.2759    0.7615 H   0  0  0  0  0  0  0  0  0  0  0  0
    2.2111    1.8563    0.3491 H   0  0  0  0  0  0  0  0  0  0  0  0
    1.9194   -0.1369   -1.9163 H   0  0  0  0  0  0  0  0  0  0  0  0
    2.0284   -0.3598    0.8767 H   0  0  0  0  0  0  0  0  0  0  0  0
    1.6519    2.6545   -1.8345 H   0  0  0  0  0  0  0  0  0  0  0  0
    3.1236    2.0357   -2.5544 H   0  0  0  0  0  0  0  0  0  0  0  0
    2.9923    4.0478   -0.1521 H   0  0  0  0  0  0  0  0  0  0  0  0
    4.9555    3.4640    0.0977 H   0  0  0  0  0  0  0  0  0  0  0  0
    4.0790    5.4264   -1.8633 H   0  0  0  0  0  0  0  0  0  0  0  0
    3.2926    4.5164   -3.0348 H   0  0  0  0  0  0  0  0  0  0  0  0
   -1.5775    0.6355    1.5929 H   0  0  0  0  0  0  0  0  0  0  0  0
   -0.4795   -1.1274    1.8162 H   0  0  0  0  0  0  0  0  0  0  0  0
    0.2179    1.6769    0.8151 H   0  0  0  0  0  0  0  0  0  0  0  0
    0.0676    1.1824   -2.0497 H   0  0  0  0  0  0  0  0  0  0  0  0
   -1.9388    1.9757   -1.3163 H   0  0  0  0  0  0  0  0  0  0  0  0
   -2.1588    2.5273    0.4538 H   0  0  0  0  0  0  0  0  0  0  0  0
   -0.2881    3.6740   -1.6954 H   0  0  0  0  0  0  0  0  0  0  0  0
   -2.7259    4.5026   -0.0780 H   0  0  0  0  0  0  0  0  0  0  0  0
   -2.7117    3.9993   -1.8565 H   0  0  0  0  0  0  0  0  0  0  0  0
    0.7876    3.7632    0.4887 H   0  0  0  0  0  0  0  0  0  0  0  0
   -0.7643    4.2707    1.2368 H   0  0  0  0  0  0  0  0  0  0  0  0
   -2.7332    6.5178   -1.5133 H   0  0  0  0  0  0  0  0  0  0  0  0
   -1.2016    6.0283   -2.2814 H   0  0  0  0  0  0  0  0  0  0  0  0
    0.7493    5.8134   -0.9566 H   0  0  0  0  0  0  0  0  0  0  0  0
    0.7671    6.2167    0.8450 H   0  0  0  0  0  0  0  0  0  0  0  0
   -0.9645    7.5781   -0.2848 H   0  0  0  0  0  0  0  0  0  0  0  0
   -1.7645    6.2594    0.7400 H   0  0  0  0  0  0  0  0  0  0  0  0
   -2.2886   -0.4423   -1.2147 H   0  0  0  0  0  0  0  0  0  0  0  0
   -3.0913    0.9259   -0.4090 H   0  0  0  0  0  0  0  0  0  0  0  0
   -2.4781   -2.7052    0.4827 H   0  0  0  0  0  0  0  0  0  0  0  0
   -3.4416   -2.2880   -1.8313 H   0  0  0  0  0  0  0  0  0  0  0  0
   -3.1821   -4.4537   -1.5880 H   0  0  0  0  0  0  0  0  0  0  0  0
   -4.2761   -3.9868    1.4254 H   0  0  0  0  0  0  0  0  0  0  0  0
   -5.4424   -2.6406    1.0092 H   0  0  0  0  0  0  0  0  0  0  0  0
   -3.6070   -2.9390    3.3895 H   0  0  0  0  0  0  0  0  0  0  0  0
   -5.8281   -3.5474    3.5819 H   0  0  0  0  0  0  0  0  0  0  0  0
   -6.4483   -2.0010    2.7752 H   0  0  0  0  0  0  0  0  0  0  0  0
   -6.6301   -2.0381    5.2861 H   0  0  0  0  0  0  0  0  0  0  0  0
   -4.7949   -2.1498    5.3187 H   0  0  0  0  0  0  0  0  0  0  0  0
   -6.3379    0.0856    3.8667 H   0  0  0  0  0  0  0  0  0  0  0  0
   -5.5737    0.1832    5.5138 H   0  0  0  0  0  0  0  0  0  0  0  0
   -3.4049   -0.2409    4.7769 H   0  0  0  0  0  0  0  0  0  0  0  0
   -4.0890    0.9783    3.6723 H   0  0  0  0  0  0  0  0  0  0  0  0
   -2.6889   -0.9912    2.7510 H   0  0  0  0  0  0  0  0  0  0  0  0
   -5.3317   -0.4855    1.3831 H   0  0  0  0  0  0  0  0  0  0  0  0
   -4.1438    0.8266    1.4505 H   0  0  0  0  0  0  0  0  0  0  0  0
   -5.9917   -3.0771   -0.8796 H   0  0  0  0  0  0  0  0  0  0  0  0
   -4.7790   -3.2462   -3.6782 H   0  0  0  0  0  0  0  0  0  0  0  0
   -6.2483   -3.7957   -2.8296 H   0  0  0  0  0  0  0  0  0  0  0  0
   -6.4763   -2.6967   -4.2165 H   0  0  0  0  0  0  0  0  0  0  0  0
   -7.2631   -0.1673   -2.1961 H   0  0  0  0  0  0  0  0  0  0  0  0
   -7.6986   -1.4303   -3.3445 H   0  0  0  0  0  0  0  0  0  0  0  0
   -7.7951   -1.7662   -1.5402 H   0  0  0  0  0  0  0  0  0  0  0  0
   -5.5281   -0.3728   -3.9171 H   0  0  0  0  0  0  0  0  0  0  0  0
   -3.9788   -1.0341   -3.3895 H   0  0  0  0  0  0  0  0  0  0  0  0
   -4.9002    0.2290   -2.3873 H   0  0  0  0  0  0  0  0  0  0  0  0
  1  2  1  0
  1  4  1  0
  3  4  1  0
  4  5  1  0
  5  6  1  0
  7  8  1  0
  8  9  1  0
  9 10  1  0
  6 11  1  0
  7 11  1  0
  3 12  1  0
 10 12  1  0
 11 12  1  0
  1 13  1  0
 13 14  1  0
 14 15  1  0
 15 16  1  0
 14 17  1  0
 17 18  1  0
 18 19  1  0
 18 20  1  0
 21 22  1  0
 21 23  1  0
 15 24  1  0
 23 24  1  0
 23 25  1  0
 25 26  1  0
 26 27  1  0
 26 28  1  0
 27 29  1  0
 28 30  1  0
 29 31  1  0
 30 31  1  0
 21 33  1  0
 32 33  1  0
 32 34  1  0
 34 35  1  0
 35 36  1  0
 34 37  1  0
 37 38  1  0
 38 39  1  0
 39 40  1  0
 40 41  1  0
 41 42  1  0
 38 43  1  0
 42 43  1  0
 32 44  1  0
 43 44  1  0
 35 45  1  0
 46 45  1  0
 46 47  1  0
 46 48  1  0
 46 49  1  0
  1 50  1  0
  2 51  1  0
  3 52  1  0
  4 53  1  6
  5 54  1  0
  5 55  1  0
  6 56  1  0
  6 57  1  0
  7 58  1  0
  7 59  1  0
  8 60  1  0
  8 61  1  0
  9 62  1  0
  9 63  1  0
 10 64  1  0
 10 65  1  0
 11 66  1  0
 12 67  1  0
 13 68  1  0
 14 69  1  1
 15 70  1  0
 16 71  1  0
 17 72  1  0
 17 73  1  0
 18 74  1  1
 19 75  1  0
 20 76  1  0
 20 77  1  0
 21 78  1  1
 22 79  1  0
 23 80  1  1
 24 81  1  0
 25 82  1  0
 25 83  1  0
 26 84  1  0
 27 85  1  0
 27 86  1  0
 28 87  1  0
 28 88  1  0
 29 89  1  0
 29 90  1  0
 30 91  1  0
 30 92  1  0
 31 93  1  0
 31 94  1  0
 33 95  1  0
 33 96  1  0
 34 97  1  1
 35 98  1  0
 36 99  1  0
 37100  1  0
 37101  1  0
 38102  1  1
 39103  1  0
 39104  1  0
 40105  1  0
 40106  1  0
 41107  1  0
 41108  1  0
 42109  1  0
 42110  1  0
 43111  1  6
 44112  1  0
 44113  1  0
 45114  1  0
 47115  1  0
 47116  1  0
 47117  1  0
 48118  1  0
 48119  1  0
 48120  1  0
 49121  1  0
 49122  1  0
 49123  1  0
M  END
>  <PDBID>  (1) 
1HXB

>  <PDB ID>  (1) 
1HXB

>  <Generic Name>  (1) 
Saquinavir

>  <Brand Name>  (1) 
Fortovase Roche#Invirase#Invirase - Cap 200mg#Fortovase#ROC

>  <DrugBank ID>  (1) 
DB01232

>  <ATC Codes>  (1) 
J05AE01

>  <Ligand ID>  (1) 
ROC

>  <Target Name>  (1) 
Pol polyprotein

>  <UniProt ID>  (1) 
Q72874

>  <PDB ID.1>  (1) 
1HXB

>  <Seq. Identity>  (1) 
100%

$$$$
