PDB_DB01117_07
     RDKit          3D

 63 66  0  0  0  0  0  0  0  0999 V2000
   -2.1744    0.0815   -1.8568 O   0  0  0  0  0  0  0  0  0  0  0  0
   -2.7467   -2.2460   -0.5516 O   0  0  0  0  0  0  0  0  0  0  0  0
   -2.0999    0.6436   -0.5687 C   0  0  0  0  0  0  0  0  0  0  0  0
   -1.2232   -0.1751    0.3477 C   0  0  0  0  0  0  0  0  0  0  0  0
   -2.0018   -1.0172    1.3028 C   0  0  0  0  0  0  0  0  0  0  0  0
   -3.2378   -1.5646    0.5727 C   0  0  0  0  0  0  0  0  0  0  0  0
   -4.9840   -0.8666   -1.0648 C   0  0  0  0  0  0  0  0  0  0  0  0
   -6.2145    0.0439   -1.1528 C   0  0  0  0  0  0  0  0  0  0  0  0
   -5.7593    1.4048   -0.6564 C   0  0  0  0  0  0  0  0  0  0  0  0
   -4.2881    1.6229   -0.9823 C   0  0  0  0  0  0  0  0  0  0  0  0
   -3.4966    0.7938    0.0042 C   0  0  0  0  0  0  0  0  0  0  0  0
   -4.2109   -0.5004    0.2030 C   0  0  0  0  0  0  0  0  0  0  0  0
   -1.2463   -2.1859    1.5707 O   0  0  0  0  0  0  0  0  0  0  0  0
    0.6983    0.0200    1.9472 C   0  0  0  0  0  0  0  0  0  0  0  0
    1.9331   -0.5743    1.2540 C   0  0  0  0  0  0  0  0  0  0  0  0
    2.8303    0.6075    0.9667 C   0  0  0  0  0  0  0  0  0  0  0  0
    2.0211    1.7277    0.4181 C   0  0  0  0  0  0  0  0  0  0  0  0
    0.7018    1.2411   -0.1415 C   0  0  0  0  0  0  0  0  0  0  0  0
   -0.2025    0.7318    0.9709 C   0  0  0  0  0  0  0  0  0  0  0  0
    7.7903   -0.4570   -1.8830 Cl  0  0  0  0  0  0  0  0  0  0  0  0
    4.0639    0.2921    0.2085 C   0  0  0  0  0  0  0  0  0  0  0  0
    3.8960   -0.3061   -1.1391 C   0  0  0  0  0  0  0  0  0  0  0  0
    5.1741   -0.0198   -1.9407 C   0  0  0  0  0  0  0  0  0  0  0  0
    6.3280    0.0474   -0.9687 C   0  0  0  0  0  0  0  0  0  0  0  0
    6.1759   -0.9241    0.1680 C   0  0  0  0  0  0  0  0  0  0  0  0
    4.9639   -0.6168    1.0205 C   0  0  0  0  0  0  0  0  0  0  0  0
   -1.2395   -0.1441   -2.1111 H   0  0  0  0  0  0  0  0  0  0  0  0
   -3.4087   -2.8218   -0.9726 H   0  0  0  0  0  0  0  0  0  0  0  0
   -1.7384    1.6790   -0.7232 H   0  0  0  0  0  0  0  0  0  0  0  0
   -0.6667   -0.8859   -0.3175 H   0  0  0  0  0  0  0  0  0  0  0  0
   -2.2748   -0.4794    2.2097 H   0  0  0  0  0  0  0  0  0  0  0  0
   -3.7329   -2.2625    1.2844 H   0  0  0  0  0  0  0  0  0  0  0  0
   -5.3759   -1.8996   -1.0047 H   0  0  0  0  0  0  0  0  0  0  0  0
   -4.3810   -0.7240   -1.9744 H   0  0  0  0  0  0  0  0  0  0  0  0
   -6.6059    0.0926   -2.1904 H   0  0  0  0  0  0  0  0  0  0  0  0
   -6.9949   -0.3751   -0.4629 H   0  0  0  0  0  0  0  0  0  0  0  0
   -6.4035    2.1550   -1.1589 H   0  0  0  0  0  0  0  0  0  0  0  0
   -5.9288    1.5163    0.4336 H   0  0  0  0  0  0  0  0  0  0  0  0
   -4.1427    1.3012   -2.0303 H   0  0  0  0  0  0  0  0  0  0  0  0
   -4.0584    2.7055   -0.9078 H   0  0  0  0  0  0  0  0  0  0  0  0
   -3.4248    1.3288    0.9501 H   0  0  0  0  0  0  0  0  0  0  0  0
   -5.0106   -0.3688    0.9901 H   0  0  0  0  0  0  0  0  0  0  0  0
   -1.8066   -2.8996    1.9440 H   0  0  0  0  0  0  0  0  0  0  0  0
    1.1153    0.8087    2.6352 H   0  0  0  0  0  0  0  0  0  0  0  0
    0.2121   -0.7000    2.5986 H   0  0  0  0  0  0  0  0  0  0  0  0
    1.6742   -1.1609    0.3754 H   0  0  0  0  0  0  0  0  0  0  0  0
    2.4237   -1.2050    2.0070 H   0  0  0  0  0  0  0  0  0  0  0  0
    3.1752    0.9475    1.9933 H   0  0  0  0  0  0  0  0  0  0  0  0
    2.5536    2.3270   -0.3542 H   0  0  0  0  0  0  0  0  0  0  0  0
    1.7386    2.4898    1.2043 H   0  0  0  0  0  0  0  0  0  0  0  0
    0.8129    0.4964   -0.9483 H   0  0  0  0  0  0  0  0  0  0  0  0
    0.1989    2.1189   -0.6457 H   0  0  0  0  0  0  0  0  0  0  0  0
   -0.7035    1.6151    1.4119 H   0  0  0  0  0  0  0  0  0  0  0  0
    4.6420    1.2508    0.0911 H   0  0  0  0  0  0  0  0  0  0  0  0
    3.8958   -1.4302   -1.0230 H   0  0  0  0  0  0  0  0  0  0  0  0
    3.0037   -0.0425   -1.6970 H   0  0  0  0  0  0  0  0  0  0  0  0
    5.3247   -0.7603   -2.7412 H   0  0  0  0  0  0  0  0  0  0  0  0
    5.0316    1.0219   -2.3390 H   0  0  0  0  0  0  0  0  0  0  0  0
    6.5429    1.0856   -0.6271 H   0  0  0  0  0  0  0  0  0  0  0  0
    6.1208   -1.9411   -0.2799 H   0  0  0  0  0  0  0  0  0  0  0  0
    7.1097   -0.9018    0.7594 H   0  0  0  0  0  0  0  0  0  0  0  0
    4.4069   -1.5831    1.1454 H   0  0  0  0  0  0  0  0  0  0  0  0
    5.2247   -0.1588    1.9877 H   0  0  0  0  0  0  0  0  0  0  0  0
  1  3  1  0
  3  4  1  0
  4  5  1  0
  2  6  1  0
  5  6  1  0
  7  8  1  0
  8  9  1  0
  9 10  1  0
  3 11  1  0
 10 11  1  0
  6 12  1  0
  7 12  1  0
 11 12  1  0
  5 13  1  0
 14 15  1  0
 15 16  1  0
 16 17  1  0
 17 18  1  0
  4 19  1  0
 14 19  1  0
 18 19  1  0
 16 21  1  0
 21 22  1  0
 22 23  1  0
 20 24  1  0
 23 24  1  0
 24 25  1  0
 21 26  1  0
 25 26  1  0
  1 27  1  0
  2 28  1  0
  3 29  1  0
  4 30  1  0
  5 31  1  0
  6 32  1  0
  7 33  1  0
  7 34  1  0
  8 35  1  0
  8 36  1  0
  9 37  1  0
  9 38  1  0
 10 39  1  0
 10 40  1  0
 11 41  1  0
 12 42  1  0
 13 43  1  0
 14 44  1  0
 14 45  1  0
 15 46  1  0
 15 47  1  0
 16 48  1  0
 17 49  1  0
 17 50  1  0
 18 51  1  0
 18 52  1  0
 19 53  1  0
 21 54  1  0
 22 55  1  0
 22 56  1  0
 23 57  1  0
 23 58  1  0
 24 59  1  0
 25 60  1  0
 25 61  1  0
 26 62  1  0
 26 63  1  0
M  END
>  <PDBID>  (1) 
4PD4

>  <PDB ID>  (1) 
4PD4

>  <Generic Name>  (1) 
Atovaquone

>  <Brand Name>  (1) 
Atovaquone#Atovaquone Proguanil#Atovaquone and Proguanil HCl#Atovaquone and Proguanil Hydrochloride#Atovaquone and Proguanil Hydrochloride Pediatric#Malarone#Malarone Pediatric#Mepron#Mepron Tab 250mg#Mylan-atovaquone/proguanil#Teva-atovaquone Proguanil

>  <DrugBank ID>  (1) 
DB01117

>  <ATC Codes>  (1) 
P01AX06

>  <Ligand ID>  (1) 
AOQ

>  <Target Name>  (1) 
Cytochrome b

>  <UniProt ID>  (1) 
Q02768

>  <PDB ID.1>  (1) 
4PD4

>  <Seq. Identity>  (1) 
42%

$$$$
