PDB_DB00443_03
     RDKit          3D

130136  0  0  0  0  0  0  0  0999 V2000
    3.3666    0.7055    1.2158 C   0  0  0  0  0  0  0  0  0  0  0  0
    4.7875    0.9330    0.8266 C   0  0  0  0  0  0  0  0  0  0  0  0
    5.3724   -0.2474    0.1472 C   0  0  0  0  0  0  0  0  0  0  0  0
    4.5375   -0.9045   -0.8714 C   0  0  0  0  0  0  0  0  0  0  0  0
    3.0766   -0.8825   -0.6689 C   0  0  0  0  0  0  0  0  0  0  0  0
    2.5104   -2.0390    0.0890 C   0  0  0  0  0  0  0  0  0  0  0  0
    1.0506   -2.1534   -0.2364 C   0  0  0  0  0  0  0  0  0  0  0  0
    0.4168   -0.7883   -0.5223 C   0  0  2  0  0  0  0  0  0  0  0  0
    1.1496    0.2353    0.3390 C   0  0  1  0  0  0  0  0  0  0  0  0
    2.5689    0.4205   -0.0395 C   0  0  1  0  0  0  0  0  0  0  0  0
    0.4254    1.5399    0.4242 C   0  0  2  0  0  0  0  0  0  0  0  0
   -1.0069    1.4177    0.8389 C   0  0  0  0  0  0  0  0  0  0  0  0
   -1.7184    0.4780   -0.0865 C   0  0  1  0  0  0  0  0  0  0  0  0
   -0.9780   -0.8602   -0.0059 C   0  0  1  0  0  0  0  0  0  0  0  0
   -1.9019   -1.7586   -0.7389 C   0  0  0  0  0  0  0  0  0  0  0  0
   -3.2787   -1.2397   -0.3409 C   0  0  2  0  0  0  0  0  0  0  0  0
   -3.0621    0.0380    0.4040 C   0  0  2  0  0  0  0  0  0  0  0  0
   -1.8034    0.9558   -1.4948 C   0  0  0  0  0  0  0  0  0  0  0  0
    2.8324    1.4870   -1.0563 C   0  0  0  0  0  0  0  0  0  0  0  0
   -4.1475    1.0443    0.1999 C   0  0  0  0  0  0  0  0  0  0  0  0
   -5.4896    0.5466    0.7162 C   0  0  0  0  0  0  0  0  0  0  0  0
   -3.9026   -2.2849    0.5799 C   0  0  0  0  0  0  0  0  0  0  0  0
    1.1348   -0.3107    1.6333 F   0  0  0  0  0  0  0  0  0  0  0  0
    6.5855    0.1576   -0.4487 O   0  0  0  0  0  0  0  0  0  0  0  0
    0.4928    2.3093   -0.7115 O   0  0  0  0  0  0  0  0  0  0  0  0
   -2.9205   -0.2954    1.7660 O   0  0  0  0  0  0  0  0  0  0  0  0
   -4.3258    1.3875   -1.1309 O   0  0  0  0  0  0  0  0  0  0  0  0
   -6.3800    1.6330    0.5510 O   0  0  0  0  0  0  0  0  0  0  0  0
   -0.9624   -1.1426    1.0526 H   0  0  0  0  0  0  0  0  0  0  0  0
   -3.1164   -0.7612   -1.4260 C   0  0  0  0  0  0  0  0  0  0  0  0
   -4.5712   -0.8652   -1.3043 C   0  0  0  0  0  0  0  0  0  0  0  0
   -5.2772    0.0010   -0.3524 C   0  0  0  0  0  0  0  0  0  0  0  0
   -4.4977    0.6440    0.7175 C   0  0  0  0  0  0  0  0  0  0  0  0
   -3.0094    0.4299    0.6668 C   0  0  0  0  0  0  0  0  0  0  0  0
   -2.7575   -0.9303    1.3126 C   0  0  0  0  0  0  0  0  0  0  0  0
   -1.3030   -1.2430    1.2733 C   0  0  0  0  0  0  0  0  0  0  0  0
   -0.4889   -0.1204    0.6654 C   0  0  2  0  0  0  0  0  0  0  0  0
   -1.0083    0.2197   -0.7433 C   0  0  1  0  0  0  0  0  0  0  0  0
   -2.4670    0.4457   -0.7700 C   0  0  1  0  0  0  0  0  0  0  0  0
   -0.1547    1.3375   -1.2464 C   0  0  2  0  0  0  0  0  0  0  0  0
    1.2984    0.9000   -1.3496 C   0  0  0  0  0  0  0  0  0  0  0  0
    1.8133    0.4914   -0.0325 C   0  0  1  0  0  0  0  0  0  0  0  0
    0.8958   -0.6056    0.5032 C   0  0  1  0  0  0  0  0  0  0  0  0
    1.6196   -1.0169    1.7234 C   0  0  0  0  0  0  0  0  0  0  0  0
    3.0722   -0.9871    1.2676 C   0  0  2  0  0  0  0  0  0  0  0  0
    3.1071   -0.2902   -0.0685 C   0  0  2  0  0  0  0  0  0  0  0  0
    1.9904    1.6059    0.9573 C   0  0  0  0  0  0  0  0  0  0  0  0
   -2.9761    1.6637   -1.4215 C   0  0  0  0  0  0  0  0  0  0  0  0
    4.2768    0.5502   -0.3236 C   0  0  0  0  0  0  0  0  0  0  0  0
    5.6117   -0.0947   -0.2678 C   0  0  0  0  0  0  0  0  0  0  0  0
    3.4789   -2.4398    1.0764 C   0  0  0  0  0  0  0  0  0  0  0  0
   -0.6476   -0.9056   -1.5073 F   0  0  0  0  0  0  0  0  0  0  0  0
   -6.3079   -0.7580    0.2620 O   0  0  0  0  0  0  0  0  0  0  0  0
   -0.2105    2.3962   -0.3668 O   0  0  0  0  0  0  0  0  0  0  0  0
    2.9597   -1.2778   -1.0645 O   0  0  0  0  0  0  0  0  0  0  0  0
    4.1482    1.1804   -1.5599 O   0  0  0  0  0  0  0  0  0  0  0  0
    6.6223    0.8562   -0.4145 O   0  0  0  0  0  0  0  0  0  0  0  0
    2.9334    1.5632    1.7278 H   0  0  0  0  0  0  0  0  0  0  0  0
    3.3073   -0.2048    1.8513 H   0  0  0  0  0  0  0  0  0  0  0  0
    5.3666    1.0914    1.7843 H   0  0  0  0  0  0  0  0  0  0  0  0
    4.9028    1.8860    0.2702 H   0  0  0  0  0  0  0  0  0  0  0  0
    5.6662   -0.9989    0.9224 H   0  0  0  0  0  0  0  0  0  0  0  0
    4.8608   -1.9778   -0.9548 H   0  0  0  0  0  0  0  0  0  0  0  0
    4.7948   -0.4667   -1.8779 H   0  0  0  0  0  0  0  0  0  0  0  0
    2.5876   -0.9009   -1.6885 H   0  0  0  0  0  0  0  0  0  0  0  0
    3.0017   -2.9682   -0.3230 H   0  0  0  0  0  0  0  0  0  0  0  0
    2.7297   -2.0388    1.1638 H   0  0  0  0  0  0  0  0  0  0  0  0
    0.5572   -2.6033    0.6709 H   0  0  0  0  0  0  0  0  0  0  0  0
    0.8416   -2.8657   -1.0636 H   0  0  0  0  0  0  0  0  0  0  0  0
    0.5089   -0.5525   -1.5855 H   0  0  0  0  0  0  0  0  0  0  0  0
    0.9419    2.1290    1.2391 H   0  0  0  0  0  0  0  0  0  0  0  0
   -1.0923    1.0340    1.8691 H   0  0  0  0  0  0  0  0  0  0  0  0
   -1.4749    2.4216    0.7195 H   0  0  0  0  0  0  0  0  0  0  0  0
   -1.7480   -2.7996   -0.3947 H   0  0  0  0  0  0  0  0  0  0  0  0
   -1.7755   -1.7427   -1.8404 H   0  0  0  0  0  0  0  0  0  0  0  0
   -3.8990   -1.1358   -1.2456 H   0  0  0  0  0  0  0  0  0  0  0  0
   -0.8312    0.9125   -2.0353 H   0  0  0  0  0  0  0  0  0  0  0  0
   -2.4974    0.3127   -2.0574 H   0  0  0  0  0  0  0  0  0  0  0  0
   -2.1314    2.0071   -1.5219 H   0  0  0  0  0  0  0  0  0  0  0  0
    2.2124    1.3422   -1.9613 H   0  0  0  0  0  0  0  0  0  0  0  0
    2.8189    2.5123   -0.6580 H   0  0  0  0  0  0  0  0  0  0  0  0
    3.8946    1.3270   -1.4127 H   0  0  0  0  0  0  0  0  0  0  0  0
   -3.9399    1.9724    0.8094 H   0  0  0  0  0  0  0  0  0  0  0  0
   -5.4629    0.3542    1.8024 H   0  0  0  0  0  0  0  0  0  0  0  0
   -5.9028   -0.2706    0.1151 H   0  0  0  0  0  0  0  0  0  0  0  0
   -3.0544   -2.7664    1.1340 H   0  0  0  0  0  0  0  0  0  0  0  0
   -4.5294   -1.8082    1.3430 H   0  0  0  0  0  0  0  0  0  0  0  0
   -4.4459   -3.0529   -0.0073 H   0  0  0  0  0  0  0  0  0  0  0  0
    6.4878    1.1013   -0.7113 H   0  0  0  0  0  0  0  0  0  0  0  0
   -0.1388    3.0441   -0.6786 H   0  0  0  0  0  0  0  0  0  0  0  0
   -3.0645    0.4966    2.3412 H   0  0  0  0  0  0  0  0  0  0  0  0
   -4.9425    0.7685   -1.6062 H   0  0  0  0  0  0  0  0  0  0  0  0
   -5.9138    2.4959    0.7518 H   0  0  0  0  0  0  0  0  0  0  0  0
   -2.5749   -1.6562   -1.0062 H   0  0  0  0  0  0  0  0  0  0  0  0
   -2.7712   -0.7283   -2.5018 H   0  0  0  0  0  0  0  0  0  0  0  0
   -5.0184   -0.6921   -2.3312 H   0  0  0  0  0  0  0  0  0  0  0  0
   -4.8189   -1.9552   -1.1174 H   0  0  0  0  0  0  0  0  0  0  0  0
   -5.8580    0.8140   -0.8864 H   0  0  0  0  0  0  0  0  0  0  0  0
   -4.6701    1.7604    0.7765 H   0  0  0  0  0  0  0  0  0  0  0  0
   -4.8092    0.2940    1.7485 H   0  0  0  0  0  0  0  0  0  0  0  0
   -2.5458    1.2084    1.2850 H   0  0  0  0  0  0  0  0  0  0  0  0
   -3.1472   -0.8193    2.3615 H   0  0  0  0  0  0  0  0  0  0  0  0
   -3.4062   -1.7133    0.8550 H   0  0  0  0  0  0  0  0  0  0  0  0
   -1.0771   -2.2228    0.7810 H   0  0  0  0  0  0  0  0  0  0  0  0
   -0.9463   -1.3526    2.3186 H   0  0  0  0  0  0  0  0  0  0  0  0
   -0.5669    0.7393    1.3272 H   0  0  0  0  0  0  0  0  0  0  0  0
   -0.3966    1.6360   -2.2968 H   0  0  0  0  0  0  0  0  0  0  0  0
    1.9097    1.7447   -1.7551 H   0  0  0  0  0  0  0  0  0  0  0  0
    1.3144    0.0354   -2.0322 H   0  0  0  0  0  0  0  0  0  0  0  0
    0.9292   -1.4226   -0.2505 H   0  0  0  0  0  0  0  0  0  0  0  0
    1.3382   -1.9995    2.1350 H   0  0  0  0  0  0  0  0  0  0  0  0
    1.4333   -0.2735    2.5267 H   0  0  0  0  0  0  0  0  0  0  0  0
    3.6376   -0.4893    2.0528 H   0  0  0  0  0  0  0  0  0  0  0  0
    2.7409    1.3166    1.7484 H   0  0  0  0  0  0  0  0  0  0  0  0
    1.0955    1.9009    1.5001 H   0  0  0  0  0  0  0  0  0  0  0  0
    2.4159    2.5001    0.4594 H   0  0  0  0  0  0  0  0  0  0  0  0
   -2.3092    2.2390   -2.0507 H   0  0  0  0  0  0  0  0  0  0  0  0
   -3.3936    2.4034   -0.6736 H   0  0  0  0  0  0  0  0  0  0  0  0
   -3.8741    1.4381   -2.0737 H   0  0  0  0  0  0  0  0  0  0  0  0
    4.2851    1.3939    0.4284 H   0  0  0  0  0  0  0  0  0  0  0  0
    5.8278   -0.6385    0.6691 H   0  0  0  0  0  0  0  0  0  0  0  0
    5.7604   -0.8295   -1.0927 H   0  0  0  0  0  0  0  0  0  0  0  0
    3.0086   -2.9901    1.9429 H   0  0  0  0  0  0  0  0  0  0  0  0
    4.5475   -2.6093    1.1524 H   0  0  0  0  0  0  0  0  0  0  0  0
    3.0939   -2.7897    0.1186 H   0  0  0  0  0  0  0  0  0  0  0  0
   -6.9479   -0.1444    0.7208 H   0  0  0  0  0  0  0  0  0  0  0  0
   -1.0954    2.6081   -0.0150 H   0  0  0  0  0  0  0  0  0  0  0  0
    3.8708   -1.5653   -1.3162 H   0  0  0  0  0  0  0  0  0  0  0  0
    4.6918    0.6990   -2.2258 H   0  0  0  0  0  0  0  0  0  0  0  0
    6.2254    1.7342   -0.1677 H   0  0  0  0  0  0  0  0  0  0  0  0
  1  2  1  0
  2  3  1  0
  3  4  1  0
  4  5  1  0
  5  6  1  0
  6  7  1  0
  7  8  1  0
  8  9  1  0
  1 10  1  0
  5 10  1  0
  9 10  1  0
  9 11  1  0
 11 12  1  0
 12 13  1  0
  8 14  1  0
 13 14  1  0
 14 15  1  0
 15 16  1  0
 13 17  1  0
 16 17  1  0
 13 18  1  6
 10 19  1  6
 17 20  1  0
 20 21  1  0
 16 22  1  0
  9 23  1  1
  3 24  1  0
 11 25  1  0
 17 26  1  1
 20 27  1  0
 21 28  1  0
 14 29  1  1
 30 31  1  0
 31 32  1  0
 32 33  1  0
 33 34  1  0
 34 35  1  0
 35 36  1  0
 36 37  1  0
 37 38  1  0
 30 39  1  0
 34 39  1  0
 38 39  1  0
 38 40  1  0
 40 41  1  0
 41 42  1  0
 37 43  1  0
 42 43  1  0
 43 44  1  0
 44 45  1  0
 42 46  1  0
 45 46  1  0
 42 47  1  1
 39 48  1  6
 46 49  1  0
 49 50  1  0
 45 51  1  0
 38 52  1  6
 32 53  1  0
 40 54  1  0
 46 55  1  6
 49 56  1  0
 50 57  1  0
  1 58  1  0
  1 59  1  0
  2 60  1  0
  2 61  1  0
  3 62  1  0
  4 63  1  0
  4 64  1  0
  5 65  1  0
  6 66  1  0
  6 67  1  0
  7 68  1  0
  7 69  1  0
  8 70  1  6
 11 71  1  1
 12 72  1  0
 12 73  1  0
 15 74  1  0
 15 75  1  0
 16 76  1  6
 18 77  1  0
 18 78  1  0
 18 79  1  0
 19 80  1  0
 19 81  1  0
 19 82  1  0
 20 83  1  0
 21 84  1  0
 21 85  1  0
 22 86  1  0
 22 87  1  0
 22 88  1  0
 24 89  1  0
 25 90  1  0
 26 91  1  0
 27 92  1  0
 28 93  1  0
 30 94  1  0
 30 95  1  0
 31 96  1  0
 31 97  1  0
 32 98  1  0
 33 99  1  0
 33100  1  0
 34101  1  0
 35102  1  0
 35103  1  0
 36104  1  0
 36105  1  0
 37106  1  1
 40107  1  6
 41108  1  0
 41109  1  0
 43110  1  6
 44111  1  0
 44112  1  0
 45113  1  1
 47114  1  0
 47115  1  0
 47116  1  0
 48117  1  0
 48118  1  0
 48119  1  0
 49120  1  0
 50121  1  0
 50122  1  0
 51123  1  0
 51124  1  0
 51125  1  0
 53126  1  0
 54127  1  0
 55128  1  0
 56129  1  0
 57130  1  0
M  END
>  <PDBID>  (1) 
1M2Z

>  <PDB ID>  (1) 
1M2Z

>  <Generic Name>  (1) 
Betamethasone

>  <Brand Name>  (1) 
Beben Gel 0.025%#Beta 1 Kit#Betacort Scalp Lotion 0.1%#Betaderm Crm 0.05%#Betaderm Crm 0.1%#Betaderm Lotion 0.1%#Betaderm Ont 0.05%#Betaderm Ont 0.1%#Betagel - 0.1%#Betaject#Betaloan Suik#Betamethasone#Betamethasone Clotrimazole#Betamethasone Combo 6mg/ml PF#Betamethasone Combo 7mg/ml#Betamethasone Dipropionate#Betamethasone Dipropionate Augmented#Betamethasone Sodium Phosphate and Betamethasone Acetate#Betamethasone Sp 24mg/2ml PF#Betamethasone Valerate#Betamethasone Valerate Lot 0.1% USP#Betamycin Ophthalmic/otic Solution#Betaprolene Cream 0.05%#Betaprolene Ointment 0.05%#Betaprone Cream 0.05%#Betaprone Lotion 0.05%#Betaprone Ointment 0.05%#Beteflam#Betnesol Eye and Ear Drops#Betnesol Eye and Ear Drops 0.1%#Betnesol Pellets 0.1mg#Betnesol Retention Enema 5mg/100ml#Betnesol Retention Enemas#Betnesol Tab 0.5mg#Betnesol Tablets#Betnovate 1/2 Crm 0.05%#Betnovate 1/2 Lot 0.05%#Betnovate 1/2 Ont 0.05%#Betnovate Crm 0.1%#Betnovate Lot 0.1%#Betnovate Lotion 0.1%#Betnovate Ont 0.1%#Calcipotriene 0.005% and Betamethasone Dipropionate 0.064%#Calcipotriene and Betamethasone Dipropionate#Celestoderm V#Celestoderm V Crm 0.1%#Celestoderm V Ont 0.1%#Celestoderm V/2#Celestoderm V/2 Cream .05%#Celestoderm V/2 Ointment 0.05%#Celestone Repetabs 1mg#Celestone Soluspan#Celestone Tab 0.5mg#Clotrimazole and Betamethasone Dipropionate#Dermacinrx Therazole Pak#Diprogen Cream#Diprogen Ointment#Diprolene#Diprolene AF#Diprosalic#Diprosone Cream 0.05%#Diprosone Lotion 0.05%#Diprosone Ointment 0.05%#Dom-gentamicin-betamethasone#Dovobet Gel#Dovobet Ointment#Dr. Throwers Beta#Dr. Throwers Pbc No. 1#Enstilar#Garasone Ophthalmic Ointment#Garasone Ophthalmic and Otic Solution#Lotriderm Cream#Lotrisone#Luxiq#Marbeta 25 Kit#Occlucort Film Forming Lot 0.05#PMS-clotrimazole-betamethasone#PMS-gentamicin-betamethasone#Prevex B Cream 0.1%#Pro-lene Glycol Cream - 0.05%#Pro-lene Glycol Lotion - 0.05%#Pro-lene Glycol Ointment - 0.05%#Pro-sone Cream - 0.05%#Pro-sone Lotion -  0.05%#Pro-sone Ointment - 0.05%#Ratio-ectosone#Ratio-ectosone Mild Cream 0.05%#Ratio-ectosone Mild Lotion 0.05%#Ratio-ectosone Regular Cream 0.1%#Ratio-ectosone Regular Lotion 0.1%#Ratio-topilene#Ratio-topisalic#Ratio-topisone#Readysharp Betamethasone#Rhoprolene Glycol Cream 0.5mg/gm#Rhoprolene Glycol Lotion 0.5mg/gm#Rhoprolene Glycol Ointment 0.5mg/gm#Rhoprosone Cream 0.05%#Rhoprosone Lotion 0.05%#Rhoprosone Oint 0.05%#Rivasone Scalp Lot 0.1%#Rolene Cream 0.05%#Rolene Lotion 0.05%#Rolene Ointment 0.05%#Rosone Cream 0.05%#Rosone Lotion 0.05%#Rosone Ointment 0.05%#Sandoz Pentasone#Sernivo#Taclonex#Taclonex Scalp#Taro Sone Lot 0.05%#Taro Sone Ont#Taro-sone Cream 0.05%#Valisone Scalp Lotion#Valisone-G Cream#Valisone-G Ointment#Bentelan#Betnovate#Celestamine#Celestone#Diprosone#Fucibet#Procort#Rinderon

>  <DrugBank ID>  (1) 
DB00443

>  <ATC Codes>  (1) 
S01BB04#R03BA04#S01CA05#H02AB01#R01AD06#D07BC01#C05AA05#D07CC01#D07AC01#S01CB04#D07XC01#S02BA07#A07EA04#S03BA03#S01BA06#S03CA06

>  <Ligand ID>  (1) 
DEX

>  <Target Name>  (1) 
Glucocorticoid receptor

>  <UniProt ID>  (1) 
P04150

>  <PDB ID.1>  (1) 
1M2Z

>  <Seq. Identity>  (1) 
100%

$$$$
