PDB_DB01394_00
     RDKit          3D

 70 72  0  0  0  0  0  0  0  0999 V2000
   -3.0862   -3.8491    1.3882 O   0  0  0  0  0  0  0  0  0  0  0  0
   -3.4103   -3.3998    0.1177 C   0  0  0  0  0  0  0  0  0  0  0  0
   -4.9426   -3.4533    0.0158 C   0  0  0  0  0  0  0  0  0  0  0  0
   -3.0403   -2.0345   -0.0781 N   0  0  0  0  0  0  0  0  0  0  0  0
   -1.6440   -1.7775   -0.0320 C   0  0  2  0  0  0  0  0  0  0  0  0
   -1.3559   -0.3119   -0.3766 C   0  0  0  0  0  0  0  0  0  0  0  0
   -2.6658    0.4131   -0.4051 C   0  0  0  0  0  0  0  0  0  0  0  0
   -0.7929   -2.5776   -0.9644 C   0  0  0  0  0  0  0  0  0  0  0  0
    0.5868   -2.5336   -0.4047 C   0  0  0  0  0  0  0  0  0  0  0  0
    1.2932   -1.1804   -0.6043 C   0  0  2  0  0  0  0  0  0  0  0  0
    2.7293   -1.5660   -0.6811 C   0  0  0  0  0  0  0  0  0  0  0  0
    3.7447   -0.5951   -0.2485 C   0  0  0  0  0  0  0  0  0  0  0  0
    3.3727   -0.1033    1.1178 C   0  0  0  0  0  0  0  0  0  0  0  0
    2.0529    0.7204    0.8480 C   0  0  0  0  0  0  0  0  0  0  0  0
    2.4423    1.5383   -0.1646 O   0  0  0  0  0  0  0  0  0  0  0  0
    2.7181    2.8105    0.3051 C   0  0  0  0  0  0  0  0  0  0  0  0
    3.1177   -1.1557    1.9539 O   0  0  0  0  0  0  0  0  0  0  0  0
    3.9056   -1.0150    3.0945 C   0  0  0  0  0  0  0  0  0  0  0  0
    3.9226    0.3712   -1.1987 O   0  0  0  0  0  0  0  0  0  0  0  0
    5.2070    0.3666   -1.7025 C   0  0  0  0  0  0  0  0  0  0  0  0
    0.9724   -0.2690    0.5977 C   0  0  1  0  0  0  0  0  0  0  0  0
   -0.4082    0.1927    0.6793 C   0  0  0  0  0  0  0  0  0  0  0  0
   -0.6202    1.6922    0.8565 C   0  0  0  0  0  0  0  0  0  0  0  0
   -0.5924    2.4678   -0.4139 C   0  0  0  0  0  0  0  0  0  0  0  0
   -2.0024    2.7833   -0.9419 C   0  0  1  0  0  0  0  0  0  0  0  0
   -2.6842    1.5610   -1.4148 C   0  0  0  0  0  0  0  0  0  0  0  0
   -4.0275    1.8496   -1.6770 O   0  0  0  0  0  0  0  0  0  0  0  0
   -2.7166    3.5550   -0.0631 O   0  0  0  0  0  0  0  0  0  0  0  0
   -2.9514    4.8486   -0.5834 C   0  0  0  0  0  0  0  0  0  0  0  0
   -3.8648   -3.7777    1.9947 H   0  0  0  0  0  0  0  0  0  0  0  0
   -3.0561   -4.0878   -0.6790 H   0  0  0  0  0  0  0  0  0  0  0  0
   -5.3404   -4.4412    0.2533 H   0  0  0  0  0  0  0  0  0  0  0  0
   -5.1515   -3.1978   -1.0645 H   0  0  0  0  0  0  0  0  0  0  0  0
   -5.4217   -2.6648    0.6022 H   0  0  0  0  0  0  0  0  0  0  0  0
   -3.4600   -1.5079    0.7503 H   0  0  0  0  0  0  0  0  0  0  0  0
   -1.3011   -2.0220    1.0143 H   0  0  0  0  0  0  0  0  0  0  0  0
   -0.9465   -0.2150   -1.4159 H   0  0  0  0  0  0  0  0  0  0  0  0
   -3.4418   -0.2864   -0.8656 H   0  0  0  0  0  0  0  0  0  0  0  0
   -3.1029    0.6654    0.5586 H   0  0  0  0  0  0  0  0  0  0  0  0
   -1.1029   -3.6273   -1.0082 H   0  0  0  0  0  0  0  0  0  0  0  0
   -0.8266   -2.2011   -2.0132 H   0  0  0  0  0  0  0  0  0  0  0  0
    0.5377   -2.7360    0.6837 H   0  0  0  0  0  0  0  0  0  0  0  0
    1.1535   -3.3705   -0.8615 H   0  0  0  0  0  0  0  0  0  0  0  0
    1.0128   -0.6985   -1.5443 H   0  0  0  0  0  0  0  0  0  0  0  0
    2.9631   -2.5463   -0.1621 H   0  0  0  0  0  0  0  0  0  0  0  0
    2.9438   -1.8169   -1.7641 H   0  0  0  0  0  0  0  0  0  0  0  0
    4.7084   -1.1377   -0.1350 H   0  0  0  0  0  0  0  0  0  0  0  0
    4.1118    0.5771    1.5301 H   0  0  0  0  0  0  0  0  0  0  0  0
    1.9149    1.1837    1.8432 H   0  0  0  0  0  0  0  0  0  0  0  0
    3.5638    2.7755    1.0633 H   0  0  0  0  0  0  0  0  0  0  0  0
    2.9522    3.5340   -0.4968 H   0  0  0  0  0  0  0  0  0  0  0  0
    1.8785    3.2321    0.8778 H   0  0  0  0  0  0  0  0  0  0  0  0
    3.6722   -0.0508    3.6312 H   0  0  0  0  0  0  0  0  0  0  0  0
    3.8213   -1.8512    3.7860 H   0  0  0  0  0  0  0  0  0  0  0  0
    4.9550   -0.8631    2.7197 H   0  0  0  0  0  0  0  0  0  0  0  0
    5.2578    1.1830   -2.4656 H   0  0  0  0  0  0  0  0  0  0  0  0
    5.4415   -0.6004   -2.1744 H   0  0  0  0  0  0  0  0  0  0  0  0
    5.9840    0.5664   -0.9397 H   0  0  0  0  0  0  0  0  0  0  0  0
    1.1326   -1.0275    1.4450 H   0  0  0  0  0  0  0  0  0  0  0  0
   -0.8887   -0.2080    1.6378 H   0  0  0  0  0  0  0  0  0  0  0  0
    0.0101    2.0878    1.6782 H   0  0  0  0  0  0  0  0  0  0  0  0
   -1.6638    1.8606    1.2758 H   0  0  0  0  0  0  0  0  0  0  0  0
   -0.1889    3.5052   -0.2069 H   0  0  0  0  0  0  0  0  0  0  0  0
   -0.0580    1.9955   -1.2388 H   0  0  0  0  0  0  0  0  0  0  0  0
   -1.7989    3.4161   -1.8568 H   0  0  0  0  0  0  0  0  0  0  0  0
   -2.2030    1.1861   -2.3312 H   0  0  0  0  0  0  0  0  0  0  0  0
   -4.4187    2.3101   -0.8869 H   0  0  0  0  0  0  0  0  0  0  0  0
   -3.5229    5.4640    0.1217 H   0  0  0  0  0  0  0  0  0  0  0  0
   -3.4459    4.7779   -1.5839 H   0  0  0  0  0  0  0  0  0  0  0  0
   -1.9341    5.2673   -0.7919 H   0  0  0  0  0  0  0  0  0  0  0  0
  1  2  1  0
  2  3  1  0
  2  4  1  0
  4  5  1  0
  5  6  1  0
  6  7  1  0
  5  8  1  0
  8  9  1  0
  9 10  1  0
 10 11  1  0
 11 12  1  0
 12 13  1  0
 13 14  1  0
 14 15  1  0
 15 16  1  0
 13 17  1  0
 17 18  1  0
 12 19  1  0
 19 20  1  0
 10 21  1  0
 14 21  1  0
  6 22  1  0
 21 22  1  0
 22 23  1  0
 23 24  1  0
 24 25  1  0
  7 26  1  0
 25 26  1  0
 26 27  1  0
 25 28  1  0
 28 29  1  0
  1 30  1  0
  2 31  1  0
  3 32  1  0
  3 33  1  0
  3 34  1  0
  4 35  1  0
  5 36  1  1
  6 37  1  0
  7 38  1  0
  7 39  1  0
  8 40  1  0
  8 41  1  0
  9 42  1  0
  9 43  1  0
 10 44  1  6
 11 45  1  0
 11 46  1  0
 12 47  1  0
 13 48  1  0
 14 49  1  0
 16 50  1  0
 16 51  1  0
 16 52  1  0
 18 53  1  0
 18 54  1  0
 18 55  1  0
 20 56  1  0
 20 57  1  0
 20 58  1  0
 21 59  1  1
 22 60  1  0
 23 61  1  0
 23 62  1  0
 24 63  1  0
 24 64  1  0
 25 65  1  6
 26 66  1  0
 27 67  1  0
 29 68  1  0
 29 69  1  0
 29 70  1  0
M  END
>  <PDBID>  (1) 
5EYP

>  <PDB ID>  (1) 
5EYP

>  <Generic Name>  (1) 
Colchicine

>  <Brand Name>  (1) 
Colchicine#Colchicine Tab 0.6mg#Colchicine Tab 1mg#Colcrys#Euro-colchicine#Jamp-colchicine#Mitigare#PMS-colchicine#Probenecid and Colchicine#Verban Ont

>  <DrugBank ID>  (1) 
DB01394

>  <ATC Codes>  (1) 
M04AC01

>  <Ligand ID>  (1) 
LOC

>  <Target Name>  (1) 
Tubulin beta-1 chain

>  <UniProt ID>  (1) 
Q9H4B7

>  <PDB ID.1>  (1) 
5EYP

>  <Seq. Identity>  (1) 
78%

$$$$
