PDB_DB13139_09
     RDKit          3D

 88 88  0  0  0  0  0  0  0  0999 V2000
    4.5968   -0.5137    0.9665 O   0  0  0  0  0  0  0  0  0  0  0  0
    4.3818   -1.2401   -0.1974 C   0  0  0  0  0  0  0  0  0  0  0  0
    3.0423   -0.9187   -0.8244 C   0  0  0  0  0  0  0  0  0  0  0  0
    2.9844    0.5388   -1.1661 C   0  0  0  0  0  0  0  0  0  0  0  0
    2.3286    0.7682   -2.3822 O   0  0  0  0  0  0  0  0  0  0  0  0
    2.4079    1.3500   -0.0511 C   0  0  0  0  0  0  0  0  0  0  0  0
    0.9748    0.9482    0.1899 C   0  0  0  0  0  0  0  0  0  0  0  0
    1.9504   -1.3611    0.1047 C   0  0  0  0  0  0  0  0  0  0  0  0
    0.7177   -0.5080    0.0316 C   0  0  0  0  0  0  0  0  0  0  0  0
   -0.2114   -0.9544    1.1398 C   0  0  1  0  0  0  0  0  0  0  0  0
    0.3404   -0.7276    2.3987 O   0  0  0  0  0  0  0  0  0  0  0  0
   -1.4798   -0.1112    1.0307 C   0  0  0  0  0  0  0  0  0  0  0  0
   -2.0411   -0.3515   -0.2709 N   0  0  0  0  0  0  0  0  0  0  0  0
   -3.2465    0.3840   -0.5041 C   0  0  0  0  0  0  0  0  0  0  0  0
   -3.7442    0.0558   -1.8948 C   0  0  0  0  0  0  0  0  0  0  0  0
   -2.9246    1.8641   -0.4293 C   0  0  0  0  0  0  0  0  0  0  0  0
   -4.3253    0.0003    0.4798 C   0  0  0  0  0  0  0  0  0  0  0  0
    4.5968   -0.5137    0.9665 O   0  0  0  0  0  0  0  0  0  0  0  0
    4.3818   -1.2401   -0.1974 C   0  0  0  0  0  0  0  0  0  0  0  0
    3.0423   -0.9187   -0.8244 C   0  0  0  0  0  0  0  0  0  0  0  0
    2.9844    0.5388   -1.1661 C   0  0  0  0  0  0  0  0  0  0  0  0
    2.3286    0.7682   -2.3822 O   0  0  0  0  0  0  0  0  0  0  0  0
    2.4079    1.3500   -0.0511 C   0  0  0  0  0  0  0  0  0  0  0  0
    0.9748    0.9482    0.1899 C   0  0  0  0  0  0  0  0  0  0  0  0
    1.9504   -1.3611    0.1047 C   0  0  0  0  0  0  0  0  0  0  0  0
    0.7177   -0.5080    0.0316 C   0  0  0  0  0  0  0  0  0  0  0  0
   -0.2114   -0.9544    1.1398 C   0  0  1  0  0  0  0  0  0  0  0  0
    0.3404   -0.7276    2.3987 O   0  0  0  0  0  0  0  0  0  0  0  0
   -1.4798   -0.1112    1.0307 C   0  0  0  0  0  0  0  0  0  0  0  0
   -2.0411   -0.3515   -0.2709 N   0  0  0  0  0  0  0  0  0  0  0  0
   -3.2465    0.3840   -0.5041 C   0  0  0  0  0  0  0  0  0  0  0  0
   -3.7442    0.0558   -1.8948 C   0  0  0  0  0  0  0  0  0  0  0  0
   -2.9246    1.8641   -0.4293 C   0  0  0  0  0  0  0  0  0  0  0  0
   -4.3253    0.0003    0.4798 C   0  0  0  0  0  0  0  0  0  0  0  0
    4.4551   -1.1100    1.7426 H   0  0  0  0  0  0  0  0  0  0  0  0
    4.5134   -2.3215   -0.0204 H   0  0  0  0  0  0  0  0  0  0  0  0
    5.2139   -0.9460   -0.8979 H   0  0  0  0  0  0  0  0  0  0  0  0
    2.9626   -1.4842   -1.7765 H   0  0  0  0  0  0  0  0  0  0  0  0
    4.0353    0.9080   -1.3287 H   0  0  0  0  0  0  0  0  0  0  0  0
    2.5380    1.6805   -2.6575 H   0  0  0  0  0  0  0  0  0  0  0  0
    2.4071    2.4258   -0.3211 H   0  0  0  0  0  0  0  0  0  0  0  0
    2.9756    1.1627    0.8647 H   0  0  0  0  0  0  0  0  0  0  0  0
    0.7359    1.3185    1.2303 H   0  0  0  0  0  0  0  0  0  0  0  0
    0.3211    1.5412   -0.4856 H   0  0  0  0  0  0  0  0  0  0  0  0
    2.3040   -1.4068    1.1559 H   0  0  0  0  0  0  0  0  0  0  0  0
    1.6601   -2.3940   -0.1787 H   0  0  0  0  0  0  0  0  0  0  0  0
    0.2004   -0.7101   -0.9304 H   0  0  0  0  0  0  0  0  0  0  0  0
   -0.4624   -2.0397    1.0490 H   0  0  0  0  0  0  0  0  0  0  0  0
   -0.0692   -1.3080    3.0648 H   0  0  0  0  0  0  0  0  0  0  0  0
   -2.1897   -0.3882    1.8549 H   0  0  0  0  0  0  0  0  0  0  0  0
   -1.2643    0.9546    1.1647 H   0  0  0  0  0  0  0  0  0  0  0  0
   -2.0738   -1.3481   -0.5341 H   0  0  0  0  0  0  0  0  0  0  0  0
   -3.3444   -0.9335   -2.2219 H   0  0  0  0  0  0  0  0  0  0  0  0
   -3.4240    0.8336   -2.6024 H   0  0  0  0  0  0  0  0  0  0  0  0
   -4.8425   -0.0043   -1.9129 H   0  0  0  0  0  0  0  0  0  0  0  0
   -3.7546    2.4645   -0.9050 H   0  0  0  0  0  0  0  0  0  0  0  0
   -2.8074    2.1734    0.6160 H   0  0  0  0  0  0  0  0  0  0  0  0
   -1.9730    2.0554   -0.9663 H   0  0  0  0  0  0  0  0  0  0  0  0
   -4.1361   -1.0043    0.9353 H   0  0  0  0  0  0  0  0  0  0  0  0
   -4.4203    0.7344    1.2891 H   0  0  0  0  0  0  0  0  0  0  0  0
   -5.3128   -0.0769   -0.0200 H   0  0  0  0  0  0  0  0  0  0  0  0
    4.4551   -1.1100    1.7426 H   0  0  0  0  0  0  0  0  0  0  0  0
    4.5134   -2.3215   -0.0204 H   0  0  0  0  0  0  0  0  0  0  0  0
    5.2139   -0.9460   -0.8979 H   0  0  0  0  0  0  0  0  0  0  0  0
    2.9626   -1.4842   -1.7765 H   0  0  0  0  0  0  0  0  0  0  0  0
    4.0353    0.9080   -1.3287 H   0  0  0  0  0  0  0  0  0  0  0  0
    2.5380    1.6805   -2.6575 H   0  0  0  0  0  0  0  0  0  0  0  0
    2.4071    2.4258   -0.3211 H   0  0  0  0  0  0  0  0  0  0  0  0
    2.9756    1.1627    0.8647 H   0  0  0  0  0  0  0  0  0  0  0  0
    0.7359    1.3185    1.2303 H   0  0  0  0  0  0  0  0  0  0  0  0
    0.3211    1.5412   -0.4856 H   0  0  0  0  0  0  0  0  0  0  0  0
    2.3040   -1.4068    1.1559 H   0  0  0  0  0  0  0  0  0  0  0  0
    1.6601   -2.3940   -0.1787 H   0  0  0  0  0  0  0  0  0  0  0  0
    0.2004   -0.7101   -0.9304 H   0  0  0  0  0  0  0  0  0  0  0  0
   -0.4624   -2.0397    1.0490 H   0  0  0  0  0  0  0  0  0  0  0  0
   -0.0692   -1.3080    3.0648 H   0  0  0  0  0  0  0  0  0  0  0  0
   -2.1897   -0.3882    1.8549 H   0  0  0  0  0  0  0  0  0  0  0  0
   -1.2643    0.9546    1.1647 H   0  0  0  0  0  0  0  0  0  0  0  0
   -2.0738   -1.3481   -0.5341 H   0  0  0  0  0  0  0  0  0  0  0  0
   -3.3444   -0.9335   -2.2219 H   0  0  0  0  0  0  0  0  0  0  0  0
   -3.4240    0.8336   -2.6024 H   0  0  0  0  0  0  0  0  0  0  0  0
   -4.8425   -0.0043   -1.9129 H   0  0  0  0  0  0  0  0  0  0  0  0
   -3.7546    2.4645   -0.9050 H   0  0  0  0  0  0  0  0  0  0  0  0
   -2.8074    2.1734    0.6160 H   0  0  0  0  0  0  0  0  0  0  0  0
   -1.9730    2.0554   -0.9663 H   0  0  0  0  0  0  0  0  0  0  0  0
   -4.1361   -1.0043    0.9353 H   0  0  0  0  0  0  0  0  0  0  0  0
   -4.4203    0.7344    1.2891 H   0  0  0  0  0  0  0  0  0  0  0  0
   -5.3128   -0.0769   -0.0200 H   0  0  0  0  0  0  0  0  0  0  0  0
  1  2  1  0
  2  3  1  0
  3  4  1  0
  4  5  1  0
  4  6  1  0
  6  7  1  0
  3  8  1  0
  7  9  1  0
  8  9  1  0
  9 10  1  0
 10 11  1  0
 10 12  1  0
 12 13  1  0
 14 13  1  0
 14 15  1  0
 14 16  1  0
 14 17  1  0
 18 19  1  0
 19 20  1  0
 20 21  1  0
 21 22  1  0
 21 23  1  0
 23 24  1  0
 20 25  1  0
 24 26  1  0
 25 26  1  0
 26 27  1  0
 27 28  1  0
 27 29  1  0
 29 30  1  0
 31 30  1  0
 31 32  1  0
 31 33  1  0
 31 34  1  0
  1 35  1  0
  2 36  1  0
  2 37  1  0
  3 38  1  0
  4 39  1  0
  5 40  1  0
  6 41  1  0
  6 42  1  0
  7 43  1  0
  7 44  1  0
  8 45  1  0
  8 46  1  0
  9 47  1  0
 10 48  1  6
 11 49  1  0
 12 50  1  0
 12 51  1  0
 13 52  1  0
 15 53  1  0
 15 54  1  0
 15 55  1  0
 16 56  1  0
 16 57  1  0
 16 58  1  0
 17 59  1  0
 17 60  1  0
 17 61  1  0
 18 62  1  0
 19 63  1  0
 19 64  1  0
 20 65  1  0
 21 66  1  0
 22 67  1  0
 23 68  1  0
 23 69  1  0
 24 70  1  0
 24 71  1  0
 25 72  1  0
 25 73  1  0
 26 74  1  0
 27 75  1  6
 28 76  1  0
 29 77  1  0
 29 78  1  0
 30 79  1  0
 32 80  1  0
 32 81  1  0
 32 82  1  0
 33 83  1  0
 33 84  1  0
 33 85  1  0
 34 86  1  0
 34 87  1  0
 34 88  1  0
M  END
>  <PDBID>  (1) 
2Y04

>  <PDB ID>  (1) 
2Y04

>  <Generic Name>  (1) 
Levosalbutamol

>  <Brand Name>  (1) 
Levalbuterol#Levalbuterol Hydrochloride#Xopenex

>  <DrugBank ID>  (1) 
DB13139

>  <ATC Codes>  (1) 
nan

>  <Ligand ID>  (1) 
68H

>  <Target Name>  (1) 
Beta-2 adrenergic receptor

>  <UniProt ID>  (1) 
P07550

>  <PDB ID.1>  (1) 
2Y04

>  <Seq. Identity>  (1) 
58%

$$$$
