PDB_DB00428_04
     RDKit          3D

 37 37  0  0  0  0  0  0  0  0999 V2000
   -0.2692    1.1503   -1.6534 O   0  0  0  0  0  0  0  0  0  0  0  0
   -0.8154    0.6141   -0.4617 C   0  0  1  0  0  0  0  0  0  0  0  0
   -2.2256    0.1933   -0.8125 C   0  0  2  0  0  0  0  0  0  0  0  0
   -3.0263    1.2742   -1.1327 O   0  0  0  0  0  0  0  0  0  0  0  0
   -2.7058   -0.5497    0.4194 C   0  0  1  0  0  0  0  0  0  0  0  0
   -4.1931   -0.7337    0.4286 C   0  0  0  0  0  0  0  0  0  0  0  0
   -4.8183    0.5277    0.4715 O   0  0  0  0  0  0  0  0  0  0  0  0
   -2.0725   -1.7738    0.3814 O   0  0  0  0  0  0  0  0  0  0  0  0
   -0.7086   -1.7336    0.4964 C   0  0  1  0  0  0  0  0  0  0  0  0
   -0.2322   -2.8674   -0.2118 O   0  0  0  0  0  0  0  0  0  0  0  0
   -0.0121   -0.5151    0.0749 C   0  0  2  0  0  0  0  0  0  0  0  0
    0.9080   -0.0984    1.1473 N   0  0  0  0  0  0  0  0  0  0  0  0
    1.8829    0.8444    0.6689 C   0  0  0  0  0  0  0  0  0  0  0  0
    2.7410    1.1881    1.7127 O   0  0  0  0  0  0  0  0  0  0  0  0
    2.6926    0.2489   -0.3700 N   0  0  0  0  0  0  0  0  0  0  0  0
    3.6689    1.1704   -0.8538 C   0  0  0  0  0  0  0  0  0  0  0  0
    3.1580   -1.0022   -0.0517 N   0  0  0  0  0  0  0  0  0  0  0  0
    4.0621   -0.9948    0.9419 O   0  0  0  0  0  0  0  0  0  0  0  0
   -0.4953    2.0983   -1.6986 H   0  0  0  0  0  0  0  0  0  0  0  0
   -0.8622    1.4228    0.3030 H   0  0  0  0  0  0  0  0  0  0  0  0
   -2.1597   -0.4901   -1.6774 H   0  0  0  0  0  0  0  0  0  0  0  0
   -3.1475    1.3998   -2.1078 H   0  0  0  0  0  0  0  0  0  0  0  0
   -2.4050   -0.0349    1.3377 H   0  0  0  0  0  0  0  0  0  0  0  0
   -4.5636   -1.2296   -0.4955 H   0  0  0  0  0  0  0  0  0  0  0  0
   -4.4699   -1.2918    1.3429 H   0  0  0  0  0  0  0  0  0  0  0  0
   -4.4675    0.9811    1.2837 H   0  0  0  0  0  0  0  0  0  0  0  0
   -0.4778   -1.9903    1.5698 H   0  0  0  0  0  0  0  0  0  0  0  0
   -0.4726   -2.6905   -1.1527 H   0  0  0  0  0  0  0  0  0  0  0  0
    0.7167   -0.7879   -0.7529 H   0  0  0  0  0  0  0  0  0  0  0  0
    0.4000    0.2148    1.9912 H   0  0  0  0  0  0  0  0  0  0  0  0
    1.3757    1.7538    0.3078 H   0  0  0  0  0  0  0  0  0  0  0  0
    2.8894    2.1516    1.7800 H   0  0  0  0  0  0  0  0  0  0  0  0
    3.2272    2.1961   -0.9396 H   0  0  0  0  0  0  0  0  0  0  0  0
    4.0052    0.9309   -1.8960 H   0  0  0  0  0  0  0  0  0  0  0  0
    4.4901    1.2442   -0.1359 H   0  0  0  0  0  0  0  0  0  0  0  0
    3.4195   -1.6093   -0.8376 H   0  0  0  0  0  0  0  0  0  0  0  0
    4.9626   -1.2115    0.5826 H   0  0  0  0  0  0  0  0  0  0  0  0
  1  2  1  0
  2  3  1  0
  3  4  1  0
  3  5  1  0
  5  6  1  0
  6  7  1  0
  5  8  1  0
  8  9  1  0
  9 10  1  0
  2 11  1  0
  9 11  1  0
 11 12  1  0
 12 13  1  0
 13 14  1  0
 13 15  1  0
 15 16  1  0
 15 17  1  0
 17 18  1  0
  1 19  1  0
  2 20  1  1
  3 21  1  6
  4 22  1  0
  5 23  1  1
  6 24  1  0
  6 25  1  0
  7 26  1  0
  9 27  1  1
 10 28  1  0
 11 29  1  6
 12 30  1  0
 13 31  1  0
 14 32  1  0
 16 33  1  0
 16 34  1  0
 16 35  1  0
 17 36  1  0
 18 37  1  0
M  END
>  <PDBID>  (1) 
2W4X

>  <PDB ID>  (1) 
2W4X

>  <Generic Name>  (1) 
Streptozocin

>  <Brand Name>  (1) 
Zanosar#Zanosar Sterile Powder

>  <DrugBank ID>  (1) 
DB00428

>  <ATC Codes>  (1) 
L01AD04

>  <Ligand ID>  (1) 
STZ

>  <Target Name>  (1) 
O-GlcNAcase BT_4395

>  <UniProt ID>  (1) 
Q89ZI2

>  <PDB ID.1>  (1) 
2W4X

>  <Seq. Identity>  (1) 
100%

$$$$
