PDB_DB00715_04
     RDKit          3D

 56 59  0  0  0  0  0  0  0  0999 V2000
   -6.4608   -1.9156    0.6842 F   0  0  0  0  0  0  0  0  0  0  0  0
   -5.5720   -0.1117   -0.6208 C   0  0  0  0  0  0  0  0  0  0  0  0
   -4.1960   -2.0519   -0.0961 C   0  0  0  0  0  0  0  0  0  0  0  0
    2.9617   -0.7180   -1.2307 C   0  0  0  0  0  0  0  0  0  0  0  0
   -4.4040    0.5678    0.0876 C   0  0  0  0  0  0  0  0  0  0  0  0
   -3.3237   -1.2542   -1.0752 C   0  0  0  0  0  0  0  0  0  0  0  0
    4.1062   -1.6221   -0.8678 C   0  0  0  0  0  0  0  0  0  0  0  0
    3.6843    0.8130    0.6287 C   0  0  0  0  0  0  0  0  0  0  0  0
   -1.0870    2.6751   -0.2647 C   0  0  0  0  0  0  0  0  0  0  0  0
   -1.8207    1.8029    0.6608 C   0  0  0  0  0  0  0  0  0  0  0  0
   -0.3756    0.7056   -1.4825 C   0  0  0  0  0  0  0  0  0  0  0  0
    6.9457   -0.4189    0.8433 C   0  0  0  0  0  0  0  0  0  0  0  0
    0.3706   -0.0246    0.8409 C   0  0  0  0  0  0  0  0  0  0  0  0
   -0.3958    2.1155   -1.3497 N   0  0  0  0  0  0  0  0  0  0  0  0
    1.6376   -0.4256    0.6687 O   0  0  0  0  0  0  0  0  0  0  0  0
    6.3573   -1.3766    0.0163 O   0  0  0  0  0  0  0  0  0  0  0  0
    5.9107    0.3367    1.4121 O   0  0  0  0  0  0  0  0  0  0  0  0
   -5.6160   -1.5888   -0.3330 C   0  0  0  0  0  0  0  0  0  0  0  0
    2.5143    0.2109   -0.1417 C   0  0  0  0  0  0  0  0  0  0  0  0
   -3.1128    0.1443   -0.6169 C   0  0  0  0  0  0  0  0  0  0  0  0
    5.2120   -0.7627   -0.3874 C   0  0  0  0  0  0  0  0  0  0  0  0
    4.7311   -0.1824    0.9567 C   0  0  0  0  0  0  0  0  0  0  0  0
   -0.6243   -0.0788   -0.2710 C   0  0  1  0  0  0  0  0  0  0  0  0
   -1.9648    0.3668    0.2994 C   0  0  1  0  0  0  0  0  0  0  0  0
   -6.4895    0.3814   -0.2384 H   0  0  0  0  0  0  0  0  0  0  0  0
   -5.4306    0.1041   -1.7025 H   0  0  0  0  0  0  0  0  0  0  0  0
   -4.1107   -3.1017   -0.3846 H   0  0  0  0  0  0  0  0  0  0  0  0
   -3.8636   -1.9245    0.9424 H   0  0  0  0  0  0  0  0  0  0  0  0
    2.0680   -1.3441   -1.5128 H   0  0  0  0  0  0  0  0  0  0  0  0
    3.2616   -0.1334   -2.1238 H   0  0  0  0  0  0  0  0  0  0  0  0
   -4.5895    1.6561   -0.0213 H   0  0  0  0  0  0  0  0  0  0  0  0
   -4.3731    0.3414    1.1570 H   0  0  0  0  0  0  0  0  0  0  0  0
   -2.4420   -1.8588   -1.2595 H   0  0  0  0  0  0  0  0  0  0  0  0
   -3.9171   -1.2658   -2.0351 H   0  0  0  0  0  0  0  0  0  0  0  0
    3.7533   -2.2426    0.0019 H   0  0  0  0  0  0  0  0  0  0  0  0
    4.3358   -2.2375   -1.7413 H   0  0  0  0  0  0  0  0  0  0  0  0
    3.2634    1.2236    1.5688 H   0  0  0  0  0  0  0  0  0  0  0  0
    4.1294    1.6499    0.0706 H   0  0  0  0  0  0  0  0  0  0  0  0
   -0.3439    3.2877    0.3309 H   0  0  0  0  0  0  0  0  0  0  0  0
   -1.7703    3.4741   -0.6851 H   0  0  0  0  0  0  0  0  0  0  0  0
   -1.3727    1.8414    1.7005 H   0  0  0  0  0  0  0  0  0  0  0  0
   -2.8408    2.2643    0.8540 H   0  0  0  0  0  0  0  0  0  0  0  0
    0.4783    0.3461   -2.0782 H   0  0  0  0  0  0  0  0  0  0  0  0
   -1.2551    0.4646   -2.1921 H   0  0  0  0  0  0  0  0  0  0  0  0
    7.5546    0.2323    0.1791 H   0  0  0  0  0  0  0  0  0  0  0  0
    7.6037   -0.8731    1.6072 H   0  0  0  0  0  0  0  0  0  0  0  0
    0.4260    1.0260    1.2771 H   0  0  0  0  0  0  0  0  0  0  0  0
   -0.0741   -0.6737    1.6609 H   0  0  0  0  0  0  0  0  0  0  0  0
    0.4712    2.5571   -1.6571 H   0  0  0  0  0  0  0  0  0  0  0  0
   -5.9453   -2.0879   -1.2845 H   0  0  0  0  0  0  0  0  0  0  0  0
    2.0361    1.0855   -0.6081 H   0  0  0  0  0  0  0  0  0  0  0  0
   -3.0340    0.8911   -1.4624 H   0  0  0  0  0  0  0  0  0  0  0  0
    5.3572    0.0900   -1.0724 H   0  0  0  0  0  0  0  0  0  0  0  0
    4.3969   -0.9953    1.6194 H   0  0  0  0  0  0  0  0  0  0  0  0
   -0.6777   -1.1689   -0.5594 H   0  0  0  0  0  0  0  0  0  0  0  0
   -2.0838   -0.2162    1.2629 H   0  0  0  0  0  0  0  0  0  0  0  0
  2  5  1  0
  3  6  1  0
  4  7  1  0
  9 10  1  0
  9 14  1  0
 11 14  1  0
 13 15  1  0
 12 16  1  0
 12 17  1  0
  1 18  1  0
  2 18  1  0
  3 18  1  0
  4 19  1  0
  8 19  1  0
 15 19  1  0
  5 20  1  0
  6 20  1  0
  7 21  1  0
 16 21  1  0
  8 22  1  0
 17 22  1  0
 21 22  1  0
 11 23  1  0
 13 23  1  0
 10 24  1  0
 20 24  1  0
 23 24  1  0
  2 25  1  0
  2 26  1  0
  3 27  1  0
  3 28  1  0
  4 29  1  0
  4 30  1  0
  5 31  1  0
  5 32  1  0
  6 33  1  0
  6 34  1  0
  7 35  1  0
  7 36  1  0
  8 37  1  0
  8 38  1  0
  9 39  1  0
  9 40  1  0
 10 41  1  0
 10 42  1  0
 11 43  1  0
 11 44  1  0
 12 45  1  0
 12 46  1  0
 13 47  1  0
 13 48  1  0
 14 49  1  0
 18 50  1  0
 19 51  1  0
 20 52  1  0
 21 53  1  0
 22 54  1  0
 23 55  1  6
 24 56  1  1
M  END
>  <PDBID>  (1) 
5I6X

>  <PDB ID>  (1) 
5I6X

>  <Generic Name>  (1) 
Paroxetine

>  <Brand Name>  (1) 
Act Paroxetine#Apo-paroxetine#Auro-paroxetine#Bio-paroxetine#Brisdelle#Dom-paroxetine#Ipg-paroxetine#Jamp-paroxetine#Mar-paroxetine#Mint-paroxetine#Mylan-paroxetine#Ntp-paroxetine#Nu-paroxetine#PMS-paroxetine#Paroxetine#Paroxetine Hydrochloride#Paroxetine Hydrochloride Anhydrous#Paroxetine-10#Paroxetine-20#Paroxetine-30#Paxil#Paxil CR#Paxil Tab 10mg#Paxil Tab 20mg#Paxil Tab 30mg#Paxilcr CR#Pexeva#Priva-paroxetine#Q-paroxetine#Ratio-paroxetine#Riva-paroxetine#Sandoz Paroxetine#Sandoz Paroxetine Tablets#Teva-paroxetine#Aropax#PAXILCR#Sereupin#Seroxat#Seroxat CR

>  <DrugBank ID>  (1) 
DB00715

>  <ATC Codes>  (1) 
N06AB05

>  <Ligand ID>  (1) 
8PR

>  <Target Name>  (1) 
Sodium-dependent serotonin transporter

>  <UniProt ID>  (1) 
P31645

>  <PDB ID.1>  (1) 
5I6X

>  <Seq. Identity>  (1) 
99%

$$$$
