PDB_DB00203_08
     RDKit          3D

 79 82  0  0  0  0  0  0  0  0999 V2000
   -6.1932    2.7713    1.5212 C   0  0  0  0  0  0  0  0  0  0  0  0
   -5.1963    2.3320    2.5668 C   0  0  0  0  0  0  0  0  0  0  0  0
   -3.9997    1.6278    1.9691 C   0  0  0  0  0  0  0  0  0  0  0  0
   -4.4591    0.3969    1.2223 C   0  0  0  0  0  0  0  0  0  0  0  0
   -5.3784    0.7182    0.1416 N   0  0  0  0  0  0  0  0  0  0  0  0
   -4.6162    0.9611   -0.9809 N   0  0  0  0  0  0  0  0  0  0  0  0
   -5.2353    0.8804   -2.2180 C   0  0  0  0  0  0  0  0  0  0  0  0
   -3.2953    0.6219   -0.7870 C   0  0  0  0  0  0  0  0  0  0  0  0
   -2.5445   -0.1049   -1.8223 C   0  0  0  0  0  0  0  0  0  0  0  0
   -1.7622    0.8157   -2.5413 O   0  0  0  0  0  0  0  0  0  0  0  0
   -1.5625   -0.9555   -1.1203 N   0  0  0  0  0  0  0  0  0  0  0  0
   -1.0489   -0.3060    0.0416 C   0  0  0  0  0  0  0  0  0  0  0  0
   -2.0560   -0.1562    1.0925 N   0  0  0  0  0  0  0  0  0  0  0  0
   -3.3348   -0.2612    0.4696 C   0  0  0  0  0  0  0  0  0  0  0  0
    0.2311   -0.8853    0.5117 C   0  0  0  0  0  0  0  0  0  0  0  0
    1.2418   -0.7847   -0.6089 C   0  0  0  0  0  0  0  0  0  0  0  0
    2.5816   -1.3418   -0.2278 C   0  0  0  0  0  0  0  0  0  0  0  0
    2.6097   -1.5555    1.2727 C   0  0  0  0  0  0  0  0  0  0  0  0
    1.5730   -2.5713    1.6422 C   0  0  0  0  0  0  0  0  0  0  0  0
    0.1935   -2.2609    1.0664 C   0  0  0  0  0  0  0  0  0  0  0  0
   -0.0882   -3.2663    0.1771 O   0  0  0  0  0  0  0  0  0  0  0  0
   -1.0994   -4.0942    0.6600 C   0  0  0  0  0  0  0  0  0  0  0  0
   -1.4007   -5.1945   -0.3495 C   0  0  0  0  0  0  0  0  0  0  0  0
    3.8405   -0.3336   -0.8087 S   0  0  0  0  0  0  0  0  0  0  0  0
    5.2978   -1.0608   -0.3689 O   0  0  0  0  0  0  0  0  0  0  0  0
    3.8120   -0.4660   -2.4493 O   0  0  0  0  0  0  0  0  0  0  0  0
    3.7166    1.1459   -0.3072 N   0  0  0  0  0  0  0  0  0  0  0  0
    3.7535    2.1935   -1.2994 C   0  0  0  0  0  0  0  0  0  0  0  0
    5.1439    2.2592   -1.8804 C   0  0  0  0  0  0  0  0  0  0  0  0
    6.0981    2.4979   -0.8437 N   0  0  0  0  0  0  0  0  0  0  0  0
    7.2464    1.6316   -0.8896 C   0  0  0  0  0  0  0  0  0  0  0  0
    5.5311    2.6102    0.4741 C   0  0  0  0  0  0  0  0  0  0  0  0
    4.5644    1.5082    0.7948 C   0  0  0  0  0  0  0  0  0  0  0  0
   -6.9716    2.0335    1.3227 H   0  0  0  0  0  0  0  0  0  0  0  0
   -6.7104    3.7052    1.8558 H   0  0  0  0  0  0  0  0  0  0  0  0
   -5.7014    3.0341    0.5637 H   0  0  0  0  0  0  0  0  0  0  0  0
   -4.8495    3.2638    3.0819 H   0  0  0  0  0  0  0  0  0  0  0  0
   -5.6682    1.7163    3.3578 H   0  0  0  0  0  0  0  0  0  0  0  0
   -3.3692    1.2734    2.8070 H   0  0  0  0  0  0  0  0  0  0  0  0
   -3.4717    2.3437    1.3100 H   0  0  0  0  0  0  0  0  0  0  0  0
   -4.8714   -0.3215    1.9399 H   0  0  0  0  0  0  0  0  0  0  0  0
   -6.1358    0.0402    0.0260 H   0  0  0  0  0  0  0  0  0  0  0  0
   -5.4089    1.9117   -2.6323 H   0  0  0  0  0  0  0  0  0  0  0  0
   -4.7423    0.3172   -3.0212 H   0  0  0  0  0  0  0  0  0  0  0  0
   -6.2586    0.4462   -2.1147 H   0  0  0  0  0  0  0  0  0  0  0  0
   -2.7020    1.5329   -0.4805 H   0  0  0  0  0  0  0  0  0  0  0  0
   -3.0947   -0.7590   -2.4902 H   0  0  0  0  0  0  0  0  0  0  0  0
   -1.7118    1.6706   -2.0536 H   0  0  0  0  0  0  0  0  0  0  0  0
   -2.0557   -1.8263   -0.9174 H   0  0  0  0  0  0  0  0  0  0  0  0
   -0.8239    0.7583   -0.2687 H   0  0  0  0  0  0  0  0  0  0  0  0
   -1.9285   -0.9174    1.7656 H   0  0  0  0  0  0  0  0  0  0  0  0
   -3.6550   -1.2872    0.2274 H   0  0  0  0  0  0  0  0  0  0  0  0
    0.5906   -0.2179    1.3574 H   0  0  0  0  0  0  0  0  0  0  0  0
    1.3138    0.3154   -0.8550 H   0  0  0  0  0  0  0  0  0  0  0  0
    0.7941   -1.2899   -1.4988 H   0  0  0  0  0  0  0  0  0  0  0  0
    2.6807   -2.3444   -0.6927 H   0  0  0  0  0  0  0  0  0  0  0  0
    3.5979   -1.9943    1.5396 H   0  0  0  0  0  0  0  0  0  0  0  0
    2.5357   -0.6066    1.8400 H   0  0  0  0  0  0  0  0  0  0  0  0
    1.9511   -3.5636    1.3198 H   0  0  0  0  0  0  0  0  0  0  0  0
    1.5585   -2.6097    2.7647 H   0  0  0  0  0  0  0  0  0  0  0  0
   -0.5061   -2.3677    1.9386 H   0  0  0  0  0  0  0  0  0  0  0  0
   -2.0008   -3.4668    0.7903 H   0  0  0  0  0  0  0  0  0  0  0  0
   -0.8369   -4.5276    1.6517 H   0  0  0  0  0  0  0  0  0  0  0  0
   -1.9361   -5.9949    0.1655 H   0  0  0  0  0  0  0  0  0  0  0  0
   -0.4210   -5.5161   -0.7651 H   0  0  0  0  0  0  0  0  0  0  0  0
   -2.0318   -4.7550   -1.1408 H   0  0  0  0  0  0  0  0  0  0  0  0
    5.2978   -2.0206   -0.5614 H   0  0  0  0  0  0  0  0  0  0  0  0
    3.1170    0.1028   -2.8854 H   0  0  0  0  0  0  0  0  0  0  0  0
    3.0421    2.0136   -2.1237 H   0  0  0  0  0  0  0  0  0  0  0  0
    3.5185    3.1951   -0.8489 H   0  0  0  0  0  0  0  0  0  0  0  0
    5.3522    1.2909   -2.3802 H   0  0  0  0  0  0  0  0  0  0  0  0
    5.1457    3.0880   -2.6381 H   0  0  0  0  0  0  0  0  0  0  0  0
    7.1729    0.8356   -1.6335 H   0  0  0  0  0  0  0  0  0  0  0  0
    7.4081    1.2547    0.1494 H   0  0  0  0  0  0  0  0  0  0  0  0
    8.1244    2.2688   -1.1801 H   0  0  0  0  0  0  0  0  0  0  0  0
    5.0982    3.6138    0.5923 H   0  0  0  0  0  0  0  0  0  0  0  0
    6.3749    2.5339    1.2106 H   0  0  0  0  0  0  0  0  0  0  0  0
    3.9114    1.8444    1.6277 H   0  0  0  0  0  0  0  0  0  0  0  0
    5.1138    0.6094    1.1513 H   0  0  0  0  0  0  0  0  0  0  0  0
  1  2  1  0
  2  3  1  0
  3  4  1  0
  4  5  1  0
  5  6  1  0
  6  7  1  0
  6  8  1  0
  8  9  1  0
  9 10  1  0
  9 11  1  0
 11 12  1  0
 12 13  1  0
  4 14  1  0
  8 14  1  0
 13 14  1  0
 12 15  1  0
 15 16  1  0
 16 17  1  0
 17 18  1  0
 18 19  1  0
 15 20  1  0
 19 20  1  0
 20 21  1  0
 21 22  1  0
 22 23  1  0
 17 24  1  0
 24 25  1  0
 24 26  1  0
 24 27  1  0
 27 28  1  0
 28 29  1  0
 29 30  1  0
 30 31  1  0
 30 32  1  0
 27 33  1  0
 32 33  1  0
  1 34  1  0
  1 35  1  0
  1 36  1  0
  2 37  1  0
  2 38  1  0
  3 39  1  0
  3 40  1  0
  4 41  1  0
  5 42  1  0
  7 43  1  0
  7 44  1  0
  7 45  1  0
  8 46  1  0
  9 47  1  0
 10 48  1  0
 11 49  1  0
 12 50  1  0
 13 51  1  0
 14 52  1  0
 15 53  1  0
 16 54  1  0
 16 55  1  0
 17 56  1  0
 18 57  1  0
 18 58  1  0
 19 59  1  0
 19 60  1  0
 20 61  1  0
 22 62  1  0
 22 63  1  0
 23 64  1  0
 23 65  1  0
 23 66  1  0
 25 67  1  0
 26 68  1  0
 28 69  1  0
 28 70  1  0
 29 71  1  0
 29 72  1  0
 31 73  1  0
 31 74  1  0
 31 75  1  0
 32 76  1  0
 32 77  1  0
 33 78  1  0
 33 79  1  0
M  END
>  <PDBID>  (1) 
1UDT

>  <PDB ID>  (1) 
1UDT

>  <Generic Name>  (1) 
Sildenafil

>  <Brand Name>  (1) 
Act Sildenafil#Apo-sildenafil#Apo-sildenafil R#Auro-sildenafil#Dom-sildenafil#Gd-sildenafil#Ipg-sildenafil#Jamp-sildenafil#M-sildenafil#Mar-sildenafil#Mint-sildenafil#Myl-sildenafil#Mylan-sildenafil#PMS-sildenafil#PMS-sildenafil R#Pb-sildenafil#Priva-sildenafil#Ran-sildenafil#Ratio-sildenafil#Ratio-sildenafil R#Revatio#Riva-sildenafil#Sandoz Sildenafil#Sildenafil#Sildenafil Citrate#Sildenafil R#Sildenafil Tablets#Teva-sildenafil#Van-sildenafil#Viagra

>  <DrugBank ID>  (1) 
DB00203

>  <ATC Codes>  (1) 
G04BE03

>  <Ligand ID>  (1) 
VIA

>  <Target Name>  (1) 
cGMP-specific 3',5'-cyclic phosphodiesterase

>  <UniProt ID>  (1) 
O76074

>  <PDB ID.1>  (1) 
1UDT

>  <Seq. Identity>  (1) 
94%

$$$$
