PDB_DB01095_07
     RDKit          3D

296304  0  0  0  0  0  0  0  0999 V2000
   -2.9927   -0.4179   -0.6477 C   0  0  0  0  0  0  0  0  0  0  0  0
   -2.8594   -1.7834    0.0010 C   0  0  0  0  0  0  0  0  0  0  0  0
   -3.8611   -2.7573   -0.4171 C   0  0  0  0  0  0  0  0  0  0  0  0
   -4.8891   -2.0292   -1.2996 C   0  0  0  0  0  0  0  0  0  0  0  0
   -5.3909   -0.7977   -0.6419 C   0  0  0  0  0  0  0  0  0  0  0  0
   -4.2880    0.1674   -0.2305 C   0  0  0  0  0  0  0  0  0  0  0  0
   -1.7428    0.2462   -0.3713 C   0  0  0  0  0  0  0  0  0  0  0  0
   -0.9677   -0.8487    0.3710 C   0  0  0  0  0  0  0  0  0  0  0  0
   -1.4710   -2.0404   -0.1869 N   0  0  0  0  0  0  0  0  0  0  0  0
   -1.3552    3.0979    2.0728 C   0  0  0  0  0  0  0  0  0  0  0  0
   -2.1222    1.8498    1.5825 C   0  0  0  0  0  0  0  0  0  0  0  0
   -1.6039    1.5621    0.2339 C   0  0  0  0  0  0  0  0  0  0  0  0
   -2.0679    2.6877   -0.6670 C   0  0  0  0  0  0  0  0  0  0  0  0
   -1.2269    3.9260   -0.3113 C   0  0  0  0  0  0  0  0  0  0  0  0
   -1.5046    4.2388    1.1200 C   0  0  0  0  0  0  0  0  0  0  0  0
   -2.7218    4.8415    1.2762 F   0  0  0  0  0  0  0  0  0  0  0  0
    5.1509    1.9145   -2.5124 O   0  0  0  0  0  0  0  0  0  0  0  0
    7.3958    2.0796   -2.3913 O   0  0  0  0  0  0  0  0  0  0  0  0
    5.4332   -0.8323    0.7891 O   0  0  0  0  0  0  0  0  0  0  0  0
    6.2143    1.8541   -1.6556 C   0  0  0  0  0  0  0  0  0  0  0  0
    6.3321    0.6091   -0.8326 C   0  0  0  0  0  0  0  0  0  0  0  0
    5.1672    0.3712    0.0692 C   0  0  1  0  0  0  0  0  0  0  0  0
    3.8655    0.1765   -0.6763 C   0  0  0  0  0  0  0  0  0  0  0  0
    2.7596   -0.1167    0.3335 C   0  0  1  0  0  0  0  0  0  0  0  0
    1.4214   -0.3302   -0.3637 C   0  0  0  0  0  0  0  0  0  0  0  0
    0.4084   -0.5997    0.6841 C   0  0  0  0  0  0  0  0  0  0  0  0
   -0.9559   -3.2814    0.0735 C   0  0  0  0  0  0  0  0  0  0  0  0
   -1.0859   -3.6381    1.5396 C   0  0  0  0  0  0  0  0  0  0  0  0
    0.3733   -3.6804   -0.4348 C   0  0  0  0  0  0  0  0  0  0  0  0
    3.1167   -1.1702    1.1542 O   0  0  0  0  0  0  0  0  0  0  0  0
   -2.9927   -0.4179   -0.6477 C   0  0  0  0  0  0  0  0  0  0  0  0
   -2.8594   -1.7834    0.0010 C   0  0  0  0  0  0  0  0  0  0  0  0
   -3.8611   -2.7573   -0.4171 C   0  0  0  0  0  0  0  0  0  0  0  0
   -4.8891   -2.0292   -1.2996 C   0  0  0  0  0  0  0  0  0  0  0  0
   -5.3909   -0.7977   -0.6419 C   0  0  0  0  0  0  0  0  0  0  0  0
   -4.2880    0.1674   -0.2305 C   0  0  0  0  0  0  0  0  0  0  0  0
   -1.7428    0.2462   -0.3713 C   0  0  0  0  0  0  0  0  0  0  0  0
   -0.9677   -0.8487    0.3710 C   0  0  0  0  0  0  0  0  0  0  0  0
   -1.4710   -2.0404   -0.1869 N   0  0  0  0  0  0  0  0  0  0  0  0
   -1.3552    3.0979    2.0728 C   0  0  0  0  0  0  0  0  0  0  0  0
   -2.1222    1.8498    1.5825 C   0  0  0  0  0  0  0  0  0  0  0  0
   -1.6039    1.5621    0.2339 C   0  0  0  0  0  0  0  0  0  0  0  0
   -2.0679    2.6877   -0.6670 C   0  0  0  0  0  0  0  0  0  0  0  0
   -1.2269    3.9260   -0.3113 C   0  0  0  0  0  0  0  0  0  0  0  0
   -1.5046    4.2388    1.1200 C   0  0  0  0  0  0  0  0  0  0  0  0
   -2.7218    4.8415    1.2762 F   0  0  0  0  0  0  0  0  0  0  0  0
    5.1509    1.9145   -2.5124 O   0  0  0  0  0  0  0  0  0  0  0  0
    7.3958    2.0796   -2.3913 O   0  0  0  0  0  0  0  0  0  0  0  0
    5.4332   -0.8323    0.7891 O   0  0  0  0  0  0  0  0  0  0  0  0
    6.2143    1.8541   -1.6556 C   0  0  0  0  0  0  0  0  0  0  0  0
    6.3321    0.6091   -0.8326 C   0  0  0  0  0  0  0  0  0  0  0  0
    5.1672    0.3712    0.0692 C   0  0  1  0  0  0  0  0  0  0  0  0
    3.8655    0.1765   -0.6763 C   0  0  0  0  0  0  0  0  0  0  0  0
    2.7596   -0.1167    0.3335 C   0  0  1  0  0  0  0  0  0  0  0  0
    1.4214   -0.3302   -0.3637 C   0  0  0  0  0  0  0  0  0  0  0  0
    0.4084   -0.5997    0.6841 C   0  0  0  0  0  0  0  0  0  0  0  0
   -0.9559   -3.2814    0.0735 C   0  0  0  0  0  0  0  0  0  0  0  0
   -1.0859   -3.6381    1.5396 C   0  0  0  0  0  0  0  0  0  0  0  0
    0.3733   -3.6804   -0.4348 C   0  0  0  0  0  0  0  0  0  0  0  0
    3.1167   -1.1702    1.1542 O   0  0  0  0  0  0  0  0  0  0  0  0
   -2.9927   -0.4179   -0.6477 C   0  0  0  0  0  0  0  0  0  0  0  0
   -2.8594   -1.7834    0.0010 C   0  0  0  0  0  0  0  0  0  0  0  0
   -3.8611   -2.7573   -0.4171 C   0  0  0  0  0  0  0  0  0  0  0  0
   -4.8891   -2.0292   -1.2996 C   0  0  0  0  0  0  0  0  0  0  0  0
   -5.3909   -0.7977   -0.6419 C   0  0  0  0  0  0  0  0  0  0  0  0
   -4.2880    0.1674   -0.2305 C   0  0  0  0  0  0  0  0  0  0  0  0
   -1.7428    0.2462   -0.3713 C   0  0  0  0  0  0  0  0  0  0  0  0
   -0.9677   -0.8487    0.3710 C   0  0  0  0  0  0  0  0  0  0  0  0
   -1.4710   -2.0404   -0.1869 N   0  0  0  0  0  0  0  0  0  0  0  0
   -1.3552    3.0979    2.0728 C   0  0  0  0  0  0  0  0  0  0  0  0
   -2.1222    1.8498    1.5825 C   0  0  0  0  0  0  0  0  0  0  0  0
   -1.6039    1.5621    0.2339 C   0  0  0  0  0  0  0  0  0  0  0  0
   -2.0679    2.6877   -0.6670 C   0  0  0  0  0  0  0  0  0  0  0  0
   -1.2269    3.9260   -0.3113 C   0  0  0  0  0  0  0  0  0  0  0  0
   -1.5046    4.2388    1.1200 C   0  0  0  0  0  0  0  0  0  0  0  0
   -2.7218    4.8415    1.2762 F   0  0  0  0  0  0  0  0  0  0  0  0
    5.1509    1.9145   -2.5124 O   0  0  0  0  0  0  0  0  0  0  0  0
    7.3958    2.0796   -2.3913 O   0  0  0  0  0  0  0  0  0  0  0  0
    5.4332   -0.8323    0.7891 O   0  0  0  0  0  0  0  0  0  0  0  0
    6.2143    1.8541   -1.6556 C   0  0  0  0  0  0  0  0  0  0  0  0
    6.3321    0.6091   -0.8326 C   0  0  0  0  0  0  0  0  0  0  0  0
    5.1672    0.3712    0.0692 C   0  0  1  0  0  0  0  0  0  0  0  0
    3.8655    0.1765   -0.6763 C   0  0  0  0  0  0  0  0  0  0  0  0
    2.7596   -0.1167    0.3335 C   0  0  1  0  0  0  0  0  0  0  0  0
    1.4214   -0.3302   -0.3637 C   0  0  0  0  0  0  0  0  0  0  0  0
    0.4084   -0.5997    0.6841 C   0  0  0  0  0  0  0  0  0  0  0  0
   -0.9559   -3.2814    0.0735 C   0  0  0  0  0  0  0  0  0  0  0  0
   -1.0859   -3.6381    1.5396 C   0  0  0  0  0  0  0  0  0  0  0  0
    0.3733   -3.6804   -0.4348 C   0  0  0  0  0  0  0  0  0  0  0  0
    3.1167   -1.1702    1.1542 O   0  0  0  0  0  0  0  0  0  0  0  0
   -2.9927   -0.4179   -0.6477 C   0  0  0  0  0  0  0  0  0  0  0  0
   -2.8594   -1.7834    0.0010 C   0  0  0  0  0  0  0  0  0  0  0  0
   -3.8611   -2.7573   -0.4171 C   0  0  0  0  0  0  0  0  0  0  0  0
   -4.8891   -2.0292   -1.2996 C   0  0  0  0  0  0  0  0  0  0  0  0
   -5.3909   -0.7977   -0.6419 C   0  0  0  0  0  0  0  0  0  0  0  0
   -4.2880    0.1674   -0.2305 C   0  0  0  0  0  0  0  0  0  0  0  0
   -1.7428    0.2462   -0.3713 C   0  0  0  0  0  0  0  0  0  0  0  0
   -0.9677   -0.8487    0.3710 C   0  0  0  0  0  0  0  0  0  0  0  0
   -1.4710   -2.0404   -0.1869 N   0  0  0  0  0  0  0  0  0  0  0  0
   -1.3552    3.0979    2.0728 C   0  0  0  0  0  0  0  0  0  0  0  0
   -2.1222    1.8498    1.5825 C   0  0  0  0  0  0  0  0  0  0  0  0
   -1.6039    1.5621    0.2339 C   0  0  0  0  0  0  0  0  0  0  0  0
   -2.0679    2.6877   -0.6670 C   0  0  0  0  0  0  0  0  0  0  0  0
   -1.2269    3.9260   -0.3113 C   0  0  0  0  0  0  0  0  0  0  0  0
   -1.5046    4.2388    1.1200 C   0  0  0  0  0  0  0  0  0  0  0  0
   -2.7218    4.8415    1.2762 F   0  0  0  0  0  0  0  0  0  0  0  0
    5.1509    1.9145   -2.5124 O   0  0  0  0  0  0  0  0  0  0  0  0
    7.3958    2.0796   -2.3913 O   0  0  0  0  0  0  0  0  0  0  0  0
    5.4332   -0.8323    0.7891 O   0  0  0  0  0  0  0  0  0  0  0  0
    6.2143    1.8541   -1.6556 C   0  0  0  0  0  0  0  0  0  0  0  0
    6.3321    0.6091   -0.8326 C   0  0  0  0  0  0  0  0  0  0  0  0
    5.1672    0.3712    0.0692 C   0  0  1  0  0  0  0  0  0  0  0  0
    3.8655    0.1765   -0.6763 C   0  0  0  0  0  0  0  0  0  0  0  0
    2.7596   -0.1167    0.3335 C   0  0  1  0  0  0  0  0  0  0  0  0
    1.4214   -0.3302   -0.3637 C   0  0  0  0  0  0  0  0  0  0  0  0
    0.4084   -0.5997    0.6841 C   0  0  0  0  0  0  0  0  0  0  0  0
   -0.9559   -3.2814    0.0735 C   0  0  0  0  0  0  0  0  0  0  0  0
   -1.0859   -3.6381    1.5396 C   0  0  0  0  0  0  0  0  0  0  0  0
    0.3733   -3.6804   -0.4348 C   0  0  0  0  0  0  0  0  0  0  0  0
    3.1167   -1.1702    1.1542 O   0  0  0  0  0  0  0  0  0  0  0  0
   -3.1127   -0.6525   -1.7517 H   0  0  0  0  0  0  0  0  0  0  0  0
   -2.9803   -1.5554    1.1065 H   0  0  0  0  0  0  0  0  0  0  0  0
   -3.5502   -3.6940   -0.8734 H   0  0  0  0  0  0  0  0  0  0  0  0
   -4.4754   -3.0714    0.4821 H   0  0  0  0  0  0  0  0  0  0  0  0
   -5.7636   -2.7455   -1.3301 H   0  0  0  0  0  0  0  0  0  0  0  0
   -4.5673   -1.9364   -2.3350 H   0  0  0  0  0  0  0  0  0  0  0  0
   -6.0284   -1.1165    0.2199 H   0  0  0  0  0  0  0  0  0  0  0  0
   -6.1203   -0.3242   -1.3541 H   0  0  0  0  0  0  0  0  0  0  0  0
   -4.4704    1.0990   -0.8039 H   0  0  0  0  0  0  0  0  0  0  0  0
   -4.3944    0.2706    0.8612 H   0  0  0  0  0  0  0  0  0  0  0  0
   -1.1530    0.3197   -1.3462 H   0  0  0  0  0  0  0  0  0  0  0  0
   -1.4935   -0.8644    1.3866 H   0  0  0  0  0  0  0  0  0  0  0  0
   -1.7130    3.3965    3.0553 H   0  0  0  0  0  0  0  0  0  0  0  0
   -0.2903    2.7702    2.1006 H   0  0  0  0  0  0  0  0  0  0  0  0
   -1.9052    1.1194    2.3648 H   0  0  0  0  0  0  0  0  0  0  0  0
   -3.1796    2.1427    1.6600 H   0  0  0  0  0  0  0  0  0  0  0  0
   -0.4767    1.7332    0.2983 H   0  0  0  0  0  0  0  0  0  0  0  0
   -3.1089    3.0210   -0.3914 H   0  0  0  0  0  0  0  0  0  0  0  0
   -1.9234    2.5077   -1.7260 H   0  0  0  0  0  0  0  0  0  0  0  0
   -1.6532    4.7420   -0.9307 H   0  0  0  0  0  0  0  0  0  0  0  0
   -0.1632    3.7495   -0.5292 H   0  0  0  0  0  0  0  0  0  0  0  0
   -0.7339    5.0040    1.4319 H   0  0  0  0  0  0  0  0  0  0  0  0
    4.8296    2.8399   -2.6467 H   0  0  0  0  0  0  0  0  0  0  0  0
    7.9783    1.3078   -2.2286 H   0  0  0  0  0  0  0  0  0  0  0  0
    6.1109   -0.6478    1.5088 H   0  0  0  0  0  0  0  0  0  0  0  0
    6.0990    2.7058   -0.9302 H   0  0  0  0  0  0  0  0  0  0  0  0
    6.4949   -0.2828   -1.5128 H   0  0  0  0  0  0  0  0  0  0  0  0
    7.2763    0.7221   -0.2167 H   0  0  0  0  0  0  0  0  0  0  0  0
    5.0928    1.1772    0.8171 H   0  0  0  0  0  0  0  0  0  0  0  0
    3.9289   -0.6240   -1.4106 H   0  0  0  0  0  0  0  0  0  0  0  0
    3.5536    1.1108   -1.1875 H   0  0  0  0  0  0  0  0  0  0  0  0
    2.7108    0.7963    0.9791 H   0  0  0  0  0  0  0  0  0  0  0  0
    1.2431    0.6115   -0.9300 H   0  0  0  0  0  0  0  0  0  0  0  0
    1.5836   -1.1102   -1.1033 H   0  0  0  0  0  0  0  0  0  0  0  0
    0.4633    0.3058    1.3785 H   0  0  0  0  0  0  0  0  0  0  0  0
    0.7688   -1.4067    1.3786 H   0  0  0  0  0  0  0  0  0  0  0  0
   -1.6500   -4.0336   -0.4333 H   0  0  0  0  0  0  0  0  0  0  0  0
   -0.0971   -3.7093    2.0375 H   0  0  0  0  0  0  0  0  0  0  0  0
   -1.7481   -2.8902    2.0179 H   0  0  0  0  0  0  0  0  0  0  0  0
   -1.5678   -4.6224    1.7169 H   0  0  0  0  0  0  0  0  0  0  0  0
    0.4771   -4.8029   -0.5608 H   0  0  0  0  0  0  0  0  0  0  0  0
    1.2006   -3.4411    0.2610 H   0  0  0  0  0  0  0  0  0  0  0  0
    0.6522   -3.2810   -1.4178 H   0  0  0  0  0  0  0  0  0  0  0  0
    3.3248   -1.9395    0.5903 H   0  0  0  0  0  0  0  0  0  0  0  0
   -3.1127   -0.6525   -1.7517 H   0  0  0  0  0  0  0  0  0  0  0  0
   -2.9803   -1.5554    1.1065 H   0  0  0  0  0  0  0  0  0  0  0  0
   -3.5502   -3.6940   -0.8734 H   0  0  0  0  0  0  0  0  0  0  0  0
   -4.4754   -3.0714    0.4821 H   0  0  0  0  0  0  0  0  0  0  0  0
   -5.7636   -2.7455   -1.3301 H   0  0  0  0  0  0  0  0  0  0  0  0
   -4.5673   -1.9364   -2.3350 H   0  0  0  0  0  0  0  0  0  0  0  0
   -6.0284   -1.1165    0.2199 H   0  0  0  0  0  0  0  0  0  0  0  0
   -6.1203   -0.3242   -1.3541 H   0  0  0  0  0  0  0  0  0  0  0  0
   -4.4704    1.0990   -0.8039 H   0  0  0  0  0  0  0  0  0  0  0  0
   -4.3944    0.2706    0.8612 H   0  0  0  0  0  0  0  0  0  0  0  0
   -1.1530    0.3197   -1.3462 H   0  0  0  0  0  0  0  0  0  0  0  0
   -1.4935   -0.8644    1.3866 H   0  0  0  0  0  0  0  0  0  0  0  0
   -1.7130    3.3965    3.0553 H   0  0  0  0  0  0  0  0  0  0  0  0
   -0.2903    2.7702    2.1006 H   0  0  0  0  0  0  0  0  0  0  0  0
   -1.9052    1.1194    2.3648 H   0  0  0  0  0  0  0  0  0  0  0  0
   -3.1796    2.1427    1.6600 H   0  0  0  0  0  0  0  0  0  0  0  0
   -0.4767    1.7332    0.2983 H   0  0  0  0  0  0  0  0  0  0  0  0
   -3.1089    3.0210   -0.3914 H   0  0  0  0  0  0  0  0  0  0  0  0
   -1.9234    2.5077   -1.7260 H   0  0  0  0  0  0  0  0  0  0  0  0
   -1.6532    4.7420   -0.9307 H   0  0  0  0  0  0  0  0  0  0  0  0
   -0.1632    3.7495   -0.5292 H   0  0  0  0  0  0  0  0  0  0  0  0
   -0.7339    5.0040    1.4319 H   0  0  0  0  0  0  0  0  0  0  0  0
    4.8296    2.8399   -2.6467 H   0  0  0  0  0  0  0  0  0  0  0  0
    7.9783    1.3078   -2.2286 H   0  0  0  0  0  0  0  0  0  0  0  0
    6.1109   -0.6478    1.5088 H   0  0  0  0  0  0  0  0  0  0  0  0
    6.0990    2.7058   -0.9302 H   0  0  0  0  0  0  0  0  0  0  0  0
    6.4949   -0.2828   -1.5128 H   0  0  0  0  0  0  0  0  0  0  0  0
    7.2763    0.7221   -0.2167 H   0  0  0  0  0  0  0  0  0  0  0  0
    5.0928    1.1772    0.8171 H   0  0  0  0  0  0  0  0  0  0  0  0
    3.9289   -0.6240   -1.4106 H   0  0  0  0  0  0  0  0  0  0  0  0
    3.5536    1.1108   -1.1875 H   0  0  0  0  0  0  0  0  0  0  0  0
    2.7108    0.7963    0.9791 H   0  0  0  0  0  0  0  0  0  0  0  0
    1.2431    0.6115   -0.9300 H   0  0  0  0  0  0  0  0  0  0  0  0
    1.5836   -1.1102   -1.1033 H   0  0  0  0  0  0  0  0  0  0  0  0
    0.4633    0.3058    1.3785 H   0  0  0  0  0  0  0  0  0  0  0  0
    0.7688   -1.4067    1.3786 H   0  0  0  0  0  0  0  0  0  0  0  0
   -1.6500   -4.0336   -0.4333 H   0  0  0  0  0  0  0  0  0  0  0  0
   -0.0971   -3.7093    2.0375 H   0  0  0  0  0  0  0  0  0  0  0  0
   -1.7481   -2.8902    2.0179 H   0  0  0  0  0  0  0  0  0  0  0  0
   -1.5678   -4.6224    1.7169 H   0  0  0  0  0  0  0  0  0  0  0  0
    0.4771   -4.8029   -0.5608 H   0  0  0  0  0  0  0  0  0  0  0  0
    1.2006   -3.4411    0.2610 H   0  0  0  0  0  0  0  0  0  0  0  0
    0.6522   -3.2810   -1.4178 H   0  0  0  0  0  0  0  0  0  0  0  0
    3.3248   -1.9395    0.5903 H   0  0  0  0  0  0  0  0  0  0  0  0
   -3.1127   -0.6525   -1.7517 H   0  0  0  0  0  0  0  0  0  0  0  0
   -2.9803   -1.5554    1.1065 H   0  0  0  0  0  0  0  0  0  0  0  0
   -3.5502   -3.6940   -0.8734 H   0  0  0  0  0  0  0  0  0  0  0  0
   -4.4754   -3.0714    0.4821 H   0  0  0  0  0  0  0  0  0  0  0  0
   -5.7636   -2.7455   -1.3301 H   0  0  0  0  0  0  0  0  0  0  0  0
   -4.5673   -1.9364   -2.3350 H   0  0  0  0  0  0  0  0  0  0  0  0
   -6.0284   -1.1165    0.2199 H   0  0  0  0  0  0  0  0  0  0  0  0
   -6.1203   -0.3242   -1.3541 H   0  0  0  0  0  0  0  0  0  0  0  0
   -4.4704    1.0990   -0.8039 H   0  0  0  0  0  0  0  0  0  0  0  0
   -4.3944    0.2706    0.8612 H   0  0  0  0  0  0  0  0  0  0  0  0
   -1.1530    0.3197   -1.3462 H   0  0  0  0  0  0  0  0  0  0  0  0
   -1.4935   -0.8644    1.3866 H   0  0  0  0  0  0  0  0  0  0  0  0
   -1.7130    3.3965    3.0553 H   0  0  0  0  0  0  0  0  0  0  0  0
   -0.2903    2.7702    2.1006 H   0  0  0  0  0  0  0  0  0  0  0  0
   -1.9052    1.1194    2.3648 H   0  0  0  0  0  0  0  0  0  0  0  0
   -3.1796    2.1427    1.6600 H   0  0  0  0  0  0  0  0  0  0  0  0
   -0.4767    1.7332    0.2983 H   0  0  0  0  0  0  0  0  0  0  0  0
   -3.1089    3.0210   -0.3914 H   0  0  0  0  0  0  0  0  0  0  0  0
   -1.9234    2.5077   -1.7260 H   0  0  0  0  0  0  0  0  0  0  0  0
   -1.6532    4.7420   -0.9307 H   0  0  0  0  0  0  0  0  0  0  0  0
   -0.1632    3.7495   -0.5292 H   0  0  0  0  0  0  0  0  0  0  0  0
   -0.7339    5.0040    1.4319 H   0  0  0  0  0  0  0  0  0  0  0  0
    4.8296    2.8399   -2.6467 H   0  0  0  0  0  0  0  0  0  0  0  0
    7.9783    1.3078   -2.2286 H   0  0  0  0  0  0  0  0  0  0  0  0
    6.1109   -0.6478    1.5088 H   0  0  0  0  0  0  0  0  0  0  0  0
    6.0990    2.7058   -0.9302 H   0  0  0  0  0  0  0  0  0  0  0  0
    6.4949   -0.2828   -1.5128 H   0  0  0  0  0  0  0  0  0  0  0  0
    7.2763    0.7221   -0.2167 H   0  0  0  0  0  0  0  0  0  0  0  0
    5.0928    1.1772    0.8171 H   0  0  0  0  0  0  0  0  0  0  0  0
    3.9289   -0.6240   -1.4106 H   0  0  0  0  0  0  0  0  0  0  0  0
    3.5536    1.1108   -1.1875 H   0  0  0  0  0  0  0  0  0  0  0  0
    2.7108    0.7963    0.9791 H   0  0  0  0  0  0  0  0  0  0  0  0
    1.2431    0.6115   -0.9300 H   0  0  0  0  0  0  0  0  0  0  0  0
    1.5836   -1.1102   -1.1033 H   0  0  0  0  0  0  0  0  0  0  0  0
    0.4633    0.3058    1.3785 H   0  0  0  0  0  0  0  0  0  0  0  0
    0.7688   -1.4067    1.3786 H   0  0  0  0  0  0  0  0  0  0  0  0
   -1.6500   -4.0336   -0.4333 H   0  0  0  0  0  0  0  0  0  0  0  0
   -0.0971   -3.7093    2.0375 H   0  0  0  0  0  0  0  0  0  0  0  0
   -1.7481   -2.8902    2.0179 H   0  0  0  0  0  0  0  0  0  0  0  0
   -1.5678   -4.6224    1.7169 H   0  0  0  0  0  0  0  0  0  0  0  0
    0.4771   -4.8029   -0.5608 H   0  0  0  0  0  0  0  0  0  0  0  0
    1.2006   -3.4411    0.2610 H   0  0  0  0  0  0  0  0  0  0  0  0
    0.6522   -3.2810   -1.4178 H   0  0  0  0  0  0  0  0  0  0  0  0
    3.3248   -1.9395    0.5903 H   0  0  0  0  0  0  0  0  0  0  0  0
   -3.1127   -0.6525   -1.7517 H   0  0  0  0  0  0  0  0  0  0  0  0
   -2.9803   -1.5554    1.1065 H   0  0  0  0  0  0  0  0  0  0  0  0
   -3.5502   -3.6940   -0.8734 H   0  0  0  0  0  0  0  0  0  0  0  0
   -4.4754   -3.0714    0.4821 H   0  0  0  0  0  0  0  0  0  0  0  0
   -5.7636   -2.7455   -1.3301 H   0  0  0  0  0  0  0  0  0  0  0  0
   -4.5673   -1.9364   -2.3350 H   0  0  0  0  0  0  0  0  0  0  0  0
   -6.0284   -1.1165    0.2199 H   0  0  0  0  0  0  0  0  0  0  0  0
   -6.1203   -0.3242   -1.3541 H   0  0  0  0  0  0  0  0  0  0  0  0
   -4.4704    1.0990   -0.8039 H   0  0  0  0  0  0  0  0  0  0  0  0
   -4.3944    0.2706    0.8612 H   0  0  0  0  0  0  0  0  0  0  0  0
   -1.1530    0.3197   -1.3462 H   0  0  0  0  0  0  0  0  0  0  0  0
   -1.4935   -0.8644    1.3866 H   0  0  0  0  0  0  0  0  0  0  0  0
   -1.7130    3.3965    3.0553 H   0  0  0  0  0  0  0  0  0  0  0  0
   -0.2903    2.7702    2.1006 H   0  0  0  0  0  0  0  0  0  0  0  0
   -1.9052    1.1194    2.3648 H   0  0  0  0  0  0  0  0  0  0  0  0
   -3.1796    2.1427    1.6600 H   0  0  0  0  0  0  0  0  0  0  0  0
   -0.4767    1.7332    0.2983 H   0  0  0  0  0  0  0  0  0  0  0  0
   -3.1089    3.0210   -0.3914 H   0  0  0  0  0  0  0  0  0  0  0  0
   -1.9234    2.5077   -1.7260 H   0  0  0  0  0  0  0  0  0  0  0  0
   -1.6532    4.7420   -0.9307 H   0  0  0  0  0  0  0  0  0  0  0  0
   -0.1632    3.7495   -0.5292 H   0  0  0  0  0  0  0  0  0  0  0  0
   -0.7339    5.0040    1.4319 H   0  0  0  0  0  0  0  0  0  0  0  0
    4.8296    2.8399   -2.6467 H   0  0  0  0  0  0  0  0  0  0  0  0
    7.9783    1.3078   -2.2286 H   0  0  0  0  0  0  0  0  0  0  0  0
    6.1109   -0.6478    1.5088 H   0  0  0  0  0  0  0  0  0  0  0  0
    6.0990    2.7058   -0.9302 H   0  0  0  0  0  0  0  0  0  0  0  0
    6.4949   -0.2828   -1.5128 H   0  0  0  0  0  0  0  0  0  0  0  0
    7.2763    0.7221   -0.2167 H   0  0  0  0  0  0  0  0  0  0  0  0
    5.0928    1.1772    0.8171 H   0  0  0  0  0  0  0  0  0  0  0  0
    3.9289   -0.6240   -1.4106 H   0  0  0  0  0  0  0  0  0  0  0  0
    3.5536    1.1108   -1.1875 H   0  0  0  0  0  0  0  0  0  0  0  0
    2.7108    0.7963    0.9791 H   0  0  0  0  0  0  0  0  0  0  0  0
    1.2431    0.6115   -0.9300 H   0  0  0  0  0  0  0  0  0  0  0  0
    1.5836   -1.1102   -1.1033 H   0  0  0  0  0  0  0  0  0  0  0  0
    0.4633    0.3058    1.3785 H   0  0  0  0  0  0  0  0  0  0  0  0
    0.7688   -1.4067    1.3786 H   0  0  0  0  0  0  0  0  0  0  0  0
   -1.6500   -4.0336   -0.4333 H   0  0  0  0  0  0  0  0  0  0  0  0
   -0.0971   -3.7093    2.0375 H   0  0  0  0  0  0  0  0  0  0  0  0
   -1.7481   -2.8902    2.0179 H   0  0  0  0  0  0  0  0  0  0  0  0
   -1.5678   -4.6224    1.7169 H   0  0  0  0  0  0  0  0  0  0  0  0
    0.4771   -4.8029   -0.5608 H   0  0  0  0  0  0  0  0  0  0  0  0
    1.2006   -3.4411    0.2610 H   0  0  0  0  0  0  0  0  0  0  0  0
    0.6522   -3.2810   -1.4178 H   0  0  0  0  0  0  0  0  0  0  0  0
    3.3248   -1.9395    0.5903 H   0  0  0  0  0  0  0  0  0  0  0  0
  1  2  1  0
  2  3  1  0
  3  4  1  0
  4  5  1  0
  1  6  1  0
  5  6  1  0
  1  7  1  0
  7  8  1  0
  2  9  1  0
  8  9  1  0
 10 11  1  0
  7 12  1  0
 11 12  1  0
 12 13  1  0
 13 14  1  0
 10 15  1  0
 14 15  1  0
 15 16  1  0
 17 20  1  0
 18 20  1  0
 20 21  1  0
 19 22  1  0
 21 22  1  0
 22 23  1  0
 23 24  1  0
 24 25  1  0
  8 26  1  0
 25 26  1  0
  9 27  1  0
 27 28  1  0
 27 29  1  0
 24 30  1  0
 31 32  1  0
 32 33  1  0
 33 34  1  0
 34 35  1  0
 31 36  1  0
 35 36  1  0
 31 37  1  0
 37 38  1  0
 32 39  1  0
 38 39  1  0
 40 41  1  0
 37 42  1  0
 41 42  1  0
 42 43  1  0
 43 44  1  0
 40 45  1  0
 44 45  1  0
 45 46  1  0
 47 50  1  0
 48 50  1  0
 50 51  1  0
 49 52  1  0
 51 52  1  0
 52 53  1  0
 53 54  1  0
 54 55  1  0
 38 56  1  0
 55 56  1  0
 39 57  1  0
 57 58  1  0
 57 59  1  0
 54 60  1  0
 61 62  1  0
 62 63  1  0
 63 64  1  0
 64 65  1  0
 61 66  1  0
 65 66  1  0
 61 67  1  0
 67 68  1  0
 62 69  1  0
 68 69  1  0
 70 71  1  0
 67 72  1  0
 71 72  1  0
 72 73  1  0
 73 74  1  0
 70 75  1  0
 74 75  1  0
 75 76  1  0
 77 80  1  0
 78 80  1  0
 80 81  1  0
 79 82  1  0
 81 82  1  0
 82 83  1  0
 83 84  1  0
 84 85  1  0
 68 86  1  0
 85 86  1  0
 69 87  1  0
 87 88  1  0
 87 89  1  0
 84 90  1  0
 91 92  1  0
 92 93  1  0
 93 94  1  0
 94 95  1  0
 91 96  1  0
 95 96  1  0
 91 97  1  0
 97 98  1  0
 92 99  1  0
 98 99  1  0
100101  1  0
 97102  1  0
101102  1  0
102103  1  0
103104  1  0
100105  1  0
104105  1  0
105106  1  0
107110  1  0
108110  1  0
110111  1  0
109112  1  0
111112  1  0
112113  1  0
113114  1  0
114115  1  0
 98116  1  0
115116  1  0
 99117  1  0
117118  1  0
117119  1  0
114120  1  0
  1121  1  0
  2122  1  0
  3123  1  0
  3124  1  0
  4125  1  0
  4126  1  0
  5127  1  0
  5128  1  0
  6129  1  0
  6130  1  0
  7131  1  0
  8132  1  0
 10133  1  0
 10134  1  0
 11135  1  0
 11136  1  0
 12137  1  0
 13138  1  0
 13139  1  0
 14140  1  0
 14141  1  0
 15142  1  0
 17143  1  0
 18144  1  0
 19145  1  0
 20146  1  0
 21147  1  0
 21148  1  0
 22149  1  1
 23150  1  0
 23151  1  0
 24152  1  1
 25153  1  0
 25154  1  0
 26155  1  0
 26156  1  0
 27157  1  0
 28158  1  0
 28159  1  0
 28160  1  0
 29161  1  0
 29162  1  0
 29163  1  0
 30164  1  0
 31165  1  0
 32166  1  0
 33167  1  0
 33168  1  0
 34169  1  0
 34170  1  0
 35171  1  0
 35172  1  0
 36173  1  0
 36174  1  0
 37175  1  0
 38176  1  0
 40177  1  0
 40178  1  0
 41179  1  0
 41180  1  0
 42181  1  0
 43182  1  0
 43183  1  0
 44184  1  0
 44185  1  0
 45186  1  0
 47187  1  0
 48188  1  0
 49189  1  0
 50190  1  0
 51191  1  0
 51192  1  0
 52193  1  1
 53194  1  0
 53195  1  0
 54196  1  1
 55197  1  0
 55198  1  0
 56199  1  0
 56200  1  0
 57201  1  0
 58202  1  0
 58203  1  0
 58204  1  0
 59205  1  0
 59206  1  0
 59207  1  0
 60208  1  0
 61209  1  0
 62210  1  0
 63211  1  0
 63212  1  0
 64213  1  0
 64214  1  0
 65215  1  0
 65216  1  0
 66217  1  0
 66218  1  0
 67219  1  0
 68220  1  0
 70221  1  0
 70222  1  0
 71223  1  0
 71224  1  0
 72225  1  0
 73226  1  0
 73227  1  0
 74228  1  0
 74229  1  0
 75230  1  0
 77231  1  0
 78232  1  0
 79233  1  0
 80234  1  0
 81235  1  0
 81236  1  0
 82237  1  1
 83238  1  0
 83239  1  0
 84240  1  1
 85241  1  0
 85242  1  0
 86243  1  0
 86244  1  0
 87245  1  0
 88246  1  0
 88247  1  0
 88248  1  0
 89249  1  0
 89250  1  0
 89251  1  0
 90252  1  0
 91253  1  0
 92254  1  0
 93255  1  0
 93256  1  0
 94257  1  0
 94258  1  0
 95259  1  0
 95260  1  0
 96261  1  0
 96262  1  0
 97263  1  0
 98264  1  0
100265  1  0
100266  1  0
101267  1  0
101268  1  0
102269  1  0
103270  1  0
103271  1  0
104272  1  0
104273  1  0
105274  1  0
107275  1  0
108276  1  0
109277  1  0
110278  1  0
111279  1  0
111280  1  0
112281  1  1
113282  1  0
113283  1  0
114284  1  1
115285  1  0
115286  1  0
116287  1  0
116288  1  0
117289  1  0
118290  1  0
118291  1  0
118292  1  0
119293  1  0
119294  1  0
119295  1  0
120296  1  0
M  END
>  <PDBID>  (1) 
1HWI

>  <PDB ID>  (1) 
1HWI

>  <Generic Name>  (1) 
Fluvastatin

>  <Brand Name>  (1) 
Fluvastatin#Fluvastatin Sodium#Fluvastatin Sodium ER#Lescol#Lescol 20mg#Lescol 40mg#Lescol XL#Sandoz Fluvastatin#Teva-fluvastatin#Canef#Cranoc

>  <DrugBank ID>  (1) 
DB01095

>  <ATC Codes>  (1) 
C10AA04

>  <Ligand ID>  (1) 
115

>  <Target Name>  (1) 
3-hydroxy-3-methylglutaryl-coenzyme A reductase

>  <UniProt ID>  (1) 
P04035

>  <PDB ID.1>  (1) 
1HWI

>  <Seq. Identity>  (1) 
97%

$$$$
