PDB_DB00302_07
     RDKit          3D

 56 56  0  0  0  0  0  0  0  0999 V2000
   -1.4131    0.4393   -0.0677 C   0  0  0  0  0  0  0  0  0  0  0  0
   -0.7547   -0.3929    1.0214 C   0  0  0  0  0  0  0  0  0  0  0  0
    0.4321    0.3669    1.5153 C   0  0  0  0  0  0  0  0  0  0  0  0
    1.4222    0.5548    0.4170 C   0  0  0  0  0  0  0  0  0  0  0  0
    0.8979    0.1953   -0.9474 C   0  0  0  0  0  0  0  0  0  0  0  0
   -0.4865    0.6624   -1.2139 C   0  0  0  0  0  0  0  0  0  0  0  0
    2.6552   -0.3302    0.6439 C   0  0  0  0  0  0  0  0  0  0  0  0
   -2.7136   -0.1969   -0.4281 C   0  0  0  0  0  0  0  0  0  0  0  0
    3.5394   -0.0595   -0.4839 N   0  0  0  0  0  0  0  0  0  0  0  0
   -3.3646    0.5323   -1.4315 O   0  0  0  0  0  0  0  0  0  0  0  0
   -3.5270   -0.1560    0.7280 O   0  0  0  0  0  0  0  0  0  0  0  0
   -1.4131    0.4393   -0.0677 C   0  0  0  0  0  0  0  0  0  0  0  0
   -0.7547   -0.3929    1.0214 C   0  0  0  0  0  0  0  0  0  0  0  0
    0.4321    0.3669    1.5153 C   0  0  0  0  0  0  0  0  0  0  0  0
    1.4222    0.5548    0.4170 C   0  0  0  0  0  0  0  0  0  0  0  0
    0.8979    0.1953   -0.9474 C   0  0  0  0  0  0  0  0  0  0  0  0
   -0.4865    0.6624   -1.2139 C   0  0  0  0  0  0  0  0  0  0  0  0
    2.6552   -0.3302    0.6439 C   0  0  0  0  0  0  0  0  0  0  0  0
   -2.7136   -0.1969   -0.4281 C   0  0  0  0  0  0  0  0  0  0  0  0
    3.5394   -0.0595   -0.4839 N   0  0  0  0  0  0  0  0  0  0  0  0
   -3.3646    0.5323   -1.4315 O   0  0  0  0  0  0  0  0  0  0  0  0
   -3.5270   -0.1560    0.7280 O   0  0  0  0  0  0  0  0  0  0  0  0
   -1.6453    1.4269    0.4127 H   0  0  0  0  0  0  0  0  0  0  0  0
   -1.5198   -0.5520    1.8122 H   0  0  0  0  0  0  0  0  0  0  0  0
   -0.4072   -1.3618    0.6318 H   0  0  0  0  0  0  0  0  0  0  0  0
    0.8926   -0.1235    2.4179 H   0  0  0  0  0  0  0  0  0  0  0  0
    0.0449    1.3493    1.9156 H   0  0  0  0  0  0  0  0  0  0  0  0
    1.7773    1.6080    0.4501 H   0  0  0  0  0  0  0  0  0  0  0  0
    1.5917    0.6370   -1.7030 H   0  0  0  0  0  0  0  0  0  0  0  0
    1.0199   -0.9162   -1.0705 H   0  0  0  0  0  0  0  0  0  0  0  0
   -0.4326    1.7601   -1.4637 H   0  0  0  0  0  0  0  0  0  0  0  0
   -0.8605    0.1350   -2.1209 H   0  0  0  0  0  0  0  0  0  0  0  0
    3.1211   -0.1487    1.6118 H   0  0  0  0  0  0  0  0  0  0  0  0
    2.2968   -1.3826    0.5036 H   0  0  0  0  0  0  0  0  0  0  0  0
   -2.5846   -1.2375   -0.7772 H   0  0  0  0  0  0  0  0  0  0  0  0
    4.4880   -0.4699   -0.3357 H   0  0  0  0  0  0  0  0  0  0  0  0
    3.5828    0.9931   -0.5550 H   0  0  0  0  0  0  0  0  0  0  0  0
   -3.7342   -0.1047   -2.1223 H   0  0  0  0  0  0  0  0  0  0  0  0
   -4.3182   -0.7101    0.6393 H   0  0  0  0  0  0  0  0  0  0  0  0
   -1.6453    1.4269    0.4127 H   0  0  0  0  0  0  0  0  0  0  0  0
   -1.5198   -0.5520    1.8122 H   0  0  0  0  0  0  0  0  0  0  0  0
   -0.4072   -1.3618    0.6318 H   0  0  0  0  0  0  0  0  0  0  0  0
    0.8926   -0.1235    2.4179 H   0  0  0  0  0  0  0  0  0  0  0  0
    0.0449    1.3493    1.9156 H   0  0  0  0  0  0  0  0  0  0  0  0
    1.7773    1.6080    0.4501 H   0  0  0  0  0  0  0  0  0  0  0  0
    1.5917    0.6370   -1.7030 H   0  0  0  0  0  0  0  0  0  0  0  0
    1.0199   -0.9162   -1.0705 H   0  0  0  0  0  0  0  0  0  0  0  0
   -0.4326    1.7601   -1.4637 H   0  0  0  0  0  0  0  0  0  0  0  0
   -0.8605    0.1350   -2.1209 H   0  0  0  0  0  0  0  0  0  0  0  0
    3.1211   -0.1487    1.6118 H   0  0  0  0  0  0  0  0  0  0  0  0
    2.2968   -1.3826    0.5036 H   0  0  0  0  0  0  0  0  0  0  0  0
   -2.5846   -1.2375   -0.7772 H   0  0  0  0  0  0  0  0  0  0  0  0
    4.4880   -0.4699   -0.3357 H   0  0  0  0  0  0  0  0  0  0  0  0
    3.5828    0.9931   -0.5550 H   0  0  0  0  0  0  0  0  0  0  0  0
   -3.7342   -0.1047   -2.1223 H   0  0  0  0  0  0  0  0  0  0  0  0
   -4.3182   -0.7101    0.6393 H   0  0  0  0  0  0  0  0  0  0  0  0
  1  2  1  0
  2  3  1  0
  3  4  1  0
  4  5  1  0
  1  6  1  0
  5  6  1  0
  4  7  1  0
  1  8  1  0
  7  9  1  0
  8 10  1  0
  8 11  1  0
 12 13  1  0
 13 14  1  0
 14 15  1  0
 15 16  1  0
 12 17  1  0
 16 17  1  0
 15 18  1  0
 12 19  1  0
 18 20  1  0
 19 21  1  0
 19 22  1  0
  1 23  1  0
  2 24  1  0
  2 25  1  0
  3 26  1  0
  3 27  1  0
  4 28  1  0
  5 29  1  0
  5 30  1  0
  6 31  1  0
  6 32  1  0
  7 33  1  0
  7 34  1  0
  8 35  1  0
  9 36  1  0
  9 37  1  0
 10 38  1  0
 11 39  1  0
 12 40  1  0
 13 41  1  0
 13 42  1  0
 14 43  1  0
 14 44  1  0
 15 45  1  0
 16 46  1  0
 16 47  1  0
 17 48  1  0
 17 49  1  0
 18 50  1  0
 18 51  1  0
 19 52  1  0
 20 53  1  0
 20 54  1  0
 21 55  1  0
 22 56  1  0
M  END
>  <PDBID>  (1) 
1CEB

>  <PDB ID>  (1) 
1CEB

>  <Generic Name>  (1) 
Tranexamic Acid

>  <Brand Name>  (1) 
Cyklokapron#Cyklokapron 100 mg/ml#Cyklokapron 500 mg#Erfa-tranexamic#Gd-tranexamic Acid#Lysteda#Pure Whitenol Serum#Tranexamic Acid#Tranexamic Acid Injection#Tranexamic Acid Injection BP#Tranexamic Acid Tablets#Tranexamic Acid Tranexamic Acid#Cyclo-F#Espercil#Femstrual#Rikavarin#Transamin#Transcam#Traxyl

>  <DrugBank ID>  (1) 
DB00302

>  <ATC Codes>  (1) 
B02AA02

>  <Ligand ID>  (1) 
AMH

>  <Target Name>  (1) 
Plasminogen

>  <UniProt ID>  (1) 
P00747

>  <PDB ID.1>  (1) 
1CEB

>  <Seq. Identity>  (1) 
100%

$$$$
