PDB_DB01045_09
     RDKit          3D

141145  0  0  0  0  0  0  0  0999 V2000
    3.7793    0.0979   -1.7739 C   0  0  0  0  0  0  0  0  0  0  0  0
    3.3951    1.1586   -0.8072 C   0  0  2  0  0  0  0  0  0  0  0  0
    3.1666    0.6994    0.5933 C   0  0  0  0  0  0  0  0  0  0  0  0
    2.4249   -0.5750    0.7526 C   0  0  0  0  0  0  0  0  0  0  0  0
    1.0954   -2.2744   -0.5560 C   0  0  0  0  0  0  0  0  0  0  0  0
    1.2315   -3.3479   -1.5806 C   0  0  0  0  0  0  0  0  0  0  0  0
    2.5264   -3.4312   -2.2875 C   0  0  0  0  0  0  0  0  0  0  0  0
    2.9534   -2.0614   -2.6999 C   0  0  0  0  0  0  0  0  0  0  0  0
    3.2418   -1.2854   -1.4279 C   0  0  0  0  0  0  0  0  0  0  0  0
    2.0086   -1.1518   -0.5818 C   0  0  0  0  0  0  0  0  0  0  0  0
    0.9912   -3.0966    0.7152 C   0  0  0  0  0  0  0  0  0  0  0  0
    0.0640   -4.1808    0.1138 C   0  0  2  0  0  0  0  0  0  0  0  0
   -0.2037   -5.2884    1.0642 C   0  0  0  0  0  0  0  0  0  0  0  0
    3.5853   -4.2577   -1.6272 C   0  0  0  0  0  0  0  0  0  0  0  0
    2.4655    3.3657   -1.1528 C   0  0  0  0  0  0  0  0  0  0  0  0
    1.1933    4.1181   -0.8367 C   0  0  1  0  0  0  0  0  0  0  0  0
    0.3675    3.3909    0.1937 C   0  0  0  0  0  0  0  0  0  0  0  0
   -1.0734    3.8772    0.1536 C   0  0  0  0  0  0  0  0  0  0  0  0
   -1.9299    2.8046   -0.4718 C   0  0  0  0  0  0  0  0  0  0  0  0
   -3.1207    3.3016   -1.2057 C   0  0  1  0  0  0  0  0  0  0  0  0
   -4.2969    3.6970   -0.4030 C   0  0  1  0  0  0  0  0  0  0  0  0
   -4.6825    2.7798    0.7236 C   0  0  2  0  0  0  0  0  0  0  0  0
   -5.5210    1.6320    0.1777 C   0  0  2  0  0  0  0  0  0  0  0  0
   -6.0365    0.7090    1.2512 C   0  0  2  0  0  0  0  0  0  0  0  0
   -6.0938   -0.7534    0.8028 C   0  0  1  0  0  0  0  0  0  0  0  0
   -4.9944   -1.6063    1.3194 C   0  0  1  0  0  0  0  0  0  0  0  0
   -4.3056   -2.3119    0.1842 C   0  0  2  0  0  0  0  0  0  0  0  0
   -2.8267   -2.0393    0.0709 C   0  0  0  0  0  0  0  0  0  0  0  0
   -2.0275   -3.2509    0.5069 C   0  0  0  0  0  0  0  0  0  0  0  0
    1.6027    5.4792   -0.3150 C   0  0  0  0  0  0  0  0  0  0  0  0
   -2.7158    4.5196   -2.0437 C   0  0  0  0  0  0  0  0  0  0  0  0
   -5.4542    3.6243    1.7172 C   0  0  0  0  0  0  0  0  0  0  0  0
   -7.4953    1.1423    1.5057 C   0  0  0  0  0  0  0  0  0  0  0  0
   -4.0279   -0.8843    2.2192 C   0  0  0  0  0  0  0  0  0  0  0  0
   -8.1609   -1.6620    0.1110 C   0  0  2  0  0  0  0  0  0  0  0  0
   -8.4680   -3.1587    0.1615 C   0  0  0  0  0  0  0  0  0  0  0  0
   -5.2639   -3.1919   -1.7410 C   0  0  0  0  0  0  0  0  0  0  0  0
   10.7125    0.6386    1.0206 C   0  0  0  0  0  0  0  0  0  0  0  0
    8.9532   -0.7697    1.7095 C   0  0  0  0  0  0  0  0  0  0  0  0
    7.4792   -1.0169    1.6005 C   0  0  0  0  0  0  0  0  0  0  0  0
    7.4326    1.3462    1.2132 C   0  0  0  0  0  0  0  0  0  0  0  0
    8.4884    1.0143    0.1582 C   0  0  0  0  0  0  0  0  0  0  0  0
    4.4587    0.7994    1.3694 C   0  0  0  0  0  0  0  0  0  0  0  0
    2.2606    1.9506   -1.2610 N   0  0  0  0  0  0  0  0  0  0  0  0
    5.5318    0.0033    0.8092 N   0  0  0  0  0  0  0  0  0  0  0  0
    6.6864    0.1914    1.6090 N   0  0  0  0  0  0  0  0  0  0  0  0
    9.4519    0.0549    0.6385 N   0  0  0  0  0  0  0  0  0  0  0  0
    5.1478    0.0523   -2.0330 O   0  0  0  0  0  0  0  0  0  0  0  0
    4.0766   -2.0325   -3.5023 O   0  0  0  0  0  0  0  0  0  0  0  0
    0.8799   -4.5697   -0.9506 O   0  0  0  0  0  0  0  0  0  0  0  0
    2.1122   -3.7738    1.0664 O   0  0  0  0  0  0  0  0  0  0  0  0
   -1.0650   -3.5866   -0.4311 O   0  0  0  0  0  0  0  0  0  0  0  0
   -4.8817   -2.0545   -1.0648 O   0  0  0  0  0  0  0  0  0  0  0  0
   -7.3261   -1.3030    1.0859 O   0  0  0  0  0  0  0  0  0  0  0  0
   -9.3991   -1.0302    0.0873 O   0  0  0  0  0  0  0  0  0  0  0  0
   -4.7771    0.9963   -0.8046 O   0  0  0  0  0  0  0  0  0  0  0  0
   -4.1737    4.9936    0.0713 O   0  0  0  0  0  0  0  0  0  0  0  0
    3.3519    3.6056   -0.1038 O   0  0  0  0  0  0  0  0  0  0  0  0
    3.1138   -1.3977    1.5798 O   0  0  0  0  0  0  0  0  0  0  0  0
    3.3037    0.3486   -2.7594 H   0  0  0  0  0  0  0  0  0  0  0  0
    4.2579    1.8881   -0.7725 H   0  0  0  0  0  0  0  0  0  0  0  0
    2.5137    1.5095    1.0562 H   0  0  0  0  0  0  0  0  0  0  0  0
    1.4242   -0.4092    1.2753 H   0  0  0  0  0  0  0  0  0  0  0  0
    0.0237   -1.9096   -0.6483 H   0  0  0  0  0  0  0  0  0  0  0  0
    0.4336   -3.2557   -2.3824 H   0  0  0  0  0  0  0  0  0  0  0  0
    2.3386   -3.9777   -3.2688 H   0  0  0  0  0  0  0  0  0  0  0  0
    2.1209   -1.5962   -3.2530 H   0  0  0  0  0  0  0  0  0  0  0  0
    4.0670   -1.8077   -0.9501 H   0  0  0  0  0  0  0  0  0  0  0  0
    1.4665   -0.2597   -1.0405 H   0  0  0  0  0  0  0  0  0  0  0  0
    0.4654   -2.5838    1.5272 H   0  0  0  0  0  0  0  0  0  0  0  0
    0.5216   -6.1385    0.9402 H   0  0  0  0  0  0  0  0  0  0  0  0
   -1.1978   -5.7317    0.8110 H   0  0  0  0  0  0  0  0  0  0  0  0
   -0.1328   -4.9974    2.1366 H   0  0  0  0  0  0  0  0  0  0  0  0
    3.1107   -5.2071   -1.3063 H   0  0  0  0  0  0  0  0  0  0  0  0
    4.3573   -4.4902   -2.4144 H   0  0  0  0  0  0  0  0  0  0  0  0
    4.1179   -3.8198   -0.7974 H   0  0  0  0  0  0  0  0  0  0  0  0
    2.8491    3.7545   -2.1107 H   0  0  0  0  0  0  0  0  0  0  0  0
    0.6101    4.2725   -1.7540 H   0  0  0  0  0  0  0  0  0  0  0  0
    0.8126    3.4436    1.1985 H   0  0  0  0  0  0  0  0  0  0  0  0
    0.4000    2.2985   -0.0828 H   0  0  0  0  0  0  0  0  0  0  0  0
   -1.3502    4.0601    1.2222 H   0  0  0  0  0  0  0  0  0  0  0  0
   -1.0812    4.8272   -0.3769 H   0  0  0  0  0  0  0  0  0  0  0  0
   -1.2634    2.3169   -1.2459 H   0  0  0  0  0  0  0  0  0  0  0  0
   -2.1105    2.0330    0.2729 H   0  0  0  0  0  0  0  0  0  0  0  0
   -3.4359    2.5387   -1.9801 H   0  0  0  0  0  0  0  0  0  0  0  0
   -5.1759    3.7148   -1.0941 H   0  0  0  0  0  0  0  0  0  0  0  0
   -3.8504    2.3390    1.2716 H   0  0  0  0  0  0  0  0  0  0  0  0
   -6.3650    2.1431   -0.3785 H   0  0  0  0  0  0  0  0  0  0  0  0
   -5.5276    0.7895    2.2081 H   0  0  0  0  0  0  0  0  0  0  0  0
   -6.0130   -0.7158   -0.2956 H   0  0  0  0  0  0  0  0  0  0  0  0
   -5.3846   -2.4462    1.9842 H   0  0  0  0  0  0  0  0  0  0  0  0
   -4.3677   -3.4437    0.2733 H   0  0  0  0  0  0  0  0  0  0  0  0
   -2.4600   -1.1878    0.6465 H   0  0  0  0  0  0  0  0  0  0  0  0
   -2.5907   -1.9261   -1.0295 H   0  0  0  0  0  0  0  0  0  0  0  0
   -2.6997   -4.1526    0.5961 H   0  0  0  0  0  0  0  0  0  0  0  0
   -1.6320   -3.0780    1.5053 H   0  0  0  0  0  0  0  0  0  0  0  0
    1.9448    6.1020   -1.1780 H   0  0  0  0  0  0  0  0  0  0  0  0
    0.7974    6.0138    0.1967 H   0  0  0  0  0  0  0  0  0  0  0  0
    2.5031    5.4171    0.3600 H   0  0  0  0  0  0  0  0  0  0  0  0
   -3.5174    4.6294   -2.8118 H   0  0  0  0  0  0  0  0  0  0  0  0
   -1.7793    4.3487   -2.5839 H   0  0  0  0  0  0  0  0  0  0  0  0
   -2.7310    5.4506   -1.4549 H   0  0  0  0  0  0  0  0  0  0  0  0
   -5.5333    3.1543    2.7178 H   0  0  0  0  0  0  0  0  0  0  0  0
   -6.3788    4.0476    1.3197 H   0  0  0  0  0  0  0  0  0  0  0  0
   -4.7854    4.5202    1.9027 H   0  0  0  0  0  0  0  0  0  0  0  0
   -7.5591    2.1013    2.0515 H   0  0  0  0  0  0  0  0  0  0  0  0
   -8.0166    0.3928    2.1294 H   0  0  0  0  0  0  0  0  0  0  0  0
   -7.9578    1.2993    0.5227 H   0  0  0  0  0  0  0  0  0  0  0  0
   -4.5357   -0.6993    3.1943 H   0  0  0  0  0  0  0  0  0  0  0  0
   -3.5804    0.0197    1.8063 H   0  0  0  0  0  0  0  0  0  0  0  0
   -3.2055   -1.5798    2.4799 H   0  0  0  0  0  0  0  0  0  0  0  0
   -7.7165   -1.4738   -0.8881 H   0  0  0  0  0  0  0  0  0  0  0  0
   -7.6143   -3.7440    0.5625 H   0  0  0  0  0  0  0  0  0  0  0  0
   -8.6708   -3.5651   -0.8551 H   0  0  0  0  0  0  0  0  0  0  0  0
   -9.3999   -3.3524    0.7533 H   0  0  0  0  0  0  0  0  0  0  0  0
   -4.3712   -3.8632   -1.9323 H   0  0  0  0  0  0  0  0  0  0  0  0
   -5.6814   -2.9878   -2.7400 H   0  0  0  0  0  0  0  0  0  0  0  0
   -6.0189   -3.8073   -1.2112 H   0  0  0  0  0  0  0  0  0  0  0  0
   11.5507    0.3459    0.3640 H   0  0  0  0  0  0  0  0  0  0  0  0
   10.6140    1.7554    1.0550 H   0  0  0  0  0  0  0  0  0  0  0  0
   10.9885    0.3258    2.0596 H   0  0  0  0  0  0  0  0  0  0  0  0
    9.2096   -0.3798    2.7144 H   0  0  0  0  0  0  0  0  0  0  0  0
    9.4565   -1.7545    1.6230 H   0  0  0  0  0  0  0  0  0  0  0  0
    7.1497   -1.6589    2.4322 H   0  0  0  0  0  0  0  0  0  0  0  0
    7.2854   -1.5212    0.6140 H   0  0  0  0  0  0  0  0  0  0  0  0
    6.8027    2.1613    0.8077 H   0  0  0  0  0  0  0  0  0  0  0  0
    7.9953    1.7628    2.0837 H   0  0  0  0  0  0  0  0  0  0  0  0
    7.9323    0.6829   -0.7317 H   0  0  0  0  0  0  0  0  0  0  0  0
    9.0257    1.9488   -0.0755 H   0  0  0  0  0  0  0  0  0  0  0  0
    4.3021    0.5621    2.4531 H   0  0  0  0  0  0  0  0  0  0  0  0
    4.8454    1.8486    1.3853 H   0  0  0  0  0  0  0  0  0  0  0  0
    2.0853    1.7235   -2.2712 H   0  0  0  0  0  0  0  0  0  0  0  0
    5.2723   -1.0002    0.9249 H   0  0  0  0  0  0  0  0  0  0  0  0
    5.3752    0.8799   -2.5063 H   0  0  0  0  0  0  0  0  0  0  0  0
    4.8914   -2.3406   -3.0328 H   0  0  0  0  0  0  0  0  0  0  0  0
    2.1089   -4.7454    0.9669 H   0  0  0  0  0  0  0  0  0  0  0  0
   -9.9458   -1.3205    0.8861 H   0  0  0  0  0  0  0  0  0  0  0  0
   -5.2987    0.7966   -1.6244 H   0  0  0  0  0  0  0  0  0  0  0  0
   -3.3717    5.1666    0.5868 H   0  0  0  0  0  0  0  0  0  0  0  0
    4.2342    3.9018   -0.3996 H   0  0  0  0  0  0  0  0  0  0  0  0
    2.8339   -1.4087    2.5214 H   0  0  0  0  0  0  0  0  0  0  0  0
  1  2  1  0
  2  3  1  0
  3  4  1  0
  5  6  1  0
  6  7  1  0
  7  8  1  0
  1  9  1  0
  8  9  1  0
  4 10  1  0
  5 10  1  0
  9 10  1  0
  5 11  1  0
 11 12  1  0
 12 13  1  1
  7 14  1  0
 15 16  1  0
 16 17  1  0
 17 18  1  0
 18 19  1  0
 19 20  1  0
 20 21  1  0
 21 22  1  0
 22 23  1  0
 23 24  1  0
 24 25  1  0
 25 26  1  0
 26 27  1  0
 27 28  1  0
 28 29  1  0
 16 30  1  0
 20 31  1  0
 22 32  1  0
 24 33  1  0
 26 34  1  0
 35 36  1  0
 39 40  1  0
 41 42  1  0
  3 43  1  0
  2 44  1  0
 15 44  1  0
 43 45  1  0
 40 46  1  0
 41 46  1  0
 45 46  1  0
 38 47  1  0
 39 47  1  0
 42 47  1  0
  1 48  1  0
  8 49  1  0
  6 50  1  0
 12 50  1  0
 11 51  1  0
 12 52  1  0
 29 52  1  0
 27 53  1  0
 37 53  1  0
 25 54  1  0
 35 54  1  0
 35 55  1  0
 23 56  1  0
 21 57  1  0
 15 58  1  0
  4 59  1  0
  1 60  1  0
  2 61  1  1
  3 62  1  0
  4 63  1  0
  5 64  1  0
  6 65  1  0
  7 66  1  0
  8 67  1  0
  9 68  1  0
 10 69  1  0
 11 70  1  0
 13 71  1  0
 13 72  1  0
 13 73  1  0
 14 74  1  0
 14 75  1  0
 14 76  1  0
 15 77  1  0
 16 78  1  6
 17 79  1  0
 17 80  1  0
 18 81  1  0
 18 82  1  0
 19 83  1  0
 19 84  1  0
 20 85  1  6
 21 86  1  6
 22 87  1  1
 23 88  1  6
 24 89  1  1
 25 90  1  6
 26 91  1  1
 27 92  1  1
 28 93  1  0
 28 94  1  0
 29 95  1  0
 29 96  1  0
 30 97  1  0
 30 98  1  0
 30 99  1  0
 31100  1  0
 31101  1  0
 31102  1  0
 32103  1  0
 32104  1  0
 32105  1  0
 33106  1  0
 33107  1  0
 33108  1  0
 34109  1  0
 34110  1  0
 34111  1  0
 35112  1  6
 36113  1  0
 36114  1  0
 36115  1  0
 37116  1  0
 37117  1  0
 37118  1  0
 38119  1  0
 38120  1  0
 38121  1  0
 39122  1  0
 39123  1  0
 40124  1  0
 40125  1  0
 41126  1  0
 41127  1  0
 42128  1  0
 42129  1  0
 43130  1  0
 43131  1  0
 44132  1  0
 45133  1  0
 48134  1  0
 49135  1  0
 51136  1  0
 55137  1  0
 56138  1  0
 57139  1  0
 58140  1  0
 59141  1  0
M  END
>  <PDBID>  (1) 
5UAC

>  <PDB ID>  (1) 
5UAC

>  <Generic Name>  (1) 
Rifampicin

>  <Brand Name>  (1) 
Isonarif#Rifadin#Rifadin Cap 300mg#Rifadin IV#Rifadin IV Novaplus#Rifamate#Rifampin#Rifater#Rofact 150mg#Rofact 300mg#Rifadine#Rifaldin#Rifoldin#Rimactan#Rimactane#Rofact#Tubocin

>  <DrugBank ID>  (1) 
DB01045

>  <ATC Codes>  (1) 
J04AM02#J04AB02#J04AM06#J04AM05

>  <Ligand ID>  (1) 
RFP

>  <Target Name>  (1) 
DNA-directed RNA polymerase subunit beta

>  <UniProt ID>  (1) 
P0A8V2

>  <PDB ID.1>  (1) 
5UAC

>  <Seq. Identity>  (1) 
100%

$$$$
