PDB_DB09034_09
     RDKit          3D

 75 79  0  0  0  0  0  0  0  0999 V2000
    3.4845   -0.4750    0.6892 C   0  0  0  0  0  0  0  0  0  0  0  0
    2.6804    0.4498   -0.0311 N   0  0  0  0  0  0  0  0  0  0  0  0
    4.4399    0.1179    1.4718 O   0  0  0  0  0  0  0  0  0  0  0  0
    8.8633   -1.0164   -2.0662 Cl  0  0  0  0  0  0  0  0  0  0  0  0
    4.1499   -1.3619   -0.2450 N   0  0  0  0  0  0  0  0  0  0  0  0
   -2.1411   -0.1064    1.7101 O   0  0  0  0  0  0  0  0  0  0  0  0
    5.5287   -1.4275    0.2017 C   0  0  0  0  0  0  0  0  0  0  0  0
   -0.5469    0.3623    0.0634 N   0  0  0  0  0  0  0  0  0  0  0  0
    6.4860   -1.5308   -0.9688 C   0  0  0  0  0  0  0  0  0  0  0  0
   -4.6426    0.8259   -1.1640 N   0  0  0  0  0  0  0  0  0  0  0  0
    7.7574   -0.7807   -0.6853 C   0  0  0  0  0  0  0  0  0  0  0  0
   -4.1719    2.0508   -0.8570 N   0  0  0  0  0  0  0  0  0  0  0  0
    7.4795    0.6937   -0.5593 C   0  0  0  0  0  0  0  0  0  0  0  0
   -5.9633    0.8429   -1.5101 N   0  0  0  0  0  0  0  0  0  0  0  0
    6.1002    0.9867   -0.0099 C   0  0  0  0  0  0  0  0  0  0  0  0
    5.6785   -0.1230    0.9380 C   0  0  0  0  0  0  0  0  0  0  0  0
    1.6747   -0.0818   -0.8622 C   0  0  0  0  0  0  0  0  0  0  0  0
    0.4344   -0.6115   -0.1115 C   0  0  0  0  0  0  0  0  0  0  0  0
   -0.1354    1.4751    0.8950 C   0  0  1  0  0  0  0  0  0  0  0  0
    1.1815    1.3539    1.5528 C   0  0  0  0  0  0  0  0  0  0  0  0
    2.3288    1.6541    0.6398 C   0  0  0  0  0  0  0  0  0  0  0  0
   -1.8806    0.1015    0.3605 C   0  0  0  0  0  0  0  0  0  0  0  0
   -2.7737   -0.6701   -0.5147 C   0  0  0  0  0  0  0  0  0  0  0  0
   -4.2539   -0.3124   -0.4289 C   0  0  0  0  0  0  0  0  0  0  0  0
   -4.7336   -0.3867    0.9652 C   0  0  0  0  0  0  0  0  0  0  0  0
   -4.5348   -1.7377    1.5430 C   0  0  0  0  0  0  0  0  0  0  0  0
   -3.7277   -2.6851    0.7413 C   0  0  0  0  0  0  0  0  0  0  0  0
   -2.7318   -2.1622   -0.2118 C   0  0  0  0  0  0  0  0  0  0  0  0
   -5.2605    3.0018   -0.8794 C   0  0  0  0  0  0  0  0  0  0  0  0
   -6.4264    2.2142   -1.4186 C   0  0  0  0  0  0  0  0  0  0  0  0
   -4.5928   -3.7915    0.1116 C   0  0  0  0  0  0  0  0  0  0  0  0
   -0.1733    2.7267    0.0516 C   0  0  0  0  0  0  0  0  0  0  0  0
    2.8671   -1.1290    1.3639 H   0  0  0  0  0  0  0  0  0  0  0  0
    4.1939   -0.9097   -1.2080 H   0  0  0  0  0  0  0  0  0  0  0  0
   -1.6172   -0.8268    2.1083 H   0  0  0  0  0  0  0  0  0  0  0  0
    5.7014   -2.2566    0.9246 H   0  0  0  0  0  0  0  0  0  0  0  0
    6.0424   -1.1656   -1.9161 H   0  0  0  0  0  0  0  0  0  0  0  0
    6.7407   -2.6063   -1.0939 H   0  0  0  0  0  0  0  0  0  0  0  0
    8.2457   -1.1813    0.2066 H   0  0  0  0  0  0  0  0  0  0  0  0
   -3.4222    2.3166   -1.5646 H   0  0  0  0  0  0  0  0  0  0  0  0
    8.2735    1.1446    0.0887 H   0  0  0  0  0  0  0  0  0  0  0  0
    7.5586    1.2073   -1.5377 H   0  0  0  0  0  0  0  0  0  0  0  0
   -6.5893    0.2668   -0.9117 H   0  0  0  0  0  0  0  0  0  0  0  0
    5.3264    1.0558   -0.7880 H   0  0  0  0  0  0  0  0  0  0  0  0
    6.1409    1.9343    0.5687 H   0  0  0  0  0  0  0  0  0  0  0  0
    6.4699   -0.2432    1.7255 H   0  0  0  0  0  0  0  0  0  0  0  0
    1.3559    0.6436   -1.6167 H   0  0  0  0  0  0  0  0  0  0  0  0
    2.1527   -0.9269   -1.4465 H   0  0  0  0  0  0  0  0  0  0  0  0
    0.1369   -1.4567   -0.7708 H   0  0  0  0  0  0  0  0  0  0  0  0
    0.7185   -1.0725    0.8560 H   0  0  0  0  0  0  0  0  0  0  0  0
   -0.8845    1.6653    1.7159 H   0  0  0  0  0  0  0  0  0  0  0  0
    1.3230    0.4029    2.1221 H   0  0  0  0  0  0  0  0  0  0  0  0
    1.2145    2.1482    2.3578 H   0  0  0  0  0  0  0  0  0  0  0  0
    1.9933    2.3811   -0.1437 H   0  0  0  0  0  0  0  0  0  0  0  0
    3.1644    2.1395    1.1628 H   0  0  0  0  0  0  0  0  0  0  0  0
   -2.3488    1.2009    0.2651 H   0  0  0  0  0  0  0  0  0  0  0  0
   -2.5184   -0.4821   -1.5788 H   0  0  0  0  0  0  0  0  0  0  0  0
   -4.7601   -1.1853   -0.9775 H   0  0  0  0  0  0  0  0  0  0  0  0
   -4.3274    0.4409    1.5735 H   0  0  0  0  0  0  0  0  0  0  0  0
   -5.8474   -0.1464    0.9237 H   0  0  0  0  0  0  0  0  0  0  0  0
   -4.2141   -1.6227    2.6072 H   0  0  0  0  0  0  0  0  0  0  0  0
   -5.5563   -2.2186    1.6549 H   0  0  0  0  0  0  0  0  0  0  0  0
   -3.1565   -3.2813    1.5307 H   0  0  0  0  0  0  0  0  0  0  0  0
   -2.8947   -2.6708   -1.1993 H   0  0  0  0  0  0  0  0  0  0  0  0
   -1.7026   -2.4235    0.0930 H   0  0  0  0  0  0  0  0  0  0  0  0
   -5.4578    3.4522    0.1093 H   0  0  0  0  0  0  0  0  0  0  0  0
   -4.9638    3.8441   -1.5539 H   0  0  0  0  0  0  0  0  0  0  0  0
   -7.3452    2.3277   -0.8244 H   0  0  0  0  0  0  0  0  0  0  0  0
   -6.6506    2.6119   -2.4390 H   0  0  0  0  0  0  0  0  0  0  0  0
   -5.4404   -4.0256    0.7726 H   0  0  0  0  0  0  0  0  0  0  0  0
   -4.9630   -3.5529   -0.8763 H   0  0  0  0  0  0  0  0  0  0  0  0
   -3.9205   -4.6889   -0.0293 H   0  0  0  0  0  0  0  0  0  0  0  0
   -1.2111    3.1752    0.0435 H   0  0  0  0  0  0  0  0  0  0  0  0
    0.1435    2.5861   -0.9791 H   0  0  0  0  0  0  0  0  0  0  0  0
    0.4514    3.5311    0.5117 H   0  0  0  0  0  0  0  0  0  0  0  0
  1  2  1  0
  1  3  1  0
  1  5  1  0
  5  7  1  0
  7  9  1  0
  4 11  1  0
  9 11  1  0
 10 12  1  0
 11 13  1  0
 10 14  1  0
 13 15  1  0
  3 16  1  0
  7 16  1  0
 15 16  1  0
  2 17  1  0
  8 18  1  0
 17 18  1  0
  8 19  1  0
 19 20  1  0
  2 21  1  0
 20 21  1  0
  6 22  1  0
  8 22  1  0
 22 23  1  0
 10 24  1  0
 23 24  1  0
 24 25  1  0
 25 26  1  0
 26 27  1  0
 23 28  1  0
 27 28  1  0
 12 29  1  0
 14 30  1  0
 29 30  1  0
 27 31  1  0
 19 32  1  0
  1 33  1  0
  5 34  1  0
  6 35  1  0
  7 36  1  0
  9 37  1  0
  9 38  1  0
 11 39  1  0
 12 40  1  0
 13 41  1  0
 13 42  1  0
 14 43  1  0
 15 44  1  0
 15 45  1  0
 16 46  1  0
 17 47  1  0
 17 48  1  0
 18 49  1  0
 18 50  1  0
 19 51  1  1
 20 52  1  0
 20 53  1  0
 21 54  1  0
 21 55  1  0
 22 56  1  0
 23 57  1  0
 24 58  1  0
 25 59  1  0
 25 60  1  0
 26 61  1  0
 26 62  1  0
 27 63  1  0
 28 64  1  0
 28 65  1  0
 29 66  1  0
 29 67  1  0
 30 68  1  0
 30 69  1  0
 31 70  1  0
 31 71  1  0
 31 72  1  0
 32 73  1  0
 32 74  1  0
 32 75  1  0
M  END
>  <PDBID>  (1) 
4ZJ8

>  <PDB ID>  (1) 
4ZJ8

>  <Generic Name>  (1) 
Suvorexant

>  <Brand Name>  (1) 
Belsomra

>  <DrugBank ID>  (1) 
DB09034

>  <ATC Codes>  (1) 
nan

>  <Ligand ID>  (1) 
SUV

>  <Target Name>  (1) 
Orexin receptor type 1

>  <UniProt ID>  (1) 
O43613

>  <PDB ID.1>  (1) 
4ZJ8

>  <Seq. Identity>  (1) 
85%

$$$$
