PDB_DB09034_04
     RDKit          3D

 75 79  0  0  0  0  0  0  0  0999 V2000
    3.4486    0.2567   -0.6048 C   0  0  0  0  0  0  0  0  0  0  0  0
    2.0900    0.7254   -0.3622 N   0  0  0  0  0  0  0  0  0  0  0  0
    3.5390   -1.1049   -0.7042 O   0  0  0  0  0  0  0  0  0  0  0  0
    8.2684   -1.7474    0.1419 Cl  0  0  0  0  0  0  0  0  0  0  0  0
    4.3557    0.7339    0.4121 N   0  0  0  0  0  0  0  0  0  0  0  0
   -2.4108    2.6600    1.1565 O   0  0  0  0  0  0  0  0  0  0  0  0
    5.3910   -0.2789    0.4182 C   0  0  0  0  0  0  0  0  0  0  0  0
   -0.7880    1.0559    0.4776 N   0  0  0  0  0  0  0  0  0  0  0  0
    6.3902    0.0649   -0.6361 C   0  0  0  0  0  0  0  0  0  0  0  0
   -3.8217   -0.4406   -0.7785 N   0  0  0  0  0  0  0  0  0  0  0  0
    7.1922   -1.1222   -1.1097 C   0  0  0  0  0  0  0  0  0  0  0  0
   -4.9972   -0.4047   -1.5914 N   0  0  0  0  0  0  0  0  0  0  0  0
    6.2381   -2.1916   -1.6265 C   0  0  0  0  0  0  0  0  0  0  0  0
   -2.8777    0.0391   -1.6942 N   0  0  0  0  0  0  0  0  0  0  0  0
    5.4062   -2.6345   -0.4479 C   0  0  0  0  0  0  0  0  0  0  0  0
    4.5796   -1.5102    0.0992 C   0  0  0  0  0  0  0  0  0  0  0  0
    1.5269    0.1806    0.8237 C   0  0  0  0  0  0  0  0  0  0  0  0
    0.0484    0.0011    0.8727 C   0  0  0  0  0  0  0  0  0  0  0  0
   -0.2974    2.0355   -0.4172 C   0  0  1  0  0  0  0  0  0  0  0  0
    0.8992    2.8233    0.0508 C   0  0  0  0  0  0  0  0  0  0  0  0
    2.1962    2.1768   -0.3117 C   0  0  0  0  0  0  0  0  0  0  0  0
   -1.8998    1.3640    1.2525 C   0  0  0  0  0  0  0  0  0  0  0  0
   -3.0563    0.4559    1.4093 C   0  0  0  0  0  0  0  0  0  0  0  0
   -4.0786    0.5026    0.2851 C   0  0  0  0  0  0  0  0  0  0  0  0
   -5.3983   -0.0008    0.9122 C   0  0  0  0  0  0  0  0  0  0  0  0
   -5.1992   -1.4963    1.2356 C   0  0  0  0  0  0  0  0  0  0  0  0
   -4.1179   -1.5661    2.2518 C   0  0  0  0  0  0  0  0  0  0  0  0
   -2.8025   -0.9961    1.6683 C   0  0  0  0  0  0  0  0  0  0  0  0
   -4.9501    0.8626   -2.2780 C   0  0  0  0  0  0  0  0  0  0  0  0
   -3.5013    1.2074   -2.3315 C   0  0  0  0  0  0  0  0  0  0  0  0
   -3.8968   -2.9285    2.8345 C   0  0  0  0  0  0  0  0  0  0  0  0
    0.0787    1.3776   -1.7222 C   0  0  0  0  0  0  0  0  0  0  0  0
    3.7208    0.6798   -1.6109 H   0  0  0  0  0  0  0  0  0  0  0  0
    3.9084    0.7262    1.3328 H   0  0  0  0  0  0  0  0  0  0  0  0
   -1.7616    3.3558    1.3171 H   0  0  0  0  0  0  0  0  0  0  0  0
    5.8956   -0.3891    1.3956 H   0  0  0  0  0  0  0  0  0  0  0  0
    7.1144    0.7800   -0.1909 H   0  0  0  0  0  0  0  0  0  0  0  0
    5.9672    0.5633   -1.5336 H   0  0  0  0  0  0  0  0  0  0  0  0
    7.7805   -0.7825   -1.9971 H   0  0  0  0  0  0  0  0  0  0  0  0
   -4.8776   -1.1507   -2.2952 H   0  0  0  0  0  0  0  0  0  0  0  0
    6.8100   -3.0651   -1.9670 H   0  0  0  0  0  0  0  0  0  0  0  0
    5.6449   -1.7475   -2.4367 H   0  0  0  0  0  0  0  0  0  0  0  0
   -2.7953   -0.6884   -2.4354 H   0  0  0  0  0  0  0  0  0  0  0  0
    4.7586   -3.4884   -0.6552 H   0  0  0  0  0  0  0  0  0  0  0  0
    6.1565   -2.8825    0.3609 H   0  0  0  0  0  0  0  0  0  0  0  0
    4.1427   -1.8670    1.0631 H   0  0  0  0  0  0  0  0  0  0  0  0
    1.9722   -0.8580    0.9281 H   0  0  0  0  0  0  0  0  0  0  0  0
    1.9216    0.6879    1.7581 H   0  0  0  0  0  0  0  0  0  0  0  0
   -0.2156   -0.9731    0.4527 H   0  0  0  0  0  0  0  0  0  0  0  0
   -0.1493   -0.1285    2.0047 H   0  0  0  0  0  0  0  0  0  0  0  0
   -1.1607    2.7146   -0.6623 H   0  0  0  0  0  0  0  0  0  0  0  0
    0.8895    3.0524    1.1140 H   0  0  0  0  0  0  0  0  0  0  0  0
    0.8629    3.8118   -0.4835 H   0  0  0  0  0  0  0  0  0  0  0  0
    2.6427    2.5517   -1.2472 H   0  0  0  0  0  0  0  0  0  0  0  0
    2.9441    2.4525    0.4853 H   0  0  0  0  0  0  0  0  0  0  0  0
   -1.4545    1.4095    2.3416 H   0  0  0  0  0  0  0  0  0  0  0  0
   -3.6845    0.7845    2.3250 H   0  0  0  0  0  0  0  0  0  0  0  0
   -4.2364    1.5314   -0.0255 H   0  0  0  0  0  0  0  0  0  0  0  0
   -5.6345    0.5121    1.8430 H   0  0  0  0  0  0  0  0  0  0  0  0
   -6.2320    0.0525    0.2064 H   0  0  0  0  0  0  0  0  0  0  0  0
   -5.0179   -2.0751    0.3277 H   0  0  0  0  0  0  0  0  0  0  0  0
   -6.1518   -1.8292    1.6803 H   0  0  0  0  0  0  0  0  0  0  0  0
   -4.4029   -0.8936    3.1079 H   0  0  0  0  0  0  0  0  0  0  0  0
   -1.9962   -1.2381    2.3546 H   0  0  0  0  0  0  0  0  0  0  0  0
   -2.7100   -1.5384    0.6801 H   0  0  0  0  0  0  0  0  0  0  0  0
   -5.3552    0.8359   -3.3042 H   0  0  0  0  0  0  0  0  0  0  0  0
   -5.4646    1.6701   -1.7021 H   0  0  0  0  0  0  0  0  0  0  0  0
   -3.2368    2.0852   -1.7101 H   0  0  0  0  0  0  0  0  0  0  0  0
   -3.1043    1.3779   -3.3479 H   0  0  0  0  0  0  0  0  0  0  0  0
   -2.9002   -2.9376    3.3030 H   0  0  0  0  0  0  0  0  0  0  0  0
   -4.6293   -3.0624    3.6602 H   0  0  0  0  0  0  0  0  0  0  0  0
   -4.0590   -3.7594    2.1286 H   0  0  0  0  0  0  0  0  0  0  0  0
    0.1943    0.2835   -1.6600 H   0  0  0  0  0  0  0  0  0  0  0  0
    1.0348    1.7761   -2.1591 H   0  0  0  0  0  0  0  0  0  0  0  0
   -0.6861    1.5596   -2.5162 H   0  0  0  0  0  0  0  0  0  0  0  0
  1  2  1  0
  1  3  1  0
  1  5  1  0
  5  7  1  0
  7  9  1  0
  4 11  1  0
  9 11  1  0
 10 12  1  0
 11 13  1  0
 10 14  1  0
 13 15  1  0
  3 16  1  0
  7 16  1  0
 15 16  1  0
  2 17  1  0
  8 18  1  0
 17 18  1  0
  8 19  1  0
 19 20  1  0
  2 21  1  0
 20 21  1  0
  6 22  1  0
  8 22  1  0
 22 23  1  0
 10 24  1  0
 23 24  1  0
 24 25  1  0
 25 26  1  0
 26 27  1  0
 23 28  1  0
 27 28  1  0
 12 29  1  0
 14 30  1  0
 29 30  1  0
 27 31  1  0
 19 32  1  0
  1 33  1  0
  5 34  1  0
  6 35  1  0
  7 36  1  0
  9 37  1  0
  9 38  1  0
 11 39  1  0
 12 40  1  0
 13 41  1  0
 13 42  1  0
 14 43  1  0
 15 44  1  0
 15 45  1  0
 16 46  1  0
 17 47  1  0
 17 48  1  0
 18 49  1  0
 18 50  1  0
 19 51  1  6
 20 52  1  0
 20 53  1  0
 21 54  1  0
 21 55  1  0
 22 56  1  0
 23 57  1  0
 24 58  1  0
 25 59  1  0
 25 60  1  0
 26 61  1  0
 26 62  1  0
 27 63  1  0
 28 64  1  0
 28 65  1  0
 29 66  1  0
 29 67  1  0
 30 68  1  0
 30 69  1  0
 31 70  1  0
 31 71  1  0
 31 72  1  0
 32 73  1  0
 32 74  1  0
 32 75  1  0
M  END
>  <PDBID>  (1) 
4ZJ8

>  <PDB ID>  (1) 
4ZJ8

>  <Generic Name>  (1) 
Suvorexant

>  <Brand Name>  (1) 
Belsomra

>  <DrugBank ID>  (1) 
DB09034

>  <ATC Codes>  (1) 
nan

>  <Ligand ID>  (1) 
SUV

>  <Target Name>  (1) 
Orexin receptor type 1

>  <UniProt ID>  (1) 
O43613

>  <PDB ID.1>  (1) 
4ZJ8

>  <Seq. Identity>  (1) 
85%

$$$$
