PDB_DB00410_08
     RDKit          3D

 85 86  0  0  0  0  0  0  0  0999 V2000
    1.1993    1.4268   -0.1503 C   0  0  0  0  0  0  0  0  0  0  0  0
    0.3147    0.7374   -1.1274 C   0  0  0  0  0  0  0  0  0  0  0  0
    0.0749   -0.7094   -0.9057 C   0  0  0  0  0  0  0  0  0  0  0  0
   -0.5633   -1.0834    0.3821 C   0  0  0  0  0  0  0  0  0  0  0  0
   -1.9277   -0.4884    0.6211 C   0  0  1  0  0  0  0  0  0  0  0  0
   -2.8507   -0.9640   -0.4794 C   0  0  1  0  0  0  0  0  0  0  0  0
   -4.0626   -1.5723    0.2690 C   0  0  1  0  0  0  0  0  0  0  0  0
   -4.6145   -0.4668    1.0990 C   0  0  1  0  0  0  0  0  0  0  0  0
   -5.9580   -0.6069    1.6777 C   0  0  0  0  0  0  0  0  0  0  0  0
   -7.0844   -0.7092    0.7209 C   0  0  1  0  0  0  0  0  0  0  0  0
   -7.3403    0.4352   -0.1983 C   0  0  2  0  0  0  0  0  0  0  0  0
   -8.6753    0.7798   -0.7407 C   0  0  2  0  0  0  0  0  0  0  0  0
   -9.6908    1.1416    0.2789 C   0  0  2  0  0  0  0  0  0  0  0  0
  -10.0169    0.0793    1.2750 C   0  0  0  0  0  0  0  0  0  0  0  0
    1.3770   -1.4637   -1.0241 C   0  0  0  0  0  0  0  0  0  0  0  0
   -3.5717   -0.2189    2.2110 C   0  0  0  0  0  0  0  0  0  0  0  0
   11.1103   -0.0960    0.4696 C   0  0  0  0  0  0  0  0  0  0  0  0
   10.8785    0.9612    1.3729 O   0  0  0  0  0  0  0  0  0  0  0  0
   12.4871   -0.3656    0.4404 O   0  0  0  0  0  0  0  0  0  0  0  0
   10.6641    0.2929   -0.9138 C   0  0  0  0  0  0  0  0  0  0  0  0
    9.1972    0.6176   -0.8889 C   0  0  0  0  0  0  0  0  0  0  0  0
    8.4113   -0.5621   -0.4507 C   0  0  0  0  0  0  0  0  0  0  0  0
    6.9015   -0.2849   -0.4235 C   0  0  0  0  0  0  0  0  0  0  0  0
    6.6193    0.8329    0.5109 C   0  0  0  0  0  0  0  0  0  0  0  0
    5.1647    1.1832    0.6324 C   0  0  0  0  0  0  0  0  0  0  0  0
    4.3164    0.0557    1.1309 C   0  0  0  0  0  0  0  0  0  0  0  0
    2.8823    0.5642    1.2043 C   0  0  0  0  0  0  0  0  0  0  0  0
    2.4814    0.9471   -0.0490 O   0  0  0  0  0  0  0  0  0  0  0  0
    1.2055    2.8279   -0.4137 O   0  0  0  0  0  0  0  0  0  0  0  0
   -2.3667   -0.8340    1.8958 O   0  0  0  0  0  0  0  0  0  0  0  0
   -4.8908   -2.2768   -0.5354 O   0  0  0  0  0  0  0  0  0  0  0  0
   -3.3152    0.0767   -1.2681 O   0  0  0  0  0  0  0  0  0  0  0  0
   -6.7756   -0.7708   -0.6806 O   0  0  0  0  0  0  0  0  0  0  0  0
   -9.1569   -0.3720   -1.6266 C   0  0  0  0  0  0  0  0  0  0  0  0
  -10.8546    1.6591   -0.3202 O   0  0  0  0  0  0  0  0  0  0  0  0
    0.7396    1.3690    0.8643 H   0  0  0  0  0  0  0  0  0  0  0  0
    0.7175    0.8390   -2.1785 H   0  0  0  0  0  0  0  0  0  0  0  0
   -0.6437    1.3333   -1.1780 H   0  0  0  0  0  0  0  0  0  0  0  0
   -0.6044   -1.0553   -1.7228 H   0  0  0  0  0  0  0  0  0  0  0  0
    0.0779   -0.9920    1.2818 H   0  0  0  0  0  0  0  0  0  0  0  0
   -0.7525   -2.2004    0.3146 H   0  0  0  0  0  0  0  0  0  0  0  0
   -1.9183    0.6201    0.5814 H   0  0  0  0  0  0  0  0  0  0  0  0
   -2.4041   -1.7504   -1.1179 H   0  0  0  0  0  0  0  0  0  0  0  0
   -3.5293   -2.3179    0.9720 H   0  0  0  0  0  0  0  0  0  0  0  0
   -4.5364    0.4654    0.4347 H   0  0  0  0  0  0  0  0  0  0  0  0
   -6.1140    0.3007    2.3513 H   0  0  0  0  0  0  0  0  0  0  0  0
   -5.9296   -1.4605    2.4069 H   0  0  0  0  0  0  0  0  0  0  0  0
   -7.8776   -1.4205    1.0340 H   0  0  0  0  0  0  0  0  0  0  0  0
   -6.6008    1.2939   -0.1093 H   0  0  0  0  0  0  0  0  0  0  0  0
   -8.5451    1.6756   -1.4214 H   0  0  0  0  0  0  0  0  0  0  0  0
   -9.2670    2.0067    0.8641 H   0  0  0  0  0  0  0  0  0  0  0  0
  -10.1283   -0.9159    0.8247 H   0  0  0  0  0  0  0  0  0  0  0  0
  -11.0419    0.3172    1.7092 H   0  0  0  0  0  0  0  0  0  0  0  0
   -9.2847    0.0828    2.1012 H   0  0  0  0  0  0  0  0  0  0  0  0
    1.2296   -2.3549   -1.6695 H   0  0  0  0  0  0  0  0  0  0  0  0
    1.7578   -1.8112   -0.0450 H   0  0  0  0  0  0  0  0  0  0  0  0
    2.1060   -0.8080   -1.5357 H   0  0  0  0  0  0  0  0  0  0  0  0
   -3.4818    0.8576    2.4204 H   0  0  0  0  0  0  0  0  0  0  0  0
   -3.9424   -0.7040    3.1477 H   0  0  0  0  0  0  0  0  0  0  0  0
   10.6263   -1.0086    0.8307 H   0  0  0  0  0  0  0  0  0  0  0  0
   11.5250    0.9297    2.1375 H   0  0  0  0  0  0  0  0  0  0  0  0
   12.9191    0.0824    1.2353 H   0  0  0  0  0  0  0  0  0  0  0  0
   10.9176   -0.5142   -1.6321 H   0  0  0  0  0  0  0  0  0  0  0  0
   11.2184    1.2068   -1.2531 H   0  0  0  0  0  0  0  0  0  0  0  0
    8.8912    0.9227   -1.9144 H   0  0  0  0  0  0  0  0  0  0  0  0
    9.0902    1.5039   -0.2296 H   0  0  0  0  0  0  0  0  0  0  0  0
    8.5526   -1.3624   -1.2345 H   0  0  0  0  0  0  0  0  0  0  0  0
    8.6769   -1.0095    0.5041 H   0  0  0  0  0  0  0  0  0  0  0  0
    6.5439   -0.0143   -1.4418 H   0  0  0  0  0  0  0  0  0  0  0  0
    6.4245   -1.2404   -0.1709 H   0  0  0  0  0  0  0  0  0  0  0  0
    7.1059    1.7559    0.0768 H   0  0  0  0  0  0  0  0  0  0  0  0
    7.0693    0.6934    1.5083 H   0  0  0  0  0  0  0  0  0  0  0  0
    4.7375    1.5445   -0.3221 H   0  0  0  0  0  0  0  0  0  0  0  0
    5.0635    2.0176    1.3617 H   0  0  0  0  0  0  0  0  0  0  0  0
    4.5761   -0.2734    2.1592 H   0  0  0  0  0  0  0  0  0  0  0  0
    4.3461   -0.8019    0.4090 H   0  0  0  0  0  0  0  0  0  0  0  0
    2.9750    1.5082    1.8286 H   0  0  0  0  0  0  0  0  0  0  0  0
    2.2282   -0.1283    1.7411 H   0  0  0  0  0  0  0  0  0  0  0  0
    1.8599    2.9645   -1.1614 H   0  0  0  0  0  0  0  0  0  0  0  0
   -4.5026   -3.1805   -0.6840 H   0  0  0  0  0  0  0  0  0  0  0  0
   -3.0082    0.9729   -0.9686 H   0  0  0  0  0  0  0  0  0  0  0  0
  -10.1251   -0.1453   -2.0871 H   0  0  0  0  0  0  0  0  0  0  0  0
   -9.2455   -1.2850   -0.9820 H   0  0  0  0  0  0  0  0  0  0  0  0
   -8.3988   -0.5018   -2.4243 H   0  0  0  0  0  0  0  0  0  0  0  0
  -11.6629    1.2196   -0.0176 H   0  0  0  0  0  0  0  0  0  0  0  0
  1  2  1  0
  2  3  1  0
  3  4  1  0
  4  5  1  0
  5  6  1  0
  6  7  1  0
  7  8  1  0
  8  9  1  0
  9 10  1  0
 10 11  1  0
 11 12  1  0
 12 13  1  0
 13 14  1  0
  3 15  1  0
  8 16  1  0
 17 18  1  0
 17 19  1  0
 17 20  1  0
 20 21  1  0
 21 22  1  0
 22 23  1  0
 23 24  1  0
 24 25  1  0
 25 26  1  0
 26 27  1  0
  1 28  1  0
 27 28  1  0
  1 29  1  0
  5 30  1  0
 16 30  1  0
  7 31  1  0
  6 32  1  0
 10 33  1  0
 11 33  1  0
 12 34  1  0
 13 35  1  0
  1 36  1  0
  2 37  1  0
  2 38  1  0
  3 39  1  0
  4 40  1  0
  4 41  1  0
  5 42  1  1
  6 43  1  6
  7 44  1  1
  8 45  1  6
  9 46  1  0
  9 47  1  0
 10 48  1  1
 11 49  1  1
 12 50  1  6
 13 51  1  1
 14 52  1  0
 14 53  1  0
 14 54  1  0
 15 55  1  0
 15 56  1  0
 15 57  1  0
 16 58  1  0
 16 59  1  0
 17 60  1  0
 18 61  1  0
 19 62  1  0
 20 63  1  0
 20 64  1  0
 21 65  1  0
 21 66  1  0
 22 67  1  0
 22 68  1  0
 23 69  1  0
 23 70  1  0
 24 71  1  0
 24 72  1  0
 25 73  1  0
 25 74  1  0
 26 75  1  0
 26 76  1  0
 27 77  1  0
 27 78  1  0
 29 79  1  0
 31 80  1  0
 32 81  1  0
 34 82  1  0
 34 83  1  0
 34 84  1  0
 35 85  1  0
M  END
>  <PDBID>  (1) 
1FFY

>  <PDB ID>  (1) 
1FFY

>  <Generic Name>  (1) 
Mupirocin

>  <Brand Name>  (1) 
Bactroban#Bactroban Cream#Bactroban Nasal Ointment#Centany#Centany At#Mupirocin#Mupirocin 2%#Mupirocin Calcium#Taro-mupirocin#Bactroban Nasal#Plasimine#Spectroderm#T-Bact#Turixin

>  <DrugBank ID>  (1) 
DB00410

>  <ATC Codes>  (1) 
R01AX06#D06AX09

>  <Ligand ID>  (1) 
MRC

>  <Target Name>  (1) 
Isoleucine--tRNA ligase

>  <UniProt ID>  (1) 
P41972

>  <PDB ID.1>  (1) 
1FFY

>  <Seq. Identity>  (1) 
95%

$$$$
