PDB_DB00176_08
     RDKit          3D

 51 51  0  0  0  0  0  0  0  0999 V2000
    6.2473   -0.1274   -1.2311 C   0  0  0  0  0  0  0  0  0  0  0  0
    4.8879   -0.1563   -1.0373 O   0  0  0  0  0  0  0  0  0  0  0  0
    4.4811   -1.4796   -0.9090 C   0  0  0  0  0  0  0  0  0  0  0  0
    2.9729   -1.5565   -0.6916 C   0  0  0  0  0  0  0  0  0  0  0  0
    2.5611   -0.8278    0.5444 C   0  0  0  0  0  0  0  0  0  0  0  0
    1.0807   -0.9264    0.7625 C   0  0  0  0  0  0  0  0  0  0  0  0
    0.2814   -0.3432   -0.3453 C   0  0  0  0  0  0  0  0  0  0  0  0
    0.5577    1.0599   -0.5648 N   0  0  0  0  0  0  0  0  0  0  0  0
    0.3478    1.8553    0.4750 O   0  0  0  0  0  0  0  0  0  0  0  0
   -0.1411    3.0713    0.0021 C   0  0  0  0  0  0  0  0  0  0  0  0
   -0.3972    4.0152    1.1486 C   0  0  0  0  0  0  0  0  0  0  0  0
   -0.9039    5.2705    0.6368 N   0  0  0  0  0  0  0  0  0  0  0  0
   -1.1945   -0.5986   -0.2328 C   0  0  0  0  0  0  0  0  0  0  0  0
   -1.4886   -2.0842   -0.2388 C   0  0  0  0  0  0  0  0  0  0  0  0
   -2.9514   -2.3750   -0.3776 C   0  0  0  0  0  0  0  0  0  0  0  0
   -3.8483   -1.4869    0.4105 C   0  0  0  0  0  0  0  0  0  0  0  0
   -3.3238   -0.1654    0.7872 C   0  0  0  0  0  0  0  0  0  0  0  0
   -1.8307   -0.0916    1.0379 C   0  0  0  0  0  0  0  0  0  0  0  0
   -5.1304   -1.2712   -0.4091 C   0  0  0  0  0  0  0  0  0  0  0  0
   -6.0051   -0.4509    0.2748 F   0  0  0  0  0  0  0  0  0  0  0  0
   -4.8452   -0.7939   -1.6652 F   0  0  0  0  0  0  0  0  0  0  0  0
   -5.7506   -2.4965   -0.5663 F   0  0  0  0  0  0  0  0  0  0  0  0
    6.8364   -0.5745   -0.4084 H   0  0  0  0  0  0  0  0  0  0  0  0
    6.5009   -0.7112   -2.1525 H   0  0  0  0  0  0  0  0  0  0  0  0
    6.5902    0.9184   -1.3304 H   0  0  0  0  0  0  0  0  0  0  0  0
    4.7398   -2.0926   -1.7936 H   0  0  0  0  0  0  0  0  0  0  0  0
    4.9813   -1.9605   -0.0242 H   0  0  0  0  0  0  0  0  0  0  0  0
    2.6901   -2.6271   -0.6470 H   0  0  0  0  0  0  0  0  0  0  0  0
    2.5047   -1.1446   -1.6137 H   0  0  0  0  0  0  0  0  0  0  0  0
    3.1483   -1.1144    1.4382 H   0  0  0  0  0  0  0  0  0  0  0  0
    2.7649    0.2748    0.3865 H   0  0  0  0  0  0  0  0  0  0  0  0
    0.8404   -2.0198    0.8394 H   0  0  0  0  0  0  0  0  0  0  0  0
    0.8349   -0.5048    1.7586 H   0  0  0  0  0  0  0  0  0  0  0  0
    0.5876   -0.8564   -1.3030 H   0  0  0  0  0  0  0  0  0  0  0  0
    0.0242    1.3519   -1.4147 H   0  0  0  0  0  0  0  0  0  0  0  0
    0.5300    3.5681   -0.7104 H   0  0  0  0  0  0  0  0  0  0  0  0
   -1.1218    2.9174   -0.5210 H   0  0  0  0  0  0  0  0  0  0  0  0
    0.5660    4.2474    1.6554 H   0  0  0  0  0  0  0  0  0  0  0  0
   -1.1202    3.5812    1.8534 H   0  0  0  0  0  0  0  0  0  0  0  0
   -0.8160    5.2966   -0.4114 H   0  0  0  0  0  0  0  0  0  0  0  0
   -1.9284    5.3206    0.8366 H   0  0  0  0  0  0  0  0  0  0  0  0
   -1.6881   -0.0747   -1.0752 H   0  0  0  0  0  0  0  0  0  0  0  0
   -1.1191   -2.4947    0.7216 H   0  0  0  0  0  0  0  0  0  0  0  0
   -0.9007   -2.5399   -1.0571 H   0  0  0  0  0  0  0  0  0  0  0  0
   -3.1880   -2.3389   -1.4674 H   0  0  0  0  0  0  0  0  0  0  0  0
   -3.0998   -3.4366   -0.0793 H   0  0  0  0  0  0  0  0  0  0  0  0
   -4.1866   -2.0255    1.3268 H   0  0  0  0  0  0  0  0  0  0  0  0
   -3.5434    0.6468    0.0389 H   0  0  0  0  0  0  0  0  0  0  0  0
   -3.8072    0.2012    1.7334 H   0  0  0  0  0  0  0  0  0  0  0  0
   -1.5918    0.9299    1.3135 H   0  0  0  0  0  0  0  0  0  0  0  0
   -1.6355   -0.7789    1.8979 H   0  0  0  0  0  0  0  0  0  0  0  0
  1  2  1  0
  2  3  1  0
  3  4  1  0
  4  5  1  0
  5  6  1  0
  6  7  1  0
  7  8  1  0
  8  9  1  0
  9 10  1  0
 10 11  1  0
 11 12  1  0
  7 13  1  0
 13 14  1  0
 14 15  1  0
 15 16  1  0
 16 17  1  0
 13 18  1  0
 17 18  1  0
 16 19  1  0
 19 20  1  0
 19 21  1  0
 19 22  1  0
  1 23  1  0
  1 24  1  0
  1 25  1  0
  3 26  1  0
  3 27  1  0
  4 28  1  0
  4 29  1  0
  5 30  1  0
  5 31  1  0
  6 32  1  0
  6 33  1  0
  7 34  1  0
  8 35  1  0
 10 36  1  0
 10 37  1  0
 11 38  1  0
 11 39  1  0
 12 40  1  0
 12 41  1  0
 13 42  1  0
 14 43  1  0
 14 44  1  0
 15 45  1  0
 15 46  1  0
 16 47  1  0
 17 48  1  0
 17 49  1  0
 18 50  1  0
 18 51  1  0
M  END
>  <PDBID>  (1) 
6AWP

>  <PDB ID>  (1) 
6AWP

>  <Generic Name>  (1) 
Fluvoxamine

>  <Brand Name>  (1) 
Act Fluvoxamine#Apo-fluvoxamine Tablets#Ava-fluvoxamine#Bci Fluvoxamine Tablets#Dom-fluvoxamine#Fluvoxamine Maleate#Fluvoxamine Maleate Extended-release#Fluvoxamine Tablets#Fluvoxamine-100#Fluvoxamine-50#Gen-fluvoxamine 100mg#Gen-fluvoxamine 50mg#Luvox#Luvox CR#Novo-fluvoxamine#Nu-fluvoxamine 100 Mg Tab#Nu-fluvoxamine 50 Mg Tab#PHL-fluvoxamine#PMS-fluvoxamine#Ratio-fluvoxamine#Riva-fluvox#Riva-fluvox 100mg Tablets#Riva-fluvox 50mg Tablets#Sandoz Fluvoxamine#Dumirox#Faverin#Fevarin#Floxyfral#Maveral

>  <DrugBank ID>  (1) 
DB00176

>  <ATC Codes>  (1) 
N06AB08

>  <Ligand ID>  (1) 
FVX

>  <Target Name>  (1) 
Sodium-dependent serotonin transporter

>  <UniProt ID>  (1) 
P31645

>  <PDB ID.1>  (1) 
6AWP

>  <Seq. Identity>  (1) 
99%

$$$$
