PDB_DB06603_07
     RDKit          3D

134138  0  0  0  0  0  0  0  0999 V2000
    7.7864    0.8431    0.8294 O   0  0  0  0  0  0  0  0  0  0  0  0
    7.0284    1.1754   -0.2745 C   0  0  0  0  0  0  0  0  0  0  0  0
    7.9188    1.4993   -1.3628 N   0  0  0  0  0  0  0  0  0  0  0  0
    8.7139    2.5542   -1.0476 O   0  0  0  0  0  0  0  0  0  0  0  0
    6.1446    0.0103   -0.7335 C   0  0  0  0  0  0  0  0  0  0  0  0
    5.2022   -0.3830    0.3866 C   0  0  0  0  0  0  0  0  0  0  0  0
    4.2815   -1.5119    0.0338 C   0  0  0  0  0  0  0  0  0  0  0  0
    3.4218   -1.7676    1.2660 C   0  0  0  0  0  0  0  0  0  0  0  0
    2.5414   -0.5974    1.5399 C   0  0  0  0  0  0  0  0  0  0  0  0
    3.4243   -1.2656   -1.1411 C   0  0  0  0  0  0  0  0  0  0  0  0
    1.9480   -1.0783   -0.7874 C   0  0  0  0  0  0  0  0  0  0  0  0
    1.8115   -0.0919    0.2884 C   0  0  0  0  0  0  0  0  0  0  0  0
    0.4458    0.3050    0.7590 C   0  0  0  0  0  0  0  0  0  0  0  0
   -0.4985    0.7878   -0.1315 N   0  0  0  0  0  0  0  0  0  0  0  0
   -1.2220   -0.0058   -1.0158 C   0  0  0  0  0  0  0  0  0  0  0  0
   -2.2556   -0.9022   -0.3502 C   0  0  0  0  0  0  0  0  0  0  0  0
   -3.2830   -0.1328    0.4099 C   0  0  0  0  0  0  0  0  0  0  0  0
   -4.0769    0.8176   -0.4586 C   0  0  0  0  0  0  0  0  0  0  0  0
   -5.1794   -0.1268   -0.9623 C   0  0  0  0  0  0  0  0  0  0  0  0
   -5.5595   -0.8015    0.2391 N   0  0  0  0  0  0  0  0  0  0  0  0
   -4.3529   -0.9771    1.0295 C   0  0  0  0  0  0  0  0  0  0  0  0
   -4.0237   -2.4293    1.1462 C   0  0  0  0  0  0  0  0  0  0  0  0
   -6.2727    0.5812   -1.6782 C   0  0  0  0  0  0  0  0  0  0  0  0
   -6.5542    1.9651   -1.1744 C   0  0  0  0  0  0  0  0  0  0  0  0
   -6.1270    2.0939    0.2673 C   0  0  0  0  0  0  0  0  0  0  0  0
   -4.6542    1.8916    0.4524 C   0  0  0  0  0  0  0  0  0  0  0  0
    7.7864    0.8431    0.8294 O   0  0  0  0  0  0  0  0  0  0  0  0
    7.0284    1.1754   -0.2745 C   0  0  0  0  0  0  0  0  0  0  0  0
    7.9188    1.4993   -1.3628 N   0  0  0  0  0  0  0  0  0  0  0  0
    8.7139    2.5542   -1.0476 O   0  0  0  0  0  0  0  0  0  0  0  0
    6.1446    0.0103   -0.7335 C   0  0  0  0  0  0  0  0  0  0  0  0
    5.2022   -0.3830    0.3866 C   0  0  0  0  0  0  0  0  0  0  0  0
    4.2815   -1.5119    0.0338 C   0  0  0  0  0  0  0  0  0  0  0  0
    3.4218   -1.7676    1.2660 C   0  0  0  0  0  0  0  0  0  0  0  0
    2.5414   -0.5974    1.5399 C   0  0  0  0  0  0  0  0  0  0  0  0
    3.4243   -1.2656   -1.1411 C   0  0  0  0  0  0  0  0  0  0  0  0
    1.9480   -1.0783   -0.7874 C   0  0  0  0  0  0  0  0  0  0  0  0
    1.8115   -0.0919    0.2884 C   0  0  0  0  0  0  0  0  0  0  0  0
    0.4458    0.3050    0.7590 C   0  0  0  0  0  0  0  0  0  0  0  0
   -0.4985    0.7878   -0.1315 N   0  0  0  0  0  0  0  0  0  0  0  0
   -1.2220   -0.0058   -1.0158 C   0  0  0  0  0  0  0  0  0  0  0  0
   -2.2556   -0.9022   -0.3502 C   0  0  0  0  0  0  0  0  0  0  0  0
   -3.2830   -0.1328    0.4099 C   0  0  0  0  0  0  0  0  0  0  0  0
   -4.0769    0.8176   -0.4586 C   0  0  0  0  0  0  0  0  0  0  0  0
   -5.1794   -0.1268   -0.9623 C   0  0  0  0  0  0  0  0  0  0  0  0
   -5.5595   -0.8015    0.2391 N   0  0  0  0  0  0  0  0  0  0  0  0
   -4.3529   -0.9771    1.0295 C   0  0  0  0  0  0  0  0  0  0  0  0
   -4.0237   -2.4293    1.1462 C   0  0  0  0  0  0  0  0  0  0  0  0
   -6.2727    0.5812   -1.6782 C   0  0  0  0  0  0  0  0  0  0  0  0
   -6.5542    1.9651   -1.1744 C   0  0  0  0  0  0  0  0  0  0  0  0
   -6.1270    2.0939    0.2673 C   0  0  0  0  0  0  0  0  0  0  0  0
   -4.6542    1.8916    0.4524 C   0  0  0  0  0  0  0  0  0  0  0  0
    8.1541   -0.0796    0.8047 H   0  0  0  0  0  0  0  0  0  0  0  0
    6.4113    2.0537    0.0213 H   0  0  0  0  0  0  0  0  0  0  0  0
    7.3580    1.7000   -2.2227 H   0  0  0  0  0  0  0  0  0  0  0  0
    8.5396    2.8449   -0.1052 H   0  0  0  0  0  0  0  0  0  0  0  0
    6.8372   -0.8265   -0.9539 H   0  0  0  0  0  0  0  0  0  0  0  0
    5.6405    0.2855   -1.6612 H   0  0  0  0  0  0  0  0  0  0  0  0
    5.8389   -0.7401    1.2499 H   0  0  0  0  0  0  0  0  0  0  0  0
    4.6561    0.4972    0.7481 H   0  0  0  0  0  0  0  0  0  0  0  0
    4.8613   -2.4441   -0.1284 H   0  0  0  0  0  0  0  0  0  0  0  0
    4.1437   -1.8487    2.1236 H   0  0  0  0  0  0  0  0  0  0  0  0
    2.8798   -2.7289    1.2232 H   0  0  0  0  0  0  0  0  0  0  0  0
    3.0701    0.2505    1.9685 H   0  0  0  0  0  0  0  0  0  0  0  0
    1.7959   -0.9336    2.3085 H   0  0  0  0  0  0  0  0  0  0  0  0
    3.7269   -0.3935   -1.7533 H   0  0  0  0  0  0  0  0  0  0  0  0
    3.4189   -2.1378   -1.8525 H   0  0  0  0  0  0  0  0  0  0  0  0
    1.4576   -2.0487   -0.6220 H   0  0  0  0  0  0  0  0  0  0  0  0
    1.5313   -0.6823   -1.7707 H   0  0  0  0  0  0  0  0  0  0  0  0
    2.3302    0.8565   -0.0662 H   0  0  0  0  0  0  0  0  0  0  0  0
    0.6520    1.1369    1.5252 H   0  0  0  0  0  0  0  0  0  0  0  0
    0.0401   -0.5047    1.4504 H   0  0  0  0  0  0  0  0  0  0  0  0
   -0.8651    1.7500    0.0438 H   0  0  0  0  0  0  0  0  0  0  0  0
   -0.5976   -0.6909   -1.5967 H   0  0  0  0  0  0  0  0  0  0  0  0
   -1.6942    0.6653   -1.7947 H   0  0  0  0  0  0  0  0  0  0  0  0
   -2.7724   -1.4396   -1.1725 H   0  0  0  0  0  0  0  0  0  0  0  0
   -1.7282   -1.6576    0.2510 H   0  0  0  0  0  0  0  0  0  0  0  0
   -2.8513    0.4911    1.2219 H   0  0  0  0  0  0  0  0  0  0  0  0
   -3.5216    1.2438   -1.2952 H   0  0  0  0  0  0  0  0  0  0  0  0
   -4.6689   -0.8403   -1.6472 H   0  0  0  0  0  0  0  0  0  0  0  0
   -6.0861   -1.6929    0.0781 H   0  0  0  0  0  0  0  0  0  0  0  0
   -4.6290   -0.6320    2.0642 H   0  0  0  0  0  0  0  0  0  0  0  0
   -4.7118   -2.8784    1.9215 H   0  0  0  0  0  0  0  0  0  0  0  0
   -4.2897   -2.9933    0.2077 H   0  0  0  0  0  0  0  0  0  0  0  0
   -3.0065   -2.6418    1.5032 H   0  0  0  0  0  0  0  0  0  0  0  0
   -7.1751   -0.0703   -1.6698 H   0  0  0  0  0  0  0  0  0  0  0  0
   -5.9762    0.6691   -2.7643 H   0  0  0  0  0  0  0  0  0  0  0  0
   -6.0470    2.7513   -1.7704 H   0  0  0  0  0  0  0  0  0  0  0  0
   -7.6444    2.1164   -1.2097 H   0  0  0  0  0  0  0  0  0  0  0  0
   -6.3517    3.1400    0.5809 H   0  0  0  0  0  0  0  0  0  0  0  0
   -6.7411    1.4521    0.9280 H   0  0  0  0  0  0  0  0  0  0  0  0
   -4.1426    2.8380    0.1856 H   0  0  0  0  0  0  0  0  0  0  0  0
   -4.4519    1.7098    1.5174 H   0  0  0  0  0  0  0  0  0  0  0  0
    8.1541   -0.0796    0.8047 H   0  0  0  0  0  0  0  0  0  0  0  0
    6.4113    2.0537    0.0213 H   0  0  0  0  0  0  0  0  0  0  0  0
    7.3580    1.7000   -2.2227 H   0  0  0  0  0  0  0  0  0  0  0  0
    8.5396    2.8449   -0.1052 H   0  0  0  0  0  0  0  0  0  0  0  0
    6.8372   -0.8265   -0.9539 H   0  0  0  0  0  0  0  0  0  0  0  0
    5.6405    0.2855   -1.6612 H   0  0  0  0  0  0  0  0  0  0  0  0
    5.8389   -0.7401    1.2499 H   0  0  0  0  0  0  0  0  0  0  0  0
    4.6561    0.4972    0.7481 H   0  0  0  0  0  0  0  0  0  0  0  0
    4.8613   -2.4441   -0.1284 H   0  0  0  0  0  0  0  0  0  0  0  0
    4.1437   -1.8487    2.1236 H   0  0  0  0  0  0  0  0  0  0  0  0
    2.8798   -2.7289    1.2232 H   0  0  0  0  0  0  0  0  0  0  0  0
    3.0701    0.2505    1.9685 H   0  0  0  0  0  0  0  0  0  0  0  0
    1.7959   -0.9336    2.3085 H   0  0  0  0  0  0  0  0  0  0  0  0
    3.7269   -0.3935   -1.7533 H   0  0  0  0  0  0  0  0  0  0  0  0
    3.4189   -2.1378   -1.8525 H   0  0  0  0  0  0  0  0  0  0  0  0
    1.4576   -2.0487   -0.6220 H   0  0  0  0  0  0  0  0  0  0  0  0
    1.5313   -0.6823   -1.7707 H   0  0  0  0  0  0  0  0  0  0  0  0
    2.3302    0.8565   -0.0662 H   0  0  0  0  0  0  0  0  0  0  0  0
    0.6520    1.1369    1.5252 H   0  0  0  0  0  0  0  0  0  0  0  0
    0.0401   -0.5047    1.4504 H   0  0  0  0  0  0  0  0  0  0  0  0
   -0.8651    1.7500    0.0438 H   0  0  0  0  0  0  0  0  0  0  0  0
   -0.5976   -0.6909   -1.5967 H   0  0  0  0  0  0  0  0  0  0  0  0
   -1.6942    0.6653   -1.7947 H   0  0  0  0  0  0  0  0  0  0  0  0
   -2.7724   -1.4396   -1.1725 H   0  0  0  0  0  0  0  0  0  0  0  0
   -1.7282   -1.6576    0.2510 H   0  0  0  0  0  0  0  0  0  0  0  0
   -2.8513    0.4911    1.2219 H   0  0  0  0  0  0  0  0  0  0  0  0
   -3.5216    1.2438   -1.2952 H   0  0  0  0  0  0  0  0  0  0  0  0
   -4.6689   -0.8403   -1.6472 H   0  0  0  0  0  0  0  0  0  0  0  0
   -6.0861   -1.6929    0.0781 H   0  0  0  0  0  0  0  0  0  0  0  0
   -4.6290   -0.6320    2.0642 H   0  0  0  0  0  0  0  0  0  0  0  0
   -4.7118   -2.8784    1.9215 H   0  0  0  0  0  0  0  0  0  0  0  0
   -4.2897   -2.9933    0.2077 H   0  0  0  0  0  0  0  0  0  0  0  0
   -3.0065   -2.6418    1.5032 H   0  0  0  0  0  0  0  0  0  0  0  0
   -7.1751   -0.0703   -1.6698 H   0  0  0  0  0  0  0  0  0  0  0  0
   -5.9762    0.6691   -2.7643 H   0  0  0  0  0  0  0  0  0  0  0  0
   -6.0470    2.7513   -1.7704 H   0  0  0  0  0  0  0  0  0  0  0  0
   -7.6444    2.1164   -1.2097 H   0  0  0  0  0  0  0  0  0  0  0  0
   -6.3517    3.1400    0.5809 H   0  0  0  0  0  0  0  0  0  0  0  0
   -6.7411    1.4521    0.9280 H   0  0  0  0  0  0  0  0  0  0  0  0
   -4.1426    2.8380    0.1856 H   0  0  0  0  0  0  0  0  0  0  0  0
   -4.4519    1.7098    1.5174 H   0  0  0  0  0  0  0  0  0  0  0  0
  1  2  1  0
  2  3  1  0
  4  3  1  0
  2  5  1  0
  5  6  1  0
  6  7  1  0
  7  8  1  0
  8  9  1  0
  7 10  1  0
 10 11  1  0
  9 12  1  0
 11 12  1  0
 12 13  1  0
 13 14  1  0
 14 15  1  0
 15 16  1  0
 16 17  1  0
 17 18  1  0
 18 19  1  0
 19 20  1  0
 17 21  1  0
 20 21  1  0
 21 22  1  0
 19 23  1  0
 23 24  1  0
 24 25  1  0
 18 26  1  0
 25 26  1  0
 27 28  1  0
 28 29  1  0
 30 29  1  0
 28 31  1  0
 31 32  1  0
 32 33  1  0
 33 34  1  0
 34 35  1  0
 33 36  1  0
 36 37  1  0
 35 38  1  0
 37 38  1  0
 38 39  1  0
 39 40  1  0
 40 41  1  0
 41 42  1  0
 42 43  1  0
 43 44  1  0
 44 45  1  0
 45 46  1  0
 43 47  1  0
 46 47  1  0
 47 48  1  0
 45 49  1  0
 49 50  1  0
 50 51  1  0
 44 52  1  0
 51 52  1  0
  1 53  1  0
  2 54  1  0
  3 55  1  0
  4 56  1  0
  5 57  1  0
  5 58  1  0
  6 59  1  0
  6 60  1  0
  7 61  1  0
  8 62  1  0
  8 63  1  0
  9 64  1  0
  9 65  1  0
 10 66  1  0
 10 67  1  0
 11 68  1  0
 11 69  1  0
 12 70  1  0
 13 71  1  0
 13 72  1  0
 14 73  1  0
 15 74  1  0
 15 75  1  0
 16 76  1  0
 16 77  1  0
 17 78  1  0
 18 79  1  0
 19 80  1  0
 20 81  1  0
 21 82  1  0
 22 83  1  0
 22 84  1  0
 22 85  1  0
 23 86  1  0
 23 87  1  0
 24 88  1  0
 24 89  1  0
 25 90  1  0
 25 91  1  0
 26 92  1  0
 26 93  1  0
 27 94  1  0
 28 95  1  0
 29 96  1  0
 30 97  1  0
 31 98  1  0
 31 99  1  0
 32100  1  0
 32101  1  0
 33102  1  0
 34103  1  0
 34104  1  0
 35105  1  0
 35106  1  0
 36107  1  0
 36108  1  0
 37109  1  0
 37110  1  0
 38111  1  0
 39112  1  0
 39113  1  0
 40114  1  0
 41115  1  0
 41116  1  0
 42117  1  0
 42118  1  0
 43119  1  0
 44120  1  0
 45121  1  0
 46122  1  0
 47123  1  0
 48124  1  0
 48125  1  0
 48126  1  0
 49127  1  0
 49128  1  0
 50129  1  0
 50130  1  0
 51131  1  0
 51132  1  0
 52133  1  0
 52134  1  0
M  END
>  <PDBID>  (1) 
5EF8

>  <PDB ID>  (1) 
5EF8

>  <Generic Name>  (1) 
Panobinostat

>  <Brand Name>  (1) 
Farydak

>  <DrugBank ID>  (1) 
DB06603

>  <ATC Codes>  (1) 
L01XX42

>  <Ligand ID>  (1) 
LBH

>  <Target Name>  (1) 
Histone deacetylase 9

>  <UniProt ID>  (1) 
Q9UKV0

>  <PDB ID.1>  (1) 
5EF8

>  <Seq. Identity>  (1) 
46%

$$$$
