PDB_DB08901_09
     RDKit          3D

184192  0  0  0  0  0  0  0  0999 V2000
   -7.2322    0.0042   -2.2749 N   0  0  0  0  0  0  0  0  0  0  0  0
    7.3390   -0.7069   -0.3190 N   0  0  0  0  0  0  0  0  0  0  0  0
   -3.8928    0.6590    0.2956 C   0  0  0  0  0  0  0  0  0  0  0  0
   -3.0446    0.4099    1.4783 C   0  0  0  0  0  0  0  0  0  0  0  0
   -3.4535   -0.6578    2.4226 C   0  0  0  0  0  0  0  0  0  0  0  0
   -3.4969   -2.0289    1.7719 C   0  0  0  0  0  0  0  0  0  0  0  0
   -2.0542   -2.3956    1.4821 C   0  0  0  0  0  0  0  0  0  0  0  0
   -1.6556    0.0441    0.9560 C   0  0  0  0  0  0  0  0  0  0  0  0
    2.1379   -0.6688   -0.2040 C   0  0  0  0  0  0  0  0  0  0  0  0
    3.9731    0.6778   -1.2786 C   0  0  0  0  0  0  0  0  0  0  0  0
    4.5209   -1.4455   -0.0823 C   0  0  0  0  0  0  0  0  0  0  0  0
    6.3187   -0.0040   -1.0837 C   0  0  0  0  0  0  0  0  0  0  0  0
    7.5493    0.0190    0.8954 C   0  0  0  0  0  0  0  0  0  0  0  0
    9.0147    0.2601    1.1874 C   0  0  0  0  0  0  0  0  0  0  0  0
    8.5145   -0.8071   -1.1245 C   0  0  0  0  0  0  0  0  0  0  0  0
   -9.2657    1.3935   -2.2652 C   0  0  0  0  0  0  0  0  0  0  0  0
   -9.8474    2.1315   -1.0721 C   0  0  0  0  0  0  0  0  0  0  0  0
   -9.4512    1.3353    0.1460 C   0  0  0  0  0  0  0  0  0  0  0  0
   -8.0277    1.0397    0.1925 N   0  0  0  0  0  0  0  0  0  0  0  0
   -7.3034    1.6946   -0.7902 N   0  0  0  0  0  0  0  0  0  0  0  0
   -7.7839    1.3324   -2.0950 C   0  0  0  0  0  0  0  0  0  0  0  0
   -5.9134    0.0558   -1.6473 C   0  0  0  0  0  0  0  0  0  0  0  0
   -5.9401    1.2857   -0.8086 C   0  0  0  0  0  0  0  0  0  0  0  0
   -5.3202    1.0723    0.5624 C   0  0  0  0  0  0  0  0  0  0  0  0
   -1.1147   -1.2230    1.5308 C   0  0  0  0  0  0  0  0  0  0  0  0
   -4.6678   -0.4128    3.2405 C   0  0  0  0  0  0  0  0  0  0  0  0
    0.1028   -1.5908    0.6691 C   0  0  0  0  0  0  0  0  0  0  0  0
    0.6466   -2.7257    1.2535 O   0  0  0  0  0  0  0  0  0  0  0  0
    0.9652   -0.4553    0.6260 N   0  0  0  0  0  0  0  0  0  0  0  0
    2.6445    0.7128   -0.5794 C   0  0  0  0  0  0  0  0  0  0  0  0
    4.9816   -0.0687   -0.4313 C   0  0  0  0  0  0  0  0  0  0  0  0
    3.1829   -1.3583    0.6082 C   0  0  0  0  0  0  0  0  0  0  0  0
    4.4962   -2.3789   -1.2598 C   0  0  0  0  0  0  0  0  0  0  0  0
    4.0532   -3.6225   -0.8085 F   0  0  0  0  0  0  0  0  0  0  0  0
    3.6580   -2.0035   -2.2628 F   0  0  0  0  0  0  0  0  0  0  0  0
    5.7537   -2.5710   -1.7595 F   0  0  0  0  0  0  0  0  0  0  0  0
    9.2131    0.5252   -1.1882 C   0  0  0  0  0  0  0  0  0  0  0  0
    9.5592    2.4101    0.2617 C   0  0  0  0  0  0  0  0  0  0  0  0
    9.6638    0.9754    0.1088 N   0  0  0  0  0  0  0  0  0  0  0  0
   -7.6554    0.1410   -2.1397 N   0  0  0  0  0  0  0  0  0  0  0  0
    7.0855   -0.6930   -0.3131 N   0  0  0  0  0  0  0  0  0  0  0  0
   -4.8275   -0.9126    0.9333 C   0  0  0  0  0  0  0  0  0  0  0  0
   -3.4990   -1.0444    1.5963 C   0  0  0  0  0  0  0  0  0  0  0  0
   -3.1810   -2.4165    2.0700 C   0  0  0  0  0  0  0  0  0  0  0  0
   -1.8751   -2.9519    1.5383 C   0  0  0  0  0  0  0  0  0  0  0  0
   -0.6992   -2.0408    1.7918 C   0  0  0  0  0  0  0  0  0  0  0  0
   -2.3334   -0.5644    0.7174 C   0  0  0  0  0  0  0  0  0  0  0  0
    1.9371   -0.2583   -0.3682 C   0  0  0  0  0  0  0  0  0  0  0  0
    3.8441    1.0109   -1.1920 C   0  0  0  0  0  0  0  0  0  0  0  0
    4.1997   -1.2281   -0.1360 C   0  0  0  0  0  0  0  0  0  0  0  0
    6.1217    0.1272   -1.0234 C   0  0  0  0  0  0  0  0  0  0  0  0
    7.4317   -0.1627    0.9653 C   0  0  0  0  0  0  0  0  0  0  0  0
    8.8597    0.2767    1.1174 C   0  0  0  0  0  0  0  0  0  0  0  0
    8.2739   -0.8133   -1.1210 C   0  0  0  0  0  0  0  0  0  0  0  0
   -9.2392    1.7379   -1.1726 C   0  0  0  0  0  0  0  0  0  0  0  0
   -9.2900    3.2380   -0.9712 C   0  0  0  0  0  0  0  0  0  0  0  0
   -8.1025    3.7608   -0.2270 C   0  0  0  0  0  0  0  0  0  0  0  0
   -7.1644    2.7708    0.1756 N   0  0  0  0  0  0  0  0  0  0  0  0
   -6.9381    1.7412   -0.6616 N   0  0  0  0  0  0  0  0  0  0  0  0
   -7.8139    1.4879   -1.7258 C   0  0  0  0  0  0  0  0  0  0  0  0
   -6.5031   -0.3517   -1.4131 C   0  0  0  0  0  0  0  0  0  0  0  0
   -6.4580    0.5243   -0.1606 C   0  0  0  0  0  0  0  0  0  0  0  0
   -5.1056    0.5123    0.4696 C   0  0  0  0  0  0  0  0  0  0  0  0
   -1.0970   -0.6220    1.5828 C   0  0  0  0  0  0  0  0  0  0  0  0
   -4.2522   -3.4301    1.7321 C   0  0  0  0  0  0  0  0  0  0  0  0
    0.0323    0.2564    1.0726 C   0  0  1  0  0  0  0  0  0  0  0  0
    1.0222    0.1992    2.0653 O   0  0  0  0  0  0  0  0  0  0  0  0
    0.5440   -0.2870   -0.1287 N   0  0  0  0  0  0  0  0  0  0  0  0
    2.5079    1.1447   -0.4332 C   0  0  0  0  0  0  0  0  0  0  0  0
    4.7784    0.1225   -0.3917 C   0  0  0  0  0  0  0  0  0  0  0  0
    2.8209   -1.1174    0.4483 C   0  0  0  0  0  0  0  0  0  0  0  0
    4.2748   -2.1981   -1.2563 C   0  0  0  0  0  0  0  0  0  0  0  0
    3.6785   -3.3943   -0.8318 F   0  0  0  0  0  0  0  0  0  0  0  0
    5.6112   -2.5746   -1.4944 F   0  0  0  0  0  0  0  0  0  0  0  0
    3.6873   -1.8351   -2.4230 F   0  0  0  0  0  0  0  0  0  0  0  0
    8.9502    0.5124   -1.2888 C   0  0  0  0  0  0  0  0  0  0  0  0
    9.3951    2.4133    0.1205 C   0  0  0  0  0  0  0  0  0  0  0  0
    9.3682    0.9901   -0.0097 N   0  0  0  0  0  0  0  0  0  0  0  0
   -7.8456   -0.7357   -1.8695 H   0  0  0  0  0  0  0  0  0  0  0  0
   -3.4066    1.5014   -0.2861 H   0  0  0  0  0  0  0  0  0  0  0  0
   -3.8576   -0.1958   -0.4344 H   0  0  0  0  0  0  0  0  0  0  0  0
   -2.9727    1.3604    2.0825 H   0  0  0  0  0  0  0  0  0  0  0  0
   -2.5889   -0.7432    3.1643 H   0  0  0  0  0  0  0  0  0  0  0  0
   -3.9668   -2.7146    2.4885 H   0  0  0  0  0  0  0  0  0  0  0  0
   -4.0523   -2.0565    0.8336 H   0  0  0  0  0  0  0  0  0  0  0  0
   -1.9512   -2.9343    0.4953 H   0  0  0  0  0  0  0  0  0  0  0  0
   -1.7249   -3.1089    2.2910 H   0  0  0  0  0  0  0  0  0  0  0  0
   -0.9615    0.8639    1.1684 H   0  0  0  0  0  0  0  0  0  0  0  0
   -1.6545   -0.0585   -0.1668 H   0  0  0  0  0  0  0  0  0  0  0  0
    1.8465   -1.1939   -1.1118 H   0  0  0  0  0  0  0  0  0  0  0  0
    3.8844    0.2798   -2.3014 H   0  0  0  0  0  0  0  0  0  0  0  0
    4.3188    1.7249   -1.3762 H   0  0  0  0  0  0  0  0  0  0  0  0
    5.2448   -1.8713    0.6513 H   0  0  0  0  0  0  0  0  0  0  0  0
    6.6422    1.0588   -1.1123 H   0  0  0  0  0  0  0  0  0  0  0  0
    6.2670   -0.3501   -2.1391 H   0  0  0  0  0  0  0  0  0  0  0  0
    7.1579   -0.5913    1.7353 H   0  0  0  0  0  0  0  0  0  0  0  0
    6.9831    0.9774    0.9321 H   0  0  0  0  0  0  0  0  0  0  0  0
    9.5566   -0.6676    1.3625 H   0  0  0  0  0  0  0  0  0  0  0  0
    9.0645    0.9003    2.0848 H   0  0  0  0  0  0  0  0  0  0  0  0
    8.2040   -1.0776   -2.1495 H   0  0  0  0  0  0  0  0  0  0  0  0
    9.2615   -1.5351   -0.7130 H   0  0  0  0  0  0  0  0  0  0  0  0
   -9.5089    1.9598   -3.1875 H   0  0  0  0  0  0  0  0  0  0  0  0
   -9.6523    0.3567   -2.3492 H   0  0  0  0  0  0  0  0  0  0  0  0
  -10.9357    2.1626   -1.1636 H   0  0  0  0  0  0  0  0  0  0  0  0
   -9.3746    3.1444   -1.0902 H   0  0  0  0  0  0  0  0  0  0  0  0
  -10.0753    0.4198    0.1633 H   0  0  0  0  0  0  0  0  0  0  0  0
   -9.7807    1.9300    1.0326 H   0  0  0  0  0  0  0  0  0  0  0  0
   -7.6577    1.2494    1.1601 H   0  0  0  0  0  0  0  0  0  0  0  0
   -7.2641    2.0213   -2.8207 H   0  0  0  0  0  0  0  0  0  0  0  0
   -5.8129   -0.8457   -1.0030 H   0  0  0  0  0  0  0  0  0  0  0  0
   -5.1186    0.0852   -2.4354 H   0  0  0  0  0  0  0  0  0  0  0  0
   -5.3740    2.0710   -1.3688 H   0  0  0  0  0  0  0  0  0  0  0  0
   -5.3381    2.0446    1.0936 H   0  0  0  0  0  0  0  0  0  0  0  0
   -5.8742    0.3457    1.1545 H   0  0  0  0  0  0  0  0  0  0  0  0
   -0.6869   -1.0573    2.5621 H   0  0  0  0  0  0  0  0  0  0  0  0
   -5.5258   -1.0747    2.9871 H   0  0  0  0  0  0  0  0  0  0  0  0
   -4.9097    0.6551    3.2996 H   0  0  0  0  0  0  0  0  0  0  0  0
   -4.4332   -0.7040    4.3118 H   0  0  0  0  0  0  0  0  0  0  0  0
   -0.2753   -1.8020   -0.3525 H   0  0  0  0  0  0  0  0  0  0  0  0
    0.8333   -2.4873    2.2154 H   0  0  0  0  0  0  0  0  0  0  0  0
    1.1655   -0.0162    1.5309 H   0  0  0  0  0  0  0  0  0  0  0  0
    2.7189    1.3796    0.2878 H   0  0  0  0  0  0  0  0  0  0  0  0
    1.9021    1.1283   -1.3112 H   0  0  0  0  0  0  0  0  0  0  0  0
    5.0391    0.4991    0.5425 H   0  0  0  0  0  0  0  0  0  0  0  0
    2.9151   -2.4095    0.8799 H   0  0  0  0  0  0  0  0  0  0  0  0
    3.3135   -0.7924    1.5546 H   0  0  0  0  0  0  0  0  0  0  0  0
   10.1296    0.3618   -1.8056 H   0  0  0  0  0  0  0  0  0  0  0  0
    8.6110    1.2964   -1.7324 H   0  0  0  0  0  0  0  0  0  0  0  0
    9.9645    2.6653    1.2642 H   0  0  0  0  0  0  0  0  0  0  0  0
   10.1986    2.8678   -0.5216 H   0  0  0  0  0  0  0  0  0  0  0  0
    8.5346    2.7994    0.1140 H   0  0  0  0  0  0  0  0  0  0  0  0
   -8.5285   -0.3936   -1.8372 H   0  0  0  0  0  0  0  0  0  0  0  0
   -4.8104   -1.5495   -0.0013 H   0  0  0  0  0  0  0  0  0  0  0  0
   -5.6480   -1.3029    1.5337 H   0  0  0  0  0  0  0  0  0  0  0  0
   -3.4996   -0.3220    2.4650 H   0  0  0  0  0  0  0  0  0  0  0  0
   -3.0925   -2.4104    3.1828 H   0  0  0  0  0  0  0  0  0  0  0  0
   -1.6586   -3.8952    2.0834 H   0  0  0  0  0  0  0  0  0  0  0  0
   -1.9934   -3.2177    0.4645 H   0  0  0  0  0  0  0  0  0  0  0  0
    0.0777   -2.3316    1.0233 H   0  0  0  0  0  0  0  0  0  0  0  0
   -0.2190   -2.2496    2.7783 H   0  0  0  0  0  0  0  0  0  0  0  0
   -2.4932    0.5237    0.4792 H   0  0  0  0  0  0  0  0  0  0  0  0
   -2.2619   -1.1965   -0.1829 H   0  0  0  0  0  0  0  0  0  0  0  0
    2.0675   -0.6333   -1.4474 H   0  0  0  0  0  0  0  0  0  0  0  0
    3.6733    0.5702   -2.1893 H   0  0  0  0  0  0  0  0  0  0  0  0
    4.2970    2.0172   -1.2399 H   0  0  0  0  0  0  0  0  0  0  0  0
    4.8321   -1.6737    0.7017 H   0  0  0  0  0  0  0  0  0  0  0  0
    6.5103    1.1903   -0.9562 H   0  0  0  0  0  0  0  0  0  0  0  0
    6.1088   -0.0871   -2.1110 H   0  0  0  0  0  0  0  0  0  0  0  0
    7.2665   -0.9914    1.7162 H   0  0  0  0  0  0  0  0  0  0  0  0
    6.7463    0.6557    1.3194 H   0  0  0  0  0  0  0  0  0  0  0  0
    9.5569   -0.5130    1.4133 H   0  0  0  0  0  0  0  0  0  0  0  0
    8.8683    1.0104    1.9820 H   0  0  0  0  0  0  0  0  0  0  0  0
    7.9903   -1.1774   -2.1283 H   0  0  0  0  0  0  0  0  0  0  0  0
    9.0163   -1.5082   -0.6702 H   0  0  0  0  0  0  0  0  0  0  0  0
   -9.9749    1.4459   -1.9175 H   0  0  0  0  0  0  0  0  0  0  0  0
   -9.3286    1.2316   -0.2007 H   0  0  0  0  0  0  0  0  0  0  0  0
  -10.2317    3.4618   -0.4289 H   0  0  0  0  0  0  0  0  0  0  0  0
   -9.3927    3.6922   -1.9809 H   0  0  0  0  0  0  0  0  0  0  0  0
   -7.5844    4.4953   -0.8755 H   0  0  0  0  0  0  0  0  0  0  0  0
   -8.4396    4.3146    0.6728 H   0  0  0  0  0  0  0  0  0  0  0  0
   -6.4284    3.0736    0.8008 H   0  0  0  0  0  0  0  0  0  0  0  0
   -7.7010    2.2136   -2.5826 H   0  0  0  0  0  0  0  0  0  0  0  0
   -5.6256   -0.1773   -2.0572 H   0  0  0  0  0  0  0  0  0  0  0  0
   -6.6699   -1.4127   -1.1855 H   0  0  0  0  0  0  0  0  0  0  0  0
   -7.1678    0.0469    0.5465 H   0  0  0  0  0  0  0  0  0  0  0  0
   -5.0996    1.1408    1.3695 H   0  0  0  0  0  0  0  0  0  0  0  0
   -4.3660    0.8334   -0.2968 H   0  0  0  0  0  0  0  0  0  0  0  0
   -1.4331   -0.2177    2.5890 H   0  0  0  0  0  0  0  0  0  0  0  0
   -3.8393   -4.4324    1.9712 H   0  0  0  0  0  0  0  0  0  0  0  0
   -4.4756   -3.4544    0.6380 H   0  0  0  0  0  0  0  0  0  0  0  0
   -5.1648   -3.3052    2.3507 H   0  0  0  0  0  0  0  0  0  0  0  0
   -0.3456    1.2942    0.9445 H   0  0  0  0  0  0  0  0  0  0  0  0
    0.6677   -0.1230    2.9364 H   0  0  0  0  0  0  0  0  0  0  0  0
    0.0351    0.1112   -0.9460 H   0  0  0  0  0  0  0  0  0  0  0  0
    1.8756    1.8372   -1.0049 H   0  0  0  0  0  0  0  0  0  0  0  0
    2.7696    1.5513    0.5608 H   0  0  0  0  0  0  0  0  0  0  0  0
    4.8499    0.6257    0.6176 H   0  0  0  0  0  0  0  0  0  0  0  0
    2.4217   -2.1759    0.4768 H   0  0  0  0  0  0  0  0  0  0  0  0
    2.9446   -0.7680    1.5154 H   0  0  0  0  0  0  0  0  0  0  0  0
    9.8799    0.3827   -1.9021 H   0  0  0  0  0  0  0  0  0  0  0  0
    8.3490    1.2585   -1.8377 H   0  0  0  0  0  0  0  0  0  0  0  0
    9.1135    2.8618   -0.8739 H   0  0  0  0  0  0  0  0  0  0  0  0
    8.7254    2.8285    0.8816 H   0  0  0  0  0  0  0  0  0  0  0  0
   10.4401    2.7799    0.3214 H   0  0  0  0  0  0  0  0  0  0  0  0
  3  4  1  0
  4  5  1  0
  5  6  1  0
  6  7  1  0
  4  8  1  0
  2 12  1  0
  2 13  1  0
 13 14  1  0
  2 15  1  0
 16 17  1  0
 17 18  1  0
 18 19  1  0
 19 20  1  0
  1 21  1  0
 16 21  1  0
 20 21  1  0
  1 22  1  0
 20 23  1  0
 22 23  1  0
  3 24  1  0
 23 24  1  0
  7 25  1  0
  8 25  1  0
  5 26  1  0
 25 27  1  0
 27 28  1  0
  9 29  1  0
 27 29  1  0
  9 30  1  0
 10 30  1  0
 10 31  1  0
 11 31  1  0
 12 31  1  0
  9 32  1  0
 11 32  1  0
 11 33  1  0
 33 34  1  0
 33 35  1  0
 33 36  1  0
 15 37  1  0
 14 39  1  0
 37 39  1  0
 38 39  1  0
 42 43  1  0
 43 44  1  0
 44 45  1  0
 45 46  1  0
 43 47  1  0
 41 51  1  0
 41 52  1  0
 52 53  1  0
 41 54  1  0
 55 56  1  0
 56 57  1  0
 57 58  1  0
 58 59  1  0
 40 60  1  0
 55 60  1  0
 59 60  1  0
 40 61  1  0
 59 62  1  0
 61 62  1  0
 42 63  1  0
 62 63  1  0
 46 64  1  0
 47 64  1  0
 44 65  1  0
 64 66  1  0
 66 67  1  0
 48 68  1  0
 66 68  1  0
 48 69  1  0
 49 69  1  0
 49 70  1  0
 50 70  1  0
 51 70  1  0
 48 71  1  0
 50 71  1  0
 50 72  1  0
 72 73  1  0
 72 74  1  0
 72 75  1  0
 54 76  1  0
 53 78  1  0
 76 78  1  0
 77 78  1  0
  1 79  1  0
  3 80  1  0
  3 81  1  0
  4 82  1  0
  5 83  1  0
  6 84  1  0
  6 85  1  0
  7 86  1  0
  7 87  1  0
  8 88  1  0
  8 89  1  0
  9 90  1  0
 10 91  1  0
 10 92  1  0
 11 93  1  0
 12 94  1  0
 12 95  1  0
 13 96  1  0
 13 97  1  0
 14 98  1  0
 14 99  1  0
 15100  1  0
 15101  1  0
 16102  1  0
 16103  1  0
 17104  1  0
 17105  1  0
 18106  1  0
 18107  1  0
 19108  1  0
 21109  1  0
 22110  1  0
 22111  1  0
 23112  1  0
 24113  1  0
 24114  1  0
 25115  1  0
 26116  1  0
 26117  1  0
 26118  1  0
 27119  1  0
 28120  1  0
 29121  1  0
 30122  1  0
 30123  1  0
 31124  1  0
 32125  1  0
 32126  1  0
 37127  1  0
 37128  1  0
 38129  1  0
 38130  1  0
 38131  1  0
 40132  1  0
 42133  1  0
 42134  1  0
 43135  1  0
 44136  1  0
 45137  1  0
 45138  1  0
 46139  1  0
 46140  1  0
 47141  1  0
 47142  1  0
 48143  1  0
 49144  1  0
 49145  1  0
 50146  1  0
 51147  1  0
 51148  1  0
 52149  1  0
 52150  1  0
 53151  1  0
 53152  1  0
 54153  1  0
 54154  1  0
 55155  1  0
 55156  1  0
 56157  1  0
 56158  1  0
 57159  1  0
 57160  1  0
 58161  1  0
 60162  1  0
 61163  1  0
 61164  1  0
 62165  1  0
 63166  1  0
 63167  1  0
 64168  1  0
 65169  1  0
 65170  1  0
 65171  1  0
 66172  1  6
 67173  1  0
 68174  1  0
 69175  1  0
 69176  1  0
 70177  1  0
 71178  1  0
 71179  1  0
 76180  1  0
 76181  1  0
 77182  1  0
 77183  1  0
 77184  1  0
M  END
>  <PDBID>  (1) 
3IK3

>  <PDB ID>  (1) 
3IK3

>  <Generic Name>  (1) 
Ponatinib

>  <Brand Name>  (1) 
Iclusig

>  <DrugBank ID>  (1) 
DB08901

>  <ATC Codes>  (1) 
L01XE24

>  <Ligand ID>  (1) 
0LI

>  <Target Name>  (1) 
Tyrosine-protein kinase ABL1

>  <UniProt ID>  (1) 
P00519

>  <PDB ID.1>  (1) 
3IK3

>  <Seq. Identity>  (1) 
95%

$$$$
