PDB_DB00730_07
     RDKit          3D

 33 35  0  0  0  0  0  0  0  0999 V2000
   -0.8492   -0.5588   -0.5576 C   0  0  0  0  0  0  0  0  0  0  0  0
    0.1863   -1.4647   -0.1934 N   0  0  0  0  0  0  0  0  0  0  0  0
    0.9257   -0.7714    0.8461 C   0  0  0  0  0  0  0  0  0  0  0  0
    2.2966   -0.5228    0.3713 C   0  0  0  0  0  0  0  0  0  0  0  0
    3.1622    0.2096    1.4037 C   0  0  0  0  0  0  0  0  0  0  0  0
    4.5661    0.6574    0.2991 S   0  0  0  0  0  0  0  0  0  0  0  0
    3.7239    0.2670   -1.2907 C   0  0  0  0  0  0  0  0  0  0  0  0
    2.3407    0.2609   -0.8379 N   0  0  0  0  0  0  0  0  0  0  0  0
    0.1764    0.3905    1.2190 N   0  0  0  0  0  0  0  0  0  0  0  0
   -1.1584    0.0637    0.8145 C   0  0  0  0  0  0  0  0  0  0  0  0
   -2.0501    1.2354    0.5830 C   0  0  0  0  0  0  0  0  0  0  0  0
   -3.2699    0.8983   -0.1928 C   0  0  0  0  0  0  0  0  0  0  0  0
   -3.0741   -0.0237   -1.3410 C   0  0  0  0  0  0  0  0  0  0  0  0
   -2.1141   -1.1690   -1.0422 C   0  0  0  0  0  0  0  0  0  0  0  0
   -0.4919    0.2922   -1.1804 H   0  0  0  0  0  0  0  0  0  0  0  0
   -0.2453   -2.3401    0.1751 H   0  0  0  0  0  0  0  0  0  0  0  0
    0.9780   -1.4293    1.7573 H   0  0  0  0  0  0  0  0  0  0  0  0
    2.7888   -1.4962    0.1696 H   0  0  0  0  0  0  0  0  0  0  0  0
    3.4850   -0.5036    2.1778 H   0  0  0  0  0  0  0  0  0  0  0  0
    2.6634    1.1017    1.7963 H   0  0  0  0  0  0  0  0  0  0  0  0
    3.8862    1.0966   -1.9904 H   0  0  0  0  0  0  0  0  0  0  0  0
    4.0518   -0.7062   -1.6670 H   0  0  0  0  0  0  0  0  0  0  0  0
    2.0792    1.2553   -0.6663 H   0  0  0  0  0  0  0  0  0  0  0  0
    0.4586    1.2594    0.7203 H   0  0  0  0  0  0  0  0  0  0  0  0
   -1.6487   -0.6671    1.4583 H   0  0  0  0  0  0  0  0  0  0  0  0
   -2.3716    1.6173    1.5871 H   0  0  0  0  0  0  0  0  0  0  0  0
   -1.5029    2.0931    0.1100 H   0  0  0  0  0  0  0  0  0  0  0  0
   -4.1094    0.5094    0.4502 H   0  0  0  0  0  0  0  0  0  0  0  0
   -3.6801    1.8639   -0.6085 H   0  0  0  0  0  0  0  0  0  0  0  0
   -4.0772   -0.4202   -1.6362 H   0  0  0  0  0  0  0  0  0  0  0  0
   -2.6110    0.5529   -2.1726 H   0  0  0  0  0  0  0  0  0  0  0  0
   -1.9947   -1.7337   -1.9937 H   0  0  0  0  0  0  0  0  0  0  0  0
   -2.5202   -1.8176   -0.2401 H   0  0  0  0  0  0  0  0  0  0  0  0
  1  2  1  0
  2  3  1  0
  3  4  1  0
  4  5  1  0
  5  6  1  0
  6  7  1  0
  4  8  1  0
  7  8  1  0
  3  9  1  0
  1 10  1  0
  9 10  1  0
 10 11  1  0
 11 12  1  0
 12 13  1  0
  1 14  1  0
 13 14  1  0
  1 15  1  0
  2 16  1  0
  3 17  1  0
  4 18  1  0
  5 19  1  0
  5 20  1  0
  7 21  1  0
  7 22  1  0
  8 23  1  0
  9 24  1  0
 10 25  1  0
 11 26  1  0
 11 27  1  0
 12 28  1  0
 12 29  1  0
 13 30  1  0
 13 31  1  0
 14 32  1  0
 14 33  1  0
M  END
>  <PDBID>  (1) 
3SFE

>  <PDB ID>  (1) 
3SFE

>  <Generic Name>  (1) 
Thiabendazole

>  <Brand Name>  (1) 
Mintezol Chewable Tab 500mg#Mintezol

>  <DrugBank ID>  (1) 
DB00730

>  <ATC Codes>  (1) 
D01AC06#P02CA02

>  <Ligand ID>  (1) 
TMG

>  <Target Name>  (1) 
Fumarate reductase flavoprotein subunit

>  <UniProt ID>  (1) 
P00363

>  <PDB ID.1>  (1) 
3SFE

>  <Seq. Identity>  (1) 
38%

$$$$
