PDB_DB01132_02
     RDKit          3D

122126  0  0  0  0  0  0  0  0999 V2000
   -5.4879    1.9657    0.9757 O   0  0  0  0  0  0  0  0  0  0  0  0
   -4.8411    0.7873    0.5438 C   0  0  1  0  0  0  0  0  0  0  0  0
   -5.3380   -0.2757    1.3988 N   0  0  0  0  0  0  0  0  0  0  0  0
   -5.3075    0.4436   -0.8437 C   0  0  2  0  0  0  0  0  0  0  0  0
   -7.0773    0.1049   -0.4104 S   0  0  0  0  0  0  0  0  0  0  0  0
   -6.7878   -0.2043    1.3811 C   0  0  0  0  0  0  0  0  0  0  0  0
   -7.3003    0.8151    2.1486 O   0  0  0  0  0  0  0  0  0  0  0  0
   -4.7718   -0.8022   -1.3913 C   0  0  0  0  0  0  0  0  0  0  0  0
    4.6051    1.0691    1.1823 C   0  0  0  0  0  0  0  0  0  0  0  0
   -3.3381   -1.0087   -1.5883 C   0  0  0  0  0  0  0  0  0  0  0  0
   -2.6399   -0.0240   -2.5099 C   0  0  0  0  0  0  0  0  0  0  0  0
   -1.2980   -0.6718   -2.8194 C   0  0  0  0  0  0  0  0  0  0  0  0
   -0.3965   -0.3969   -1.6215 C   0  0  0  0  0  0  0  0  0  0  0  0
   -1.2510   -0.2959   -0.4036 C   0  0  0  0  0  0  0  0  0  0  0  0
   -2.4524   -1.2609   -0.4308 C   0  0  0  0  0  0  0  0  0  0  0  0
    0.6751   -1.2289   -1.5624 O   0  0  0  0  0  0  0  0  0  0  0  0
    1.9134   -0.7407   -1.7961 C   0  0  0  0  0  0  0  0  0  0  0  0
    2.3870    0.3024   -0.8272 C   0  0  0  0  0  0  0  0  0  0  0  0
    7.4503    0.5544    1.0396 C   0  0  0  0  0  0  0  0  0  0  0  0
    6.4627   -0.5950    1.0803 C   0  0  0  0  0  0  0  0  0  0  0  0
    5.2337   -0.1207    1.8572 C   0  0  0  0  0  0  0  0  0  0  0  0
    4.2065   -1.2564    1.8824 C   0  0  0  0  0  0  0  0  0  0  0  0
    3.4469   -1.2373    0.6380 N   0  0  0  0  0  0  0  0  0  0  0  0
    3.1056    1.0374    1.3698 C   0  0  0  0  0  0  0  0  0  0  0  0
    2.4989   -0.1392    0.5916 C   0  0  0  0  0  0  0  0  0  0  0  0
   -6.1576   -0.5736   -0.0035 O   0  0  0  0  0  0  0  0  0  0  0  0
   -5.5666    0.2688    0.9093 C   0  0  0  0  0  0  0  0  0  0  0  0
   -6.4324    1.3286    1.3569 N   0  0  0  0  0  0  0  0  0  0  0  0
   -4.2652    0.8484    0.4839 C   0  0  2  0  0  0  0  0  0  0  0  0
   -4.7866    2.5240   -0.0804 S   0  0  0  0  0  0  0  0  0  0  0  0
   -6.5714    2.2813    0.2969 C   0  0  0  0  0  0  0  0  0  0  0  0
   -7.2442    1.7955   -0.8130 O   0  0  0  0  0  0  0  0  0  0  0  0
   -3.6380    0.2216   -0.7031 C   0  0  0  0  0  0  0  0  0  0  0  0
    4.3102    1.3845    0.4812 C   0  0  0  0  0  0  0  0  0  0  0  0
   -3.3143   -1.2214   -0.5946 C   0  0  0  0  0  0  0  0  0  0  0  0
   -2.6864   -1.6578   -1.9059 C   0  0  0  0  0  0  0  0  0  0  0  0
   -1.4548   -2.4973   -1.6853 C   0  0  0  0  0  0  0  0  0  0  0  0
   -0.4183   -1.5930   -1.0296 C   0  0  0  0  0  0  0  0  0  0  0  0
   -0.9717   -1.2138    0.3215 C   0  0  0  0  0  0  0  0  0  0  0  0
   -2.4019   -1.5970    0.5106 C   0  0  0  0  0  0  0  0  0  0  0  0
    0.8269   -2.1401   -1.0231 O   0  0  0  0  0  0  0  0  0  0  0  0
    1.8139   -1.5101   -1.7138 C   0  0  0  0  0  0  0  0  0  0  0  0
    2.0875   -0.1480   -1.1385 C   0  0  0  0  0  0  0  0  0  0  0  0
    7.1875    1.8067    0.7767 C   0  0  0  0  0  0  0  0  0  0  0  0
    6.5772    0.4394    0.8552 C   0  0  0  0  0  0  0  0  0  0  0  0
    5.1686    0.5121    1.4006 C   0  0  0  0  0  0  0  0  0  0  0  0
    4.5766   -0.8863    1.4521 C   0  0  0  0  0  0  0  0  0  0  0  0
    3.7577   -1.0852    0.2708 N   0  0  0  0  0  0  0  0  0  0  0  0
    2.8648    1.0808    0.8681 C   0  0  0  0  0  0  0  0  0  0  0  0
    2.5466   -0.2836    0.3046 C   0  0  0  0  0  0  0  0  0  0  0  0
   -5.2935    2.0513    1.9487 H   0  0  0  0  0  0  0  0  0  0  0  0
   -3.7740    0.8775    0.6843 H   0  0  0  0  0  0  0  0  0  0  0  0
   -4.9422   -0.1341    2.3400 H   0  0  0  0  0  0  0  0  0  0  0  0
   -5.2646    1.3233   -1.5175 H   0  0  0  0  0  0  0  0  0  0  0  0
   -7.1960   -1.2031    1.6178 H   0  0  0  0  0  0  0  0  0  0  0  0
   -8.1529    1.1195    1.7019 H   0  0  0  0  0  0  0  0  0  0  0  0
   -5.2901   -1.0518   -2.3769 H   0  0  0  0  0  0  0  0  0  0  0  0
   -5.1308   -1.6557   -0.7338 H   0  0  0  0  0  0  0  0  0  0  0  0
    4.9871    1.9930    1.6635 H   0  0  0  0  0  0  0  0  0  0  0  0
    4.8612    1.1114    0.1204 H   0  0  0  0  0  0  0  0  0  0  0  0
   -3.2738   -1.9799   -2.2175 H   0  0  0  0  0  0  0  0  0  0  0  0
   -3.1771    0.0568   -3.4889 H   0  0  0  0  0  0  0  0  0  0  0  0
   -2.4624    0.9496   -2.0629 H   0  0  0  0  0  0  0  0  0  0  0  0
   -0.8555   -0.2361   -3.7330 H   0  0  0  0  0  0  0  0  0  0  0  0
   -1.4963   -1.7517   -2.9616 H   0  0  0  0  0  0  0  0  0  0  0  0
   -0.0013    0.6431   -1.8413 H   0  0  0  0  0  0  0  0  0  0  0  0
   -1.6091    0.7496   -0.2216 H   0  0  0  0  0  0  0  0  0  0  0  0
   -0.6740   -0.6037    0.4783 H   0  0  0  0  0  0  0  0  0  0  0  0
   -1.9269   -2.2741   -0.5145 H   0  0  0  0  0  0  0  0  0  0  0  0
   -2.8983   -1.2860    0.5594 H   0  0  0  0  0  0  0  0  0  0  0  0
    2.6676   -1.5770   -1.7390 H   0  0  0  0  0  0  0  0  0  0  0  0
    2.0079   -0.2370   -2.8108 H   0  0  0  0  0  0  0  0  0  0  0  0
    1.6944    1.1867   -0.9260 H   0  0  0  0  0  0  0  0  0  0  0  0
    3.3865    0.6650   -1.2143 H   0  0  0  0  0  0  0  0  0  0  0  0
    7.1012    1.4197    1.6666 H   0  0  0  0  0  0  0  0  0  0  0  0
    8.4275    0.1876    1.4587 H   0  0  0  0  0  0  0  0  0  0  0  0
    7.6159    0.8988   -0.0044 H   0  0  0  0  0  0  0  0  0  0  0  0
    6.8667   -1.4667    1.6476 H   0  0  0  0  0  0  0  0  0  0  0  0
    6.1409   -0.8988    0.0421 H   0  0  0  0  0  0  0  0  0  0  0  0
    5.5460    0.0724    2.8936 H   0  0  0  0  0  0  0  0  0  0  0  0
    4.7978   -2.1950    1.8669 H   0  0  0  0  0  0  0  0  0  0  0  0
    3.5633   -1.1808    2.7738 H   0  0  0  0  0  0  0  0  0  0  0  0
    2.9326   -2.1389    0.5600 H   0  0  0  0  0  0  0  0  0  0  0  0
    2.8566    0.9711    2.4484 H   0  0  0  0  0  0  0  0  0  0  0  0
    2.7021    1.9692    0.9006 H   0  0  0  0  0  0  0  0  0  0  0  0
    1.5658   -0.3711    1.1070 H   0  0  0  0  0  0  0  0  0  0  0  0
   -6.1545   -0.2752   -0.9244 H   0  0  0  0  0  0  0  0  0  0  0  0
   -5.3650   -0.3527    1.8291 H   0  0  0  0  0  0  0  0  0  0  0  0
   -7.3503    0.9084    1.5802 H   0  0  0  0  0  0  0  0  0  0  0  0
   -3.5450    1.0249    1.3044 H   0  0  0  0  0  0  0  0  0  0  0  0
   -7.0090    3.2000    0.6805 H   0  0  0  0  0  0  0  0  0  0  0  0
   -7.9870    1.2139   -0.4962 H   0  0  0  0  0  0  0  0  0  0  0  0
   -2.7205    0.7870   -0.9557 H   0  0  0  0  0  0  0  0  0  0  0  0
   -4.3254    0.3567   -1.5707 H   0  0  0  0  0  0  0  0  0  0  0  0
    4.5579    2.4467    0.6129 H   0  0  0  0  0  0  0  0  0  0  0  0
    4.4392    1.0262   -0.5671 H   0  0  0  0  0  0  0  0  0  0  0  0
   -4.2512   -1.8304   -0.4960 H   0  0  0  0  0  0  0  0  0  0  0  0
   -3.4270   -2.1627   -2.5682 H   0  0  0  0  0  0  0  0  0  0  0  0
   -2.3451   -0.7601   -2.4981 H   0  0  0  0  0  0  0  0  0  0  0  0
   -1.0463   -2.7257   -2.7017 H   0  0  0  0  0  0  0  0  0  0  0  0
   -1.6263   -3.4235   -1.1397 H   0  0  0  0  0  0  0  0  0  0  0  0
   -0.4176   -0.6715   -1.6444 H   0  0  0  0  0  0  0  0  0  0  0  0
   -0.8214   -0.1318    0.5561 H   0  0  0  0  0  0  0  0  0  0  0  0
   -0.3759   -1.7959    1.0829 H   0  0  0  0  0  0  0  0  0  0  0  0
   -2.4268   -2.7232    0.5999 H   0  0  0  0  0  0  0  0  0  0  0  0
   -2.7191   -1.2302    1.5064 H   0  0  0  0  0  0  0  0  0  0  0  0
    2.7934   -2.0659   -1.6649 H   0  0  0  0  0  0  0  0  0  0  0  0
    1.5847   -1.3476   -2.7907 H   0  0  0  0  0  0  0  0  0  0  0  0
    1.1424    0.4225   -1.1124 H   0  0  0  0  0  0  0  0  0  0  0  0
    2.8632    0.4023   -1.7290 H   0  0  0  0  0  0  0  0  0  0  0  0
    6.8899    2.4385    1.6374 H   0  0  0  0  0  0  0  0  0  0  0  0
    8.2931    1.7189    0.8102 H   0  0  0  0  0  0  0  0  0  0  0  0
    6.9446    2.2887   -0.1939 H   0  0  0  0  0  0  0  0  0  0  0  0
    7.1771   -0.1848    1.5527 H   0  0  0  0  0  0  0  0  0  0  0  0
    6.5739   -0.0321   -0.1402 H   0  0  0  0  0  0  0  0  0  0  0  0
    5.1585    0.9297    2.4152 H   0  0  0  0  0  0  0  0  0  0  0  0
    5.4037   -1.6036    1.4116 H   0  0  0  0  0  0  0  0  0  0  0  0
    4.0090   -1.0602    2.3823 H   0  0  0  0  0  0  0  0  0  0  0  0
    3.5289   -2.1224    0.2364 H   0  0  0  0  0  0  0  0  0  0  0  0
    2.7972    1.0000    1.9858 H   0  0  0  0  0  0  0  0  0  0  0  0
    2.1629    1.8372    0.4693 H   0  0  0  0  0  0  0  0  0  0  0  0
    1.7855   -0.7613    0.9422 H   0  0  0  0  0  0  0  0  0  0  0  0
  1  2  1  0
  2  3  1  0
  2  4  1  0
  4  5  1  0
  3  6  1  0
  5  6  1  0
  6  7  1  0
  4  8  1  0
  8 10  1  0
 10 11  1  0
 11 12  1  0
 12 13  1  0
 13 14  1  0
 10 15  1  0
 14 15  1  0
 13 16  1  0
 16 17  1  0
 17 18  1  0
 19 20  1  0
  9 21  1  0
 20 21  1  0
 21 22  1  0
 22 23  1  0
  9 24  1  0
 18 25  1  0
 23 25  1  0
 24 25  1  0
 26 27  1  0
 27 28  1  0
 27 29  1  0
 29 30  1  0
 28 31  1  0
 30 31  1  0
 31 32  1  0
 29 33  1  0
 33 35  1  0
 35 36  1  0
 36 37  1  0
 37 38  1  0
 38 39  1  0
 35 40  1  0
 39 40  1  0
 38 41  1  0
 41 42  1  0
 42 43  1  0
 44 45  1  0
 34 46  1  0
 45 46  1  0
 46 47  1  0
 47 48  1  0
 34 49  1  0
 43 50  1  0
 48 50  1  0
 49 50  1  0
  1 51  1  0
  2 52  1  6
  3 53  1  0
  4 54  1  6
  6 55  1  0
  7 56  1  0
  8 57  1  0
  8 58  1  0
  9 59  1  0
  9 60  1  0
 10 61  1  0
 11 62  1  0
 11 63  1  0
 12 64  1  0
 12 65  1  0
 13 66  1  0
 14 67  1  0
 14 68  1  0
 15 69  1  0
 15 70  1  0
 17 71  1  0
 17 72  1  0
 18 73  1  0
 18 74  1  0
 19 75  1  0
 19 76  1  0
 19 77  1  0
 20 78  1  0
 20 79  1  0
 21 80  1  0
 22 81  1  0
 22 82  1  0
 23 83  1  0
 24 84  1  0
 24 85  1  0
 25 86  1  0
 26 87  1  0
 27 88  1  0
 28 89  1  0
 29 90  1  1
 31 91  1  0
 32 92  1  0
 33 93  1  0
 33 94  1  0
 34 95  1  0
 34 96  1  0
 35 97  1  0
 36 98  1  0
 36 99  1  0
 37100  1  0
 37101  1  0
 38102  1  0
 39103  1  0
 39104  1  0
 40105  1  0
 40106  1  0
 42107  1  0
 42108  1  0
 43109  1  0
 43110  1  0
 44111  1  0
 44112  1  0
 44113  1  0
 45114  1  0
 45115  1  0
 46116  1  0
 47117  1  0
 47118  1  0
 48119  1  0
 49120  1  0
 49121  1  0
 50122  1  0
M  END
>  <PDBID>  (1) 
2XKW

>  <PDB ID>  (1) 
2XKW

>  <Generic Name>  (1) 
Pioglitazone

>  <Brand Name>  (1) 
Accel Pioglitazone#Ach-pioglitazone#Act Pioglitazone#Actoplus Met#Actoplus Met XR#Actos#Actos (15mg)#Actos (30mg)#Actos (45mg)#Ag-pioglitazone#Alogliptin and Pioglitazone#Apo-pioglitazone#Auro-pioglitazone#Ava-pioglitazone#Dom-pioglitazone#Duetact#Jamp-pioglitazone#Mint-pioglitazone#Mylan-pioglitazone#Oseni#PHL-pioglitazone#PMS-pioglitazone#Pioglitazole and Metformin Hydrochloride#Pioglitazone#Pioglitazone HCl#Pioglitazone HCl and Metformin HCl#Pioglitazone Hydrochloride#Pioglitazone Hydrochloride and Glimepiride#Pioglitazone Hydrochloride and Metformin Hydrochloride#Pioglitazone and Glimepiride#Pioglitazone and Metformin#Pioglitazone and Metformin Hydrochloride#Pioglitazone and Metformin Hydrocholride#Pioglitazonehydrochloride#Pro-pioglitazone#Ran-pioglitazone#Ratio-pioglitazone#Sandoz Pioglitazone#Teva-pioglitazone#Torrent-pioglitazone#Van-pioglitazone#Zym-pioglitazone#Actost#Glustin

>  <DrugBank ID>  (1) 
DB01132

>  <ATC Codes>  (1) 
A10BD12#A10BD09#A10BG03#A10BD06#A10BD05

>  <Ligand ID>  (1) 
8N6,P1B

>  <Target Name>  (1) 
Peroxisome proliferator-activated receptor gamma

>  <UniProt ID>  (1) 
P37231

>  <PDB ID.1>  (1) 
2XKW

>  <Seq. Identity>  (1) 
95%

$$$$
