PDB_DB00196_04
     RDKit          3D

 48 50  0  0  0  0  0  0  0  0999 V2000
   -0.1846   -0.2415    1.8516 O   0  0  0  0  0  0  0  0  0  0  0  0
   -0.0158    0.1514    0.5129 C   0  0  0  0  0  0  0  0  0  0  0  0
   -0.0676    1.6594    0.5310 C   0  0  0  0  0  0  0  0  0  0  0  0
   -1.0146   -0.3951   -0.4210 C   0  0  0  0  0  0  0  0  0  0  0  0
    1.4166   -0.2036    0.1789 C   0  0  0  0  0  0  0  0  0  0  0  0
   -1.2962    2.2165    1.0331 N   0  0  0  0  0  0  0  0  0  0  0  0
   -1.0415    3.6558    1.1845 C   0  0  0  0  0  0  0  0  0  0  0  0
   -2.2513    2.1597   -0.0251 N   0  0  0  0  0  0  0  0  0  0  0  0
   -1.8990    4.3432    0.2516 N   0  0  0  0  0  0  0  0  0  0  0  0
   -2.9977    3.4173    0.1160 C   0  0  0  0  0  0  0  0  0  0  0  0
   -1.0247   -1.8413   -0.4960 N   0  0  0  0  0  0  0  0  0  0  0  0
   -2.0579   -2.2320   -1.4323 C   0  0  0  0  0  0  0  0  0  0  0  0
   -1.2808   -2.4822    0.6928 N   0  0  0  0  0  0  0  0  0  0  0  0
   -2.9487   -3.1141   -0.6558 N   0  0  0  0  0  0  0  0  0  0  0  0
   -1.9790   -3.6953    0.2846 C   0  0  0  0  0  0  0  0  0  0  0  0
    1.8402    0.0867   -1.2137 C   0  0  0  0  0  0  0  0  0  0  0  0
    1.8482   -1.5601    0.6041 C   0  0  0  0  0  0  0  0  0  0  0  0
    3.3643    0.0918   -1.2498 C   0  0  0  0  0  0  0  0  0  0  0  0
    3.9858   -1.1063   -0.6135 C   0  0  0  0  0  0  0  0  0  0  0  0
    5.3266   -0.7855   -0.3689 F   0  0  0  0  0  0  0  0  0  0  0  0
    3.3858   -1.5047    0.6895 C   0  0  0  0  0  0  0  0  0  0  0  0
    1.4537   -1.8230    1.9168 F   0  0  0  0  0  0  0  0  0  0  0  0
   -0.8404    0.3482    2.2816 H   0  0  0  0  0  0  0  0  0  0  0  0
    0.8321    2.0327    1.0999 H   0  0  0  0  0  0  0  0  0  0  0  0
    0.0749    2.0595   -0.5206 H   0  0  0  0  0  0  0  0  0  0  0  0
   -0.8616   -0.0083   -1.4214 H   0  0  0  0  0  0  0  0  0  0  0  0
   -2.0332   -0.1319   -0.0231 H   0  0  0  0  0  0  0  0  0  0  0  0
    2.0227    0.5191    0.8305 H   0  0  0  0  0  0  0  0  0  0  0  0
   -1.2979    3.9797    2.2205 H   0  0  0  0  0  0  0  0  0  0  0  0
   -0.0027    3.9346    0.9828 H   0  0  0  0  0  0  0  0  0  0  0  0
   -1.6854    2.3135   -0.9175 H   0  0  0  0  0  0  0  0  0  0  0  0
   -1.4109    4.3999   -0.6591 H   0  0  0  0  0  0  0  0  0  0  0  0
   -3.5650    3.6720   -0.7815 H   0  0  0  0  0  0  0  0  0  0  0  0
   -3.5948    3.3903    1.0509 H   0  0  0  0  0  0  0  0  0  0  0  0
   -2.6853   -1.4069   -1.7926 H   0  0  0  0  0  0  0  0  0  0  0  0
   -1.6499   -2.8119   -2.2859 H   0  0  0  0  0  0  0  0  0  0  0  0
   -1.8574   -1.9874    1.3799 H   0  0  0  0  0  0  0  0  0  0  0  0
   -3.5357   -2.4745   -0.0698 H   0  0  0  0  0  0  0  0  0  0  0  0
   -2.5184   -4.1536    1.1168 H   0  0  0  0  0  0  0  0  0  0  0  0
   -1.3030   -4.4091   -0.2423 H   0  0  0  0  0  0  0  0  0  0  0  0
    1.5404    1.1094   -1.5601 H   0  0  0  0  0  0  0  0  0  0  0  0
    1.4351   -0.6372   -1.9686 H   0  0  0  0  0  0  0  0  0  0  0  0
    1.6166   -2.3802   -0.0884 H   0  0  0  0  0  0  0  0  0  0  0  0
    3.7087    0.0834   -2.3282 H   0  0  0  0  0  0  0  0  0  0  0  0
    3.6949    1.0621   -0.8484 H   0  0  0  0  0  0  0  0  0  0  0  0
    3.9731   -1.9630   -1.3143 H   0  0  0  0  0  0  0  0  0  0  0  0
    3.7108   -2.5267    0.9584 H   0  0  0  0  0  0  0  0  0  0  0  0
    3.6707   -0.8107    1.5293 H   0  0  0  0  0  0  0  0  0  0  0  0
  2  1  1  0
  2  3  1  0
  2  4  1  0
  2  5  1  0
  3  6  1  0
  6  7  1  0
  6  8  1  0
  7  9  1  0
  8 10  1  0
  9 10  1  0
  4 11  1  0
 11 12  1  0
 11 13  1  0
 12 14  1  0
 13 15  1  0
 15 14  1  0
  5 16  1  0
  5 17  1  0
 16 18  1  0
 18 19  1  0
 19 20  1  0
 17 21  1  0
 19 21  1  0
 17 22  1  0
  1 23  1  0
  3 24  1  0
  3 25  1  0
  4 26  1  0
  4 27  1  0
  5 28  1  0
  7 29  1  0
  7 30  1  0
  8 31  1  0
  9 32  1  0
 10 33  1  0
 10 34  1  0
 12 35  1  0
 12 36  1  0
 13 37  1  0
 14 38  1  0
 15 39  1  0
 15 40  1  0
 16 41  1  0
 16 42  1  0
 17 43  1  0
 18 44  1  0
 18 45  1  0
 19 46  1  0
 21 47  1  0
 21 48  1  0
M  END
>  <PDBID>  (1) 
5ESM

>  <PDB ID>  (1) 
5ESM

>  <Generic Name>  (1) 
Fluconazole

>  <Brand Name>  (1) 
Act Fluconazole#Apo-fluconazole#Apo-fluconazole-150#Canesoral#Canesoral Combi-pak#Clotrimaderm-fluconazole Combi-pack#Clotrimazole-fluconazole Combi-pack#Co Fluconazole-150#Diflucan#Diflucan Inj 2mg/ml#Diflucan One#Diflucan Pws 50mg/5ml#Diflucan Tab 100mg#Diflucan Tab 50mg#Dom-fluconazole#Fluconazole#Fluconazole 150#Fluconazole In Sodium Chloride Injection USP#Fluconazole Injection#Fluconazole Injection Sdz#Fluconazole Omega#Fluconazole-150#Jamp-fluconazole#Mar-fluconazole-150#Monicure#Monicure Combo#Mylan-fluconazole#Novo-fluconazole#Novo-fluconazole-150#Nu-fluconazole-150#PHL-fluconazole#PMS-fluconazole#PMS-fluconazole-150#Priva-fluconazole#Pro-fluconazole#Riva-fluconazole#Taro-fluconazole#Teva-fluconazole#Elazor#Flucazol#Flucostat#Flunizol#Pritenzol#Trican#Triflucan

>  <DrugBank ID>  (1) 
DB00196

>  <ATC Codes>  (1) 
D01AC15#J02AC01#J01RA07

>  <Ligand ID>  (1) 
TPF

>  <Target Name>  (1) 
Lanosterol 14-alpha demethylase

>  <UniProt ID>  (1) 
P10613

>  <PDB ID.1>  (1) 
5ESM

>  <Seq. Identity>  (1) 
65%

$$$$
