PDB_DB00509_08
     RDKit          3D

 49 50  0  0  0  0  0  0  0  0999 V2000
   -2.1362    0.8341   -0.4981 C   0  0  2  0  0  0  0  0  0  0  0  0
   -1.8062   -0.6115   -0.7362 C   0  0  0  0  0  0  0  0  0  0  0  0
   -0.3064   -0.7034   -0.9366 C   0  0  2  0  0  0  0  0  0  0  0  0
    0.4972    0.1774   -0.0453 C   0  0  0  0  0  0  0  0  0  0  0  0
   -0.2724    0.6965    1.1550 C   0  0  0  0  0  0  0  0  0  0  0  0
   -1.6421    1.1515    0.8924 C   0  0  0  0  0  0  0  0  0  0  0  0
   -3.4816    1.2937   -0.8026 C   0  0  0  0  0  0  0  0  0  0  0  0
   -4.6708    0.7476   -0.1375 C   0  0  1  0  0  0  0  0  0  0  0  0
   -4.9672   -0.7029   -0.2874 C   0  0  0  0  0  0  0  0  0  0  0  0
    2.7823   -0.2297    0.3467 C   0  0  0  0  0  0  0  0  0  0  0  0
    3.6298   -0.0135    1.5419 C   0  0  0  0  0  0  0  0  0  0  0  0
    5.0953   -0.2331    1.1728 C   0  0  0  0  0  0  0  0  0  0  0  0
    5.3641    0.1362   -0.2669 C   0  0  0  0  0  0  0  0  0  0  0  0
    4.5788   -0.7127   -1.2351 C   0  0  0  0  0  0  0  0  0  0  0  0
    3.4282   -1.3148   -0.4991 C   0  0  0  0  0  0  0  0  0  0  0  0
   -4.7597    1.1358    1.2739 N   0  0  0  0  0  0  0  0  0  0  0  0
    1.5003   -0.5584    0.4943 O   0  0  0  0  0  0  0  0  0  0  0  0
    6.7157   -0.1109   -0.5029 O   0  0  0  0  0  0  0  0  0  0  0  0
   -4.9204   -1.1483   -1.5823 O   0  0  0  0  0  0  0  0  0  0  0  0
   -6.3193   -0.8658    0.1318 O   0  0  0  0  0  0  0  0  0  0  0  0
    0.1013   -0.2276   -2.9770 I   0  0  0  0  0  0  0  0  0  0  0  0
    6.2836    1.0207    2.4172 I   0  0  0  0  0  0  0  0  0  0  0  0
   -0.1928   -0.8215    2.6831 I   0  0  0  0  0  0  0  0  0  0  0  0
    5.7799   -2.2156   -2.1376 I   0  0  0  0  0  0  0  0  0  0  0  0
   -1.4313    1.4114   -1.1755 H   0  0  0  0  0  0  0  0  0  0  0  0
   -2.2447   -0.9443   -1.7049 H   0  0  0  0  0  0  0  0  0  0  0  0
   -2.0580   -1.2809    0.1040 H   0  0  0  0  0  0  0  0  0  0  0  0
   -0.0538   -1.7924   -0.8124 H   0  0  0  0  0  0  0  0  0  0  0  0
    0.8063    1.0691   -0.6170 H   0  0  0  0  0  0  0  0  0  0  0  0
    0.3286    1.5463    1.5596 H   0  0  0  0  0  0  0  0  0  0  0  0
   -2.2983    0.6730    1.6749 H   0  0  0  0  0  0  0  0  0  0  0  0
   -1.7764    2.2493    1.0340 H   0  0  0  0  0  0  0  0  0  0  0  0
   -3.6476    1.1563   -1.9183 H   0  0  0  0  0  0  0  0  0  0  0  0
   -3.5358    2.4220   -0.7018 H   0  0  0  0  0  0  0  0  0  0  0  0
   -5.5576    1.2849   -0.6030 H   0  0  0  0  0  0  0  0  0  0  0  0
   -4.3991   -1.3872    0.3621 H   0  0  0  0  0  0  0  0  0  0  0  0
    2.8338    0.7096   -0.2705 H   0  0  0  0  0  0  0  0  0  0  0  0
    3.5615    1.0429    1.8836 H   0  0  0  0  0  0  0  0  0  0  0  0
    3.4302   -0.6576    2.3990 H   0  0  0  0  0  0  0  0  0  0  0  0
    5.3927   -1.2733    1.3473 H   0  0  0  0  0  0  0  0  0  0  0  0
    5.1335    1.2073   -0.4391 H   0  0  0  0  0  0  0  0  0  0  0  0
    4.1511   -0.0626   -2.0477 H   0  0  0  0  0  0  0  0  0  0  0  0
    2.6565   -1.7071   -1.2177 H   0  0  0  0  0  0  0  0  0  0  0  0
    3.7077   -2.1826    0.1338 H   0  0  0  0  0  0  0  0  0  0  0  0
   -5.1804    0.3976    1.8519 H   0  0  0  0  0  0  0  0  0  0  0  0
   -5.1320    2.0811    1.4038 H   0  0  0  0  0  0  0  0  0  0  0  0
    7.1091   -0.6929    0.2015 H   0  0  0  0  0  0  0  0  0  0  0  0
   -5.7150   -0.9036   -2.1200 H   0  0  0  0  0  0  0  0  0  0  0  0
   -6.3622   -1.0901    1.0864 H   0  0  0  0  0  0  0  0  0  0  0  0
  1  2  1  0
  2  3  1  0
  3  4  1  0
  4  5  1  0
  1  6  1  0
  5  6  1  0
  1  7  1  0
  7  8  1  0
  8  9  1  0
 10 11  1  0
 11 12  1  0
 12 13  1  0
 13 14  1  0
 10 15  1  0
 14 15  1  0
  8 16  1  0
  4 17  1  0
 10 17  1  0
 13 18  1  0
  9 19  1  0
  9 20  1  0
  3 21  1  0
 12 22  1  0
  5 23  1  0
 14 24  1  0
  1 25  1  6
  2 26  1  0
  2 27  1  0
  3 28  1  6
  4 29  1  0
  5 30  1  0
  6 31  1  0
  6 32  1  0
  7 33  1  0
  7 34  1  0
  8 35  1  6
  9 36  1  0
 10 37  1  0
 11 38  1  0
 11 39  1  0
 12 40  1  0
 13 41  1  0
 14 42  1  0
 15 43  1  0
 15 44  1  0
 16 45  1  0
 16 46  1  0
 18 47  1  0
 19 48  1  0
 20 49  1  0
M  END
>  <PDBID>  (1) 
1Y0X

>  <PDB ID>  (1) 
1Y0X

>  <Generic Name>  (1) 
Dextrothyroxine

>  <Brand Name>  (1) 
Choloxin - Tab 4mg#Choloxin Tab 2mg#Choloxin Tablet 4mg#Choloxin#Dynothel#Eulipos#Lisolipin

>  <DrugBank ID>  (1) 
DB00509

>  <ATC Codes>  (1) 
C10AX01

>  <Ligand ID>  (1) 
T44

>  <Target Name>  (1) 
Thyroid hormone receptor beta

>  <UniProt ID>  (1) 
P10828

>  <PDB ID.1>  (1) 
1Y0X

>  <Seq. Identity>  (1) 
100%

$$$$
