PDB_DB01264_07
     RDKit          3D

 91 94  0  0  0  0  0  0  0  0999 V2000
    5.2517    4.5926    0.5536 N   0  0  0  0  0  0  0  0  0  0  0  0
    5.3035    3.6476    1.6608 C   0  0  0  0  0  0  0  0  0  0  0  0
    3.9276    3.1735    2.0440 C   0  0  0  0  0  0  0  0  0  0  0  0
    3.2190    2.5093    0.8731 C   0  0  0  0  0  0  0  0  0  0  0  0
    4.0858    1.5101    0.1862 C   0  0  0  0  0  0  0  0  0  0  0  0
    5.3630    1.2388    0.9599 C   0  0  0  0  0  0  0  0  0  0  0  0
    6.1427    2.4762    1.2724 C   0  0  0  0  0  0  0  0  0  0  0  0
    3.2521   -0.0162    0.0487 S   0  0  0  0  0  0  0  0  0  0  0  0
    2.9391   -0.3501    1.8488 O   0  0  0  0  0  0  0  0  0  0  0  0
    4.1569   -1.1213   -0.3490 O   0  0  0  0  0  0  0  0  0  0  0  0
    1.7549    0.1160   -0.4272 N   0  0  0  0  0  0  0  0  0  0  0  0
    1.3614    0.7449   -1.6104 C   0  0  0  0  0  0  0  0  0  0  0  0
    1.4453   -0.0906   -2.8752 C   0  0  0  0  0  0  0  0  0  0  0  0
    0.9867    0.7046   -4.0828 C   0  0  0  0  0  0  0  0  0  0  0  0
    2.9141   -0.3848   -3.1125 C   0  0  0  0  0  0  0  0  0  0  0  0
    0.8781   -0.9407   -0.0312 C   0  0  0  0  0  0  0  0  0  0  0  0
   -0.4883   -0.5549    0.4166 C   0  0  1  0  0  0  0  0  0  0  0  0
   -1.2910    0.0768   -0.4708 O   0  0  0  0  0  0  0  0  0  0  0  0
   -1.1314   -1.7016    1.1708 C   0  0  1  0  0  0  0  0  0  0  0  0
   -2.2142   -1.4343    1.9788 N   0  0  0  0  0  0  0  0  0  0  0  0
   -3.4366   -0.8990    1.7187 C   0  0  0  0  0  0  0  0  0  0  0  0
   -4.3652   -1.1343    2.8059 O   0  0  0  0  0  0  0  0  0  0  0  0
   -3.3645    0.5354    1.7945 O   0  0  0  0  0  0  0  0  0  0  0  0
   -4.0763    1.1517    0.7965 C   0  0  1  0  0  0  0  0  0  0  0  0
   -5.3039    1.8738    1.4237 C   0  0  0  0  0  0  0  0  0  0  0  0
   -5.5610    2.8785    0.4957 O   0  0  0  0  0  0  0  0  0  0  0  0
   -4.3460    3.4978    0.2498 C   0  0  1  0  0  0  0  0  0  0  0  0
   -3.9520    4.3799    1.2234 O   0  0  0  0  0  0  0  0  0  0  0  0
   -2.5828    4.3207    1.3636 C   0  0  0  0  0  0  0  0  0  0  0  0
   -2.2830    2.8589    1.1644 C   0  0  0  0  0  0  0  0  0  0  0  0
   -3.3528    2.3483    0.2438 C   0  0  1  0  0  0  0  0  0  0  0  0
   -1.0385   -3.0359    0.5424 C   0  0  0  0  0  0  0  0  0  0  0  0
   -3.0765   -3.1212   -0.8803 C   0  0  0  0  0  0  0  0  0  0  0  0
   -3.7012   -4.1662   -1.8076 C   0  0  0  0  0  0  0  0  0  0  0  0
   -3.6547   -5.4622   -0.9930 C   0  0  0  0  0  0  0  0  0  0  0  0
   -2.2275   -5.7627   -0.6823 C   0  0  0  0  0  0  0  0  0  0  0  0
   -1.2337   -4.7716   -1.2056 C   0  0  0  0  0  0  0  0  0  0  0  0
   -1.5849   -3.3276   -0.7803 C   0  0  0  0  0  0  0  0  0  0  0  0
    5.3846    5.5625    0.9204 H   0  0  0  0  0  0  0  0  0  0  0  0
    6.0390    4.3916   -0.0771 H   0  0  0  0  0  0  0  0  0  0  0  0
    5.7394    4.1481    2.5478 H   0  0  0  0  0  0  0  0  0  0  0  0
    4.0333    2.4792    2.9019 H   0  0  0  0  0  0  0  0  0  0  0  0
    3.3568    4.0628    2.3817 H   0  0  0  0  0  0  0  0  0  0  0  0
    2.2836    2.0405    1.2139 H   0  0  0  0  0  0  0  0  0  0  0  0
    2.9530    3.3101    0.1565 H   0  0  0  0  0  0  0  0  0  0  0  0
    4.3256    1.8452   -0.8359 H   0  0  0  0  0  0  0  0  0  0  0  0
    5.1680    0.5912    1.8399 H   0  0  0  0  0  0  0  0  0  0  0  0
    5.9981    0.6139    0.2727 H   0  0  0  0  0  0  0  0  0  0  0  0
    6.8326    2.2485    2.1340 H   0  0  0  0  0  0  0  0  0  0  0  0
    6.7747    2.7460    0.3792 H   0  0  0  0  0  0  0  0  0  0  0  0
    3.7404   -0.8291    2.1060 H   0  0  0  0  0  0  0  0  0  0  0  0
    4.9769   -1.1188   -0.8734 H   0  0  0  0  0  0  0  0  0  0  0  0
    2.0242    1.6641   -1.7322 H   0  0  0  0  0  0  0  0  0  0  0  0
    0.3467    1.1746   -1.5315 H   0  0  0  0  0  0  0  0  0  0  0  0
    0.8968   -1.0246   -2.8371 H   0  0  0  0  0  0  0  0  0  0  0  0
   -0.0524    1.0620   -3.9793 H   0  0  0  0  0  0  0  0  0  0  0  0
    1.6250    1.5689   -4.2917 H   0  0  0  0  0  0  0  0  0  0  0  0
    0.9707   -0.0171   -4.9412 H   0  0  0  0  0  0  0  0  0  0  0  0
    3.1480   -1.4416   -2.8756 H   0  0  0  0  0  0  0  0  0  0  0  0
    3.5604    0.3456   -2.5835 H   0  0  0  0  0  0  0  0  0  0  0  0
    3.1921   -0.2611   -4.1992 H   0  0  0  0  0  0  0  0  0  0  0  0
    0.8523   -1.6488   -0.9166 H   0  0  0  0  0  0  0  0  0  0  0  0
    1.4282   -1.4965    0.7892 H   0  0  0  0  0  0  0  0  0  0  0  0
   -0.3001    0.2301    1.2321 H   0  0  0  0  0  0  0  0  0  0  0  0
   -1.4478   -0.3932   -1.3233 H   0  0  0  0  0  0  0  0  0  0  0  0
   -0.2573   -1.8229    1.9969 H   0  0  0  0  0  0  0  0  0  0  0  0
   -2.1620   -1.7464    2.9979 H   0  0  0  0  0  0  0  0  0  0  0  0
   -4.0132   -1.0752    0.8101 H   0  0  0  0  0  0  0  0  0  0  0  0
   -3.8795   -0.7658    3.5968 H   0  0  0  0  0  0  0  0  0  0  0  0
   -4.5260    0.4806    0.0676 H   0  0  0  0  0  0  0  0  0  0  0  0
   -5.0617    2.2529    2.4298 H   0  0  0  0  0  0  0  0  0  0  0  0
   -6.1651    1.1821    1.4103 H   0  0  0  0  0  0  0  0  0  0  0  0
   -4.3858    4.0352   -0.7118 H   0  0  0  0  0  0  0  0  0  0  0  0
   -2.3085    4.6773    2.3816 H   0  0  0  0  0  0  0  0  0  0  0  0
   -2.0098    4.9230    0.6446 H   0  0  0  0  0  0  0  0  0  0  0  0
   -2.3633    2.3328    2.1357 H   0  0  0  0  0  0  0  0  0  0  0  0
   -1.2862    2.7168    0.6835 H   0  0  0  0  0  0  0  0  0  0  0  0
   -2.9833    2.2065   -0.7956 H   0  0  0  0  0  0  0  0  0  0  0  0
   -1.5393   -3.7555    1.2693 H   0  0  0  0  0  0  0  0  0  0  0  0
    0.0247   -3.4512    0.5418 H   0  0  0  0  0  0  0  0  0  0  0  0
   -3.5472   -3.2996    0.1161 H   0  0  0  0  0  0  0  0  0  0  0  0
   -3.3753   -2.1349   -1.2260 H   0  0  0  0  0  0  0  0  0  0  0  0
   -3.0700   -4.2384   -2.7055 H   0  0  0  0  0  0  0  0  0  0  0  0
   -4.7341   -3.8648   -1.9864 H   0  0  0  0  0  0  0  0  0  0  0  0
   -4.1792   -5.2870   -0.0299 H   0  0  0  0  0  0  0  0  0  0  0  0
   -4.1765   -6.2822   -1.5550 H   0  0  0  0  0  0  0  0  0  0  0  0
   -2.0634   -6.0018    0.3907 H   0  0  0  0  0  0  0  0  0  0  0  0
   -1.9890   -6.7303   -1.2169 H   0  0  0  0  0  0  0  0  0  0  0  0
   -1.0974   -4.8458   -2.3026 H   0  0  0  0  0  0  0  0  0  0  0  0
   -0.2604   -4.9898   -0.7314 H   0  0  0  0  0  0  0  0  0  0  0  0
   -1.1575   -2.7294   -1.6176 H   0  0  0  0  0  0  0  0  0  0  0  0
  1  2  1  0
  2  3  1  0
  3  4  1  0
  4  5  1  0
  5  6  1  0
  2  7  1  0
  6  7  1  0
  5  8  1  0
  8  9  1  0
  8 10  1  0
  8 11  1  0
 11 12  1  0
 12 13  1  0
 13 14  1  0
 13 15  1  0
 11 16  1  0
 16 17  1  0
 17 18  1  0
 17 19  1  0
 19 20  1  0
 20 21  1  0
 21 22  1  0
 21 23  1  0
 23 24  1  0
 24 25  1  0
 25 26  1  0
 26 27  1  0
 27 28  1  0
 28 29  1  0
 29 30  1  0
 24 31  1  0
 27 31  1  0
 30 31  1  0
 19 32  1  0
 33 34  1  0
 34 35  1  0
 35 36  1  0
 36 37  1  0
 32 38  1  0
 33 38  1  0
 37 38  1  0
  1 39  1  0
  1 40  1  0
  2 41  1  0
  3 42  1  0
  3 43  1  0
  4 44  1  0
  4 45  1  0
  5 46  1  0
  6 47  1  0
  6 48  1  0
  7 49  1  0
  7 50  1  0
  9 51  1  0
 10 52  1  0
 12 53  1  0
 12 54  1  0
 13 55  1  0
 14 56  1  0
 14 57  1  0
 14 58  1  0
 15 59  1  0
 15 60  1  0
 15 61  1  0
 16 62  1  0
 16 63  1  0
 17 64  1  1
 18 65  1  0
 19 66  1  1
 20 67  1  0
 21 68  1  0
 22 69  1  0
 24 70  1  6
 25 71  1  0
 25 72  1  0
 27 73  1  6
 29 74  1  0
 29 75  1  0
 30 76  1  0
 30 77  1  0
 31 78  1  6
 32 79  1  0
 32 80  1  0
 33 81  1  0
 33 82  1  0
 34 83  1  0
 34 84  1  0
 35 85  1  0
 35 86  1  0
 36 87  1  0
 36 88  1  0
 37 89  1  0
 37 90  1  0
 38 91  1  0
M  END
>  <PDBID>  (1) 
4HLA

>  <PDB ID>  (1) 
4HLA

>  <Generic Name>  (1) 
Darunavir

>  <Brand Name>  (1) 
Pat-darunavir#Prezcobix#Prezista

>  <DrugBank ID>  (1) 
DB01264

>  <ATC Codes>  (1) 
J05AE10#J05AR14

>  <Ligand ID>  (1) 
17

>  <Target Name>  (1) 
Pol polyprotein

>  <UniProt ID>  (1) 
Q72874

>  <PDB ID.1>  (1) 
4HLA

>  <Seq. Identity>  (1) 
99%

$$$$
