PDB_DB00212_09
     RDKit          3D

220226  0  0  0  0  0  0  0  0999 V2000
   -2.9681    4.2144    1.7171 O   0  0  0  0  0  0  0  0  0  0  0  0
   -4.2302    2.6821    1.5542 S   0  0  0  0  0  0  0  0  0  0  0  0
   -4.9345    2.8394    2.7863 O   0  0  0  0  0  0  0  0  0  0  0  0
   -5.0032    3.3176    0.1553 C   0  0  0  0  0  0  0  0  0  0  0  0
   -4.0943    3.4143   -1.0444 C   0  0  0  0  0  0  0  0  0  0  0  0
   -6.2667    2.6213   -0.1774 C   0  0  0  0  0  0  0  0  0  0  0  0
   -5.4160    4.7999    0.4096 C   0  0  0  0  0  0  0  0  0  0  0  0
   -3.0319    1.5861    1.2548 C   0  0  0  0  0  0  0  0  0  0  0  0
   -3.2726    0.1155    1.0647 C   0  0  1  0  0  0  0  0  0  0  0  0
   -4.1046   -0.3313   -0.0163 C   0  0  0  0  0  0  0  0  0  0  0  0
   -4.4681   -1.7353   -0.2915 C   0  0  0  0  0  0  0  0  0  0  0  0
   -3.5177   -2.7885   -0.5941 C   0  0  0  0  0  0  0  0  0  0  0  0
   -3.2152   -3.8347    0.4363 C   0  0  0  0  0  0  0  0  0  0  0  0
   -4.2022   -3.8844    1.5698 C   0  0  0  0  0  0  0  0  0  0  0  0
   -5.5790   -3.6379    0.9315 C   0  0  0  0  0  0  0  0  0  0  0  0
   -5.6166   -2.1728    0.6635 C   0  0  0  0  0  0  0  0  0  0  0  0
   -1.8429   -0.4724    1.0117 C   0  0  0  0  0  0  0  0  0  0  0  0
   -1.2636   -0.1783    2.2938 O   0  0  0  0  0  0  0  0  0  0  0  0
   -1.0389    0.2435    0.0443 N   0  0  0  0  0  0  0  0  0  0  0  0
    0.1501   -0.6006   -0.2724 C   0  0  1  0  0  0  0  0  0  0  0  0
    0.5876   -0.4831   -1.6751 C   0  0  0  0  0  0  0  0  0  0  0  0
   -0.3834   -0.7677   -2.7791 C   0  0  0  0  0  0  0  0  0  0  0  0
   -1.5324    0.1463   -2.8144 C   0  0  0  0  0  0  0  0  0  0  0  0
   -1.1764    1.1437   -3.8475 N   0  0  0  0  0  0  0  0  0  0  0  0
    0.1607    0.8290   -4.2530 C   0  0  0  0  0  0  0  0  0  0  0  0
    0.3052   -0.5929   -4.0381 N   0  0  0  0  0  0  0  0  0  0  0  0
    1.2605   -0.1039    0.6329 C   0  0  0  0  0  0  0  0  0  0  0  0
    1.4019    1.3209    0.2953 O   0  0  0  0  0  0  0  0  0  0  0  0
    2.4877   -0.6632    0.7914 N   0  0  0  0  0  0  0  0  0  0  0  0
    3.5530   -0.7002   -0.1178 C   0  0  2  0  0  0  0  0  0  0  0  0
    4.1356   -2.0623   -0.2677 C   0  0  1  0  0  0  0  0  0  0  0  0
    3.1864   -2.9753   -0.6955 O   0  0  0  0  0  0  0  0  0  0  0  0
    5.4587   -2.1534   -0.9290 C   0  0  2  0  0  0  0  0  0  0  0  0
    5.5200   -2.1316   -2.4162 C   0  0  0  0  0  0  0  0  0  0  0  0
    4.8365   -3.2332   -3.2121 C   0  0  0  0  0  0  0  0  0  0  0  0
    4.4545   -1.7833   -3.3421 C   0  0  0  0  0  0  0  0  0  0  0  0
    6.0459   -3.4345   -0.6041 O   0  0  0  0  0  0  0  0  0  0  0  0
    4.5937    0.3761    0.1188 C   0  0  0  0  0  0  0  0  0  0  0  0
    5.2723    0.4315    1.4163 C   0  0  0  0  0  0  0  0  0  0  0  0
    4.4213    0.6821    2.6300 C   0  0  0  0  0  0  0  0  0  0  0  0
    4.5942    2.1265    3.1264 C   0  0  0  0  0  0  0  0  0  0  0  0
    5.9879    2.3630    3.6588 C   0  0  0  0  0  0  0  0  0  0  0  0
    6.9703    1.7671    2.6812 C   0  0  0  0  0  0  0  0  0  0  0  0
    6.2808    1.5776    1.3495 C   0  0  0  0  0  0  0  0  0  0  0  0
   -2.9681    4.2144    1.7171 O   0  0  0  0  0  0  0  0  0  0  0  0
   -4.2302    2.6821    1.5542 S   0  0  0  0  0  0  0  0  0  0  0  0
   -4.9345    2.8394    2.7863 O   0  0  0  0  0  0  0  0  0  0  0  0
   -5.0032    3.3176    0.1553 C   0  0  0  0  0  0  0  0  0  0  0  0
   -4.0943    3.4143   -1.0444 C   0  0  0  0  0  0  0  0  0  0  0  0
   -6.2667    2.6213   -0.1774 C   0  0  0  0  0  0  0  0  0  0  0  0
   -5.4160    4.7999    0.4096 C   0  0  0  0  0  0  0  0  0  0  0  0
   -3.0319    1.5861    1.2548 C   0  0  0  0  0  0  0  0  0  0  0  0
   -3.2726    0.1155    1.0647 C   0  0  1  0  0  0  0  0  0  0  0  0
   -4.1046   -0.3313   -0.0163 C   0  0  0  0  0  0  0  0  0  0  0  0
   -4.4681   -1.7353   -0.2915 C   0  0  0  0  0  0  0  0  0  0  0  0
   -3.5177   -2.7885   -0.5941 C   0  0  0  0  0  0  0  0  0  0  0  0
   -3.2152   -3.8347    0.4363 C   0  0  0  0  0  0  0  0  0  0  0  0
   -4.2022   -3.8844    1.5698 C   0  0  0  0  0  0  0  0  0  0  0  0
   -5.5790   -3.6379    0.9315 C   0  0  0  0  0  0  0  0  0  0  0  0
   -5.6166   -2.1728    0.6635 C   0  0  0  0  0  0  0  0  0  0  0  0
   -1.8429   -0.4724    1.0117 C   0  0  0  0  0  0  0  0  0  0  0  0
   -1.2636   -0.1783    2.2938 O   0  0  0  0  0  0  0  0  0  0  0  0
   -1.0389    0.2435    0.0443 N   0  0  0  0  0  0  0  0  0  0  0  0
    0.1501   -0.6006   -0.2724 C   0  0  1  0  0  0  0  0  0  0  0  0
    0.5876   -0.4831   -1.6751 C   0  0  0  0  0  0  0  0  0  0  0  0
   -0.3834   -0.7677   -2.7791 C   0  0  0  0  0  0  0  0  0  0  0  0
   -1.5324    0.1463   -2.8144 C   0  0  0  0  0  0  0  0  0  0  0  0
   -1.1764    1.1437   -3.8475 N   0  0  0  0  0  0  0  0  0  0  0  0
    0.1607    0.8290   -4.2530 C   0  0  0  0  0  0  0  0  0  0  0  0
    0.3052   -0.5929   -4.0381 N   0  0  0  0  0  0  0  0  0  0  0  0
    1.2605   -0.1039    0.6329 C   0  0  0  0  0  0  0  0  0  0  0  0
    1.4019    1.3209    0.2953 O   0  0  0  0  0  0  0  0  0  0  0  0
    2.4877   -0.6632    0.7914 N   0  0  0  0  0  0  0  0  0  0  0  0
    3.5530   -0.7002   -0.1178 C   0  0  2  0  0  0  0  0  0  0  0  0
    4.1356   -2.0623   -0.2677 C   0  0  1  0  0  0  0  0  0  0  0  0
    3.1864   -2.9753   -0.6955 O   0  0  0  0  0  0  0  0  0  0  0  0
    5.4587   -2.1534   -0.9290 C   0  0  2  0  0  0  0  0  0  0  0  0
    5.5200   -2.1316   -2.4162 C   0  0  0  0  0  0  0  0  0  0  0  0
    4.8365   -3.2332   -3.2121 C   0  0  0  0  0  0  0  0  0  0  0  0
    4.4545   -1.7833   -3.3421 C   0  0  0  0  0  0  0  0  0  0  0  0
    6.0459   -3.4345   -0.6041 O   0  0  0  0  0  0  0  0  0  0  0  0
    4.5937    0.3761    0.1188 C   0  0  0  0  0  0  0  0  0  0  0  0
    5.2723    0.4315    1.4163 C   0  0  0  0  0  0  0  0  0  0  0  0
    4.4213    0.6821    2.6300 C   0  0  0  0  0  0  0  0  0  0  0  0
    4.5942    2.1265    3.1264 C   0  0  0  0  0  0  0  0  0  0  0  0
    5.9879    2.3630    3.6588 C   0  0  0  0  0  0  0  0  0  0  0  0
    6.9703    1.7671    2.6812 C   0  0  0  0  0  0  0  0  0  0  0  0
    6.2808    1.5776    1.3495 C   0  0  0  0  0  0  0  0  0  0  0  0
   -3.5936    4.7607    2.2237 H   0  0  0  0  0  0  0  0  0  0  0  0
   -5.0741    2.2929    3.5964 H   0  0  0  0  0  0  0  0  0  0  0  0
   -3.9928    2.4254   -1.5440 H   0  0  0  0  0  0  0  0  0  0  0  0
   -3.1500    3.8472   -0.7190 H   0  0  0  0  0  0  0  0  0  0  0  0
   -4.5787    4.1308   -1.7668 H   0  0  0  0  0  0  0  0  0  0  0  0
   -6.6284    1.9459    0.6353 H   0  0  0  0  0  0  0  0  0  0  0  0
   -7.1075    3.3495   -0.3413 H   0  0  0  0  0  0  0  0  0  0  0  0
   -6.1085    2.0486   -1.1369 H   0  0  0  0  0  0  0  0  0  0  0  0
   -6.0065    4.7983    1.3408 H   0  0  0  0  0  0  0  0  0  0  0  0
   -6.0018    5.1185   -0.4610 H   0  0  0  0  0  0  0  0  0  0  0  0
   -4.4567    5.3349    0.5141 H   0  0  0  0  0  0  0  0  0  0  0  0
   -2.2235    1.6318    2.0608 H   0  0  0  0  0  0  0  0  0  0  0  0
   -2.4614    1.9009    0.3084 H   0  0  0  0  0  0  0  0  0  0  0  0
   -3.7321   -0.2073    2.0561 H   0  0  0  0  0  0  0  0  0  0  0  0
   -5.1416    0.1761    0.1035 H   0  0  0  0  0  0  0  0  0  0  0  0
   -3.7838    0.1184   -1.0063 H   0  0  0  0  0  0  0  0  0  0  0  0
   -5.1053   -1.6243   -1.2653 H   0  0  0  0  0  0  0  0  0  0  0  0
   -3.9446   -3.4198   -1.4797 H   0  0  0  0  0  0  0  0  0  0  0  0
   -2.5793   -2.4363   -1.0378 H   0  0  0  0  0  0  0  0  0  0  0  0
   -3.2641   -4.8651   -0.0313 H   0  0  0  0  0  0  0  0  0  0  0  0
   -2.1969   -3.8065    0.8594 H   0  0  0  0  0  0  0  0  0  0  0  0
   -4.1866   -4.8392    2.1121 H   0  0  0  0  0  0  0  0  0  0  0  0
   -4.0372   -3.0320    2.2595 H   0  0  0  0  0  0  0  0  0  0  0  0
   -6.4004   -3.9015    1.6113 H   0  0  0  0  0  0  0  0  0  0  0  0
   -5.6207   -4.1913   -0.0289 H   0  0  0  0  0  0  0  0  0  0  0  0
   -5.3575   -1.6572    1.6390 H   0  0  0  0  0  0  0  0  0  0  0  0
   -6.5803   -1.7695    0.3639 H   0  0  0  0  0  0  0  0  0  0  0  0
   -1.7667   -1.5126    0.8679 H   0  0  0  0  0  0  0  0  0  0  0  0
   -1.3782   -0.9586    2.8895 H   0  0  0  0  0  0  0  0  0  0  0  0
   -0.6445    1.1243    0.4241 H   0  0  0  0  0  0  0  0  0  0  0  0
   -0.0405   -1.6542   -0.0311 H   0  0  0  0  0  0  0  0  0  0  0  0
    1.3526   -1.3234   -1.8111 H   0  0  0  0  0  0  0  0  0  0  0  0
    1.1086    0.4477   -1.9077 H   0  0  0  0  0  0  0  0  0  0  0  0
   -0.6852   -1.8568   -2.7797 H   0  0  0  0  0  0  0  0  0  0  0  0
   -1.7518    0.7436   -1.9264 H   0  0  0  0  0  0  0  0  0  0  0  0
   -2.4650   -0.3392   -3.2164 H   0  0  0  0  0  0  0  0  0  0  0  0
   -1.8427    1.1711   -4.6217 H   0  0  0  0  0  0  0  0  0  0  0  0
    0.9313    1.3768   -3.6698 H   0  0  0  0  0  0  0  0  0  0  0  0
    0.3743    1.0567   -5.3236 H   0  0  0  0  0  0  0  0  0  0  0  0
    1.2807   -0.9021   -3.9793 H   0  0  0  0  0  0  0  0  0  0  0  0
    0.7770   -0.0148    1.6620 H   0  0  0  0  0  0  0  0  0  0  0  0
    1.4965    1.8330    1.1285 H   0  0  0  0  0  0  0  0  0  0  0  0
    2.5160   -1.4651    1.4979 H   0  0  0  0  0  0  0  0  0  0  0  0
    3.1540   -0.4136   -1.1335 H   0  0  0  0  0  0  0  0  0  0  0  0
    4.3411   -2.4444    0.8127 H   0  0  0  0  0  0  0  0  0  0  0  0
    2.4868   -3.0716   -0.0041 H   0  0  0  0  0  0  0  0  0  0  0  0
    6.1514   -1.4090   -0.5282 H   0  0  0  0  0  0  0  0  0  0  0  0
    6.5779   -1.9487   -2.7831 H   0  0  0  0  0  0  0  0  0  0  0  0
    5.3990   -3.7230   -4.0463 H   0  0  0  0  0  0  0  0  0  0  0  0
    4.1996   -3.9535   -2.6781 H   0  0  0  0  0  0  0  0  0  0  0  0
    4.7640   -1.3569   -4.3511 H   0  0  0  0  0  0  0  0  0  0  0  0
    3.4344   -1.4743   -3.1264 H   0  0  0  0  0  0  0  0  0  0  0  0
    6.8893   -3.3144   -0.1174 H   0  0  0  0  0  0  0  0  0  0  0  0
    4.0466    1.3685    0.0017 H   0  0  0  0  0  0  0  0  0  0  0  0
    5.3307    0.4026   -0.7082 H   0  0  0  0  0  0  0  0  0  0  0  0
    5.9434   -0.4553    1.6102 H   0  0  0  0  0  0  0  0  0  0  0  0
    3.3631    0.4697    2.5396 H   0  0  0  0  0  0  0  0  0  0  0  0
    4.7904    0.0448    3.4736 H   0  0  0  0  0  0  0  0  0  0  0  0
    3.8436    2.3353    3.9261 H   0  0  0  0  0  0  0  0  0  0  0  0
    4.3876    2.8328    2.3143 H   0  0  0  0  0  0  0  0  0  0  0  0
    6.2217    3.4464    3.7250 H   0  0  0  0  0  0  0  0  0  0  0  0
    6.1102    1.8837    4.6756 H   0  0  0  0  0  0  0  0  0  0  0  0
    7.3968    0.8204    3.0514 H   0  0  0  0  0  0  0  0  0  0  0  0
    7.8355    2.4524    2.5263 H   0  0  0  0  0  0  0  0  0  0  0  0
    7.0573    1.2883    0.5660 H   0  0  0  0  0  0  0  0  0  0  0  0
    5.8204    2.4866    0.9794 H   0  0  0  0  0  0  0  0  0  0  0  0
   -3.5936    4.7607    2.2237 H   0  0  0  0  0  0  0  0  0  0  0  0
   -5.0741    2.2929    3.5964 H   0  0  0  0  0  0  0  0  0  0  0  0
   -3.9928    2.4254   -1.5440 H   0  0  0  0  0  0  0  0  0  0  0  0
   -3.1500    3.8472   -0.7190 H   0  0  0  0  0  0  0  0  0  0  0  0
   -4.5787    4.1308   -1.7668 H   0  0  0  0  0  0  0  0  0  0  0  0
   -6.6284    1.9459    0.6353 H   0  0  0  0  0  0  0  0  0  0  0  0
   -7.1075    3.3495   -0.3413 H   0  0  0  0  0  0  0  0  0  0  0  0
   -6.1085    2.0486   -1.1369 H   0  0  0  0  0  0  0  0  0  0  0  0
   -6.0065    4.7983    1.3408 H   0  0  0  0  0  0  0  0  0  0  0  0
   -6.0018    5.1185   -0.4610 H   0  0  0  0  0  0  0  0  0  0  0  0
   -4.4567    5.3349    0.5141 H   0  0  0  0  0  0  0  0  0  0  0  0
   -2.2235    1.6318    2.0608 H   0  0  0  0  0  0  0  0  0  0  0  0
   -2.4614    1.9009    0.3084 H   0  0  0  0  0  0  0  0  0  0  0  0
   -3.7321   -0.2073    2.0561 H   0  0  0  0  0  0  0  0  0  0  0  0
   -5.1416    0.1761    0.1035 H   0  0  0  0  0  0  0  0  0  0  0  0
   -3.7838    0.1184   -1.0063 H   0  0  0  0  0  0  0  0  0  0  0  0
   -5.1053   -1.6243   -1.2653 H   0  0  0  0  0  0  0  0  0  0  0  0
   -3.9446   -3.4198   -1.4797 H   0  0  0  0  0  0  0  0  0  0  0  0
   -2.5793   -2.4363   -1.0378 H   0  0  0  0  0  0  0  0  0  0  0  0
   -3.2641   -4.8651   -0.0313 H   0  0  0  0  0  0  0  0  0  0  0  0
   -2.1969   -3.8065    0.8594 H   0  0  0  0  0  0  0  0  0  0  0  0
   -4.1866   -4.8392    2.1121 H   0  0  0  0  0  0  0  0  0  0  0  0
   -4.0372   -3.0320    2.2595 H   0  0  0  0  0  0  0  0  0  0  0  0
   -6.4004   -3.9015    1.6113 H   0  0  0  0  0  0  0  0  0  0  0  0
   -5.6207   -4.1913   -0.0289 H   0  0  0  0  0  0  0  0  0  0  0  0
   -5.3575   -1.6572    1.6390 H   0  0  0  0  0  0  0  0  0  0  0  0
   -6.5803   -1.7695    0.3639 H   0  0  0  0  0  0  0  0  0  0  0  0
   -1.7667   -1.5126    0.8679 H   0  0  0  0  0  0  0  0  0  0  0  0
   -1.3782   -0.9586    2.8895 H   0  0  0  0  0  0  0  0  0  0  0  0
   -0.6445    1.1243    0.4241 H   0  0  0  0  0  0  0  0  0  0  0  0
   -0.0405   -1.6542   -0.0311 H   0  0  0  0  0  0  0  0  0  0  0  0
    1.3526   -1.3234   -1.8111 H   0  0  0  0  0  0  0  0  0  0  0  0
    1.1086    0.4477   -1.9077 H   0  0  0  0  0  0  0  0  0  0  0  0
   -0.6852   -1.8568   -2.7797 H   0  0  0  0  0  0  0  0  0  0  0  0
   -1.7518    0.7436   -1.9264 H   0  0  0  0  0  0  0  0  0  0  0  0
   -2.4650   -0.3392   -3.2164 H   0  0  0  0  0  0  0  0  0  0  0  0
   -1.8427    1.1711   -4.6217 H   0  0  0  0  0  0  0  0  0  0  0  0
    0.9313    1.3768   -3.6698 H   0  0  0  0  0  0  0  0  0  0  0  0
    0.3743    1.0567   -5.3236 H   0  0  0  0  0  0  0  0  0  0  0  0
    1.2807   -0.9021   -3.9793 H   0  0  0  0  0  0  0  0  0  0  0  0
    0.7770   -0.0148    1.6620 H   0  0  0  0  0  0  0  0  0  0  0  0
    1.4965    1.8330    1.1285 H   0  0  0  0  0  0  0  0  0  0  0  0
    2.5160   -1.4651    1.4979 H   0  0  0  0  0  0  0  0  0  0  0  0
    3.1540   -0.4136   -1.1335 H   0  0  0  0  0  0  0  0  0  0  0  0
    4.3411   -2.4444    0.8127 H   0  0  0  0  0  0  0  0  0  0  0  0
    2.4868   -3.0716   -0.0041 H   0  0  0  0  0  0  0  0  0  0  0  0
    6.1514   -1.4090   -0.5282 H   0  0  0  0  0  0  0  0  0  0  0  0
    6.5779   -1.9487   -2.7831 H   0  0  0  0  0  0  0  0  0  0  0  0
    5.3990   -3.7230   -4.0463 H   0  0  0  0  0  0  0  0  0  0  0  0
    4.1996   -3.9535   -2.6781 H   0  0  0  0  0  0  0  0  0  0  0  0
    4.7640   -1.3569   -4.3511 H   0  0  0  0  0  0  0  0  0  0  0  0
    3.4344   -1.4743   -3.1264 H   0  0  0  0  0  0  0  0  0  0  0  0
    6.8893   -3.3144   -0.1174 H   0  0  0  0  0  0  0  0  0  0  0  0
    4.0466    1.3685    0.0017 H   0  0  0  0  0  0  0  0  0  0  0  0
    5.3307    0.4026   -0.7082 H   0  0  0  0  0  0  0  0  0  0  0  0
    5.9434   -0.4553    1.6102 H   0  0  0  0  0  0  0  0  0  0  0  0
    3.3631    0.4697    2.5396 H   0  0  0  0  0  0  0  0  0  0  0  0
    4.7904    0.0448    3.4736 H   0  0  0  0  0  0  0  0  0  0  0  0
    3.8436    2.3353    3.9261 H   0  0  0  0  0  0  0  0  0  0  0  0
    4.3876    2.8328    2.3143 H   0  0  0  0  0  0  0  0  0  0  0  0
    6.2217    3.4464    3.7250 H   0  0  0  0  0  0  0  0  0  0  0  0
    6.1102    1.8837    4.6756 H   0  0  0  0  0  0  0  0  0  0  0  0
    7.3968    0.8204    3.0514 H   0  0  0  0  0  0  0  0  0  0  0  0
    7.8355    2.4524    2.5263 H   0  0  0  0  0  0  0  0  0  0  0  0
    7.0573    1.2883    0.5660 H   0  0  0  0  0  0  0  0  0  0  0  0
    5.8204    2.4866    0.9794 H   0  0  0  0  0  0  0  0  0  0  0  0
  2  1  1  0
  2  3  1  0
  2  4  1  0
  4  5  1  0
  4  6  1  0
  4  7  1  0
  2  8  1  0
  8  9  1  0
  9 10  1  0
 10 11  1  0
 11 12  1  0
 12 13  1  0
 13 14  1  0
 14 15  1  0
 11 16  1  0
 15 16  1  0
  9 17  1  0
 17 18  1  0
 17 19  1  0
 19 20  1  0
 20 21  1  0
 21 22  1  0
 22 23  1  0
 23 24  1  0
 24 25  1  0
 22 26  1  0
 25 26  1  0
 20 27  1  0
 27 28  1  0
 27 29  1  0
 29 30  1  0
 30 31  1  0
 31 32  1  0
 31 33  1  0
 33 34  1  0
 34 35  1  0
 34 36  1  0
 35 36  1  0
 33 37  1  0
 30 38  1  0
 38 39  1  0
 39 40  1  0
 40 41  1  0
 41 42  1  0
 42 43  1  0
 39 44  1  0
 43 44  1  0
 46 45  1  0
 46 47  1  0
 46 48  1  0
 48 49  1  0
 48 50  1  0
 48 51  1  0
 46 52  1  0
 52 53  1  0
 53 54  1  0
 54 55  1  0
 55 56  1  0
 56 57  1  0
 57 58  1  0
 58 59  1  0
 55 60  1  0
 59 60  1  0
 53 61  1  0
 61 62  1  0
 61 63  1  0
 63 64  1  0
 64 65  1  0
 65 66  1  0
 66 67  1  0
 67 68  1  0
 68 69  1  0
 66 70  1  0
 69 70  1  0
 64 71  1  0
 71 72  1  0
 71 73  1  0
 73 74  1  0
 74 75  1  0
 75 76  1  0
 75 77  1  0
 77 78  1  0
 78 79  1  0
 78 80  1  0
 79 80  1  0
 77 81  1  0
 74 82  1  0
 82 83  1  0
 83 84  1  0
 84 85  1  0
 85 86  1  0
 86 87  1  0
 83 88  1  0
 87 88  1  0
  1 89  1  0
  3 90  1  0
  5 91  1  0
  5 92  1  0
  5 93  1  0
  6 94  1  0
  6 95  1  0
  6 96  1  0
  7 97  1  0
  7 98  1  0
  7 99  1  0
  8100  1  0
  8101  1  0
  9102  1  1
 10103  1  0
 10104  1  0
 11105  1  0
 12106  1  0
 12107  1  0
 13108  1  0
 13109  1  0
 14110  1  0
 14111  1  0
 15112  1  0
 15113  1  0
 16114  1  0
 16115  1  0
 17116  1  0
 18117  1  0
 19118  1  0
 20119  1  1
 21120  1  0
 21121  1  0
 22122  1  0
 23123  1  0
 23124  1  0
 24125  1  0
 25126  1  0
 25127  1  0
 26128  1  0
 27129  1  0
 28130  1  0
 29131  1  0
 30132  1  6
 31133  1  1
 32134  1  0
 33135  1  1
 34136  1  0
 35137  1  0
 35138  1  0
 36139  1  0
 36140  1  0
 37141  1  0
 38142  1  0
 38143  1  0
 39144  1  0
 40145  1  0
 40146  1  0
 41147  1  0
 41148  1  0
 42149  1  0
 42150  1  0
 43151  1  0
 43152  1  0
 44153  1  0
 44154  1  0
 45155  1  0
 47156  1  0
 49157  1  0
 49158  1  0
 49159  1  0
 50160  1  0
 50161  1  0
 50162  1  0
 51163  1  0
 51164  1  0
 51165  1  0
 52166  1  0
 52167  1  0
 53168  1  1
 54169  1  0
 54170  1  0
 55171  1  0
 56172  1  0
 56173  1  0
 57174  1  0
 57175  1  0
 58176  1  0
 58177  1  0
 59178  1  0
 59179  1  0
 60180  1  0
 60181  1  0
 61182  1  0
 62183  1  0
 63184  1  0
 64185  1  1
 65186  1  0
 65187  1  0
 66188  1  0
 67189  1  0
 67190  1  0
 68191  1  0
 69192  1  0
 69193  1  0
 70194  1  0
 71195  1  0
 72196  1  0
 73197  1  0
 74198  1  6
 75199  1  1
 76200  1  0
 77201  1  1
 78202  1  0
 79203  1  0
 79204  1  0
 80205  1  0
 80206  1  0
 81207  1  0
 82208  1  0
 82209  1  0
 83210  1  0
 84211  1  0
 84212  1  0
 85213  1  0
 85214  1  0
 86215  1  0
 86216  1  0
 87217  1  0
 87218  1  0
 88219  1  0
 88220  1  0
M  END
>  <PDBID>  (1) 
3D91

>  <PDB ID>  (1) 
3D91

>  <Generic Name>  (1) 
Remikiren

>  <Brand Name>  (1) 
nan

>  <DrugBank ID>  (1) 
DB00212

>  <ATC Codes>  (1) 
C09XA01

>  <Ligand ID>  (1) 
REM

>  <Target Name>  (1) 
Renin

>  <UniProt ID>  (1) 
P00797

>  <PDB ID.1>  (1) 
3D91

>  <Seq. Identity>  (1) 
100%

$$$$
