PDB_DB00615_05
     RDKit          3D

294304  0  0  0  0  0  0  0  0999 V2000
    3.2870   -1.8632   -2.1071 C   0  0  0  0  0  0  0  0  0  0  0  0
    3.1072   -2.3867   -0.6963 C   0  0  0  0  0  0  0  0  0  0  0  0
    3.5975   -1.3223    0.2540 C   0  0  0  0  0  0  0  0  0  0  0  0
    2.9131   -0.0089    0.0742 C   0  0  2  0  0  0  0  0  0  0  0  0
    1.5243    1.4090   -1.4128 C   0  0  0  0  0  0  0  0  0  0  0  0
    1.3840    1.9759   -2.7866 C   0  0  0  0  0  0  0  0  0  0  0  0
    1.6239    1.0451   -3.9087 C   0  0  0  0  0  0  0  0  0  0  0  0
    2.3577   -0.2035   -3.6339 C   0  0  0  0  0  0  0  0  0  0  0  0
    2.2369   -0.7499   -2.2501 C   0  0  0  0  0  0  0  0  0  0  0  0
    2.5844    0.3781   -1.3096 C   0  0  0  0  0  0  0  0  0  0  0  0
    0.1292    0.9579   -1.1330 C   0  0  2  0  0  0  0  0  0  0  0  0
   -0.6248    2.1400   -1.7728 C   0  0  2  0  0  0  0  0  0  0  0  0
   -1.9780    1.6439   -2.2202 C   0  0  0  0  0  0  0  0  0  0  0  0
    0.3247    0.6751   -4.6409 C   0  0  0  0  0  0  0  0  0  0  0  0
    1.6027   -4.0500    0.1362 C   0  0  0  0  0  0  0  0  0  0  0  0
    0.3415   -4.2110    0.9474 C   0  0  0  0  0  0  0  0  0  0  0  0
   -0.8356   -4.4284    0.0232 C   0  0  0  0  0  0  0  0  0  0  0  0
   -2.0509   -4.9153    0.7577 C   0  0  0  0  0  0  0  0  0  0  0  0
   -3.3381   -4.4387    0.0929 C   0  0  0  0  0  0  0  0  0  0  0  0
   -4.2871   -3.8321    1.0829 C   0  0  1  0  0  0  0  0  0  0  0  0
   -4.9649   -2.5866    0.5560 C   0  0  1  0  0  0  0  0  0  0  0  0
   -4.3927   -1.3245    1.1674 C   0  0  2  0  0  0  0  0  0  0  0  0
   -5.4474   -0.3221    1.4930 C   0  0  2  0  0  0  0  0  0  0  0  0
   -5.4190    0.9168    0.6621 C   0  0  2  0  0  0  0  0  0  0  0  0
   -5.8031    2.1455    1.4966 C   0  0  1  0  0  0  0  0  0  0  0  0
   -4.5817    2.9155    1.9273 C   0  0  1  0  0  0  0  0  0  0  0  0
   -3.9518    3.6985    0.7936 C   0  0  2  0  0  0  0  0  0  0  0  0
   -2.4472    3.4532    0.7463 C   0  0  0  0  0  0  0  0  0  0  0  0
   -1.9061    3.7198   -0.6416 C   0  0  0  0  0  0  0  0  0  0  0  0
    0.1058   -3.0906    1.9133 C   0  0  0  0  0  0  0  0  0  0  0  0
   -5.3031   -4.8691    1.4814 C   0  0  0  0  0  0  0  0  0  0  0  0
   -3.3205   -0.8217    0.2451 C   0  0  0  0  0  0  0  0  0  0  0  0
   -6.5280    0.7725   -0.3885 C   0  0  0  0  0  0  0  0  0  0  0  0
   -4.9513    3.8546    3.0545 C   0  0  0  0  0  0  0  0  0  0  0  0
   -7.9561    2.9920    1.4576 C   0  0  0  0  0  0  0  0  0  0  0  0
   -8.3320    4.4103    1.7765 C   0  0  0  0  0  0  0  0  0  0  0  0
   -4.8879    5.5988   -0.1480 C   0  0  0  0  0  0  0  0  0  0  0  0
    5.1916    0.3510    0.4317 C   0  0  0  0  0  0  0  0  0  0  0  0
    5.9085    0.4349    1.7658 C   0  0  0  0  0  0  0  0  0  0  0  0
    6.0583    1.0308   -0.5869 C   0  0  0  0  0  0  0  0  0  0  0  0
    7.3136   -0.1288    1.6938 C   0  0  0  0  0  0  0  0  0  0  0  0
    7.3519    1.5524   -0.0314 C   0  0  0  0  0  0  0  0  0  0  0  0
    9.0483   -0.1619    0.0247 C   0  0  0  0  0  0  0  0  0  0  0  0
   10.1342   -0.6065    1.0099 C   0  0  0  0  0  0  0  0  0  0  0  0
   10.7932    0.6100    1.6162 C   0  0  0  0  0  0  0  0  0  0  0  0
   11.1647   -1.4153    0.2552 C   0  0  0  0  0  0  0  0  0  0  0  0
    1.7528   -2.7359   -0.4148 N   0  0  0  0  0  0  0  0  0  0  0  0
    4.9932   -1.0415    0.0857 N   0  0  0  0  0  0  0  0  0  0  0  0
    3.9013    0.9468    0.5995 N   0  0  0  0  0  0  0  0  0  0  0  0
    8.0864    0.6120    0.7476 N   0  0  0  0  0  0  0  0  0  0  0  0
    2.9111   -2.8689   -2.9776 O   0  0  0  0  0  0  0  0  0  0  0  0
    1.9953   -1.1630   -4.6068 O   0  0  0  0  0  0  0  0  0  0  0  0
    0.0946    2.4929   -2.8894 O   0  0  0  0  0  0  0  0  0  0  0  0
   -0.1566    0.8262    0.2087 O   0  0  0  0  0  0  0  0  0  0  0  0
   -0.6757    3.1358   -0.8436 O   0  0  0  0  0  0  0  0  0  0  0  0
   -4.2493    5.0314    0.9261 O   0  0  0  0  0  0  0  0  0  0  0  0
   -6.7347    2.9234    0.8313 O   0  0  0  0  0  0  0  0  0  0  0  0
   -8.9836    2.4730    0.6399 O   0  0  0  0  0  0  0  0  0  0  0  0
   -5.3281    0.0534    2.8397 O   0  0  0  0  0  0  0  0  0  0  0  0
   -4.8985   -2.5779   -0.8320 O   0  0  0  0  0  0  0  0  0  0  0  0
    2.6859   -4.3940    0.9155 O   0  0  0  0  0  0  0  0  0  0  0  0
    1.0610   -0.4623    1.0146 C   0  0  0  0  0  0  0  0  0  0  0  0
    1.8448   -1.2013    0.0009 C   0  0  0  0  0  0  0  0  0  0  0  0
    3.1353   -0.6712   -0.4533 C   0  0  1  0  0  0  0  0  0  0  0  0
    3.7217    0.2555    0.5721 C   0  0  2  0  0  0  0  0  0  0  0  0
    2.5306    2.4584    0.1764 C   0  0  0  0  0  0  0  0  0  0  0  0
    1.7639    3.5080    0.9274 C   0  0  0  0  0  0  0  0  0  0  0  0
    0.9910    3.0625    2.0948 C   0  0  0  0  0  0  0  0  0  0  0  0
    0.6655    1.6295    2.2267 C   0  0  0  0  0  0  0  0  0  0  0  0
    1.6983    0.6556    1.7486 C   0  0  0  0  0  0  0  0  0  0  0  0
    2.8503    1.3312    1.0465 C   0  0  1  0  0  0  0  0  0  0  0  0
    1.7833    2.2940   -1.0647 C   0  0  0  0  0  0  0  0  0  0  0  0
    0.6477    3.3050   -1.0217 C   0  0  2  0  0  0  0  0  0  0  0  0
    0.5325    4.0710   -2.3476 C   0  0  0  0  0  0  0  0  0  0  0  0
    1.5826    3.5723    3.4199 C   0  0  0  0  0  0  0  0  0  0  0  0
    1.3207   -3.5104   -0.5212 C   0  0  0  0  0  0  0  0  0  0  0  0
   -0.1639   -3.4871   -0.3551 C   0  0  0  0  0  0  0  0  0  0  0  0
   -0.6730   -4.8749    0.0489 C   0  0  0  0  0  0  0  0  0  0  0  0
   -1.8999   -4.6689    0.8947 C   0  0  0  0  0  0  0  0  0  0  0  0
   -3.1718   -5.1561    0.2438 C   0  0  0  0  0  0  0  0  0  0  0  0
   -4.3479   -4.3405    0.7390 C   0  0  1  0  0  0  0  0  0  0  0  0
   -5.1394   -3.6922   -0.3479 C   0  0  1  0  0  0  0  0  0  0  0  0
   -4.7774   -2.2297   -0.5757 C   0  0  2  0  0  0  0  0  0  0  0  0
   -5.7910   -1.3057    0.0442 C   0  0  2  0  0  0  0  0  0  0  0  0
   -6.0480   -0.0543   -0.7524 C   0  0  2  0  0  0  0  0  0  0  0  0
   -6.0629    1.1892    0.0938 C   0  0  1  0  0  0  0  0  0  0  0  0
   -4.7233    1.6333    0.5456 C   0  0  1  0  0  0  0  0  0  0  0  0
   -4.0585    2.7274   -0.2176 C   0  0  2  0  0  0  0  0  0  0  0  0
   -2.6024    2.7451    0.2713 C   0  0  0  0  0  0  0  0  0  0  0  0
   -1.6709    3.3625   -0.7575 C   0  0  0  0  0  0  0  0  0  0  0  0
   -0.9060   -3.1517   -1.6353 C   0  0  0  0  0  0  0  0  0  0  0  0
   -5.2813   -5.1990    1.5707 C   0  0  0  0  0  0  0  0  0  0  0  0
   -4.5599   -2.0279   -2.0373 C   0  0  0  0  0  0  0  0  0  0  0  0
   -7.4277   -0.1989   -1.3631 C   0  0  0  0  0  0  0  0  0  0  0  0
   -4.7199    1.9000    2.0479 C   0  0  0  0  0  0  0  0  0  0  0  0
   -7.9982    2.4867    0.0706 C   0  0  0  0  0  0  0  0  0  0  0  0
   -7.9676    3.9688    0.4916 C   0  0  0  0  0  0  0  0  0  0  0  0
   -4.8961    4.6074   -1.3537 C   0  0  0  0  0  0  0  0  0  0  0  0
    5.4240   -0.7872   -0.4156 C   0  0  0  0  0  0  0  0  0  0  0  0
    6.3455   -1.4225    0.5838 C   0  0  0  0  0  0  0  0  0  0  0  0
    6.1572   -0.6891   -1.7177 C   0  0  0  0  0  0  0  0  0  0  0  0
    7.6723   -0.7644    0.7044 C   0  0  0  0  0  0  0  0  0  0  0  0
    7.3627    0.1669   -1.5208 C   0  0  0  0  0  0  0  0  0  0  0  0
    9.5370   -0.6064   -0.8037 C   0  0  0  0  0  0  0  0  0  0  0  0
   10.4765   -0.0873    0.2740 C   0  0  0  0  0  0  0  0  0  0  0  0
   10.4450    1.4173    0.3617 C   0  0  0  0  0  0  0  0  0  0  0  0
   11.9014   -0.5110    0.0137 C   0  0  0  0  0  0  0  0  0  0  0  0
    2.0301   -2.6160    0.3483 N   0  0  0  0  0  0  0  0  0  0  0  0
    4.2385   -1.6302   -0.4886 N   0  0  0  0  0  0  0  0  0  0  0  0
    4.9814    0.5468    0.0104 N   0  0  0  0  0  0  0  0  0  0  0  0
    8.2143   -0.1679   -0.4500 N   0  0  0  0  0  0  0  0  0  0  0  0
   -0.2237   -0.0878    0.5277 O   0  0  0  0  0  0  0  0  0  0  0  0
    0.3517    1.4109    3.5948 O   0  0  0  0  0  0  0  0  0  0  0  0
    0.9698    4.1727   -0.0191 O   0  0  0  0  0  0  0  0  0  0  0  0
    2.5417    2.6424   -2.2122 O   0  0  0  0  0  0  0  0  0  0  0  0
   -0.5259    2.6296   -0.8699 O   0  0  0  0  0  0  0  0  0  0  0  0
   -4.6258    3.9470   -0.2155 O   0  0  0  0  0  0  0  0  0  0  0  0
   -6.8264    2.1459   -0.5566 O   0  0  0  0  0  0  0  0  0  0  0  0
   -9.1009    2.3957   -0.7780 O   0  0  0  0  0  0  0  0  0  0  0  0
   -5.3567   -1.0430    1.3448 O   0  0  0  0  0  0  0  0  0  0  0  0
   -5.0877   -4.4072   -1.5542 O   0  0  0  0  0  0  0  0  0  0  0  0
    1.8019   -4.7941   -0.2796 O   0  0  0  0  0  0  0  0  0  0  0  0
    4.3004   -1.4930   -2.2342 H   0  0  0  0  0  0  0  0  0  0  0  0
    3.7543   -3.2758   -0.5652 H   0  0  0  0  0  0  0  0  0  0  0  0
    3.4399   -1.6564    1.3003 H   0  0  0  0  0  0  0  0  0  0  0  0
    2.0247    0.0765    0.7328 H   0  0  0  0  0  0  0  0  0  0  0  0
    1.7491    2.2398   -0.6959 H   0  0  0  0  0  0  0  0  0  0  0  0
    2.0639    2.8772   -2.8338 H   0  0  0  0  0  0  0  0  0  0  0  0
    2.2089    1.6156   -4.6935 H   0  0  0  0  0  0  0  0  0  0  0  0
    3.4605   -0.0371   -3.8164 H   0  0  0  0  0  0  0  0  0  0  0  0
    1.2816   -1.2457   -2.0267 H   0  0  0  0  0  0  0  0  0  0  0  0
    3.5164    0.8429   -1.7568 H   0  0  0  0  0  0  0  0  0  0  0  0
   -0.2103    0.0810   -1.6874 H   0  0  0  0  0  0  0  0  0  0  0  0
   -1.8137    0.6400   -2.6859 H   0  0  0  0  0  0  0  0  0  0  0  0
   -2.4057    2.2765   -3.0387 H   0  0  0  0  0  0  0  0  0  0  0  0
   -2.6733    1.4819   -1.3905 H   0  0  0  0  0  0  0  0  0  0  0  0
   -0.1444   -0.2073   -4.2087 H   0  0  0  0  0  0  0  0  0  0  0  0
   -0.3106    1.5725   -4.6744 H   0  0  0  0  0  0  0  0  0  0  0  0
    0.5750    0.4388   -5.7086 H   0  0  0  0  0  0  0  0  0  0  0  0
    1.5070   -4.7589   -0.7337 H   0  0  0  0  0  0  0  0  0  0  0  0
    0.4522   -5.1445    1.5466 H   0  0  0  0  0  0  0  0  0  0  0  0
   -1.0964   -3.4326   -0.4196 H   0  0  0  0  0  0  0  0  0  0  0  0
   -0.5085   -5.1134   -0.7660 H   0  0  0  0  0  0  0  0  0  0  0  0
   -2.0163   -6.0362    0.7729 H   0  0  0  0  0  0  0  0  0  0  0  0
   -2.0959   -4.5931    1.8106 H   0  0  0  0  0  0  0  0  0  0  0  0
   -3.8239   -5.3073   -0.3760 H   0  0  0  0  0  0  0  0  0  0  0  0
   -3.0371   -3.7492   -0.7207 H   0  0  0  0  0  0  0  0  0  0  0  0
   -3.7573   -3.5239    2.0166 H   0  0  0  0  0  0  0  0  0  0  0  0
   -6.0512   -2.6654    0.8199 H   0  0  0  0  0  0  0  0  0  0  0  0
   -3.8665   -1.6609    2.1084 H   0  0  0  0  0  0  0  0  0  0  0  0
   -6.4453   -0.8454    1.4101 H   0  0  0  0  0  0  0  0  0  0  0  0
   -4.4973    1.0899    0.1103 H   0  0  0  0  0  0  0  0  0  0  0  0
   -6.2976    1.7560    2.4166 H   0  0  0  0  0  0  0  0  0  0  0  0
   -3.8443    2.1996    2.3761 H   0  0  0  0  0  0  0  0  0  0  0  0
   -4.3237    3.3542   -0.1991 H   0  0  0  0  0  0  0  0  0  0  0  0
   -2.2794    2.3848    0.9847 H   0  0  0  0  0  0  0  0  0  0  0  0
   -1.9193    4.0392    1.5192 H   0  0  0  0  0  0  0  0  0  0  0  0
   -1.7291    4.8354   -0.6791 H   0  0  0  0  0  0  0  0  0  0  0  0
   -2.6503    3.5186   -1.4209 H   0  0  0  0  0  0  0  0  0  0  0  0
   -0.5548   -3.4585    2.7474 H   0  0  0  0  0  0  0  0  0  0  0  0
    1.0597   -2.7965    2.3845 H   0  0  0  0  0  0  0  0  0  0  0  0
   -0.4125   -2.2335    1.4098 H   0  0  0  0  0  0  0  0  0  0  0  0
   -4.8290   -5.5423    2.2210 H   0  0  0  0  0  0  0  0  0  0  0  0
   -5.5775   -5.4782    0.5914 H   0  0  0  0  0  0  0  0  0  0  0  0
   -6.2184   -4.4087    1.9256 H   0  0  0  0  0  0  0  0  0  0  0  0
   -3.6462   -0.7006   -0.7916 H   0  0  0  0  0  0  0  0  0  0  0  0
   -2.5173   -1.6142    0.2360 H   0  0  0  0  0  0  0  0  0  0  0  0
   -2.8111    0.0775    0.6460 H   0  0  0  0  0  0  0  0  0  0  0  0
   -7.3788    0.2893    0.1351 H   0  0  0  0  0  0  0  0  0  0  0  0
   -6.7807    1.7352   -0.8303 H   0  0  0  0  0  0  0  0  0  0  0  0
   -6.2173    0.0729   -1.1894 H   0  0  0  0  0  0  0  0  0  0  0  0
   -5.9563    3.5580    3.4744 H   0  0  0  0  0  0  0  0  0  0  0  0
   -4.1862    3.8889    3.8434 H   0  0  0  0  0  0  0  0  0  0  0  0
   -5.1042    4.8600    2.6334 H   0  0  0  0  0  0  0  0  0  0  0  0
   -7.9471    2.3953    2.4069 H   0  0  0  0  0  0  0  0  0  0  0  0
   -7.4805    4.9487    2.1905 H   0  0  0  0  0  0  0  0  0  0  0  0
   -9.1563    4.4765    2.5140 H   0  0  0  0  0  0  0  0  0  0  0  0
   -8.7022    4.8688    0.8229 H   0  0  0  0  0  0  0  0  0  0  0  0
   -4.2065    5.4815   -1.0339 H   0  0  0  0  0  0  0  0  0  0  0  0
   -5.8999    5.2480   -0.3336 H   0  0  0  0  0  0  0  0  0  0  0  0
   -4.9353    6.7021    0.0517 H   0  0  0  0  0  0  0  0  0  0  0  0
    5.3427   -0.0541    2.5657 H   0  0  0  0  0  0  0  0  0  0  0  0
    6.0268    1.5231    1.9885 H   0  0  0  0  0  0  0  0  0  0  0  0
    6.3413    0.2822   -1.3843 H   0  0  0  0  0  0  0  0  0  0  0  0
    5.5521    1.9072   -1.0765 H   0  0  0  0  0  0  0  0  0  0  0  0
    7.7622    0.0504    2.7014 H   0  0  0  0  0  0  0  0  0  0  0  0
    7.3481   -1.2045    1.5114 H   0  0  0  0  0  0  0  0  0  0  0  0
    7.2130    2.5316    0.4978 H   0  0  0  0  0  0  0  0  0  0  0  0
    7.9927    1.8165   -0.9215 H   0  0  0  0  0  0  0  0  0  0  0  0
    8.5480   -1.0138   -0.4351 H   0  0  0  0  0  0  0  0  0  0  0  0
    9.5259    0.4851   -0.7336 H   0  0  0  0  0  0  0  0  0  0  0  0
    9.6397   -1.1957    1.7985 H   0  0  0  0  0  0  0  0  0  0  0  0
   10.5835    1.5353    1.0549 H   0  0  0  0  0  0  0  0  0  0  0  0
   11.8923    0.4139    1.6660 H   0  0  0  0  0  0  0  0  0  0  0  0
   10.4584    0.7365    2.6798 H   0  0  0  0  0  0  0  0  0  0  0  0
   10.9004   -2.4766    0.3043 H   0  0  0  0  0  0  0  0  0  0  0  0
   11.1693   -1.0252   -0.7857 H   0  0  0  0  0  0  0  0  0  0  0  0
   12.1609   -1.2144    0.7262 H   0  0  0  0  0  0  0  0  0  0  0  0
    1.2690   -2.0634    0.2304 H   0  0  0  0  0  0  0  0  0  0  0  0
    5.5354   -1.6951    0.6926 H   0  0  0  0  0  0  0  0  0  0  0  0
    3.6954    1.2056    1.5732 H   0  0  0  0  0  0  0  0  0  0  0  0
    3.2389   -3.7410   -2.6504 H   0  0  0  0  0  0  0  0  0  0  0  0
    1.2332   -1.7100   -4.2897 H   0  0  0  0  0  0  0  0  0  0  0  0
    0.0776    1.5917    0.7542 H   0  0  0  0  0  0  0  0  0  0  0  0
   -9.8235    2.6337    1.1738 H   0  0  0  0  0  0  0  0  0  0  0  0
   -6.0112   -0.3876    3.4105 H   0  0  0  0  0  0  0  0  0  0  0  0
   -5.2953   -3.4293   -1.1365 H   0  0  0  0  0  0  0  0  0  0  0  0
    2.3737   -5.1050    1.5445 H   0  0  0  0  0  0  0  0  0  0  0  0
    0.7538   -1.2358    1.7905 H   0  0  0  0  0  0  0  0  0  0  0  0
    1.1883   -1.2491   -0.9266 H   0  0  0  0  0  0  0  0  0  0  0  0
    3.1455   -0.2490   -1.4799 H   0  0  0  0  0  0  0  0  0  0  0  0
    3.9232   -0.4084    1.4728 H   0  0  0  0  0  0  0  0  0  0  0  0
    3.5289    2.9280   -0.0973 H   0  0  0  0  0  0  0  0  0  0  0  0
    2.4657    4.3190    1.2959 H   0  0  0  0  0  0  0  0  0  0  0  0
   -0.0043    3.6109    2.0587 H   0  0  0  0  0  0  0  0  0  0  0  0
   -0.3150    1.4040    1.7141 H   0  0  0  0  0  0  0  0  0  0  0  0
    2.1572    0.2055    2.6846 H   0  0  0  0  0  0  0  0  0  0  0  0
    3.4531    1.8103    1.8894 H   0  0  0  0  0  0  0  0  0  0  0  0
    1.3582    1.3286   -1.3012 H   0  0  0  0  0  0  0  0  0  0  0  0
   -0.2451    3.6020   -3.0052 H   0  0  0  0  0  0  0  0  0  0  0  0
    0.1551    5.0819   -2.0948 H   0  0  0  0  0  0  0  0  0  0  0  0
    1.4889    4.1387   -2.8648 H   0  0  0  0  0  0  0  0  0  0  0  0
    2.4947    3.0584    3.6991 H   0  0  0  0  0  0  0  0  0  0  0  0
    1.6703    4.6688    3.2927 H   0  0  0  0  0  0  0  0  0  0  0  0
    0.7622    3.4239    4.1759 H   0  0  0  0  0  0  0  0  0  0  0  0
    1.5333   -3.2877   -1.6046 H   0  0  0  0  0  0  0  0  0  0  0  0
   -0.4679   -2.8019    0.4563 H   0  0  0  0  0  0  0  0  0  0  0  0
   -0.9419   -5.4466   -0.8515 H   0  0  0  0  0  0  0  0  0  0  0  0
    0.1106   -5.3767    0.6533 H   0  0  0  0  0  0  0  0  0  0  0  0
   -1.7545   -5.1518    1.9034 H   0  0  0  0  0  0  0  0  0  0  0  0
   -2.0625   -3.5830    1.1406 H   0  0  0  0  0  0  0  0  0  0  0  0
   -3.3073   -6.2108    0.6253 H   0  0  0  0  0  0  0  0  0  0  0  0
   -3.1188   -5.2479   -0.8398 H   0  0  0  0  0  0  0  0  0  0  0  0
   -3.9910   -3.5323    1.4219 H   0  0  0  0  0  0  0  0  0  0  0  0
   -6.2100   -3.6870   -0.0520 H   0  0  0  0  0  0  0  0  0  0  0  0
   -3.7667   -2.1092   -0.0839 H   0  0  0  0  0  0  0  0  0  0  0  0
   -6.7273   -1.9180    0.1719 H   0  0  0  0  0  0  0  0  0  0  0  0
   -5.3168    0.1010   -1.5649 H   0  0  0  0  0  0  0  0  0  0  0  0
   -6.6482    0.8975    1.0257 H   0  0  0  0  0  0  0  0  0  0  0  0
   -4.0364    0.7337    0.4250 H   0  0  0  0  0  0  0  0  0  0  0  0
   -3.9439    2.3953   -1.2714 H   0  0  0  0  0  0  0  0  0  0  0  0
   -2.3225    1.6774    0.3790 H   0  0  0  0  0  0  0  0  0  0  0  0
   -2.4760    3.2211    1.2369 H   0  0  0  0  0  0  0  0  0  0  0  0
   -1.4971    4.4256   -0.5397 H   0  0  0  0  0  0  0  0  0  0  0  0
   -2.1935    3.3315   -1.7598 H   0  0  0  0  0  0  0  0  0  0  0  0
   -1.9968   -3.1967   -1.3479 H   0  0  0  0  0  0  0  0  0  0  0  0
   -0.7489   -2.1393   -2.0009 H   0  0  0  0  0  0  0  0  0  0  0  0
   -0.6444   -3.9178   -2.3829 H   0  0  0  0  0  0  0  0  0  0  0  0
   -4.7201   -5.9246    2.2003 H   0  0  0  0  0  0  0  0  0  0  0  0
   -5.9327   -5.8375    0.9062 H   0  0  0  0  0  0  0  0  0  0  0  0
   -5.9476   -4.5654    2.1581 H   0  0  0  0  0  0  0  0  0  0  0  0
   -5.4484   -1.8424   -2.6370 H   0  0  0  0  0  0  0  0  0  0  0  0
   -4.1230   -2.9917   -2.4342 H   0  0  0  0  0  0  0  0  0  0  0  0
   -3.7538   -1.2688   -2.2455 H   0  0  0  0  0  0  0  0  0  0  0  0
   -8.1398   -0.1484   -0.4994 H   0  0  0  0  0  0  0  0  0  0  0  0
   -7.6059    0.5492   -2.1383 H   0  0  0  0  0  0  0  0  0  0  0  0
   -7.5903   -1.2469   -1.7560 H   0  0  0  0  0  0  0  0  0  0  0  0
   -5.6532    1.4544    2.4465 H   0  0  0  0  0  0  0  0  0  0  0  0
   -3.8686    1.4253    2.5355 H   0  0  0  0  0  0  0  0  0  0  0  0
   -4.7850    2.9855    2.2627 H   0  0  0  0  0  0  0  0  0  0  0  0
   -8.1349    1.9146    1.0071 H   0  0  0  0  0  0  0  0  0  0  0  0
   -7.1323    4.0992    1.2050 H   0  0  0  0  0  0  0  0  0  0  0  0
   -8.9125    4.2066    0.9846 H   0  0  0  0  0  0  0  0  0  0  0  0
   -7.7962    4.5605   -0.4507 H   0  0  0  0  0  0  0  0  0  0  0  0
   -4.0288    4.8423   -2.0028 H   0  0  0  0  0  0  0  0  0  0  0  0
   -5.5817    4.0231   -1.9951 H   0  0  0  0  0  0  0  0  0  0  0  0
   -5.4054    5.5948   -1.2054 H   0  0  0  0  0  0  0  0  0  0  0  0
    6.4304   -2.5013    0.2907 H   0  0  0  0  0  0  0  0  0  0  0  0
    5.8441   -1.4305    1.5729 H   0  0  0  0  0  0  0  0  0  0  0  0
    5.5417   -0.2120   -2.5226 H   0  0  0  0  0  0  0  0  0  0  0  0
    6.4390   -1.7135   -2.0285 H   0  0  0  0  0  0  0  0  0  0  0  0
    7.6416   -0.0476    1.5702 H   0  0  0  0  0  0  0  0  0  0  0  0
    8.3986   -1.5584    1.0509 H   0  0  0  0  0  0  0  0  0  0  0  0
    7.9692    0.1801   -2.4648 H   0  0  0  0  0  0  0  0  0  0  0  0
    7.0098    1.2190   -1.3863 H   0  0  0  0  0  0  0  0  0  0  0  0
    9.6418   -1.7136   -0.8151 H   0  0  0  0  0  0  0  0  0  0  0  0
    9.8414   -0.1395   -1.7578 H   0  0  0  0  0  0  0  0  0  0  0  0
   10.1953   -0.4774    1.2791 H   0  0  0  0  0  0  0  0  0  0  0  0
   10.3564    1.9081   -0.6100 H   0  0  0  0  0  0  0  0  0  0  0  0
   11.4281    1.7293    0.7920 H   0  0  0  0  0  0  0  0  0  0  0  0
    9.6792    1.7781    1.0841 H   0  0  0  0  0  0  0  0  0  0  0  0
   12.0519   -1.5885    0.2199 H   0  0  0  0  0  0  0  0  0  0  0  0
   12.1652   -0.2371   -1.0140 H   0  0  0  0  0  0  0  0  0  0  0  0
   12.5689    0.0636    0.6855 H   0  0  0  0  0  0  0  0  0  0  0  0
    1.7746   -2.7925    1.3251 H   0  0  0  0  0  0  0  0  0  0  0  0
    4.1916   -2.3187    0.2741 H   0  0  0  0  0  0  0  0  0  0  0  0
    5.6625    0.9962    0.6474 H   0  0  0  0  0  0  0  0  0  0  0  0
   -0.2754   -0.2670   -0.4441 H   0  0  0  0  0  0  0  0  0  0  0  0
   -0.2161    0.5996    3.6730 H   0  0  0  0  0  0  0  0  0  0  0  0
    3.1583    3.3694   -1.8991 H   0  0  0  0  0  0  0  0  0  0  0  0
   -9.9204    2.5889   -0.2887 H   0  0  0  0  0  0  0  0  0  0  0  0
   -6.1134   -1.0517    1.9908 H   0  0  0  0  0  0  0  0  0  0  0  0
   -5.0781   -5.3738   -1.3885 H   0  0  0  0  0  0  0  0  0  0  0  0
    2.7752   -4.8459   -0.3820 H   0  0  0  0  0  0  0  0  0  0  0  0
  1  2  1  0
  2  3  1  0
  3  4  1  0
  5  6  1  0
  6  7  1  0
  7  8  1  0
  1  9  1  0
  8  9  1  0
  4 10  1  0
  5 10  1  0
  9 10  1  0
  5 11  1  0
 11 12  1  0
 12 13  1  6
  7 14  1  0
 15 16  1  0
 16 17  1  0
 17 18  1  0
 18 19  1  0
 19 20  1  0
 20 21  1  0
 21 22  1  0
 22 23  1  0
 23 24  1  0
 24 25  1  0
 25 26  1  0
 26 27  1  0
 27 28  1  0
 28 29  1  0
 16 30  1  0
 20 31  1  0
 22 32  1  0
 24 33  1  0
 26 34  1  0
 35 36  1  0
 38 39  1  0
 38 40  1  0
 39 41  1  0
 40 42  1  0
 43 44  1  0
 44 45  1  0
 44 46  1  0
  2 47  1  0
 15 47  1  0
  3 48  1  0
 38 48  1  0
  4 49  1  0
 38 49  1  0
 41 50  1  0
 42 50  1  0
 43 50  1  0
  1 51  1  0
  8 52  1  0
  6 53  1  0
 12 53  1  0
 11 54  1  0
 12 55  1  0
 29 55  1  0
 27 56  1  0
 37 56  1  0
 25 57  1  0
 35 57  1  0
 35 58  1  0
 23 59  1  0
 21 60  1  0
 15 61  1  0
 62 63  1  0
 63 64  1  0
 64 65  1  0
 66 67  1  0
 67 68  1  0
 68 69  1  0
 62 70  1  0
 69 70  1  0
 65 71  1  0
 66 71  1  0
 70 71  1  0
 66 72  1  0
 72 73  1  0
 73 74  1  6
 68 75  1  0
 76 77  1  0
 77 78  1  0
 78 79  1  0
 79 80  1  0
 80 81  1  0
 81 82  1  0
 82 83  1  0
 83 84  1  0
 84 85  1  0
 85 86  1  0
 86 87  1  0
 87 88  1  0
 88 89  1  0
 89 90  1  0
 77 91  1  0
 81 92  1  0
 83 93  1  0
 85 94  1  0
 87 95  1  0
 96 97  1  0
 99100  1  0
 99101  1  0
100102  1  0
101103  1  0
104105  1  0
105106  1  0
105107  1  0
 63108  1  0
 76108  1  0
 64109  1  0
 99109  1  0
 65110  1  0
 99110  1  0
102111  1  0
103111  1  0
104111  1  0
 62112  1  0
 69113  1  0
 67114  1  0
 73114  1  0
 72115  1  0
 73116  1  0
 90116  1  0
 88117  1  0
 98117  1  0
 86118  1  0
 96118  1  0
 96119  1  0
 84120  1  0
 82121  1  0
 76122  1  0
  1123  1  0
  2124  1  0
  3125  1  0
  4126  1  1
  5127  1  0
  6128  1  0
  7129  1  0
  8130  1  0
  9131  1  0
 10132  1  0
 11133  1  6
 13134  1  0
 13135  1  0
 13136  1  0
 14137  1  0
 14138  1  0
 14139  1  0
 15140  1  0
 16141  1  0
 17142  1  0
 17143  1  0
 18144  1  0
 18145  1  0
 19146  1  0
 19147  1  0
 20148  1  1
 21149  1  6
 22150  1  1
 23151  1  1
 24152  1  6
 25153  1  1
 26154  1  1
 27155  1  6
 28156  1  0
 28157  1  0
 29158  1  0
 29159  1  0
 30160  1  0
 30161  1  0
 30162  1  0
 31163  1  0
 31164  1  0
 31165  1  0
 32166  1  0
 32167  1  0
 32168  1  0
 33169  1  0
 33170  1  0
 33171  1  0
 34172  1  0
 34173  1  0
 34174  1  0
 35175  1  0
 36176  1  0
 36177  1  0
 36178  1  0
 37179  1  0
 37180  1  0
 37181  1  0
 39182  1  0
 39183  1  0
 40184  1  0
 40185  1  0
 41186  1  0
 41187  1  0
 42188  1  0
 42189  1  0
 43190  1  0
 43191  1  0
 44192  1  0
 45193  1  0
 45194  1  0
 45195  1  0
 46196  1  0
 46197  1  0
 46198  1  0
 47199  1  0
 48200  1  0
 49201  1  0
 51202  1  0
 52203  1  0
 54204  1  0
 58205  1  0
 59206  1  0
 60207  1  0
 61208  1  0
 62209  1  0
 63210  1  0
 64211  1  6
 65212  1  1
 66213  1  0
 67214  1  0
 68215  1  0
 69216  1  0
 70217  1  0
 71218  1  1
 72219  1  0
 74220  1  0
 74221  1  0
 74222  1  0
 75223  1  0
 75224  1  0
 75225  1  0
 76226  1  0
 77227  1  0
 78228  1  0
 78229  1  0
 79230  1  0
 79231  1  0
 80232  1  0
 80233  1  0
 81234  1  1
 82235  1  1
 83236  1  1
 84237  1  1
 85238  1  6
 86239  1  1
 87240  1  1
 88241  1  6
 89242  1  0
 89243  1  0
 90244  1  0
 90245  1  0
 91246  1  0
 91247  1  0
 91248  1  0
 92249  1  0
 92250  1  0
 92251  1  0
 93252  1  0
 93253  1  0
 93254  1  0
 94255  1  0
 94256  1  0
 94257  1  0
 95258  1  0
 95259  1  0
 95260  1  0
 96261  1  0
 97262  1  0
 97263  1  0
 97264  1  0
 98265  1  0
 98266  1  0
 98267  1  0
100268  1  0
100269  1  0
101270  1  0
101271  1  0
102272  1  0
102273  1  0
103274  1  0
103275  1  0
104276  1  0
104277  1  0
105278  1  0
106279  1  0
106280  1  0
106281  1  0
107282  1  0
107283  1  0
107284  1  0
108285  1  0
109286  1  0
110287  1  0
112288  1  0
113289  1  0
115290  1  0
119291  1  0
120292  1  0
121293  1  0
122294  1  0
M  END
>  <PDBID>  (1) 
2A68

>  <PDB ID>  (1) 
2A68

>  <Generic Name>  (1) 
Rifabutin

>  <Brand Name>  (1) 
Mycobutin#Rifabutin#Ansatipin#Ansatipine#Ributin

>  <DrugBank ID>  (1) 
DB00615

>  <ATC Codes>  (1) 
J04AB04

>  <Ligand ID>  (1) 
RBT

>  <Target Name>  (1) 
DNA-directed RNA polymerase subunit beta

>  <UniProt ID>  (1) 
P0A8V2

>  <PDB ID.1>  (1) 
2A68

>  <Seq. Identity>  (1) 
51%

$$$$
