PDB_DB00696_00
     RDKit          3D

100107  0  0  0  0  0  0  0  0999 V2000
    8.2448   -1.4102    0.6182 C   0  0  0  0  0  0  0  0  0  0  0  0
    8.3308   -1.2388    2.0770 N   0  0  0  0  0  0  0  0  0  0  0  0
    0.6140    1.3761   -2.1043 O   0  0  0  0  0  0  0  0  0  0  0  0
    5.2763    1.6004    2.0013 C   0  0  0  0  0  0  0  0  0  0  0  0
    6.6788    2.0509    2.0281 C   0  0  0  0  0  0  0  0  0  0  0  0
    7.6987    1.0402    2.3906 C   0  0  0  0  0  0  0  0  0  0  0  0
    7.2213   -0.3759    2.4687 C   0  0  0  0  0  0  0  0  0  0  0  0
    6.2243   -0.6378    1.3912 C   0  0  0  0  0  0  0  0  0  0  0  0
    4.5669   -1.2904   -2.9388 C   0  0  0  0  0  0  0  0  0  0  0  0
    1.2995    0.9625   -0.9234 C   0  0  0  0  0  0  0  0  0  0  0  0
   -0.5739   -0.3861   -0.0826 C   0  0  2  0  0  0  0  0  0  0  0  0
   -1.6683   -0.1448    0.9603 C   0  0  0  0  0  0  0  0  0  0  0  0
   -3.7991   -1.1783    0.5159 C   0  0  2  0  0  0  0  0  0  0  0  0
    4.5682    0.0194   -2.3820 N   0  0  0  0  0  0  0  0  0  0  0  0
    7.1593   -0.5082    0.1773 C   0  0  0  0  0  0  0  0  0  0  0  0
   -1.2157   -0.3836   -1.3212 O   0  0  0  0  0  0  0  0  0  0  0  0
   -4.3603   -1.8791   -0.6285 C   0  0  0  0  0  0  0  0  0  0  0  0
   -5.3823   -1.3500   -2.7875 C   0  0  0  0  0  0  0  0  0  0  0  0
   -5.4416    0.0456   -3.3853 C   0  0  0  0  0  0  0  0  0  0  0  0
   -4.2747    0.8144   -2.7873 C   0  0  0  0  0  0  0  0  0  0  0  0
   -3.4135   -0.2878   -2.2107 C   0  0  1  0  0  0  0  0  0  0  0  0
   -2.5045    0.1310   -1.1179 C   0  0  1  0  0  0  0  0  0  0  0  0
   -0.0051   -1.7767    0.0947 C   0  0  0  0  0  0  0  0  0  0  0  0
   -4.7135   -0.6817    1.5853 C   0  0  0  0  0  0  0  0  0  0  0  0
   -5.7219    0.3442    1.3307 C   0  0  0  0  0  0  0  0  0  0  0  0
   -6.4464    0.6442    2.6639 C   0  0  0  0  0  0  0  0  0  0  0  0
    6.3195   -0.9579   -0.9833 C   0  0  0  0  0  0  0  0  0  0  0  0
    0.3839    0.6163    0.0813 N   0  0  0  0  0  0  0  0  0  0  0  0
   -1.5088    1.0786    1.5796 O   0  0  0  0  0  0  0  0  0  0  0  0
   -7.8380    0.1103    2.6268 C   0  0  0  0  0  0  0  0  0  0  0  0
   -8.6846    0.9695    1.6946 C   0  0  0  0  0  0  0  0  0  0  0  0
   -7.8438    1.2876    0.4598 C   0  0  0  0  0  0  0  0  0  0  0  0
   -6.7982    0.1439    0.3341 C   0  0  0  0  0  0  0  0  0  0  0  0
    5.3377    0.1873   -1.1816 C   0  0  2  0  0  0  0  0  0  0  0  0
   -2.8701   -0.1121    0.1966 N   0  0  0  0  0  0  0  0  0  0  0  0
   -5.6380   -2.3465   -0.3651 O   0  0  0  0  0  0  0  0  0  0  0  0
    3.2738    0.6573   -2.3103 C   0  0  0  0  0  0  0  0  0  0  0  0
   -4.2775   -1.3609   -1.9136 N   0  0  0  0  0  0  0  0  0  0  0  0
   -2.3372    1.5381   -1.2443 O   0  0  0  0  0  0  0  0  0  0  0  0
    2.3380   -0.0287   -1.3218 C   0  0  1  0  0  0  0  0  0  0  0  0
    3.1770   -0.4956   -0.1594 C   0  0  0  0  0  0  0  0  0  0  0  0
    4.4255    0.3823   -0.0115 C   0  0  1  0  0  0  0  0  0  0  0  0
    5.0493    0.2584    1.3377 C   0  0  0  0  0  0  0  0  0  0  0  0
    9.2108   -1.0155    0.2303 H   0  0  0  0  0  0  0  0  0  0  0  0
    8.0875   -2.4662    0.3387 H   0  0  0  0  0  0  0  0  0  0  0  0
    8.1018   -2.1862    2.4902 H   0  0  0  0  0  0  0  0  0  0  0  0
    0.4131    2.3232   -2.0537 H   0  0  0  0  0  0  0  0  0  0  0  0
    4.8403    1.6718    3.0191 H   0  0  0  0  0  0  0  0  0  0  0  0
    4.6867    2.3427    1.3856 H   0  0  0  0  0  0  0  0  0  0  0  0
    6.7427    2.8780    2.8001 H   0  0  0  0  0  0  0  0  0  0  0  0
    6.8995    2.6010    1.0661 H   0  0  0  0  0  0  0  0  0  0  0  0
    8.5336    1.0988    1.6318 H   0  0  0  0  0  0  0  0  0  0  0  0
    8.2186    1.2675    3.3643 H   0  0  0  0  0  0  0  0  0  0  0  0
    6.8860   -0.6704    3.4762 H   0  0  0  0  0  0  0  0  0  0  0  0
    5.9231   -1.6984    1.4249 H   0  0  0  0  0  0  0  0  0  0  0  0
    5.4566   -1.3564   -3.6216 H   0  0  0  0  0  0  0  0  0  0  0  0
    4.5253   -2.1220   -2.2308 H   0  0  0  0  0  0  0  0  0  0  0  0
    3.6646   -1.3929   -3.5980 H   0  0  0  0  0  0  0  0  0  0  0  0
    1.8564    1.8908   -0.5960 H   0  0  0  0  0  0  0  0  0  0  0  0
   -1.6308   -0.9897    1.6888 H   0  0  0  0  0  0  0  0  0  0  0  0
   -3.1217   -1.9232    1.0720 H   0  0  0  0  0  0  0  0  0  0  0  0
    7.4496    0.5262    0.0022 H   0  0  0  0  0  0  0  0  0  0  0  0
   -3.7817   -2.9123   -0.7199 H   0  0  0  0  0  0  0  0  0  0  0  0
   -5.3391   -2.1264   -3.5858 H   0  0  0  0  0  0  0  0  0  0  0  0
   -6.3423   -1.5198   -2.2631 H   0  0  0  0  0  0  0  0  0  0  0  0
   -5.3874   -0.0363   -4.4739 H   0  0  0  0  0  0  0  0  0  0  0  0
   -6.3551    0.5769   -3.0828 H   0  0  0  0  0  0  0  0  0  0  0  0
   -3.7667    1.3063   -3.6698 H   0  0  0  0  0  0  0  0  0  0  0  0
   -4.5923    1.5611   -2.0536 H   0  0  0  0  0  0  0  0  0  0  0  0
   -2.7640   -0.6222   -3.0761 H   0  0  0  0  0  0  0  0  0  0  0  0
    0.8333   -1.8373    0.7836 H   0  0  0  0  0  0  0  0  0  0  0  0
    0.2220   -2.1797   -0.9120 H   0  0  0  0  0  0  0  0  0  0  0  0
   -0.8076   -2.4470    0.5272 H   0  0  0  0  0  0  0  0  0  0  0  0
   -5.2400   -1.5601    2.0944 H   0  0  0  0  0  0  0  0  0  0  0  0
   -4.0923   -0.2920    2.4740 H   0  0  0  0  0  0  0  0  0  0  0  0
   -5.1825    1.3313    1.1025 H   0  0  0  0  0  0  0  0  0  0  0  0
   -5.8653    0.2107    3.5050 H   0  0  0  0  0  0  0  0  0  0  0  0
   -6.4995    1.7312    2.7800 H   0  0  0  0  0  0  0  0  0  0  0  0
    5.8086   -1.8920   -0.6644 H   0  0  0  0  0  0  0  0  0  0  0  0
    6.8864   -1.0768   -1.9113 H   0  0  0  0  0  0  0  0  0  0  0  0
    0.2081    1.2961    0.8207 H   0  0  0  0  0  0  0  0  0  0  0  0
   -1.2156    0.9534    2.5159 H   0  0  0  0  0  0  0  0  0  0  0  0
   -7.9645   -0.9281    2.3416 H   0  0  0  0  0  0  0  0  0  0  0  0
   -8.3211    0.2027    3.6409 H   0  0  0  0  0  0  0  0  0  0  0  0
   -9.5878    0.4466    1.3478 H   0  0  0  0  0  0  0  0  0  0  0  0
   -8.9749    1.9094    2.1690 H   0  0  0  0  0  0  0  0  0  0  0  0
   -8.4948    1.2262   -0.4161 H   0  0  0  0  0  0  0  0  0  0  0  0
   -7.3663    2.2668    0.5107 H   0  0  0  0  0  0  0  0  0  0  0  0
   -7.4172   -0.7522    0.4414 H   0  0  0  0  0  0  0  0  0  0  0  0
   -6.4096    0.2539   -0.6821 H   0  0  0  0  0  0  0  0  0  0  0  0
    5.9523    1.1041   -1.2969 H   0  0  0  0  0  0  0  0  0  0  0  0
   -5.6845   -3.1341    0.1937 H   0  0  0  0  0  0  0  0  0  0  0  0
    2.8063    0.5590   -3.3092 H   0  0  0  0  0  0  0  0  0  0  0  0
    3.4046    1.6978   -2.0115 H   0  0  0  0  0  0  0  0  0  0  0  0
   -2.5566    1.8608   -2.1408 H   0  0  0  0  0  0  0  0  0  0  0  0
    1.9270   -0.8978   -1.8380 H   0  0  0  0  0  0  0  0  0  0  0  0
    2.6009   -0.2933    0.7830 H   0  0  0  0  0  0  0  0  0  0  0  0
    3.4556   -1.5411   -0.1669 H   0  0  0  0  0  0  0  0  0  0  0  0
    4.0271    1.4364   -0.0891 H   0  0  0  0  0  0  0  0  0  0  0  0
    4.2626   -0.2394    1.9887 H   0  0  0  0  0  0  0  0  0  0  0  0
  1  2  1  0
  4  5  1  0
  5  6  1  0
  2  7  1  0
  6  7  1  0
  7  8  1  0
  3 10  1  0
 11 12  1  0
  9 14  1  0
  1 15  1  0
  8 15  1  0
 11 16  1  0
 13 17  1  0
 18 19  1  0
 19 20  1  0
 20 21  1  0
 16 22  1  0
 21 22  1  0
 11 23  1  0
 13 24  1  0
 24 25  1  0
 25 26  1  0
 15 27  1  0
 10 28  1  0
 11 28  1  6
 12 29  1  0
 26 30  1  0
 30 31  1  0
 31 32  1  0
 25 33  1  0
 32 33  1  0
 14 34  1  0
 27 34  1  0
 12 35  1  0
 13 35  1  0
 22 35  1  0
 17 36  1  0
 14 37  1  0
 17 38  1  0
 18 38  1  0
 21 38  1  0
 22 39  1  1
 10 40  1  0
 37 40  1  0
 40 41  1  0
 34 42  1  0
 41 42  1  0
  4 43  1  0
  8 43  1  0
 42 43  1  0
  1 44  1  0
  1 45  1  0
  2 46  1  0
  3 47  1  0
  4 48  1  0
  4 49  1  0
  5 50  1  0
  5 51  1  0
  6 52  1  0
  6 53  1  0
  7 54  1  0
  8 55  1  0
  9 56  1  0
  9 57  1  0
  9 58  1  0
 10 59  1  0
 12 60  1  0
 13 61  1  1
 15 62  1  0
 17 63  1  0
 18 64  1  0
 18 65  1  0
 19 66  1  0
 19 67  1  0
 20 68  1  0
 20 69  1  0
 21 70  1  6
 23 71  1  0
 23 72  1  0
 23 73  1  0
 24 74  1  0
 24 75  1  0
 25 76  1  0
 26 77  1  0
 26 78  1  0
 27 79  1  0
 27 80  1  0
 28 81  1  0
 29 82  1  0
 30 83  1  0
 30 84  1  0
 31 85  1  0
 31 86  1  0
 32 87  1  0
 32 88  1  0
 33 89  1  0
 33 90  1  0
 34 91  1  6
 36 92  1  0
 37 93  1  0
 37 94  1  0
 39 95  1  0
 40 96  1  6
 41 97  1  0
 41 98  1  0
 42 99  1  6
 43100  1  0
M  END
>  <PDBID>  (1) 
4IB4

>  <PDB ID>  (1) 
4IB4

>  <Generic Name>  (1) 
Ergotamine

>  <Brand Name>  (1) 
Cafergot#Cafergot Sup#Cafergot Tab#Ergodryl Cap#Ergomar#Ergomar Slt 2mg#Ergomar Sublingual#Ergotamine#Ergotamine Tartrate and Caffeine#Gravergol Capsules#Megral Tabs#Migergot#Anervan#Antimigraine#Enxak#Ergam#Ergo-Kranit#Gynaemine#Wigrettes

>  <DrugBank ID>  (1) 
DB00696

>  <ATC Codes>  (1) 
N02CA52#N02CA72#N02CA02

>  <Ligand ID>  (1) 
ERM

>  <Target Name>  (1) 
5-hydroxytryptamine receptor 2A

>  <UniProt ID>  (1) 
P28223

>  <PDB ID.1>  (1) 
4IB4

>  <Seq. Identity>  (1) 
58%

$$$$
