PDB_DB00278_00
     RDKit          3D

170174  0  0  0  0  0  0  0  0999 V2000
    0.8829   -0.8983    0.0121 S   0  0  0  0  0  0  0  0  0  0  0  0
    1.4410   -2.3850   -0.2349 O   0  0  0  0  0  0  0  0  0  0  0  0
    0.9990   -0.8491    1.8497 O   0  0  0  0  0  0  0  0  0  0  0  0
    5.1594    1.3027    1.1154 C   0  0  0  0  0  0  0  0  0  0  0  0
    6.0557    1.2817   -0.1103 C   0  0  2  0  0  0  0  0  0  0  0  0
    5.2239    0.8284   -1.3205 C   0  0  0  0  0  0  0  0  0  0  0  0
    4.4102   -0.3510   -0.8151 C   0  0  0  0  0  0  0  0  0  0  0  0
    3.9724   -1.2137   -1.9348 C   0  0  0  0  0  0  0  0  0  0  0  0
    2.8193   -0.6594   -2.6793 C   0  0  0  0  0  0  0  0  0  0  0  0
    2.0462    0.4068   -2.0181 C   0  0  0  0  0  0  0  0  0  0  0  0
    1.9803    0.2910   -0.4968 C   0  0  0  0  0  0  0  0  0  0  0  0
    3.3238    0.1315    0.1153 C   0  0  0  0  0  0  0  0  0  0  0  0
    7.1527    0.2728    0.1769 C   0  0  0  0  0  0  0  0  0  0  0  0
    3.7641    1.4021    0.7362 N   0  0  0  0  0  0  0  0  0  0  0  0
   -0.6353   -0.6732   -0.3193 N   0  0  0  0  0  0  0  0  0  0  0  0
   -1.4494   -0.1921    0.7677 C   0  0  2  0  0  0  0  0  0  0  0  0
   -2.9327   -0.2922    0.4553 C   0  0  0  0  0  0  0  0  0  0  0  0
   -3.5737    0.2719    1.6063 O   0  0  0  0  0  0  0  0  0  0  0  0
   -1.0795    1.2197    1.1610 C   0  0  0  0  0  0  0  0  0  0  0  0
   -1.2392    2.2165    0.0729 C   0  0  0  0  0  0  0  0  0  0  0  0
   -0.8252    3.5747    0.6236 C   0  0  0  0  0  0  0  0  0  0  0  0
   -0.9501    4.6124   -0.3784 N   0  0  0  0  0  0  0  0  0  0  0  0
   -0.5405    5.8597    0.2376 C   0  0  0  0  0  0  0  0  0  0  0  0
   -0.6605    6.9003   -0.7563 N   0  0  0  0  0  0  0  0  0  0  0  0
   -1.2643    6.1520    1.4436 N   0  0  0  0  0  0  0  0  0  0  0  0
   -3.3222   -1.6590    0.4823 N   0  0  0  0  0  0  0  0  0  0  0  0
   -2.8216   -2.5887   -0.4177 C   0  0  2  0  0  0  0  0  0  0  0  0
   -3.9421   -3.2262   -1.2300 C   0  0  0  0  0  0  0  0  0  0  0  0
   -4.9563   -3.8381   -0.3316 C   0  0  1  0  0  0  0  0  0  0  0  0
   -5.4607   -2.8511    0.6641 C   0  0  0  0  0  0  0  0  0  0  0  0
   -4.4194   -1.9942    1.3092 C   0  0  0  0  0  0  0  0  0  0  0  0
   -1.9816   -3.6628    0.2486 C   0  0  0  0  0  0  0  0  0  0  0  0
   -2.6687   -4.3971    1.1929 O   0  0  0  0  0  0  0  0  0  0  0  0
   -1.4236   -4.4843   -0.7240 O   0  0  0  0  0  0  0  0  0  0  0  0
   -6.1638   -4.1838   -1.2257 C   0  0  0  0  0  0  0  0  0  0  0  0
    0.8829   -0.8983    0.0121 S   0  0  0  0  0  0  0  0  0  0  0  0
    1.4410   -2.3850   -0.2349 O   0  0  0  0  0  0  0  0  0  0  0  0
    0.9990   -0.8491    1.8497 O   0  0  0  0  0  0  0  0  0  0  0  0
    5.1594    1.3027    1.1154 C   0  0  0  0  0  0  0  0  0  0  0  0
    6.0557    1.2817   -0.1103 C   0  0  2  0  0  0  0  0  0  0  0  0
    5.2239    0.8284   -1.3205 C   0  0  0  0  0  0  0  0  0  0  0  0
    4.4102   -0.3510   -0.8151 C   0  0  0  0  0  0  0  0  0  0  0  0
    3.9724   -1.2137   -1.9348 C   0  0  0  0  0  0  0  0  0  0  0  0
    2.8193   -0.6594   -2.6793 C   0  0  0  0  0  0  0  0  0  0  0  0
    2.0462    0.4068   -2.0181 C   0  0  0  0  0  0  0  0  0  0  0  0
    1.9803    0.2910   -0.4968 C   0  0  0  0  0  0  0  0  0  0  0  0
    3.3238    0.1315    0.1153 C   0  0  0  0  0  0  0  0  0  0  0  0
    7.1527    0.2728    0.1769 C   0  0  0  0  0  0  0  0  0  0  0  0
    3.7641    1.4021    0.7362 N   0  0  0  0  0  0  0  0  0  0  0  0
   -0.6353   -0.6732   -0.3193 N   0  0  0  0  0  0  0  0  0  0  0  0
   -1.4494   -0.1921    0.7677 C   0  0  2  0  0  0  0  0  0  0  0  0
   -2.9327   -0.2922    0.4553 C   0  0  0  0  0  0  0  0  0  0  0  0
   -3.5737    0.2719    1.6063 O   0  0  0  0  0  0  0  0  0  0  0  0
   -1.0795    1.2197    1.1610 C   0  0  0  0  0  0  0  0  0  0  0  0
   -1.2392    2.2165    0.0729 C   0  0  0  0  0  0  0  0  0  0  0  0
   -0.8252    3.5747    0.6236 C   0  0  0  0  0  0  0  0  0  0  0  0
   -0.9501    4.6124   -0.3784 N   0  0  0  0  0  0  0  0  0  0  0  0
   -0.5405    5.8597    0.2376 C   0  0  0  0  0  0  0  0  0  0  0  0
   -0.6605    6.9003   -0.7563 N   0  0  0  0  0  0  0  0  0  0  0  0
   -1.2643    6.1520    1.4436 N   0  0  0  0  0  0  0  0  0  0  0  0
   -3.3222   -1.6590    0.4823 N   0  0  0  0  0  0  0  0  0  0  0  0
   -2.8216   -2.5887   -0.4177 C   0  0  2  0  0  0  0  0  0  0  0  0
   -3.9421   -3.2262   -1.2300 C   0  0  0  0  0  0  0  0  0  0  0  0
   -4.9563   -3.8381   -0.3316 C   0  0  1  0  0  0  0  0  0  0  0  0
   -5.4607   -2.8511    0.6641 C   0  0  0  0  0  0  0  0  0  0  0  0
   -4.4194   -1.9942    1.3092 C   0  0  0  0  0  0  0  0  0  0  0  0
   -1.9816   -3.6628    0.2486 C   0  0  0  0  0  0  0  0  0  0  0  0
   -2.6687   -4.3971    1.1929 O   0  0  0  0  0  0  0  0  0  0  0  0
   -1.4236   -4.4843   -0.7240 O   0  0  0  0  0  0  0  0  0  0  0  0
   -6.1638   -4.1838   -1.2257 C   0  0  0  0  0  0  0  0  0  0  0  0
    1.4658   -3.0037    0.5239 H   0  0  0  0  0  0  0  0  0  0  0  0
    1.7165   -0.2378    2.0192 H   0  0  0  0  0  0  0  0  0  0  0  0
    5.4041    2.2276    1.6756 H   0  0  0  0  0  0  0  0  0  0  0  0
    5.3571    0.4543    1.7975 H   0  0  0  0  0  0  0  0  0  0  0  0
    6.4609    2.2829   -0.3552 H   0  0  0  0  0  0  0  0  0  0  0  0
    5.9474    0.5055   -2.0806 H   0  0  0  0  0  0  0  0  0  0  0  0
    4.6261    1.6839   -1.6354 H   0  0  0  0  0  0  0  0  0  0  0  0
    5.1657   -0.9607   -0.2242 H   0  0  0  0  0  0  0  0  0  0  0  0
    4.8661   -1.3044   -2.6277 H   0  0  0  0  0  0  0  0  0  0  0  0
    3.7807   -2.2638   -1.6301 H   0  0  0  0  0  0  0  0  0  0  0  0
    3.1923   -0.2655   -3.6705 H   0  0  0  0  0  0  0  0  0  0  0  0
    2.1487   -1.5156   -2.9934 H   0  0  0  0  0  0  0  0  0  0  0  0
    0.9784    0.3212   -2.3534 H   0  0  0  0  0  0  0  0  0  0  0  0
    2.3557    1.4266   -2.3021 H   0  0  0  0  0  0  0  0  0  0  0  0
    1.5839    1.3071   -0.2133 H   0  0  0  0  0  0  0  0  0  0  0  0
    3.3133   -0.6002    0.9509 H   0  0  0  0  0  0  0  0  0  0  0  0
    7.4114   -0.3345   -0.6973 H   0  0  0  0  0  0  0  0  0  0  0  0
    8.0479    0.7915    0.5793 H   0  0  0  0  0  0  0  0  0  0  0  0
    6.8308   -0.4429    0.9865 H   0  0  0  0  0  0  0  0  0  0  0  0
    3.2131    1.5349    1.6058 H   0  0  0  0  0  0  0  0  0  0  0  0
   -0.8921   -0.0996   -1.1605 H   0  0  0  0  0  0  0  0  0  0  0  0
   -1.2766   -0.8746    1.6225 H   0  0  0  0  0  0  0  0  0  0  0  0
   -3.2282    0.2265   -0.4507 H   0  0  0  0  0  0  0  0  0  0  0  0
   -3.1637   -0.0934    2.4171 H   0  0  0  0  0  0  0  0  0  0  0  0
   -1.7001    1.4829    2.0595 H   0  0  0  0  0  0  0  0  0  0  0  0
   -0.0411    1.2297    1.5175 H   0  0  0  0  0  0  0  0  0  0  0  0
   -0.5965    2.0258   -0.8063 H   0  0  0  0  0  0  0  0  0  0  0  0
   -2.2678    2.2836   -0.3354 H   0  0  0  0  0  0  0  0  0  0  0  0
   -1.4309    3.7717    1.5263 H   0  0  0  0  0  0  0  0  0  0  0  0
    0.2248    3.4582    0.9617 H   0  0  0  0  0  0  0  0  0  0  0  0
   -1.8783    4.6519   -0.8088 H   0  0  0  0  0  0  0  0  0  0  0  0
    0.5413    5.8042    0.5092 H   0  0  0  0  0  0  0  0  0  0  0  0
   -1.1557    6.5782   -1.6169 H   0  0  0  0  0  0  0  0  0  0  0  0
    0.2391    7.3703   -0.9629 H   0  0  0  0  0  0  0  0  0  0  0  0
   -2.2347    6.4804    1.2995 H   0  0  0  0  0  0  0  0  0  0  0  0
   -0.7121    6.7174    2.1251 H   0  0  0  0  0  0  0  0  0  0  0  0
   -2.1695   -2.1121   -1.1772 H   0  0  0  0  0  0  0  0  0  0  0  0
   -4.4278   -2.4013   -1.7878 H   0  0  0  0  0  0  0  0  0  0  0  0
   -3.5382   -3.9265   -1.9783 H   0  0  0  0  0  0  0  0  0  0  0  0
   -4.6641   -4.8188    0.1033 H   0  0  0  0  0  0  0  0  0  0  0  0
   -6.2990   -2.2434    0.2238 H   0  0  0  0  0  0  0  0  0  0  0  0
   -5.9620   -3.4418    1.4846 H   0  0  0  0  0  0  0  0  0  0  0  0
   -4.1092   -2.4520    2.2953 H   0  0  0  0  0  0  0  0  0  0  0  0
   -4.9432   -1.0499    1.6086 H   0  0  0  0  0  0  0  0  0  0  0  0
   -1.1411   -3.1605    0.7638 H   0  0  0  0  0  0  0  0  0  0  0  0
   -2.4969   -5.3755    1.0379 H   0  0  0  0  0  0  0  0  0  0  0  0
   -2.1000   -5.1334   -1.0201 H   0  0  0  0  0  0  0  0  0  0  0  0
   -5.9478   -5.0804   -1.8131 H   0  0  0  0  0  0  0  0  0  0  0  0
   -6.3991   -3.3264   -1.8993 H   0  0  0  0  0  0  0  0  0  0  0  0
   -7.0159   -4.4222   -0.5516 H   0  0  0  0  0  0  0  0  0  0  0  0
    1.4658   -3.0037    0.5239 H   0  0  0  0  0  0  0  0  0  0  0  0
    1.7165   -0.2378    2.0192 H   0  0  0  0  0  0  0  0  0  0  0  0
    5.4041    2.2276    1.6756 H   0  0  0  0  0  0  0  0  0  0  0  0
    5.3571    0.4543    1.7975 H   0  0  0  0  0  0  0  0  0  0  0  0
    6.4609    2.2829   -0.3552 H   0  0  0  0  0  0  0  0  0  0  0  0
    5.9474    0.5055   -2.0806 H   0  0  0  0  0  0  0  0  0  0  0  0
    4.6261    1.6839   -1.6354 H   0  0  0  0  0  0  0  0  0  0  0  0
    5.1657   -0.9607   -0.2242 H   0  0  0  0  0  0  0  0  0  0  0  0
    4.8661   -1.3044   -2.6277 H   0  0  0  0  0  0  0  0  0  0  0  0
    3.7807   -2.2638   -1.6301 H   0  0  0  0  0  0  0  0  0  0  0  0
    3.1923   -0.2655   -3.6705 H   0  0  0  0  0  0  0  0  0  0  0  0
    2.1487   -1.5156   -2.9934 H   0  0  0  0  0  0  0  0  0  0  0  0
    0.9784    0.3212   -2.3534 H   0  0  0  0  0  0  0  0  0  0  0  0
    2.3557    1.4266   -2.3021 H   0  0  0  0  0  0  0  0  0  0  0  0
    1.5839    1.3071   -0.2133 H   0  0  0  0  0  0  0  0  0  0  0  0
    3.3133   -0.6002    0.9509 H   0  0  0  0  0  0  0  0  0  0  0  0
    7.4114   -0.3345   -0.6973 H   0  0  0  0  0  0  0  0  0  0  0  0
    8.0479    0.7915    0.5793 H   0  0  0  0  0  0  0  0  0  0  0  0
    6.8308   -0.4429    0.9865 H   0  0  0  0  0  0  0  0  0  0  0  0
    3.2131    1.5349    1.6058 H   0  0  0  0  0  0  0  0  0  0  0  0
   -0.8921   -0.0996   -1.1605 H   0  0  0  0  0  0  0  0  0  0  0  0
   -1.2766   -0.8746    1.6225 H   0  0  0  0  0  0  0  0  0  0  0  0
   -3.2282    0.2265   -0.4507 H   0  0  0  0  0  0  0  0  0  0  0  0
   -3.1637   -0.0934    2.4171 H   0  0  0  0  0  0  0  0  0  0  0  0
   -1.7001    1.4829    2.0595 H   0  0  0  0  0  0  0  0  0  0  0  0
   -0.0411    1.2297    1.5175 H   0  0  0  0  0  0  0  0  0  0  0  0
   -0.5965    2.0258   -0.8063 H   0  0  0  0  0  0  0  0  0  0  0  0
   -2.2678    2.2836   -0.3354 H   0  0  0  0  0  0  0  0  0  0  0  0
   -1.4309    3.7717    1.5263 H   0  0  0  0  0  0  0  0  0  0  0  0
    0.2248    3.4582    0.9617 H   0  0  0  0  0  0  0  0  0  0  0  0
   -1.8783    4.6519   -0.8088 H   0  0  0  0  0  0  0  0  0  0  0  0
    0.5413    5.8042    0.5092 H   0  0  0  0  0  0  0  0  0  0  0  0
   -1.1557    6.5782   -1.6169 H   0  0  0  0  0  0  0  0  0  0  0  0
    0.2391    7.3703   -0.9629 H   0  0  0  0  0  0  0  0  0  0  0  0
   -2.2347    6.4804    1.2995 H   0  0  0  0  0  0  0  0  0  0  0  0
   -0.7121    6.7174    2.1251 H   0  0  0  0  0  0  0  0  0  0  0  0
   -2.1695   -2.1121   -1.1772 H   0  0  0  0  0  0  0  0  0  0  0  0
   -4.4278   -2.4013   -1.7878 H   0  0  0  0  0  0  0  0  0  0  0  0
   -3.5382   -3.9265   -1.9783 H   0  0  0  0  0  0  0  0  0  0  0  0
   -4.6641   -4.8188    0.1033 H   0  0  0  0  0  0  0  0  0  0  0  0
   -6.2990   -2.2434    0.2238 H   0  0  0  0  0  0  0  0  0  0  0  0
   -5.9620   -3.4418    1.4846 H   0  0  0  0  0  0  0  0  0  0  0  0
   -4.1092   -2.4520    2.2953 H   0  0  0  0  0  0  0  0  0  0  0  0
   -4.9432   -1.0499    1.6086 H   0  0  0  0  0  0  0  0  0  0  0  0
   -1.1411   -3.1605    0.7638 H   0  0  0  0  0  0  0  0  0  0  0  0
   -2.4969   -5.3755    1.0379 H   0  0  0  0  0  0  0  0  0  0  0  0
   -2.1000   -5.1334   -1.0201 H   0  0  0  0  0  0  0  0  0  0  0  0
   -5.9478   -5.0804   -1.8131 H   0  0  0  0  0  0  0  0  0  0  0  0
   -6.3991   -3.3264   -1.8993 H   0  0  0  0  0  0  0  0  0  0  0  0
   -7.0159   -4.4222   -0.5516 H   0  0  0  0  0  0  0  0  0  0  0  0
  1  2  1  0
  1  3  1  0
  4  5  1  0
  5  6  1  0
  6  7  1  0
  7  8  1  0
  8  9  1  0
  9 10  1  0
  1 11  1  0
 10 11  1  0
  7 12  1  0
 11 12  1  0
  5 13  1  0
  4 14  1  0
 12 14  1  0
  1 15  1  0
 15 16  1  0
 16 17  1  0
 17 18  1  0
 16 19  1  0
 19 20  1  0
 20 21  1  0
 21 22  1  0
 22 23  1  0
 23 24  1  0
 23 25  1  0
 17 26  1  0
 26 27  1  0
 27 28  1  0
 28 29  1  0
 29 30  1  0
 26 31  1  0
 30 31  1  0
 27 32  1  0
 32 33  1  0
 32 34  1  0
 29 35  1  0
 36 37  1  0
 36 38  1  0
 39 40  1  0
 40 41  1  0
 41 42  1  0
 42 43  1  0
 43 44  1  0
 44 45  1  0
 36 46  1  0
 45 46  1  0
 42 47  1  0
 46 47  1  0
 40 48  1  0
 39 49  1  0
 47 49  1  0
 36 50  1  0
 50 51  1  0
 51 52  1  0
 52 53  1  0
 51 54  1  0
 54 55  1  0
 55 56  1  0
 56 57  1  0
 57 58  1  0
 58 59  1  0
 58 60  1  0
 52 61  1  0
 61 62  1  0
 62 63  1  0
 63 64  1  0
 64 65  1  0
 61 66  1  0
 65 66  1  0
 62 67  1  0
 67 68  1  0
 67 69  1  0
 64 70  1  0
  2 71  1  0
  3 72  1  0
  4 73  1  0
  4 74  1  0
  5 75  1  6
  6 76  1  0
  6 77  1  0
  7 78  1  0
  8 79  1  0
  8 80  1  0
  9 81  1  0
  9 82  1  0
 10 83  1  0
 10 84  1  0
 11 85  1  0
 12 86  1  0
 13 87  1  0
 13 88  1  0
 13 89  1  0
 14 90  1  0
 15 91  1  0
 16 92  1  1
 17 93  1  0
 18 94  1  0
 19 95  1  0
 19 96  1  0
 20 97  1  0
 20 98  1  0
 21 99  1  0
 21100  1  0
 22101  1  0
 23102  1  0
 24103  1  0
 24104  1  0
 25105  1  0
 25106  1  0
 27107  1  6
 28108  1  0
 28109  1  0
 29110  1  1
 30111  1  0
 30112  1  0
 31113  1  0
 31114  1  0
 32115  1  0
 33116  1  0
 34117  1  0
 35118  1  0
 35119  1  0
 35120  1  0
 37121  1  0
 38122  1  0
 39123  1  0
 39124  1  0
 40125  1  6
 41126  1  0
 41127  1  0
 42128  1  0
 43129  1  0
 43130  1  0
 44131  1  0
 44132  1  0
 45133  1  0
 45134  1  0
 46135  1  0
 47136  1  0
 48137  1  0
 48138  1  0
 48139  1  0
 49140  1  0
 50141  1  0
 51142  1  1
 52143  1  0
 53144  1  0
 54145  1  0
 54146  1  0
 55147  1  0
 55148  1  0
 56149  1  0
 56150  1  0
 57151  1  0
 58152  1  0
 59153  1  0
 59154  1  0
 60155  1  0
 60156  1  0
 62157  1  6
 63158  1  0
 63159  1  0
 64160  1  1
 65161  1  0
 65162  1  0
 66163  1  0
 66164  1  0
 67165  1  0
 68166  1  0
 69167  1  0
 70168  1  0
 70169  1  0
 70170  1  0
M  END
>  <PDBID>  (1) 
4HFP

>  <PDB ID>  (1) 
4HFP

>  <Generic Name>  (1) 
Argatroban

>  <Brand Name>  (1) 
Argatroban

>  <DrugBank ID>  (1) 
DB00278

>  <ATC Codes>  (1) 
B01AE03

>  <Ligand ID>  (1) 
15U,MIT

>  <Target Name>  (1) 
Prothrombin

>  <UniProt ID>  (1) 
P00734

>  <PDB ID.1>  (1) 
4HFP

>  <Seq. Identity>  (1) 
100%

$$$$
