PDB_DB00509_01
     RDKit          3D

 49 50  0  0  0  0  0  0  0  0999 V2000
   -2.2715    0.3284   -0.6681 C   0  0  2  0  0  0  0  0  0  0  0  0
   -1.2223    0.6763   -1.7173 C   0  0  0  0  0  0  0  0  0  0  0  0
   -0.0095    1.3233   -1.1308 C   0  0  2  0  0  0  0  0  0  0  0  0
    0.5337    0.5916    0.0839 C   0  0  0  0  0  0  0  0  0  0  0  0
   -0.5423    0.1350    0.9943 C   0  0  0  0  0  0  0  0  0  0  0  0
   -1.6130   -0.6753    0.2522 C   0  0  0  0  0  0  0  0  0  0  0  0
   -3.5027   -0.1827   -1.3003 C   0  0  0  0  0  0  0  0  0  0  0  0
   -4.5408   -0.5488   -0.2742 C   0  0  1  0  0  0  0  0  0  0  0  0
   -5.0028    0.5515    0.6078 C   0  0  0  0  0  0  0  0  0  0  0  0
    2.6533   -0.2821    0.0609 C   0  0  0  0  0  0  0  0  0  0  0  0
    3.5056    0.0104   -1.2017 C   0  0  0  0  0  0  0  0  0  0  0  0
    4.9469    0.1025   -0.7752 C   0  0  0  0  0  0  0  0  0  0  0  0
    5.1461    0.3008    0.6924 C   0  0  0  0  0  0  0  0  0  0  0  0
    4.4869   -0.7452    1.5519 C   0  0  0  0  0  0  0  0  0  0  0  0
    3.3597   -1.3991    0.7338 C   0  0  0  0  0  0  0  0  0  0  0  0
   -5.6863   -1.0811   -1.0442 N   0  0  0  0  0  0  0  0  0  0  0  0
    1.3456   -0.4607   -0.2777 O   0  0  0  0  0  0  0  0  0  0  0  0
    6.4947    0.2923    0.9622 O   0  0  0  0  0  0  0  0  0  0  0  0
   -4.0616    1.1286    1.4145 O   0  0  0  0  0  0  0  0  0  0  0  0
   -6.1081    0.1026    1.3686 O   0  0  0  0  0  0  0  0  0  0  0  0
   -0.4761    3.3473   -0.6654 I   0  0  0  0  0  0  0  0  0  0  0  0
    6.1185   -1.5107   -1.5492 I   0  0  0  0  0  0  0  0  0  0  0  0
    0.0637   -0.9388    2.6855 I   0  0  0  0  0  0  0  0  0  0  0  0
    5.8232   -2.1632    2.3302 I   0  0  0  0  0  0  0  0  0  0  0  0
   -2.4409    1.2758   -0.0963 H   0  0  0  0  0  0  0  0  0  0  0  0
   -0.9870   -0.2165   -2.3135 H   0  0  0  0  0  0  0  0  0  0  0  0
   -1.7047    1.4134   -2.3934 H   0  0  0  0  0  0  0  0  0  0  0  0
    0.7904    1.3286   -1.8916 H   0  0  0  0  0  0  0  0  0  0  0  0
    1.1549    1.3437    0.6055 H   0  0  0  0  0  0  0  0  0  0  0  0
   -1.1022    1.0646    1.3167 H   0  0  0  0  0  0  0  0  0  0  0  0
   -2.2865   -1.1032    0.9942 H   0  0  0  0  0  0  0  0  0  0  0  0
   -1.1032   -1.4793   -0.3123 H   0  0  0  0  0  0  0  0  0  0  0  0
   -3.8976    0.5410   -2.0427 H   0  0  0  0  0  0  0  0  0  0  0  0
   -3.2118   -1.0929   -1.9009 H   0  0  0  0  0  0  0  0  0  0  0  0
   -4.2161   -1.3971    0.3569 H   0  0  0  0  0  0  0  0  0  0  0  0
   -5.4505    1.3398   -0.0736 H   0  0  0  0  0  0  0  0  0  0  0  0
    2.7453    0.6929    0.6245 H   0  0  0  0  0  0  0  0  0  0  0  0
    3.3119   -0.7879   -1.9400 H   0  0  0  0  0  0  0  0  0  0  0  0
    3.1340    0.9852   -1.5760 H   0  0  0  0  0  0  0  0  0  0  0  0
    5.3613    1.0313   -1.2696 H   0  0  0  0  0  0  0  0  0  0  0  0
    4.7780    1.3389    0.9325 H   0  0  0  0  0  0  0  0  0  0  0  0
    3.9763   -0.2206    2.3859 H   0  0  0  0  0  0  0  0  0  0  0  0
    2.7934   -2.0601    1.3742 H   0  0  0  0  0  0  0  0  0  0  0  0
    3.8251   -2.0779   -0.0446 H   0  0  0  0  0  0  0  0  0  0  0  0
   -6.3165   -1.6231   -0.4187 H   0  0  0  0  0  0  0  0  0  0  0  0
   -5.2995   -1.6848   -1.7888 H   0  0  0  0  0  0  0  0  0  0  0  0
    6.6201    0.7632    1.8458 H   0  0  0  0  0  0  0  0  0  0  0  0
   -4.1201    2.1059    1.4463 H   0  0  0  0  0  0  0  0  0  0  0  0
   -5.7952   -0.3840    2.1695 H   0  0  0  0  0  0  0  0  0  0  0  0
  1  2  1  0
  2  3  1  0
  3  4  1  0
  4  5  1  0
  1  6  1  0
  5  6  1  0
  1  7  1  0
  7  8  1  0
  8  9  1  0
 10 11  1  0
 11 12  1  0
 12 13  1  0
 13 14  1  0
 10 15  1  0
 14 15  1  0
  8 16  1  0
  4 17  1  0
 10 17  1  0
 13 18  1  0
  9 19  1  0
  9 20  1  0
  3 21  1  0
 12 22  1  0
  5 23  1  0
 14 24  1  0
  1 25  1  1
  2 26  1  0
  2 27  1  0
  3 28  1  6
  4 29  1  0
  5 30  1  0
  6 31  1  0
  6 32  1  0
  7 33  1  0
  7 34  1  0
  8 35  1  1
  9 36  1  0
 10 37  1  0
 11 38  1  0
 11 39  1  0
 12 40  1  0
 13 41  1  0
 14 42  1  0
 15 43  1  0
 15 44  1  0
 16 45  1  0
 16 46  1  0
 18 47  1  0
 19 48  1  0
 20 49  1  0
M  END
>  <PDBID>  (1) 
1Y0X

>  <PDB ID>  (1) 
1Y0X

>  <Generic Name>  (1) 
Dextrothyroxine

>  <Brand Name>  (1) 
Choloxin - Tab 4mg#Choloxin Tab 2mg#Choloxin Tablet 4mg#Choloxin#Dynothel#Eulipos#Lisolipin

>  <DrugBank ID>  (1) 
DB00509

>  <ATC Codes>  (1) 
C10AX01

>  <Ligand ID>  (1) 
T44

>  <Target Name>  (1) 
Thyroid hormone receptor beta

>  <UniProt ID>  (1) 
P10828

>  <PDB ID.1>  (1) 
1Y0X

>  <Seq. Identity>  (1) 
100%

$$$$
