PDB_DB09324_09
     RDKit          3D

 32 33  0  0  0  0  0  0  0  0999 V2000
    1.0863   -2.0494    0.7767 C   0  0  0  0  0  0  0  0  0  0  0  0
    0.6907   -0.9882   -0.1520 C   0  0  0  0  0  0  0  0  0  0  0  0
    0.9417   -1.2328   -1.5913 C   0  0  0  0  0  0  0  0  0  0  0  0
    1.7475    0.5401    0.2983 S   0  0  0  0  0  0  0  0  0  0  0  0
    1.9484    0.6260    2.0562 O   0  0  0  0  0  0  0  0  0  0  0  0
    3.2808    0.4609   -0.4993 O   0  0  0  0  0  0  0  0  0  0  0  0
    0.5346    1.6793   -0.3654 C   0  0  2  0  0  0  0  0  0  0  0  0
   -0.2485    2.4060    0.6670 C   0  0  0  0  0  0  0  0  0  0  0  0
   -1.4469    1.9647   -0.1683 C   0  0  0  0  0  0  0  0  0  0  0  0
   -1.7354    2.9074   -1.1258 O   0  0  0  0  0  0  0  0  0  0  0  0
   -0.6030    0.8745   -0.6812 N   0  0  0  0  0  0  0  0  0  0  0  0
   -0.5993   -0.2923    0.1482 C   0  0  1  0  0  0  0  0  0  0  0  0
   -1.7760   -1.1539   -0.2039 C   0  0  0  0  0  0  0  0  0  0  0  0
   -1.8115   -2.3167    0.5907 O   0  0  0  0  0  0  0  0  0  0  0  0
   -2.9872   -0.5127   -0.0130 O   0  0  0  0  0  0  0  0  0  0  0  0
    0.3260   -2.2343    1.5415 H   0  0  0  0  0  0  0  0  0  0  0  0
    1.1907   -3.0132    0.1983 H   0  0  0  0  0  0  0  0  0  0  0  0
    2.0618   -1.9081    1.2814 H   0  0  0  0  0  0  0  0  0  0  0  0
    1.6671   -2.0924   -1.6837 H   0  0  0  0  0  0  0  0  0  0  0  0
    1.4236   -0.3799   -2.0998 H   0  0  0  0  0  0  0  0  0  0  0  0
    0.0623   -1.5312   -2.1832 H   0  0  0  0  0  0  0  0  0  0  0  0
    2.5602   -0.0919    2.2911 H   0  0  0  0  0  0  0  0  0  0  0  0
    3.7715    1.2098   -0.1078 H   0  0  0  0  0  0  0  0  0  0  0  0
    0.9560    2.2808   -1.1921 H   0  0  0  0  0  0  0  0  0  0  0  0
   -0.1911    1.9634    1.6702 H   0  0  0  0  0  0  0  0  0  0  0  0
   -0.1058    3.5133    0.6681 H   0  0  0  0  0  0  0  0  0  0  0  0
   -2.2562    1.6498    0.4927 H   0  0  0  0  0  0  0  0  0  0  0  0
   -2.3186    2.5143   -1.7996 H   0  0  0  0  0  0  0  0  0  0  0  0
   -0.6292   -0.0596    1.2171 H   0  0  0  0  0  0  0  0  0  0  0  0
   -1.7513   -1.5131   -1.2524 H   0  0  0  0  0  0  0  0  0  0  0  0
   -2.0904   -2.0795    1.5189 H   0  0  0  0  0  0  0  0  0  0  0  0
   -3.6989   -1.1413   -0.2977 H   0  0  0  0  0  0  0  0  0  0  0  0
  2  1  1  0
  2  3  1  0
  2  4  1  0
  4  5  1  0
  4  6  1  0
  4  7  1  0
  7  8  1  0
  8  9  1  0
  9 10  1  0
  7 11  1  0
  9 11  1  0
  2 12  1  0
 11 12  1  0
 12 13  1  0
 13 14  1  0
 13 15  1  0
  1 16  1  0
  1 17  1  0
  1 18  1  0
  3 19  1  0
  3 20  1  0
  3 21  1  0
  5 22  1  0
  6 23  1  0
  7 24  1  6
  8 25  1  0
  8 26  1  0
  9 27  1  0
 10 28  1  0
 12 29  1  1
 13 30  1  0
 14 31  1  0
 15 32  1  0
M  END
>  <PDBID>  (1) 
4FH2

>  <PDB ID>  (1) 
4FH2

>  <Generic Name>  (1) 
Sulbactam

>  <Brand Name>  (1) 
Ampicillin Sodium and Sulbactam Sodium#Ampicillin and Sulbactam#Unasyn

>  <DrugBank ID>  (1) 
DB09324

>  <ATC Codes>  (1) 
J01CG01

>  <Ligand ID>  (1) 
0RN

>  <Target Name>  (1) 
Beta-lactamase

>  <UniProt ID>  (1) 
P00807

>  <PDB ID.1>  (1) 
4FH2

>  <Seq. Identity>  (1) 
31%

$$$$
