PDB_DB01361_06
     RDKit          3D

134137  0  0  0  0  0  0  0  0999 V2000
    6.2871   -1.6625   -1.6814 C   0  0  0  0  0  0  0  0  0  0  0  0
    6.2384   -1.7443   -0.2857 O   0  0  0  0  0  0  0  0  0  0  0  0
    5.3031   -0.8471    0.1925 C   0  0  1  0  0  0  0  0  0  0  0  0
    4.2225   -1.6044    0.9359 C   0  0  0  0  0  0  0  0  0  0  0  0
    3.1360   -0.6562    1.3977 C   0  0  1  0  0  0  0  0  0  0  0  0
    3.7710    0.1940    2.3224 O   0  0  0  0  0  0  0  0  0  0  0  0
    4.7529    0.9556    1.7379 C   0  0  1  0  0  0  0  0  0  0  0  0
    5.2721    1.9199    2.7797 C   0  0  0  0  0  0  0  0  0  0  0  0
    5.9236    0.1106    1.2176 C   0  0  2  0  0  0  0  0  0  0  0  0
    6.8366    0.9657    0.6350 O   0  0  0  0  0  0  0  0  0  0  0  0
    8.0926    0.8650    1.2260 C   0  0  1  0  0  0  0  0  0  0  0  0
    9.0385    0.4238    0.2889 O   0  0  0  0  0  0  0  0  0  0  0  0
    8.5314    2.2109    1.7597 C   0  0  0  0  0  0  0  0  0  0  0  0
    2.5134   -0.0058    0.3684 O   0  0  0  0  0  0  0  0  0  0  0  0
    1.1394   -0.2543    0.2619 C   0  0  2  0  0  0  0  0  0  0  0  0
    1.0307   -0.9983   -1.0872 C   0  0  2  0  0  0  0  0  0  0  0  0
    1.1170   -2.4939   -0.8913 C   0  0  0  0  0  0  0  0  0  0  0  0
    2.1988   -2.9346   -1.6906 O   0  0  0  0  0  0  0  0  0  0  0  0
    0.0164   -3.1692   -1.3555 O   0  0  0  0  0  0  0  0  0  0  0  0
   -0.3874   -4.2488   -0.6061 C   0  0  2  0  0  0  0  0  0  0  0  0
    0.7647   -5.2115   -0.2856 C   0  0  0  0  0  0  0  0  0  0  0  0
   -1.4777   -4.9537   -1.3413 C   0  0  2  0  0  0  0  0  0  0  0  0
   -1.4145   -4.7479   -2.8446 C   0  0  0  0  0  0  0  0  0  0  0  0
   -2.8701   -4.6745   -0.8282 C   0  0  1  0  0  0  0  0  0  0  0  0
   -3.0567   -5.4560    0.2984 O   0  0  0  0  0  0  0  0  0  0  0  0
   -3.9613   -6.4894    0.1187 C   0  0  2  0  0  0  0  0  0  0  0  0
   -5.1040   -6.3796    0.9067 O   0  0  0  0  0  0  0  0  0  0  0  0
   -3.2370   -7.7930    0.3926 C   0  0  0  0  0  0  0  0  0  0  0  0
   -3.1890   -3.2280   -0.6542 C   0  0  2  0  0  0  0  0  0  0  0  0
   -3.5074   -2.9449    0.7711 C   0  0  2  0  0  0  0  0  0  0  0  0
   -4.8601   -3.2950    0.9774 O   0  0  0  0  0  0  0  0  0  0  0  0
   -3.3994   -1.4777    1.1266 C   0  0  2  0  0  0  0  0  0  0  0  0
   -3.5707   -1.3732    2.6007 O   0  0  0  0  0  0  0  0  0  0  0  0
   -4.4789   -0.7886    1.7432 C   0  0  0  0  0  0  0  0  0  0  0  0
   -2.1260   -0.8599    0.6247 C   0  0  0  0  0  0  0  0  0  0  0  0
   -1.5383    0.0850    1.6471 C   0  0  1  0  0  0  0  0  0  0  0  0
   -0.8890   -0.6305    2.7763 C   0  0  0  0  0  0  0  0  0  0  0  0
   -0.7843    1.2357    1.0523 C   0  0  2  0  0  0  0  0  0  0  0  0
   -1.7793    1.9285    0.3088 O   0  0  0  0  0  0  0  0  0  0  0  0
   -2.1329    3.1151    0.8178 C   0  0  2  0  0  0  0  0  0  0  0  0
   -3.4328    3.1443    1.3438 O   0  0  0  0  0  0  0  0  0  0  0  0
   -4.4285    3.6035    0.5611 C   0  0  2  0  0  0  0  0  0  0  0  0
   -4.8701    2.7500   -0.5817 C   0  0  0  0  0  0  0  0  0  0  0  0
   -4.2868    5.0714    0.1210 C   0  0  0  0  0  0  0  0  0  0  0  0
   -2.8134    5.4228    0.3861 C   0  0  2  0  0  0  0  0  0  0  0  0
   -2.3786    6.6046   -0.2850 N   0  0  0  0  0  0  0  0  0  0  0  0
   -3.1930    7.7651    0.1201 C   0  0  0  0  0  0  0  0  0  0  0  0
   -1.0136    6.8653    0.2284 C   0  0  0  0  0  0  0  0  0  0  0  0
   -2.0749    4.2152   -0.1967 C   0  0  1  0  0  0  0  0  0  0  0  0
   -0.8827    4.4920   -0.7826 O   0  0  0  0  0  0  0  0  0  0  0  0
   -0.8678    4.2241   -2.1529 C   0  0  2  0  0  0  0  0  0  0  0  0
    0.0778    3.2759   -2.5180 O   0  0  0  0  0  0  0  0  0  0  0  0
   -0.6800    5.4911   -2.9840 C   0  0  0  0  0  0  0  0  0  0  0  0
    0.3127    0.9842    0.1253 C   0  0  1  0  0  0  0  0  0  0  0  0
    1.2996    2.1550    0.3092 C   0  0  0  0  0  0  0  0  0  0  0  0
   -4.4258   -2.8692   -1.4898 C   0  0  0  0  0  0  0  0  0  0  0  0
    2.0646   -0.4984   -2.0697 C   0  0  0  0  0  0  0  0  0  0  0  0
    7.0475   -2.3935   -2.0556 H   0  0  0  0  0  0  0  0  0  0  0  0
    6.6272   -0.6235   -1.9411 H   0  0  0  0  0  0  0  0  0  0  0  0
    5.3165   -1.8159   -2.1594 H   0  0  0  0  0  0  0  0  0  0  0  0
    4.8276   -0.2915   -0.6367 H   0  0  0  0  0  0  0  0  0  0  0  0
    4.7230   -1.9631    1.8832 H   0  0  0  0  0  0  0  0  0  0  0  0
    3.8763   -2.4974    0.4298 H   0  0  0  0  0  0  0  0  0  0  0  0
    2.4212   -1.2711    1.9798 H   0  0  0  0  0  0  0  0  0  0  0  0
    4.3480    1.4574    0.8486 H   0  0  0  0  0  0  0  0  0  0  0  0
    4.3977    2.1825    3.4318 H   0  0  0  0  0  0  0  0  0  0  0  0
    6.0544    1.3948    3.3840 H   0  0  0  0  0  0  0  0  0  0  0  0
    5.7105    2.7762    2.2707 H   0  0  0  0  0  0  0  0  0  0  0  0
    6.3117   -0.5051    2.0316 H   0  0  0  0  0  0  0  0  0  0  0  0
    8.1118    0.1223    2.0441 H   0  0  0  0  0  0  0  0  0  0  0  0
    8.7096    0.6239   -0.6121 H   0  0  0  0  0  0  0  0  0  0  0  0
    9.6348    2.2971    1.6437 H   0  0  0  0  0  0  0  0  0  0  0  0
    8.2296    2.2809    2.8089 H   0  0  0  0  0  0  0  0  0  0  0  0
    8.0353    3.0016    1.1286 H   0  0  0  0  0  0  0  0  0  0  0  0
    0.8995   -0.9187    1.0864 H   0  0  0  0  0  0  0  0  0  0  0  0
    0.0388   -0.7896   -1.5417 H   0  0  0  0  0  0  0  0  0  0  0  0
    1.3966   -2.7488    0.1536 H   0  0  0  0  0  0  0  0  0  0  0  0
    2.6703   -3.6846   -1.2858 H   0  0  0  0  0  0  0  0  0  0  0  0
   -0.7054   -3.8742    0.3945 H   0  0  0  0  0  0  0  0  0  0  0  0
    1.2334   -5.6230   -1.1764 H   0  0  0  0  0  0  0  0  0  0  0  0
    1.4479   -4.7702    0.4639 H   0  0  0  0  0  0  0  0  0  0  0  0
    0.2691   -6.0721    0.2523 H   0  0  0  0  0  0  0  0  0  0  0  0
   -1.3099   -6.0603   -1.1947 H   0  0  0  0  0  0  0  0  0  0  0  0
   -1.6410   -5.7021   -3.3948 H   0  0  0  0  0  0  0  0  0  0  0  0
   -0.3672   -4.4756   -3.1629 H   0  0  0  0  0  0  0  0  0  0  0  0
   -2.1259   -3.9727   -3.1799 H   0  0  0  0  0  0  0  0  0  0  0  0
   -3.5533   -5.1195   -1.6133 H   0  0  0  0  0  0  0  0  0  0  0  0
   -4.3338   -6.4408   -0.9436 H   0  0  0  0  0  0  0  0  0  0  0  0
   -5.8694   -6.8373    0.4332 H   0  0  0  0  0  0  0  0  0  0  0  0
   -2.7619   -8.2200   -0.5108 H   0  0  0  0  0  0  0  0  0  0  0  0
   -2.4489   -7.5747    1.1531 H   0  0  0  0  0  0  0  0  0  0  0  0
   -3.9823   -8.5169    0.7874 H   0  0  0  0  0  0  0  0  0  0  0  0
   -2.3644   -2.6122   -1.0663 H   0  0  0  0  0  0  0  0  0  0  0  0
   -2.9301   -3.5826    1.4729 H   0  0  0  0  0  0  0  0  0  0  0  0
   -5.0147   -3.6158    1.8881 H   0  0  0  0  0  0  0  0  0  0  0  0
   -5.4851   -1.2662    1.7468 H   0  0  0  0  0  0  0  0  0  0  0  0
   -4.5389    0.3067    1.8133 H   0  0  0  0  0  0  0  0  0  0  0  0
   -2.4118   -0.2275   -0.2649 H   0  0  0  0  0  0  0  0  0  0  0  0
   -1.3500   -1.5910    0.3942 H   0  0  0  0  0  0  0  0  0  0  0  0
   -2.4683    0.5731    2.0899 H   0  0  0  0  0  0  0  0  0  0  0  0
   -0.7431   -1.7370    2.5924 H   0  0  0  0  0  0  0  0  0  0  0  0
   -1.5681   -0.6561    3.6842 H   0  0  0  0  0  0  0  0  0  0  0  0
    0.0247   -0.1353    3.1620 H   0  0  0  0  0  0  0  0  0  0  0  0
   -0.5155    1.8948    1.9082 H   0  0  0  0  0  0  0  0  0  0  0  0
   -1.5018    3.4207    1.7045 H   0  0  0  0  0  0  0  0  0  0  0  0
   -5.3412    3.6488    1.2442 H   0  0  0  0  0  0  0  0  0  0  0  0
   -4.1816    1.9378   -0.8556 H   0  0  0  0  0  0  0  0  0  0  0  0
   -5.8583    2.2310   -0.4083 H   0  0  0  0  0  0  0  0  0  0  0  0
   -5.0478    3.3596   -1.4980 H   0  0  0  0  0  0  0  0  0  0  0  0
   -4.8649    5.7616    0.7314 H   0  0  0  0  0  0  0  0  0  0  0  0
   -4.5131    5.1698   -0.9571 H   0  0  0  0  0  0  0  0  0  0  0  0
   -2.6881    5.4269    1.4755 H   0  0  0  0  0  0  0  0  0  0  0  0
   -3.4432    7.6515    1.1802 H   0  0  0  0  0  0  0  0  0  0  0  0
   -4.0665    7.8536   -0.5530 H   0  0  0  0  0  0  0  0  0  0  0  0
   -2.5078    8.6399    0.0431 H   0  0  0  0  0  0  0  0  0  0  0  0
   -0.6440    6.0458    0.8658 H   0  0  0  0  0  0  0  0  0  0  0  0
   -0.3931    7.1020   -0.6329 H   0  0  0  0  0  0  0  0  0  0  0  0
   -1.0965    7.7438    0.9295 H   0  0  0  0  0  0  0  0  0  0  0  0
   -2.7486    3.8467   -1.0471 H   0  0  0  0  0  0  0  0  0  0  0  0
   -1.8730    3.8144   -2.4672 H   0  0  0  0  0  0  0  0  0  0  0  0
    0.6872    3.6668   -3.2191 H   0  0  0  0  0  0  0  0  0  0  0  0
   -0.5562    5.1918   -4.0524 H   0  0  0  0  0  0  0  0  0  0  0  0
   -1.6055    6.0831   -2.8948 H   0  0  0  0  0  0  0  0  0  0  0  0
    0.1880    6.0833   -2.6880 H   0  0  0  0  0  0  0  0  0  0  0  0
   -0.0489    1.1045   -0.9388 H   0  0  0  0  0  0  0  0  0  0  0  0
    1.8262    2.4149   -0.6048 H   0  0  0  0  0  0  0  0  0  0  0  0
    2.0046    1.8263    1.1186 H   0  0  0  0  0  0  0  0  0  0  0  0
    0.7463    2.9983    0.7666 H   0  0  0  0  0  0  0  0  0  0  0  0
   -4.4340   -1.7758   -1.5845 H   0  0  0  0  0  0  0  0  0  0  0  0
   -5.3489   -3.2272   -0.9897 H   0  0  0  0  0  0  0  0  0  0  0  0
   -4.3237   -3.2968   -2.5162 H   0  0  0  0  0  0  0  0  0  0  0  0
    2.3656    0.5359   -1.9437 H   0  0  0  0  0  0  0  0  0  0  0  0
    2.9278   -1.1983   -2.0804 H   0  0  0  0  0  0  0  0  0  0  0  0
    1.6383   -0.5701   -3.1141 H   0  0  0  0  0  0  0  0  0  0  0  0
  1  2  1  0
  2  3  1  0
  3  4  1  0
  4  5  1  0
  5  6  1  0
  6  7  1  0
  7  8  1  0
  3  9  1  0
  7  9  1  0
  9 10  1  0
 10 11  1  0
 11 12  1  0
 11 13  1  0
  5 14  1  0
 14 15  1  0
 15 16  1  0
 16 17  1  0
 17 18  1  0
 17 19  1  0
 19 20  1  0
 20 21  1  0
 20 22  1  0
 22 23  1  0
 22 24  1  0
 24 25  1  0
 25 26  1  0
 26 27  1  0
 26 28  1  0
 24 29  1  0
 29 30  1  0
 30 31  1  0
 30 32  1  0
 32 33  1  1
 32 34  1  0
 33 34  1  0
 32 35  1  0
 35 36  1  0
 36 37  1  0
 36 38  1  0
 38 39  1  0
 39 40  1  0
 40 41  1  0
 41 42  1  0
 42 43  1  0
 42 44  1  0
 44 45  1  0
 45 46  1  0
 46 47  1  0
 46 48  1  0
 40 49  1  0
 45 49  1  0
 49 50  1  0
 50 51  1  0
 51 52  1  0
 51 53  1  0
 15 54  1  0
 38 54  1  0
 54 55  1  0
 29 56  1  0
 16 57  1  0
  1 58  1  0
  1 59  1  0
  1 60  1  0
  3 61  1  6
  4 62  1  0
  4 63  1  0
  5 64  1  1
  7 65  1  6
  8 66  1  0
  8 67  1  0
  8 68  1  0
  9 69  1  1
 11 70  1  1
 12 71  1  0
 13 72  1  0
 13 73  1  0
 13 74  1  0
 15 75  1  1
 16 76  1  6
 17 77  1  0
 18 78  1  0
 20 79  1  1
 21 80  1  0
 21 81  1  0
 21 82  1  0
 22 83  1  6
 23 84  1  0
 23 85  1  0
 23 86  1  0
 24 87  1  6
 26 88  1  6
 27 89  1  0
 28 90  1  0
 28 91  1  0
 28 92  1  0
 29 93  1  6
 30 94  1  1
 31 95  1  0
 34 96  1  0
 34 97  1  0
 35 98  1  0
 35 99  1  0
 36100  1  1
 37101  1  0
 37102  1  0
 37103  1  0
 38104  1  1
 40105  1  1
 42106  1  1
 43107  1  0
 43108  1  0
 43109  1  0
 44110  1  0
 44111  1  0
 45112  1  1
 47113  1  0
 47114  1  0
 47115  1  0
 48116  1  0
 48117  1  0
 48118  1  0
 49119  1  6
 51120  1  6
 52121  1  0
 53122  1  0
 53123  1  0
 53124  1  0
 54125  1  6
 55126  1  0
 55127  1  0
 55128  1  0
 56129  1  0
 56130  1  0
 56131  1  0
 57132  1  0
 57133  1  0
 57134  1  0
M  END
>  <PDBID>  (1) 
1OND

>  <PDB ID>  (1) 
1OND

>  <Generic Name>  (1) 
Troleandomycin

>  <Brand Name>  (1) 
Tao#Triocetin

>  <DrugBank ID>  (1) 
DB01361

>  <ATC Codes>  (1) 
J01FA08

>  <Ligand ID>  (1) 
TAO

>  <Target Name>  (1) 
50S ribosomal protein L32

>  <UniProt ID>  (1) 
P49228

>  <PDB ID.1>  (1) 
1OND

>  <Seq. Identity>  (1) 
100%

$$$$
