PDB_DB00787_07
     RDKit          3D

 70 72  0  0  0  0  0  0  0  0999 V2000
    3.8585   -0.9180    0.4170 C   0  0  0  0  0  0  0  0  0  0  0  0
    5.0923   -0.6241    1.0152 O   0  0  0  0  0  0  0  0  0  0  0  0
    3.5851    0.0032   -0.7422 C   0  0  0  0  0  0  0  0  0  0  0  0
    2.4517   -0.1984   -1.3518 O   0  0  0  0  0  0  0  0  0  0  0  0
    1.1916    0.0339   -1.0866 C   0  0  0  0  0  0  0  0  0  0  0  0
    0.5533   -0.3836    0.1055 N   0  0  0  0  0  0  0  0  0  0  0  0
    0.9143    0.4637    1.2173 C   0  0  0  0  0  0  0  0  0  0  0  0
   -0.2350    1.3289    1.4869 N   0  0  0  0  0  0  0  0  0  0  0  0
   -1.1306    1.0991    0.4067 C   0  0  0  0  0  0  0  0  0  0  0  0
   -2.5890    1.1669    0.7570 C   0  0  0  0  0  0  0  0  0  0  0  0
   -2.8018    1.4931    2.0953 O   0  0  0  0  0  0  0  0  0  0  0  0
   -3.2823   -0.0679    0.4853 N   0  0  0  0  0  0  0  0  0  0  0  0
   -2.9518   -0.6937   -0.7423 C   0  0  0  0  0  0  0  0  0  0  0  0
   -3.3023   -2.1187   -0.6159 N   0  0  0  0  0  0  0  0  0  0  0  0
   -1.5374   -0.6829   -1.0818 N   0  0  0  0  0  0  0  0  0  0  0  0
   -0.8482   -0.3682    0.1299 C   0  0  0  0  0  0  0  0  0  0  0  0
    4.8295   -0.7766    0.1649 C   0  0  0  0  0  0  0  0  0  0  0  0
    5.2128   -0.6385   -1.1660 O   0  0  0  0  0  0  0  0  0  0  0  0
    3.4339   -0.1079    0.3404 C   0  0  0  0  0  0  0  0  0  0  0  0
    2.6116   -0.7700   -0.4918 O   0  0  0  0  0  0  0  0  0  0  0  0
    1.3068   -0.4290   -0.6391 C   0  0  0  0  0  0  0  0  0  0  0  0
    0.4427   -0.4527    0.4684 N   0  0  0  0  0  0  0  0  0  0  0  0
    0.7408    0.5537    1.4292 C   0  0  0  0  0  0  0  0  0  0  0  0
   -0.5470    1.2692    1.6826 N   0  0  0  0  0  0  0  0  0  0  0  0
   -1.2281    1.0614    0.4195 C   0  0  2  0  0  0  0  0  0  0  0  0
   -2.7097    1.2022    0.4847 C   0  0  0  0  0  0  0  0  0  0  0  0
   -3.0591    1.7136    1.7368 O   0  0  0  0  0  0  0  0  0  0  0  0
   -3.4394    0.0121    0.2098 N   0  0  0  0  0  0  0  0  0  0  0  0
   -2.9268   -0.8771   -0.7425 C   0  0  0  0  0  0  0  0  0  0  0  0
   -3.6307   -0.7692   -2.0258 N   0  0  0  0  0  0  0  0  0  0  0  0
   -1.4888   -0.8496   -0.9448 N   0  0  0  0  0  0  0  0  0  0  0  0
   -0.9326   -0.4247    0.2989 C   0  0  0  0  0  0  0  0  0  0  0  0
    3.0547   -1.0363    1.0942 H   0  0  0  0  0  0  0  0  0  0  0  0
    4.0502   -1.9351   -0.0846 H   0  0  0  0  0  0  0  0  0  0  0  0
    5.7300   -0.2468    0.3827 H   0  0  0  0  0  0  0  0  0  0  0  0
    3.7418    1.0863   -0.3927 H   0  0  0  0  0  0  0  0  0  0  0  0
    4.4940   -0.0862   -1.4525 H   0  0  0  0  0  0  0  0  0  0  0  0
    0.5976   -0.3414   -2.0034 H   0  0  0  0  0  0  0  0  0  0  0  0
    0.9557    1.1765   -1.2239 H   0  0  0  0  0  0  0  0  0  0  0  0
    1.8323    1.0496    1.0561 H   0  0  0  0  0  0  0  0  0  0  0  0
    1.0455   -0.2001    2.1177 H   0  0  0  0  0  0  0  0  0  0  0  0
    0.0359    2.3094    1.6389 H   0  0  0  0  0  0  0  0  0  0  0  0
   -0.8900    1.6504   -0.5236 H   0  0  0  0  0  0  0  0  0  0  0  0
   -3.0353    1.9866    0.1539 H   0  0  0  0  0  0  0  0  0  0  0  0
   -3.7348    1.8699    2.1491 H   0  0  0  0  0  0  0  0  0  0  0  0
   -3.2477   -0.6596    1.3268 H   0  0  0  0  0  0  0  0  0  0  0  0
   -3.5563   -0.3311   -1.6039 H   0  0  0  0  0  0  0  0  0  0  0  0
   -4.1388   -2.2689   -0.0459 H   0  0  0  0  0  0  0  0  0  0  0  0
   -3.2540   -2.6121   -1.5109 H   0  0  0  0  0  0  0  0  0  0  0  0
   -1.4343    0.0707   -1.8078 H   0  0  0  0  0  0  0  0  0  0  0  0
   -1.2151   -1.0148    0.9516 H   0  0  0  0  0  0  0  0  0  0  0  0
    5.5499   -0.2705    0.8207 H   0  0  0  0  0  0  0  0  0  0  0  0
    4.7652   -1.8420    0.4119 H   0  0  0  0  0  0  0  0  0  0  0  0
    5.9515    0.0003   -1.2435 H   0  0  0  0  0  0  0  0  0  0  0  0
    3.6302    0.9485    0.1545 H   0  0  0  0  0  0  0  0  0  0  0  0
    3.1212   -0.2916    1.4083 H   0  0  0  0  0  0  0  0  0  0  0  0
    0.9273   -1.0657   -1.5030 H   0  0  0  0  0  0  0  0  0  0  0  0
    1.3249    0.6035   -1.1454 H   0  0  0  0  0  0  0  0  0  0  0  0
    1.4760    1.3155    1.0650 H   0  0  0  0  0  0  0  0  0  0  0  0
    1.0205    0.0784    2.3839 H   0  0  0  0  0  0  0  0  0  0  0  0
   -1.0937    0.7257    2.4016 H   0  0  0  0  0  0  0  0  0  0  0  0
   -0.7321    1.6689   -0.3386 H   0  0  0  0  0  0  0  0  0  0  0  0
   -3.0089    1.9689   -0.2650 H   0  0  0  0  0  0  0  0  0  0  0  0
   -3.7633    2.4100    1.6792 H   0  0  0  0  0  0  0  0  0  0  0  0
   -3.9871   -0.3752    0.9886 H   0  0  0  0  0  0  0  0  0  0  0  0
   -3.1503   -1.9314   -0.3976 H   0  0  0  0  0  0  0  0  0  0  0  0
   -3.2859   -1.5788   -2.6183 H   0  0  0  0  0  0  0  0  0  0  0  0
   -4.6323   -1.0418   -1.7963 H   0  0  0  0  0  0  0  0  0  0  0  0
   -1.3034   -0.1232   -1.6802 H   0  0  0  0  0  0  0  0  0  0  0  0
   -1.4254   -0.9166    1.1661 H   0  0  0  0  0  0  0  0  0  0  0  0
  1  2  1  0
  1  3  1  0
  3  4  1  0
  4  5  1  0
  5  6  1  0
  6  7  1  0
  7  8  1  0
  8  9  1  0
  9 10  1  0
 10 11  1  0
 10 12  1  0
 12 13  1  0
 13 14  1  0
 13 15  1  0
  6 16  1  0
  9 16  1  0
 15 16  1  0
 17 18  1  0
 17 19  1  0
 19 20  1  0
 20 21  1  0
 21 22  1  0
 22 23  1  0
 23 24  1  0
 24 25  1  0
 25 26  1  0
 26 27  1  0
 26 28  1  0
 28 29  1  0
 29 30  1  0
 29 31  1  0
 22 32  1  0
 25 32  1  0
 31 32  1  0
  1 33  1  0
  1 34  1  0
  2 35  1  0
  3 36  1  0
  3 37  1  0
  5 38  1  0
  5 39  1  0
  7 40  1  0
  7 41  1  0
  8 42  1  0
  9 43  1  0
 10 44  1  0
 11 45  1  0
 12 46  1  0
 13 47  1  0
 14 48  1  0
 14 49  1  0
 15 50  1  0
 16 51  1  0
 17 52  1  0
 17 53  1  0
 18 54  1  0
 19 55  1  0
 19 56  1  0
 21 57  1  0
 21 58  1  0
 23 59  1  0
 23 60  1  0
 24 61  1  0
 25 62  1  6
 26 63  1  0
 27 64  1  0
 28 65  1  0
 29 66  1  0
 30 67  1  0
 30 68  1  0
 31 69  1  0
 32 70  1  0
M  END
>  <PDBID>  (1) 
2KI5

>  <PDB ID>  (1) 
2KI5

>  <Generic Name>  (1) 
Aciclovir

>  <Brand Name>  (1) 
Acyclovir#Acyclovir Sodium#Acyclovir Sodium Injection#Acyclovir Sodium for Injection#Acyclovir-200#Acyclovir-400#Acyclovir-800#Alti-acyclovir - 400mg#Alti-acyclovir - 800mg#Alti-acyclovir - Tab 200mg#Apo-acyclovir - Tab 200mg#Apo-acyclovir - Tab 400mg#Apo-acyclovir - Tab 800mg#Mylan-acyclovir#Ntp-acyclovir#Nu-acyclovir - Tab 200mg#Nu-acyclovir - Tab 400mg#Nu-acyclovir - Tab 800mg#Ratio-acyclovir#Sitavig#Teva-acyclovir#Xerese#Zovirax#Zovirax 400#Zovirax 800#Zovirax Cap 200mg#Zovirax Tab 200mg#Zovir

>  <DrugBank ID>  (1) 
DB00787

>  <ATC Codes>  (1) 
S01AD03#D06BB03#J05AB01#D06BB53

>  <Ligand ID>  (1) 
AC2

>  <Target Name>  (1) 
Thymidine kinase

>  <UniProt ID>  (1) 
P03176

>  <PDB ID.1>  (1) 
2KI5

>  <Seq. Identity>  (1) 
100%

$$$$
