PDB_DB06243_07
     RDKit          3D

 76 72  0  0  0  0  0  0  0  0999 V2000
   -1.6818   -0.1116   -0.9017 C   0  0  2  0  0  0  0  0  0  0  0  0
   -2.4922    0.1825    0.3496 C   0  0  0  0  0  0  0  0  0  0  0  0
   -2.2888   -1.1704   -1.6704 N   0  0  0  0  0  0  0  0  0  0  0  0
   -0.2456   -0.4450   -0.5627 C   0  0  0  0  0  0  0  0  0  0  0  0
    0.4476    0.6721    0.1524 C   0  0  0  0  0  0  0  0  0  0  0  0
    1.8787    0.1971    0.4285 C   0  0  0  0  0  0  0  0  0  0  0  0
    2.5685   -0.1092   -0.8070 N   0  0  0  0  0  0  0  0  0  0  0  0
   -1.4158   -0.0977   -0.8275 C   0  0  0  0  0  0  0  0  0  0  0  0
   -1.2835    1.3588   -0.7790 C   0  0  0  0  0  0  0  0  0  0  0  0
   -2.3879   -0.5128    0.2080 N   0  0  0  0  0  0  0  0  0  0  0  0
   -0.2165   -0.9456   -0.7839 C   0  0  0  0  0  0  0  0  0  0  0  0
    0.6970   -0.9046    0.3599 C   0  0  0  0  0  0  0  0  0  0  0  0
    1.3087    0.4571    0.5916 C   0  0  0  0  0  0  0  0  0  0  0  0
    2.0611    0.8973   -0.5578 N   0  0  0  0  0  0  0  0  0  0  0  0
   -1.6818   -0.1116   -0.9017 C   0  0  2  0  0  0  0  0  0  0  0  0
   -2.4922    0.1825    0.3496 C   0  0  0  0  0  0  0  0  0  0  0  0
   -2.2888   -1.1704   -1.6704 N   0  0  0  0  0  0  0  0  0  0  0  0
   -0.2456   -0.4450   -0.5627 C   0  0  0  0  0  0  0  0  0  0  0  0
    0.4476    0.6721    0.1524 C   0  0  0  0  0  0  0  0  0  0  0  0
    1.8787    0.1971    0.4285 C   0  0  0  0  0  0  0  0  0  0  0  0
    2.5685   -0.1092   -0.8070 N   0  0  0  0  0  0  0  0  0  0  0  0
   -1.6818   -0.1116   -0.9017 C   0  0  2  0  0  0  0  0  0  0  0  0
   -2.4922    0.1825    0.3496 C   0  0  0  0  0  0  0  0  0  0  0  0
   -2.2888   -1.1704   -1.6704 N   0  0  0  0  0  0  0  0  0  0  0  0
   -0.2456   -0.4450   -0.5627 C   0  0  0  0  0  0  0  0  0  0  0  0
    0.4476    0.6721    0.1524 C   0  0  0  0  0  0  0  0  0  0  0  0
    1.8787    0.1971    0.4285 C   0  0  0  0  0  0  0  0  0  0  0  0
    2.5685   -0.1092   -0.8070 N   0  0  0  0  0  0  0  0  0  0  0  0
   -1.6783    0.8175   -1.5059 H   0  0  0  0  0  0  0  0  0  0  0  0
   -3.4982    0.4980    0.0485 H   0  0  0  0  0  0  0  0  0  0  0  0
   -2.0358    1.0073    0.9099 H   0  0  0  0  0  0  0  0  0  0  0  0
   -2.1172   -2.1115   -1.2618 H   0  0  0  0  0  0  0  0  0  0  0  0
    0.2697   -0.6855   -1.5060 H   0  0  0  0  0  0  0  0  0  0  0  0
   -0.2513   -1.3391    0.0666 H   0  0  0  0  0  0  0  0  0  0  0  0
   -0.0093    0.8975    1.1232 H   0  0  0  0  0  0  0  0  0  0  0  0
    0.4814    1.6104   -0.4225 H   0  0  0  0  0  0  0  0  0  0  0  0
    2.4548    0.9695    0.9632 H   0  0  0  0  0  0  0  0  0  0  0  0
    1.8463   -0.7109    1.0556 H   0  0  0  0  0  0  0  0  0  0  0  0
    3.2432   -0.9043   -0.6864 H   0  0  0  0  0  0  0  0  0  0  0  0
    3.1083    0.7356   -1.1311 H   0  0  0  0  0  0  0  0  0  0  0  0
   -1.9707   -0.3599   -1.7814 H   0  0  0  0  0  0  0  0  0  0  0  0
   -1.7892    1.8328   -1.6418 H   0  0  0  0  0  0  0  0  0  0  0  0
   -1.6601    1.8665    0.1227 H   0  0  0  0  0  0  0  0  0  0  0  0
   -2.9017   -1.3544   -0.0829 H   0  0  0  0  0  0  0  0  0  0  0  0
    0.4066   -0.8022   -1.7201 H   0  0  0  0  0  0  0  0  0  0  0  0
   -0.5750   -2.0144   -0.9081 H   0  0  0  0  0  0  0  0  0  0  0  0
    0.3233   -1.3235    1.3110 H   0  0  0  0  0  0  0  0  0  0  0  0
    1.5795   -1.5701    0.1054 H   0  0  0  0  0  0  0  0  0  0  0  0
    0.5388    1.2051    0.8159 H   0  0  0  0  0  0  0  0  0  0  0  0
    2.0071    0.3853    1.4792 H   0  0  0  0  0  0  0  0  0  0  0  0
    2.6452    0.1632   -0.9884 H   0  0  0  0  0  0  0  0  0  0  0  0
    2.6332    1.7192   -0.2806 H   0  0  0  0  0  0  0  0  0  0  0  0
   -1.6783    0.8175   -1.5059 H   0  0  0  0  0  0  0  0  0  0  0  0
   -3.4982    0.4980    0.0485 H   0  0  0  0  0  0  0  0  0  0  0  0
   -2.0358    1.0073    0.9099 H   0  0  0  0  0  0  0  0  0  0  0  0
   -2.1172   -2.1115   -1.2618 H   0  0  0  0  0  0  0  0  0  0  0  0
    0.2697   -0.6855   -1.5060 H   0  0  0  0  0  0  0  0  0  0  0  0
   -0.2513   -1.3391    0.0666 H   0  0  0  0  0  0  0  0  0  0  0  0
   -0.0093    0.8975    1.1232 H   0  0  0  0  0  0  0  0  0  0  0  0
    0.4814    1.6104   -0.4225 H   0  0  0  0  0  0  0  0  0  0  0  0
    2.4548    0.9695    0.9632 H   0  0  0  0  0  0  0  0  0  0  0  0
    1.8463   -0.7109    1.0556 H   0  0  0  0  0  0  0  0  0  0  0  0
    3.2432   -0.9043   -0.6864 H   0  0  0  0  0  0  0  0  0  0  0  0
    3.1083    0.7356   -1.1311 H   0  0  0  0  0  0  0  0  0  0  0  0
   -1.6783    0.8175   -1.5059 H   0  0  0  0  0  0  0  0  0  0  0  0
   -3.4982    0.4980    0.0485 H   0  0  0  0  0  0  0  0  0  0  0  0
   -2.0358    1.0073    0.9099 H   0  0  0  0  0  0  0  0  0  0  0  0
   -2.1172   -2.1115   -1.2618 H   0  0  0  0  0  0  0  0  0  0  0  0
    0.2697   -0.6855   -1.5060 H   0  0  0  0  0  0  0  0  0  0  0  0
   -0.2513   -1.3391    0.0666 H   0  0  0  0  0  0  0  0  0  0  0  0
   -0.0093    0.8975    1.1232 H   0  0  0  0  0  0  0  0  0  0  0  0
    0.4814    1.6104   -0.4225 H   0  0  0  0  0  0  0  0  0  0  0  0
    2.4548    0.9695    0.9632 H   0  0  0  0  0  0  0  0  0  0  0  0
    1.8463   -0.7109    1.0556 H   0  0  0  0  0  0  0  0  0  0  0  0
    3.2432   -0.9043   -0.6864 H   0  0  0  0  0  0  0  0  0  0  0  0
    3.1083    0.7356   -1.1311 H   0  0  0  0  0  0  0  0  0  0  0  0
  1  2  1  0
  1  3  1  0
  1  4  1  0
  4  5  1  0
  5  6  1  0
  6  7  1  0
  8  9  1  0
  8 10  1  0
  8 11  1  0
 11 12  1  0
 12 13  1  0
 13 14  1  0
 15 16  1  0
 15 17  1  0
 15 18  1  0
 18 19  1  0
 19 20  1  0
 20 21  1  0
 22 23  1  0
 22 24  1  0
 22 25  1  0
 25 26  1  0
 26 27  1  0
 27 28  1  0
  1 29  1  6
  2 30  1  0
  2 31  1  0
  3 32  1  0
  4 33  1  0
  4 34  1  0
  5 35  1  0
  5 36  1  0
  6 37  1  0
  6 38  1  0
  7 39  1  0
  7 40  1  0
  8 41  1  0
  9 42  1  0
  9 43  1  0
 10 44  1  0
 11 45  1  0
 11 46  1  0
 12 47  1  0
 12 48  1  0
 13 49  1  0
 13 50  1  0
 14 51  1  0
 14 52  1  0
 15 53  1  6
 16 54  1  0
 16 55  1  0
 17 56  1  0
 18 57  1  0
 18 58  1  0
 19 59  1  0
 19 60  1  0
 20 61  1  0
 20 62  1  0
 21 63  1  0
 21 64  1  0
 22 65  1  6
 23 66  1  0
 23 67  1  0
 24 68  1  0
 25 69  1  0
 25 70  1  0
 26 71  1  0
 26 72  1  0
 27 73  1  0
 27 74  1  0
 28 75  1  0
 28 76  1  0
M  END
>  <PDBID>  (1) 
2TOD

>  <PDB ID>  (1) 
2TOD

>  <Generic Name>  (1) 
Eflornithine

>  <Brand Name>  (1) 
Vaniqa

>  <DrugBank ID>  (1) 
DB06243

>  <ATC Codes>  (1) 
D11AX16#P01CX03

>  <Ligand ID>  (1) 
DMO

>  <Target Name>  (1) 
Ornithine decarboxylase

>  <UniProt ID>  (1) 
P11926

>  <PDB ID.1>  (1) 
2TOD

>  <Seq. Identity>  (1) 
65%

$$$$
