PDB_DB01051_03
     RDKit          3D

408420  0  0  0  0  0  0  0  0999 V2000
   -9.7672    0.6295    0.2340 C   0  0  0  0  0  0  0  0  0  0  0  0
   -9.0812   -0.5712    0.0715 O   0  0  0  0  0  0  0  0  0  0  0  0
   -9.8910   -0.6549   -3.0789 N   0  0  0  0  0  0  0  0  0  0  0  0
   -8.4735   -1.0348   -3.1324 C   0  0  0  0  0  0  0  0  0  0  0  0
   -8.0764   -0.8225   -4.4691 O   0  0  0  0  0  0  0  0  0  0  0  0
   -7.7764   -0.2006   -2.2748 O   0  0  0  0  0  0  0  0  0  0  0  0
   -7.7004   -0.3739    0.0688 C   0  0  2  0  0  0  0  0  0  0  0  0
   -7.1620   -0.9011   -1.2475 C   0  0  2  0  0  0  0  0  0  0  0  0
   -5.6504   -0.6695   -1.2155 C   0  0  1  0  0  0  0  0  0  0  0  0
   -5.4341    0.4324   -2.0404 O   0  0  0  0  0  0  0  0  0  0  0  0
   -5.1733   -0.4253    0.1929 C   0  0  1  0  0  0  0  0  0  0  0  0
   -5.7504   -1.3501    1.0879 O   0  0  0  0  0  0  0  0  0  0  0  0
   -7.1165   -1.2496    1.1577 C   0  0  0  0  0  0  0  0  0  0  0  0
   -7.6821   -2.6495    0.9425 C   0  0  0  0  0  0  0  0  0  0  0  0
   -7.6080   -0.8009    2.5261 C   0  0  0  0  0  0  0  0  0  0  0  0
   -3.8158   -0.6850    0.2483 O   0  0  0  0  0  0  0  0  0  0  0  0
   -3.0311    0.3081    0.7598 C   0  0  0  0  0  0  0  0  0  0  0  0
   -2.0235    0.6911   -0.2952 C   0  0  1  0  0  0  0  0  0  0  0  0
   -2.6202    1.7652   -1.1608 C   0  0  0  0  0  0  0  0  0  0  0  0
   -0.6986    1.1250    0.2994 C   0  0  0  0  0  0  0  0  0  0  0  0
   -0.8556    1.8637    1.6110 C   0  0  0  0  0  0  0  0  0  0  0  0
   -1.4429    0.9038    2.6109 C   0  0  0  0  0  0  0  0  0  0  0  0
   -2.3324   -0.1407    2.0279 C   0  0  0  0  0  0  0  0  0  0  0  0
    0.0222   -0.0203    0.5952 O   0  0  0  0  0  0  0  0  0  0  0  0
    1.3810    0.3389    0.7140 C   0  0  0  0  0  0  0  0  0  0  0  0
    1.9241   -0.6560    1.5247 O   0  0  0  0  0  0  0  0  0  0  0  0
    1.6053    1.7205    1.1475 C   0  0  1  0  0  0  0  0  0  0  0  0
    0.5192    2.2507    2.0866 C   0  0  0  0  0  0  0  0  0  0  0  0
    0.7485    1.8821    3.4095 O   0  0  0  0  0  0  0  0  0  0  0  0
    2.8726    1.9962    1.6881 N   0  0  0  0  0  0  0  0  0  0  0  0
    4.0566    1.9262    0.9880 C   0  0  0  0  0  0  0  0  0  0  0  0
    3.8957    2.7407   -0.1880 O   0  0  0  0  0  0  0  0  0  0  0  0
    4.6300    0.6493    0.4953 C   0  0  1  0  0  0  0  0  0  0  0  0
    5.9356    0.9988   -0.2603 C   0  0  0  0  0  0  0  0  0  0  0  0
    6.7371   -0.2580   -0.4125 C   0  0  0  0  0  0  0  0  0  0  0  0
    7.4118   -0.5172    0.9287 C   0  0  1  0  0  0  0  0  0  0  0  0
    8.5316    0.3021    1.0342 O   0  0  0  0  0  0  0  0  0  0  0  0
    6.4645   -0.1280    2.0552 C   0  0  0  0  0  0  0  0  0  0  0  0
    5.0268   -0.2860    1.6240 C   0  0  0  0  0  0  0  0  0  0  0  0
    7.8206   -0.1036   -1.4549 C   0  0  0  0  0  0  0  0  0  0  0  0
    8.5966   -1.3862   -1.5700 C   0  0  0  0  0  0  0  0  0  0  0  0
    9.6981   -1.3006   -2.5972 C   0  0  0  0  0  0  0  0  0  0  0  0
   10.6969   -0.2154   -2.2613 C   0  0  0  0  0  0  0  0  0  0  0  0
   10.4799   -2.6190   -2.5192 C   0  0  0  0  0  0  0  0  0  0  0  0
  -10.4007    0.2947    0.7413 C   0  0  0  0  0  0  0  0  0  0  0  0
   -9.5480   -0.4506   -0.1014 O   0  0  0  0  0  0  0  0  0  0  0  0
   -9.6466    2.6622   -2.0817 N   0  0  0  0  0  0  0  0  0  0  0  0
   -8.4092    1.9733   -2.3414 C   0  0  0  0  0  0  0  0  0  0  0  0
   -7.6092    2.7781   -3.1373 O   0  0  0  0  0  0  0  0  0  0  0  0
   -7.6933    1.7090   -1.1667 O   0  0  0  0  0  0  0  0  0  0  0  0
   -8.2583   -0.1097    0.2284 C   0  0  2  0  0  0  0  0  0  0  0  0
   -7.4811    0.3331   -0.9984 C   0  0  2  0  0  0  0  0  0  0  0  0
   -6.0280   -0.0299   -0.9347 C   0  0  1  0  0  0  0  0  0  0  0  0
   -5.3279    1.1101   -1.3999 O   0  0  0  0  0  0  0  0  0  0  0  0
   -5.5104   -0.3232    0.4327 C   0  0  1  0  0  0  0  0  0  0  0  0
   -6.3311   -1.0526    1.2482 O   0  0  0  0  0  0  0  0  0  0  0  0
   -7.5576   -1.3753    0.7258 C   0  0  0  0  0  0  0  0  0  0  0  0
   -7.5235   -2.4520   -0.3143 C   0  0  0  0  0  0  0  0  0  0  0  0
   -8.4158   -1.9003    1.8764 C   0  0  0  0  0  0  0  0  0  0  0  0
   -4.3153   -1.0316    0.3136 O   0  0  0  0  0  0  0  0  0  0  0  0
   -3.2187   -0.3584    0.8244 C   0  0  0  0  0  0  0  0  0  0  0  0
   -2.2295   -0.1856   -0.3096 C   0  0  0  0  0  0  0  0  0  0  0  0
   -1.7463   -1.5213   -0.8191 C   0  0  0  0  0  0  0  0  0  0  0  0
   -1.0897    0.6525    0.2272 C   0  0  0  0  0  0  0  0  0  0  0  0
   -0.3606   -0.1617    1.2553 C   0  0  0  0  0  0  0  0  0  0  0  0
   -1.2596   -0.6164    2.3643 C   0  0  0  0  0  0  0  0  0  0  0  0
   -2.5631   -1.1936    1.8989 C   0  0  0  0  0  0  0  0  0  0  0  0
   -0.2870    1.1468   -0.7528 O   0  0  0  0  0  0  0  0  0  0  0  0
    1.0734    0.9105   -0.5996 C   0  0  0  0  0  0  0  0  0  0  0  0
    1.3994   -0.4022   -1.0112 O   0  0  0  0  0  0  0  0  0  0  0  0
    1.5864    1.2213    0.7616 C   0  0  1  0  0  0  0  0  0  0  0  0
    0.6771    0.7686    1.8823 C   0  0  0  0  0  0  0  0  0  0  0  0
    1.3641    0.1401    2.9001 O   0  0  0  0  0  0  0  0  0  0  0  0
    2.8592    0.6245    0.9742 N   0  0  0  0  0  0  0  0  0  0  0  0
    3.9322    1.0887    0.1321 C   0  0  0  0  0  0  0  0  0  0  0  0
    3.7384    0.7614   -1.1859 O   0  0  0  0  0  0  0  0  0  0  0  0
    5.1971    0.4679    0.7034 C   0  0  0  0  0  0  0  0  0  0  0  0
    6.4444    0.8195   -0.0133 C   0  0  0  0  0  0  0  0  0  0  0  0
    6.9240   -0.1296   -1.0480 C   0  0  0  0  0  0  0  0  0  0  0  0
    6.7278   -1.5903   -0.7144 C   0  0  0  0  0  0  0  0  0  0  0  0
    5.8793   -2.1657   -1.6581 O   0  0  0  0  0  0  0  0  0  0  0  0
    6.1553   -1.8437    0.6384 C   0  0  0  0  0  0  0  0  0  0  0  0
    4.9276   -0.9947    0.8765 C   0  0  0  0  0  0  0  0  0  0  0  0
    8.3650    0.1677   -1.3886 C   0  0  0  0  0  0  0  0  0  0  0  0
    9.3196    0.0535   -0.2532 C   0  0  0  0  0  0  0  0  0  0  0  0
   10.7331    0.3738   -0.7715 C   0  0  0  0  0  0  0  0  0  0  0  0
   10.8041    1.7622   -1.3323 C   0  0  0  0  0  0  0  0  0  0  0  0
   11.6467    0.3270    0.4570 C   0  0  0  0  0  0  0  0  0  0  0  0
   -9.5415    0.9347    1.1326 C   0  0  0  0  0  0  0  0  0  0  0  0
   -9.1183   -0.2498    0.5166 O   0  0  0  0  0  0  0  0  0  0  0  0
   -9.9651    0.6409   -2.4955 N   0  0  0  0  0  0  0  0  0  0  0  0
   -8.6725    0.0196   -2.8234 C   0  0  0  0  0  0  0  0  0  0  0  0
   -8.3632    0.3953   -4.1060 O   0  0  0  0  0  0  0  0  0  0  0  0
   -7.7880    0.4710   -1.8565 O   0  0  0  0  0  0  0  0  0  0  0  0
   -7.7436   -0.3061    0.4032 C   0  0  2  0  0  0  0  0  0  0  0  0
   -7.3063   -0.5232   -1.0354 C   0  0  2  0  0  0  0  0  0  0  0  0
   -5.8117   -0.6112   -1.0342 C   0  0  1  0  0  0  0  0  0  0  0  0
   -5.3599    0.5194   -1.7604 O   0  0  0  0  0  0  0  0  0  0  0  0
   -5.1690   -0.6485    0.2925 C   0  0  1  0  0  0  0  0  0  0  0  0
   -5.8191   -1.2913    1.3015 O   0  0  0  0  0  0  0  0  0  0  0  0
   -7.1559   -1.5151    1.1405 C   0  0  0  0  0  0  0  0  0  0  0  0
   -7.5105   -2.7865    0.4419 C   0  0  0  0  0  0  0  0  0  0  0  0
   -7.8082   -1.5370    2.5122 C   0  0  0  0  0  0  0  0  0  0  0  0
   -3.8932   -1.2015    0.1864 O   0  0  0  0  0  0  0  0  0  0  0  0
   -2.8929   -0.3092    0.5037 C   0  0  0  0  0  0  0  0  0  0  0  0
   -2.0134   -0.1181   -0.6858 C   0  0  0  0  0  0  0  0  0  0  0  0
   -1.5331   -1.4637   -1.1969 C   0  0  0  0  0  0  0  0  0  0  0  0
   -0.8599    0.8251   -0.4226 C   0  0  0  0  0  0  0  0  0  0  0  0
   -0.6915    0.9613    1.0601 C   0  0  0  0  0  0  0  0  0  0  0  0
   -0.7119   -0.3498    1.7560 C   0  0  0  0  0  0  0  0  0  0  0  0
   -2.1444   -0.8796    1.6978 C   0  0  0  0  0  0  0  0  0  0  0  0
    0.2153    0.4249   -1.1049 O   0  0  0  0  0  0  0  0  0  0  0  0
    1.4697    0.5525   -0.6276 C   0  0  0  0  0  0  0  0  0  0  0  0
    1.9695   -0.7371   -0.4345 O   0  0  0  0  0  0  0  0  0  0  0  0
    1.7403    1.4387    0.5329 C   0  0  1  0  0  0  0  0  0  0  0  0
    0.4801    1.8342    1.3015 C   0  0  0  0  0  0  0  0  0  0  0  0
    0.7230    1.8641    2.6837 O   0  0  0  0  0  0  0  0  0  0  0  0
    2.6052    0.8620    1.4550 N   0  0  0  0  0  0  0  0  0  0  0  0
    3.8938    0.4989    1.2997 C   0  0  0  0  0  0  0  0  0  0  0  0
    4.2710   -0.2919    2.4513 O   0  0  0  0  0  0  0  0  0  0  0  0
    4.9820    1.5163    1.0651 C   0  0  1  0  0  0  0  0  0  0  0  0
    6.2584    0.6957    0.9924 C   0  0  0  0  0  0  0  0  0  0  0  0
    7.3863    1.3438    0.2869 C   0  0  2  0  0  0  0  0  0  0  0  0
    6.8787    1.7466   -1.0769 C   0  0  0  0  0  0  0  0  0  0  0  0
    6.0504    0.7310   -1.5591 O   0  0  0  0  0  0  0  0  0  0  0  0
    5.9735    2.9267   -0.7923 C   0  0  0  0  0  0  0  0  0  0  0  0
    4.7356    2.3587   -0.1007 C   0  0  0  0  0  0  0  0  0  0  0  0
    8.6076    0.5064    0.2675 C   0  0  0  0  0  0  0  0  0  0  0  0
    8.4319   -0.8263   -0.4088 C   0  0  0  0  0  0  0  0  0  0  0  0
    9.7059   -1.6414   -0.3993 C   0  0  0  0  0  0  0  0  0  0  0  0
   10.8331   -0.9285   -1.1178 C   0  0  0  0  0  0  0  0  0  0  0  0
    9.3896   -2.9501   -1.0938 C   0  0  0  0  0  0  0  0  0  0  0  0
   -9.3118    1.6421   -0.1897 C   0  0  0  0  0  0  0  0  0  0  0  0
   -8.8989    0.3324   -0.2537 O   0  0  0  0  0  0  0  0  0  0  0  0
   -9.4772    0.6355   -3.4320 N   0  0  0  0  0  0  0  0  0  0  0  0
   -8.3713   -0.3273   -3.4189 C   0  0  0  0  0  0  0  0  0  0  0  0
   -7.9766   -0.4728   -4.7477 O   0  0  0  0  0  0  0  0  0  0  0  0
   -7.3879    0.1965   -2.6191 O   0  0  0  0  0  0  0  0  0  0  0  0
   -7.5090    0.1803   -0.2264 C   0  0  2  0  0  0  0  0  0  0  0  0
   -7.1276   -0.5772   -1.4815 C   0  0  2  0  0  0  0  0  0  0  0  0
   -5.6703   -1.0134   -1.4580 C   0  0  1  0  0  0  0  0  0  0  0  0
   -5.0594   -0.3266   -2.5026 O   0  0  0  0  0  0  0  0  0  0  0  0
   -5.1112   -0.7261   -0.1080 C   0  0  1  0  0  0  0  0  0  0  0  0
   -5.9815   -1.3222    0.8552 O   0  0  0  0  0  0  0  0  0  0  0  0
   -7.2025   -0.7211    0.9325 C   0  0  0  0  0  0  0  0  0  0  0  0
   -8.2638   -1.8349    0.8990 C   0  0  0  0  0  0  0  0  0  0  0  0
   -7.4549    0.0227    2.2280 C   0  0  0  0  0  0  0  0  0  0  0  0
   -3.8845   -1.3001    0.1723 O   0  0  0  0  0  0  0  0  0  0  0  0
   -2.9396   -0.4442    0.7152 C   0  0  0  0  0  0  0  0  0  0  0  0
   -1.7072   -0.4806   -0.1277 C   0  0  1  0  0  0  0  0  0  0  0  0
   -2.0372   -0.0523   -1.5377 C   0  0  0  0  0  0  0  0  0  0  0  0
   -0.6691    0.4586    0.4816 C   0  0  0  0  0  0  0  0  0  0  0  0
   -0.2707   -0.0651    1.8021 C   0  0  0  0  0  0  0  0  0  0  0  0
   -1.4843   -0.1104    2.7258 C   0  0  0  0  0  0  0  0  0  0  0  0
   -2.6312   -0.8510    2.1598 C   0  0  0  0  0  0  0  0  0  0  0  0
    0.3480    0.6916   -0.4320 O   0  0  0  0  0  0  0  0  0  0  0  0
    1.6237    0.4059    0.1016 C   0  0  0  0  0  0  0  0  0  0  0  0
    1.7897   -0.9428    0.2659 O   0  0  0  0  0  0  0  0  0  0  0  0
    1.7985    1.2409    1.3502 C   0  0  1  0  0  0  0  0  0  0  0  0
    0.8018    0.8005    2.4140 C   0  0  0  0  0  0  0  0  0  0  0  0
    1.4443    0.1457    3.4652 O   0  0  0  0  0  0  0  0  0  0  0  0
    3.0430    1.5791    1.7902 N   0  0  0  0  0  0  0  0  0  0  0  0
    4.0877    0.8174    2.2418 C   0  0  2  0  0  0  0  0  0  0  0  0
    5.1444    1.7020    2.6531 O   0  0  0  0  0  0  0  0  0  0  0  0
    4.7926   -0.1330    1.3145 C   0  0  1  0  0  0  0  0  0  0  0  0
    5.3699    0.6539    0.1690 C   0  0  0  0  0  0  0  0  0  0  0  0
    6.7482    0.1463   -0.2584 C   0  0  0  0  0  0  0  0  0  0  0  0
    6.7880   -1.3677   -0.1224 C   0  0  0  0  0  0  0  0  0  0  0  0
    5.6641   -1.9471   -0.7068 O   0  0  0  0  0  0  0  0  0  0  0  0
    6.7408   -1.7150    1.3493 C   0  0  0  0  0  0  0  0  0  0  0  0
    5.9825   -0.6667    2.1311 C   0  0  0  0  0  0  0  0  0  0  0  0
    6.9503    0.5959   -1.6477 C   0  0  0  0  0  0  0  0  0  0  0  0
    8.2128    0.2906   -2.3380 C   0  0  0  0  0  0  0  0  0  0  0  0
    9.4672    0.8821   -1.8125 C   0  0  0  0  0  0  0  0  0  0  0  0
    9.8811    0.5661   -0.4310 C   0  0  0  0  0  0  0  0  0  0  0  0
   10.6464    0.5445   -2.7469 C   0  0  0  0  0  0  0  0  0  0  0  0
  -10.8479    0.4045    0.2261 H   0  0  0  0  0  0  0  0  0  0  0  0
   -9.5429    1.3258   -0.5783 H   0  0  0  0  0  0  0  0  0  0  0  0
   -9.5032    1.1241    1.1944 H   0  0  0  0  0  0  0  0  0  0  0  0
   -9.9956    0.3164   -2.7081 H   0  0  0  0  0  0  0  0  0  0  0  0
  -10.3504   -0.7593   -4.0115 H   0  0  0  0  0  0  0  0  0  0  0  0
   -8.4237   -2.1012   -2.8600 H   0  0  0  0  0  0  0  0  0  0  0  0
   -7.1749   -1.2113   -4.6064 H   0  0  0  0  0  0  0  0  0  0  0  0
   -7.4508    0.6793    0.1887 H   0  0  0  0  0  0  0  0  0  0  0  0
   -7.3897   -1.9703   -1.3757 H   0  0  0  0  0  0  0  0  0  0  0  0
   -5.1755   -1.5275   -1.6938 H   0  0  0  0  0  0  0  0  0  0  0  0
   -5.0894    0.1689   -2.9339 H   0  0  0  0  0  0  0  0  0  0  0  0
   -5.4516    0.5624    0.5635 H   0  0  0  0  0  0  0  0  0  0  0  0
   -8.7073   -2.6024    0.5194 H   0  0  0  0  0  0  0  0  0  0  0  0
   -6.9686   -3.2195    0.3006 H   0  0  0  0  0  0  0  0  0  0  0  0
   -7.6670   -3.1461    1.9391 H   0  0  0  0  0  0  0  0  0  0  0  0
   -7.3364   -1.6007    3.2442 H   0  0  0  0  0  0  0  0  0  0  0  0
   -7.2205    0.1882    2.8017 H   0  0  0  0  0  0  0  0  0  0  0  0
   -8.7248   -0.8200    2.4619 H   0  0  0  0  0  0  0  0  0  0  0  0
   -3.6260    1.2109    1.0556 H   0  0  0  0  0  0  0  0  0  0  0  0
   -1.8784   -0.2166   -0.9465 H   0  0  0  0  0  0  0  0  0  0  0  0
   -2.7834    1.3787   -2.1855 H   0  0  0  0  0  0  0  0  0  0  0  0
   -3.6095    2.0473   -0.7744 H   0  0  0  0  0  0  0  0  0  0  0  0
   -1.9353    2.6444   -1.2479 H   0  0  0  0  0  0  0  0  0  0  0  0
   -0.2309    1.7687   -0.4783 H   0  0  0  0  0  0  0  0  0  0  0  0
   -1.5201    2.7338    1.4260 H   0  0  0  0  0  0  0  0  0  0  0  0
   -0.5916    0.4305    3.1622 H   0  0  0  0  0  0  0  0  0  0  0  0
   -1.9692    1.5313    3.3810 H   0  0  0  0  0  0  0  0  0  0  0  0
   -1.7429   -1.0594    1.8100 H   0  0  0  0  0  0  0  0  0  0  0  0
   -3.1419   -0.3410    2.7864 H   0  0  0  0  0  0  0  0  0  0  0  0
    1.7752    0.1521   -0.3288 H   0  0  0  0  0  0  0  0  0  0  0  0
    1.6020   -1.5455    1.2382 H   0  0  0  0  0  0  0  0  0  0  0  0
    1.5297    2.3981    0.2143 H   0  0  0  0  0  0  0  0  0  0  0  0
    0.5901    3.3564    2.0395 H   0  0  0  0  0  0  0  0  0  0  0  0
    1.3120    1.0815    3.5049 H   0  0  0  0  0  0  0  0  0  0  0  0
    2.8670    2.1831    2.6973 H   0  0  0  0  0  0  0  0  0  0  0  0
    4.8600    2.4805    1.5689 H   0  0  0  0  0  0  0  0  0  0  0  0
    3.5307    2.1841   -0.9284 H   0  0  0  0  0  0  0  0  0  0  0  0
    4.0443    0.0835   -0.2282 H   0  0  0  0  0  0  0  0  0  0  0  0
    6.4608    1.7213    0.3747 H   0  0  0  0  0  0  0  0  0  0  0  0
    5.6605    1.4687   -1.2182 H   0  0  0  0  0  0  0  0  0  0  0  0
    6.0800   -1.0732   -0.7211 H   0  0  0  0  0  0  0  0  0  0  0  0
    7.7512   -1.5633    0.9872 H   0  0  0  0  0  0  0  0  0  0  0  0
    8.5453    0.8505    1.8421 H   0  0  0  0  0  0  0  0  0  0  0  0
    6.6243   -0.8549    2.8763 H   0  0  0  0  0  0  0  0  0  0  0  0
    6.6582    0.8731    2.4451 H   0  0  0  0  0  0  0  0  0  0  0  0
    4.8390   -1.3512    1.3762 H   0  0  0  0  0  0  0  0  0  0  0  0
    4.4116   -0.0596    2.5295 H   0  0  0  0  0  0  0  0  0  0  0  0
    7.3376    0.0990   -2.4463 H   0  0  0  0  0  0  0  0  0  0  0  0
    8.5287    0.7023   -1.1662 H   0  0  0  0  0  0  0  0  0  0  0  0
    9.0654   -1.6565   -0.6040 H   0  0  0  0  0  0  0  0  0  0  0  0
    7.9219   -2.2128   -1.8711 H   0  0  0  0  0  0  0  0  0  0  0  0
    9.3353   -1.2126   -3.6274 H   0  0  0  0  0  0  0  0  0  0  0  0
   11.7405   -0.5532   -2.2922 H   0  0  0  0  0  0  0  0  0  0  0  0
   10.5297    0.2002   -1.2436 H   0  0  0  0  0  0  0  0  0  0  0  0
   10.5780    0.6202   -2.9889 H   0  0  0  0  0  0  0  0  0  0  0  0
   10.6743   -2.7887   -1.4219 H   0  0  0  0  0  0  0  0  0  0  0  0
   11.4258   -2.5610   -3.0775 H   0  0  0  0  0  0  0  0  0  0  0  0
    9.8788   -3.4666   -2.8763 H   0  0  0  0  0  0  0  0  0  0  0  0
  -11.4503    0.0707    0.5347 H   0  0  0  0  0  0  0  0  0  0  0  0
  -10.2463    1.3697    0.4423 H   0  0  0  0  0  0  0  0  0  0  0  0
  -10.1160    0.1954    1.8026 H   0  0  0  0  0  0  0  0  0  0  0  0
  -10.4376    2.0341   -1.8708 H   0  0  0  0  0  0  0  0  0  0  0  0
   -9.4702    3.3646   -1.3183 H   0  0  0  0  0  0  0  0  0  0  0  0
   -8.6469    1.0320   -2.8736 H   0  0  0  0  0  0  0  0  0  0  0  0
   -7.8749    2.7143   -4.0881 H   0  0  0  0  0  0  0  0  0  0  0  0
   -8.1804    0.6366    1.0452 H   0  0  0  0  0  0  0  0  0  0  0  0
   -7.9516   -0.1732   -1.8668 H   0  0  0  0  0  0  0  0  0  0  0  0
   -5.7636   -0.8364   -1.6762 H   0  0  0  0  0  0  0  0  0  0  0  0
   -5.7297    1.9043   -0.9629 H   0  0  0  0  0  0  0  0  0  0  0  0
   -5.3334    0.6751    0.9327 H   0  0  0  0  0  0  0  0  0  0  0  0
   -8.0988   -3.3745   -0.0136 H   0  0  0  0  0  0  0  0  0  0  0  0
   -8.0333   -2.1167   -1.2576 H   0  0  0  0  0  0  0  0  0  0  0  0
   -6.4976   -2.8273   -0.5321 H   0  0  0  0  0  0  0  0  0  0  0  0
   -7.9542   -2.8689    2.1982 H   0  0  0  0  0  0  0  0  0  0  0  0
   -8.3433   -1.1968    2.7156 H   0  0  0  0  0  0  0  0  0  0  0  0
   -9.4503   -2.0949    1.5435 H   0  0  0  0  0  0  0  0  0  0  0  0
   -3.5042    0.6166    1.2260 H   0  0  0  0  0  0  0  0  0  0  0  0
   -2.7098    0.3131   -1.1897 H   0  0  0  0  0  0  0  0  0  0  0  0
   -2.6487   -2.1024   -1.1117 H   0  0  0  0  0  0  0  0  0  0  0  0
   -1.2144   -2.1308   -0.0903 H   0  0  0  0  0  0  0  0  0  0  0  0
   -1.0846   -1.3492   -1.6806 H   0  0  0  0  0  0  0  0  0  0  0  0
   -1.5403    1.5239    0.7545 H   0  0  0  0  0  0  0  0  0  0  0  0
    0.1864   -1.0195    0.8698 H   0  0  0  0  0  0  0  0  0  0  0  0
   -0.7241   -1.3998    2.9408 H   0  0  0  0  0  0  0  0  0  0  0  0
   -1.4365    0.2257    3.0647 H   0  0  0  0  0  0  0  0  0  0  0  0
   -2.4707   -2.2516    1.5733 H   0  0  0  0  0  0  0  0  0  0  0  0
   -3.2484   -1.1990    2.7717 H   0  0  0  0  0  0  0  0  0  0  0  0
    1.5740    1.5822   -1.3265 H   0  0  0  0  0  0  0  0  0  0  0  0
    1.4013   -0.4315   -2.0130 H   0  0  0  0  0  0  0  0  0  0  0  0
    1.7276    2.3330    0.8703 H   0  0  0  0  0  0  0  0  0  0  0  0
    0.1339    1.6259    2.2822 H   0  0  0  0  0  0  0  0  0  0  0  0
    1.3873    0.7055    3.7079 H   0  0  0  0  0  0  0  0  0  0  0  0
    3.1778    0.6039    1.9604 H   0  0  0  0  0  0  0  0  0  0  0  0
    3.9961    2.1907    0.2123 H   0  0  0  0  0  0  0  0  0  0  0  0
    4.0677   -0.1151   -1.4607 H   0  0  0  0  0  0  0  0  0  0  0  0
    5.2582    0.8922    1.7500 H   0  0  0  0  0  0  0  0  0  0  0  0
    7.2231    1.0819    0.7603 H   0  0  0  0  0  0  0  0  0  0  0  0
    6.2543    1.8122   -0.5208 H   0  0  0  0  0  0  0  0  0  0  0  0
    6.3622    0.1139   -2.0022 H   0  0  0  0  0  0  0  0  0  0  0  0
    7.6821   -2.1602   -0.7833 H   0  0  0  0  0  0  0  0  0  0  0  0
    6.3634   -2.3450   -2.5100 H   0  0  0  0  0  0  0  0  0  0  0  0
    5.8065   -2.9061    0.6598 H   0  0  0  0  0  0  0  0  0  0  0  0
    6.8487   -1.7142    1.4707 H   0  0  0  0  0  0  0  0  0  0  0  0
    4.1410   -1.3776    0.1921 H   0  0  0  0  0  0  0  0  0  0  0  0
    4.5587   -1.2461    1.9096 H   0  0  0  0  0  0  0  0  0  0  0  0
    8.7353   -0.4945   -2.2129 H   0  0  0  0  0  0  0  0  0  0  0  0
    8.4699    1.1999   -1.8095 H   0  0  0  0  0  0  0  0  0  0  0  0
    9.1675    0.7444    0.5740 H   0  0  0  0  0  0  0  0  0  0  0  0
    9.3868   -1.0188    0.0884 H   0  0  0  0  0  0  0  0  0  0  0  0
   11.0898   -0.4042   -1.4614 H   0  0  0  0  0  0  0  0  0  0  0  0
   11.8141    2.2042   -1.1022 H   0  0  0  0  0  0  0  0  0  0  0  0
   10.0227    2.4070   -0.8748 H   0  0  0  0  0  0  0  0  0  0  0  0
   10.6922    1.7750   -2.4365 H   0  0  0  0  0  0  0  0  0  0  0  0
   11.1358    0.7140    1.3594 H   0  0  0  0  0  0  0  0  0  0  0  0
   12.5580    0.9429    0.3121 H   0  0  0  0  0  0  0  0  0  0  0  0
   11.9940   -0.7087    0.6591 H   0  0  0  0  0  0  0  0  0  0  0  0
  -10.6455    0.9232    1.1956 H   0  0  0  0  0  0  0  0  0  0  0  0
   -9.2251    1.7768    0.4918 H   0  0  0  0  0  0  0  0  0  0  0  0
   -9.1209    1.0260    2.1686 H   0  0  0  0  0  0  0  0  0  0  0  0
   -9.7352    1.6274   -2.2248 H   0  0  0  0  0  0  0  0  0  0  0  0
  -10.6150    0.6482   -3.2928 H   0  0  0  0  0  0  0  0  0  0  0  0
   -8.8475   -1.0625   -2.7840 H   0  0  0  0  0  0  0  0  0  0  0  0
   -7.5794   -0.0436   -4.4894 H   0  0  0  0  0  0  0  0  0  0  0  0
   -7.2434    0.6046    0.8232 H   0  0  0  0  0  0  0  0  0  0  0  0
   -7.7439   -1.4855   -1.3418 H   0  0  0  0  0  0  0  0  0  0  0  0
   -5.5276   -1.4754   -1.6712 H   0  0  0  0  0  0  0  0  0  0  0  0
   -5.4780    1.3513   -1.2465 H   0  0  0  0  0  0  0  0  0  0  0  0
   -5.0138    0.4179    0.6259 H   0  0  0  0  0  0  0  0  0  0  0  0
   -8.5536   -2.7300    0.0556 H   0  0  0  0  0  0  0  0  0  0  0  0
   -6.7989   -3.0311   -0.3598 H   0  0  0  0  0  0  0  0  0  0  0  0
   -7.5211   -3.6308    1.1825 H   0  0  0  0  0  0  0  0  0  0  0  0
   -7.6849   -2.5317    2.9921 H   0  0  0  0  0  0  0  0  0  0  0  0
   -7.4447   -0.7310    3.1651 H   0  0  0  0  0  0  0  0  0  0  0  0
   -8.9017   -1.3766    2.3853 H   0  0  0  0  0  0  0  0  0  0  0  0
   -3.3386    0.6923    0.7657 H   0  0  0  0  0  0  0  0  0  0  0  0
   -2.6389    0.3107   -1.4956 H   0  0  0  0  0  0  0  0  0  0  0  0
   -2.2482   -1.8707   -1.9635 H   0  0  0  0  0  0  0  0  0  0  0  0
   -1.4932   -2.1852   -0.3765 H   0  0  0  0  0  0  0  0  0  0  0  0
   -0.5617   -1.4038   -1.7185 H   0  0  0  0  0  0  0  0  0  0  0  0
   -1.1587    1.8487   -0.8042 H   0  0  0  0  0  0  0  0  0  0  0  0
   -1.6010    1.5254    1.4227 H   0  0  0  0  0  0  0  0  0  0  0  0
   -0.1051   -1.1354    1.2658 H   0  0  0  0  0  0  0  0  0  0  0  0
   -0.3994   -0.1803    2.8101 H   0  0  0  0  0  0  0  0  0  0  0  0
   -2.1701   -1.9834    1.7198 H   0  0  0  0  0  0  0  0  0  0  0  0
   -2.6293   -0.5375    2.6412 H   0  0  0  0  0  0  0  0  0  0  0  0
    2.0808    0.9473   -1.4973 H   0  0  0  0  0  0  0  0  0  0  0  0
    1.7699   -1.3391   -1.1688 H   0  0  0  0  0  0  0  0  0  0  0  0
    2.1462    2.4227    0.1795 H   0  0  0  0  0  0  0  0  0  0  0  0
    0.1827    2.8711    1.0421 H   0  0  0  0  0  0  0  0  0  0  0  0
    0.7565    2.7711    3.0528 H   0  0  0  0  0  0  0  0  0  0  0  0
    2.2125    0.6793    2.4090 H   0  0  0  0  0  0  0  0  0  0  0  0
    3.9831   -0.3131    0.4880 H   0  0  0  0  0  0  0  0  0  0  0  0
    5.0235   -0.8658    2.2289 H   0  0  0  0  0  0  0  0  0  0  0  0
    5.0868    2.1500    1.9826 H   0  0  0  0  0  0  0  0  0  0  0  0
    6.5655    0.4531    2.0305 H   0  0  0  0  0  0  0  0  0  0  0  0
    6.0395   -0.2690    0.4947 H   0  0  0  0  0  0  0  0  0  0  0  0
    7.6388    2.2886    0.8389 H   0  0  0  0  0  0  0  0  0  0  0  0
    7.6963    2.0030   -1.7789 H   0  0  0  0  0  0  0  0  0  0  0  0
    6.3700    0.5445   -2.4994 H   0  0  0  0  0  0  0  0  0  0  0  0
    5.6265    3.3409   -1.7639 H   0  0  0  0  0  0  0  0  0  0  0  0
    6.4710    3.7018   -0.1550 H   0  0  0  0  0  0  0  0  0  0  0  0
    4.2012    3.2946    0.2480 H   0  0  0  0  0  0  0  0  0  0  0  0
    4.1280    1.8970   -0.8736 H   0  0  0  0  0  0  0  0  0  0  0  0
    8.9200    0.3264    1.3189 H   0  0  0  0  0  0  0  0  0  0  0  0
    9.4601    1.0236   -0.2260 H   0  0  0  0  0  0  0  0  0  0  0  0
    7.6826   -1.4254    0.1601 H   0  0  0  0  0  0  0  0  0  0  0  0
    8.0816   -0.7639   -1.4370 H   0  0  0  0  0  0  0  0  0  0  0  0
   10.0243   -1.8975    0.6348 H   0  0  0  0  0  0  0  0  0  0  0  0
   11.2464   -0.1794   -0.3953 H   0  0  0  0  0  0  0  0  0  0  0  0
   10.5082   -0.4377   -2.0369 H   0  0  0  0  0  0  0  0  0  0  0  0
   11.6430   -1.6345   -1.3871 H   0  0  0  0  0  0  0  0  0  0  0  0
    8.7557   -3.5299   -0.3618 H   0  0  0  0  0  0  0  0  0  0  0  0
   10.2866   -3.5210   -1.3748 H   0  0  0  0  0  0  0  0  0  0  0  0
    8.7095   -2.7984   -1.9773 H   0  0  0  0  0  0  0  0  0  0  0  0
  -10.4227    1.6795   -0.2146 H   0  0  0  0  0  0  0  0  0  0  0  0
   -8.9210    2.1779   -1.0818 H   0  0  0  0  0  0  0  0  0  0  0  0
   -8.9818    2.1589    0.7426 H   0  0  0  0  0  0  0  0  0  0  0  0
  -10.1727    0.4318   -2.7009 H   0  0  0  0  0  0  0  0  0  0  0  0
   -9.1087    1.6026   -3.4465 H   0  0  0  0  0  0  0  0  0  0  0  0
   -8.7479   -1.2565   -2.9844 H   0  0  0  0  0  0  0  0  0  0  0  0
   -7.1749   -1.0608   -4.8240 H   0  0  0  0  0  0  0  0  0  0  0  0
   -6.9913    1.1488   -0.1597 H   0  0  0  0  0  0  0  0  0  0  0  0
   -7.8288   -1.4382   -1.5498 H   0  0  0  0  0  0  0  0  0  0  0  0
   -5.6993   -2.1148   -1.6779 H   0  0  0  0  0  0  0  0  0  0  0  0
   -4.9461   -0.8899   -3.3091 H   0  0  0  0  0  0  0  0  0  0  0  0
   -5.1445    0.3455    0.1091 H   0  0  0  0  0  0  0  0  0  0  0  0
   -9.2646   -1.4369    0.6482 H   0  0  0  0  0  0  0  0  0  0  0  0
   -7.9769   -2.5794    0.1178 H   0  0  0  0  0  0  0  0  0  0  0  0
   -8.2995   -2.3782    1.8597 H   0  0  0  0  0  0  0  0  0  0  0  0
   -7.2378   -0.6022    3.1170 H   0  0  0  0  0  0  0  0  0  0  0  0
   -6.9530    1.0049    2.2749 H   0  0  0  0  0  0  0  0  0  0  0  0
   -8.5633    0.2367    2.2484 H   0  0  0  0  0  0  0  0  0  0  0  0
   -3.2955    0.5988    0.7984 H   0  0  0  0  0  0  0  0  0  0  0  0
   -1.2892   -1.5209   -0.1834 H   0  0  0  0  0  0  0  0  0  0  0  0
   -2.4143   -0.9351   -2.0782 H   0  0  0  0  0  0  0  0  0  0  0  0
   -2.7831    0.7749   -1.4482 H   0  0  0  0  0  0  0  0  0  0  0  0
   -1.0854    0.3127   -1.9848 H   0  0  0  0  0  0  0  0  0  0  0  0
   -1.1992    1.4293    0.6191 H   0  0  0  0  0  0  0  0  0  0  0  0
    0.0282   -1.1353    1.7212 H   0  0  0  0  0  0  0  0  0  0  0  0
   -1.2366   -0.5335    3.7190 H   0  0  0  0  0  0  0  0  0  0  0  0
   -1.7880    0.9430    2.8836 H   0  0  0  0  0  0  0  0  0  0  0  0
   -2.3635   -1.9298    2.1068 H   0  0  0  0  0  0  0  0  0  0  0  0
   -3.5157   -0.6715    2.8037 H   0  0  0  0  0  0  0  0  0  0  0  0
    2.3438    0.7691   -0.6463 H   0  0  0  0  0  0  0  0  0  0  0  0
    1.1688   -1.4014   -0.3775 H   0  0  0  0  0  0  0  0  0  0  0  0
    1.3126    2.2491    1.0015 H   0  0  0  0  0  0  0  0  0  0  0  0
    0.2753    1.6594    2.8806 H   0  0  0  0  0  0  0  0  0  0  0  0
    1.7460    0.8418    4.1223 H   0  0  0  0  0  0  0  0  0  0  0  0
    3.2034    2.6304    1.8612 H   0  0  0  0  0  0  0  0  0  0  0  0
    3.8760    0.2381    3.1979 H   0  0  0  0  0  0  0  0  0  0  0  0
    4.8733    2.6421    2.5098 H   0  0  0  0  0  0  0  0  0  0  0  0
    4.2554   -1.0099    0.9970 H   0  0  0  0  0  0  0  0  0  0  0  0
    5.4276    1.7266    0.4334 H   0  0  0  0  0  0  0  0  0  0  0  0
    4.6881    0.5579   -0.6959 H   0  0  0  0  0  0  0  0  0  0  0  0
    7.4731    0.5664    0.4384 H   0  0  0  0  0  0  0  0  0  0  0  0
    7.7407   -1.7251   -0.5133 H   0  0  0  0  0  0  0  0  0  0  0  0
    5.9632   -2.4932   -1.4592 H   0  0  0  0  0  0  0  0  0  0  0  0
    7.7490   -1.8012    1.8034 H   0  0  0  0  0  0  0  0  0  0  0  0
    6.2456   -2.6943    1.4616 H   0  0  0  0  0  0  0  0  0  0  0  0
    5.6198   -1.1121    3.0716 H   0  0  0  0  0  0  0  0  0  0  0  0
    6.6339    0.1951    2.3286 H   0  0  0  0  0  0  0  0  0  0  0  0
    6.0958    0.1663   -2.2627 H   0  0  0  0  0  0  0  0  0  0  0  0
    6.7743    1.7108   -1.7535 H   0  0  0  0  0  0  0  0  0  0  0  0
    8.3533   -0.8173   -2.5394 H   0  0  0  0  0  0  0  0  0  0  0  0
    8.1088    0.6942   -3.3944 H   0  0  0  0  0  0  0  0  0  0  0  0
    9.4062    2.0177   -1.8992 H   0  0  0  0  0  0  0  0  0  0  0  0
    9.5962   -0.4220   -0.0676 H   0  0  0  0  0  0  0  0  0  0  0  0
    9.6708    1.3935    0.2996 H   0  0  0  0  0  0  0  0  0  0  0  0
   11.0230    0.5375   -0.4169 H   0  0  0  0  0  0  0  0  0  0  0  0
   11.1897   -0.3361   -2.3112 H   0  0  0  0  0  0  0  0  0  0  0  0
   11.3744    1.3685   -2.7694 H   0  0  0  0  0  0  0  0  0  0  0  0
   10.2921    0.3529   -3.7784 H   0  0  0  0  0  0  0  0  0  0  0  0
  1  2  1  0
  3  4  1  0
  4  5  1  0
  4  6  1  0
  2  7  1  0
  6  8  1  0
  7  8  1  0
  8  9  1  0
  9 10  1  0
  9 11  1  0
 11 12  1  0
  7 13  1  0
 12 13  1  0
 13 14  1  0
 13 15  1  0
 11 16  1  0
 16 17  1  0
 17 18  1  0
 18 19  1  0
 18 20  1  0
 20 21  1  0
 21 22  1  0
 17 23  1  0
 22 23  1  0
 20 24  1  0
 24 25  1  0
 25 26  1  0
 25 27  1  0
 21 28  1  0
 27 28  1  0
 28 29  1  0
 27 30  1  0
 30 31  1  0
 31 32  1  0
 31 33  1  0
 33 34  1  0
 34 35  1  0
 35 36  1  0
 36 37  1  0
 36 38  1  0
 33 39  1  0
 38 39  1  0
 35 40  1  0
 40 41  1  0
 41 42  1  0
 42 43  1  0
 42 44  1  0
 45 46  1  0
 47 48  1  0
 48 49  1  0
 48 50  1  0
 46 51  1  0
 50 52  1  0
 51 52  1  0
 52 53  1  0
 53 54  1  0
 53 55  1  0
 55 56  1  0
 51 57  1  0
 56 57  1  0
 57 58  1  0
 57 59  1  0
 55 60  1  0
 60 61  1  0
 61 62  1  0
 62 63  1  0
 62 64  1  0
 64 65  1  0
 65 66  1  0
 61 67  1  0
 66 67  1  0
 64 68  1  0
 68 69  1  0
 69 70  1  0
 69 71  1  0
 65 72  1  0
 71 72  1  0
 72 73  1  0
 71 74  1  0
 74 75  1  0
 75 76  1  0
 75 77  1  0
 77 78  1  0
 78 79  1  0
 79 80  1  0
 80 81  1  0
 80 82  1  0
 77 83  1  0
 82 83  1  0
 79 84  1  0
 84 85  1  0
 85 86  1  0
 86 87  1  0
 86 88  1  0
 89 90  1  0
 91 92  1  0
 92 93  1  0
 92 94  1  0
 90 95  1  0
 94 96  1  0
 95 96  1  0
 96 97  1  0
 97 98  1  0
 97 99  1  0
 99100  1  0
 95101  1  0
100101  1  0
101102  1  0
101103  1  0
 99104  1  0
104105  1  0
105106  1  0
106107  1  0
106108  1  0
108109  1  0
109110  1  0
105111  1  0
110111  1  0
108112  1  0
112113  1  0
113114  1  0
113115  1  0
109116  1  0
115116  1  0
116117  1  0
115118  1  0
118119  1  0
119120  1  0
119121  1  0
121122  1  0
122123  1  0
123124  1  0
124125  1  0
124126  1  0
121127  1  0
126127  1  0
123128  1  0
128129  1  0
129130  1  0
130131  1  0
130132  1  0
133134  1  0
135136  1  0
136137  1  0
136138  1  0
134139  1  0
138140  1  0
139140  1  0
140141  1  0
141142  1  0
141143  1  0
143144  1  0
139145  1  0
144145  1  0
145146  1  0
145147  1  0
143148  1  0
148149  1  0
149150  1  0
150151  1  0
150152  1  0
152153  1  0
153154  1  0
149155  1  0
154155  1  0
152156  1  0
156157  1  0
157158  1  0
157159  1  0
153160  1  0
159160  1  0
160161  1  0
159162  1  0
162163  1  0
163164  1  0
163165  1  0
165166  1  0
166167  1  0
167168  1  0
168169  1  0
168170  1  0
165171  1  0
170171  1  0
167172  1  0
172173  1  0
173174  1  0
174175  1  0
174176  1  0
  1177  1  0
  1178  1  0
  1179  1  0
  3180  1  0
  3181  1  0
  4182  1  0
  5183  1  0
  7184  1  1
  8185  1  6
  9186  1  6
 10187  1  0
 11188  1  1
 14189  1  0
 14190  1  0
 14191  1  0
 15192  1  0
 15193  1  0
 15194  1  0
 17195  1  0
 18196  1  6
 19197  1  0
 19198  1  0
 19199  1  0
 20200  1  0
 21201  1  0
 22202  1  0
 22203  1  0
 23204  1  0
 23205  1  0
 25206  1  0
 26207  1  0
 27208  1  6
 28209  1  0
 29210  1  0
 30211  1  0
 31212  1  0
 32213  1  0
 33214  1  6
 34215  1  0
 34216  1  0
 35217  1  0
 36218  1  1
 37219  1  0
 38220  1  0
 38221  1  0
 39222  1  0
 39223  1  0
 40224  1  0
 40225  1  0
 41226  1  0
 41227  1  0
 42228  1  0
 43229  1  0
 43230  1  0
 43231  1  0
 44232  1  0
 44233  1  0
 44234  1  0
 45235  1  0
 45236  1  0
 45237  1  0
 47238  1  0
 47239  1  0
 48240  1  0
 49241  1  0
 51242  1  1
 52243  1  6
 53244  1  6
 54245  1  0
 55246  1  1
 58247  1  0
 58248  1  0
 58249  1  0
 59250  1  0
 59251  1  0
 59252  1  0
 61253  1  0
 62254  1  0
 63255  1  0
 63256  1  0
 63257  1  0
 64258  1  0
 65259  1  0
 66260  1  0
 66261  1  0
 67262  1  0
 67263  1  0
 69264  1  0
 70265  1  0
 71266  1  6
 72267  1  0
 73268  1  0
 74269  1  0
 75270  1  0
 76271  1  0
 77272  1  0
 78273  1  0
 78274  1  0
 79275  1  0
 80276  1  0
 81277  1  0
 82278  1  0
 82279  1  0
 83280  1  0
 83281  1  0
 84282  1  0
 84283  1  0
 85284  1  0
 85285  1  0
 86286  1  0
 87287  1  0
 87288  1  0
 87289  1  0
 88290  1  0
 88291  1  0
 88292  1  0
 89293  1  0
 89294  1  0
 89295  1  0
 91296  1  0
 91297  1  0
 92298  1  0
 93299  1  0
 95300  1  1
 96301  1  6
 97302  1  6
 98303  1  0
 99304  1  1
102305  1  0
102306  1  0
102307  1  0
103308  1  0
103309  1  0
103310  1  0
105311  1  0
106312  1  0
107313  1  0
107314  1  0
107315  1  0
108316  1  0
109317  1  0
110318  1  0
110319  1  0
111320  1  0
111321  1  0
113322  1  0
114323  1  0
115324  1  6
116325  1  0
117326  1  0
118327  1  0
119328  1  0
120329  1  0
121330  1  1
122331  1  0
122332  1  0
123333  1  1
124334  1  0
125335  1  0
126336  1  0
126337  1  0
127338  1  0
127339  1  0
128340  1  0
128341  1  0
129342  1  0
129343  1  0
130344  1  0
131345  1  0
131346  1  0
131347  1  0
132348  1  0
132349  1  0
132350  1  0
133351  1  0
133352  1  0
133353  1  0
135354  1  0
135355  1  0
136356  1  0
137357  1  0
139358  1  1
140359  1  6
141360  1  6
142361  1  0
143362  1  1
146363  1  0
146364  1  0
146365  1  0
147366  1  0
147367  1  0
147368  1  0
149369  1  0
150370  1  6
151371  1  0
151372  1  0
151373  1  0
152374  1  0
153375  1  0
154376  1  0
154377  1  0
155378  1  0
155379  1  0
157380  1  0
158381  1  0
159382  1  6
160383  1  0
161384  1  0
162385  1  0
163386  1  1
164387  1  0
165388  1  6
166389  1  0
166390  1  0
167391  1  0
168392  1  0
169393  1  0
170394  1  0
170395  1  0
171396  1  0
171397  1  0
172398  1  0
172399  1  0
173400  1  0
173401  1  0
174402  1  0
175403  1  0
175404  1  0
175405  1  0
176406  1  0
176407  1  0
176408  1  0
M  END
>  <PDBID>  (1) 
4URO

>  <PDB ID>  (1) 
4URO

>  <Generic Name>  (1) 
Novobiocin

>  <Brand Name>  (1) 
Albamycin

>  <DrugBank ID>  (1) 
DB01051

>  <ATC Codes>  (1) 
nan

>  <Ligand ID>  (1) 
NOV

>  <Target Name>  (1) 
DNA gyrase subunit B

>  <UniProt ID>  (1) 
P0A0K8

>  <PDB ID.1>  (1) 
4URO

>  <Seq. Identity>  (1) 
84%

$$$$
