PDB_DB00220_05
     RDKit          3D

101104  0  0  0  0  0  0  0  0999 V2000
    2.7533   -0.7339   -2.2498 C   0  0  2  0  0  0  0  0  0  0  0  0
    4.1653   -0.4540   -1.8993 C   0  0  1  0  0  0  0  0  0  0  0  0
    4.8867    0.3635   -2.9814 C   0  0  0  0  0  0  0  0  0  0  0  0
    4.9521   -0.6111   -4.1472 C   0  0  0  0  0  0  0  0  0  0  0  0
    3.5744   -0.8586   -4.6406 C   0  0  0  0  0  0  0  0  0  0  0  0
    2.4426   -0.7114   -3.7105 C   0  0  0  0  0  0  0  0  0  0  0  0
    2.0872    0.6198   -0.2708 N   0  0  0  0  0  0  0  0  0  0  0  0
    3.1373   -0.1844    0.2737 C   0  0  1  0  0  0  0  0  0  0  0  0
    4.3613    0.1526   -0.5467 C   0  0  0  0  0  0  0  0  0  0  0  0
    1.7607    0.2169   -1.5641 C   0  0  0  0  0  0  0  0  0  0  0  0
    3.4803    0.0604    1.6955 C   0  0  1  0  0  0  0  0  0  0  0  0
    4.0985    1.3255    1.9552 N   0  0  0  0  0  0  0  0  0  0  0  0
    5.1900    1.3798    2.8349 C   0  0  0  0  0  0  0  0  0  0  0  0
    6.4219    0.6380    2.4539 C   0  0  0  0  0  0  0  0  0  0  0  0
    5.6000    2.8720    2.9220 C   0  0  0  0  0  0  0  0  0  0  0  0
    4.8509    1.0127    4.2685 C   0  0  0  0  0  0  0  0  0  0  0  0
    2.4827   -0.1300    2.6218 O   0  0  0  0  0  0  0  0  0  0  0  0
    1.0415    0.9699    0.6026 C   0  0  0  0  0  0  0  0  0  0  0  0
    0.0189   -0.0492    0.9425 C   0  0  2  0  0  0  0  0  0  0  0  0
   -1.2493    0.0009    0.0638 C   0  0  1  0  0  0  0  0  0  0  0  0
   -0.6508    0.3368    2.1882 O   0  0  0  0  0  0  0  0  0  0  0  0
   -2.0755   -1.1065    0.6571 N   0  0  0  0  0  0  0  0  0  0  0  0
   -1.9664    1.2838    0.4568 C   0  0  0  0  0  0  0  0  0  0  0  0
   -1.4055   -2.3592    0.4322 C   0  0  0  0  0  0  0  0  0  0  0  0
   -0.8013   -2.8788    1.5743 O   0  0  0  0  0  0  0  0  0  0  0  0
   -2.3594   -3.4368   -0.0422 C   0  0  0  0  0  0  0  0  0  0  0  0
   -3.0770   -3.1460   -1.2994 C   0  0  0  0  0  0  0  0  0  0  0  0
   -3.8914   -4.3523   -1.7106 C   0  0  0  0  0  0  0  0  0  0  0  0
   -3.6265   -5.5604   -0.8591 C   0  0  0  0  0  0  0  0  0  0  0  0
   -3.7320   -5.3248    0.6076 C   0  0  1  0  0  0  0  0  0  0  0  0
   -3.2753   -3.9386    1.0140 C   0  0  2  0  0  0  0  0  0  0  0  0
   -5.0313   -5.5755    1.0500 O   0  0  0  0  0  0  0  0  0  0  0  0
   -4.4970   -3.1082    1.2653 C   0  0  0  0  0  0  0  0  0  0  0  0
   -3.5054    1.5432   -0.4480 S   0  0  0  0  0  0  0  0  0  0  0  0
   -4.3115    3.0447    0.1914 C   0  0  0  0  0  0  0  0  0  0  0  0
   -3.5228    4.2867   -0.1048 C   0  0  0  0  0  0  0  0  0  0  0  0
   -4.2596    5.2066   -1.0672 C   0  0  0  0  0  0  0  0  0  0  0  0
   -5.5922    5.6595   -0.5462 C   0  0  0  0  0  0  0  0  0  0  0  0
   -6.2072    4.5435    0.2826 C   0  0  0  0  0  0  0  0  0  0  0  0
   -5.7134    3.2256   -0.3029 C   0  0  0  0  0  0  0  0  0  0  0  0
    3.5540    2.1684    1.8233 H   0  0  0  0  0  0  0  0  0  0  0  0
   -0.3796    1.2549    2.3497 H   0  0  0  0  0  0  0  0  0  0  0  0
   -2.9886   -1.0390    0.1461 H   0  0  0  0  0  0  0  0  0  0  0  0
   -5.6051   -5.7600    0.2706 H   0  0  0  0  0  0  0  0  0  0  0  0
    2.5076   -1.7455   -1.8385 H   0  0  0  0  0  0  0  0  0  0  0  0
    4.7278   -1.4352   -1.8845 H   0  0  0  0  0  0  0  0  0  0  0  0
    5.8724    0.6108   -2.5696 H   0  0  0  0  0  0  0  0  0  0  0  0
    4.2642    1.2464   -3.2266 H   0  0  0  0  0  0  0  0  0  0  0  0
    5.5827   -0.2110   -4.9599 H   0  0  0  0  0  0  0  0  0  0  0  0
    5.4778   -1.5277   -3.7857 H   0  0  0  0  0  0  0  0  0  0  0  0
    3.4290   -0.2096   -5.5573 H   0  0  0  0  0  0  0  0  0  0  0  0
    3.5965   -1.8962   -5.1042 H   0  0  0  0  0  0  0  0  0  0  0  0
    1.8769    0.2154   -3.9808 H   0  0  0  0  0  0  0  0  0  0  0  0
    1.6982   -1.5373   -3.9291 H   0  0  0  0  0  0  0  0  0  0  0  0
    2.8922   -1.2313    0.0965 H   0  0  0  0  0  0  0  0  0  0  0  0
    5.3114   -0.1926   -0.1003 H   0  0  0  0  0  0  0  0  0  0  0  0
    4.4448    1.2570   -0.7061 H   0  0  0  0  0  0  0  0  0  0  0  0
    0.8320   -0.3792   -1.5596 H   0  0  0  0  0  0  0  0  0  0  0  0
    1.5825    1.0596   -2.2736 H   0  0  0  0  0  0  0  0  0  0  0  0
    4.2676   -0.7095    1.9764 H   0  0  0  0  0  0  0  0  0  0  0  0
    7.2884    0.8731    3.1251 H   0  0  0  0  0  0  0  0  0  0  0  0
    6.7702    0.9275    1.4190 H   0  0  0  0  0  0  0  0  0  0  0  0
    6.2401   -0.4550    2.4074 H   0  0  0  0  0  0  0  0  0  0  0  0
    5.0503    3.3787    3.7363 H   0  0  0  0  0  0  0  0  0  0  0  0
    5.3556    3.3896    1.9748 H   0  0  0  0  0  0  0  0  0  0  0  0
    6.6785    2.9829    3.1349 H   0  0  0  0  0  0  0  0  0  0  0  0
    4.5675   -0.0292    4.3944 H   0  0  0  0  0  0  0  0  0  0  0  0
    4.0794    1.7231    4.6851 H   0  0  0  0  0  0  0  0  0  0  0  0
    5.7662    1.1954    4.8692 H   0  0  0  0  0  0  0  0  0  0  0  0
    2.4606    0.5354    3.3435 H   0  0  0  0  0  0  0  0  0  0  0  0
    0.4808    1.7919    0.0166 H   0  0  0  0  0  0  0  0  0  0  0  0
    1.3357    1.5623    1.5080 H   0  0  0  0  0  0  0  0  0  0  0  0
    0.4473   -1.0204    1.0577 H   0  0  0  0  0  0  0  0  0  0  0  0
   -1.1924   -0.1330   -0.9500 H   0  0  0  0  0  0  0  0  0  0  0  0
   -2.2480    1.2105    1.5517 H   0  0  0  0  0  0  0  0  0  0  0  0
   -1.3462    2.1645    0.2991 H   0  0  0  0  0  0  0  0  0  0  0  0
   -0.6704   -2.2015   -0.3869 H   0  0  0  0  0  0  0  0  0  0  0  0
   -1.2778   -2.6840    2.3939 H   0  0  0  0  0  0  0  0  0  0  0  0
   -1.6705   -4.3175   -0.2803 H   0  0  0  0  0  0  0  0  0  0  0  0
   -3.8379   -2.3161   -1.1889 H   0  0  0  0  0  0  0  0  0  0  0  0
   -2.3379   -2.8601   -2.0946 H   0  0  0  0  0  0  0  0  0  0  0  0
   -4.9800   -4.1660   -1.7413 H   0  0  0  0  0  0  0  0  0  0  0  0
   -3.5784   -4.6183   -2.7423 H   0  0  0  0  0  0  0  0  0  0  0  0
   -4.4200   -6.3207   -1.1162 H   0  0  0  0  0  0  0  0  0  0  0  0
   -2.6554   -6.0751   -1.1303 H   0  0  0  0  0  0  0  0  0  0  0  0
   -3.0620   -6.0809    1.1100 H   0  0  0  0  0  0  0  0  0  0  0  0
   -2.7520   -4.0338    2.0134 H   0  0  0  0  0  0  0  0  0  0  0  0
   -4.2971   -2.1350    1.7604 H   0  0  0  0  0  0  0  0  0  0  0  0
   -5.1377   -3.0553    0.3724 H   0  0  0  0  0  0  0  0  0  0  0  0
   -5.0977   -3.6972    2.0358 H   0  0  0  0  0  0  0  0  0  0  0  0
   -4.3957    2.9416    1.3133 H   0  0  0  0  0  0  0  0  0  0  0  0
   -2.5556    4.0352   -0.5518 H   0  0  0  0  0  0  0  0  0  0  0  0
   -3.3860    4.9000    0.8256 H   0  0  0  0  0  0  0  0  0  0  0  0
   -4.3548    4.7363   -2.0686 H   0  0  0  0  0  0  0  0  0  0  0  0
   -3.6311    6.1342   -1.1406 H   0  0  0  0  0  0  0  0  0  0  0  0
   -5.5354    6.5911    0.0273 H   0  0  0  0  0  0  0  0  0  0  0  0
   -6.2732    5.8712   -1.4160 H   0  0  0  0  0  0  0  0  0  0  0  0
   -7.2962    4.6464    0.2546 H   0  0  0  0  0  0  0  0  0  0  0  0
   -5.8202    4.6975    1.3203 H   0  0  0  0  0  0  0  0  0  0  0  0
   -6.4046    2.4492    0.0931 H   0  0  0  0  0  0  0  0  0  0  0  0
   -5.8056    3.3003   -1.3849 H   0  0  0  0  0  0  0  0  0  0  0  0
  1  2  1  0
  2  3  1  0
  3  4  1  0
  4  5  1  0
  1  6  1  0
  5  6  1  0
  7  8  1  0
  2  9  1  0
  8  9  1  0
  1 10  1  0
  7 10  1  0
  8 11  1  0
 11 12  1  0
 13 12  1  0
 13 14  1  0
 13 15  1  0
 13 16  1  0
 11 17  1  0
  7 18  1  0
 18 19  1  0
 19 20  1  0
 19 21  1  0
 20 22  1  0
 20 23  1  0
 22 24  1  0
 24 25  1  0
 24 26  1  0
 26 27  1  0
 27 28  1  0
 28 29  1  0
 29 30  1  0
 26 31  1  0
 30 31  1  0
 30 32  1  0
 31 33  1  0
 23 34  1  0
 34 35  1  0
 35 36  1  0
 36 37  1  0
 37 38  1  0
 38 39  1  0
 35 40  1  0
 39 40  1  0
 12 41  1  0
 21 42  1  0
 22 43  1  0
 32 44  1  0
  1 45  1  1
  2 46  1  1
  3 47  1  0
  3 48  1  0
  4 49  1  0
  4 50  1  0
  5 51  1  0
  5 52  1  0
  6 53  1  0
  6 54  1  0
  8 55  1  1
  9 56  1  0
  9 57  1  0
 10 58  1  0
 10 59  1  0
 11 60  1  1
 14 61  1  0
 14 62  1  0
 14 63  1  0
 15 64  1  0
 15 65  1  0
 15 66  1  0
 16 67  1  0
 16 68  1  0
 16 69  1  0
 17 70  1  0
 18 71  1  0
 18 72  1  0
 19 73  1  1
 20 74  1  6
 23 75  1  0
 23 76  1  0
 24 77  1  0
 25 78  1  0
 26 79  1  0
 27 80  1  0
 27 81  1  0
 28 82  1  0
 28 83  1  0
 29 84  1  0
 29 85  1  0
 30 86  1  1
 31 87  1  1
 33 88  1  0
 33 89  1  0
 33 90  1  0
 35 91  1  0
 36 92  1  0
 36 93  1  0
 37 94  1  0
 37 95  1  0
 38 96  1  0
 38 97  1  0
 39 98  1  0
 39 99  1  0
 40100  1  0
 40101  1  0
M  END
>  <PDBID>  (1) 
1OHR

>  <PDB ID>  (1) 
1OHR

>  <Generic Name>  (1) 
Nelfinavir

>  <Brand Name>  (1) 
Viracept#Viracept -250mg#Viracept -50mg

>  <DrugBank ID>  (1) 
DB00220

>  <ATC Codes>  (1) 
J05AE04

>  <Ligand ID>  (1) 
1UN

>  <Target Name>  (1) 
HIV-1 protease

>  <UniProt ID>  (1) 
O90777

>  <PDB ID.1>  (1) 
1OHR

>  <Seq. Identity>  (1) 
93%

$$$$
