PDB_DB00814_02
     RDKit          3D

104109  0  0  0  0  0  0  0  0999 V2000
    6.2654    0.1159    1.0483 C   0  0  0  0  0  0  0  0  0  0  0  0
    5.6462    0.0688   -0.3090 C   0  0  0  0  0  0  0  0  0  0  0  0
    3.9723    0.7947   -0.3031 S   0  0  0  0  0  0  0  0  0  0  0  0
    5.3072   -1.3352   -0.7934 C   0  0  0  0  0  0  0  0  0  0  0  0
    4.0361   -1.7075   -0.2857 N   0  0  0  0  0  0  0  0  0  0  0  0
    3.0540   -0.7000   -0.7884 C   0  0  0  0  0  0  0  0  0  0  0  0
    1.8420   -0.8466   -0.0219 N   0  0  0  0  0  0  0  0  0  0  0  0
    1.2095    0.3885    0.1899 C   0  0  1  0  0  0  0  0  0  0  0  0
    1.7579    1.4317   -0.5317 O   0  0  0  0  0  0  0  0  0  0  0  0
   -0.2996    0.4286    0.0827 C   0  0  1  0  0  0  0  0  0  0  0  0
   -0.9800   -0.7903    0.6364 C   0  0  2  0  0  0  0  0  0  0  0  0
   -0.3308   -1.9724    0.2790 O   0  0  0  0  0  0  0  0  0  0  0  0
   -2.3848   -0.7906    0.0085 C   0  0  1  0  0  0  0  0  0  0  0  0
   -3.1009   -2.0732    0.2348 C   0  0  0  0  0  0  0  0  0  0  0  0
   -4.4072   -2.0063   -0.5563 C   0  0  0  0  0  0  0  0  0  0  0  0
   -5.2473   -0.9422    0.1203 C   0  0  0  0  0  0  0  0  0  0  0  0
   -4.5468    0.3695   -0.0953 C   0  0  0  0  0  0  0  0  0  0  0  0
   -3.1859    0.3449    0.5579 C   0  0  2  0  0  0  0  0  0  0  0  0
   -2.4386    1.9060    0.0790 S   0  0  0  0  0  0  0  0  0  0  0  0
   -2.3933    2.2314   -1.6242 O   0  0  0  0  0  0  0  0  0  0  0  0
   -3.1025    3.2237    1.0426 O   0  0  0  0  0  0  0  0  0  0  0  0
   -0.7681    1.5910    0.7314 N   0  0  0  0  0  0  0  0  0  0  0  0
   -0.0464    2.7999    0.6015 C   0  0  0  0  0  0  0  0  0  0  0  0
    6.4999   -0.6743   -0.3448 C   0  0  0  0  0  0  0  0  0  0  0  0
    5.2468   -0.0298   -0.8141 C   0  0  0  0  0  0  0  0  0  0  0  0
    4.0019   -1.2028   -1.4405 S   0  0  0  0  0  0  0  0  0  0  0  0
    4.4343    0.5101    0.3809 C   0  0  0  0  0  0  0  0  0  0  0  0
    3.1675    0.8481   -0.2480 N   0  0  0  0  0  0  0  0  0  0  0  0
    2.5634   -0.4776   -0.5161 C   0  0  1  0  0  0  0  0  0  0  0  0
    1.4307   -0.4079   -1.3206 N   0  0  0  0  0  0  0  0  0  0  0  0
    0.2167    0.1679   -0.8431 C   0  0  1  0  0  0  0  0  0  0  0  0
   -0.4617    0.5255   -2.0020 O   0  0  0  0  0  0  0  0  0  0  0  0
   -0.5143   -0.4845    0.2325 C   0  0  2  0  0  0  0  0  0  0  0  0
   -1.7443   -1.3675   -0.0764 C   0  0  2  0  0  0  0  0  0  0  0  0
   -1.4224   -2.0635   -1.2495 O   0  0  0  0  0  0  0  0  0  0  0  0
   -2.6501   -0.2676   -0.2689 C   0  0  1  0  0  0  0  0  0  0  0  0
   -4.1478   -0.5209   -0.3386 C   0  0  0  0  0  0  0  0  0  0  0  0
   -4.6705    0.8884   -0.6384 C   0  0  0  0  0  0  0  0  0  0  0  0
   -3.6394    1.8620   -1.0932 C   0  0  0  0  0  0  0  0  0  0  0  0
   -2.4644    2.0850   -0.1648 C   0  0  0  0  0  0  0  0  0  0  0  0
   -2.3772    0.8632    0.6607 C   0  0  2  0  0  0  0  0  0  0  0  0
   -1.0876    0.3258    1.5664 S   0  0  0  0  0  0  0  0  0  0  0  0
   -2.1623   -0.5184    3.0657 O   0  0  0  0  0  0  0  0  0  0  0  0
   -0.4310    2.1470    2.1111 O   0  0  0  0  0  0  0  0  0  0  0  0
    0.3595   -0.8235    1.2117 N   0  0  0  0  0  0  0  0  0  0  0  0
    0.2522   -2.1976    1.5323 C   0  0  0  0  0  0  0  0  0  0  0  0
    6.9449    1.0252    1.0576 H   0  0  0  0  0  0  0  0  0  0  0  0
    6.8767   -0.7824    1.2464 H   0  0  0  0  0  0  0  0  0  0  0  0
    5.4811    0.3094    1.8217 H   0  0  0  0  0  0  0  0  0  0  0  0
    6.2228    0.6281   -1.0713 H   0  0  0  0  0  0  0  0  0  0  0  0
    6.0666   -2.0660   -0.4437 H   0  0  0  0  0  0  0  0  0  0  0  0
    5.2439   -1.2863   -1.8949 H   0  0  0  0  0  0  0  0  0  0  0  0
    4.0548   -1.5845    0.7635 H   0  0  0  0  0  0  0  0  0  0  0  0
    2.9477   -0.8181   -1.8622 H   0  0  0  0  0  0  0  0  0  0  0  0
    1.9986   -1.4014    0.8516 H   0  0  0  0  0  0  0  0  0  0  0  0
    1.4843    0.6708    1.2870 H   0  0  0  0  0  0  0  0  0  0  0  0
    1.6006    1.2773   -1.5065 H   0  0  0  0  0  0  0  0  0  0  0  0
   -0.5507    0.4199   -1.0250 H   0  0  0  0  0  0  0  0  0  0  0  0
   -1.1119   -0.6858    1.7224 H   0  0  0  0  0  0  0  0  0  0  0  0
   -0.7252   -2.7311    0.7700 H   0  0  0  0  0  0  0  0  0  0  0  0
   -2.1927   -0.6645   -1.0809 H   0  0  0  0  0  0  0  0  0  0  0  0
   -3.3913   -2.2085    1.2822 H   0  0  0  0  0  0  0  0  0  0  0  0
   -2.5377   -2.9513   -0.1784 H   0  0  0  0  0  0  0  0  0  0  0  0
   -4.9197   -2.9786   -0.6009 H   0  0  0  0  0  0  0  0  0  0  0  0
   -4.1451   -1.6036   -1.5588 H   0  0  0  0  0  0  0  0  0  0  0  0
   -6.2578   -0.9054   -0.3138 H   0  0  0  0  0  0  0  0  0  0  0  0
   -5.2360   -1.1577    1.2045 H   0  0  0  0  0  0  0  0  0  0  0  0
   -5.1162    1.2334    0.2702 H   0  0  0  0  0  0  0  0  0  0  0  0
   -4.3626    0.5360   -1.1898 H   0  0  0  0  0  0  0  0  0  0  0  0
   -3.2158    0.3279    1.6457 H   0  0  0  0  0  0  0  0  0  0  0  0
   -2.2422    1.3976   -2.0913 H   0  0  0  0  0  0  0  0  0  0  0  0
   -3.1232    4.0248    0.5063 H   0  0  0  0  0  0  0  0  0  0  0  0
    0.8420    2.7344    1.2855 H   0  0  0  0  0  0  0  0  0  0  0  0
    0.1925    3.1061   -0.4134 H   0  0  0  0  0  0  0  0  0  0  0  0
   -0.6869    3.6043    1.1013 H   0  0  0  0  0  0  0  0  0  0  0  0
    7.3124   -0.5422   -1.0879 H   0  0  0  0  0  0  0  0  0  0  0  0
    6.3247   -1.7163   -0.0631 H   0  0  0  0  0  0  0  0  0  0  0  0
    6.8417   -0.1211    0.5656 H   0  0  0  0  0  0  0  0  0  0  0  0
    5.3997    0.8107   -1.5197 H   0  0  0  0  0  0  0  0  0  0  0  0
    4.3340   -0.3054    1.1326 H   0  0  0  0  0  0  0  0  0  0  0  0
    4.9037    1.4064    0.7951 H   0  0  0  0  0  0  0  0  0  0  0  0
    3.4281    1.2166   -1.1961 H   0  0  0  0  0  0  0  0  0  0  0  0
    2.5439   -1.0742    0.4038 H   0  0  0  0  0  0  0  0  0  0  0  0
    1.6295   -0.3451   -2.3103 H   0  0  0  0  0  0  0  0  0  0  0  0
    0.6274    1.1471   -0.3582 H   0  0  0  0  0  0  0  0  0  0  0  0
   -0.4195   -0.1577   -2.7055 H   0  0  0  0  0  0  0  0  0  0  0  0
   -1.9382   -2.0822    0.7260 H   0  0  0  0  0  0  0  0  0  0  0  0
   -2.2623   -2.1726   -1.7932 H   0  0  0  0  0  0  0  0  0  0  0  0
   -2.5289    0.0204   -1.3708 H   0  0  0  0  0  0  0  0  0  0  0  0
   -4.3757   -1.2394   -1.1335 H   0  0  0  0  0  0  0  0  0  0  0  0
   -4.5247   -0.7933    0.6474 H   0  0  0  0  0  0  0  0  0  0  0  0
   -5.3537    0.7486   -1.5284 H   0  0  0  0  0  0  0  0  0  0  0  0
   -5.3285    1.2609    0.1651 H   0  0  0  0  0  0  0  0  0  0  0  0
   -4.1834    2.8523   -1.1264 H   0  0  0  0  0  0  0  0  0  0  0  0
   -3.3449    1.6864   -2.1463 H   0  0  0  0  0  0  0  0  0  0  0  0
   -2.6902    2.9787    0.5271 H   0  0  0  0  0  0  0  0  0  0  0  0
   -1.6434    2.4326   -0.7479 H   0  0  0  0  0  0  0  0  0  0  0  0
   -3.3845    1.0569    1.1613 H   0  0  0  0  0  0  0  0  0  0  0  0
   -0.2909    0.4407    3.2265 H   0  0  0  0  0  0  0  0  0  0  0  0
   -2.3835   -1.3237    2.6289 H   0  0  0  0  0  0  0  0  0  0  0  0
    0.0591    2.3620    1.3252 H   0  0  0  0  0  0  0  0  0  0  0  0
    1.1775   -2.4791    2.1030 H   0  0  0  0  0  0  0  0  0  0  0  0
    0.2590   -2.8011    0.6070 H   0  0  0  0  0  0  0  0  0  0  0  0
   -0.5884   -2.4541    2.2035 H   0  0  0  0  0  0  0  0  0  0  0  0
  1  2  1  0
  2  3  1  0
  2  4  1  0
  4  5  1  0
  3  6  1  0
  5  6  1  0
  6  7  1  0
  7  8  1  0
  8  9  1  0
  8 10  1  0
 10 11  1  0
 11 12  1  0
 11 13  1  0
 13 14  1  0
 14 15  1  0
 15 16  1  0
 16 17  1  0
 13 18  1  0
 17 18  1  0
 18 19  1  0
 19 20  1  0
 19 21  1  0
 10 22  1  0
 19 22  1  0
 22 23  1  0
 24 25  1  0
 25 26  1  0
 25 27  1  0
 27 28  1  0
 26 29  1  0
 28 29  1  0
 29 30  1  0
 30 31  1  0
 31 32  1  0
 31 33  1  0
 33 34  1  0
 34 35  1  0
 34 36  1  0
 36 37  1  0
 37 38  1  0
 38 39  1  0
 39 40  1  0
 36 41  1  0
 40 41  1  0
 41 42  1  0
 42 33  1  0
 42 43  1  0
 42 44  1  0
 33 45  1  1
 42 45  1  0
 45 46  1  0
  1 47  1  0
  1 48  1  0
  1 49  1  0
  2 50  1  0
  4 51  1  0
  4 52  1  0
  5 53  1  0
  6 54  1  0
  7 55  1  0
  8 56  1  1
  9 57  1  0
 10 58  1  6
 11 59  1  1
 12 60  1  0
 13 61  1  6
 14 62  1  0
 14 63  1  0
 15 64  1  0
 15 65  1  0
 16 66  1  0
 16 67  1  0
 17 68  1  0
 17 69  1  0
 18 70  1  1
 20 71  1  0
 21 72  1  0
 23 73  1  0
 23 74  1  0
 23 75  1  0
 24 76  1  0
 24 77  1  0
 24 78  1  0
 25 79  1  0
 27 80  1  0
 27 81  1  0
 28 82  1  0
 29 83  1  1
 30 84  1  0
 31 85  1  1
 32 86  1  0
 34 87  1  1
 35 88  1  0
 36 89  1  6
 37 90  1  0
 37 91  1  0
 38 92  1  0
 38 93  1  0
 39 94  1  0
 39 95  1  0
 40 96  1  0
 40 97  1  0
 41 98  1  1
 42 99  1  0
 43100  1  0
 44101  1  0
 46102  1  0
 46103  1  0
 46104  1  0
M  END
>  <PDBID>  (1) 
4O1Z

>  <PDB ID>  (1) 
4O1Z

>  <Generic Name>  (1) 
Meloxicam

>  <Brand Name>  (1) 
Act Meloxicam#Apo-meloxicam#Auro-meloxicam#Ava-meloxicam#Comfort Pac With Meloxicam#Dom-meloxicam#Meloxicam#Mobic#Mobicox#Mylan-meloxicam#Nu-meloxicam#PHL-meloxicam#PMS-meloxicam#Ratio-meloxicam#Teva-meloxicam#Trepoxicam-7.5#Vivlodex#Achefree#Acticam#Aflamid#Afloxx#Aglan#Ainecox#Aldoron#Alentum#Algiflex#Aliviodol#Anaxicam#Anposel#Antrend#Aponip#Areloger#Aremil#Armex#Arrox#Arsitec#Artex#Arthrobic#Arthrox#Articam#Artipro#Artriclox#Artrifilm#Artriflam#Artrilom#Artrilox#Artrox#Aspicam#Atiflam#Atrozan#Auroxicam#Axius

>  <DrugBank ID>  (1) 
DB00814

>  <ATC Codes>  (1) 
M01AC56#M01AC06

>  <Ligand ID>  (1) 
MXM

>  <Target Name>  (1) 
Prostaglandin G/H synthase 2

>  <UniProt ID>  (1) 
P35354

>  <PDB ID.1>  (1) 
4O1Z

>  <Seq. Identity>  (1) 
61%

$$$$
