PDB_DB00293_05
     RDKit          3D

296304  0  0  0  0  0  0  0  0999 V2000
   -6.7329   -1.4302    0.7623 N   0  0  0  0  0  0  0  0  0  0  0  0
   -7.7084   -0.8315   -0.0940 C   0  0  0  0  0  0  0  0  0  0  0  0
   -8.9162   -0.3926    0.7300 C   0  0  0  0  0  0  0  0  0  0  0  0
   -7.2119    0.3425   -0.7738 N   0  0  0  0  0  0  0  0  0  0  0  0
   -5.9989    0.8512   -0.1476 C   0  0  0  0  0  0  0  0  0  0  0  0
   -6.2079    1.3164    1.1252 O   0  0  0  0  0  0  0  0  0  0  0  0
   -4.8715   -0.1544   -0.2543 C   0  0  0  0  0  0  0  0  0  0  0  0
   -3.7599    0.3185    0.6336 C   0  0  0  0  0  0  0  0  0  0  0  0
   -2.6458   -0.6819    0.7909 C   0  0  0  0  0  0  0  0  0  0  0  0
   -3.1143   -2.0916    0.5021 C   0  0  0  0  0  0  0  0  0  0  0  0
   -4.4974   -2.2220    1.0992 C   0  0  0  0  0  0  0  0  0  0  0  0
   -5.4271   -1.4935    0.1520 C   0  0  0  0  0  0  0  0  0  0  0  0
   -1.5146   -0.4167   -0.1748 C   0  0  0  0  0  0  0  0  0  0  0  0
   -0.9217    0.8814   -0.0092 N   0  0  0  0  0  0  0  0  0  0  0  0
    2.8017    1.6936   -1.2357 C   0  0  0  0  0  0  0  0  0  0  0  0
    1.7299    0.4123   -0.4616 S   0  0  0  0  0  0  0  0  0  0  0  0
    0.1150    1.1669   -0.9209 C   0  0  0  0  0  0  0  0  0  0  0  0
    0.5477    2.6006   -0.9918 C   0  0  0  0  0  0  0  0  0  0  0  0
    1.7409    2.5126   -1.9600 C   0  0  0  0  0  0  0  0  0  0  0  0
    3.7220    1.0568   -2.2467 C   0  0  0  0  0  0  0  0  0  0  0  0
    4.5090    2.0332   -2.8131 O   0  0  0  0  0  0  0  0  0  0  0  0
    4.4248   -0.0420   -1.6686 N   0  0  0  0  0  0  0  0  0  0  0  0
    5.3081    0.3314   -0.5614 C   0  0  1  0  0  0  0  0  0  0  0  0
    5.4798   -0.9344    0.2378 C   0  0  0  0  0  0  0  0  0  0  0  0
    6.3608   -0.7793    1.4338 C   0  0  0  0  0  0  0  0  0  0  0  0
    6.4363   -2.1026    2.2135 C   0  0  0  0  0  0  0  0  0  0  0  0
    7.2554   -1.9636    3.3279 O   0  0  0  0  0  0  0  0  0  0  0  0
    6.9499   -3.1039    1.4079 O   0  0  0  0  0  0  0  0  0  0  0  0
    6.6280    0.8127   -1.0549 C   0  0  0  0  0  0  0  0  0  0  0  0
    7.4949    1.2242   -0.0574 O   0  0  0  0  0  0  0  0  0  0  0  0
    7.2633   -0.2333   -1.7451 O   0  0  0  0  0  0  0  0  0  0  0  0
   -0.6647    1.2284    1.3575 C   0  0  0  0  0  0  0  0  0  0  0  0
   -6.7329   -1.4302    0.7623 N   0  0  0  0  0  0  0  0  0  0  0  0
   -7.7084   -0.8315   -0.0940 C   0  0  0  0  0  0  0  0  0  0  0  0
   -8.9162   -0.3926    0.7300 C   0  0  0  0  0  0  0  0  0  0  0  0
   -7.2119    0.3425   -0.7738 N   0  0  0  0  0  0  0  0  0  0  0  0
   -5.9989    0.8512   -0.1476 C   0  0  0  0  0  0  0  0  0  0  0  0
   -6.2079    1.3164    1.1252 O   0  0  0  0  0  0  0  0  0  0  0  0
   -4.8715   -0.1544   -0.2543 C   0  0  0  0  0  0  0  0  0  0  0  0
   -3.7599    0.3185    0.6336 C   0  0  0  0  0  0  0  0  0  0  0  0
   -2.6458   -0.6819    0.7909 C   0  0  0  0  0  0  0  0  0  0  0  0
   -3.1143   -2.0916    0.5021 C   0  0  0  0  0  0  0  0  0  0  0  0
   -4.4974   -2.2220    1.0992 C   0  0  0  0  0  0  0  0  0  0  0  0
   -5.4271   -1.4935    0.1520 C   0  0  0  0  0  0  0  0  0  0  0  0
   -1.5146   -0.4167   -0.1748 C   0  0  0  0  0  0  0  0  0  0  0  0
   -0.9217    0.8814   -0.0092 N   0  0  0  0  0  0  0  0  0  0  0  0
    2.8017    1.6936   -1.2357 C   0  0  0  0  0  0  0  0  0  0  0  0
    1.7299    0.4123   -0.4616 S   0  0  0  0  0  0  0  0  0  0  0  0
    0.1150    1.1669   -0.9209 C   0  0  0  0  0  0  0  0  0  0  0  0
    0.5477    2.6006   -0.9918 C   0  0  0  0  0  0  0  0  0  0  0  0
    1.7409    2.5126   -1.9600 C   0  0  0  0  0  0  0  0  0  0  0  0
    3.7220    1.0568   -2.2467 C   0  0  0  0  0  0  0  0  0  0  0  0
    4.5090    2.0332   -2.8131 O   0  0  0  0  0  0  0  0  0  0  0  0
    4.4248   -0.0420   -1.6686 N   0  0  0  0  0  0  0  0  0  0  0  0
    5.3081    0.3314   -0.5614 C   0  0  1  0  0  0  0  0  0  0  0  0
    5.4798   -0.9344    0.2378 C   0  0  0  0  0  0  0  0  0  0  0  0
    6.3608   -0.7793    1.4338 C   0  0  0  0  0  0  0  0  0  0  0  0
    6.4363   -2.1026    2.2135 C   0  0  0  0  0  0  0  0  0  0  0  0
    7.2554   -1.9636    3.3279 O   0  0  0  0  0  0  0  0  0  0  0  0
    6.9499   -3.1039    1.4079 O   0  0  0  0  0  0  0  0  0  0  0  0
    6.6280    0.8127   -1.0549 C   0  0  0  0  0  0  0  0  0  0  0  0
    7.4949    1.2242   -0.0574 O   0  0  0  0  0  0  0  0  0  0  0  0
    7.2633   -0.2333   -1.7451 O   0  0  0  0  0  0  0  0  0  0  0  0
   -0.6647    1.2284    1.3575 C   0  0  0  0  0  0  0  0  0  0  0  0
   -6.7329   -1.4302    0.7623 N   0  0  0  0  0  0  0  0  0  0  0  0
   -7.7084   -0.8315   -0.0940 C   0  0  0  0  0  0  0  0  0  0  0  0
   -8.9162   -0.3926    0.7300 C   0  0  0  0  0  0  0  0  0  0  0  0
   -7.2119    0.3425   -0.7738 N   0  0  0  0  0  0  0  0  0  0  0  0
   -5.9989    0.8512   -0.1476 C   0  0  0  0  0  0  0  0  0  0  0  0
   -6.2079    1.3164    1.1252 O   0  0  0  0  0  0  0  0  0  0  0  0
   -4.8715   -0.1544   -0.2543 C   0  0  0  0  0  0  0  0  0  0  0  0
   -3.7599    0.3185    0.6336 C   0  0  0  0  0  0  0  0  0  0  0  0
   -2.6458   -0.6819    0.7909 C   0  0  0  0  0  0  0  0  0  0  0  0
   -3.1143   -2.0916    0.5021 C   0  0  0  0  0  0  0  0  0  0  0  0
   -4.4974   -2.2220    1.0992 C   0  0  0  0  0  0  0  0  0  0  0  0
   -5.4271   -1.4935    0.1520 C   0  0  0  0  0  0  0  0  0  0  0  0
   -1.5146   -0.4167   -0.1748 C   0  0  0  0  0  0  0  0  0  0  0  0
   -0.9217    0.8814   -0.0092 N   0  0  0  0  0  0  0  0  0  0  0  0
    2.8017    1.6936   -1.2357 C   0  0  0  0  0  0  0  0  0  0  0  0
    1.7299    0.4123   -0.4616 S   0  0  0  0  0  0  0  0  0  0  0  0
    0.1150    1.1669   -0.9209 C   0  0  0  0  0  0  0  0  0  0  0  0
    0.5477    2.6006   -0.9918 C   0  0  0  0  0  0  0  0  0  0  0  0
    1.7409    2.5126   -1.9600 C   0  0  0  0  0  0  0  0  0  0  0  0
    3.7220    1.0568   -2.2467 C   0  0  0  0  0  0  0  0  0  0  0  0
    4.5090    2.0332   -2.8131 O   0  0  0  0  0  0  0  0  0  0  0  0
    4.4248   -0.0420   -1.6686 N   0  0  0  0  0  0  0  0  0  0  0  0
    5.3081    0.3314   -0.5614 C   0  0  1  0  0  0  0  0  0  0  0  0
    5.4798   -0.9344    0.2378 C   0  0  0  0  0  0  0  0  0  0  0  0
    6.3608   -0.7793    1.4338 C   0  0  0  0  0  0  0  0  0  0  0  0
    6.4363   -2.1026    2.2135 C   0  0  0  0  0  0  0  0  0  0  0  0
    7.2554   -1.9636    3.3279 O   0  0  0  0  0  0  0  0  0  0  0  0
    6.9499   -3.1039    1.4079 O   0  0  0  0  0  0  0  0  0  0  0  0
    6.6280    0.8127   -1.0549 C   0  0  0  0  0  0  0  0  0  0  0  0
    7.4949    1.2242   -0.0574 O   0  0  0  0  0  0  0  0  0  0  0  0
    7.2633   -0.2333   -1.7451 O   0  0  0  0  0  0  0  0  0  0  0  0
   -0.6647    1.2284    1.3575 C   0  0  0  0  0  0  0  0  0  0  0  0
   -6.7329   -1.4302    0.7623 N   0  0  0  0  0  0  0  0  0  0  0  0
   -7.7084   -0.8315   -0.0940 C   0  0  0  0  0  0  0  0  0  0  0  0
   -8.9162   -0.3926    0.7300 C   0  0  0  0  0  0  0  0  0  0  0  0
   -7.2119    0.3425   -0.7738 N   0  0  0  0  0  0  0  0  0  0  0  0
   -5.9989    0.8512   -0.1476 C   0  0  0  0  0  0  0  0  0  0  0  0
   -6.2079    1.3164    1.1252 O   0  0  0  0  0  0  0  0  0  0  0  0
   -4.8715   -0.1544   -0.2543 C   0  0  0  0  0  0  0  0  0  0  0  0
   -3.7599    0.3185    0.6336 C   0  0  0  0  0  0  0  0  0  0  0  0
   -2.6458   -0.6819    0.7909 C   0  0  0  0  0  0  0  0  0  0  0  0
   -3.1143   -2.0916    0.5021 C   0  0  0  0  0  0  0  0  0  0  0  0
   -4.4974   -2.2220    1.0992 C   0  0  0  0  0  0  0  0  0  0  0  0
   -5.4271   -1.4935    0.1520 C   0  0  0  0  0  0  0  0  0  0  0  0
   -1.5146   -0.4167   -0.1748 C   0  0  0  0  0  0  0  0  0  0  0  0
   -0.9217    0.8814   -0.0092 N   0  0  0  0  0  0  0  0  0  0  0  0
    2.8017    1.6936   -1.2357 C   0  0  0  0  0  0  0  0  0  0  0  0
    1.7299    0.4123   -0.4616 S   0  0  0  0  0  0  0  0  0  0  0  0
    0.1150    1.1669   -0.9209 C   0  0  0  0  0  0  0  0  0  0  0  0
    0.5477    2.6006   -0.9918 C   0  0  0  0  0  0  0  0  0  0  0  0
    1.7409    2.5126   -1.9600 C   0  0  0  0  0  0  0  0  0  0  0  0
    3.7220    1.0568   -2.2467 C   0  0  0  0  0  0  0  0  0  0  0  0
    4.5090    2.0332   -2.8131 O   0  0  0  0  0  0  0  0  0  0  0  0
    4.4248   -0.0420   -1.6686 N   0  0  0  0  0  0  0  0  0  0  0  0
    5.3081    0.3314   -0.5614 C   0  0  1  0  0  0  0  0  0  0  0  0
    5.4798   -0.9344    0.2378 C   0  0  0  0  0  0  0  0  0  0  0  0
    6.3608   -0.7793    1.4338 C   0  0  0  0  0  0  0  0  0  0  0  0
    6.4363   -2.1026    2.2135 C   0  0  0  0  0  0  0  0  0  0  0  0
    7.2554   -1.9636    3.3279 O   0  0  0  0  0  0  0  0  0  0  0  0
    6.9499   -3.1039    1.4079 O   0  0  0  0  0  0  0  0  0  0  0  0
    6.6280    0.8127   -1.0549 C   0  0  0  0  0  0  0  0  0  0  0  0
    7.4949    1.2242   -0.0574 O   0  0  0  0  0  0  0  0  0  0  0  0
    7.2633   -0.2333   -1.7451 O   0  0  0  0  0  0  0  0  0  0  0  0
   -0.6647    1.2284    1.3575 C   0  0  0  0  0  0  0  0  0  0  0  0
   -7.0305   -2.4188    0.9409 H   0  0  0  0  0  0  0  0  0  0  0  0
   -8.0894   -1.5553   -0.8525 H   0  0  0  0  0  0  0  0  0  0  0  0
   -8.8939   -0.8713    1.7334 H   0  0  0  0  0  0  0  0  0  0  0  0
   -9.8655   -0.7174    0.2551 H   0  0  0  0  0  0  0  0  0  0  0  0
   -8.9373    0.7197    0.8238 H   0  0  0  0  0  0  0  0  0  0  0  0
   -6.9215    0.0718   -1.7611 H   0  0  0  0  0  0  0  0  0  0  0  0
   -5.7032    1.7457   -0.7624 H   0  0  0  0  0  0  0  0  0  0  0  0
   -6.5042    0.6841    1.7954 H   0  0  0  0  0  0  0  0  0  0  0  0
   -4.5404   -0.1582   -1.3127 H   0  0  0  0  0  0  0  0  0  0  0  0
   -4.1549    0.6422    1.6265 H   0  0  0  0  0  0  0  0  0  0  0  0
   -3.3178    1.2279    0.1691 H   0  0  0  0  0  0  0  0  0  0  0  0
   -2.3351   -0.6625    1.8556 H   0  0  0  0  0  0  0  0  0  0  0  0
   -3.1984   -2.2424   -0.6114 H   0  0  0  0  0  0  0  0  0  0  0  0
   -2.4007   -2.8216    0.9387 H   0  0  0  0  0  0  0  0  0  0  0  0
   -4.7695   -3.2868    1.1330 H   0  0  0  0  0  0  0  0  0  0  0  0
   -4.5238   -1.7131    2.0773 H   0  0  0  0  0  0  0  0  0  0  0  0
   -5.5153   -2.1179   -0.7586 H   0  0  0  0  0  0  0  0  0  0  0  0
   -0.7177   -1.1785   -0.0771 H   0  0  0  0  0  0  0  0  0  0  0  0
   -1.9230   -0.4950   -1.2018 H   0  0  0  0  0  0  0  0  0  0  0  0
    3.2908    2.3245   -0.4994 H   0  0  0  0  0  0  0  0  0  0  0  0
   -0.1115    0.8085   -1.9242 H   0  0  0  0  0  0  0  0  0  0  0  0
   -0.1756    3.2638   -1.4617 H   0  0  0  0  0  0  0  0  0  0  0  0
    0.9633    3.0005   -0.0570 H   0  0  0  0  0  0  0  0  0  0  0  0
    1.4105    1.9049   -2.8430 H   0  0  0  0  0  0  0  0  0  0  0  0
    2.1026    3.4998   -2.2428 H   0  0  0  0  0  0  0  0  0  0  0  0
    3.0588    0.6800   -3.0688 H   0  0  0  0  0  0  0  0  0  0  0  0
    4.4492    2.8509   -2.2637 H   0  0  0  0  0  0  0  0  0  0  0  0
    4.8578   -0.7085   -2.3185 H   0  0  0  0  0  0  0  0  0  0  0  0
    4.7693    1.0553    0.0642 H   0  0  0  0  0  0  0  0  0  0  0  0
    4.4948   -1.3835    0.5122 H   0  0  0  0  0  0  0  0  0  0  0  0
    5.9649   -1.7389   -0.3961 H   0  0  0  0  0  0  0  0  0  0  0  0
    7.4270   -0.6606    1.0662 H   0  0  0  0  0  0  0  0  0  0  0  0
    6.0844    0.0120    2.1366 H   0  0  0  0  0  0  0  0  0  0  0  0
    5.4236   -2.3540    2.5891 H   0  0  0  0  0  0  0  0  0  0  0  0
    8.2016   -1.8516    3.0682 H   0  0  0  0  0  0  0  0  0  0  0  0
    7.9195   -3.1992    1.5550 H   0  0  0  0  0  0  0  0  0  0  0  0
    6.5230    1.7094   -1.7359 H   0  0  0  0  0  0  0  0  0  0  0  0
    8.0728    1.9833   -0.3335 H   0  0  0  0  0  0  0  0  0  0  0  0
    7.6377    0.1522   -2.5786 H   0  0  0  0  0  0  0  0  0  0  0  0
    0.3597    1.6981    1.3796 H   0  0  0  0  0  0  0  0  0  0  0  0
   -1.4206    1.9079    1.7824 H   0  0  0  0  0  0  0  0  0  0  0  0
   -0.5362    0.2838    1.9338 H   0  0  0  0  0  0  0  0  0  0  0  0
   -7.0305   -2.4188    0.9409 H   0  0  0  0  0  0  0  0  0  0  0  0
   -8.0894   -1.5553   -0.8525 H   0  0  0  0  0  0  0  0  0  0  0  0
   -8.8939   -0.8713    1.7334 H   0  0  0  0  0  0  0  0  0  0  0  0
   -9.8655   -0.7174    0.2551 H   0  0  0  0  0  0  0  0  0  0  0  0
   -8.9373    0.7197    0.8238 H   0  0  0  0  0  0  0  0  0  0  0  0
   -6.9215    0.0718   -1.7611 H   0  0  0  0  0  0  0  0  0  0  0  0
   -5.7032    1.7457   -0.7624 H   0  0  0  0  0  0  0  0  0  0  0  0
   -6.5042    0.6841    1.7954 H   0  0  0  0  0  0  0  0  0  0  0  0
   -4.5404   -0.1582   -1.3127 H   0  0  0  0  0  0  0  0  0  0  0  0
   -4.1549    0.6422    1.6265 H   0  0  0  0  0  0  0  0  0  0  0  0
   -3.3178    1.2279    0.1691 H   0  0  0  0  0  0  0  0  0  0  0  0
   -2.3351   -0.6625    1.8556 H   0  0  0  0  0  0  0  0  0  0  0  0
   -3.1984   -2.2424   -0.6114 H   0  0  0  0  0  0  0  0  0  0  0  0
   -2.4007   -2.8216    0.9387 H   0  0  0  0  0  0  0  0  0  0  0  0
   -4.7695   -3.2868    1.1330 H   0  0  0  0  0  0  0  0  0  0  0  0
   -4.5238   -1.7131    2.0773 H   0  0  0  0  0  0  0  0  0  0  0  0
   -5.5153   -2.1179   -0.7586 H   0  0  0  0  0  0  0  0  0  0  0  0
   -0.7177   -1.1785   -0.0771 H   0  0  0  0  0  0  0  0  0  0  0  0
   -1.9230   -0.4950   -1.2018 H   0  0  0  0  0  0  0  0  0  0  0  0
    3.2908    2.3245   -0.4994 H   0  0  0  0  0  0  0  0  0  0  0  0
   -0.1115    0.8085   -1.9242 H   0  0  0  0  0  0  0  0  0  0  0  0
   -0.1756    3.2638   -1.4617 H   0  0  0  0  0  0  0  0  0  0  0  0
    0.9633    3.0005   -0.0570 H   0  0  0  0  0  0  0  0  0  0  0  0
    1.4105    1.9049   -2.8430 H   0  0  0  0  0  0  0  0  0  0  0  0
    2.1026    3.4998   -2.2428 H   0  0  0  0  0  0  0  0  0  0  0  0
    3.0588    0.6800   -3.0688 H   0  0  0  0  0  0  0  0  0  0  0  0
    4.4492    2.8509   -2.2637 H   0  0  0  0  0  0  0  0  0  0  0  0
    4.8578   -0.7085   -2.3185 H   0  0  0  0  0  0  0  0  0  0  0  0
    4.7693    1.0553    0.0642 H   0  0  0  0  0  0  0  0  0  0  0  0
    4.4948   -1.3835    0.5122 H   0  0  0  0  0  0  0  0  0  0  0  0
    5.9649   -1.7389   -0.3961 H   0  0  0  0  0  0  0  0  0  0  0  0
    7.4270   -0.6606    1.0662 H   0  0  0  0  0  0  0  0  0  0  0  0
    6.0844    0.0120    2.1366 H   0  0  0  0  0  0  0  0  0  0  0  0
    5.4236   -2.3540    2.5891 H   0  0  0  0  0  0  0  0  0  0  0  0
    8.2016   -1.8516    3.0682 H   0  0  0  0  0  0  0  0  0  0  0  0
    7.9195   -3.1992    1.5550 H   0  0  0  0  0  0  0  0  0  0  0  0
    6.5230    1.7094   -1.7359 H   0  0  0  0  0  0  0  0  0  0  0  0
    8.0728    1.9833   -0.3335 H   0  0  0  0  0  0  0  0  0  0  0  0
    7.6377    0.1522   -2.5786 H   0  0  0  0  0  0  0  0  0  0  0  0
    0.3597    1.6981    1.3796 H   0  0  0  0  0  0  0  0  0  0  0  0
   -1.4206    1.9079    1.7824 H   0  0  0  0  0  0  0  0  0  0  0  0
   -0.5362    0.2838    1.9338 H   0  0  0  0  0  0  0  0  0  0  0  0
   -7.0305   -2.4188    0.9409 H   0  0  0  0  0  0  0  0  0  0  0  0
   -8.0894   -1.5553   -0.8525 H   0  0  0  0  0  0  0  0  0  0  0  0
   -8.8939   -0.8713    1.7334 H   0  0  0  0  0  0  0  0  0  0  0  0
   -9.8655   -0.7174    0.2551 H   0  0  0  0  0  0  0  0  0  0  0  0
   -8.9373    0.7197    0.8238 H   0  0  0  0  0  0  0  0  0  0  0  0
   -6.9215    0.0718   -1.7611 H   0  0  0  0  0  0  0  0  0  0  0  0
   -5.7032    1.7457   -0.7624 H   0  0  0  0  0  0  0  0  0  0  0  0
   -6.5042    0.6841    1.7954 H   0  0  0  0  0  0  0  0  0  0  0  0
   -4.5404   -0.1582   -1.3127 H   0  0  0  0  0  0  0  0  0  0  0  0
   -4.1549    0.6422    1.6265 H   0  0  0  0  0  0  0  0  0  0  0  0
   -3.3178    1.2279    0.1691 H   0  0  0  0  0  0  0  0  0  0  0  0
   -2.3351   -0.6625    1.8556 H   0  0  0  0  0  0  0  0  0  0  0  0
   -3.1984   -2.2424   -0.6114 H   0  0  0  0  0  0  0  0  0  0  0  0
   -2.4007   -2.8216    0.9387 H   0  0  0  0  0  0  0  0  0  0  0  0
   -4.7695   -3.2868    1.1330 H   0  0  0  0  0  0  0  0  0  0  0  0
   -4.5238   -1.7131    2.0773 H   0  0  0  0  0  0  0  0  0  0  0  0
   -5.5153   -2.1179   -0.7586 H   0  0  0  0  0  0  0  0  0  0  0  0
   -0.7177   -1.1785   -0.0771 H   0  0  0  0  0  0  0  0  0  0  0  0
   -1.9230   -0.4950   -1.2018 H   0  0  0  0  0  0  0  0  0  0  0  0
    3.2908    2.3245   -0.4994 H   0  0  0  0  0  0  0  0  0  0  0  0
   -0.1115    0.8085   -1.9242 H   0  0  0  0  0  0  0  0  0  0  0  0
   -0.1756    3.2638   -1.4617 H   0  0  0  0  0  0  0  0  0  0  0  0
    0.9633    3.0005   -0.0570 H   0  0  0  0  0  0  0  0  0  0  0  0
    1.4105    1.9049   -2.8430 H   0  0  0  0  0  0  0  0  0  0  0  0
    2.1026    3.4998   -2.2428 H   0  0  0  0  0  0  0  0  0  0  0  0
    3.0588    0.6800   -3.0688 H   0  0  0  0  0  0  0  0  0  0  0  0
    4.4492    2.8509   -2.2637 H   0  0  0  0  0  0  0  0  0  0  0  0
    4.8578   -0.7085   -2.3185 H   0  0  0  0  0  0  0  0  0  0  0  0
    4.7693    1.0553    0.0642 H   0  0  0  0  0  0  0  0  0  0  0  0
    4.4948   -1.3835    0.5122 H   0  0  0  0  0  0  0  0  0  0  0  0
    5.9649   -1.7389   -0.3961 H   0  0  0  0  0  0  0  0  0  0  0  0
    7.4270   -0.6606    1.0662 H   0  0  0  0  0  0  0  0  0  0  0  0
    6.0844    0.0120    2.1366 H   0  0  0  0  0  0  0  0  0  0  0  0
    5.4236   -2.3540    2.5891 H   0  0  0  0  0  0  0  0  0  0  0  0
    8.2016   -1.8516    3.0682 H   0  0  0  0  0  0  0  0  0  0  0  0
    7.9195   -3.1992    1.5550 H   0  0  0  0  0  0  0  0  0  0  0  0
    6.5230    1.7094   -1.7359 H   0  0  0  0  0  0  0  0  0  0  0  0
    8.0728    1.9833   -0.3335 H   0  0  0  0  0  0  0  0  0  0  0  0
    7.6377    0.1522   -2.5786 H   0  0  0  0  0  0  0  0  0  0  0  0
    0.3597    1.6981    1.3796 H   0  0  0  0  0  0  0  0  0  0  0  0
   -1.4206    1.9079    1.7824 H   0  0  0  0  0  0  0  0  0  0  0  0
   -0.5362    0.2838    1.9338 H   0  0  0  0  0  0  0  0  0  0  0  0
   -7.0305   -2.4188    0.9409 H   0  0  0  0  0  0  0  0  0  0  0  0
   -8.0894   -1.5553   -0.8525 H   0  0  0  0  0  0  0  0  0  0  0  0
   -8.8939   -0.8713    1.7334 H   0  0  0  0  0  0  0  0  0  0  0  0
   -9.8655   -0.7174    0.2551 H   0  0  0  0  0  0  0  0  0  0  0  0
   -8.9373    0.7197    0.8238 H   0  0  0  0  0  0  0  0  0  0  0  0
   -6.9215    0.0718   -1.7611 H   0  0  0  0  0  0  0  0  0  0  0  0
   -5.7032    1.7457   -0.7624 H   0  0  0  0  0  0  0  0  0  0  0  0
   -6.5042    0.6841    1.7954 H   0  0  0  0  0  0  0  0  0  0  0  0
   -4.5404   -0.1582   -1.3127 H   0  0  0  0  0  0  0  0  0  0  0  0
   -4.1549    0.6422    1.6265 H   0  0  0  0  0  0  0  0  0  0  0  0
   -3.3178    1.2279    0.1691 H   0  0  0  0  0  0  0  0  0  0  0  0
   -2.3351   -0.6625    1.8556 H   0  0  0  0  0  0  0  0  0  0  0  0
   -3.1984   -2.2424   -0.6114 H   0  0  0  0  0  0  0  0  0  0  0  0
   -2.4007   -2.8216    0.9387 H   0  0  0  0  0  0  0  0  0  0  0  0
   -4.7695   -3.2868    1.1330 H   0  0  0  0  0  0  0  0  0  0  0  0
   -4.5238   -1.7131    2.0773 H   0  0  0  0  0  0  0  0  0  0  0  0
   -5.5153   -2.1179   -0.7586 H   0  0  0  0  0  0  0  0  0  0  0  0
   -0.7177   -1.1785   -0.0771 H   0  0  0  0  0  0  0  0  0  0  0  0
   -1.9230   -0.4950   -1.2018 H   0  0  0  0  0  0  0  0  0  0  0  0
    3.2908    2.3245   -0.4994 H   0  0  0  0  0  0  0  0  0  0  0  0
   -0.1115    0.8085   -1.9242 H   0  0  0  0  0  0  0  0  0  0  0  0
   -0.1756    3.2638   -1.4617 H   0  0  0  0  0  0  0  0  0  0  0  0
    0.9633    3.0005   -0.0570 H   0  0  0  0  0  0  0  0  0  0  0  0
    1.4105    1.9049   -2.8430 H   0  0  0  0  0  0  0  0  0  0  0  0
    2.1026    3.4998   -2.2428 H   0  0  0  0  0  0  0  0  0  0  0  0
    3.0588    0.6800   -3.0688 H   0  0  0  0  0  0  0  0  0  0  0  0
    4.4492    2.8509   -2.2637 H   0  0  0  0  0  0  0  0  0  0  0  0
    4.8578   -0.7085   -2.3185 H   0  0  0  0  0  0  0  0  0  0  0  0
    4.7693    1.0553    0.0642 H   0  0  0  0  0  0  0  0  0  0  0  0
    4.4948   -1.3835    0.5122 H   0  0  0  0  0  0  0  0  0  0  0  0
    5.9649   -1.7389   -0.3961 H   0  0  0  0  0  0  0  0  0  0  0  0
    7.4270   -0.6606    1.0662 H   0  0  0  0  0  0  0  0  0  0  0  0
    6.0844    0.0120    2.1366 H   0  0  0  0  0  0  0  0  0  0  0  0
    5.4236   -2.3540    2.5891 H   0  0  0  0  0  0  0  0  0  0  0  0
    8.2016   -1.8516    3.0682 H   0  0  0  0  0  0  0  0  0  0  0  0
    7.9195   -3.1992    1.5550 H   0  0  0  0  0  0  0  0  0  0  0  0
    6.5230    1.7094   -1.7359 H   0  0  0  0  0  0  0  0  0  0  0  0
    8.0728    1.9833   -0.3335 H   0  0  0  0  0  0  0  0  0  0  0  0
    7.6377    0.1522   -2.5786 H   0  0  0  0  0  0  0  0  0  0  0  0
    0.3597    1.6981    1.3796 H   0  0  0  0  0  0  0  0  0  0  0  0
   -1.4206    1.9079    1.7824 H   0  0  0  0  0  0  0  0  0  0  0  0
   -0.5362    0.2838    1.9338 H   0  0  0  0  0  0  0  0  0  0  0  0
  1  2  1  0
  2  3  1  0
  2  4  1  0
  4  5  1  0
  5  6  1  0
  5  7  1  0
  7  8  1  0
  8  9  1  0
  9 10  1  0
 10 11  1  0
  1 12  1  0
  7 12  1  0
 11 12  1  0
  9 13  1  0
 13 14  1  0
 15 16  1  0
 14 17  1  0
 16 17  1  0
 17 18  1  0
 15 19  1  0
 18 19  1  0
 15 20  1  0
 20 21  1  0
 20 22  1  0
 22 23  1  0
 23 24  1  0
 24 25  1  0
 25 26  1  0
 26 27  1  0
 26 28  1  0
 23 29  1  0
 29 30  1  0
 29 31  1  0
 14 32  1  0
 33 34  1  0
 34 35  1  0
 34 36  1  0
 36 37  1  0
 37 38  1  0
 37 39  1  0
 39 40  1  0
 40 41  1  0
 41 42  1  0
 42 43  1  0
 33 44  1  0
 39 44  1  0
 43 44  1  0
 41 45  1  0
 45 46  1  0
 47 48  1  0
 46 49  1  0
 48 49  1  0
 49 50  1  0
 47 51  1  0
 50 51  1  0
 47 52  1  0
 52 53  1  0
 52 54  1  0
 54 55  1  0
 55 56  1  0
 56 57  1  0
 57 58  1  0
 58 59  1  0
 58 60  1  0
 55 61  1  0
 61 62  1  0
 61 63  1  0
 46 64  1  0
 65 66  1  0
 66 67  1  0
 66 68  1  0
 68 69  1  0
 69 70  1  0
 69 71  1  0
 71 72  1  0
 72 73  1  0
 73 74  1  0
 74 75  1  0
 65 76  1  0
 71 76  1  0
 75 76  1  0
 73 77  1  0
 77 78  1  0
 79 80  1  0
 78 81  1  0
 80 81  1  0
 81 82  1  0
 79 83  1  0
 82 83  1  0
 79 84  1  0
 84 85  1  0
 84 86  1  0
 86 87  1  0
 87 88  1  0
 88 89  1  0
 89 90  1  0
 90 91  1  0
 90 92  1  0
 87 93  1  0
 93 94  1  0
 93 95  1  0
 78 96  1  0
 97 98  1  0
 98 99  1  0
 98100  1  0
100101  1  0
101102  1  0
101103  1  0
103104  1  0
104105  1  0
105106  1  0
106107  1  0
 97108  1  0
103108  1  0
107108  1  0
105109  1  0
109110  1  0
111112  1  0
110113  1  0
112113  1  0
113114  1  0
111115  1  0
114115  1  0
111116  1  0
116117  1  0
116118  1  0
118119  1  0
119120  1  0
120121  1  0
121122  1  0
122123  1  0
122124  1  0
119125  1  0
125126  1  0
125127  1  0
110128  1  0
  1129  1  0
  2130  1  0
  3131  1  0
  3132  1  0
  3133  1  0
  4134  1  0
  5135  1  0
  6136  1  0
  7137  1  0
  8138  1  0
  8139  1  0
  9140  1  0
 10141  1  0
 10142  1  0
 11143  1  0
 11144  1  0
 12145  1  0
 13146  1  0
 13147  1  0
 15148  1  0
 17149  1  0
 18150  1  0
 18151  1  0
 19152  1  0
 19153  1  0
 20154  1  0
 21155  1  0
 22156  1  0
 23157  1  1
 24158  1  0
 24159  1  0
 25160  1  0
 25161  1  0
 26162  1  0
 27163  1  0
 28164  1  0
 29165  1  0
 30166  1  0
 31167  1  0
 32168  1  0
 32169  1  0
 32170  1  0
 33171  1  0
 34172  1  0
 35173  1  0
 35174  1  0
 35175  1  0
 36176  1  0
 37177  1  0
 38178  1  0
 39179  1  0
 40180  1  0
 40181  1  0
 41182  1  0
 42183  1  0
 42184  1  0
 43185  1  0
 43186  1  0
 44187  1  0
 45188  1  0
 45189  1  0
 47190  1  0
 49191  1  0
 50192  1  0
 50193  1  0
 51194  1  0
 51195  1  0
 52196  1  0
 53197  1  0
 54198  1  0
 55199  1  1
 56200  1  0
 56201  1  0
 57202  1  0
 57203  1  0
 58204  1  0
 59205  1  0
 60206  1  0
 61207  1  0
 62208  1  0
 63209  1  0
 64210  1  0
 64211  1  0
 64212  1  0
 65213  1  0
 66214  1  0
 67215  1  0
 67216  1  0
 67217  1  0
 68218  1  0
 69219  1  0
 70220  1  0
 71221  1  0
 72222  1  0
 72223  1  0
 73224  1  0
 74225  1  0
 74226  1  0
 75227  1  0
 75228  1  0
 76229  1  0
 77230  1  0
 77231  1  0
 79232  1  0
 81233  1  0
 82234  1  0
 82235  1  0
 83236  1  0
 83237  1  0
 84238  1  0
 85239  1  0
 86240  1  0
 87241  1  1
 88242  1  0
 88243  1  0
 89244  1  0
 89245  1  0
 90246  1  0
 91247  1  0
 92248  1  0
 93249  1  0
 94250  1  0
 95251  1  0
 96252  1  0
 96253  1  0
 96254  1  0
 97255  1  0
 98256  1  0
 99257  1  0
 99258  1  0
 99259  1  0
100260  1  0
101261  1  0
102262  1  0
103263  1  0
104264  1  0
104265  1  0
105266  1  0
106267  1  0
106268  1  0
107269  1  0
107270  1  0
108271  1  0
109272  1  0
109273  1  0
111274  1  0
113275  1  0
114276  1  0
114277  1  0
115278  1  0
115279  1  0
116280  1  0
117281  1  0
118282  1  0
119283  1  1
120284  1  0
120285  1  0
121286  1  0
121287  1  0
122288  1  0
123289  1  0
124290  1  0
125291  1  0
126292  1  0
127293  1  0
128294  1  0
128295  1  0
128296  1  0
M  END
>  <PDBID>  (1) 
1HVY

>  <PDB ID>  (1) 
1HVY

>  <Generic Name>  (1) 
Raltitrexed

>  <Brand Name>  (1) 
Tomudex

>  <DrugBank ID>  (1) 
DB00293

>  <ATC Codes>  (1) 
L01BA03

>  <Ligand ID>  (1) 
D16

>  <Target Name>  (1) 
Thymidylate synthase

>  <UniProt ID>  (1) 
P04818

>  <PDB ID.1>  (1) 
1HVY

>  <Seq. Identity>  (1) 
100%

$$$$
