PDB_DB01104_01
     RDKit          3D

 49 51  0  0  0  0  0  0  0  0999 V2000
   -5.2775   -0.3689    1.2033 Cl  0  0  0  0  0  0  0  0  0  0  0  0
   -4.4193   -0.5395   -0.3416 C   0  0  0  0  0  0  0  0  0  0  0  0
   -3.6652    0.7351   -0.5937 C   0  0  0  0  0  0  0  0  0  0  0  0
   -2.9755    0.8182   -2.2102 Cl  0  0  0  0  0  0  0  0  0  0  0  0
   -3.3480   -1.6313   -0.2505 C   0  0  0  0  0  0  0  0  0  0  0  0
   -2.5408   -1.3228    0.9538 C   0  0  0  0  0  0  0  0  0  0  0  0
   -1.6969   -0.0474    0.7982 C   0  0  0  0  0  0  0  0  0  0  0  0
   -2.6749    1.0405    0.5082 C   0  0  0  0  0  0  0  0  0  0  0  0
   -0.5808   -0.2418   -0.1430 C   0  0  1  0  0  0  0  0  0  0  0  0
    0.4551    0.7571   -0.3563 C   0  0  0  0  0  0  0  0  0  0  0  0
    0.1278    2.1960   -0.4536 C   0  0  0  0  0  0  0  0  0  0  0  0
    1.3413    2.9985   -0.9437 C   0  0  0  0  0  0  0  0  0  0  0  0
    2.6099    2.2114   -0.8341 C   0  0  0  0  0  0  0  0  0  0  0  0
    2.6080    1.6362    0.5820 C   0  0  0  0  0  0  0  0  0  0  0  0
    1.6008    0.4885    0.6195 C   0  0  0  0  0  0  0  0  0  0  0  0
    2.3519   -0.7094    0.0895 C   0  0  1  0  0  0  0  0  0  0  0  0
    3.1882   -1.3219    1.0958 N   0  0  0  0  0  0  0  0  0  0  0  0
    3.8635   -2.4382    0.5052 C   0  0  0  0  0  0  0  0  0  0  0  0
    1.4160   -1.7037   -0.5661 C   0  0  0  0  0  0  0  0  0  0  0  0
    0.1095   -1.5809    0.1903 C   0  0  0  0  0  0  0  0  0  0  0  0
   -5.1257   -0.7216   -1.1484 H   0  0  0  0  0  0  0  0  0  0  0  0
   -4.4337    1.5623   -0.5314 H   0  0  0  0  0  0  0  0  0  0  0  0
   -2.7947   -1.5970   -1.2048 H   0  0  0  0  0  0  0  0  0  0  0  0
   -3.8771   -2.5794   -0.0793 H   0  0  0  0  0  0  0  0  0  0  0  0
   -1.9699   -2.1911    1.2619 H   0  0  0  0  0  0  0  0  0  0  0  0
   -3.2545   -1.0887    1.7860 H   0  0  0  0  0  0  0  0  0  0  0  0
   -1.2829    0.1154    1.8115 H   0  0  0  0  0  0  0  0  0  0  0  0
   -2.3152    2.0376    0.3442 H   0  0  0  0  0  0  0  0  0  0  0  0
   -3.3309    1.1195    1.4420 H   0  0  0  0  0  0  0  0  0  0  0  0
   -1.0781   -0.4957   -1.1470 H   0  0  0  0  0  0  0  0  0  0  0  0
    0.9253    0.5124   -1.3721 H   0  0  0  0  0  0  0  0  0  0  0  0
   -0.6290    2.3732   -1.2373 H   0  0  0  0  0  0  0  0  0  0  0  0
   -0.1090    2.6861    0.5110 H   0  0  0  0  0  0  0  0  0  0  0  0
    1.2334    3.3147   -2.0032 H   0  0  0  0  0  0  0  0  0  0  0  0
    1.4816    3.9343   -0.3670 H   0  0  0  0  0  0  0  0  0  0  0  0
    2.7219    1.4490   -1.6086 H   0  0  0  0  0  0  0  0  0  0  0  0
    3.4513    2.9478   -0.8427 H   0  0  0  0  0  0  0  0  0  0  0  0
    3.6029    1.3136    0.9054 H   0  0  0  0  0  0  0  0  0  0  0  0
    2.2914    2.4662    1.2475 H   0  0  0  0  0  0  0  0  0  0  0  0
    1.2744    0.4009    1.6578 H   0  0  0  0  0  0  0  0  0  0  0  0
    3.0274   -0.3490   -0.7122 H   0  0  0  0  0  0  0  0  0  0  0  0
    2.6596   -1.5630    1.9621 H   0  0  0  0  0  0  0  0  0  0  0  0
    4.9769   -2.3929    0.6857 H   0  0  0  0  0  0  0  0  0  0  0  0
    3.7779   -2.4630   -0.6163 H   0  0  0  0  0  0  0  0  0  0  0  0
    3.4688   -3.4152    0.8671 H   0  0  0  0  0  0  0  0  0  0  0  0
    1.7656   -2.7438   -0.4392 H   0  0  0  0  0  0  0  0  0  0  0  0
    1.2301   -1.4885   -1.6191 H   0  0  0  0  0  0  0  0  0  0  0  0
    0.3282   -1.6825    1.2497 H   0  0  0  0  0  0  0  0  0  0  0  0
   -0.5089   -2.4376   -0.1281 H   0  0  0  0  0  0  0  0  0  0  0  0
  1  2  1  0
  2  3  1  0
  3  4  1  0
  2  5  1  0
  5  6  1  0
  6  7  1  0
  3  8  1  0
  7  8  1  0
  7  9  1  0
  9 10  1  0
 10 11  1  0
 11 12  1  0
 12 13  1  0
 13 14  1  0
 10 15  1  0
 14 15  1  0
 15 16  1  0
 16 17  1  0
 17 18  1  0
 16 19  1  0
  9 20  1  0
 19 20  1  0
  2 21  1  0
  3 22  1  0
  5 23  1  0
  5 24  1  0
  6 25  1  0
  6 26  1  0
  7 27  1  0
  8 28  1  0
  8 29  1  0
  9 30  1  6
 10 31  1  0
 11 32  1  0
 11 33  1  0
 12 34  1  0
 12 35  1  0
 13 36  1  0
 13 37  1  0
 14 38  1  0
 14 39  1  0
 15 40  1  0
 16 41  1  6
 17 42  1  0
 18 43  1  0
 18 44  1  0
 18 45  1  0
 19 46  1  0
 19 47  1  0
 20 48  1  0
 20 49  1  0
M  END
>  <PDBID>  (1) 
6AWO

>  <PDB ID>  (1) 
6AWO

>  <Generic Name>  (1) 
Sertraline

>  <Brand Name>  (1) 
Act Sertraline#Apo-sertraline#Auro-sertraline#Bio-sertraline#Dom-sertraline#Gd-sertraline#Ipg-sertraline#Jamp-sertraline#Mar-sertraline#Mint-sertraline#Mylan-sertraline#Nu-sertraline Capsules#PHL-sertraline#PMS-sertraline#Priva-sertraline#Q-sertraline#Ran-sertraline#Ratio-sertraline#Riva-sertraline#Sandoz Sertraline#Sertraline#Sertraline Hydrochloride#Sertraline Hydrochloride Tablets#Sertraline-100#Sertraline-25#Sertraline-50#Teva-sertraline#Van-sertraline#Zoloft#Zoloft Cap 100mg#Zoloft Cap 50mg#Lustral

>  <DrugBank ID>  (1) 
DB01104

>  <ATC Codes>  (1) 
N06AB06

>  <Ligand ID>  (1) 
SRE

>  <Target Name>  (1) 
Sodium-dependent serotonin transporter

>  <UniProt ID>  (1) 
P31645

>  <PDB ID.1>  (1) 
6AWO

>  <Seq. Identity>  (1) 
99%

$$$$
