PDB_DB00302_01
     RDKit          3D

 56 56  0  0  0  0  0  0  0  0999 V2000
    1.2993    0.2998    0.5044 C   0  0  0  0  0  0  0  0  0  0  0  0
    1.0733   -1.0561   -0.1319 C   0  0  0  0  0  0  0  0  0  0  0  0
   -0.2462   -1.5933    0.4394 C   0  0  0  0  0  0  0  0  0  0  0  0
   -1.2098   -0.4572    0.4485 C   0  0  0  0  0  0  0  0  0  0  0  0
   -0.8552    0.6110   -0.5915 C   0  0  0  0  0  0  0  0  0  0  0  0
    0.3442    1.3474   -0.0485 C   0  0  0  0  0  0  0  0  0  0  0  0
   -2.6320   -0.8513    0.1717 C   0  0  0  0  0  0  0  0  0  0  0  0
    2.7036    0.7900    0.1889 C   0  0  0  0  0  0  0  0  0  0  0  0
   -3.4196    0.3856    0.2223 N   0  0  0  0  0  0  0  0  0  0  0  0
    2.8176    0.8842   -1.2041 O   0  0  0  0  0  0  0  0  0  0  0  0
    3.6308   -0.1089    0.6911 O   0  0  0  0  0  0  0  0  0  0  0  0
    1.2993    0.2998    0.5044 C   0  0  0  0  0  0  0  0  0  0  0  0
    1.0733   -1.0561   -0.1319 C   0  0  0  0  0  0  0  0  0  0  0  0
   -0.2462   -1.5933    0.4394 C   0  0  0  0  0  0  0  0  0  0  0  0
   -1.2098   -0.4572    0.4485 C   0  0  0  0  0  0  0  0  0  0  0  0
   -0.8552    0.6110   -0.5915 C   0  0  0  0  0  0  0  0  0  0  0  0
    0.3442    1.3474   -0.0485 C   0  0  0  0  0  0  0  0  0  0  0  0
   -2.6320   -0.8513    0.1717 C   0  0  0  0  0  0  0  0  0  0  0  0
    2.7036    0.7900    0.1889 C   0  0  0  0  0  0  0  0  0  0  0  0
   -3.4196    0.3856    0.2223 N   0  0  0  0  0  0  0  0  0  0  0  0
    2.8176    0.8842   -1.2041 O   0  0  0  0  0  0  0  0  0  0  0  0
    3.6308   -0.1089    0.6911 O   0  0  0  0  0  0  0  0  0  0  0  0
    1.1752    0.2102    1.5903 H   0  0  0  0  0  0  0  0  0  0  0  0
    1.9288   -1.6931    0.1801 H   0  0  0  0  0  0  0  0  0  0  0  0
    0.9795   -0.9771   -1.2289 H   0  0  0  0  0  0  0  0  0  0  0  0
   -0.5833   -2.4946   -0.0756 H   0  0  0  0  0  0  0  0  0  0  0  0
   -0.0408   -1.8595    1.5167 H   0  0  0  0  0  0  0  0  0  0  0  0
   -1.2080    0.0814    1.4268 H   0  0  0  0  0  0  0  0  0  0  0  0
   -0.6866    0.1628   -1.5786 H   0  0  0  0  0  0  0  0  0  0  0  0
   -1.7258    1.3051   -0.6013 H   0  0  0  0  0  0  0  0  0  0  0  0
    0.7968    1.9232   -0.8729 H   0  0  0  0  0  0  0  0  0  0  0  0
   -0.0259    2.0232    0.7480 H   0  0  0  0  0  0  0  0  0  0  0  0
   -2.9994   -1.5861    0.9237 H   0  0  0  0  0  0  0  0  0  0  0  0
   -2.7799   -1.2883   -0.8339 H   0  0  0  0  0  0  0  0  0  0  0  0
    2.8352    1.7902    0.6510 H   0  0  0  0  0  0  0  0  0  0  0  0
   -4.0563    0.4873   -0.5681 H   0  0  0  0  0  0  0  0  0  0  0  0
   -3.7873    0.5893    1.1535 H   0  0  0  0  0  0  0  0  0  0  0  0
    2.8767    1.8529   -1.4730 H   0  0  0  0  0  0  0  0  0  0  0  0
    3.7952   -0.7779   -0.0186 H   0  0  0  0  0  0  0  0  0  0  0  0
    1.1752    0.2102    1.5903 H   0  0  0  0  0  0  0  0  0  0  0  0
    1.9288   -1.6931    0.1801 H   0  0  0  0  0  0  0  0  0  0  0  0
    0.9795   -0.9771   -1.2289 H   0  0  0  0  0  0  0  0  0  0  0  0
   -0.5833   -2.4946   -0.0756 H   0  0  0  0  0  0  0  0  0  0  0  0
   -0.0408   -1.8595    1.5167 H   0  0  0  0  0  0  0  0  0  0  0  0
   -1.2080    0.0814    1.4268 H   0  0  0  0  0  0  0  0  0  0  0  0
   -0.6866    0.1628   -1.5786 H   0  0  0  0  0  0  0  0  0  0  0  0
   -1.7258    1.3051   -0.6013 H   0  0  0  0  0  0  0  0  0  0  0  0
    0.7968    1.9232   -0.8729 H   0  0  0  0  0  0  0  0  0  0  0  0
   -0.0259    2.0232    0.7480 H   0  0  0  0  0  0  0  0  0  0  0  0
   -2.9994   -1.5861    0.9237 H   0  0  0  0  0  0  0  0  0  0  0  0
   -2.7799   -1.2883   -0.8339 H   0  0  0  0  0  0  0  0  0  0  0  0
    2.8352    1.7902    0.6510 H   0  0  0  0  0  0  0  0  0  0  0  0
   -4.0563    0.4873   -0.5681 H   0  0  0  0  0  0  0  0  0  0  0  0
   -3.7873    0.5893    1.1535 H   0  0  0  0  0  0  0  0  0  0  0  0
    2.8767    1.8529   -1.4730 H   0  0  0  0  0  0  0  0  0  0  0  0
    3.7952   -0.7779   -0.0186 H   0  0  0  0  0  0  0  0  0  0  0  0
  1  2  1  0
  2  3  1  0
  3  4  1  0
  4  5  1  0
  1  6  1  0
  5  6  1  0
  4  7  1  0
  1  8  1  0
  7  9  1  0
  8 10  1  0
  8 11  1  0
 12 13  1  0
 13 14  1  0
 14 15  1  0
 15 16  1  0
 12 17  1  0
 16 17  1  0
 15 18  1  0
 12 19  1  0
 18 20  1  0
 19 21  1  0
 19 22  1  0
  1 23  1  0
  2 24  1  0
  2 25  1  0
  3 26  1  0
  3 27  1  0
  4 28  1  0
  5 29  1  0
  5 30  1  0
  6 31  1  0
  6 32  1  0
  7 33  1  0
  7 34  1  0
  8 35  1  0
  9 36  1  0
  9 37  1  0
 10 38  1  0
 11 39  1  0
 12 40  1  0
 13 41  1  0
 13 42  1  0
 14 43  1  0
 14 44  1  0
 15 45  1  0
 16 46  1  0
 16 47  1  0
 17 48  1  0
 17 49  1  0
 18 50  1  0
 18 51  1  0
 19 52  1  0
 20 53  1  0
 20 54  1  0
 21 55  1  0
 22 56  1  0
M  END
>  <PDBID>  (1) 
1CEB

>  <PDB ID>  (1) 
1CEB

>  <Generic Name>  (1) 
Tranexamic Acid

>  <Brand Name>  (1) 
Cyklokapron#Cyklokapron 100 mg/ml#Cyklokapron 500 mg#Erfa-tranexamic#Gd-tranexamic Acid#Lysteda#Pure Whitenol Serum#Tranexamic Acid#Tranexamic Acid Injection#Tranexamic Acid Injection BP#Tranexamic Acid Tablets#Tranexamic Acid Tranexamic Acid#Cyclo-F#Espercil#Femstrual#Rikavarin#Transamin#Transcam#Traxyl

>  <DrugBank ID>  (1) 
DB00302

>  <ATC Codes>  (1) 
B02AA02

>  <Ligand ID>  (1) 
AMH

>  <Target Name>  (1) 
Plasminogen

>  <UniProt ID>  (1) 
P00747

>  <PDB ID.1>  (1) 
1CEB

>  <Seq. Identity>  (1) 
100%

$$$$
