PDB_DB01222_01
     RDKit          3D

 73 77  0  0  0  0  0  0  0  0999 V2000
    5.0614    3.7689   -0.1355 C   0  0  0  0  0  0  0  0  0  0  0  0
    4.8247    2.3681   -0.6343 C   0  0  0  0  0  0  0  0  0  0  0  0
    4.0469    1.6286    0.4306 C   0  0  0  0  0  0  0  0  0  0  0  0
    2.6133   -1.2243   -1.1091 C   0  0  1  0  0  0  0  0  0  0  0  0
    1.1813   -1.3111   -1.6883 C   0  0  0  0  0  0  0  0  0  0  0  0
    0.4746   -0.5726   -0.6347 C   0  0  1  0  0  0  0  0  0  0  0  0
   -0.9958   -0.5566   -0.5908 C   0  0  2  0  0  0  0  0  0  0  0  0
   -1.6323   -0.2197   -1.9164 C   0  0  0  0  0  0  0  0  0  0  0  0
   -3.1188   -0.1802   -1.7987 C   0  0  0  0  0  0  0  0  0  0  0  0
   -3.5852   -0.1393   -0.3770 C   0  0  0  0  0  0  0  0  0  0  0  0
   -4.4619    2.6276   -0.2772 C   0  0  0  0  0  0  0  0  0  0  0  0
   -3.0433    2.2210   -0.2562 C   0  0  0  0  0  0  0  0  0  0  0  0
   -2.7617    0.8848    0.4187 C   0  0  2  0  0  0  0  0  0  0  0  0
    0.7225   -0.1385    1.6942 C   0  0  0  0  0  0  0  0  0  0  0  0
    3.0383   -2.7003    0.8454 C   0  0  0  0  0  0  0  0  0  0  0  0
    2.7360   -3.9332    0.0067 C   0  0  0  0  0  0  0  0  0  0  0  0
    0.1434   -2.4537    0.9807 C   0  0  0  0  0  0  0  0  0  0  0  0
    3.7568    0.2093    0.0274 C   0  0  2  0  0  0  0  0  0  0  0  0
    3.0054    0.1325   -1.1425 O   0  0  0  0  0  0  0  0  0  0  0  0
   -5.0293    0.1772   -0.2297 C   0  0  0  0  0  0  0  0  0  0  0  0
   -5.4435    1.5443   -0.5813 C   0  0  0  0  0  0  0  0  0  0  0  0
   -5.8512    1.5837   -1.9346 O   0  0  0  0  0  0  0  0  0  0  0  0
   -1.3126    0.5978    0.3866 C   0  0  1  0  0  0  0  0  0  0  0  0
   -0.6346    0.4390    1.7029 C   0  0  1  0  0  0  0  0  0  0  0  0
    0.9511   -1.2459    0.6653 C   0  0  1  0  0  0  0  0  0  0  0  0
    2.3965   -1.4521    0.3686 C   0  0  2  0  0  0  0  0  0  0  0  0
    3.0646   -0.3991    1.0409 O   0  0  0  0  0  0  0  0  0  0  0  0
    4.4450   -2.5077    0.5703 O   0  0  0  0  0  0  0  0  0  0  0  0
    3.5488   -5.0019    0.4439 O   0  0  0  0  0  0  0  0  0  0  0  0
   -1.3913   -0.2037    2.6792 O   0  0  0  0  0  0  0  0  0  0  0  0
   -3.3873    0.9541    1.7840 C   0  0  0  0  0  0  0  0  0  0  0  0
    4.6289    4.4865   -0.8492 H   0  0  0  0  0  0  0  0  0  0  0  0
    6.1567    4.0150   -0.0609 H   0  0  0  0  0  0  0  0  0  0  0  0
    4.6011    3.9520    0.8466 H   0  0  0  0  0  0  0  0  0  0  0  0
    5.8150    1.8748   -0.7107 H   0  0  0  0  0  0  0  0  0  0  0  0
    4.2655    2.3297   -1.5778 H   0  0  0  0  0  0  0  0  0  0  0  0
    4.7214    1.5732    1.3228 H   0  0  0  0  0  0  0  0  0  0  0  0
    3.1578    2.1901    0.7629 H   0  0  0  0  0  0  0  0  0  0  0  0
    3.3167   -1.8731   -1.5987 H   0  0  0  0  0  0  0  0  0  0  0  0
    0.8942   -2.3433   -1.8629 H   0  0  0  0  0  0  0  0  0  0  0  0
    1.1965   -0.7336   -2.6353 H   0  0  0  0  0  0  0  0  0  0  0  0
    0.8781    0.4759   -0.6353 H   0  0  0  0  0  0  0  0  0  0  0  0
   -1.4599   -1.4716   -0.2372 H   0  0  0  0  0  0  0  0  0  0  0  0
   -1.3614   -1.0614   -2.6149 H   0  0  0  0  0  0  0  0  0  0  0  0
   -1.1611    0.6742   -2.3196 H   0  0  0  0  0  0  0  0  0  0  0  0
   -3.5888   -1.0927   -2.2653 H   0  0  0  0  0  0  0  0  0  0  0  0
   -3.4879    0.6709   -2.4040 H   0  0  0  0  0  0  0  0  0  0  0  0
   -3.4446   -1.1735    0.0567 H   0  0  0  0  0  0  0  0  0  0  0  0
   -4.5715    3.3918   -1.1052 H   0  0  0  0  0  0  0  0  0  0  0  0
   -4.7168    3.2147    0.6477 H   0  0  0  0  0  0  0  0  0  0  0  0
   -2.6187    2.2696   -1.2796 H   0  0  0  0  0  0  0  0  0  0  0  0
   -2.4704    3.0018    0.3262 H   0  0  0  0  0  0  0  0  0  0  0  0
    0.9475   -0.5509    2.7105 H   0  0  0  0  0  0  0  0  0  0  0  0
    1.4864    0.6375    1.5035 H   0  0  0  0  0  0  0  0  0  0  0  0
    2.9983   -2.8569    1.9156 H   0  0  0  0  0  0  0  0  0  0  0  0
    3.0557   -3.7758   -1.0478 H   0  0  0  0  0  0  0  0  0  0  0  0
    1.7212   -4.2763   -0.0040 H   0  0  0  0  0  0  0  0  0  0  0  0
    0.6275   -3.1500    1.6883 H   0  0  0  0  0  0  0  0  0  0  0  0
   -0.7888   -2.1324    1.5543 H   0  0  0  0  0  0  0  0  0  0  0  0
   -0.2251   -3.0349    0.1279 H   0  0  0  0  0  0  0  0  0  0  0  0
    4.7327   -0.2688   -0.1984 H   0  0  0  0  0  0  0  0  0  0  0  0
   -5.3623   -0.1163    0.8076 H   0  0  0  0  0  0  0  0  0  0  0  0
   -5.5943   -0.5400   -0.8955 H   0  0  0  0  0  0  0  0  0  0  0  0
   -6.3836    1.7878   -0.0031 H   0  0  0  0  0  0  0  0  0  0  0  0
   -6.4818    2.3474   -2.0327 H   0  0  0  0  0  0  0  0  0  0  0  0
   -0.7735    1.4616   -0.1181 H   0  0  0  0  0  0  0  0  0  0  0  0
   -0.5173    1.4936    2.1110 H   0  0  0  0  0  0  0  0  0  0  0  0
    4.9531   -3.2538    0.9827 H   0  0  0  0  0  0  0  0  0  0  0  0
    3.2164   -5.8012   -0.0762 H   0  0  0  0  0  0  0  0  0  0  0  0
   -0.8258   -0.2669    3.4788 H   0  0  0  0  0  0  0  0  0  0  0  0
   -3.6634   -0.0419    2.1932 H   0  0  0  0  0  0  0  0  0  0  0  0
   -4.3855    1.4677    1.6401 H   0  0  0  0  0  0  0  0  0  0  0  0
   -2.8500    1.6025    2.4944 H   0  0  0  0  0  0  0  0  0  0  0  0
  1  2  1  0
  2  3  1  0
  4  5  1  0
  5  6  1  0
  6  7  1  0
  7  8  1  0
  8  9  1  0
  9 10  1  0
 11 12  1  0
 10 13  1  0
 12 13  1  0
 15 16  1  0
  3 18  1  0
  4 19  1  0
 18 19  1  0
 10 20  1  0
 11 21  1  0
 20 21  1  0
 21 22  1  0
  7 23  1  0
 13 23  1  0
 14 24  1  0
 23 24  1  0
  6 25  1  0
 14 25  1  0
 25 17  1  1
  4 26  1  0
 26 15  1  1
 25 26  1  0
 18 27  1  0
 26 27  1  0
 15 28  1  0
 16 29  1  0
 24 30  1  0
 13 31  1  1
  1 32  1  0
  1 33  1  0
  1 34  1  0
  2 35  1  0
  2 36  1  0
  3 37  1  0
  3 38  1  0
  4 39  1  6
  5 40  1  0
  5 41  1  0
  6 42  1  1
  7 43  1  1
  8 44  1  0
  8 45  1  0
  9 46  1  0
  9 47  1  0
 10 48  1  0
 11 49  1  0
 11 50  1  0
 12 51  1  0
 12 52  1  0
 14 53  1  0
 14 54  1  0
 15 55  1  0
 16 56  1  0
 16 57  1  0
 17 58  1  0
 17 59  1  0
 17 60  1  0
 18 61  1  6
 20 62  1  0
 20 63  1  0
 21 64  1  0
 22 65  1  0
 23 66  1  6
 24 67  1  1
 28 68  1  0
 29 69  1  0
 30 70  1  0
 31 71  1  0
 31 72  1  0
 31 73  1  0
M  END
>  <PDBID>  (1) 
5NFP

>  <PDB ID>  (1) 
5NFP

>  <Generic Name>  (1) 
Budesonide

>  <Brand Name>  (1) 
Budesonide#Budesonide (enteric Coated)#Budesonide Inhalation#Budesonide Nasal#Childrens Rhinocort Allergy#Cortiment#Entocort#Entocort EC#Entocort Enema#Mylan-budesonide AQ#Pulmicort Flexhaler#Pulmicort Nebuamp 0.125 mg/ml#Pulmicort Nebuamp 0.25 mg/ml#Pulmicort Nebuamp 0.5 mg/ml#Pulmicort Respules#Pulmicort Turbuhaler 100 Mcg/dose#Pulmicort Turbuhaler 200 Mcg/dose#Pulmicort Turbuhaler 400 Mcg/dose#Rhinocort Allergy#Rhinocort Aqua#Rhinocort Aqua 100mcg#Rhinocort Turbuhaler 100 Mcg/dose#Symbicort#Symbicort 100 Turbuhaler#Symbicort 200 Turbuhaler#Symbicort Forte Turbuhaler#Uceris#Bidien#Budeson#Budicort#ENTOCORT#Noex#Pulmicort#Rhinocort#Rhinosol#Spirocort

>  <DrugBank ID>  (1) 
DB01222

>  <ATC Codes>  (1) 
R03AK07#A07EA06#R03BA02#D07AC09#R03AK12#R01AD05

>  <Ligand ID>  (1) 
8W5

>  <Target Name>  (1) 
Glucocorticoid receptor

>  <UniProt ID>  (1) 
P04150

>  <PDB ID.1>  (1) 
5NFP

>  <Seq. Identity>  (1) 
98%

$$$$
