PDB_DB01127_04
     RDKit          3D

110114  0  0  0  0  0  0  0  0999 V2000
    2.5177   -0.3485   -0.5836 C   0  0  0  0  0  0  0  0  0  0  0  0
    3.3813   -0.0294   -1.7830 C   0  0  0  0  0  0  0  0  0  0  0  0
   -3.6402   -0.5015   -1.9333 Cl  0  0  0  0  0  0  0  0  0  0  0  0
   -2.2158    4.0994    0.9404 C   0  0  0  0  0  0  0  0  0  0  0  0
   -1.4566    3.0884    1.7718 C   0  0  0  0  0  0  0  0  0  0  0  0
    4.4668    0.7843    0.5118 C   0  0  0  0  0  0  0  0  0  0  0  0
    2.9923    0.5004    0.5667 C   0  0  0  0  0  0  0  0  0  0  0  0
    5.2528   -0.2662   -0.2122 C   0  0  0  0  0  0  0  0  0  0  0  0
    6.9021    0.3988   -0.4637 Cl  0  0  0  0  0  0  0  0  0  0  0  0
   -3.2415   -1.4158   -0.4596 C   0  0  0  0  0  0  0  0  0  0  0  0
   -3.6179   -2.8721   -0.7782 C   0  0  0  0  0  0  0  0  0  0  0  0
   -3.2328   -3.8191    0.3043 C   0  0  0  0  0  0  0  0  0  0  0  0
   -2.6160   -3.1262    1.4861 C   0  0  0  0  0  0  0  0  0  0  0  0
   -4.6624   -4.7149    0.8888 Cl  0  0  0  0  0  0  0  0  0  0  0  0
   -1.5310    4.1038   -0.3373 N   0  0  0  0  0  0  0  0  0  0  0  0
   -1.6510    0.9023    0.7877 C   0  0  0  0  0  0  0  0  0  0  0  0
   -1.1138   -0.0696   -0.1700 C   0  0  1  0  0  0  0  0  0  0  0  0
    0.2343   -0.3124    0.0682 O   0  0  0  0  0  0  0  0  0  0  0  0
   -1.7863   -1.4226   -0.1552 C   0  0  0  0  0  0  0  0  0  0  0  0
   -1.0496    2.1675    0.7580 N   0  0  0  0  0  0  0  0  0  0  0  0
   -0.8562    2.8323   -0.4568 C   0  0  0  0  0  0  0  0  0  0  0  0
    1.0835   -0.0529   -0.9613 C   0  0  0  0  0  0  0  0  0  0  0  0
    4.7256   -0.6542   -1.5491 C   0  0  0  0  0  0  0  0  0  0  0  0
   -1.5100   -2.1788    1.0898 C   0  0  0  0  0  0  0  0  0  0  0  0
    2.5177   -0.3485   -0.5836 C   0  0  0  0  0  0  0  0  0  0  0  0
    3.3813   -0.0294   -1.7830 C   0  0  0  0  0  0  0  0  0  0  0  0
   -3.6402   -0.5015   -1.9333 Cl  0  0  0  0  0  0  0  0  0  0  0  0
   -2.2158    4.0994    0.9404 C   0  0  0  0  0  0  0  0  0  0  0  0
   -1.4566    3.0884    1.7718 C   0  0  0  0  0  0  0  0  0  0  0  0
    4.4668    0.7843    0.5118 C   0  0  0  0  0  0  0  0  0  0  0  0
    2.9923    0.5004    0.5667 C   0  0  0  0  0  0  0  0  0  0  0  0
    5.2528   -0.2662   -0.2122 C   0  0  0  0  0  0  0  0  0  0  0  0
    6.9021    0.3988   -0.4637 Cl  0  0  0  0  0  0  0  0  0  0  0  0
   -3.2415   -1.4158   -0.4596 C   0  0  0  0  0  0  0  0  0  0  0  0
   -3.6179   -2.8721   -0.7782 C   0  0  0  0  0  0  0  0  0  0  0  0
   -3.2328   -3.8191    0.3043 C   0  0  0  0  0  0  0  0  0  0  0  0
   -2.6160   -3.1262    1.4861 C   0  0  0  0  0  0  0  0  0  0  0  0
   -4.6624   -4.7149    0.8888 Cl  0  0  0  0  0  0  0  0  0  0  0  0
   -1.5310    4.1038   -0.3373 N   0  0  0  0  0  0  0  0  0  0  0  0
   -1.6510    0.9023    0.7877 C   0  0  0  0  0  0  0  0  0  0  0  0
   -1.1138   -0.0696   -0.1700 C   0  0  1  0  0  0  0  0  0  0  0  0
    0.2343   -0.3124    0.0682 O   0  0  0  0  0  0  0  0  0  0  0  0
   -1.7863   -1.4226   -0.1552 C   0  0  0  0  0  0  0  0  0  0  0  0
   -1.0496    2.1675    0.7580 N   0  0  0  0  0  0  0  0  0  0  0  0
   -0.8562    2.8323   -0.4568 C   0  0  0  0  0  0  0  0  0  0  0  0
    1.0835   -0.0529   -0.9613 C   0  0  0  0  0  0  0  0  0  0  0  0
    4.7256   -0.6542   -1.5491 C   0  0  0  0  0  0  0  0  0  0  0  0
   -1.5100   -2.1788    1.0898 C   0  0  0  0  0  0  0  0  0  0  0  0
    2.6841   -1.4057   -0.3164 H   0  0  0  0  0  0  0  0  0  0  0  0
    2.9031   -0.4915   -2.6830 H   0  0  0  0  0  0  0  0  0  0  0  0
    3.5123    1.0670   -1.9301 H   0  0  0  0  0  0  0  0  0  0  0  0
   -2.2401    5.0877    1.4283 H   0  0  0  0  0  0  0  0  0  0  0  0
   -3.2696    3.7651    0.7510 H   0  0  0  0  0  0  0  0  0  0  0  0
   -0.5226    3.6190    2.1237 H   0  0  0  0  0  0  0  0  0  0  0  0
   -2.0302    2.6463    2.5834 H   0  0  0  0  0  0  0  0  0  0  0  0
    4.6981    1.8010    0.1268 H   0  0  0  0  0  0  0  0  0  0  0  0
    4.8381    0.7849    1.5736 H   0  0  0  0  0  0  0  0  0  0  0  0
    2.4636    1.4867    0.4994 H   0  0  0  0  0  0  0  0  0  0  0  0
    2.7047    0.0859    1.5540 H   0  0  0  0  0  0  0  0  0  0  0  0
    5.4132   -1.1769    0.4339 H   0  0  0  0  0  0  0  0  0  0  0  0
   -3.8735   -1.1209    0.4005 H   0  0  0  0  0  0  0  0  0  0  0  0
   -3.0672   -3.1304   -1.7302 H   0  0  0  0  0  0  0  0  0  0  0  0
   -4.7006   -2.9399   -1.0722 H   0  0  0  0  0  0  0  0  0  0  0  0
   -2.5347   -4.6115   -0.0963 H   0  0  0  0  0  0  0  0  0  0  0  0
   -3.3958   -2.6165    2.0821 H   0  0  0  0  0  0  0  0  0  0  0  0
   -2.1641   -3.9010    2.1385 H   0  0  0  0  0  0  0  0  0  0  0  0
   -0.9110    4.9243   -0.3847 H   0  0  0  0  0  0  0  0  0  0  0  0
   -1.5298    0.5202    1.8446 H   0  0  0  0  0  0  0  0  0  0  0  0
   -2.7700    1.0500    0.7137 H   0  0  0  0  0  0  0  0  0  0  0  0
   -1.1495    0.3443   -1.2156 H   0  0  0  0  0  0  0  0  0  0  0  0
   -1.2930   -1.9987   -0.9974 H   0  0  0  0  0  0  0  0  0  0  0  0
   -1.3610    2.3087   -1.3077 H   0  0  0  0  0  0  0  0  0  0  0  0
    0.2117    3.0759   -0.6965 H   0  0  0  0  0  0  0  0  0  0  0  0
    1.0353    0.9411   -1.4217 H   0  0  0  0  0  0  0  0  0  0  0  0
    0.8340   -0.7966   -1.7776 H   0  0  0  0  0  0  0  0  0  0  0  0
    5.4114   -0.3846   -2.3881 H   0  0  0  0  0  0  0  0  0  0  0  0
    4.6454   -1.7737   -1.5949 H   0  0  0  0  0  0  0  0  0  0  0  0
   -1.3648   -1.4848    1.9395 H   0  0  0  0  0  0  0  0  0  0  0  0
   -0.5528   -2.7681    1.0401 H   0  0  0  0  0  0  0  0  0  0  0  0
    2.6841   -1.4057   -0.3164 H   0  0  0  0  0  0  0  0  0  0  0  0
    2.9031   -0.4915   -2.6830 H   0  0  0  0  0  0  0  0  0  0  0  0
    3.5123    1.0670   -1.9301 H   0  0  0  0  0  0  0  0  0  0  0  0
   -2.2401    5.0877    1.4283 H   0  0  0  0  0  0  0  0  0  0  0  0
   -3.2696    3.7651    0.7510 H   0  0  0  0  0  0  0  0  0  0  0  0
   -0.5226    3.6190    2.1237 H   0  0  0  0  0  0  0  0  0  0  0  0
   -2.0302    2.6463    2.5834 H   0  0  0  0  0  0  0  0  0  0  0  0
    4.6981    1.8010    0.1268 H   0  0  0  0  0  0  0  0  0  0  0  0
    4.8381    0.7849    1.5736 H   0  0  0  0  0  0  0  0  0  0  0  0
    2.4636    1.4867    0.4994 H   0  0  0  0  0  0  0  0  0  0  0  0
    2.7047    0.0859    1.5540 H   0  0  0  0  0  0  0  0  0  0  0  0
    5.4132   -1.1769    0.4339 H   0  0  0  0  0  0  0  0  0  0  0  0
   -3.8735   -1.1209    0.4005 H   0  0  0  0  0  0  0  0  0  0  0  0
   -3.0672   -3.1304   -1.7302 H   0  0  0  0  0  0  0  0  0  0  0  0
   -4.7006   -2.9399   -1.0722 H   0  0  0  0  0  0  0  0  0  0  0  0
   -2.5347   -4.6115   -0.0963 H   0  0  0  0  0  0  0  0  0  0  0  0
   -3.3958   -2.6165    2.0821 H   0  0  0  0  0  0  0  0  0  0  0  0
   -2.1641   -3.9010    2.1385 H   0  0  0  0  0  0  0  0  0  0  0  0
   -0.9110    4.9243   -0.3847 H   0  0  0  0  0  0  0  0  0  0  0  0
   -1.5298    0.5202    1.8446 H   0  0  0  0  0  0  0  0  0  0  0  0
   -2.7700    1.0500    0.7137 H   0  0  0  0  0  0  0  0  0  0  0  0
   -1.1495    0.3443   -1.2156 H   0  0  0  0  0  0  0  0  0  0  0  0
   -1.2930   -1.9987   -0.9974 H   0  0  0  0  0  0  0  0  0  0  0  0
   -1.3610    2.3087   -1.3077 H   0  0  0  0  0  0  0  0  0  0  0  0
    0.2117    3.0759   -0.6965 H   0  0  0  0  0  0  0  0  0  0  0  0
    1.0353    0.9411   -1.4217 H   0  0  0  0  0  0  0  0  0  0  0  0
    0.8340   -0.7966   -1.7776 H   0  0  0  0  0  0  0  0  0  0  0  0
    5.4114   -0.3846   -2.3881 H   0  0  0  0  0  0  0  0  0  0  0  0
    4.6454   -1.7737   -1.5949 H   0  0  0  0  0  0  0  0  0  0  0  0
   -1.3648   -1.4848    1.9395 H   0  0  0  0  0  0  0  0  0  0  0  0
   -0.5528   -2.7681    1.0401 H   0  0  0  0  0  0  0  0  0  0  0  0
  1  2  1  0
  4  5  1  0
  1  7  1  0
  6  7  1  0
  6  8  1  0
  8  9  1  0
  3 10  1  0
 10 11  1  0
 11 12  1  0
 12 13  1  0
 12 14  1  0
  4 15  1  0
 16 17  1  0
 17 18  1  0
 10 19  1  0
 17 19  1  0
  5 20  1  0
 16 20  1  0
 20 21  1  0
 21 15  1  0
  1 22  1  0
 18 22  1  0
  2 23  1  0
  8 23  1  0
 13 24  1  0
 19 24  1  0
 25 26  1  0
 28 29  1  0
 25 31  1  0
 30 31  1  0
 30 32  1  0
 32 33  1  0
 27 34  1  0
 34 35  1  0
 35 36  1  0
 36 37  1  0
 36 38  1  0
 28 39  1  0
 40 41  1  0
 41 42  1  0
 34 43  1  0
 41 43  1  0
 29 44  1  0
 40 44  1  0
 44 45  1  0
 45 39  1  0
 25 46  1  0
 42 46  1  0
 26 47  1  0
 32 47  1  0
 37 48  1  0
 43 48  1  0
  1 49  1  0
  2 50  1  0
  2 51  1  0
  4 52  1  0
  4 53  1  0
  5 54  1  0
  5 55  1  0
  6 56  1  0
  6 57  1  0
  7 58  1  0
  7 59  1  0
  8 60  1  0
 10 61  1  0
 11 62  1  0
 11 63  1  0
 12 64  1  0
 13 65  1  0
 13 66  1  0
 15 67  1  0
 16 68  1  0
 16 69  1  0
 17 70  1  6
 19 71  1  0
 21 72  1  0
 21 73  1  0
 22 74  1  0
 22 75  1  0
 23 76  1  0
 23 77  1  0
 24 78  1  0
 24 79  1  0
 25 80  1  0
 26 81  1  0
 26 82  1  0
 28 83  1  0
 28 84  1  0
 29 85  1  0
 29 86  1  0
 30 87  1  0
 30 88  1  0
 31 89  1  0
 31 90  1  0
 32 91  1  0
 34 92  1  0
 35 93  1  0
 35 94  1  0
 36 95  1  0
 37 96  1  0
 37 97  1  0
 39 98  1  0
 40 99  1  0
 40100  1  0
 41101  1  6
 43102  1  0
 45103  1  0
 45104  1  0
 46105  1  0
 46106  1  0
 47107  1  0
 47108  1  0
 48109  1  0
 48110  1  0
M  END
>  <PDBID>  (1) 
3JUS

>  <PDB ID>  (1) 
3JUS

>  <Generic Name>  (1) 
Econazole

>  <Brand Name>  (1) 
Econazole Nitrate#Econazole Nitrate Cream#Econazole Nitrate Topical Foam, 1%#Ecostatin Cream 1%#Ecostatin Vaginal Ovule 150mg#Ecoza#Ecostatin#Gyno-Pevaryl#Ifenec#Palavale#Pevaryl#Spectazole

>  <DrugBank ID>  (1) 
DB01127

>  <ATC Codes>  (1) 
G01AF05#D01AC03

>  <Ligand ID>  (1) 
ECL,ECN

>  <Target Name>  (1) 
Lanosterol 14-alpha demethylase

>  <UniProt ID>  (1) 
P10613

>  <PDB ID.1>  (1) 
3JUS

>  <Seq. Identity>  (1) 
40%

$$$$
