PDB_DB01136_05
     RDKit          3D

148154  0  0  0  0  0  0  0  0999 V2000
    0.1044    0.5276   -1.8073 O   0  0  0  0  0  0  0  0  0  0  0  0
    0.3050   -0.2569   -0.6996 C   0  0  2  0  0  0  0  0  0  0  0  0
   -0.9236   -0.5383    0.1114 C   0  0  0  0  0  0  0  0  0  0  0  0
   -1.9103   -1.1931   -0.6043 O   0  0  0  0  0  0  0  0  0  0  0  0
   -2.9933   -1.4145    0.2020 C   0  0  2  0  0  0  0  0  0  0  0  0
   -3.0098   -2.9365    0.4302 C   0  0  0  0  0  0  0  0  0  0  0  0
   -4.3885   -3.3720    0.8751 C   0  0  0  0  0  0  0  0  0  0  0  0
   -4.9073   -2.2596    1.7941 C   0  0  0  0  0  0  0  0  0  0  0  0
   -5.2931   -1.1141    0.8987 C   0  0  0  0  0  0  0  0  0  0  0  0
   -4.3216   -1.0160   -0.3018 C   0  0  0  0  0  0  0  0  0  0  0  0
   -4.5659    0.3852   -0.6620 C   0  0  0  0  0  0  0  0  0  0  0  0
   -3.6593    1.0896   -1.5780 C   0  0  0  0  0  0  0  0  0  0  0  0
   -4.3477    2.4281   -1.9067 C   0  0  0  0  0  0  0  0  0  0  0  0
   -5.4414    2.7356   -0.9155 C   0  0  0  0  0  0  0  0  0  0  0  0
   -5.1124    2.4241    0.5077 C   0  0  0  0  0  0  0  0  0  0  0  0
   -4.5000    1.0795    0.7084 C   0  0  0  0  0  0  0  0  0  0  0  0
   -5.2738    0.1737    1.5327 N   0  0  0  0  0  0  0  0  0  0  0  0
    1.2559    0.5257    0.2480 C   0  0  0  0  0  0  0  0  0  0  0  0
    1.5310   -0.1610    1.4125 N   0  0  0  0  0  0  0  0  0  0  0  0
    2.2329   -1.3160    1.5894 C   0  0  0  0  0  0  0  0  0  0  0  0
    3.6957   -1.4893    1.4975 C   0  0  0  0  0  0  0  0  0  0  0  0
    4.4537   -1.2576    0.4564 O   0  0  0  0  0  0  0  0  0  0  0  0
    4.7500   -0.0914   -0.1125 C   0  0  0  0  0  0  0  0  0  0  0  0
    4.4247   -0.0555   -1.5920 C   0  0  0  0  0  0  0  0  0  0  0  0
    4.3940    1.3354   -2.1404 C   0  0  0  0  0  0  0  0  0  0  0  0
    5.5173    2.1348   -1.4881 C   0  0  0  0  0  0  0  0  0  0  0  0
    6.6048    1.1432   -1.1386 C   0  0  0  0  0  0  0  0  0  0  0  0
    6.2556    0.2427    0.0082 C   0  0  0  0  0  0  0  0  0  0  0  0
    6.5334    0.7744    1.2397 O   0  0  0  0  0  0  0  0  0  0  0  0
    7.4296    0.0706    2.0038 C   0  0  0  0  0  0  0  0  0  0  0  0
   -0.6580    0.4893   -1.4119 O   0  0  0  0  0  0  0  0  0  0  0  0
   -0.2745   -0.5273   -0.5558 C   0  0  2  0  0  0  0  0  0  0  0  0
   -1.2860   -0.9576    0.4428 C   0  0  0  0  0  0  0  0  0  0  0  0
   -2.4728   -1.4530   -0.0423 O   0  0  0  0  0  0  0  0  0  0  0  0
   -3.2441   -0.6078   -0.7542 C   0  0  1  0  0  0  0  0  0  0  0  0
   -3.5224   -1.1178   -2.1805 C   0  0  0  0  0  0  0  0  0  0  0  0
   -3.9788    0.1034   -2.9493 C   0  0  0  0  0  0  0  0  0  0  0  0
   -5.2177    0.7043   -2.3520 C   0  0  0  0  0  0  0  0  0  0  0  0
   -5.2180    0.7997   -0.8750 C   0  0  0  0  0  0  0  0  0  0  0  0
   -4.6348   -0.3965   -0.1666 C   0  0  2  0  0  0  0  0  0  0  0  0
   -4.5165    0.1233    1.2554 C   0  0  2  0  0  0  0  0  0  0  0  0
   -5.8393    0.0599    1.9526 C   0  0  0  0  0  0  0  0  0  0  0  0
   -5.5915    0.4477    3.4164 C   0  0  0  0  0  0  0  0  0  0  0  0
   -4.9512    1.7989    3.4005 C   0  0  0  0  0  0  0  0  0  0  0  0
   -4.9055    2.4125    2.0218 C   0  0  0  0  0  0  0  0  0  0  0  0
   -4.1440    1.5586    1.0336 C   0  0  0  0  0  0  0  0  0  0  0  0
   -4.4768    1.8927   -0.3348 N   0  0  0  0  0  0  0  0  0  0  0  0
    0.9550   -0.0131    0.1763 C   0  0  0  0  0  0  0  0  0  0  0  0
    1.4929   -0.9609    1.1186 N   0  0  0  0  0  0  0  0  0  0  0  0
    2.0726   -2.1235    0.4866 C   0  0  0  0  0  0  0  0  0  0  0  0
    3.3201   -1.8062   -0.2830 C   0  0  0  0  0  0  0  0  0  0  0  0
    4.3208   -1.2661    0.5212 O   0  0  0  0  0  0  0  0  0  0  0  0
    5.4500   -0.9816   -0.2159 C   0  0  0  0  0  0  0  0  0  0  0  0
    6.6457   -1.8408    0.1810 C   0  0  0  0  0  0  0  0  0  0  0  0
    7.6264   -1.7927   -0.9978 C   0  0  0  0  0  0  0  0  0  0  0  0
    7.7325   -0.4021   -1.5668 C   0  0  0  0  0  0  0  0  0  0  0  0
    7.3315    0.5756   -0.4711 C   0  0  0  0  0  0  0  0  0  0  0  0
    5.8789    0.4508   -0.1065 C   0  0  0  0  0  0  0  0  0  0  0  0
    5.0573    1.3284   -0.7838 O   0  0  0  0  0  0  0  0  0  0  0  0
    4.4273    2.2323    0.0761 C   0  0  0  0  0  0  0  0  0  0  0  0
   -0.7829    0.4714   -2.2117 H   0  0  0  0  0  0  0  0  0  0  0  0
    0.8752   -1.1505   -0.9814 H   0  0  0  0  0  0  0  0  0  0  0  0
   -1.2986    0.4152    0.5055 H   0  0  0  0  0  0  0  0  0  0  0  0
   -0.5799   -1.1405    0.9904 H   0  0  0  0  0  0  0  0  0  0  0  0
   -2.8136   -0.9593    1.2027 H   0  0  0  0  0  0  0  0  0  0  0  0
   -2.7720   -3.4739   -0.4938 H   0  0  0  0  0  0  0  0  0  0  0  0
   -2.2797   -3.1639    1.2253 H   0  0  0  0  0  0  0  0  0  0  0  0
   -4.3436   -4.3411    1.4031 H   0  0  0  0  0  0  0  0  0  0  0  0
   -5.0022   -3.4293   -0.0577 H   0  0  0  0  0  0  0  0  0  0  0  0
   -4.1535   -2.0294    2.5439 H   0  0  0  0  0  0  0  0  0  0  0  0
   -5.8148   -2.6946    2.3063 H   0  0  0  0  0  0  0  0  0  0  0  0
   -6.2956   -1.3329    0.4796 H   0  0  0  0  0  0  0  0  0  0  0  0
   -4.7118   -1.6616   -1.1208 H   0  0  0  0  0  0  0  0  0  0  0  0
   -5.6225    0.4636   -1.0261 H   0  0  0  0  0  0  0  0  0  0  0  0
   -3.4212    0.5312   -2.5087 H   0  0  0  0  0  0  0  0  0  0  0  0
   -2.7058    1.3904   -1.1113 H   0  0  0  0  0  0  0  0  0  0  0  0
   -4.8300    2.2800   -2.8951 H   0  0  0  0  0  0  0  0  0  0  0  0
   -3.6276    3.2444   -2.0042 H   0  0  0  0  0  0  0  0  0  0  0  0
   -6.4207    2.3251   -1.2359 H   0  0  0  0  0  0  0  0  0  0  0  0
   -5.5864    3.8557   -0.9678 H   0  0  0  0  0  0  0  0  0  0  0  0
   -4.5045    3.2107    1.0013 H   0  0  0  0  0  0  0  0  0  0  0  0
   -6.0857    2.4283    1.0682 H   0  0  0  0  0  0  0  0  0  0  0  0
   -3.4760    1.2103    1.0527 H   0  0  0  0  0  0  0  0  0  0  0  0
   -4.7781    0.0753    2.4541 H   0  0  0  0  0  0  0  0  0  0  0  0
    0.5751    1.4127    0.5361 H   0  0  0  0  0  0  0  0  0  0  0  0
    2.1119    0.8949   -0.2951 H   0  0  0  0  0  0  0  0  0  0  0  0
    1.3937    0.3765    2.2968 H   0  0  0  0  0  0  0  0  0  0  0  0
    1.7197   -2.2045    1.0340 H   0  0  0  0  0  0  0  0  0  0  0  0
    1.9867   -1.6775    2.6798 H   0  0  0  0  0  0  0  0  0  0  0  0
    3.8642   -2.5816    1.8874 H   0  0  0  0  0  0  0  0  0  0  0  0
    4.1975   -0.9124    2.3895 H   0  0  0  0  0  0  0  0  0  0  0  0
    4.2615    0.7561    0.3935 H   0  0  0  0  0  0  0  0  0  0  0  0
    5.1635   -0.6527   -2.1504 H   0  0  0  0  0  0  0  0  0  0  0  0
    3.4127   -0.5178   -1.7298 H   0  0  0  0  0  0  0  0  0  0  0  0
    3.4206    1.8489   -2.0445 H   0  0  0  0  0  0  0  0  0  0  0  0
    4.5981    1.3169   -3.2518 H   0  0  0  0  0  0  0  0  0  0  0  0
    5.9719    2.8077   -2.2721 H   0  0  0  0  0  0  0  0  0  0  0  0
    5.1771    2.7387   -0.6448 H   0  0  0  0  0  0  0  0  0  0  0  0
    7.5856    1.6738   -0.9682 H   0  0  0  0  0  0  0  0  0  0  0  0
    6.8038    0.5544   -2.0805 H   0  0  0  0  0  0  0  0  0  0  0  0
    6.8513   -0.6934   -0.1022 H   0  0  0  0  0  0  0  0  0  0  0  0
    8.4282   -0.0343    1.5256 H   0  0  0  0  0  0  0  0  0  0  0  0
    7.0590   -0.9122    2.3681 H   0  0  0  0  0  0  0  0  0  0  0  0
    7.6094    0.6829    2.9354 H   0  0  0  0  0  0  0  0  0  0  0  0
   -0.5765    1.3534   -0.9758 H   0  0  0  0  0  0  0  0  0  0  0  0
    0.0639   -1.4354   -1.1060 H   0  0  0  0  0  0  0  0  0  0  0  0
   -0.7922   -1.7507    1.0774 H   0  0  0  0  0  0  0  0  0  0  0  0
   -1.4610   -0.1174    1.1799 H   0  0  0  0  0  0  0  0  0  0  0  0
   -2.8007    0.4013   -0.8113 H   0  0  0  0  0  0  0  0  0  0  0  0
   -2.6525   -1.5721   -2.6386 H   0  0  0  0  0  0  0  0  0  0  0  0
   -4.3276   -1.8616   -2.0690 H   0  0  0  0  0  0  0  0  0  0  0  0
   -4.1965   -0.2300   -3.9846 H   0  0  0  0  0  0  0  0  0  0  0  0
   -3.1538    0.8238   -2.9755 H   0  0  0  0  0  0  0  0  0  0  0  0
   -6.1160    0.1581   -2.7363 H   0  0  0  0  0  0  0  0  0  0  0  0
   -5.3006    1.7411   -2.7670 H   0  0  0  0  0  0  0  0  0  0  0  0
   -6.2953    0.8548   -0.5388 H   0  0  0  0  0  0  0  0  0  0  0  0
   -5.2684   -1.2787   -0.2423 H   0  0  0  0  0  0  0  0  0  0  0  0
   -3.7618   -0.4399    1.8365 H   0  0  0  0  0  0  0  0  0  0  0  0
   -6.5667    0.8021    1.5656 H   0  0  0  0  0  0  0  0  0  0  0  0
   -6.3115   -0.9441    1.8964 H   0  0  0  0  0  0  0  0  0  0  0  0
   -4.8721   -0.2832    3.8270 H   0  0  0  0  0  0  0  0  0  0  0  0
   -6.5060    0.3929    4.0175 H   0  0  0  0  0  0  0  0  0  0  0  0
   -3.9674    1.7803    3.8831 H   0  0  0  0  0  0  0  0  0  0  0  0
   -5.5974    2.4764    4.0161 H   0  0  0  0  0  0  0  0  0  0  0  0
   -4.3024    3.3619    2.1265 H   0  0  0  0  0  0  0  0  0  0  0  0
   -5.8937    2.7229    1.6767 H   0  0  0  0  0  0  0  0  0  0  0  0
   -3.0534    1.6753    1.2045 H   0  0  0  0  0  0  0  0  0  0  0  0
   -3.6891    2.2332   -0.8955 H   0  0  0  0  0  0  0  0  0  0  0  0
    0.7181    0.9254    0.7067 H   0  0  0  0  0  0  0  0  0  0  0  0
    1.7738    0.2376   -0.5417 H   0  0  0  0  0  0  0  0  0  0  0  0
    2.2208   -0.4772    1.6643 H   0  0  0  0  0  0  0  0  0  0  0  0
    1.3795   -2.6661   -0.1579 H   0  0  0  0  0  0  0  0  0  0  0  0
    2.3729   -2.8143    1.3164 H   0  0  0  0  0  0  0  0  0  0  0  0
    3.7271   -2.7907   -0.6467 H   0  0  0  0  0  0  0  0  0  0  0  0
    3.1510   -1.1891   -1.1752 H   0  0  0  0  0  0  0  0  0  0  0  0
    5.2493   -1.2678   -1.2888 H   0  0  0  0  0  0  0  0  0  0  0  0
    7.1791   -1.4666    1.0533 H   0  0  0  0  0  0  0  0  0  0  0  0
    6.3297   -2.9037    0.2728 H   0  0  0  0  0  0  0  0  0  0  0  0
    7.3254   -2.4837   -1.8033 H   0  0  0  0  0  0  0  0  0  0  0  0
    8.6518   -2.1109   -0.6724 H   0  0  0  0  0  0  0  0  0  0  0  0
    8.7889   -0.1637   -1.8279 H   0  0  0  0  0  0  0  0  0  0  0  0
    7.0526   -0.3369   -2.4367 H   0  0  0  0  0  0  0  0  0  0  0  0
    7.6145    1.5874   -0.7921 H   0  0  0  0  0  0  0  0  0  0  0  0
    7.9843    0.3418    0.4138 H   0  0  0  0  0  0  0  0  0  0  0  0
    5.8085    0.7182    0.9827 H   0  0  0  0  0  0  0  0  0  0  0  0
    3.7850    2.9180   -0.4738 H   0  0  0  0  0  0  0  0  0  0  0  0
    5.1250    2.7481    0.7504 H   0  0  0  0  0  0  0  0  0  0  0  0
    3.7818    1.5989    0.7487 H   0  0  0  0  0  0  0  0  0  0  0  0
  1  2  1  0
  2  3  1  0
  3  4  1  0
  4  5  1  0
  5  6  1  0
  6  7  1  0
  7  8  1  0
  8  9  1  0
  5 10  1  0
  9 10  1  0
 10 11  1  0
 11 12  1  0
 12 13  1  0
 13 14  1  0
 14 15  1  0
 11 16  1  0
 15 16  1  0
  9 17  1  0
 16 17  1  0
  2 18  1  0
 18 19  1  0
 19 20  1  0
 20 21  1  0
 21 22  1  0
 22 23  1  0
 23 24  1  0
 24 25  1  0
 25 26  1  0
 26 27  1  0
 23 28  1  0
 27 28  1  0
 28 29  1  0
 29 30  1  0
 31 32  1  0
 32 33  1  0
 33 34  1  0
 34 35  1  0
 35 36  1  0
 36 37  1  0
 37 38  1  0
 38 39  1  0
 35 40  1  0
 39 40  1  0
 40 41  1  0
 41 42  1  0
 42 43  1  0
 43 44  1  0
 44 45  1  0
 41 46  1  0
 45 46  1  0
 39 47  1  0
 46 47  1  0
 32 48  1  0
 48 49  1  0
 49 50  1  0
 50 51  1  0
 51 52  1  0
 52 53  1  0
 53 54  1  0
 54 55  1  0
 55 56  1  0
 56 57  1  0
 53 58  1  0
 57 58  1  0
 58 59  1  0
 59 60  1  0
  1 61  1  0
  2 62  1  6
  3 63  1  0
  3 64  1  0
  5 65  1  1
  6 66  1  0
  6 67  1  0
  7 68  1  0
  7 69  1  0
  8 70  1  0
  8 71  1  0
  9 72  1  0
 10 73  1  0
 11 74  1  0
 12 75  1  0
 12 76  1  0
 13 77  1  0
 13 78  1  0
 14 79  1  0
 14 80  1  0
 15 81  1  0
 15 82  1  0
 16 83  1  0
 17 84  1  0
 18 85  1  0
 18 86  1  0
 19 87  1  0
 20 88  1  0
 20 89  1  0
 21 90  1  0
 21 91  1  0
 23 92  1  0
 24 93  1  0
 24 94  1  0
 25 95  1  0
 25 96  1  0
 26 97  1  0
 26 98  1  0
 27 99  1  0
 27100  1  0
 28101  1  0
 30102  1  0
 30103  1  0
 30104  1  0
 31105  1  0
 32106  1  6
 33107  1  0
 33108  1  0
 35109  1  6
 36110  1  0
 36111  1  0
 37112  1  0
 37113  1  0
 38114  1  0
 38115  1  0
 39116  1  0
 40117  1  1
 41118  1  1
 42119  1  0
 42120  1  0
 43121  1  0
 43122  1  0
 44123  1  0
 44124  1  0
 45125  1  0
 45126  1  0
 46127  1  0
 47128  1  0
 48129  1  0
 48130  1  0
 49131  1  0
 50132  1  0
 50133  1  0
 51134  1  0
 51135  1  0
 53136  1  0
 54137  1  0
 54138  1  0
 55139  1  0
 55140  1  0
 56141  1  0
 56142  1  0
 57143  1  0
 57144  1  0
 58145  1  0
 60146  1  0
 60147  1  0
 60148  1  0
M  END
>  <PDBID>  (1) 
4AMJ

>  <PDB ID>  (1) 
4AMJ

>  <Generic Name>  (1) 
Carvedilol

>  <Brand Name>  (1) 
Apo-carvedilol#Auro-carvedilol#Ava-carvedilol#Carvedilol#Coreg#Coreg (carvedilol) Tablets, 12.5mg#Coreg (carvedilol) Tablets, 25mg#Coreg (carvedilol) Tablets, 3.125 mg#Coreg (carvedilol) Tablets, 6.25mg#Coreg 12.5mg#Coreg 25mg#Coreg 3.125mg#Coreg 6.25mg#Coreg CR#Coregcr CR#Dilatrend - Tab 25mg#Dilatrend - Tab 50mg#Dom-carvedilol#Hypertenevide-12.5#Jamp-carvedilol#Mylan-carvedilol#Novo-carvedilol Tablets#Ntp-carvedilol#Nu-carvedilol#PMS-carvedilol#Ran-carvedilol#Ratio-carvedilol#Zym-carvedilol#COREGCR

>  <DrugBank ID>  (1) 
DB01136

>  <ATC Codes>  (1) 
C07AG02

>  <Ligand ID>  (1) 
CVD

>  <Target Name>  (1) 
Beta-1 adrenergic receptor

>  <UniProt ID>  (1) 
P08588

>  <PDB ID.1>  (1) 
4AMJ

>  <Seq. Identity>  (1) 
63%

$$$$
