PDB_DB01261_00
     RDKit          3D

110114  0  0  0  0  0  0  0  0999 V2000
    5.5568    1.3045   -0.2299 C   0  0  0  0  0  0  0  0  0  0  0  0
    4.1379    0.8100   -0.5464 C   0  0  0  0  0  0  0  0  0  0  0  0
    3.4534    0.6395    0.7766 C   0  0  0  0  0  0  0  0  0  0  0  0
    4.0643   -0.5548    1.4616 C   0  0  0  0  0  0  0  0  0  0  0  0
    5.5000   -0.1745    1.8001 C   0  0  0  0  0  0  0  0  0  0  0  0
    6.2730    0.2758    0.5895 C   0  0  0  0  0  0  0  0  0  0  0  0
    5.5774    0.7068    2.8415 F   0  0  0  0  0  0  0  0  0  0  0  0
    3.4877    1.6662   -1.3896 F   0  0  0  0  0  0  0  0  0  0  0  0
    1.9776    0.6326    0.7240 C   0  0  0  0  0  0  0  0  0  0  0  0
    1.3714   -0.4523   -0.1158 C   0  0  2  0  0  0  0  0  0  0  0  0
   -0.1598   -0.3077   -0.0545 C   0  0  0  0  0  0  0  0  0  0  0  0
   -0.7798   -1.4033   -0.9020 C   0  0  1  0  0  0  0  0  0  0  0  0
   -2.1774   -1.3804   -0.9371 N   0  0  0  0  0  0  0  0  0  0  0  0
    1.8035   -1.7667    0.2244 N   0  0  0  0  0  0  0  0  0  0  0  0
   -0.1867   -1.3628   -2.1814 O   0  0  0  0  0  0  0  0  0  0  0  0
   -2.8329   -1.5721    0.2818 C   0  0  0  0  0  0  0  0  0  0  0  0
   -3.4380   -0.3579    0.8896 C   0  0  0  0  0  0  0  0  0  0  0  0
   -3.8540    0.6857    0.0671 N   0  0  0  0  0  0  0  0  0  0  0  0
   -3.3412    0.7884   -1.2319 C   0  0  0  0  0  0  0  0  0  0  0  0
   -2.7915   -0.4876   -1.8107 C   0  0  0  0  0  0  0  0  0  0  0  0
   -5.2258    1.0377   -0.0045 C   0  0  0  0  0  0  0  0  0  0  0  0
   -5.5725    0.9264   -1.4240 N   0  0  0  0  0  0  0  0  0  0  0  0
   -4.4066    1.3322   -2.0914 N   0  0  0  0  0  0  0  0  0  0  0  0
   -6.1786    0.1926    0.8011 C   0  0  0  0  0  0  0  0  0  0  0  0
   -6.1367   -1.1298    0.4107 F   0  0  0  0  0  0  0  0  0  0  0  0
   -7.4609    0.6278    0.4056 F   0  0  0  0  0  0  0  0  0  0  0  0
   -6.1289    0.3937    2.1439 F   0  0  0  0  0  0  0  0  0  0  0  0
    7.4408    0.8800    1.0728 F   0  0  0  0  0  0  0  0  0  0  0  0
    5.1118   -1.4256    0.6439 C   0  0  0  0  0  0  0  0  0  0  0  0
    4.0414   -0.9139   -0.2922 C   0  0  0  0  0  0  0  0  0  0  0  0
    3.6938    0.4818    0.1838 C   0  0  0  0  0  0  0  0  0  0  0  0
    2.9814    0.3087    1.4750 C   0  0  0  0  0  0  0  0  0  0  0  0
    4.0720   -0.0416    2.5029 C   0  0  0  0  0  0  0  0  0  0  0  0
    4.8581   -1.2359    2.0866 C   0  0  0  0  0  0  0  0  0  0  0  0
    4.8244    1.0860    2.7013 F   0  0  0  0  0  0  0  0  0  0  0  0
    4.5085   -0.9212   -1.5742 F   0  0  0  0  0  0  0  0  0  0  0  0
    3.1625    1.3994   -0.8202 C   0  0  0  0  0  0  0  0  0  0  0  0
    1.9253    1.1111   -1.5535 C   0  0  2  0  0  0  0  0  0  0  0  0
    0.6993    0.9776   -0.7092 C   0  0  0  0  0  0  0  0  0  0  0  0
   -0.5212    0.6977   -1.5733 C   0  0  0  0  0  0  0  0  0  0  0  0
   -1.6924    0.5703   -0.7761 N   0  0  0  0  0  0  0  0  0  0  0  0
    2.0170   -0.0295   -2.4465 N   0  0  0  0  0  0  0  0  0  0  0  0
   -0.6761    1.8209   -2.3874 O   0  0  0  0  0  0  0  0  0  0  0  0
   -1.6571   -0.5477    0.1317 C   0  0  0  0  0  0  0  0  0  0  0  0
   -3.0268   -0.8761    0.6761 C   0  0  0  0  0  0  0  0  0  0  0  0
   -3.9445    0.2296    0.5532 N   0  0  0  0  0  0  0  0  0  0  0  0
   -4.0696    0.6971   -0.8109 C   0  0  0  0  0  0  0  0  0  0  0  0
   -2.8421    0.4020   -1.6338 C   0  0  0  0  0  0  0  0  0  0  0  0
   -5.3050   -0.0978    0.8802 C   0  0  0  0  0  0  0  0  0  0  0  0
   -5.7645   -0.7436   -0.3264 N   0  0  0  0  0  0  0  0  0  0  0  0
   -5.2790    0.1176   -1.3260 N   0  0  0  0  0  0  0  0  0  0  0  0
   -5.4537   -0.9877    2.0897 C   0  0  0  0  0  0  0  0  0  0  0  0
   -6.8358   -1.1848    2.2418 F   0  0  0  0  0  0  0  0  0  0  0  0
   -4.9226   -2.2429    1.8629 F   0  0  0  0  0  0  0  0  0  0  0  0
   -5.0118   -0.4018    3.2378 F   0  0  0  0  0  0  0  0  0  0  0  0
    6.1078   -1.1311    2.7229 F   0  0  0  0  0  0  0  0  0  0  0  0
    6.1356    1.5131   -1.1301 H   0  0  0  0  0  0  0  0  0  0  0  0
    5.4004    2.2334    0.3865 H   0  0  0  0  0  0  0  0  0  0  0  0
    4.2941   -0.1977   -1.0119 H   0  0  0  0  0  0  0  0  0  0  0  0
    3.7543    1.5338    1.4004 H   0  0  0  0  0  0  0  0  0  0  0  0
    4.1242   -1.4516    0.8297 H   0  0  0  0  0  0  0  0  0  0  0  0
    3.5666   -0.8108    2.4012 H   0  0  0  0  0  0  0  0  0  0  0  0
    5.9843   -1.1305    2.1433 H   0  0  0  0  0  0  0  0  0  0  0  0
    6.5931   -0.5466   -0.0531 H   0  0  0  0  0  0  0  0  0  0  0  0
    1.6306    1.6336    0.3975 H   0  0  0  0  0  0  0  0  0  0  0  0
    1.5989    0.5102    1.7668 H   0  0  0  0  0  0  0  0  0  0  0  0
    1.6412   -0.2585   -1.1747 H   0  0  0  0  0  0  0  0  0  0  0  0
   -0.4327   -0.4302    1.0115 H   0  0  0  0  0  0  0  0  0  0  0  0
   -0.4553    0.6610   -0.4703 H   0  0  0  0  0  0  0  0  0  0  0  0
   -0.3606   -2.3617   -0.4548 H   0  0  0  0  0  0  0  0  0  0  0  0
    1.8431   -2.4247   -0.5729 H   0  0  0  0  0  0  0  0  0  0  0  0
    1.1393   -2.1681    0.9226 H   0  0  0  0  0  0  0  0  0  0  0  0
    0.0224   -0.4563   -2.4709 H   0  0  0  0  0  0  0  0  0  0  0  0
   -3.6345   -2.3612    0.1577 H   0  0  0  0  0  0  0  0  0  0  0  0
   -2.0772   -2.0209    1.0016 H   0  0  0  0  0  0  0  0  0  0  0  0
   -4.2459   -0.7152    1.5773 H   0  0  0  0  0  0  0  0  0  0  0  0
   -2.6587    0.0654    1.6037 H   0  0  0  0  0  0  0  0  0  0  0  0
   -2.5326    1.5469   -1.2669 H   0  0  0  0  0  0  0  0  0  0  0  0
   -3.6979   -1.0087   -2.2555 H   0  0  0  0  0  0  0  0  0  0  0  0
   -2.1773   -0.2450   -2.7253 H   0  0  0  0  0  0  0  0  0  0  0  0
   -5.3442    2.1235    0.2363 H   0  0  0  0  0  0  0  0  0  0  0  0
   -5.7306   -0.0823   -1.6493 H   0  0  0  0  0  0  0  0  0  0  0  0
   -4.3529    2.3612   -2.1715 H   0  0  0  0  0  0  0  0  0  0  0  0
    5.3117   -2.5137    0.4660 H   0  0  0  0  0  0  0  0  0  0  0  0
    6.0430   -0.8752    0.3796 H   0  0  0  0  0  0  0  0  0  0  0  0
    3.1647   -1.6125   -0.1507 H   0  0  0  0  0  0  0  0  0  0  0  0
    4.7201    0.9168    0.4695 H   0  0  0  0  0  0  0  0  0  0  0  0
    2.3239   -0.6091    1.5168 H   0  0  0  0  0  0  0  0  0  0  0  0
    2.4935    1.2248    1.7841 H   0  0  0  0  0  0  0  0  0  0  0  0
    3.5040   -0.3035    3.4316 H   0  0  0  0  0  0  0  0  0  0  0  0
    4.4346   -2.1895    2.5229 H   0  0  0  0  0  0  0  0  0  0  0  0
    4.0226    1.6458   -1.5258 H   0  0  0  0  0  0  0  0  0  0  0  0
    3.0243    2.4027   -0.2948 H   0  0  0  0  0  0  0  0  0  0  0  0
    1.7374    1.9891   -2.2468 H   0  0  0  0  0  0  0  0  0  0  0  0
    0.7722    0.2859    0.1196 H   0  0  0  0  0  0  0  0  0  0  0  0
    0.5066    2.0111   -0.2877 H   0  0  0  0  0  0  0  0  0  0  0  0
   -0.3646   -0.1663   -2.2417 H   0  0  0  0  0  0  0  0  0  0  0  0
    1.5732    0.1306   -3.3726 H   0  0  0  0  0  0  0  0  0  0  0  0
    1.5842   -0.8606   -2.0173 H   0  0  0  0  0  0  0  0  0  0  0  0
   -1.0299    2.5561   -1.8316 H   0  0  0  0  0  0  0  0  0  0  0  0
   -1.2970   -1.4298   -0.4502 H   0  0  0  0  0  0  0  0  0  0  0  0
   -0.9194   -0.4039    0.9600 H   0  0  0  0  0  0  0  0  0  0  0  0
   -3.4087   -1.7987    0.2013 H   0  0  0  0  0  0  0  0  0  0  0  0
   -2.8996   -1.0916    1.7543 H   0  0  0  0  0  0  0  0  0  0  0  0
   -4.1964    1.7962   -0.7770 H   0  0  0  0  0  0  0  0  0  0  0  0
   -2.8812   -0.6615   -1.9448 H   0  0  0  0  0  0  0  0  0  0  0  0
   -2.7963    1.0696   -2.5139 H   0  0  0  0  0  0  0  0  0  0  0  0
   -5.8611    0.8474    0.9903 H   0  0  0  0  0  0  0  0  0  0  0  0
   -5.3668   -1.6939   -0.4535 H   0  0  0  0  0  0  0  0  0  0  0  0
   -5.1961   -0.3228   -2.2478 H   0  0  0  0  0  0  0  0  0  0  0  0
  1  2  1  0
  2  3  1  0
  3  4  1  0
  4  5  1  0
  1  6  1  0
  5  6  1  0
  5  7  1  0
  2  8  1  0
  3  9  1  0
  9 10  1  0
 10 11  1  0
 11 12  1  0
 12 13  1  0
 10 14  1  0
 12 15  1  0
 13 16  1  0
 16 17  1  0
 17 18  1  0
 18 19  1  0
 13 20  1  0
 19 20  1  0
 18 21  1  0
 21 22  1  0
 19 23  1  0
 22 23  1  0
 21 24  1  0
 24 25  1  0
 24 26  1  0
 24 27  1  0
  6 28  1  0
 29 30  1  0
 30 31  1  0
 31 32  1  0
 32 33  1  0
 29 34  1  0
 33 34  1  0
 33 35  1  0
 30 36  1  0
 31 37  1  0
 37 38  1  0
 38 39  1  0
 39 40  1  0
 40 41  1  0
 38 42  1  0
 40 43  1  0
 41 44  1  0
 44 45  1  0
 45 46  1  0
 46 47  1  0
 41 48  1  0
 47 48  1  0
 46 49  1  0
 49 50  1  0
 47 51  1  0
 50 51  1  0
 49 52  1  0
 52 53  1  0
 52 54  1  0
 52 55  1  0
 34 56  1  0
  1 57  1  0
  1 58  1  0
  2 59  1  0
  3 60  1  0
  4 61  1  0
  4 62  1  0
  5 63  1  0
  6 64  1  0
  9 65  1  0
  9 66  1  0
 10 67  1  6
 11 68  1  0
 11 69  1  0
 12 70  1  1
 14 71  1  0
 14 72  1  0
 15 73  1  0
 16 74  1  0
 16 75  1  0
 17 76  1  0
 17 77  1  0
 19 78  1  0
 20 79  1  0
 20 80  1  0
 21 81  1  0
 22 82  1  0
 23 83  1  0
 29 84  1  0
 29 85  1  0
 30 86  1  0
 31 87  1  0
 32 88  1  0
 32 89  1  0
 33 90  1  0
 34 91  1  0
 37 92  1  0
 37 93  1  0
 38 94  1  6
 39 95  1  0
 39 96  1  0
 40 97  1  0
 42 98  1  0
 42 99  1  0
 43100  1  0
 44101  1  0
 44102  1  0
 45103  1  0
 45104  1  0
 47105  1  0
 48106  1  0
 48107  1  0
 49108  1  0
 50109  1  0
 51110  1  0
M  END
>  <PDBID>  (1) 
1X70

>  <PDB ID>  (1) 
1X70

>  <Generic Name>  (1) 
Sitagliptin

>  <Brand Name>  (1) 
Janumet#Janumet XR#Januvia#Xelevia

>  <DrugBank ID>  (1) 
DB01261

>  <ATC Codes>  (1) 
A10BD12#A10BH51#A10BH01#A10BD07

>  <Ligand ID>  (1) 
715

>  <Target Name>  (1) 
Dipeptidyl peptidase 4

>  <UniProt ID>  (1) 
P27487

>  <PDB ID.1>  (1) 
1X70

>  <Seq. Identity>  (1) 
100%

$$$$
