PDB_DB00154_03
     RDKit          3D

 64 63  0  0  0  0  0  0  0  0999 V2000
   -8.2511    0.9196    0.2213 C   0  0  0  0  0  0  0  0  0  0  0  0
   -7.4859    1.7200    1.0311 O   0  0  0  0  0  0  0  0  0  0  0  0
   -9.0689    0.1316    1.0331 O   0  0  0  0  0  0  0  0  0  0  0  0
   -7.4737    0.0439   -0.7109 C   0  0  0  0  0  0  0  0  0  0  0  0
   -6.5547   -0.9074   -0.0269 C   0  0  0  0  0  0  0  0  0  0  0  0
   -5.4969   -0.2881    0.8227 C   0  0  0  0  0  0  0  0  0  0  0  0
   -4.5698    0.6221    0.0466 C   0  0  0  0  0  0  0  0  0  0  0  0
   -3.5626    1.1712    1.0311 C   0  0  0  0  0  0  0  0  0  0  0  0
   -2.5624    2.1048    0.4185 C   0  0  0  0  0  0  0  0  0  0  0  0
   -1.7984    1.3658   -0.6533 C   0  0  0  0  0  0  0  0  0  0  0  0
   -1.0586    0.1604   -0.0998 C   0  0  0  0  0  0  0  0  0  0  0  0
   -0.3410   -0.4761   -1.2730 C   0  0  0  0  0  0  0  0  0  0  0  0
    0.4298   -1.6926   -0.8223 C   0  0  0  0  0  0  0  0  0  0  0  0
    1.4745   -1.3674    0.2225 C   0  0  0  0  0  0  0  0  0  0  0  0
    2.4523   -0.3837   -0.3505 C   0  0  0  0  0  0  0  0  0  0  0  0
    3.5342    0.0049    0.6092 C   0  0  0  0  0  0  0  0  0  0  0  0
    4.3702   -1.1449    1.0783 C   0  0  0  0  0  0  0  0  0  0  0  0
    5.0421   -1.8184   -0.0762 C   0  0  0  0  0  0  0  0  0  0  0  0
    5.9431   -0.8887   -0.8396 C   0  0  0  0  0  0  0  0  0  0  0  0
    7.0514   -0.3179    0.0242 C   0  0  0  0  0  0  0  0  0  0  0  0
    7.9365    0.6096   -0.8049 C   0  0  0  0  0  0  0  0  0  0  0  0
    9.0312    1.1627    0.0826 C   0  0  0  0  0  0  0  0  0  0  0  0
   -8.9290    1.5724   -0.3601 H   0  0  0  0  0  0  0  0  0  0  0  0
   -8.0659    2.3307    1.5164 H   0  0  0  0  0  0  0  0  0  0  0  0
   -9.2037   -0.7710    0.6792 H   0  0  0  0  0  0  0  0  0  0  0  0
   -8.2205   -0.5732   -1.2724 H   0  0  0  0  0  0  0  0  0  0  0  0
   -6.9620    0.6638   -1.4779 H   0  0  0  0  0  0  0  0  0  0  0  0
   -6.0691   -1.5621   -0.7704 H   0  0  0  0  0  0  0  0  0  0  0  0
   -7.1807   -1.5447    0.6511 H   0  0  0  0  0  0  0  0  0  0  0  0
   -4.8588   -1.1436    1.1945 H   0  0  0  0  0  0  0  0  0  0  0  0
   -5.8467    0.2193    1.7262 H   0  0  0  0  0  0  0  0  0  0  0  0
   -5.1391    1.4789   -0.3626 H   0  0  0  0  0  0  0  0  0  0  0  0
   -4.0699    0.0710   -0.7873 H   0  0  0  0  0  0  0  0  0  0  0  0
   -4.1474    1.6900    1.8375 H   0  0  0  0  0  0  0  0  0  0  0  0
   -3.0851    0.3146    1.5426 H   0  0  0  0  0  0  0  0  0  0  0  0
   -3.0021    3.0286    0.0398 H   0  0  0  0  0  0  0  0  0  0  0  0
   -1.8165    2.3523    1.2258 H   0  0  0  0  0  0  0  0  0  0  0  0
   -1.0657    2.0781   -1.1266 H   0  0  0  0  0  0  0  0  0  0  0  0
   -2.4475    1.0492   -1.4965 H   0  0  0  0  0  0  0  0  0  0  0  0
   -0.3032    0.5186    0.6098 H   0  0  0  0  0  0  0  0  0  0  0  0
   -1.7649   -0.5743    0.2869 H   0  0  0  0  0  0  0  0  0  0  0  0
   -1.1180   -0.8156   -1.9843 H   0  0  0  0  0  0  0  0  0  0  0  0
    0.2660    0.2715   -1.7929 H   0  0  0  0  0  0  0  0  0  0  0  0
    0.9002   -2.2025   -1.6707 H   0  0  0  0  0  0  0  0  0  0  0  0
   -0.2964   -2.4007   -0.3692 H   0  0  0  0  0  0  0  0  0  0  0  0
    1.9436   -2.3295    0.5085 H   0  0  0  0  0  0  0  0  0  0  0  0
    0.9947   -0.9674    1.1251 H   0  0  0  0  0  0  0  0  0  0  0  0
    1.8756    0.5489   -0.5767 H   0  0  0  0  0  0  0  0  0  0  0  0
    2.9301   -0.7417   -1.2758 H   0  0  0  0  0  0  0  0  0  0  0  0
    4.2007    0.7651    0.1610 H   0  0  0  0  0  0  0  0  0  0  0  0
    3.1177    0.5112    1.5279 H   0  0  0  0  0  0  0  0  0  0  0  0
    5.1290   -0.7540    1.7850 H   0  0  0  0  0  0  0  0  0  0  0  0
    3.7715   -1.8659    1.6930 H   0  0  0  0  0  0  0  0  0  0  0  0
    5.5879   -2.7085    0.3112 H   0  0  0  0  0  0  0  0  0  0  0  0
    4.2954   -2.2002   -0.8285 H   0  0  0  0  0  0  0  0  0  0  0  0
    6.3791   -1.4418   -1.7141 H   0  0  0  0  0  0  0  0  0  0  0  0
    5.3250   -0.0835   -1.2883 H   0  0  0  0  0  0  0  0  0  0  0  0
    6.6510    0.2141    0.9072 H   0  0  0  0  0  0  0  0  0  0  0  0
    7.6813   -1.1593    0.3747 H   0  0  0  0  0  0  0  0  0  0  0  0
    7.3560    1.4696   -1.1855 H   0  0  0  0  0  0  0  0  0  0  0  0
    8.3446    0.0192   -1.6347 H   0  0  0  0  0  0  0  0  0  0  0  0
    8.5398    1.5577    0.9956 H   0  0  0  0  0  0  0  0  0  0  0  0
    9.4982    2.0189   -0.4243 H   0  0  0  0  0  0  0  0  0  0  0  0
    9.7635    0.3645    0.3221 H   0  0  0  0  0  0  0  0  0  0  0  0
  1  2  1  0
  1  3  1  0
  1  4  1  0
  4  5  1  0
  5  6  1  0
  6  7  1  0
  7  8  1  0
  8  9  1  0
  9 10  1  0
 10 11  1  0
 11 12  1  0
 12 13  1  0
 13 14  1  0
 14 15  1  0
 15 16  1  0
 16 17  1  0
 17 18  1  0
 18 19  1  0
 19 20  1  0
 20 21  1  0
 21 22  1  0
  1 23  1  0
  2 24  1  0
  3 25  1  0
  4 26  1  0
  4 27  1  0
  5 28  1  0
  5 29  1  0
  6 30  1  0
  6 31  1  0
  7 32  1  0
  7 33  1  0
  8 34  1  0
  8 35  1  0
  9 36  1  0
  9 37  1  0
 10 38  1  0
 10 39  1  0
 11 40  1  0
 11 41  1  0
 12 42  1  0
 12 43  1  0
 13 44  1  0
 13 45  1  0
 14 46  1  0
 14 47  1  0
 15 48  1  0
 15 49  1  0
 16 50  1  0
 16 51  1  0
 17 52  1  0
 17 53  1  0
 18 54  1  0
 18 55  1  0
 19 56  1  0
 19 57  1  0
 20 58  1  0
 20 59  1  0
 21 60  1  0
 21 61  1  0
 22 62  1  0
 22 63  1  0
 22 64  1  0
M  END
>  <PDBID>  (1) 
1FE2

>  <PDB ID>  (1) 
1FE2

>  <Generic Name>  (1) 
Dihomo-gamma-linolenic acid

>  <Brand Name>  (1) 
Star GLA#Tona-lean 1000 CLA

>  <DrugBank ID>  (1) 
DB00154

>  <ATC Codes>  (1) 
nan

>  <Ligand ID>  (1) 
LAX

>  <Target Name>  (1) 
Prostaglandin G/H synthase 1

>  <UniProt ID>  (1) 
P23219

>  <PDB ID.1>  (1) 
1FE2

>  <Seq. Identity>  (1) 
89%

$$$$
