PDB_DB01283_02
     RDKit          3D

 94 96  0  0  0  0  0  0  0  0999 V2000
   -3.5797    1.9714    1.2373 O   0  0  0  0  0  0  0  0  0  0  0  0
   -2.5840    2.5219    0.5032 C   0  0  0  0  0  0  0  0  0  0  0  0
   -2.2026    3.7298    1.1362 O   0  0  0  0  0  0  0  0  0  0  0  0
   -1.3075    1.7100    0.3852 C   0  0  0  0  0  0  0  0  0  0  0  0
   -1.4274    0.3913   -0.2407 C   0  0  0  0  0  0  0  0  0  0  0  0
   -2.3633   -0.5946    0.4664 C   0  0  0  0  0  0  0  0  0  0  0  0
   -2.6345   -1.7453   -0.4796 C   0  0  0  0  0  0  0  0  0  0  0  0
   -3.2920   -2.8369    0.3639 C   0  0  0  0  0  0  0  0  0  0  0  0
   -1.4316   -2.3343   -1.1199 C   0  0  0  0  0  0  0  0  0  0  0  0
   -0.3854   -1.3337   -1.5489 C   0  0  0  0  0  0  0  0  0  0  0  0
   -0.1267   -0.3298   -0.3961 C   0  0  0  0  0  0  0  0  0  0  0  0
    1.0679    0.3166   -0.6065 N   0  0  0  0  0  0  0  0  0  0  0  0
    1.7666    1.0984    0.3054 C   0  0  0  0  0  0  0  0  0  0  0  0
    2.2944    0.3406    1.5194 C   0  0  0  0  0  0  0  0  0  0  0  0
    1.1679    0.1412    2.8241 Cl  0  0  0  0  0  0  0  0  0  0  0  0
    2.9185   -0.9493    1.0438 C   0  0  0  0  0  0  0  0  0  0  0  0
    4.2036   -0.5309    0.3208 C   0  0  0  0  0  0  0  0  0  0  0  0
    3.8156    0.3710   -0.8282 C   0  0  0  0  0  0  0  0  0  0  0  0
    3.0446    1.5871   -0.4193 C   0  0  0  0  0  0  0  0  0  0  0  0
    2.6578    2.2404   -1.5724 F   0  0  0  0  0  0  0  0  0  0  0  0
   -3.5797    1.9714    1.2373 O   0  0  0  0  0  0  0  0  0  0  0  0
   -2.5840    2.5219    0.5032 C   0  0  0  0  0  0  0  0  0  0  0  0
   -2.2026    3.7298    1.1362 O   0  0  0  0  0  0  0  0  0  0  0  0
   -1.3075    1.7100    0.3852 C   0  0  0  0  0  0  0  0  0  0  0  0
   -1.4274    0.3913   -0.2407 C   0  0  0  0  0  0  0  0  0  0  0  0
   -2.3633   -0.5946    0.4664 C   0  0  0  0  0  0  0  0  0  0  0  0
   -2.6345   -1.7453   -0.4796 C   0  0  0  0  0  0  0  0  0  0  0  0
   -3.2920   -2.8369    0.3639 C   0  0  0  0  0  0  0  0  0  0  0  0
   -1.4316   -2.3343   -1.1199 C   0  0  0  0  0  0  0  0  0  0  0  0
   -0.3854   -1.3337   -1.5489 C   0  0  0  0  0  0  0  0  0  0  0  0
   -0.1267   -0.3298   -0.3961 C   0  0  0  0  0  0  0  0  0  0  0  0
    1.0679    0.3166   -0.6065 N   0  0  0  0  0  0  0  0  0  0  0  0
    1.7666    1.0984    0.3054 C   0  0  0  0  0  0  0  0  0  0  0  0
    2.2944    0.3406    1.5194 C   0  0  0  0  0  0  0  0  0  0  0  0
    1.1679    0.1412    2.8241 Cl  0  0  0  0  0  0  0  0  0  0  0  0
    2.9185   -0.9493    1.0438 C   0  0  0  0  0  0  0  0  0  0  0  0
    4.2036   -0.5309    0.3208 C   0  0  0  0  0  0  0  0  0  0  0  0
    3.8156    0.3710   -0.8282 C   0  0  0  0  0  0  0  0  0  0  0  0
    3.0446    1.5871   -0.4193 C   0  0  0  0  0  0  0  0  0  0  0  0
    2.6578    2.2404   -1.5724 F   0  0  0  0  0  0  0  0  0  0  0  0
   -3.8133    2.4947    2.0283 H   0  0  0  0  0  0  0  0  0  0  0  0
   -2.9215    2.8326   -0.5193 H   0  0  0  0  0  0  0  0  0  0  0  0
   -2.1382    4.4793    0.5097 H   0  0  0  0  0  0  0  0  0  0  0  0
   -0.6909    2.3431   -0.3269 H   0  0  0  0  0  0  0  0  0  0  0  0
   -0.8954    1.6248    1.3857 H   0  0  0  0  0  0  0  0  0  0  0  0
   -1.8791    0.5349   -1.2946 H   0  0  0  0  0  0  0  0  0  0  0  0
   -3.3236   -0.1884    0.7448 H   0  0  0  0  0  0  0  0  0  0  0  0
   -1.7696   -1.0151    1.3040 H   0  0  0  0  0  0  0  0  0  0  0  0
   -3.4198   -1.4273   -1.2052 H   0  0  0  0  0  0  0  0  0  0  0  0
   -3.6113   -3.6446   -0.3238 H   0  0  0  0  0  0  0  0  0  0  0  0
   -2.5017   -3.2355    1.0321 H   0  0  0  0  0  0  0  0  0  0  0  0
   -4.1257   -2.4292    0.9709 H   0  0  0  0  0  0  0  0  0  0  0  0
   -1.7585   -2.8699   -2.0424 H   0  0  0  0  0  0  0  0  0  0  0  0
   -0.9590   -3.1345   -0.4871 H   0  0  0  0  0  0  0  0  0  0  0  0
    0.5639   -1.8949   -1.6903 H   0  0  0  0  0  0  0  0  0  0  0  0
   -0.7064   -0.7902   -2.4398 H   0  0  0  0  0  0  0  0  0  0  0  0
   -0.0622   -0.9911    0.5326 H   0  0  0  0  0  0  0  0  0  0  0  0
    1.3785    0.4082   -1.6111 H   0  0  0  0  0  0  0  0  0  0  0  0
    1.2890    1.9975    0.7415 H   0  0  0  0  0  0  0  0  0  0  0  0
    3.1534    0.9691    1.9048 H   0  0  0  0  0  0  0  0  0  0  0  0
    2.2695   -1.4228    0.2990 H   0  0  0  0  0  0  0  0  0  0  0  0
    3.1270   -1.5764    1.9072 H   0  0  0  0  0  0  0  0  0  0  0  0
    4.6720   -1.4250   -0.0930 H   0  0  0  0  0  0  0  0  0  0  0  0
    4.8261   -0.0237    1.0683 H   0  0  0  0  0  0  0  0  0  0  0  0
    3.2797   -0.2605   -1.5597 H   0  0  0  0  0  0  0  0  0  0  0  0
    4.7618    0.6707   -1.3468 H   0  0  0  0  0  0  0  0  0  0  0  0
    3.6527    2.2090    0.2539 H   0  0  0  0  0  0  0  0  0  0  0  0
   -3.8133    2.4947    2.0283 H   0  0  0  0  0  0  0  0  0  0  0  0
   -2.9215    2.8326   -0.5193 H   0  0  0  0  0  0  0  0  0  0  0  0
   -2.1382    4.4793    0.5097 H   0  0  0  0  0  0  0  0  0  0  0  0
   -0.6909    2.3431   -0.3269 H   0  0  0  0  0  0  0  0  0  0  0  0
   -0.8954    1.6248    1.3857 H   0  0  0  0  0  0  0  0  0  0  0  0
   -1.8791    0.5349   -1.2946 H   0  0  0  0  0  0  0  0  0  0  0  0
   -3.3236   -0.1884    0.7448 H   0  0  0  0  0  0  0  0  0  0  0  0
   -1.7696   -1.0151    1.3040 H   0  0  0  0  0  0  0  0  0  0  0  0
   -3.4198   -1.4273   -1.2052 H   0  0  0  0  0  0  0  0  0  0  0  0
   -3.6113   -3.6446   -0.3238 H   0  0  0  0  0  0  0  0  0  0  0  0
   -2.5017   -3.2355    1.0321 H   0  0  0  0  0  0  0  0  0  0  0  0
   -4.1257   -2.4292    0.9709 H   0  0  0  0  0  0  0  0  0  0  0  0
   -1.7585   -2.8699   -2.0424 H   0  0  0  0  0  0  0  0  0  0  0  0
   -0.9590   -3.1345   -0.4871 H   0  0  0  0  0  0  0  0  0  0  0  0
    0.5639   -1.8949   -1.6903 H   0  0  0  0  0  0  0  0  0  0  0  0
   -0.7064   -0.7902   -2.4398 H   0  0  0  0  0  0  0  0  0  0  0  0
   -0.0622   -0.9911    0.5326 H   0  0  0  0  0  0  0  0  0  0  0  0
    1.3785    0.4082   -1.6111 H   0  0  0  0  0  0  0  0  0  0  0  0
    1.2890    1.9975    0.7415 H   0  0  0  0  0  0  0  0  0  0  0  0
    3.1534    0.9691    1.9048 H   0  0  0  0  0  0  0  0  0  0  0  0
    2.2695   -1.4228    0.2990 H   0  0  0  0  0  0  0  0  0  0  0  0
    3.1270   -1.5764    1.9072 H   0  0  0  0  0  0  0  0  0  0  0  0
    4.6720   -1.4250   -0.0930 H   0  0  0  0  0  0  0  0  0  0  0  0
    4.8261   -0.0237    1.0683 H   0  0  0  0  0  0  0  0  0  0  0  0
    3.2797   -0.2605   -1.5597 H   0  0  0  0  0  0  0  0  0  0  0  0
    4.7618    0.6707   -1.3468 H   0  0  0  0  0  0  0  0  0  0  0  0
    3.6527    2.2090    0.2539 H   0  0  0  0  0  0  0  0  0  0  0  0
  1  2  1  0
  2  3  1  0
  2  4  1  0
  4  5  1  0
  5  6  1  0
  6  7  1  0
  7  8  1  0
  7  9  1  0
  9 10  1  0
  5 11  1  0
 10 11  1  0
 11 12  1  0
 12 13  1  0
 13 14  1  0
 14 15  1  0
 14 16  1  0
 16 17  1  0
 17 18  1  0
 13 19  1  0
 18 19  1  0
 19 20  1  0
 21 22  1  0
 22 23  1  0
 22 24  1  0
 24 25  1  0
 25 26  1  0
 26 27  1  0
 27 28  1  0
 27 29  1  0
 29 30  1  0
 25 31  1  0
 30 31  1  0
 31 32  1  0
 32 33  1  0
 33 34  1  0
 34 35  1  0
 34 36  1  0
 36 37  1  0
 37 38  1  0
 33 39  1  0
 38 39  1  0
 39 40  1  0
  1 41  1  0
  2 42  1  0
  3 43  1  0
  4 44  1  0
  4 45  1  0
  5 46  1  0
  6 47  1  0
  6 48  1  0
  7 49  1  0
  8 50  1  0
  8 51  1  0
  8 52  1  0
  9 53  1  0
  9 54  1  0
 10 55  1  0
 10 56  1  0
 11 57  1  0
 12 58  1  0
 13 59  1  0
 14 60  1  0
 16 61  1  0
 16 62  1  0
 17 63  1  0
 17 64  1  0
 18 65  1  0
 18 66  1  0
 19 67  1  0
 21 68  1  0
 22 69  1  0
 23 70  1  0
 24 71  1  0
 24 72  1  0
 25 73  1  0
 26 74  1  0
 26 75  1  0
 27 76  1  0
 28 77  1  0
 28 78  1  0
 28 79  1  0
 29 80  1  0
 29 81  1  0
 30 82  1  0
 30 83  1  0
 31 84  1  0
 32 85  1  0
 33 86  1  0
 34 87  1  0
 36 88  1  0
 36 89  1  0
 37 90  1  0
 37 91  1  0
 38 92  1  0
 38 93  1  0
 39 94  1  0
M  END
>  <PDBID>  (1) 
4OTY

>  <PDB ID>  (1) 
4OTY

>  <Generic Name>  (1) 
Lumiracoxib

>  <Brand Name>  (1) 
Prexige

>  <DrugBank ID>  (1) 
DB01283

>  <ATC Codes>  (1) 
M01AH06

>  <Ligand ID>  (1) 
LUR

>  <Target Name>  (1) 
Prostaglandin G/H synthase 1

>  <UniProt ID>  (1) 
P23219

>  <PDB ID.1>  (1) 
4OTY

>  <Seq. Identity>  (1) 
62%

$$$$
