PDB_DB00990_05
     RDKit          3D

 56 59  0  0  0  0  0  0  0  0999 V2000
   -2.1493    0.3408    2.9531 C   0  0  0  0  0  0  0  0  0  0  0  0
   -2.2162    0.0258   -1.8502 C   0  0  0  0  0  0  0  0  0  0  0  0
   -3.7106   -1.5527   -0.3327 O   0  0  0  0  0  0  0  0  0  0  0  0
   -3.6727    0.3230   -1.7858 C   0  0  0  0  0  0  0  0  0  0  0  0
    5.0164   -0.9311   -0.7573 O   0  0  0  0  0  0  0  0  0  0  0  0
   -4.1328   -0.2463   -0.4352 C   0  0  0  0  0  0  0  0  0  0  0  0
   -3.5482    0.6633    0.5902 C   0  0  0  0  0  0  0  0  0  0  0  0
   -2.0917    0.8695    0.5258 C   0  0  0  0  0  0  0  0  0  0  0  0
   -1.4531    0.0267    1.6440 C   0  0  0  0  0  0  0  0  0  0  0  0
   -0.0009    0.4788    1.8245 C   0  0  0  0  0  0  0  0  0  0  0  0
    0.7247    0.2575    0.5335 C   0  0  2  0  0  0  0  0  0  0  0  0
   -0.1735   -0.1825   -0.5959 C   0  0  1  0  0  0  0  0  0  0  0  0
   -1.4033    0.6689   -0.7570 C   0  0  1  0  0  0  0  0  0  0  0  0
    0.6306   -0.1770   -1.8793 C   0  0  0  0  0  0  0  0  0  0  0  0
    1.8871   -0.9719   -1.7963 C   0  0  0  0  0  0  0  0  0  0  0  0
    2.6968   -0.5946   -0.6023 C   0  0  1  0  0  0  0  0  0  0  0  0
    1.7921   -0.7883    0.6206 C   0  0  1  0  0  0  0  0  0  0  0  0
    2.7422   -0.6702    1.7353 C   0  0  0  0  0  0  0  0  0  0  0  0
    3.9058   -1.5434    1.2405 C   0  0  0  0  0  0  0  0  0  0  0  0
    3.8238   -1.5105   -0.2784 C   0  0  0  0  0  0  0  0  0  0  0  0
    3.1698    0.8241   -0.7286 C   0  0  0  0  0  0  0  0  0  0  0  0
   -0.9247    2.0044   -1.3520 C   0  0  0  0  0  0  0  0  0  0  0  0
   -2.6917    1.3228    2.8891 H   0  0  0  0  0  0  0  0  0  0  0  0
   -1.4178    0.4733    3.7861 H   0  0  0  0  0  0  0  0  0  0  0  0
   -2.8229   -0.4786    3.2770 H   0  0  0  0  0  0  0  0  0  0  0  0
   -1.8564    0.3565   -2.8680 H   0  0  0  0  0  0  0  0  0  0  0  0
   -2.0888   -1.0767   -1.8383 H   0  0  0  0  0  0  0  0  0  0  0  0
   -3.5998   -1.8588    0.5904 H   0  0  0  0  0  0  0  0  0  0  0  0
   -4.1755   -0.1647   -2.6182 H   0  0  0  0  0  0  0  0  0  0  0  0
   -3.8868    1.4167   -1.7184 H   0  0  0  0  0  0  0  0  0  0  0  0
    5.5778   -0.5891   -0.0089 H   0  0  0  0  0  0  0  0  0  0  0  0
   -5.2372   -0.1427   -0.4076 H   0  0  0  0  0  0  0  0  0  0  0  0
   -3.8708    0.2686    1.5992 H   0  0  0  0  0  0  0  0  0  0  0  0
   -4.1064    1.6435    0.5072 H   0  0  0  0  0  0  0  0  0  0  0  0
   -1.8888    1.9316    0.8644 H   0  0  0  0  0  0  0  0  0  0  0  0
   -1.5020   -1.0397    1.4249 H   0  0  0  0  0  0  0  0  0  0  0  0
    0.4209   -0.0593    2.6811 H   0  0  0  0  0  0  0  0  0  0  0  0
   -0.0083    1.5706    2.0572 H   0  0  0  0  0  0  0  0  0  0  0  0
    1.2417    1.2077    0.2085 H   0  0  0  0  0  0  0  0  0  0  0  0
   -0.4595   -1.2463   -0.4100 H   0  0  0  0  0  0  0  0  0  0  0  0
    0.8197    0.8509   -2.2588 H   0  0  0  0  0  0  0  0  0  0  0  0
   -0.0095   -0.6576   -2.6767 H   0  0  0  0  0  0  0  0  0  0  0  0
    2.4842   -0.7776   -2.6984 H   0  0  0  0  0  0  0  0  0  0  0  0
    1.6759   -2.0623   -1.7844 H   0  0  0  0  0  0  0  0  0  0  0  0
    1.3865   -1.8003    0.5712 H   0  0  0  0  0  0  0  0  0  0  0  0
    3.1368    0.3171    1.9558 H   0  0  0  0  0  0  0  0  0  0  0  0
    2.3522   -1.0900    2.6927 H   0  0  0  0  0  0  0  0  0  0  0  0
    3.7031   -2.5975    1.5463 H   0  0  0  0  0  0  0  0  0  0  0  0
    4.8757   -1.1711    1.6178 H   0  0  0  0  0  0  0  0  0  0  0  0
    3.6543   -2.5165   -0.7096 H   0  0  0  0  0  0  0  0  0  0  0  0
    2.5820    1.4403   -1.4187 H   0  0  0  0  0  0  0  0  0  0  0  0
    3.2757    1.3615    0.2096 H   0  0  0  0  0  0  0  0  0  0  0  0
    4.2048    0.7713   -1.1786 H   0  0  0  0  0  0  0  0  0  0  0  0
   -0.0428    2.3901   -0.8455 H   0  0  0  0  0  0  0  0  0  0  0  0
   -1.7627    2.7229   -1.1096 H   0  0  0  0  0  0  0  0  0  0  0  0
   -0.8759    1.9691   -2.4453 H   0  0  0  0  0  0  0  0  0  0  0  0
  2  4  1  0
  3  6  1  0
  4  6  1  0
  6  7  1  0
  7  8  1  0
  1  9  1  0
  8  9  1  0
  9 10  1  0
 10 11  1  0
 11 12  1  0
  2 13  1  0
  8 13  1  0
 12 13  1  0
 12 14  1  0
 14 15  1  0
 15 16  1  0
 11 17  1  0
 16 17  1  0
 17 18  1  0
 18 19  1  0
  5 20  1  0
 16 20  1  0
 19 20  1  0
 16 21  1  6
 13 22  1  6
  1 23  1  0
  1 24  1  0
  1 25  1  0
  2 26  1  0
  2 27  1  0
  3 28  1  0
  4 29  1  0
  4 30  1  0
  5 31  1  0
  6 32  1  0
  7 33  1  0
  7 34  1  0
  8 35  1  0
  9 36  1  0
 10 37  1  0
 10 38  1  0
 11 39  1  6
 12 40  1  1
 14 41  1  0
 14 42  1  0
 15 43  1  0
 15 44  1  0
 17 45  1  6
 18 46  1  0
 18 47  1  0
 19 48  1  0
 19 49  1  0
 20 50  1  0
 21 51  1  0
 21 52  1  0
 21 53  1  0
 22 54  1  0
 22 55  1  0
 22 56  1  0
M  END
>  <PDBID>  (1) 
3S7S

>  <PDB ID>  (1) 
3S7S

>  <Generic Name>  (1) 
Exemestane

>  <Brand Name>  (1) 
Act Exemestane#Apo-exemestane#Aromasin#Exemestane#Gd-exemestane#Med-exemestane#Mylan-exemestane#Teva-exemestane#Exemestance

>  <DrugBank ID>  (1) 
DB00990

>  <ATC Codes>  (1) 
L02BG06

>  <Ligand ID>  (1) 
EXM

>  <Target Name>  (1) 
Aromatase

>  <UniProt ID>  (1) 
P11511

>  <PDB ID.1>  (1) 
3S7S

>  <Seq. Identity>  (1) 
98%

$$$$
