PDB_DB01259_08
     RDKit          3D

 94 98  0  0  0  0  0  0  0  0999 V2000
    9.4042   -2.6475    1.5498 C   0  0  0  0  0  0  0  0  0  0  0  0
    9.0708   -1.9420    0.0601 S   0  0  0  0  0  0  0  0  0  0  0  0
    7.4578   -1.9824   -0.1707 O   0  0  0  0  0  0  0  0  0  0  0  0
    9.7951   -2.8098   -1.1615 O   0  0  0  0  0  0  0  0  0  0  0  0
    9.6437   -0.3413   -0.0278 C   0  0  0  0  0  0  0  0  0  0  0  0
    9.0719    0.6026    0.9870 C   0  0  0  0  0  0  0  0  0  0  0  0
    7.6508    0.7294    0.9159 N   0  0  0  0  0  0  0  0  0  0  0  0
    7.1545    1.3649   -0.2637 C   0  0  0  0  0  0  0  0  0  0  0  0
    5.6284    1.3883   -0.1796 C   0  0  0  0  0  0  0  0  0  0  0  0
    5.2589    2.1028    1.0869 C   0  0  0  0  0  0  0  0  0  0  0  0
    4.4846    1.0721    1.8373 C   0  0  0  0  0  0  0  0  0  0  0  0
    4.0964    0.0870    0.8085 C   0  0  0  0  0  0  0  0  0  0  0  0
    5.1663    0.0967   -0.0770 O   0  0  0  0  0  0  0  0  0  0  0  0
    2.8838    0.4695   -0.0282 C   0  0  0  0  0  0  0  0  0  0  0  0
    2.6717   -0.6337   -1.0001 C   0  0  0  0  0  0  0  0  0  0  0  0
    1.2708   -0.8856   -1.4336 C   0  0  0  0  0  0  0  0  0  0  0  0
    0.5641    0.4458   -1.3893 C   0  0  0  0  0  0  0  0  0  0  0  0
    1.3664    1.4829   -2.0088 N   0  0  0  0  0  0  0  0  0  0  0  0
    0.8572    2.8020   -1.7112 C   0  0  0  0  0  0  0  0  0  0  0  0
   -0.4218    2.7788   -1.0638 N   0  0  0  0  0  0  0  0  0  0  0  0
   -0.4086    1.9996    0.1815 C   0  0  0  0  0  0  0  0  0  0  0  0
   -1.7195    1.9259    0.6322 N   0  0  0  0  0  0  0  0  0  0  0  0
   -2.7753    1.2710   -0.0062 C   0  0  0  0  0  0  0  0  0  0  0  0
   -2.7963   -0.2183   -0.1190 C   0  0  0  0  0  0  0  0  0  0  0  0
   -3.9313   -0.5386   -1.1094 C   0  0  0  0  0  0  0  0  0  0  0  0
   -5.2460   -0.2855   -0.4556 C   0  0  0  0  0  0  0  0  0  0  0  0
   -5.8685   -1.4224    0.0245 O   0  0  0  0  0  0  0  0  0  0  0  0
   -6.9788   -1.8423   -0.6204 C   0  0  0  0  0  0  0  0  0  0  0  0
   -8.1548   -0.9108   -0.6846 C   0  0  0  0  0  0  0  0  0  0  0  0
   -9.2272   -1.6630   -1.4871 C   0  0  0  0  0  0  0  0  0  0  0  0
  -10.5886   -1.5694   -0.8392 C   0  0  0  0  0  0  0  0  0  0  0  0
  -10.4907   -2.3161    0.4789 C   0  0  0  0  0  0  0  0  0  0  0  0
   -9.4532   -1.6683    1.3450 C   0  0  0  0  0  0  0  0  0  0  0  0
  -10.1564   -1.0746    2.4055 F   0  0  0  0  0  0  0  0  0  0  0  0
   -8.7035   -0.5492    0.6785 C   0  0  0  0  0  0  0  0  0  0  0  0
   -5.1700    0.7226    0.6224 C   0  0  0  0  0  0  0  0  0  0  0  0
   -5.0841   -0.0502    2.2425 Cl  0  0  0  0  0  0  0  0  0  0  0  0
   -4.1375    1.7754    0.4824 C   0  0  0  0  0  0  0  0  0  0  0  0
    0.3841    0.7679    0.0772 C   0  0  0  0  0  0  0  0  0  0  0  0
    1.7274    0.9327    0.7586 C   0  0  0  0  0  0  0  0  0  0  0  0
    8.7307   -3.5325    1.7387 H   0  0  0  0  0  0  0  0  0  0  0  0
    9.2417   -1.9575    2.4001 H   0  0  0  0  0  0  0  0  0  0  0  0
   10.4547   -3.0393    1.6607 H   0  0  0  0  0  0  0  0  0  0  0  0
    7.2266   -2.7551   -0.7698 H   0  0  0  0  0  0  0  0  0  0  0  0
    9.7828   -2.2153   -1.9726 H   0  0  0  0  0  0  0  0  0  0  0  0
    9.5283    0.0986   -1.0377 H   0  0  0  0  0  0  0  0  0  0  0  0
   10.7585   -0.3542    0.1483 H   0  0  0  0  0  0  0  0  0  0  0  0
    9.6167    1.5561    0.9402 H   0  0  0  0  0  0  0  0  0  0  0  0
    9.3000    0.1798    2.0092 H   0  0  0  0  0  0  0  0  0  0  0  0
    7.1787   -0.1265    1.2099 H   0  0  0  0  0  0  0  0  0  0  0  0
    7.4900    0.9059   -1.1974 H   0  0  0  0  0  0  0  0  0  0  0  0
    7.4667    2.4510   -0.2283 H   0  0  0  0  0  0  0  0  0  0  0  0
    5.2266    1.9225   -1.0895 H   0  0  0  0  0  0  0  0  0  0  0  0
    4.6953    3.0410    0.9020 H   0  0  0  0  0  0  0  0  0  0  0  0
    6.1428    2.4057    1.6869 H   0  0  0  0  0  0  0  0  0  0  0  0
    5.1708    0.5684    2.5489 H   0  0  0  0  0  0  0  0  0  0  0  0
    3.6559    1.4853    2.4383 H   0  0  0  0  0  0  0  0  0  0  0  0
    3.9802   -0.9521    1.1956 H   0  0  0  0  0  0  0  0  0  0  0  0
    3.2559    1.3606   -0.6214 H   0  0  0  0  0  0  0  0  0  0  0  0
    3.0420   -1.6013   -0.5476 H   0  0  0  0  0  0  0  0  0  0  0  0
    3.3076   -0.5290   -1.9193 H   0  0  0  0  0  0  0  0  0  0  0  0
    0.7351   -1.5949   -0.7455 H   0  0  0  0  0  0  0  0  0  0  0  0
    1.2588   -1.2420   -2.4697 H   0  0  0  0  0  0  0  0  0  0  0  0
   -0.4091    0.3845   -1.8680 H   0  0  0  0  0  0  0  0  0  0  0  0
    1.4581    1.3003   -3.0316 H   0  0  0  0  0  0  0  0  0  0  0  0
    0.7239    3.3190   -2.6825 H   0  0  0  0  0  0  0  0  0  0  0  0
    1.6485    3.3552   -1.1700 H   0  0  0  0  0  0  0  0  0  0  0  0
   -0.5985    3.7751   -0.7412 H   0  0  0  0  0  0  0  0  0  0  0  0
    0.1629    2.6570    0.9521 H   0  0  0  0  0  0  0  0  0  0  0  0
   -1.8529    1.9114    1.6683 H   0  0  0  0  0  0  0  0  0  0  0  0
   -2.8109    1.6010   -1.1280 H   0  0  0  0  0  0  0  0  0  0  0  0
   -1.9244   -0.6982   -0.5375 H   0  0  0  0  0  0  0  0  0  0  0  0
   -3.0708   -0.6579    0.8672 H   0  0  0  0  0  0  0  0  0  0  0  0
   -3.8064   -1.5353   -1.5422 H   0  0  0  0  0  0  0  0  0  0  0  0
   -3.7933    0.1921   -1.9307 H   0  0  0  0  0  0  0  0  0  0  0  0
   -5.9226    0.0715   -1.2962 H   0  0  0  0  0  0  0  0  0  0  0  0
   -7.3596   -2.7355   -0.0324 H   0  0  0  0  0  0  0  0  0  0  0  0
   -6.7689   -2.3073   -1.6280 H   0  0  0  0  0  0  0  0  0  0  0  0
   -7.9302    0.0667   -1.1827 H   0  0  0  0  0  0  0  0  0  0  0  0
   -8.9975   -2.7452   -1.5696 H   0  0  0  0  0  0  0  0  0  0  0  0
   -9.2412   -1.2560   -2.5236 H   0  0  0  0  0  0  0  0  0  0  0  0
  -11.2811   -2.1595   -1.4789 H   0  0  0  0  0  0  0  0  0  0  0  0
  -10.9035   -0.5403   -0.6895 H   0  0  0  0  0  0  0  0  0  0  0  0
  -10.1392   -3.3585    0.2669 H   0  0  0  0  0  0  0  0  0  0  0  0
  -11.4989   -2.3504    0.9360 H   0  0  0  0  0  0  0  0  0  0  0  0
   -8.7547   -2.3782    1.8228 H   0  0  0  0  0  0  0  0  0  0  0  0
   -9.3746    0.3368    0.5182 H   0  0  0  0  0  0  0  0  0  0  0  0
   -7.8956   -0.2424    1.3398 H   0  0  0  0  0  0  0  0  0  0  0  0
   -6.1678    1.2664    0.6444 H   0  0  0  0  0  0  0  0  0  0  0  0
   -4.4876    2.6601   -0.0990 H   0  0  0  0  0  0  0  0  0  0  0  0
   -3.9321    2.1920    1.5136 H   0  0  0  0  0  0  0  0  0  0  0  0
   -0.1050   -0.0833    0.5610 H   0  0  0  0  0  0  0  0  0  0  0  0
    1.6686    0.4051    1.7287 H   0  0  0  0  0  0  0  0  0  0  0  0
    1.8208    2.0117    1.0353 H   0  0  0  0  0  0  0  0  0  0  0  0
  1  2  1  0
  2  3  1  0
  2  4  1  0
  2  5  1  0
  5  6  1  0
  6  7  1  0
  7  8  1  0
  8  9  1  0
  9 10  1  0
 10 11  1  0
 11 12  1  0
  9 13  1  0
 12 13  1  0
 12 14  1  0
 14 15  1  0
 15 16  1  0
 16 17  1  0
 17 18  1  0
 18 19  1  0
 19 20  1  0
 20 21  1  0
 21 22  1  0
 22 23  1  0
 23 24  1  0
 24 25  1  0
 25 26  1  0
 26 27  1  0
 27 28  1  0
 28 29  1  0
 29 30  1  0
 30 31  1  0
 31 32  1  0
 32 33  1  0
 33 34  1  0
 29 35  1  0
 33 35  1  0
 26 36  1  0
 36 37  1  0
 23 38  1  0
 36 38  1  0
 17 39  1  0
 21 39  1  0
 14 40  1  0
 39 40  1  0
  1 41  1  0
  1 42  1  0
  1 43  1  0
  3 44  1  0
  4 45  1  0
  5 46  1  0
  5 47  1  0
  6 48  1  0
  6 49  1  0
  7 50  1  0
  8 51  1  0
  8 52  1  0
  9 53  1  0
 10 54  1  0
 10 55  1  0
 11 56  1  0
 11 57  1  0
 12 58  1  0
 14 59  1  0
 15 60  1  0
 15 61  1  0
 16 62  1  0
 16 63  1  0
 17 64  1  0
 18 65  1  0
 19 66  1  0
 19 67  1  0
 20 68  1  0
 21 69  1  0
 22 70  1  0
 23 71  1  0
 24 72  1  0
 24 73  1  0
 25 74  1  0
 25 75  1  0
 26 76  1  0
 28 77  1  0
 28 78  1  0
 29 79  1  0
 30 80  1  0
 30 81  1  0
 31 82  1  0
 31 83  1  0
 32 84  1  0
 32 85  1  0
 33 86  1  0
 35 87  1  0
 35 88  1  0
 36 89  1  0
 38 90  1  0
 38 91  1  0
 39 92  1  0
 40 93  1  0
 40 94  1  0
M  END
>  <PDBID>  (1) 
1XKK

>  <PDB ID>  (1) 
1XKK

>  <Generic Name>  (1) 
Lapatinib

>  <Brand Name>  (1) 
Tykerb#Tycerb

>  <DrugBank ID>  (1) 
DB01259

>  <ATC Codes>  (1) 
L01XE07

>  <Ligand ID>  (1) 
FMM

>  <Target Name>  (1) 
Receptor tyrosine-protein kinase erbB-2

>  <UniProt ID>  (1) 
P04626

>  <PDB ID.1>  (1) 
1XKK

>  <Seq. Identity>  (1) 
78%

$$$$
