PDB_DB08809_05
     RDKit          3D

 10  9  0  0  0  0  0  0  0  0999 V2000
    0.9809   -0.1749   -0.1388 C   0  0  0  0  0  0  0  0  0  0  0  0
   -0.5431   -0.1362   -0.0256 C   0  0  0  0  0  0  0  0  0  0  0  0
   -1.0738    0.2634   -1.2459 O   0  0  0  0  0  0  0  0  0  0  0  0
    1.6586   -0.6843    1.4167 Cl  0  0  0  0  0  0  0  0  0  0  0  0
    1.5917    1.4853   -0.4359 Cl  0  0  0  0  0  0  0  0  0  0  0  0
   -0.8377    0.8872    0.8895 O   0  0  0  0  0  0  0  0  0  0  0  0
    1.2918   -0.8746   -0.9206 H   0  0  0  0  0  0  0  0  0  0  0  0
   -0.9183   -1.0945    0.3350 H   0  0  0  0  0  0  0  0  0  0  0  0
   -1.6775   -0.4070   -1.6489 H   0  0  0  0  0  0  0  0  0  0  0  0
   -0.4726    0.7355    1.7745 H   0  0  0  0  0  0  0  0  0  0  0  0
  1  2  1  0
  2  3  1  0
  1  4  1  0
  1  5  1  0
  2  6  1  0
  1  7  1  0
  2  8  1  0
  3  9  1  0
  6 10  1  0
M  END
>  <PDBID>  (1) 
2Q8H

>  <PDB ID>  (1) 
2Q8H

>  <Generic Name>  (1) 
Dichloroacetic Acid

>  <Brand Name>  (1) 
Bichloracetic Acid 100%

>  <DrugBank ID>  (1) 
DB08809

>  <ATC Codes>  (1) 
nan

>  <Ligand ID>  (1) 
TF4

>  <Target Name>  (1) 
[Pyruvate dehydrogenase (acetyl-transferring)] kinase isozyme 1, mitochondrial

>  <UniProt ID>  (1) 
Q15118

>  <PDB ID.1>  (1) 
2Q8H

>  <Seq. Identity>  (1) 
100%

$$$$
