PDB_DB01536_02
     RDKit          3D

 53 56  0  0  0  0  0  0  0  0999 V2000
   -2.4500   -1.2687    0.8415 C   0  0  0  0  0  0  0  0  0  0  0  0
   -1.5548   -0.3890   -0.0099 C   0  0  1  0  0  0  0  0  0  0  0  0
    0.5340   -1.7140    0.4501 C   0  0  0  0  0  0  0  0  0  0  0  0
    1.7508   -1.7232   -0.3822 C   0  0  0  0  0  0  0  0  0  0  0  0
    2.5688   -0.5043   -0.4060 C   0  0  1  0  0  0  0  0  0  0  0  0
    2.0311    0.4905    0.6134 C   0  0  1  0  0  0  0  0  0  0  0  0
    3.0268    1.5666    0.5306 C   0  0  0  0  0  0  0  0  0  0  0  0
    4.3464    0.8030    0.3998 C   0  0  0  0  0  0  0  0  0  0  0  0
    3.9688   -0.6393    0.1222 C   0  0  0  0  0  0  0  0  0  0  0  0
    2.6565    0.1043   -1.7827 C   0  0  0  0  0  0  0  0  0  0  0  0
   -1.5042   -0.8593   -1.4312 C   0  0  0  0  0  0  0  0  0  0  0  0
   -3.8093   -1.3839    0.2162 C   0  0  0  0  0  0  0  0  0  0  0  0
   -4.3312   -0.0472   -0.2190 C   0  0  0  0  0  0  0  0  0  0  0  0
   -3.5500    1.1087    0.3024 C   0  0  0  0  0  0  0  0  0  0  0  0
   -2.0772    1.0233    0.0971 C   0  0  0  0  0  0  0  0  0  0  0  0
   -1.4127    1.7520    1.2668 C   0  0  0  0  0  0  0  0  0  0  0  0
    0.0504    1.9919    0.9905 C   0  0  0  0  0  0  0  0  0  0  0  0
    0.6375    0.7972    0.2619 C   0  0  2  0  0  0  0  0  0  0  0  0
   -0.1723   -0.4379    0.6414 C   0  0  1  0  0  0  0  0  0  0  0  0
   -5.6387    0.0646    0.3094 O   0  0  0  0  0  0  0  0  0  0  0  0
    4.8302   -1.2507   -0.7619 O   0  0  0  0  0  0  0  0  0  0  0  0
   -1.9789   -2.2476    0.9658 H   0  0  0  0  0  0  0  0  0  0  0  0
   -2.5106   -0.7903    1.8468 H   0  0  0  0  0  0  0  0  0  0  0  0
    0.7915   -2.2001    1.4386 H   0  0  0  0  0  0  0  0  0  0  0  0
   -0.1978   -2.4462   -0.0071 H   0  0  0  0  0  0  0  0  0  0  0  0
    2.4143   -2.5865   -0.0765 H   0  0  0  0  0  0  0  0  0  0  0  0
    1.4721   -1.9807   -1.4474 H   0  0  0  0  0  0  0  0  0  0  0  0
    2.0838   -0.0019    1.6003 H   0  0  0  0  0  0  0  0  0  0  0  0
    3.0462    2.1095    1.5199 H   0  0  0  0  0  0  0  0  0  0  0  0
    2.8938    2.3158   -0.2469 H   0  0  0  0  0  0  0  0  0  0  0  0
    4.9131    0.8497    1.3747 H   0  0  0  0  0  0  0  0  0  0  0  0
    4.9544    1.1936   -0.4264 H   0  0  0  0  0  0  0  0  0  0  0  0
    3.9209   -1.1725    1.1124 H   0  0  0  0  0  0  0  0  0  0  0  0
    1.6885    0.2397   -2.2691 H   0  0  0  0  0  0  0  0  0  0  0  0
    3.2228    1.0375   -1.8023 H   0  0  0  0  0  0  0  0  0  0  0  0
    3.2278   -0.6263   -2.4116 H   0  0  0  0  0  0  0  0  0  0  0  0
   -1.7269   -1.9521   -1.4600 H   0  0  0  0  0  0  0  0  0  0  0  0
   -2.2146   -0.3021   -2.0906 H   0  0  0  0  0  0  0  0  0  0  0  0
   -0.4955   -0.6849   -1.9026 H   0  0  0  0  0  0  0  0  0  0  0  0
   -3.7672   -2.0955   -0.6352 H   0  0  0  0  0  0  0  0  0  0  0  0
   -4.4705   -1.8768    0.9862 H   0  0  0  0  0  0  0  0  0  0  0  0
   -4.4691   -0.0072   -1.3238 H   0  0  0  0  0  0  0  0  0  0  0  0
   -3.7863    1.2604    1.3809 H   0  0  0  0  0  0  0  0  0  0  0  0
   -3.9116    2.0255   -0.2251 H   0  0  0  0  0  0  0  0  0  0  0  0
   -1.7559    1.5709   -0.8216 H   0  0  0  0  0  0  0  0  0  0  0  0
   -1.6062    1.2554    2.2287 H   0  0  0  0  0  0  0  0  0  0  0  0
   -1.9234    2.7563    1.3001 H   0  0  0  0  0  0  0  0  0  0  0  0
    0.1160    2.8926    0.3310 H   0  0  0  0  0  0  0  0  0  0  0  0
    0.5723    2.2199    1.9225 H   0  0  0  0  0  0  0  0  0  0  0  0
    0.4449    0.9650   -0.8157 H   0  0  0  0  0  0  0  0  0  0  0  0
   -0.3824   -0.3031    1.7448 H   0  0  0  0  0  0  0  0  0  0  0  0
   -5.8380    1.0248    0.4444 H   0  0  0  0  0  0  0  0  0  0  0  0
    5.3716   -1.9276   -0.2624 H   0  0  0  0  0  0  0  0  0  0  0  0
  1  2  1  0
  3  4  1  0
  4  5  1  0
  5  6  1  0
  6  7  1  0
  7  8  1  0
  5  9  1  0
  8  9  1  0
  5 10  1  6
  2 11  1  6
  1 12  1  0
 12 13  1  0
 13 14  1  0
  2 15  1  0
 14 15  1  0
 15 16  1  0
 16 17  1  0
  6 18  1  0
 17 18  1  0
  2 19  1  0
  3 19  1  0
 18 19  1  0
 13 20  1  0
  9 21  1  0
  1 22  1  0
  1 23  1  0
  3 24  1  0
  3 25  1  0
  4 26  1  0
  4 27  1  0
  6 28  1  1
  7 29  1  0
  7 30  1  0
  8 31  1  0
  8 32  1  0
  9 33  1  0
 10 34  1  0
 10 35  1  0
 10 36  1  0
 11 37  1  0
 11 38  1  0
 11 39  1  0
 12 40  1  0
 12 41  1  0
 13 42  1  0
 14 43  1  0
 14 44  1  0
 15 45  1  0
 16 46  1  0
 16 47  1  0
 17 48  1  0
 17 49  1  0
 18 50  1  6
 19 51  1  1
 20 52  1  0
 21 53  1  0
M  END
>  <PDBID>  (1) 
1QYX

>  <PDB ID>  (1) 
1QYX

>  <Generic Name>  (1) 
4-Androstenedione

>  <Brand Name>  (1) 
nan

>  <DrugBank ID>  (1) 
DB01536

>  <ATC Codes>  (1) 
nan

>  <Ligand ID>  (1) 
ASD

>  <Target Name>  (1) 
Estradiol 17-beta-dehydrogenase 1

>  <UniProt ID>  (1) 
P14061

>  <PDB ID.1>  (1) 
1QYX

>  <Seq. Identity>  (1) 
89%

$$$$
