PDB_DB00307_08
     RDKit          3D

 70 72  0  0  0  0  0  0  0  0999 V2000
    6.2249    1.1043   -0.2251 O   0  0  0  0  0  0  0  0  0  0  0  0
    6.5406   -0.1273    0.3287 C   0  0  0  0  0  0  0  0  0  0  0  0
    7.0716   -0.9112   -0.6936 O   0  0  0  0  0  0  0  0  0  0  0  0
    5.2622   -0.7593    0.8181 C   0  0  0  0  0  0  0  0  0  0  0  0
    4.3292   -0.9235   -0.3773 C   0  0  0  0  0  0  0  0  0  0  0  0
    4.5213    0.1502    1.7840 C   0  0  0  0  0  0  0  0  0  0  0  0
    3.4898    0.9923    1.0443 C   0  0  0  0  0  0  0  0  0  0  0  0
    2.2887    0.0721    0.7062 C   0  0  0  0  0  0  0  0  0  0  0  0
    2.9507   -1.1740    0.1833 C   0  0  0  0  0  0  0  0  0  0  0  0
    1.3533    0.7412   -0.2237 C   0  0  0  0  0  0  0  0  0  0  0  0
    1.9602    1.1187   -1.5627 C   0  0  0  0  0  0  0  0  0  0  0  0
   -0.0209    0.2294   -0.3784 C   0  0  1  0  0  0  0  0  0  0  0  0
   -0.2829   -1.1347   -0.8698 C   0  0  0  0  0  0  0  0  0  0  0  0
    0.1479   -1.3603   -2.3258 C   0  0  0  0  0  0  0  0  0  0  0  0
   -1.8246   -1.2112   -0.9953 C   0  0  0  0  0  0  0  0  0  0  0  0
   -0.6846    0.3622    0.9882 C   0  0  0  0  0  0  0  0  0  0  0  0
   -2.1557    0.2432    1.0263 C   0  0  0  0  0  0  0  0  0  0  0  0
   -2.9303    1.4974    0.7689 C   0  0  0  0  0  0  0  0  0  0  0  0
   -3.9461    1.7974    1.8913 C   0  0  0  0  0  0  0  0  0  0  0  0
   -2.0750    2.7549    0.7385 C   0  0  0  0  0  0  0  0  0  0  0  0
   -3.7834    1.4159   -0.4828 C   0  0  0  0  0  0  0  0  0  0  0  0
   -4.6932    0.2486   -0.3386 C   0  0  0  0  0  0  0  0  0  0  0  0
   -4.0368   -1.0545   -0.0717 C   0  0  0  0  0  0  0  0  0  0  0  0
   -2.5668   -0.9658    0.2494 C   0  0  0  0  0  0  0  0  0  0  0  0
   -4.2290   -1.9027   -1.3440 C   0  0  0  0  0  0  0  0  0  0  0  0
   -4.7748   -1.8859    0.9910 C   0  0  0  0  0  0  0  0  0  0  0  0
    6.4500    1.8433    0.3971 H   0  0  0  0  0  0  0  0  0  0  0  0
    7.3063   -0.0701    1.1262 H   0  0  0  0  0  0  0  0  0  0  0  0
    6.7689   -0.6450   -1.5888 H   0  0  0  0  0  0  0  0  0  0  0  0
    5.4995   -1.7344    1.2422 H   0  0  0  0  0  0  0  0  0  0  0  0
    4.4033   -0.0783   -1.0548 H   0  0  0  0  0  0  0  0  0  0  0  0
    4.6299   -1.8377   -0.9230 H   0  0  0  0  0  0  0  0  0  0  0  0
    3.9502   -0.5180    2.4678 H   0  0  0  0  0  0  0  0  0  0  0  0
    5.2523    0.7792    2.2912 H   0  0  0  0  0  0  0  0  0  0  0  0
    3.8883    1.4786    0.1561 H   0  0  0  0  0  0  0  0  0  0  0  0
    3.1678    1.7848    1.7468 H   0  0  0  0  0  0  0  0  0  0  0  0
    1.7922   -0.0758    1.6798 H   0  0  0  0  0  0  0  0  0  0  0  0
    2.3781   -1.7666   -0.5163 H   0  0  0  0  0  0  0  0  0  0  0  0
    3.1255   -1.8492    1.0784 H   0  0  0  0  0  0  0  0  0  0  0  0
    1.2416    1.7954    0.2466 H   0  0  0  0  0  0  0  0  0  0  0  0
    2.3014    0.2721   -2.1508 H   0  0  0  0  0  0  0  0  0  0  0  0
    1.1359    1.6101   -2.1474 H   0  0  0  0  0  0  0  0  0  0  0  0
    2.7247    1.9161   -1.4574 H   0  0  0  0  0  0  0  0  0  0  0  0
   -0.5812    0.9171   -1.0794 H   0  0  0  0  0  0  0  0  0  0  0  0
    0.0448   -1.9550   -0.2068 H   0  0  0  0  0  0  0  0  0  0  0  0
    0.1470   -0.4315   -2.8940 H   0  0  0  0  0  0  0  0  0  0  0  0
   -0.6108   -2.0005   -2.8820 H   0  0  0  0  0  0  0  0  0  0  0  0
    1.0571   -1.9828   -2.4141 H   0  0  0  0  0  0  0  0  0  0  0  0
   -2.0619   -0.5455   -1.8369 H   0  0  0  0  0  0  0  0  0  0  0  0
   -2.0127   -2.2464   -1.3443 H   0  0  0  0  0  0  0  0  0  0  0  0
   -0.2559   -0.4832    1.6061 H   0  0  0  0  0  0  0  0  0  0  0  0
   -0.2893    1.2752    1.4652 H   0  0  0  0  0  0  0  0  0  0  0  0
   -2.3909   -0.0047    2.1146 H   0  0  0  0  0  0  0  0  0  0  0  0
   -4.2197    0.8992    2.4437 H   0  0  0  0  0  0  0  0  0  0  0  0
   -3.4905    2.4860    2.6637 H   0  0  0  0  0  0  0  0  0  0  0  0
   -4.8065    2.3696    1.4866 H   0  0  0  0  0  0  0  0  0  0  0  0
   -2.8232    3.6056    0.7553 H   0  0  0  0  0  0  0  0  0  0  0  0
   -1.4889    2.9074   -0.1501 H   0  0  0  0  0  0  0  0  0  0  0  0
   -1.5457    2.8532    1.7044 H   0  0  0  0  0  0  0  0  0  0  0  0
   -4.4380    2.3391   -0.4420 H   0  0  0  0  0  0  0  0  0  0  0  0
   -3.2281    1.4974   -1.4115 H   0  0  0  0  0  0  0  0  0  0  0  0
   -5.3974    0.4680    0.5068 H   0  0  0  0  0  0  0  0  0  0  0  0
   -5.3613    0.2350   -1.2500 H   0  0  0  0  0  0  0  0  0  0  0  0
   -2.3608   -1.8689    0.9066 H   0  0  0  0  0  0  0  0  0  0  0  0
   -5.3532   -1.9444   -1.4617 H   0  0  0  0  0  0  0  0  0  0  0  0
   -3.8577   -1.4115   -2.2374 H   0  0  0  0  0  0  0  0  0  0  0  0
   -3.9199   -2.9416   -1.1901 H   0  0  0  0  0  0  0  0  0  0  0  0
   -5.0314   -1.2692    1.8559 H   0  0  0  0  0  0  0  0  0  0  0  0
   -5.7297   -2.2445    0.5172 H   0  0  0  0  0  0  0  0  0  0  0  0
   -4.1465   -2.7454    1.2513 H   0  0  0  0  0  0  0  0  0  0  0  0
  1  2  1  0
  2  3  1  0
  2  4  1  0
  4  5  1  0
  4  6  1  0
  6  7  1  0
  7  8  1  0
  5  9  1  0
  8  9  1  0
  8 10  1  0
 10 11  1  0
 10 12  1  0
 12 13  1  0
 13 14  1  0
 13 15  1  0
 12 16  1  0
 16 17  1  0
 17 18  1  0
 18 19  1  0
 18 20  1  0
 18 21  1  0
 21 22  1  0
 22 23  1  0
 15 24  1  0
 17 24  1  0
 23 24  1  0
 23 25  1  0
 23 26  1  0
  1 27  1  0
  2 28  1  0
  3 29  1  0
  4 30  1  0
  5 31  1  0
  5 32  1  0
  6 33  1  0
  6 34  1  0
  7 35  1  0
  7 36  1  0
  8 37  1  0
  9 38  1  0
  9 39  1  0
 10 40  1  0
 11 41  1  0
 11 42  1  0
 11 43  1  0
 12 44  1  6
 13 45  1  0
 14 46  1  0
 14 47  1  0
 14 48  1  0
 15 49  1  0
 15 50  1  0
 16 51  1  0
 16 52  1  0
 17 53  1  0
 19 54  1  0
 19 55  1  0
 19 56  1  0
 20 57  1  0
 20 58  1  0
 20 59  1  0
 21 60  1  0
 21 61  1  0
 22 62  1  0
 22 63  1  0
 24 64  1  0
 25 65  1  0
 25 66  1  0
 25 67  1  0
 26 68  1  0
 26 69  1  0
 26 70  1  0
M  END
>  <PDBID>  (1) 
3H0A

>  <PDB ID>  (1) 
3H0A

>  <Generic Name>  (1) 
Bexarotene

>  <Brand Name>  (1) 
Bexarotene#Targretin

>  <DrugBank ID>  (1) 
DB00307

>  <ATC Codes>  (1) 
L01XX25

>  <Ligand ID>  (1) 
9RA

>  <Target Name>  (1) 
Retinoic acid receptor RXR-beta

>  <UniProt ID>  (1) 
P28702

>  <PDB ID.1>  (1) 
3H0A

>  <Seq. Identity>  (1) 
87%

$$$$
