PDB_DB00412_01
     RDKit          3D

 60 62  0  0  0  0  0  0  0  0999 V2000
    6.3573    1.3362   -1.1390 S   0  0  0  0  0  0  0  0  0  0  0  0
    8.6126    0.0625   -0.5311 O   0  0  0  0  0  0  0  0  0  0  0  0
    5.5733   -0.2843    2.2440 O   0  0  0  0  0  0  0  0  0  0  0  0
   -0.1283    0.4446   -0.4441 O   0  0  0  0  0  0  0  0  0  0  0  0
    7.2248    0.9003    1.2030 N   0  0  0  0  0  0  0  0  0  0  0  0
   -3.5968   -0.3966   -1.1557 N   0  0  0  0  0  0  0  0  0  0  0  0
   -4.5908    1.0456    0.5039 N   0  0  0  0  0  0  0  0  0  0  0  0
    7.8503    1.1152   -0.0862 C   0  0  0  0  0  0  0  0  0  0  0  0
    6.0980    0.0143    1.0149 C   0  0  0  0  0  0  0  0  0  0  0  0
    5.1238    0.7981    0.1205 C   0  0  2  0  0  0  0  0  0  0  0  0
    4.1015   -0.1026   -0.5010 C   0  0  0  0  0  0  0  0  0  0  0  0
    3.0630   -0.5641    0.5081 C   0  0  0  0  0  0  0  0  0  0  0  0
    2.1048   -1.4442   -0.2275 C   0  0  0  0  0  0  0  0  0  0  0  0
    0.7597   -1.5508    0.4450 C   0  0  0  0  0  0  0  0  0  0  0  0
    0.1816   -0.1790    0.7209 C   0  0  0  0  0  0  0  0  0  0  0  0
    1.0937    0.5439    1.6510 C   0  0  0  0  0  0  0  0  0  0  0  0
    2.4748    0.6559    1.1236 C   0  0  0  0  0  0  0  0  0  0  0  0
   -1.4385    0.6871   -0.7271 C   0  0  0  0  0  0  0  0  0  0  0  0
   -2.2265   -0.5826   -0.8600 C   0  0  0  0  0  0  0  0  0  0  0  0
   -3.9548    0.1230   -2.4175 C   0  0  0  0  0  0  0  0  0  0  0  0
   -4.5125   -0.2767   -0.0901 C   0  0  0  0  0  0  0  0  0  0  0  0
   -5.9601    1.4763    0.6916 C   0  0  0  0  0  0  0  0  0  0  0  0
   -6.6818    0.4213    1.4887 C   0  0  0  0  0  0  0  0  0  0  0  0
   -6.7889   -0.8635    0.6716 C   0  0  0  0  0  0  0  0  0  0  0  0
   -5.8948   -0.7503   -0.5311 C   0  0  0  0  0  0  0  0  0  0  0  0
    8.6241   -0.6339    0.1782 H   0  0  0  0  0  0  0  0  0  0  0  0
    5.9893   -1.1452    2.5642 H   0  0  0  0  0  0  0  0  0  0  0  0
    7.8989    0.4080    1.8269 H   0  0  0  0  0  0  0  0  0  0  0  0
   -4.1543    1.0458    1.4667 H   0  0  0  0  0  0  0  0  0  0  0  0
    8.4154    2.0686   -0.0343 H   0  0  0  0  0  0  0  0  0  0  0  0
    6.3741   -0.9076    0.4244 H   0  0  0  0  0  0  0  0  0  0  0  0
    4.7349    1.6682    0.6468 H   0  0  0  0  0  0  0  0  0  0  0  0
    3.6428    0.4233   -1.3577 H   0  0  0  0  0  0  0  0  0  0  0  0
    4.6510   -0.9640   -0.9436 H   0  0  0  0  0  0  0  0  0  0  0  0
    3.6354   -1.1636    1.2669 H   0  0  0  0  0  0  0  0  0  0  0  0
    2.0184   -1.0603   -1.2700 H   0  0  0  0  0  0  0  0  0  0  0  0
    2.5243   -2.4672   -0.3005 H   0  0  0  0  0  0  0  0  0  0  0  0
    0.7850   -2.1544    1.3598 H   0  0  0  0  0  0  0  0  0  0  0  0
    0.0698   -2.0237   -0.2837 H   0  0  0  0  0  0  0  0  0  0  0  0
   -0.7839   -0.3673    1.2759 H   0  0  0  0  0  0  0  0  0  0  0  0
    1.0277    0.0411    2.6443 H   0  0  0  0  0  0  0  0  0  0  0  0
    0.7224    1.5984    1.8217 H   0  0  0  0  0  0  0  0  0  0  0  0
    2.5507    1.5392    0.4229 H   0  0  0  0  0  0  0  0  0  0  0  0
    3.1431    0.9661    1.9783 H   0  0  0  0  0  0  0  0  0  0  0  0
   -1.6145    1.3812   -1.5546 H   0  0  0  0  0  0  0  0  0  0  0  0
   -1.8651    1.2149    0.1795 H   0  0  0  0  0  0  0  0  0  0  0  0
   -2.1551   -1.1494    0.0879 H   0  0  0  0  0  0  0  0  0  0  0  0
   -1.7899   -1.2697   -1.6286 H   0  0  0  0  0  0  0  0  0  0  0  0
   -4.6480    1.0016   -2.2852 H   0  0  0  0  0  0  0  0  0  0  0  0
   -4.5918   -0.6098   -2.9984 H   0  0  0  0  0  0  0  0  0  0  0  0
   -3.1108    0.3952   -3.0504 H   0  0  0  0  0  0  0  0  0  0  0  0
   -4.2200   -0.9885    0.7225 H   0  0  0  0  0  0  0  0  0  0  0  0
   -5.9127    2.3928    1.3272 H   0  0  0  0  0  0  0  0  0  0  0  0
   -6.4962    1.6675   -0.2444 H   0  0  0  0  0  0  0  0  0  0  0  0
   -7.6810    0.8100    1.7473 H   0  0  0  0  0  0  0  0  0  0  0  0
   -6.1414    0.1663    2.4213 H   0  0  0  0  0  0  0  0  0  0  0  0
   -6.5552   -1.7438    1.2810 H   0  0  0  0  0  0  0  0  0  0  0  0
   -7.8390   -0.9282    0.2867 H   0  0  0  0  0  0  0  0  0  0  0  0
   -6.3231   -0.0953   -1.2970 H   0  0  0  0  0  0  0  0  0  0  0  0
   -5.7703   -1.7452   -0.9754 H   0  0  0  0  0  0  0  0  0  0  0  0
  1  8  1  0
  2  8  1  0
  5  8  1  0
  3  9  1  0
  5  9  1  0
  1 10  1  0
  9 10  1  0
 10 11  1  0
 11 12  1  0
 12 13  1  0
 13 14  1  0
  4 15  1  0
 14 15  1  0
 15 16  1  0
 12 17  1  0
 16 17  1  0
  4 18  1  0
  6 19  1  0
 18 19  1  0
  6 20  1  0
  6 21  1  0
  7 21  1  0
  7 22  1  0
 22 23  1  0
 23 24  1  0
 21 25  1  0
 24 25  1  0
  2 26  1  0
  3 27  1  0
  5 28  1  0
  7 29  1  0
  8 30  1  0
  9 31  1  0
 10 32  1  1
 11 33  1  0
 11 34  1  0
 12 35  1  0
 13 36  1  0
 13 37  1  0
 14 38  1  0
 14 39  1  0
 15 40  1  0
 16 41  1  0
 16 42  1  0
 17 43  1  0
 17 44  1  0
 18 45  1  0
 18 46  1  0
 19 47  1  0
 19 48  1  0
 20 49  1  0
 20 50  1  0
 20 51  1  0
 21 52  1  0
 22 53  1  0
 22 54  1  0
 23 55  1  0
 23 56  1  0
 24 57  1  0
 24 58  1  0
 25 59  1  0
 25 60  1  0
M  END
>  <PDBID>  (1) 
3DZY

>  <PDB ID>  (1) 
3DZY

>  <Generic Name>  (1) 
Rosiglitazone

>  <Brand Name>  (1) 
Apo-rosiglitazone#Avandamet#Avandaryl#Avandia#Avandia 2mg#Avandia 4mg#Avandia 8mg#Dom-rosiglitazone#Mylan-rosiglitazone#PHL-rosiglitazone#PMS-rosiglitazone#PMS-rosiglitazone-metformin#Teva-rosiglitazone#Blutab#DH-Rosidia#Diaben#Diaglinex#Gaudil#Gliximina#Naidi#Rogelin#Roglit#Romerol#Rosit#Rosix#Rossini#Sensulin#Sheng Ao#Sheng Min

>  <DrugBank ID>  (1) 
DB00412

>  <ATC Codes>  (1) 
A10BD03#A10BG02#A10BD04

>  <Ligand ID>  (1) 
BRL,RGZ

>  <Target Name>  (1) 
Peroxisome proliferator-activated receptor gamma

>  <UniProt ID>  (1) 
P37231

>  <PDB ID.1>  (1) 
3DZY

>  <Seq. Identity>  (1) 
97%

$$$$
