PDB_DB06335_07
     RDKit          3D

106114  0  0  0  0  0  0  0  0999 V2000
   -1.1696    0.1184    0.0289 C   0  0  1  0  0  0  0  0  0  0  0  0
    0.2586   -0.1430    0.4632 C   0  0  1  0  0  0  0  0  0  0  0  0
   -2.0271   -0.4115    1.1746 C   0  0  0  0  0  0  0  0  0  0  0  0
   -3.5006   -0.2073    0.9487 C   0  0  1  0  0  0  0  0  0  0  0  0
   -2.9433    1.7178   -0.4451 C   0  0  2  0  0  0  0  0  0  0  0  0
   -3.0718   -0.5124   -1.4165 C   0  0  1  0  0  0  0  0  0  0  0  0
   -3.7359    1.2619    0.7406 C   0  0  0  0  0  0  0  0  0  0  0  0
   -3.8794   -1.0300   -0.2781 C   0  0  0  0  0  0  0  0  0  0  0  0
   -3.3903    0.9422   -1.6460 C   0  0  0  0  0  0  0  0  0  0  0  0
    3.8476   -1.3850   -1.2688 C   0  0  1  0  0  0  0  0  0  0  0  0
    4.8148   -0.2223   -1.3646 C   0  0  0  0  0  0  0  0  0  0  0  0
    3.5530   -1.8333    0.1346 C   0  0  0  0  0  0  0  0  0  0  0  0
    4.1721    0.0936    1.5540 C   0  0  0  0  0  0  0  0  0  0  0  0
    3.7146    1.3034    2.2133 N   0  0  0  0  0  0  0  0  0  0  0  0
   -1.4589    1.5552   -0.2775 C   0  0  0  0  0  0  0  0  0  0  0  0
   -1.5613   -0.6564   -1.2098 C   0  0  0  0  0  0  0  0  0  0  0  0
    1.2334    0.3211   -0.5602 C   0  0  0  0  0  0  0  0  0  0  0  0
    0.4137    0.5159    1.7431 N   0  0  0  0  0  0  0  0  0  0  0  0
    2.6048    0.3178   -0.2089 N   0  0  0  0  0  0  0  0  0  0  0  0
    1.0625   -0.3641   -1.7481 O   0  0  0  0  0  0  0  0  0  0  0  0
   -4.1797   -0.7444    2.0126 O   0  0  0  0  0  0  0  0  0  0  0  0
    3.3808    0.0278   -1.4048 C   0  0  2  0  0  0  0  0  0  0  0  0
    3.0298   -0.5917    0.7989 C   0  0  1  0  0  0  0  0  0  0  0  0
   -1.1696    0.1184    0.0289 C   0  0  1  0  0  0  0  0  0  0  0  0
    0.2586   -0.1430    0.4632 C   0  0  1  0  0  0  0  0  0  0  0  0
   -2.0271   -0.4115    1.1746 C   0  0  0  0  0  0  0  0  0  0  0  0
   -3.5006   -0.2073    0.9487 C   0  0  1  0  0  0  0  0  0  0  0  0
   -2.9433    1.7178   -0.4451 C   0  0  2  0  0  0  0  0  0  0  0  0
   -3.0718   -0.5124   -1.4165 C   0  0  1  0  0  0  0  0  0  0  0  0
   -3.7359    1.2619    0.7406 C   0  0  0  0  0  0  0  0  0  0  0  0
   -3.8794   -1.0300   -0.2781 C   0  0  0  0  0  0  0  0  0  0  0  0
   -3.3903    0.9422   -1.6460 C   0  0  0  0  0  0  0  0  0  0  0  0
    3.8476   -1.3850   -1.2688 C   0  0  1  0  0  0  0  0  0  0  0  0
    4.8148   -0.2223   -1.3646 C   0  0  0  0  0  0  0  0  0  0  0  0
    3.5530   -1.8333    0.1346 C   0  0  0  0  0  0  0  0  0  0  0  0
    4.1721    0.0936    1.5540 C   0  0  0  0  0  0  0  0  0  0  0  0
    3.7146    1.3034    2.2133 N   0  0  0  0  0  0  0  0  0  0  0  0
   -1.4589    1.5552   -0.2775 C   0  0  0  0  0  0  0  0  0  0  0  0
   -1.5613   -0.6564   -1.2098 C   0  0  0  0  0  0  0  0  0  0  0  0
    1.2334    0.3211   -0.5602 C   0  0  0  0  0  0  0  0  0  0  0  0
    0.4137    0.5159    1.7431 N   0  0  0  0  0  0  0  0  0  0  0  0
    2.6048    0.3178   -0.2089 N   0  0  0  0  0  0  0  0  0  0  0  0
    1.0625   -0.3641   -1.7481 O   0  0  0  0  0  0  0  0  0  0  0  0
   -4.1797   -0.7444    2.0126 O   0  0  0  0  0  0  0  0  0  0  0  0
    3.3808    0.0278   -1.4048 C   0  0  2  0  0  0  0  0  0  0  0  0
    3.0298   -0.5917    0.7989 C   0  0  1  0  0  0  0  0  0  0  0  0
    0.3656   -1.2348    0.5833 H   0  0  0  0  0  0  0  0  0  0  0  0
   -1.7793    0.0267    2.1383 H   0  0  0  0  0  0  0  0  0  0  0  0
   -1.8450   -1.5024    1.2006 H   0  0  0  0  0  0  0  0  0  0  0  0
   -3.1646    2.8096   -0.5841 H   0  0  0  0  0  0  0  0  0  0  0  0
   -3.2845   -1.0502   -2.3690 H   0  0  0  0  0  0  0  0  0  0  0  0
   -3.4102    1.7923    1.6375 H   0  0  0  0  0  0  0  0  0  0  0  0
   -4.8095    1.4620    0.5114 H   0  0  0  0  0  0  0  0  0  0  0  0
   -3.6732   -2.0792   -0.0290 H   0  0  0  0  0  0  0  0  0  0  0  0
   -4.9396   -0.8594   -0.5114 H   0  0  0  0  0  0  0  0  0  0  0  0
   -2.8789    1.2834   -2.5801 H   0  0  0  0  0  0  0  0  0  0  0  0
   -4.4963    1.0264   -1.7571 H   0  0  0  0  0  0  0  0  0  0  0  0
    3.7827   -2.1107   -2.1085 H   0  0  0  0  0  0  0  0  0  0  0  0
    5.4760   -0.0410   -0.5160 H   0  0  0  0  0  0  0  0  0  0  0  0
    5.3414   -0.1838   -2.3411 H   0  0  0  0  0  0  0  0  0  0  0  0
    4.4557   -2.2196    0.6548 H   0  0  0  0  0  0  0  0  0  0  0  0
    2.8080   -2.6635    0.1595 H   0  0  0  0  0  0  0  0  0  0  0  0
    4.5783   -0.5678    2.3492 H   0  0  0  0  0  0  0  0  0  0  0  0
    2.9324    1.7394    1.6485 H   0  0  0  0  0  0  0  0  0  0  0  0
    4.5106    1.9929    2.1012 H   0  0  0  0  0  0  0  0  0  0  0  0
   -1.0107    1.7623   -1.2953 H   0  0  0  0  0  0  0  0  0  0  0  0
   -1.1089    2.2949    0.4294 H   0  0  0  0  0  0  0  0  0  0  0  0
   -1.1562   -0.1076   -2.1165 H   0  0  0  0  0  0  0  0  0  0  0  0
   -1.2947   -1.7105   -1.1867 H   0  0  0  0  0  0  0  0  0  0  0  0
    0.9657    1.3977   -0.7825 H   0  0  0  0  0  0  0  0  0  0  0  0
    0.2074   -0.2055    2.4980 H   0  0  0  0  0  0  0  0  0  0  0  0
   -0.2133    1.2972    1.9231 H   0  0  0  0  0  0  0  0  0  0  0  0
    1.0522   -1.3517   -1.6190 H   0  0  0  0  0  0  0  0  0  0  0  0
   -3.7683   -0.4205    2.8502 H   0  0  0  0  0  0  0  0  0  0  0  0
    2.8998    0.2576   -2.3734 H   0  0  0  0  0  0  0  0  0  0  0  0
    2.2894   -0.9078    1.5349 H   0  0  0  0  0  0  0  0  0  0  0  0
    0.3656   -1.2348    0.5833 H   0  0  0  0  0  0  0  0  0  0  0  0
   -1.7793    0.0267    2.1383 H   0  0  0  0  0  0  0  0  0  0  0  0
   -1.8450   -1.5024    1.2006 H   0  0  0  0  0  0  0  0  0  0  0  0
   -3.1646    2.8096   -0.5841 H   0  0  0  0  0  0  0  0  0  0  0  0
   -3.2845   -1.0502   -2.3690 H   0  0  0  0  0  0  0  0  0  0  0  0
   -3.4102    1.7923    1.6375 H   0  0  0  0  0  0  0  0  0  0  0  0
   -4.8095    1.4620    0.5114 H   0  0  0  0  0  0  0  0  0  0  0  0
   -3.6732   -2.0792   -0.0290 H   0  0  0  0  0  0  0  0  0  0  0  0
   -4.9396   -0.8594   -0.5114 H   0  0  0  0  0  0  0  0  0  0  0  0
   -2.8789    1.2834   -2.5801 H   0  0  0  0  0  0  0  0  0  0  0  0
   -4.4963    1.0264   -1.7571 H   0  0  0  0  0  0  0  0  0  0  0  0
    3.7827   -2.1107   -2.1085 H   0  0  0  0  0  0  0  0  0  0  0  0
    5.4760   -0.0410   -0.5160 H   0  0  0  0  0  0  0  0  0  0  0  0
    5.3414   -0.1838   -2.3411 H   0  0  0  0  0  0  0  0  0  0  0  0
    4.4557   -2.2196    0.6548 H   0  0  0  0  0  0  0  0  0  0  0  0
    2.8080   -2.6635    0.1595 H   0  0  0  0  0  0  0  0  0  0  0  0
    4.5783   -0.5678    2.3492 H   0  0  0  0  0  0  0  0  0  0  0  0
    2.9324    1.7394    1.6485 H   0  0  0  0  0  0  0  0  0  0  0  0
    4.5106    1.9929    2.1012 H   0  0  0  0  0  0  0  0  0  0  0  0
   -1.0107    1.7623   -1.2953 H   0  0  0  0  0  0  0  0  0  0  0  0
   -1.1089    2.2949    0.4294 H   0  0  0  0  0  0  0  0  0  0  0  0
   -1.1562   -0.1076   -2.1165 H   0  0  0  0  0  0  0  0  0  0  0  0
   -1.2947   -1.7105   -1.1867 H   0  0  0  0  0  0  0  0  0  0  0  0
    0.9657    1.3977   -0.7825 H   0  0  0  0  0  0  0  0  0  0  0  0
    0.2074   -0.2055    2.4980 H   0  0  0  0  0  0  0  0  0  0  0  0
   -0.2133    1.2972    1.9231 H   0  0  0  0  0  0  0  0  0  0  0  0
    1.0522   -1.3517   -1.6190 H   0  0  0  0  0  0  0  0  0  0  0  0
   -3.7683   -0.4205    2.8502 H   0  0  0  0  0  0  0  0  0  0  0  0
    2.8998    0.2576   -2.3734 H   0  0  0  0  0  0  0  0  0  0  0  0
    2.2894   -0.9078    1.5349 H   0  0  0  0  0  0  0  0  0  0  0  0
  1  2  1  0
  1  3  1  0
  3  4  1  0
  4  7  1  0
  5  7  1  0
  4  8  1  0
  6  8  1  0
  5  9  1  0
  6  9  1  0
 10 11  1  0
 10 12  1  0
 13 14  1  0
  1 15  1  6
  5 15  1  0
  1 16  1  0
  6 16  1  0
  2 17  1  0
  2 18  1  0
 17 19  1  0
 17 20  1  0
  4 21  1  1
 10 22  1  0
 11 22  1  0
 19 22  1  0
 12 23  1  0
 13 23  1  0
 19 23  1  0
 24 25  1  0
 24 26  1  1
 26 27  1  0
 27 30  1  0
 28 30  1  0
 27 31  1  0
 29 31  1  0
 28 32  1  0
 29 32  1  0
 33 34  1  0
 33 35  1  0
 36 37  1  0
 24 38  1  0
 28 38  1  0
 24 39  1  0
 29 39  1  0
 25 40  1  0
 25 41  1  0
 40 42  1  0
 40 43  1  0
 27 44  1  1
 33 45  1  0
 34 45  1  0
 42 45  1  0
 35 46  1  0
 36 46  1  0
 42 46  1  0
  2 47  1  1
  3 48  1  0
  3 49  1  0
  5 50  1  6
  6 51  1  6
  7 52  1  0
  7 53  1  0
  8 54  1  0
  8 55  1  0
  9 56  1  0
  9 57  1  0
 10 58  1  6
 11 59  1  0
 11 60  1  0
 12 61  1  0
 12 62  1  0
 13 63  1  0
 14 64  1  0
 14 65  1  0
 15 66  1  0
 15 67  1  0
 16 68  1  0
 16 69  1  0
 17 70  1  0
 18 71  1  0
 18 72  1  0
 20 73  1  0
 21 74  1  0
 22 75  1  6
 23 76  1  1
 25 77  1  1
 26 78  1  0
 26 79  1  0
 28 80  1  6
 29 81  1  6
 30 82  1  0
 30 83  1  0
 31 84  1  0
 31 85  1  0
 32 86  1  0
 32 87  1  0
 33 88  1  6
 34 89  1  0
 34 90  1  0
 35 91  1  0
 35 92  1  0
 36 93  1  0
 37 94  1  0
 37 95  1  0
 38 96  1  0
 38 97  1  0
 39 98  1  0
 39 99  1  0
 40100  1  0
 41101  1  0
 41102  1  0
 43103  1  0
 44104  1  0
 45105  1  6
 46106  1  1
M  END
>  <PDBID>  (1) 
3BJM

>  <PDB ID>  (1) 
3BJM

>  <Generic Name>  (1) 
Saxagliptin

>  <Brand Name>  (1) 
Kombiglyze XR#Komboglyze#Onglyza#Qtern

>  <DrugBank ID>  (1) 
DB06335

>  <ATC Codes>  (1) 
A10BD10#A10BH03#A10BD21

>  <Ligand ID>  (1) 
BJM

>  <Target Name>  (1) 
Dipeptidyl peptidase 4

>  <UniProt ID>  (1) 
P27487

>  <PDB ID.1>  (1) 
3BJM

>  <Seq. Identity>  (1) 
100%

$$$$
