PDB_DB08915_07
     RDKit          3D

 74 77  0  0  0  0  0  0  0  0999 V2000
   -3.3788   -0.0517   -2.1256 C   0  0  0  0  0  0  0  0  0  0  0  0
   -3.2797   -1.2732   -1.2427 C   0  0  0  0  0  0  0  0  0  0  0  0
   -4.5619   -1.5340   -0.7671 O   0  0  0  0  0  0  0  0  0  0  0  0
   -4.7387   -0.7812    0.3736 C   0  0  0  0  0  0  0  0  0  0  0  0
   -5.8001    0.2795    0.1960 C   0  0  0  0  0  0  0  0  0  0  0  0
   -7.1179   -0.3950   -0.1424 C   0  0  0  0  0  0  0  0  0  0  0  0
   -8.2554    0.5299    0.2374 C   0  0  0  0  0  0  0  0  0  0  0  0
   -8.3221    0.6757    1.7336 C   0  0  0  0  0  0  0  0  0  0  0  0
   -6.9591    0.5653    2.3887 C   0  0  0  0  0  0  0  0  0  0  0  0
   -5.8795    1.1000    1.4527 C   0  0  0  0  0  0  0  0  0  0  0  0
   -3.4861   -0.2278    0.7814 N   0  0  0  0  0  0  0  0  0  0  0  0
   -2.5285   -1.0206    0.0338 C   0  0  0  0  0  0  0  0  0  0  0  0
   -1.2149   -0.2925   -0.1801 C   0  0  0  0  0  0  0  0  0  0  0  0
   -0.3309   -1.1035   -1.0653 C   0  0  0  0  0  0  0  0  0  0  0  0
    0.8656   -0.5182   -1.3275 O   0  0  0  0  0  0  0  0  0  0  0  0
    1.6868   -0.2289   -0.2617 C   0  0  0  0  0  0  0  0  0  0  0  0
    2.8592   -1.2164   -0.3773 C   0  0  0  0  0  0  0  0  0  0  0  0
    3.7676   -0.7740   -1.5101 C   0  0  0  0  0  0  0  0  0  0  0  0
    2.1654    1.1829   -0.3278 C   0  0  0  0  0  0  0  0  0  0  0  0
    1.6017    1.9292    0.8748 C   0  0  0  0  0  0  0  0  0  0  0  0
    2.2338    1.3533    2.1037 C   0  0  0  0  0  0  0  0  0  0  0  0
    3.6450    1.3804   -0.2492 C   0  0  0  0  0  0  0  0  0  0  0  0
    3.9205    0.9346    1.4814 S   0  0  0  0  0  0  0  0  0  0  0  0
    4.3994    0.5521   -1.2445 C   0  0  0  0  0  0  0  0  0  0  0  0
    5.8649    0.5885   -1.0585 C   0  0  0  0  0  0  0  0  0  0  0  0
    6.5397   -0.1221    0.0274 C   0  0  2  0  0  0  0  0  0  0  0  0
    7.9458    0.1894   -0.1132 O   0  0  0  0  0  0  0  0  0  0  0  0
    8.4424    0.7469    1.0351 C   0  0  0  0  0  0  0  0  0  0  0  0
    6.5470   -1.6317   -0.0983 C   0  0  0  0  0  0  0  0  0  0  0  0
    7.3670   -2.1864    0.9188 O   0  0  0  0  0  0  0  0  0  0  0  0
    7.0058   -2.0432   -1.3460 O   0  0  0  0  0  0  0  0  0  0  0  0
   -3.2443    0.8885   -1.5921 H   0  0  0  0  0  0  0  0  0  0  0  0
   -4.4049    0.0014   -2.5940 H   0  0  0  0  0  0  0  0  0  0  0  0
   -2.6540   -0.0921   -2.9623 H   0  0  0  0  0  0  0  0  0  0  0  0
   -2.8904   -2.1619   -1.7603 H   0  0  0  0  0  0  0  0  0  0  0  0
   -5.0893   -1.4700    1.1845 H   0  0  0  0  0  0  0  0  0  0  0  0
   -5.4821    0.9253   -0.6572 H   0  0  0  0  0  0  0  0  0  0  0  0
   -7.1908   -1.3678    0.4197 H   0  0  0  0  0  0  0  0  0  0  0  0
   -7.1482   -0.6372   -1.2072 H   0  0  0  0  0  0  0  0  0  0  0  0
   -8.0326    1.5126   -0.2299 H   0  0  0  0  0  0  0  0  0  0  0  0
   -9.1925    0.0703   -0.1387 H   0  0  0  0  0  0  0  0  0  0  0  0
   -8.8212    1.6409    2.0072 H   0  0  0  0  0  0  0  0  0  0  0  0
   -8.9930   -0.1336    2.1050 H   0  0  0  0  0  0  0  0  0  0  0  0
   -6.9022    1.1337    3.3314 H   0  0  0  0  0  0  0  0  0  0  0  0
   -6.7994   -0.5083    2.6174 H   0  0  0  0  0  0  0  0  0  0  0  0
   -6.1981    2.1477    1.1979 H   0  0  0  0  0  0  0  0  0  0  0  0
   -4.9256    1.1235    2.0026 H   0  0  0  0  0  0  0  0  0  0  0  0
   -3.2746   -0.3418    1.7971 H   0  0  0  0  0  0  0  0  0  0  0  0
   -2.3236   -1.9747    0.5181 H   0  0  0  0  0  0  0  0  0  0  0  0
   -0.7699   -0.2311    0.8588 H   0  0  0  0  0  0  0  0  0  0  0  0
   -1.3429    0.7560   -0.5097 H   0  0  0  0  0  0  0  0  0  0  0  0
   -0.2398   -2.1131   -0.5822 H   0  0  0  0  0  0  0  0  0  0  0  0
   -0.8132   -1.3280   -2.0522 H   0  0  0  0  0  0  0  0  0  0  0  0
    1.2341   -0.4748    0.7141 H   0  0  0  0  0  0  0  0  0  0  0  0
    2.4095   -2.1806   -0.6739 H   0  0  0  0  0  0  0  0  0  0  0  0
    3.3764   -1.3702    0.5785 H   0  0  0  0  0  0  0  0  0  0  0  0
    4.3990   -1.5950   -1.8008 H   0  0  0  0  0  0  0  0  0  0  0  0
    3.0608   -0.6593   -2.4186 H   0  0  0  0  0  0  0  0  0  0  0  0
    1.7866    1.6876   -1.2232 H   0  0  0  0  0  0  0  0  0  0  0  0
    1.7391    3.0256    0.7860 H   0  0  0  0  0  0  0  0  0  0  0  0
    0.5206    1.7421    0.8992 H   0  0  0  0  0  0  0  0  0  0  0  0
    2.3046    2.1588    2.8630 H   0  0  0  0  0  0  0  0  0  0  0  0
    1.7148    0.4633    2.4518 H   0  0  0  0  0  0  0  0  0  0  0  0
    3.8656    2.4468   -0.4483 H   0  0  0  0  0  0  0  0  0  0  0  0
    4.2318    1.1398   -2.2244 H   0  0  0  0  0  0  0  0  0  0  0  0
    6.2468    1.6669   -1.0943 H   0  0  0  0  0  0  0  0  0  0  0  0
    6.2989    0.1937   -2.0443 H   0  0  0  0  0  0  0  0  0  0  0  0
    6.3006    0.1983    1.0477 H   0  0  0  0  0  0  0  0  0  0  0  0
    9.5177    0.9972    0.9590 H   0  0  0  0  0  0  0  0  0  0  0  0
    8.3556    0.0434    1.9049 H   0  0  0  0  0  0  0  0  0  0  0  0
    7.9289    1.6770    1.3484 H   0  0  0  0  0  0  0  0  0  0  0  0
    5.5684   -2.1020    0.0795 H   0  0  0  0  0  0  0  0  0  0  0  0
    6.9779   -1.9201    1.7892 H   0  0  0  0  0  0  0  0  0  0  0  0
    7.8908   -1.5863   -1.4814 H   0  0  0  0  0  0  0  0  0  0  0  0
  1  2  1  0
  2  3  1  0
  3  4  1  0
  4  5  1  0
  5  6  1  0
  6  7  1  0
  7  8  1  0
  8  9  1  0
  5 10  1  0
  9 10  1  0
  4 11  1  0
  2 12  1  0
 11 12  1  0
 12 13  1  0
 13 14  1  0
 14 15  1  0
 15 16  1  0
 16 17  1  0
 17 18  1  0
 16 19  1  0
 19 20  1  0
 20 21  1  0
 19 22  1  0
 21 23  1  0
 22 23  1  0
 18 24  1  0
 22 24  1  0
 24 25  1  0
 25 26  1  0
 26 27  1  0
 27 28  1  0
 26 29  1  0
 29 30  1  0
 29 31  1  0
  1 32  1  0
  1 33  1  0
  1 34  1  0
  2 35  1  0
  4 36  1  0
  5 37  1  0
  6 38  1  0
  6 39  1  0
  7 40  1  0
  7 41  1  0
  8 42  1  0
  8 43  1  0
  9 44  1  0
  9 45  1  0
 10 46  1  0
 10 47  1  0
 11 48  1  0
 12 49  1  0
 13 50  1  0
 13 51  1  0
 14 52  1  0
 14 53  1  0
 16 54  1  0
 17 55  1  0
 17 56  1  0
 18 57  1  0
 18 58  1  0
 19 59  1  0
 20 60  1  0
 20 61  1  0
 21 62  1  0
 21 63  1  0
 22 64  1  0
 24 65  1  0
 25 66  1  0
 25 67  1  0
 26 68  1  1
 28 69  1  0
 28 70  1  0
 28 71  1  0
 29 72  1  0
 30 73  1  0
 31 74  1  0
M  END
>  <PDBID>  (1) 
3G8I

>  <PDB ID>  (1) 
3G8I

>  <Generic Name>  (1) 
Aleglitazar

>  <Brand Name>  (1) 
nan

>  <DrugBank ID>  (1) 
DB08915

>  <ATC Codes>  (1) 
nan

>  <Ligand ID>  (1) 
RO7

>  <Target Name>  (1) 
Peroxisome proliferator-activated receptor alpha

>  <UniProt ID>  (1) 
Q07869

>  <PDB ID.1>  (1) 
3G8I

>  <Seq. Identity>  (1) 
100%

$$$$
