PDB_DB00278_03
     RDKit          3D

170174  0  0  0  0  0  0  0  0999 V2000
    1.0822    0.6064    0.9857 S   0  0  0  0  0  0  0  0  0  0  0  0
    0.5943   -0.7401    1.8855 O   0  0  0  0  0  0  0  0  0  0  0  0
    2.0674    1.3938    2.1408 O   0  0  0  0  0  0  0  0  0  0  0  0
    4.4272   -2.7887   -0.3840 C   0  0  0  0  0  0  0  0  0  0  0  0
    5.6323   -2.5311    0.4922 C   0  0  2  0  0  0  0  0  0  0  0  0
    5.7222   -1.0686    0.8608 C   0  0  0  0  0  0  0  0  0  0  0  0
    4.6938   -0.3266    0.0349 C   0  0  0  0  0  0  0  0  0  0  0  0
    4.7826    1.1599    0.2165 C   0  0  0  0  0  0  0  0  0  0  0  0
    3.8658    1.8281   -0.7449 C   0  0  0  0  0  0  0  0  0  0  0  0
    2.6504    1.0649   -1.1350 C   0  0  0  0  0  0  0  0  0  0  0  0
    2.2120   -0.0125   -0.2147 C   0  0  0  0  0  0  0  0  0  0  0  0
    3.3196   -0.8005    0.4230 C   0  0  0  0  0  0  0  0  0  0  0  0
    6.8651   -2.9018   -0.3040 C   0  0  0  0  0  0  0  0  0  0  0  0
    3.2244   -2.2181    0.1425 N   0  0  0  0  0  0  0  0  0  0  0  0
   -0.0233    1.3750    0.4301 N   0  0  0  0  0  0  0  0  0  0  0  0
   -1.4292    1.1055    0.3197 C   0  0  2  0  0  0  0  0  0  0  0  0
   -1.7681   -0.1023   -0.5234 C   0  0  0  0  0  0  0  0  0  0  0  0
   -1.2682   -0.0253   -1.8126 O   0  0  0  0  0  0  0  0  0  0  0  0
   -2.0753    2.2986   -0.3982 C   0  0  0  0  0  0  0  0  0  0  0  0
   -1.8908    3.5828    0.3381 C   0  0  0  0  0  0  0  0  0  0  0  0
   -2.5869    4.6624   -0.4980 C   0  0  0  0  0  0  0  0  0  0  0  0
   -3.9909    4.3691   -0.6515 N   0  0  0  0  0  0  0  0  0  0  0  0
   -4.5674    5.4359   -1.4490 C   0  0  0  0  0  0  0  0  0  0  0  0
   -4.4176    6.7296   -0.8364 N   0  0  0  0  0  0  0  0  0  0  0  0
   -6.0118    5.2065   -1.5897 N   0  0  0  0  0  0  0  0  0  0  0  0
   -1.5715   -1.3602    0.0823 N   0  0  0  0  0  0  0  0  0  0  0  0
   -2.3877   -1.6424    1.2104 C   0  0  2  0  0  0  0  0  0  0  0  0
   -2.0607   -2.9615    1.8194 C   0  0  0  0  0  0  0  0  0  0  0  0
   -2.3484   -4.0386    0.8379 C   0  0  1  0  0  0  0  0  0  0  0  0
   -1.6449   -3.7894   -0.4431 C   0  0  0  0  0  0  0  0  0  0  0  0
   -1.2233   -2.4270   -0.7686 C   0  0  0  0  0  0  0  0  0  0  0  0
   -3.8674   -1.4558    0.9919 C   0  0  0  0  0  0  0  0  0  0  0  0
   -4.4182   -2.2266    0.0074 O   0  0  0  0  0  0  0  0  0  0  0  0
   -4.4876   -1.8402    2.2052 O   0  0  0  0  0  0  0  0  0  0  0  0
   -1.8451   -5.3465    1.4684 C   0  0  0  0  0  0  0  0  0  0  0  0
    1.0822    0.6064    0.9857 S   0  0  0  0  0  0  0  0  0  0  0  0
    0.5943   -0.7401    1.8855 O   0  0  0  0  0  0  0  0  0  0  0  0
    2.0674    1.3938    2.1408 O   0  0  0  0  0  0  0  0  0  0  0  0
    4.4272   -2.7887   -0.3840 C   0  0  0  0  0  0  0  0  0  0  0  0
    5.6323   -2.5311    0.4922 C   0  0  2  0  0  0  0  0  0  0  0  0
    5.7222   -1.0686    0.8608 C   0  0  0  0  0  0  0  0  0  0  0  0
    4.6938   -0.3266    0.0349 C   0  0  0  0  0  0  0  0  0  0  0  0
    4.7826    1.1599    0.2165 C   0  0  0  0  0  0  0  0  0  0  0  0
    3.8658    1.8281   -0.7449 C   0  0  0  0  0  0  0  0  0  0  0  0
    2.6504    1.0649   -1.1350 C   0  0  0  0  0  0  0  0  0  0  0  0
    2.2120   -0.0125   -0.2147 C   0  0  0  0  0  0  0  0  0  0  0  0
    3.3196   -0.8005    0.4230 C   0  0  0  0  0  0  0  0  0  0  0  0
    6.8651   -2.9018   -0.3040 C   0  0  0  0  0  0  0  0  0  0  0  0
    3.2244   -2.2181    0.1425 N   0  0  0  0  0  0  0  0  0  0  0  0
   -0.0233    1.3750    0.4301 N   0  0  0  0  0  0  0  0  0  0  0  0
   -1.4292    1.1055    0.3197 C   0  0  2  0  0  0  0  0  0  0  0  0
   -1.7681   -0.1023   -0.5234 C   0  0  0  0  0  0  0  0  0  0  0  0
   -1.2682   -0.0253   -1.8126 O   0  0  0  0  0  0  0  0  0  0  0  0
   -2.0753    2.2986   -0.3982 C   0  0  0  0  0  0  0  0  0  0  0  0
   -1.8908    3.5828    0.3381 C   0  0  0  0  0  0  0  0  0  0  0  0
   -2.5869    4.6624   -0.4980 C   0  0  0  0  0  0  0  0  0  0  0  0
   -3.9909    4.3691   -0.6515 N   0  0  0  0  0  0  0  0  0  0  0  0
   -4.5674    5.4359   -1.4490 C   0  0  0  0  0  0  0  0  0  0  0  0
   -4.4176    6.7296   -0.8364 N   0  0  0  0  0  0  0  0  0  0  0  0
   -6.0118    5.2065   -1.5897 N   0  0  0  0  0  0  0  0  0  0  0  0
   -1.5715   -1.3602    0.0823 N   0  0  0  0  0  0  0  0  0  0  0  0
   -2.3877   -1.6424    1.2104 C   0  0  2  0  0  0  0  0  0  0  0  0
   -2.0607   -2.9615    1.8194 C   0  0  0  0  0  0  0  0  0  0  0  0
   -2.3484   -4.0386    0.8379 C   0  0  1  0  0  0  0  0  0  0  0  0
   -1.6449   -3.7894   -0.4431 C   0  0  0  0  0  0  0  0  0  0  0  0
   -1.2233   -2.4270   -0.7686 C   0  0  0  0  0  0  0  0  0  0  0  0
   -3.8674   -1.4558    0.9919 C   0  0  0  0  0  0  0  0  0  0  0  0
   -4.4182   -2.2266    0.0074 O   0  0  0  0  0  0  0  0  0  0  0  0
   -4.4876   -1.8402    2.2052 O   0  0  0  0  0  0  0  0  0  0  0  0
   -1.8451   -5.3465    1.4684 C   0  0  0  0  0  0  0  0  0  0  0  0
    1.3723   -1.0619    2.3912 H   0  0  0  0  0  0  0  0  0  0  0  0
    1.4523    1.7640    2.8046 H   0  0  0  0  0  0  0  0  0  0  0  0
    4.2783   -3.9082   -0.3645 H   0  0  0  0  0  0  0  0  0  0  0  0
    4.6265   -2.5387   -1.4448 H   0  0  0  0  0  0  0  0  0  0  0  0
    5.5929   -3.1823    1.3894 H   0  0  0  0  0  0  0  0  0  0  0  0
    6.7182   -0.6332    0.6625 H   0  0  0  0  0  0  0  0  0  0  0  0
    5.5040   -0.9348    1.9468 H   0  0  0  0  0  0  0  0  0  0  0  0
    4.8478   -0.5514   -1.0320 H   0  0  0  0  0  0  0  0  0  0  0  0
    5.8402    1.4482   -0.0443 H   0  0  0  0  0  0  0  0  0  0  0  0
    4.6685    1.4805    1.2713 H   0  0  0  0  0  0  0  0  0  0  0  0
    3.6405    2.8555   -0.3665 H   0  0  0  0  0  0  0  0  0  0  0  0
    4.4460    2.0181   -1.6966 H   0  0  0  0  0  0  0  0  0  0  0  0
    2.7379    0.6360   -2.1777 H   0  0  0  0  0  0  0  0  0  0  0  0
    1.7936    1.7941   -1.2432 H   0  0  0  0  0  0  0  0  0  0  0  0
    1.6145   -0.7513   -0.8165 H   0  0  0  0  0  0  0  0  0  0  0  0
    3.2751   -0.7170    1.5495 H   0  0  0  0  0  0  0  0  0  0  0  0
    7.5272   -2.0371   -0.5010 H   0  0  0  0  0  0  0  0  0  0  0  0
    7.4914   -3.6509    0.2573 H   0  0  0  0  0  0  0  0  0  0  0  0
    6.5977   -3.3981   -1.2797 H   0  0  0  0  0  0  0  0  0  0  0  0
    2.4848   -2.3269   -0.6055 H   0  0  0  0  0  0  0  0  0  0  0  0
    0.1471    2.2491   -0.1407 H   0  0  0  0  0  0  0  0  0  0  0  0
   -1.8834    1.0041    1.3394 H   0  0  0  0  0  0  0  0  0  0  0  0
   -2.9166   -0.0460   -0.7108 H   0  0  0  0  0  0  0  0  0  0  0  0
   -0.3623    0.3616   -1.8404 H   0  0  0  0  0  0  0  0  0  0  0  0
   -1.6576    2.4098   -1.4146 H   0  0  0  0  0  0  0  0  0  0  0  0
   -3.1634    2.1298   -0.5208 H   0  0  0  0  0  0  0  0  0  0  0  0
   -2.5059    3.5101    1.2821 H   0  0  0  0  0  0  0  0  0  0  0  0
   -0.8595    3.8665    0.5474 H   0  0  0  0  0  0  0  0  0  0  0  0
   -2.4000    5.6355   -0.0180 H   0  0  0  0  0  0  0  0  0  0  0  0
   -2.1488    4.7186   -1.5165 H   0  0  0  0  0  0  0  0  0  0  0  0
   -4.4989    4.1983    0.2207 H   0  0  0  0  0  0  0  0  0  0  0  0
   -4.1538    5.4644   -2.4690 H   0  0  0  0  0  0  0  0  0  0  0  0
   -4.8667    7.4224   -1.4782 H   0  0  0  0  0  0  0  0  0  0  0  0
   -4.9487    6.7772    0.0674 H   0  0  0  0  0  0  0  0  0  0  0  0
   -6.1971    4.2188   -1.3511 H   0  0  0  0  0  0  0  0  0  0  0  0
   -6.5613    5.8439   -0.9689 H   0  0  0  0  0  0  0  0  0  0  0  0
   -2.1267   -0.8807    2.0029 H   0  0  0  0  0  0  0  0  0  0  0  0
   -0.9926   -2.9914    2.0954 H   0  0  0  0  0  0  0  0  0  0  0  0
   -2.7309   -3.0996    2.7051 H   0  0  0  0  0  0  0  0  0  0  0  0
   -3.4419   -4.2152    0.7096 H   0  0  0  0  0  0  0  0  0  0  0  0
   -2.3234   -4.2111   -1.2500 H   0  0  0  0  0  0  0  0  0  0  0  0
   -0.7695   -4.5069   -0.4938 H   0  0  0  0  0  0  0  0  0  0  0  0
   -1.5876   -2.1631   -1.8076 H   0  0  0  0  0  0  0  0  0  0  0  0
   -0.0988   -2.4078   -0.8912 H   0  0  0  0  0  0  0  0  0  0  0  0
   -4.1393   -0.3775    0.8819 H   0  0  0  0  0  0  0  0  0  0  0  0
   -4.0602   -2.1441   -0.8882 H   0  0  0  0  0  0  0  0  0  0  0  0
   -5.3600   -2.2762    2.0190 H   0  0  0  0  0  0  0  0  0  0  0  0
   -1.7192   -6.0557    0.6275 H   0  0  0  0  0  0  0  0  0  0  0  0
   -0.8482   -5.1965    1.9307 H   0  0  0  0  0  0  0  0  0  0  0  0
   -2.5896   -5.7577    2.1769 H   0  0  0  0  0  0  0  0  0  0  0  0
    1.3723   -1.0619    2.3912 H   0  0  0  0  0  0  0  0  0  0  0  0
    1.4523    1.7640    2.8046 H   0  0  0  0  0  0  0  0  0  0  0  0
    4.2783   -3.9082   -0.3645 H   0  0  0  0  0  0  0  0  0  0  0  0
    4.6265   -2.5387   -1.4448 H   0  0  0  0  0  0  0  0  0  0  0  0
    5.5929   -3.1823    1.3894 H   0  0  0  0  0  0  0  0  0  0  0  0
    6.7182   -0.6332    0.6625 H   0  0  0  0  0  0  0  0  0  0  0  0
    5.5040   -0.9348    1.9468 H   0  0  0  0  0  0  0  0  0  0  0  0
    4.8478   -0.5514   -1.0320 H   0  0  0  0  0  0  0  0  0  0  0  0
    5.8402    1.4482   -0.0443 H   0  0  0  0  0  0  0  0  0  0  0  0
    4.6685    1.4805    1.2713 H   0  0  0  0  0  0  0  0  0  0  0  0
    3.6405    2.8555   -0.3665 H   0  0  0  0  0  0  0  0  0  0  0  0
    4.4460    2.0181   -1.6966 H   0  0  0  0  0  0  0  0  0  0  0  0
    2.7379    0.6360   -2.1777 H   0  0  0  0  0  0  0  0  0  0  0  0
    1.7936    1.7941   -1.2432 H   0  0  0  0  0  0  0  0  0  0  0  0
    1.6145   -0.7513   -0.8165 H   0  0  0  0  0  0  0  0  0  0  0  0
    3.2751   -0.7170    1.5495 H   0  0  0  0  0  0  0  0  0  0  0  0
    7.5272   -2.0371   -0.5010 H   0  0  0  0  0  0  0  0  0  0  0  0
    7.4914   -3.6509    0.2573 H   0  0  0  0  0  0  0  0  0  0  0  0
    6.5977   -3.3981   -1.2797 H   0  0  0  0  0  0  0  0  0  0  0  0
    2.4848   -2.3269   -0.6055 H   0  0  0  0  0  0  0  0  0  0  0  0
    0.1471    2.2491   -0.1407 H   0  0  0  0  0  0  0  0  0  0  0  0
   -1.8834    1.0041    1.3394 H   0  0  0  0  0  0  0  0  0  0  0  0
   -2.9166   -0.0460   -0.7108 H   0  0  0  0  0  0  0  0  0  0  0  0
   -0.3623    0.3616   -1.8404 H   0  0  0  0  0  0  0  0  0  0  0  0
   -1.6576    2.4098   -1.4146 H   0  0  0  0  0  0  0  0  0  0  0  0
   -3.1634    2.1298   -0.5208 H   0  0  0  0  0  0  0  0  0  0  0  0
   -2.5059    3.5101    1.2821 H   0  0  0  0  0  0  0  0  0  0  0  0
   -0.8595    3.8665    0.5474 H   0  0  0  0  0  0  0  0  0  0  0  0
   -2.4000    5.6355   -0.0180 H   0  0  0  0  0  0  0  0  0  0  0  0
   -2.1488    4.7186   -1.5165 H   0  0  0  0  0  0  0  0  0  0  0  0
   -4.4989    4.1983    0.2207 H   0  0  0  0  0  0  0  0  0  0  0  0
   -4.1538    5.4644   -2.4690 H   0  0  0  0  0  0  0  0  0  0  0  0
   -4.8667    7.4224   -1.4782 H   0  0  0  0  0  0  0  0  0  0  0  0
   -4.9487    6.7772    0.0674 H   0  0  0  0  0  0  0  0  0  0  0  0
   -6.1971    4.2188   -1.3511 H   0  0  0  0  0  0  0  0  0  0  0  0
   -6.5613    5.8439   -0.9689 H   0  0  0  0  0  0  0  0  0  0  0  0
   -2.1267   -0.8807    2.0029 H   0  0  0  0  0  0  0  0  0  0  0  0
   -0.9926   -2.9914    2.0954 H   0  0  0  0  0  0  0  0  0  0  0  0
   -2.7309   -3.0996    2.7051 H   0  0  0  0  0  0  0  0  0  0  0  0
   -3.4419   -4.2152    0.7096 H   0  0  0  0  0  0  0  0  0  0  0  0
   -2.3234   -4.2111   -1.2500 H   0  0  0  0  0  0  0  0  0  0  0  0
   -0.7695   -4.5069   -0.4938 H   0  0  0  0  0  0  0  0  0  0  0  0
   -1.5876   -2.1631   -1.8076 H   0  0  0  0  0  0  0  0  0  0  0  0
   -0.0988   -2.4078   -0.8912 H   0  0  0  0  0  0  0  0  0  0  0  0
   -4.1393   -0.3775    0.8819 H   0  0  0  0  0  0  0  0  0  0  0  0
   -4.0602   -2.1441   -0.8882 H   0  0  0  0  0  0  0  0  0  0  0  0
   -5.3600   -2.2762    2.0190 H   0  0  0  0  0  0  0  0  0  0  0  0
   -1.7192   -6.0557    0.6275 H   0  0  0  0  0  0  0  0  0  0  0  0
   -0.8482   -5.1965    1.9307 H   0  0  0  0  0  0  0  0  0  0  0  0
   -2.5896   -5.7577    2.1769 H   0  0  0  0  0  0  0  0  0  0  0  0
  1  2  1  0
  1  3  1  0
  4  5  1  0
  5  6  1  0
  6  7  1  0
  7  8  1  0
  8  9  1  0
  9 10  1  0
  1 11  1  0
 10 11  1  0
  7 12  1  0
 11 12  1  0
  5 13  1  0
  4 14  1  0
 12 14  1  0
  1 15  1  0
 15 16  1  0
 16 17  1  0
 17 18  1  0
 16 19  1  0
 19 20  1  0
 20 21  1  0
 21 22  1  0
 22 23  1  0
 23 24  1  0
 23 25  1  0
 17 26  1  0
 26 27  1  0
 27 28  1  0
 28 29  1  0
 29 30  1  0
 26 31  1  0
 30 31  1  0
 27 32  1  0
 32 33  1  0
 32 34  1  0
 29 35  1  0
 36 37  1  0
 36 38  1  0
 39 40  1  0
 40 41  1  0
 41 42  1  0
 42 43  1  0
 43 44  1  0
 44 45  1  0
 36 46  1  0
 45 46  1  0
 42 47  1  0
 46 47  1  0
 40 48  1  0
 39 49  1  0
 47 49  1  0
 36 50  1  0
 50 51  1  0
 51 52  1  0
 52 53  1  0
 51 54  1  0
 54 55  1  0
 55 56  1  0
 56 57  1  0
 57 58  1  0
 58 59  1  0
 58 60  1  0
 52 61  1  0
 61 62  1  0
 62 63  1  0
 63 64  1  0
 64 65  1  0
 61 66  1  0
 65 66  1  0
 62 67  1  0
 67 68  1  0
 67 69  1  0
 64 70  1  0
  2 71  1  0
  3 72  1  0
  4 73  1  0
  4 74  1  0
  5 75  1  1
  6 76  1  0
  6 77  1  0
  7 78  1  0
  8 79  1  0
  8 80  1  0
  9 81  1  0
  9 82  1  0
 10 83  1  0
 10 84  1  0
 11 85  1  0
 12 86  1  0
 13 87  1  0
 13 88  1  0
 13 89  1  0
 14 90  1  0
 15 91  1  0
 16 92  1  1
 17 93  1  0
 18 94  1  0
 19 95  1  0
 19 96  1  0
 20 97  1  0
 20 98  1  0
 21 99  1  0
 21100  1  0
 22101  1  0
 23102  1  0
 24103  1  0
 24104  1  0
 25105  1  0
 25106  1  0
 27107  1  1
 28108  1  0
 28109  1  0
 29110  1  6
 30111  1  0
 30112  1  0
 31113  1  0
 31114  1  0
 32115  1  0
 33116  1  0
 34117  1  0
 35118  1  0
 35119  1  0
 35120  1  0
 37121  1  0
 38122  1  0
 39123  1  0
 39124  1  0
 40125  1  1
 41126  1  0
 41127  1  0
 42128  1  0
 43129  1  0
 43130  1  0
 44131  1  0
 44132  1  0
 45133  1  0
 45134  1  0
 46135  1  0
 47136  1  0
 48137  1  0
 48138  1  0
 48139  1  0
 49140  1  0
 50141  1  0
 51142  1  1
 52143  1  0
 53144  1  0
 54145  1  0
 54146  1  0
 55147  1  0
 55148  1  0
 56149  1  0
 56150  1  0
 57151  1  0
 58152  1  0
 59153  1  0
 59154  1  0
 60155  1  0
 60156  1  0
 62157  1  1
 63158  1  0
 63159  1  0
 64160  1  6
 65161  1  0
 65162  1  0
 66163  1  0
 66164  1  0
 67165  1  0
 68166  1  0
 69167  1  0
 70168  1  0
 70169  1  0
 70170  1  0
M  END
>  <PDBID>  (1) 
4HFP

>  <PDB ID>  (1) 
4HFP

>  <Generic Name>  (1) 
Argatroban

>  <Brand Name>  (1) 
Argatroban

>  <DrugBank ID>  (1) 
DB00278

>  <ATC Codes>  (1) 
B01AE03

>  <Ligand ID>  (1) 
15U,MIT

>  <Target Name>  (1) 
Prothrombin

>  <UniProt ID>  (1) 
P00734

>  <PDB ID.1>  (1) 
4HFP

>  <Seq. Identity>  (1) 
100%

$$$$
