PDB_DB01261_07
     RDKit          3D

110114  0  0  0  0  0  0  0  0999 V2000
   -5.8281    1.2135   -0.1312 C   0  0  0  0  0  0  0  0  0  0  0  0
   -4.3695    0.8472   -0.3013 C   0  0  0  0  0  0  0  0  0  0  0  0
   -3.9562    0.0234    0.8835 C   0  0  0  0  0  0  0  0  0  0  0  0
   -5.0355   -0.9242    1.3137 C   0  0  0  0  0  0  0  0  0  0  0  0
   -6.0132   -1.2559    0.2100 C   0  0  0  0  0  0  0  0  0  0  0  0
   -6.6264   -0.0490   -0.4293 C   0  0  0  0  0  0  0  0  0  0  0  0
   -5.4818   -2.1407   -0.7087 F   0  0  0  0  0  0  0  0  0  0  0  0
   -4.2264    0.1756   -1.4877 F   0  0  0  0  0  0  0  0  0  0  0  0
   -2.6794   -0.7396    0.6016 C   0  0  0  0  0  0  0  0  0  0  0  0
   -1.5381    0.2229    0.2744 C   0  0  2  0  0  0  0  0  0  0  0  0
   -0.3180   -0.6105    0.0089 C   0  0  0  0  0  0  0  0  0  0  0  0
    0.8896    0.2245   -0.3287 C   0  0  1  0  0  0  0  0  0  0  0  0
    2.0626   -0.5597   -0.5852 N   0  0  0  0  0  0  0  0  0  0  0  0
   -1.3184    1.1330    1.3945 N   0  0  0  0  0  0  0  0  0  0  0  0
    0.5889    1.1146   -1.3313 O   0  0  0  0  0  0  0  0  0  0  0  0
    2.5460   -1.3386    0.4972 C   0  0  0  0  0  0  0  0  0  0  0  0
    3.8459   -0.8849    1.0953 C   0  0  0  0  0  0  0  0  0  0  0  0
    4.8358   -0.4632    0.1666 N   0  0  0  0  0  0  0  0  0  0  0  0
    4.4409   -0.3957   -1.1985 C   0  0  0  0  0  0  0  0  0  0  0  0
    3.0304    0.0813   -1.4056 C   0  0  0  0  0  0  0  0  0  0  0  0
    5.4980    0.7581    0.5102 C   0  0  0  0  0  0  0  0  0  0  0  0
    5.5412    1.5304   -0.7011 N   0  0  0  0  0  0  0  0  0  0  0  0
    5.3180    0.6463   -1.7325 N   0  0  0  0  0  0  0  0  0  0  0  0
    6.9513    0.4657    0.9046 C   0  0  0  0  0  0  0  0  0  0  0  0
    7.5975   -0.1268   -0.1621 F   0  0  0  0  0  0  0  0  0  0  0  0
    7.6257    1.6668    1.1337 F   0  0  0  0  0  0  0  0  0  0  0  0
    7.0325   -0.2672    2.0601 F   0  0  0  0  0  0  0  0  0  0  0  0
   -6.6811   -0.1884   -1.7946 F   0  0  0  0  0  0  0  0  0  0  0  0
   -5.7713    1.2561   -0.2322 C   0  0  0  0  0  0  0  0  0  0  0  0
   -4.3448    0.8189   -0.3363 C   0  0  0  0  0  0  0  0  0  0  0  0
   -3.9971   -0.0928    0.8277 C   0  0  0  0  0  0  0  0  0  0  0  0
   -5.1223   -1.0085    1.1761 C   0  0  0  0  0  0  0  0  0  0  0  0
   -6.1481   -1.1991    0.1082 C   0  0  0  0  0  0  0  0  0  0  0  0
   -6.6527    0.0680   -0.5124 C   0  0  0  0  0  0  0  0  0  0  0  0
   -5.7398   -2.1214   -0.8399 F   0  0  0  0  0  0  0  0  0  0  0  0
   -4.1126    0.2123   -1.5325 F   0  0  0  0  0  0  0  0  0  0  0  0
   -2.7028   -0.8376    0.5521 C   0  0  0  0  0  0  0  0  0  0  0  0
   -1.5557    0.1294    0.3455 C   0  0  2  0  0  0  0  0  0  0  0  0
   -0.3149   -0.6935    0.0771 C   0  0  0  0  0  0  0  0  0  0  0  0
    0.8916    0.2251   -0.1510 C   0  0  0  0  0  0  0  0  0  0  0  0
    2.0941   -0.4779   -0.4107 N   0  0  0  0  0  0  0  0  0  0  0  0
   -1.3540    0.9168    1.5539 N   0  0  0  0  0  0  0  0  0  0  0  0
    0.5559    1.0033   -1.2636 O   0  0  0  0  0  0  0  0  0  0  0  0
    2.6141   -1.3181    0.5881 C   0  0  0  0  0  0  0  0  0  0  0  0
    4.0185   -1.0676    1.0100 C   0  0  0  0  0  0  0  0  0  0  0  0
    4.8835   -0.4749    0.0651 N   0  0  0  0  0  0  0  0  0  0  0  0
    4.3983   -0.2782   -1.2503 C   0  0  0  0  0  0  0  0  0  0  0  0
    2.9620    0.0707   -1.3732 C   0  0  0  0  0  0  0  0  0  0  0  0
    5.5431    0.7181    0.4985 C   0  0  0  0  0  0  0  0  0  0  0  0
    5.3351    1.6386   -0.5769 N   0  0  0  0  0  0  0  0  0  0  0  0
    5.1748    0.8619   -1.7043 N   0  0  0  0  0  0  0  0  0  0  0  0
    7.0371    0.5170    0.6820 C   0  0  0  0  0  0  0  0  0  0  0  0
    7.6292    0.1290   -0.4954 F   0  0  0  0  0  0  0  0  0  0  0  0
    7.6250    1.7080    1.0719 F   0  0  0  0  0  0  0  0  0  0  0  0
    7.2816   -0.4155    1.6945 F   0  0  0  0  0  0  0  0  0  0  0  0
   -6.7462   -0.1570   -1.8906 F   0  0  0  0  0  0  0  0  0  0  0  0
   -6.0548    1.5354    0.9068 H   0  0  0  0  0  0  0  0  0  0  0  0
   -6.1188    2.0289   -0.8061 H   0  0  0  0  0  0  0  0  0  0  0  0
   -3.7552    1.7831   -0.3617 H   0  0  0  0  0  0  0  0  0  0  0  0
   -3.7468    0.7242    1.7296 H   0  0  0  0  0  0  0  0  0  0  0  0
   -5.6443   -0.5083    2.1549 H   0  0  0  0  0  0  0  0  0  0  0  0
   -4.5614   -1.8868    1.6195 H   0  0  0  0  0  0  0  0  0  0  0  0
   -6.8523   -1.8143    0.7116 H   0  0  0  0  0  0  0  0  0  0  0  0
   -7.6642    0.1520   -0.0617 H   0  0  0  0  0  0  0  0  0  0  0  0
   -2.4130   -1.3115    1.4911 H   0  0  0  0  0  0  0  0  0  0  0  0
   -2.8365   -1.3938   -0.2797 H   0  0  0  0  0  0  0  0  0  0  0  0
   -1.8776    0.8121   -0.5965 H   0  0  0  0  0  0  0  0  0  0  0  0
   -0.1685   -1.2459    0.8994 H   0  0  0  0  0  0  0  0  0  0  0  0
   -0.5649   -1.2534   -0.8861 H   0  0  0  0  0  0  0  0  0  0  0  0
    1.1073    0.8460    0.5898 H   0  0  0  0  0  0  0  0  0  0  0  0
   -1.0418    2.0768    1.0888 H   0  0  0  0  0  0  0  0  0  0  0  0
   -0.6236    0.7537    2.0643 H   0  0  0  0  0  0  0  0  0  0  0  0
    0.1117    0.7084   -2.0970 H   0  0  0  0  0  0  0  0  0  0  0  0
    2.6798   -2.4063    0.1685 H   0  0  0  0  0  0  0  0  0  0  0  0
    1.8039   -1.3765    1.3212 H   0  0  0  0  0  0  0  0  0  0  0  0
    4.2640   -1.7786    1.6443 H   0  0  0  0  0  0  0  0  0  0  0  0
    3.6842   -0.1259    1.9077 H   0  0  0  0  0  0  0  0  0  0  0  0
    4.6282   -1.3462   -1.7447 H   0  0  0  0  0  0  0  0  0  0  0  0
    2.7771   -0.1146   -2.4716 H   0  0  0  0  0  0  0  0  0  0  0  0
    3.0118    1.1701   -1.2185 H   0  0  0  0  0  0  0  0  0  0  0  0
    4.9817    1.2744    1.3397 H   0  0  0  0  0  0  0  0  0  0  0  0
    4.9238    2.3654   -0.6959 H   0  0  0  0  0  0  0  0  0  0  0  0
    6.2181    0.1726   -1.9702 H   0  0  0  0  0  0  0  0  0  0  0  0
   -6.0306    1.6869    0.7407 H   0  0  0  0  0  0  0  0  0  0  0  0
   -5.9604    2.0365   -1.0127 H   0  0  0  0  0  0  0  0  0  0  0  0
   -3.7084    1.7336   -0.2647 H   0  0  0  0  0  0  0  0  0  0  0  0
   -3.8076    0.5673    1.7031 H   0  0  0  0  0  0  0  0  0  0  0  0
   -5.6674   -0.6975    2.1095 H   0  0  0  0  0  0  0  0  0  0  0  0
   -4.6967   -2.0047    1.4117 H   0  0  0  0  0  0  0  0  0  0  0  0
   -7.0402   -1.6778    0.6086 H   0  0  0  0  0  0  0  0  0  0  0  0
   -7.6862    0.3441   -0.1692 H   0  0  0  0  0  0  0  0  0  0  0  0
   -2.4431   -1.4615    1.4183 H   0  0  0  0  0  0  0  0  0  0  0  0
   -2.8030   -1.4427   -0.3626 H   0  0  0  0  0  0  0  0  0  0  0  0
   -1.7846    0.8300   -0.4713 H   0  0  0  0  0  0  0  0  0  0  0  0
   -0.1002   -1.2561    1.0108 H   0  0  0  0  0  0  0  0  0  0  0  0
   -0.4337   -1.3985   -0.7431 H   0  0  0  0  0  0  0  0  0  0  0  0
    0.9566    0.9130    0.7210 H   0  0  0  0  0  0  0  0  0  0  0  0
   -0.8096    1.7806    1.3843 H   0  0  0  0  0  0  0  0  0  0  0  0
   -0.9660    0.3699    2.3378 H   0  0  0  0  0  0  0  0  0  0  0  0
    0.6514    1.9656   -1.0856 H   0  0  0  0  0  0  0  0  0  0  0  0
    2.5109   -2.3864    0.2374 H   0  0  0  0  0  0  0  0  0  0  0  0
    1.9813   -1.2703    1.5036 H   0  0  0  0  0  0  0  0  0  0  0  0
    4.4673   -2.0651    1.3001 H   0  0  0  0  0  0  0  0  0  0  0  0
    4.0486   -0.4807    1.9612 H   0  0  0  0  0  0  0  0  0  0  0  0
    4.6632   -1.1261   -1.9457 H   0  0  0  0  0  0  0  0  0  0  0  0
    2.6170   -0.2854   -2.3892 H   0  0  0  0  0  0  0  0  0  0  0  0
    2.8126    1.1837   -1.4025 H   0  0  0  0  0  0  0  0  0  0  0  0
    5.0648    1.0358    1.4474 H   0  0  0  0  0  0  0  0  0  0  0  0
    4.5965    2.3425   -0.4206 H   0  0  0  0  0  0  0  0  0  0  0  0
    6.0858    0.6322   -2.1058 H   0  0  0  0  0  0  0  0  0  0  0  0
  1  2  1  0
  2  3  1  0
  3  4  1  0
  4  5  1  0
  1  6  1  0
  5  6  1  0
  5  7  1  0
  2  8  1  0
  3  9  1  0
  9 10  1  0
 10 11  1  0
 11 12  1  0
 12 13  1  0
 10 14  1  0
 12 15  1  0
 13 16  1  0
 16 17  1  0
 17 18  1  0
 18 19  1  0
 13 20  1  0
 19 20  1  0
 18 21  1  0
 21 22  1  0
 19 23  1  0
 22 23  1  0
 21 24  1  0
 24 25  1  0
 24 26  1  0
 24 27  1  0
  6 28  1  0
 29 30  1  0
 30 31  1  0
 31 32  1  0
 32 33  1  0
 29 34  1  0
 33 34  1  0
 33 35  1  0
 30 36  1  0
 31 37  1  0
 37 38  1  0
 38 39  1  0
 39 40  1  0
 40 41  1  0
 38 42  1  0
 40 43  1  0
 41 44  1  0
 44 45  1  0
 45 46  1  0
 46 47  1  0
 41 48  1  0
 47 48  1  0
 46 49  1  0
 49 50  1  0
 47 51  1  0
 50 51  1  0
 49 52  1  0
 52 53  1  0
 52 54  1  0
 52 55  1  0
 34 56  1  0
  1 57  1  0
  1 58  1  0
  2 59  1  0
  3 60  1  0
  4 61  1  0
  4 62  1  0
  5 63  1  0
  6 64  1  0
  9 65  1  0
  9 66  1  0
 10 67  1  6
 11 68  1  0
 11 69  1  0
 12 70  1  1
 14 71  1  0
 14 72  1  0
 15 73  1  0
 16 74  1  0
 16 75  1  0
 17 76  1  0
 17 77  1  0
 19 78  1  0
 20 79  1  0
 20 80  1  0
 21 81  1  0
 22 82  1  0
 23 83  1  0
 29 84  1  0
 29 85  1  0
 30 86  1  0
 31 87  1  0
 32 88  1  0
 32 89  1  0
 33 90  1  0
 34 91  1  0
 37 92  1  0
 37 93  1  0
 38 94  1  6
 39 95  1  0
 39 96  1  0
 40 97  1  0
 42 98  1  0
 42 99  1  0
 43100  1  0
 44101  1  0
 44102  1  0
 45103  1  0
 45104  1  0
 47105  1  0
 48106  1  0
 48107  1  0
 49108  1  0
 50109  1  0
 51110  1  0
M  END
>  <PDBID>  (1) 
1X70

>  <PDB ID>  (1) 
1X70

>  <Generic Name>  (1) 
Sitagliptin

>  <Brand Name>  (1) 
Janumet#Janumet XR#Januvia#Xelevia

>  <DrugBank ID>  (1) 
DB01261

>  <ATC Codes>  (1) 
A10BD12#A10BH51#A10BH01#A10BD07

>  <Ligand ID>  (1) 
715

>  <Target Name>  (1) 
Dipeptidyl peptidase 4

>  <UniProt ID>  (1) 
P27487

>  <PDB ID.1>  (1) 
1X70

>  <Seq. Identity>  (1) 
100%

$$$$
