PDB_DB01004_06
     RDKit          3D

 78 80  0  0  0  0  0  0  0  0999 V2000
    3.8258    0.6667   -0.3648 N   0  0  0  0  0  0  0  0  0  0  0  0
    3.2925    1.1804    0.8811 C   0  0  0  0  0  0  0  0  0  0  0  0
    1.3228    0.3746   -0.0603 C   0  0  0  0  0  0  0  0  0  0  0  0
   -0.0637   -1.3934   -0.3146 C   0  0  0  0  0  0  0  0  0  0  0  0
   -4.2795    0.1561   -1.0296 C   0  0  0  0  0  0  0  0  0  0  0  0
   -4.9511    1.1438   -0.3322 O   0  0  0  0  0  0  0  0  0  0  0  0
   -3.6472   -0.6404    1.1606 C   0  0  0  0  0  0  0  0  0  0  0  0
   -4.5115   -1.7252    1.0146 O   0  0  0  0  0  0  0  0  0  0  0  0
   -3.0438   -0.2367   -0.1938 C   0  0  0  0  0  0  0  0  0  0  0  0
   -2.2257    0.8044    0.0030 O   0  0  0  0  0  0  0  0  0  0  0  0
   -0.9288    0.8323   -0.3137 C   0  0  0  0  0  0  0  0  0  0  0  0
   -0.0243   -0.0797    0.3465 N   0  0  0  0  0  0  0  0  0  0  0  0
    1.8463    1.3891    0.7907 N   0  0  0  0  0  0  0  0  0  0  0  0
    3.8926    2.4802    1.0946 N   0  0  0  0  0  0  0  0  0  0  0  0
    3.4047   -0.7235   -0.5932 C   0  0  0  0  0  0  0  0  0  0  0  0
    4.3578   -1.6225   -0.1497 O   0  0  0  0  0  0  0  0  0  0  0  0
    2.1123   -0.8937    0.1806 C   0  0  0  0  0  0  0  0  0  0  0  0
    1.2839   -1.9232   -0.2929 N   0  0  0  0  0  0  0  0  0  0  0  0
    3.8258    0.6667   -0.3648 N   0  0  0  0  0  0  0  0  0  0  0  0
    3.2925    1.1804    0.8811 C   0  0  0  0  0  0  0  0  0  0  0  0
    1.3228    0.3746   -0.0603 C   0  0  0  0  0  0  0  0  0  0  0  0
   -0.0637   -1.3934   -0.3146 C   0  0  0  0  0  0  0  0  0  0  0  0
   -4.2795    0.1561   -1.0296 C   0  0  0  0  0  0  0  0  0  0  0  0
   -4.9511    1.1438   -0.3322 O   0  0  0  0  0  0  0  0  0  0  0  0
   -3.6472   -0.6404    1.1606 C   0  0  0  0  0  0  0  0  0  0  0  0
   -4.5115   -1.7252    1.0146 O   0  0  0  0  0  0  0  0  0  0  0  0
   -3.0438   -0.2367   -0.1938 C   0  0  0  0  0  0  0  0  0  0  0  0
   -2.2257    0.8044    0.0030 O   0  0  0  0  0  0  0  0  0  0  0  0
   -0.9288    0.8323   -0.3137 C   0  0  0  0  0  0  0  0  0  0  0  0
   -0.0243   -0.0797    0.3465 N   0  0  0  0  0  0  0  0  0  0  0  0
    1.8463    1.3891    0.7907 N   0  0  0  0  0  0  0  0  0  0  0  0
    3.8926    2.4802    1.0946 N   0  0  0  0  0  0  0  0  0  0  0  0
    3.4047   -0.7235   -0.5932 C   0  0  0  0  0  0  0  0  0  0  0  0
    4.3578   -1.6225   -0.1497 O   0  0  0  0  0  0  0  0  0  0  0  0
    2.1123   -0.8937    0.1806 C   0  0  0  0  0  0  0  0  0  0  0  0
    1.2839   -1.9232   -0.2929 N   0  0  0  0  0  0  0  0  0  0  0  0
    4.8620    0.6310   -0.2501 H   0  0  0  0  0  0  0  0  0  0  0  0
    3.5753    0.5433    1.7208 H   0  0  0  0  0  0  0  0  0  0  0  0
    1.3441    0.6136   -1.1220 H   0  0  0  0  0  0  0  0  0  0  0  0
   -0.7200   -2.1034    0.2411 H   0  0  0  0  0  0  0  0  0  0  0  0
   -0.4111   -1.2771   -1.3753 H   0  0  0  0  0  0  0  0  0  0  0  0
   -4.9046   -0.7545   -1.0899 H   0  0  0  0  0  0  0  0  0  0  0  0
   -3.9956    0.4284   -2.0470 H   0  0  0  0  0  0  0  0  0  0  0  0
   -5.1396    1.9528   -0.8876 H   0  0  0  0  0  0  0  0  0  0  0  0
   -4.2440    0.1920    1.5611 H   0  0  0  0  0  0  0  0  0  0  0  0
   -2.8594   -0.8838    1.8949 H   0  0  0  0  0  0  0  0  0  0  0  0
   -5.4522   -1.4764    1.1478 H   0  0  0  0  0  0  0  0  0  0  0  0
   -2.5708   -1.0817   -0.6777 H   0  0  0  0  0  0  0  0  0  0  0  0
   -0.7735    0.7578   -1.4512 H   0  0  0  0  0  0  0  0  0  0  0  0
   -0.5761    1.9109   -0.1450 H   0  0  0  0  0  0  0  0  0  0  0  0
    1.4715    1.2606    1.7593 H   0  0  0  0  0  0  0  0  0  0  0  0
    3.1791    3.2218    1.2757 H   0  0  0  0  0  0  0  0  0  0  0  0
    4.4576    2.8013    0.2781 H   0  0  0  0  0  0  0  0  0  0  0  0
    3.2103   -0.8058   -1.6807 H   0  0  0  0  0  0  0  0  0  0  0  0
    3.9788   -2.4872    0.0881 H   0  0  0  0  0  0  0  0  0  0  0  0
    2.3499   -1.0231    1.2632 H   0  0  0  0  0  0  0  0  0  0  0  0
    1.5553   -2.2098   -1.2699 H   0  0  0  0  0  0  0  0  0  0  0  0
    4.8620    0.6310   -0.2501 H   0  0  0  0  0  0  0  0  0  0  0  0
    3.5753    0.5433    1.7208 H   0  0  0  0  0  0  0  0  0  0  0  0
    1.3441    0.6136   -1.1220 H   0  0  0  0  0  0  0  0  0  0  0  0
   -0.7200   -2.1034    0.2411 H   0  0  0  0  0  0  0  0  0  0  0  0
   -0.4111   -1.2771   -1.3753 H   0  0  0  0  0  0  0  0  0  0  0  0
   -4.9046   -0.7545   -1.0899 H   0  0  0  0  0  0  0  0  0  0  0  0
   -3.9956    0.4284   -2.0470 H   0  0  0  0  0  0  0  0  0  0  0  0
   -5.1396    1.9528   -0.8876 H   0  0  0  0  0  0  0  0  0  0  0  0
   -4.2440    0.1920    1.5611 H   0  0  0  0  0  0  0  0  0  0  0  0
   -2.8594   -0.8838    1.8949 H   0  0  0  0  0  0  0  0  0  0  0  0
   -5.4522   -1.4764    1.1478 H   0  0  0  0  0  0  0  0  0  0  0  0
   -2.5708   -1.0817   -0.6777 H   0  0  0  0  0  0  0  0  0  0  0  0
   -0.7735    0.7578   -1.4512 H   0  0  0  0  0  0  0  0  0  0  0  0
   -0.5761    1.9109   -0.1450 H   0  0  0  0  0  0  0  0  0  0  0  0
    1.4715    1.2606    1.7593 H   0  0  0  0  0  0  0  0  0  0  0  0
    3.1791    3.2218    1.2757 H   0  0  0  0  0  0  0  0  0  0  0  0
    4.4576    2.8013    0.2781 H   0  0  0  0  0  0  0  0  0  0  0  0
    3.2103   -0.8058   -1.6807 H   0  0  0  0  0  0  0  0  0  0  0  0
    3.9788   -2.4872    0.0881 H   0  0  0  0  0  0  0  0  0  0  0  0
    2.3499   -1.0231    1.2632 H   0  0  0  0  0  0  0  0  0  0  0  0
    1.5553   -2.2098   -1.2699 H   0  0  0  0  0  0  0  0  0  0  0  0
  1  2  1  0
  5  6  1  0
  7  8  1  0
  5  9  1  0
  7  9  1  0
  9 10  1  0
 10 11  1  0
  3 12  1  0
  4 12  1  0
 11 12  1  0
  2 13  1  0
  3 13  1  0
  2 14  1  0
  1 15  1  0
 15 16  1  0
  3 17  1  0
 15 17  1  0
  4 18  1  0
 17 18  1  0
 19 20  1  0
 23 24  1  0
 25 26  1  0
 23 27  1  0
 25 27  1  0
 27 28  1  0
 28 29  1  0
 21 30  1  0
 22 30  1  0
 29 30  1  0
 20 31  1  0
 21 31  1  0
 20 32  1  0
 19 33  1  0
 33 34  1  0
 21 35  1  0
 33 35  1  0
 22 36  1  0
 35 36  1  0
  1 37  1  0
  2 38  1  0
  3 39  1  0
  4 40  1  0
  4 41  1  0
  5 42  1  0
  5 43  1  0
  6 44  1  0
  7 45  1  0
  7 46  1  0
  8 47  1  0
  9 48  1  0
 11 49  1  0
 11 50  1  0
 13 51  1  0
 14 52  1  0
 14 53  1  0
 15 54  1  0
 16 55  1  0
 17 56  1  0
 18 57  1  0
 19 58  1  0
 20 59  1  0
 21 60  1  0
 22 61  1  0
 22 62  1  0
 23 63  1  0
 23 64  1  0
 24 65  1  0
 25 66  1  0
 25 67  1  0
 26 68  1  0
 27 69  1  0
 29 70  1  0
 29 71  1  0
 31 72  1  0
 32 73  1  0
 32 74  1  0
 33 75  1  0
 34 76  1  0
 35 77  1  0
 36 78  1  0
M  END
>  <PDBID>  (1) 
1KI2

>  <PDB ID>  (1) 
1KI2

>  <Generic Name>  (1) 
Ganciclovir

>  <Brand Name>  (1) 
Cytovene - Cap 250mg#Cytovene - Pws 500mg/10m/-vial IV#Cytovene IV#Cytovene Inj 500mg/vial#Cytovene, 500 mg#Ganciclovir#Ganciclovir for Injection#Vitrasert, Intravitreal Implant#Zirgan#Cytovene#Vitrasert

>  <DrugBank ID>  (1) 
DB01004

>  <ATC Codes>  (1) 
J05AB06#S01AD09

>  <Ligand ID>  (1) 
GA2

>  <Target Name>  (1) 
Thymidine kinase

>  <UniProt ID>  (1) 
P03176

>  <PDB ID.1>  (1) 
1KI2

>  <Seq. Identity>  (1) 
100%

$$$$
