PDB_DB00398_01
     RDKit          3D

 70 72  0  0  0  0  0  0  0  0999 V2000
    5.4042   -1.1353    0.7982 C   0  0  0  0  0  0  0  0  0  0  0  0
    4.3353   -0.7641   -0.2302 C   0  0  2  0  0  0  0  0  0  0  0  0
    4.8967   -0.6473   -1.6080 C   0  0  0  0  0  0  0  0  0  0  0  0
    6.1971    0.0481   -1.7649 C   0  0  0  0  0  0  0  0  0  0  0  0
    3.3896    1.4979   -0.4732 C   0  0  0  0  0  0  0  0  0  0  0  0
    1.0063    1.1282   -0.1301 C   0  0  0  0  0  0  0  0  0  0  0  0
    0.7378   -0.2051   -0.6788 C   0  0  0  0  0  0  0  0  0  0  0  0
   -0.5577   -0.8381   -0.2603 C   0  0  0  0  0  0  0  0  0  0  0  0
   -1.6138    0.0685    0.2479 C   0  0  0  0  0  0  0  0  0  0  0  0
   -1.1044    1.2690    1.0276 C   0  0  0  0  0  0  0  0  0  0  0  0
   -0.1881    2.0115    0.0601 C   0  0  0  0  0  0  0  0  0  0  0  0
   -2.5108    0.4677   -0.7218 O   0  0  0  0  0  0  0  0  0  0  0  0
   -3.7191   -1.5661   -0.6652 C   0  0  0  0  0  0  0  0  0  0  0  0
   -5.0776   -2.1634   -0.3559 C   0  0  0  0  0  0  0  0  0  0  0  0
   -5.7873   -0.3002    0.8752 C   0  0  0  0  0  0  0  0  0  0  0  0
   -4.5366    0.4789    0.5806 C   0  0  0  0  0  0  0  0  0  0  0  0
   -7.3209    1.3448    0.0697 N   0  0  0  0  0  0  0  0  0  0  0  0
   -7.3202    2.0659   -1.1766 C   0  0  0  0  0  0  0  0  0  0  0  0
    7.0417    0.1137   -0.4992 C   0  0  0  0  0  0  0  0  0  0  0  0
    6.7861   -1.1567    0.2092 C   0  0  0  0  0  0  0  0  0  0  0  0
    7.7639   -1.5554    1.2867 C   0  0  0  0  0  0  0  0  0  0  0  0
    7.6865   -0.6451    2.3510 F   0  0  0  0  0  0  0  0  0  0  0  0
    9.0870   -1.4008    0.7825 F   0  0  0  0  0  0  0  0  0  0  0  0
    7.6184   -2.8307    1.6652 F   0  0  0  0  0  0  0  0  0  0  0  0
    8.7637    0.2392   -0.9945 Cl  0  0  0  0  0  0  0  0  0  0  0  0
    3.6045    0.3347    0.2445 N   0  0  0  0  0  0  0  0  0  0  0  0
    2.0246    1.8204   -0.8688 N   0  0  0  0  0  0  0  0  0  0  0  0
    3.7418    2.6108    0.3495 O   0  0  0  0  0  0  0  0  0  0  0  0
   -3.7900   -0.0434   -0.5725 C   0  0  0  0  0  0  0  0  0  0  0  0
   -5.5029   -1.7304    0.9328 N   0  0  0  0  0  0  0  0  0  0  0  0
   -6.9063   -0.0409   -0.1024 C   0  0  0  0  0  0  0  0  0  0  0  0
   -8.0035   -0.7967    0.3324 O   0  0  0  0  0  0  0  0  0  0  0  0
    5.1880   -2.0449    1.3610 H   0  0  0  0  0  0  0  0  0  0  0  0
    5.4627   -0.3225    1.6043 H   0  0  0  0  0  0  0  0  0  0  0  0
    3.6599   -1.6422   -0.2300 H   0  0  0  0  0  0  0  0  0  0  0  0
    5.0129   -1.6842   -1.9996 H   0  0  0  0  0  0  0  0  0  0  0  0
    4.0830   -0.1989   -2.2306 H   0  0  0  0  0  0  0  0  0  0  0  0
    6.1733    1.0668   -2.1692 H   0  0  0  0  0  0  0  0  0  0  0  0
    6.8611   -0.5216   -2.4831 H   0  0  0  0  0  0  0  0  0  0  0  0
    3.9980    1.6722   -1.3859 H   0  0  0  0  0  0  0  0  0  0  0  0
    1.4517    1.0179    0.9454 H   0  0  0  0  0  0  0  0  0  0  0  0
    0.7101   -0.1010   -1.8235 H   0  0  0  0  0  0  0  0  0  0  0  0
    1.5253   -0.9181   -0.4927 H   0  0  0  0  0  0  0  0  0  0  0  0
   -0.9624   -1.3791   -1.1387 H   0  0  0  0  0  0  0  0  0  0  0  0
   -0.3372   -1.6656    0.4802 H   0  0  0  0  0  0  0  0  0  0  0  0
   -2.1930   -0.5457    0.9951 H   0  0  0  0  0  0  0  0  0  0  0  0
   -1.9761    1.9034    1.2767 H   0  0  0  0  0  0  0  0  0  0  0  0
   -0.5732    0.8720    1.9101 H   0  0  0  0  0  0  0  0  0  0  0  0
   -0.7176    2.0980   -0.8997 H   0  0  0  0  0  0  0  0  0  0  0  0
    0.0899    3.0021    0.4891 H   0  0  0  0  0  0  0  0  0  0  0  0
   -3.5120   -1.8076   -1.7268 H   0  0  0  0  0  0  0  0  0  0  0  0
   -3.0012   -2.0385   -0.0117 H   0  0  0  0  0  0  0  0  0  0  0  0
   -5.8209   -2.0487   -1.1388 H   0  0  0  0  0  0  0  0  0  0  0  0
   -4.8921   -3.2787   -0.2697 H   0  0  0  0  0  0  0  0  0  0  0  0
   -6.1436   -0.0035    1.8812 H   0  0  0  0  0  0  0  0  0  0  0  0
   -4.8493    1.5227    0.3825 H   0  0  0  0  0  0  0  0  0  0  0  0
   -3.9413    0.5318    1.5240 H   0  0  0  0  0  0  0  0  0  0  0  0
   -8.2333    1.4486    0.5247 H   0  0  0  0  0  0  0  0  0  0  0  0
   -7.1987    3.1570   -0.9744 H   0  0  0  0  0  0  0  0  0  0  0  0
   -8.3332    1.9348   -1.6792 H   0  0  0  0  0  0  0  0  0  0  0  0
   -6.5391    1.6587   -1.8362 H   0  0  0  0  0  0  0  0  0  0  0  0
    6.8181    0.9910    0.1178 H   0  0  0  0  0  0  0  0  0  0  0  0
    6.8193   -1.9707   -0.6054 H   0  0  0  0  0  0  0  0  0  0  0  0
    3.8722    0.5421    1.2758 H   0  0  0  0  0  0  0  0  0  0  0  0
    1.9238    1.5417   -1.9076 H   0  0  0  0  0  0  0  0  0  0  0  0
    2.9298    3.1135    0.6367 H   0  0  0  0  0  0  0  0  0  0  0  0
   -4.3310    0.2175   -1.5334 H   0  0  0  0  0  0  0  0  0  0  0  0
   -4.8018   -1.8804    1.6641 H   0  0  0  0  0  0  0  0  0  0  0  0
   -6.6769   -0.2345   -1.1430 H   0  0  0  0  0  0  0  0  0  0  0  0
   -7.6910   -1.6850    0.6644 H   0  0  0  0  0  0  0  0  0  0  0  0
  1  2  1  0
  2  3  1  0
  3  4  1  0
  6  7  1  0
  7  8  1  0
  8  9  1  0
  9 10  1  0
  6 11  1  0
 10 11  1  0
  9 12  1  0
 13 14  1  0
 15 16  1  0
 17 18  1  0
  4 19  1  0
  1 20  1  0
 19 20  1  0
 20 21  1  0
 21 22  1  0
 21 23  1  0
 21 24  1  0
 19 25  1  0
  2 26  1  0
  5 26  1  0
  5 27  1  0
  6 27  1  0
  5 28  1  0
 12 29  1  0
 13 29  1  0
 16 29  1  0
 14 30  1  0
 15 30  1  0
 15 31  1  0
 17 31  1  0
 31 32  1  0
  1 33  1  0
  1 34  1  0
  2 35  1  6
  3 36  1  0
  3 37  1  0
  4 38  1  0
  4 39  1  0
  5 40  1  0
  6 41  1  0
  7 42  1  0
  7 43  1  0
  8 44  1  0
  8 45  1  0
  9 46  1  0
 10 47  1  0
 10 48  1  0
 11 49  1  0
 11 50  1  0
 13 51  1  0
 13 52  1  0
 14 53  1  0
 14 54  1  0
 15 55  1  0
 16 56  1  0
 16 57  1  0
 17 58  1  0
 18 59  1  0
 18 60  1  0
 18 61  1  0
 19 62  1  0
 20 63  1  0
 26 64  1  0
 27 65  1  0
 28 66  1  0
 29 67  1  0
 30 68  1  0
 31 69  1  0
 32 70  1  0
M  END
>  <PDBID>  (1) 
3WZE

>  <PDB ID>  (1) 
3WZE

>  <Generic Name>  (1) 
Sorafenib

>  <Brand Name>  (1) 
Nexavar

>  <DrugBank ID>  (1) 
DB00398

>  <ATC Codes>  (1) 
L01XE05

>  <Ligand ID>  (1) 
BAX

>  <Target Name>  (1) 
Vascular endothelial growth factor receptor 3

>  <UniProt ID>  (1) 
P35916

>  <PDB ID.1>  (1) 
3WZE

>  <Seq. Identity>  (1) 
67%

$$$$
