PDB_DB01259_05
     RDKit          3D

 94 98  0  0  0  0  0  0  0  0999 V2000
  -11.2266    0.3123    1.4097 C   0  0  0  0  0  0  0  0  0  0  0  0
  -10.5164   -0.0545   -0.1304 S   0  0  0  0  0  0  0  0  0  0  0  0
  -10.1999   -1.5086   -0.4116 O   0  0  0  0  0  0  0  0  0  0  0  0
  -11.6160    0.5290   -1.2242 O   0  0  0  0  0  0  0  0  0  0  0  0
   -9.1100    0.9842   -0.2189 C   0  0  0  0  0  0  0  0  0  0  0  0
   -8.3316    0.7291   -1.5235 C   0  0  0  0  0  0  0  0  0  0  0  0
   -7.8179   -0.5809   -1.5421 N   0  0  0  0  0  0  0  0  0  0  0  0
   -6.7412   -0.9594   -0.7393 C   0  0  0  0  0  0  0  0  0  0  0  0
   -5.3453   -0.7429   -1.1748 C   0  0  0  0  0  0  0  0  0  0  0  0
   -4.9251    0.6243   -1.4998 C   0  0  0  0  0  0  0  0  0  0  0  0
   -4.4419    1.1915   -0.1759 C   0  0  0  0  0  0  0  0  0  0  0  0
   -4.3516   -0.0415    0.6548 C   0  0  0  0  0  0  0  0  0  0  0  0
   -4.4272   -1.1516   -0.1630 O   0  0  0  0  0  0  0  0  0  0  0  0
   -3.1109   -0.0632    1.5312 C   0  0  0  0  0  0  0  0  0  0  0  0
   -3.2612   -1.3348    2.3725 C   0  0  0  0  0  0  0  0  0  0  0  0
   -1.9309   -1.6506    2.9596 C   0  0  0  0  0  0  0  0  0  0  0  0
   -1.1321   -0.3844    3.0805 C   0  0  0  0  0  0  0  0  0  0  0  0
   -0.0803   -0.6347    4.0371 N   0  0  0  0  0  0  0  0  0  0  0  0
    0.9445   -1.4555    3.4323 C   0  0  0  0  0  0  0  0  0  0  0  0
    1.5454   -0.6496    2.3906 N   0  0  0  0  0  0  0  0  0  0  0  0
    0.6337   -0.3528    1.2954 C   0  0  0  0  0  0  0  0  0  0  0  0
    1.3874    0.6379    0.4958 N   0  0  0  0  0  0  0  0  0  0  0  0
    2.5551    0.0049   -0.0386 C   0  0  0  0  0  0  0  0  0  0  0  0
    2.7786    0.3179   -1.5078 C   0  0  0  0  0  0  0  0  0  0  0  0
    4.1726    0.8885   -1.7269 C   0  0  0  0  0  0  0  0  0  0  0  0
    5.2492   -0.0817   -1.2577 C   0  0  0  0  0  0  0  0  0  0  0  0
    6.4405    0.6163   -1.0941 O   0  0  0  0  0  0  0  0  0  0  0  0
    7.4336    0.2214   -1.9733 C   0  0  0  0  0  0  0  0  0  0  0  0
    8.6787    1.0145   -1.7579 C   0  0  0  0  0  0  0  0  0  0  0  0
    9.2863    0.8973   -0.4000 C   0  0  0  0  0  0  0  0  0  0  0  0
   10.1850   -0.2869   -0.2047 C   0  0  0  0  0  0  0  0  0  0  0  0
   11.2462   -0.3443   -1.2682 C   0  0  0  0  0  0  0  0  0  0  0  0
   10.5341   -0.4703   -2.5939 C   0  0  0  0  0  0  0  0  0  0  0  0
    9.7121   -1.5655   -2.5681 F   0  0  0  0  0  0  0  0  0  0  0  0
    9.7124    0.7696   -2.8196 C   0  0  0  0  0  0  0  0  0  0  0  0
    4.8717   -0.6980    0.0505 C   0  0  0  0  0  0  0  0  0  0  0  0
    6.1932   -0.8238    1.2078 Cl  0  0  0  0  0  0  0  0  0  0  0  0
    3.8295    0.2447    0.6913 C   0  0  0  0  0  0  0  0  0  0  0  0
   -0.6825    0.1602    1.7670 C   0  0  0  0  0  0  0  0  0  0  0  0
   -1.8240   -0.1103    0.7790 C   0  0  0  0  0  0  0  0  0  0  0  0
  -12.3136    0.3715    1.4024 H   0  0  0  0  0  0  0  0  0  0  0  0
  -10.9454   -0.5125    2.0973 H   0  0  0  0  0  0  0  0  0  0  0  0
  -10.8418    1.2519    1.8267 H   0  0  0  0  0  0  0  0  0  0  0  0
  -10.6704   -2.0469   -1.1351 H   0  0  0  0  0  0  0  0  0  0  0  0
  -11.2837    1.3688   -1.6365 H   0  0  0  0  0  0  0  0  0  0  0  0
   -8.4511    0.8190    0.6466 H   0  0  0  0  0  0  0  0  0  0  0  0
   -9.4703    2.0263   -0.2100 H   0  0  0  0  0  0  0  0  0  0  0  0
   -9.1540    0.7656   -2.3064 H   0  0  0  0  0  0  0  0  0  0  0  0
   -7.7047    1.5766   -1.7337 H   0  0  0  0  0  0  0  0  0  0  0  0
   -8.4594   -1.2684   -1.9123 H   0  0  0  0  0  0  0  0  0  0  0  0
   -6.8701   -2.0694   -0.4788 H   0  0  0  0  0  0  0  0  0  0  0  0
   -6.8836   -0.5013    0.3279 H   0  0  0  0  0  0  0  0  0  0  0  0
   -5.1381   -1.4429   -2.0735 H   0  0  0  0  0  0  0  0  0  0  0  0
   -3.9415    0.5266   -2.1018 H   0  0  0  0  0  0  0  0  0  0  0  0
   -5.5940    1.2822   -2.0356 H   0  0  0  0  0  0  0  0  0  0  0  0
   -3.4895    1.7318   -0.2629 H   0  0  0  0  0  0  0  0  0  0  0  0
   -5.2153    1.8819    0.2380 H   0  0  0  0  0  0  0  0  0  0  0  0
   -5.2121   -0.0811    1.3675 H   0  0  0  0  0  0  0  0  0  0  0  0
   -3.1411    0.8585    2.1379 H   0  0  0  0  0  0  0  0  0  0  0  0
   -4.0289   -1.1488    3.1652 H   0  0  0  0  0  0  0  0  0  0  0  0
   -3.6565   -2.1421    1.7577 H   0  0  0  0  0  0  0  0  0  0  0  0
   -1.3990   -2.4704    2.4315 H   0  0  0  0  0  0  0  0  0  0  0  0
   -2.1139   -1.9973    4.0198 H   0  0  0  0  0  0  0  0  0  0  0  0
   -1.7999    0.3715    3.5574 H   0  0  0  0  0  0  0  0  0  0  0  0
    0.2827    0.2152    4.5038 H   0  0  0  0  0  0  0  0  0  0  0  0
    0.5094   -2.3889    3.0812 H   0  0  0  0  0  0  0  0  0  0  0  0
    1.7360   -1.6033    4.2037 H   0  0  0  0  0  0  0  0  0  0  0  0
    1.7092    0.2989    2.8489 H   0  0  0  0  0  0  0  0  0  0  0  0
    0.5349   -1.2644    0.6881 H   0  0  0  0  0  0  0  0  0  0  0  0
    0.7286    0.9585   -0.2510 H   0  0  0  0  0  0  0  0  0  0  0  0
    2.3895   -1.1172   -0.0215 H   0  0  0  0  0  0  0  0  0  0  0  0
    2.0793    1.1354   -1.8530 H   0  0  0  0  0  0  0  0  0  0  0  0
    2.6431   -0.5242   -2.1793 H   0  0  0  0  0  0  0  0  0  0  0  0
    4.3029    1.8932   -1.2969 H   0  0  0  0  0  0  0  0  0  0  0  0
    4.3108    0.9752   -2.8169 H   0  0  0  0  0  0  0  0  0  0  0  0
    5.4582   -0.8386   -2.0611 H   0  0  0  0  0  0  0  0  0  0  0  0
    7.6196   -0.8667   -1.9712 H   0  0  0  0  0  0  0  0  0  0  0  0
    7.0438    0.4550   -2.9929 H   0  0  0  0  0  0  0  0  0  0  0  0
    8.4029    2.1119   -1.8715 H   0  0  0  0  0  0  0  0  0  0  0  0
    9.9406    1.8056   -0.2588 H   0  0  0  0  0  0  0  0  0  0  0  0
    8.5607    0.9457    0.4222 H   0  0  0  0  0  0  0  0  0  0  0  0
    9.6659   -1.2420   -0.1829 H   0  0  0  0  0  0  0  0  0  0  0  0
   10.7349   -0.0970    0.7582 H   0  0  0  0  0  0  0  0  0  0  0  0
   11.9367    0.5275   -1.2687 H   0  0  0  0  0  0  0  0  0  0  0  0
   11.8695   -1.2579   -1.1434 H   0  0  0  0  0  0  0  0  0  0  0  0
   11.2248   -0.5934   -3.4513 H   0  0  0  0  0  0  0  0  0  0  0  0
    9.1821    0.6715   -3.7814 H   0  0  0  0  0  0  0  0  0  0  0  0
   10.3993    1.6645   -2.8235 H   0  0  0  0  0  0  0  0  0  0  0  0
    4.3323   -1.6602   -0.1119 H   0  0  0  0  0  0  0  0  0  0  0  0
    4.1742    1.2960    0.6655 H   0  0  0  0  0  0  0  0  0  0  0  0
    3.8011   -0.0418    1.7622 H   0  0  0  0  0  0  0  0  0  0  0  0
   -0.6123    1.2855    1.8261 H   0  0  0  0  0  0  0  0  0  0  0  0
   -1.8264    0.5912   -0.0494 H   0  0  0  0  0  0  0  0  0  0  0  0
   -1.6729   -1.1437    0.3962 H   0  0  0  0  0  0  0  0  0  0  0  0
  1  2  1  0
  2  3  1  0
  2  4  1  0
  2  5  1  0
  5  6  1  0
  6  7  1  0
  7  8  1  0
  8  9  1  0
  9 10  1  0
 10 11  1  0
 11 12  1  0
  9 13  1  0
 12 13  1  0
 12 14  1  0
 14 15  1  0
 15 16  1  0
 16 17  1  0
 17 18  1  0
 18 19  1  0
 19 20  1  0
 20 21  1  0
 21 22  1  0
 22 23  1  0
 23 24  1  0
 24 25  1  0
 25 26  1  0
 26 27  1  0
 27 28  1  0
 28 29  1  0
 29 30  1  0
 30 31  1  0
 31 32  1  0
 32 33  1  0
 33 34  1  0
 29 35  1  0
 33 35  1  0
 26 36  1  0
 36 37  1  0
 23 38  1  0
 36 38  1  0
 17 39  1  0
 21 39  1  0
 14 40  1  0
 39 40  1  0
  1 41  1  0
  1 42  1  0
  1 43  1  0
  3 44  1  0
  4 45  1  0
  5 46  1  0
  5 47  1  0
  6 48  1  0
  6 49  1  0
  7 50  1  0
  8 51  1  0
  8 52  1  0
  9 53  1  0
 10 54  1  0
 10 55  1  0
 11 56  1  0
 11 57  1  0
 12 58  1  0
 14 59  1  0
 15 60  1  0
 15 61  1  0
 16 62  1  0
 16 63  1  0
 17 64  1  0
 18 65  1  0
 19 66  1  0
 19 67  1  0
 20 68  1  0
 21 69  1  0
 22 70  1  0
 23 71  1  0
 24 72  1  0
 24 73  1  0
 25 74  1  0
 25 75  1  0
 26 76  1  0
 28 77  1  0
 28 78  1  0
 29 79  1  0
 30 80  1  0
 30 81  1  0
 31 82  1  0
 31 83  1  0
 32 84  1  0
 32 85  1  0
 33 86  1  0
 35 87  1  0
 35 88  1  0
 36 89  1  0
 38 90  1  0
 38 91  1  0
 39 92  1  0
 40 93  1  0
 40 94  1  0
M  END
>  <PDBID>  (1) 
1XKK

>  <PDB ID>  (1) 
1XKK

>  <Generic Name>  (1) 
Lapatinib

>  <Brand Name>  (1) 
Tykerb#Tycerb

>  <DrugBank ID>  (1) 
DB01259

>  <ATC Codes>  (1) 
L01XE07

>  <Ligand ID>  (1) 
FMM

>  <Target Name>  (1) 
Receptor tyrosine-protein kinase erbB-2

>  <UniProt ID>  (1) 
P04626

>  <PDB ID.1>  (1) 
1XKK

>  <Seq. Identity>  (1) 
78%

$$$$
