PDB_DB00819_01
     RDKit          3D

 27 27  0  0  0  0  0  0  0  0999 V2000
    1.5581   -0.3431   -0.2808 C   0  0  2  0  0  0  0  0  0  0  0  0
   -0.7352    1.0385   -0.1682 C   0  0  2  0  0  0  0  0  0  0  0  0
   -2.7294   -0.1715   -0.8281 C   0  0  0  0  0  0  0  0  0  0  0  0
   -3.6425    0.9217   -0.3173 C   0  0  0  0  0  0  0  0  0  0  0  0
    3.1557    0.5312    1.7888 N   0  0  0  0  0  0  0  0  0  0  0  0
   -0.3393    0.1748    0.9251 N   0  0  0  0  0  0  0  0  0  0  0  0
    0.4647   -0.8180    0.4817 N   0  0  0  0  0  0  0  0  0  0  0  0
   -1.4864    0.4149   -1.1912 N   0  0  0  0  0  0  0  0  0  0  0  0
    4.0111    0.6247   -0.7767 O   0  0  0  0  0  0  0  0  0  0  0  0
    3.7556   -1.6952    0.4678 O   0  0  0  0  0  0  0  0  0  0  0  0
   -2.6606   -1.2663   -0.0046 O   0  0  0  0  0  0  0  0  0  0  0  0
    3.0712   -0.2973    0.4342 S   0  0  0  0  0  0  0  0  0  0  0  0
    0.9581    1.3047   -0.8518 S   0  0  0  0  0  0  0  0  0  0  0  0
    1.5954   -0.9494   -1.2272 H   0  0  0  0  0  0  0  0  0  0  0  0
   -1.1519    1.9703    0.2163 H   0  0  0  0  0  0  0  0  0  0  0  0
   -3.2054   -0.5288   -1.7886 H   0  0  0  0  0  0  0  0  0  0  0  0
   -4.7060    0.6448   -0.4990 H   0  0  0  0  0  0  0  0  0  0  0  0
   -3.4414    1.1442    0.7547 H   0  0  0  0  0  0  0  0  0  0  0  0
   -3.3874    1.8379   -0.8875 H   0  0  0  0  0  0  0  0  0  0  0  0
    3.5580    1.4947    1.6716 H   0  0  0  0  0  0  0  0  0  0  0  0
    2.2449    0.6428    2.2900 H   0  0  0  0  0  0  0  0  0  0  0  0
   -1.1478   -0.2056    1.4184 H   0  0  0  0  0  0  0  0  0  0  0  0
    0.0446   -1.7045    0.1985 H   0  0  0  0  0  0  0  0  0  0  0  0
   -0.9455   -0.0457   -1.9190 H   0  0  0  0  0  0  0  0  0  0  0  0
    4.0563    1.5384   -0.4068 H   0  0  0  0  0  0  0  0  0  0  0  0
    4.4054   -1.9673   -0.2324 H   0  0  0  0  0  0  0  0  0  0  0  0
   -3.3001   -1.2055    0.7320 H   0  0  0  0  0  0  0  0  0  0  0  0
  3  4  1  0
  2  6  1  0
  1  7  1  0
  6  7  1  0
  2  8  1  0
  3  8  1  0
  3 11  1  0
  1 12  1  0
  5 12  1  0
 12  9  1  0
 10 12  1  0
  1 13  1  0
  2 13  1  0
  1 14  1  6
  2 15  1  1
  3 16  1  0
  4 17  1  0
  4 18  1  0
  4 19  1  0
  5 20  1  0
  5 21  1  0
  6 22  1  0
  7 23  1  0
  8 24  1  0
  9 25  1  0
 10 26  1  0
 11 27  1  0
M  END
>  <PDBID>  (1) 
1AZM

>  <PDB ID>  (1) 
1AZM

>  <Generic Name>  (1) 
Acetazolamide

>  <Brand Name>  (1) 
Acetazolam#Acetazolamide#Acetazolamide for Injection, USP#Diamox IV 500mg#Diamox Pws 500mg/vial#Diamox Sequels#Diamox Src 500mg#Diamox Tab 250mg#Diamox Tablets 250mg#Novo-zolamide Tab 250mg#Acemit#Acemox#Acetak#Acetamide#Acetazolamax#Azm#Azol#Azomid#Carbinib#Defiltran#Diabo#Diacarb#Diamox#Diamox Depot#Diazomid#Diluran#Diuramid#Défiltran#Edemox#Glaumox#Glaupax#Glupax#Huma-Zolamide#Iopar-SR#Medene#Oculten#Uramox#Zolmide#Ödemin

>  <DrugBank ID>  (1) 
DB00819

>  <ATC Codes>  (1) 
S01EC01

>  <Ligand ID>  (1) 
AZM

>  <Target Name>  (1) 
Carbonic anhydrase 1

>  <UniProt ID>  (1) 
P00915

>  <PDB ID.1>  (1) 
1AZM

>  <Seq. Identity>  (1) 
100%

$$$$
