PDB_DB00513_01
     RDKit          3D

 25 24  0  0  0  0  0  0  0  0999 V2000
   -3.1896   -0.4144   -0.3237 C   0  0  0  0  0  0  0  0  0  0  0  0
   -3.5611    0.8762   -0.6520 O   0  0  0  0  0  0  0  0  0  0  0  0
   -4.1108   -0.8628    0.6450 O   0  0  0  0  0  0  0  0  0  0  0  0
   -1.8332   -0.3937    0.3552 C   0  0  0  0  0  0  0  0  0  0  0  0
   -0.7722    0.1938   -0.5436 C   0  0  0  0  0  0  0  0  0  0  0  0
    0.5339    0.1573    0.2513 C   0  0  0  0  0  0  0  0  0  0  0  0
    1.5798    0.7538   -0.6788 C   0  0  0  0  0  0  0  0  0  0  0  0
    2.9320    0.7648    0.0223 C   0  0  0  0  0  0  0  0  0  0  0  0
    3.2354   -0.6272    0.3336 N   0  0  0  0  0  0  0  0  0  0  0  0
   -1.9008    0.2210    1.2515 H   0  0  0  0  0  0  0  0  0  0  0  0
   -1.4989   -1.4053    0.6478 H   0  0  0  0  0  0  0  0  0  0  0  0
   -0.9522    1.2602   -0.7750 H   0  0  0  0  0  0  0  0  0  0  0  0
   -0.6043   -0.4190   -1.4540 H   0  0  0  0  0  0  0  0  0  0  0  0
    0.7982   -0.9267    0.4127 H   0  0  0  0  0  0  0  0  0  0  0  0
    0.4521    0.7213    1.1821 H   0  0  0  0  0  0  0  0  0  0  0  0
    1.2956    1.7647   -0.9832 H   0  0  0  0  0  0  0  0  0  0  0  0
    1.5951    0.1153   -1.5774 H   0  0  0  0  0  0  0  0  0  0  0  0
    2.9191    1.3495    0.9378 H   0  0  0  0  0  0  0  0  0  0  0  0
    3.6953    1.0816   -0.7223 H   0  0  0  0  0  0  0  0  0  0  0  0
    2.6889   -0.9440    1.1782 H   0  0  0  0  0  0  0  0  0  0  0  0
    4.2648   -0.7142    0.4876 H   0  0  0  0  0  0  0  0  0  0  0  0
    2.8838   -1.1862   -0.4699 H   0  0  0  0  0  0  0  0  0  0  0  0
   -3.1859   -1.0786   -1.2097 H   0  0  0  0  0  0  0  0  0  0  0  0
   -3.0750    1.5714   -0.1206 H   0  0  0  0  0  0  0  0  0  0  0  0
   -4.1898   -1.8589    0.5347 H   0  0  0  0  0  0  0  0  0  0  0  0
  1  2  1  0
  1  3  1  0
  1  4  1  0
  4  5  1  0
  5  6  1  0
  6  7  1  0
  7  8  1  0
  8  9  1  0
  4 10  1  0
  4 11  1  0
  5 12  1  0
  5 13  1  0
  6 14  1  0
  6 15  1  0
  7 16  1  0
  7 17  1  0
  8 18  1  0
  8 19  1  0
  9 20  1  0
  9 21  1  0
 22  9  1  0
  1 23  1  0
  2 24  1  0
  3 25  1  0
M  CHG  1   9   1
M  END
>  <PDBID>  (1) 
1HPK

>  <PDB ID>  (1) 
1HPK

>  <Generic Name>  (1) 
Aminocaproic Acid

>  <Brand Name>  (1) 
Amicar#Aminocaproic Acid#Exoden White Tooth#Acepramin#Amocap#Caproamin#Caprocat#Caprolisin#E-Capro#Epsicaprom#Hemocid#Inselon#Ipron#Ipsilon#Kai Nai Yin#Minocap#Plaslloid#Resplamin

>  <DrugBank ID>  (1) 
DB00513

>  <ATC Codes>  (1) 
B02AA01

>  <Ligand ID>  (1) 
ACA

>  <Target Name>  (1) 
Plasminogen

>  <UniProt ID>  (1) 
P00747

>  <PDB ID.1>  (1) 
1HPK

>  <Seq. Identity>  (1) 
100%

$$$$
