PDB_DB00990_01
     RDKit          3D

 56 59  0  0  0  0  0  0  0  0999 V2000
    2.3081   -0.6370   -2.8073 C   0  0  0  0  0  0  0  0  0  0  0  0
    1.9832   -0.1352    2.0549 C   0  0  0  0  0  0  0  0  0  0  0  0
    4.7204    0.2602    0.1930 O   0  0  0  0  0  0  0  0  0  0  0  0
    3.4716   -0.1428    2.1344 C   0  0  0  0  0  0  0  0  0  0  0  0
   -5.2160    0.3919    0.6340 O   0  0  0  0  0  0  0  0  0  0  0  0
    4.1564   -0.7688    0.9642 C   0  0  0  0  0  0  0  0  0  0  0  0
    3.0693   -1.3938    0.0838 C   0  0  0  0  0  0  0  0  0  0  0  0
    2.2424   -0.2016   -0.4142 C   0  0  0  0  0  0  0  0  0  0  0  0
    1.4193   -0.6835   -1.5577 C   0  0  0  0  0  0  0  0  0  0  0  0
    0.2211    0.1599   -1.8436 C   0  0  0  0  0  0  0  0  0  0  0  0
   -0.6480    0.3565   -0.6580 C   0  0  2  0  0  0  0  0  0  0  0  0
    0.0264   -0.1842    0.6112 C   0  0  1  0  0  0  0  0  0  0  0  0
    1.4278    0.3164    0.7469 C   0  0  1  0  0  0  0  0  0  0  0  0
   -0.7828    0.0282    1.8308 C   0  0  0  0  0  0  0  0  0  0  0  0
   -2.2448   -0.0578    1.6926 C   0  0  0  0  0  0  0  0  0  0  0  0
   -2.8178    0.3252    0.3826 C   0  0  1  0  0  0  0  0  0  0  0  0
   -1.9625   -0.3391   -0.7058 C   0  0  1  0  0  0  0  0  0  0  0  0
   -2.7735   -0.1168   -1.9183 C   0  0  0  0  0  0  0  0  0  0  0  0
   -4.2197   -0.1086   -1.4433 C   0  0  0  0  0  0  0  0  0  0  0  0
   -4.1536   -0.2841    0.0738 C   0  0  0  0  0  0  0  0  0  0  0  0
   -2.9188    1.8152    0.1590 C   0  0  0  0  0  0  0  0  0  0  0  0
    1.4986    1.8311    0.7069 C   0  0  0  0  0  0  0  0  0  0  0  0
    2.7197   -1.6351   -2.9703 H   0  0  0  0  0  0  0  0  0  0  0  0
    3.1754    0.0575   -2.6406 H   0  0  0  0  0  0  0  0  0  0  0  0
    1.7601   -0.2156   -3.6734 H   0  0  0  0  0  0  0  0  0  0  0  0
    1.5559   -1.1277    2.3646 H   0  0  0  0  0  0  0  0  0  0  0  0
    1.6120    0.5799    2.8410 H   0  0  0  0  0  0  0  0  0  0  0  0
    4.9613   -0.0464   -0.7178 H   0  0  0  0  0  0  0  0  0  0  0  0
    3.7484   -0.7592    3.0398 H   0  0  0  0  0  0  0  0  0  0  0  0
    3.9020    0.8592    2.3328 H   0  0  0  0  0  0  0  0  0  0  0  0
   -5.2260    0.2715    1.6181 H   0  0  0  0  0  0  0  0  0  0  0  0
    4.9238   -1.5017    1.2071 H   0  0  0  0  0  0  0  0  0  0  0  0
    2.3978   -2.0499    0.6733 H   0  0  0  0  0  0  0  0  0  0  0  0
    3.5145   -1.9221   -0.7866 H   0  0  0  0  0  0  0  0  0  0  0  0
    2.9673    0.5471   -0.7689 H   0  0  0  0  0  0  0  0  0  0  0  0
    1.0607   -1.7310   -1.3844 H   0  0  0  0  0  0  0  0  0  0  0  0
    0.5520    1.1461   -2.2724 H   0  0  0  0  0  0  0  0  0  0  0  0
   -0.3601   -0.3233   -2.6590 H   0  0  0  0  0  0  0  0  0  0  0  0
   -0.8447    1.4487   -0.5271 H   0  0  0  0  0  0  0  0  0  0  0  0
    0.0968   -1.2971    0.4328 H   0  0  0  0  0  0  0  0  0  0  0  0
   -0.4934    1.0170    2.2916 H   0  0  0  0  0  0  0  0  0  0  0  0
   -0.4552   -0.7277    2.5992 H   0  0  0  0  0  0  0  0  0  0  0  0
   -2.7135    0.6000    2.4801 H   0  0  0  0  0  0  0  0  0  0  0  0
   -2.6098   -1.0943    1.9462 H   0  0  0  0  0  0  0  0  0  0  0  0
   -1.8716   -1.4053   -0.4219 H   0  0  0  0  0  0  0  0  0  0  0  0
   -2.6560   -1.0215   -2.5836 H   0  0  0  0  0  0  0  0  0  0  0  0
   -2.5164    0.7642   -2.5036 H   0  0  0  0  0  0  0  0  0  0  0  0
   -4.8146   -0.9005   -1.9180 H   0  0  0  0  0  0  0  0  0  0  0  0
   -4.6178    0.9085   -1.6233 H   0  0  0  0  0  0  0  0  0  0  0  0
   -4.1851   -1.3659    0.3437 H   0  0  0  0  0  0  0  0  0  0  0  0
   -2.1952    2.3297    0.7933 H   0  0  0  0  0  0  0  0  0  0  0  0
   -2.8172    2.0663   -0.9276 H   0  0  0  0  0  0  0  0  0  0  0  0
   -3.9772    2.1091    0.4174 H   0  0  0  0  0  0  0  0  0  0  0  0
    1.9731    2.1971   -0.2351 H   0  0  0  0  0  0  0  0  0  0  0  0
    2.1230    2.2275    1.5489 H   0  0  0  0  0  0  0  0  0  0  0  0
    0.5029    2.2976    0.7639 H   0  0  0  0  0  0  0  0  0  0  0  0
  2  4  1  0
  3  6  1  0
  4  6  1  0
  6  7  1  0
  7  8  1  0
  1  9  1  0
  8  9  1  0
  9 10  1  0
 10 11  1  0
 11 12  1  0
  2 13  1  0
  8 13  1  0
 12 13  1  0
 12 14  1  0
 14 15  1  0
 15 16  1  0
 11 17  1  0
 16 17  1  0
 17 18  1  0
 18 19  1  0
  5 20  1  0
 16 20  1  0
 19 20  1  0
 16 21  1  6
 13 22  1  1
  1 23  1  0
  1 24  1  0
  1 25  1  0
  2 26  1  0
  2 27  1  0
  3 28  1  0
  4 29  1  0
  4 30  1  0
  5 31  1  0
  6 32  1  0
  7 33  1  0
  7 34  1  0
  8 35  1  0
  9 36  1  0
 10 37  1  0
 10 38  1  0
 11 39  1  1
 12 40  1  6
 14 41  1  0
 14 42  1  0
 15 43  1  0
 15 44  1  0
 17 45  1  1
 18 46  1  0
 18 47  1  0
 19 48  1  0
 19 49  1  0
 20 50  1  0
 21 51  1  0
 21 52  1  0
 21 53  1  0
 22 54  1  0
 22 55  1  0
 22 56  1  0
M  END
>  <PDBID>  (1) 
3S7S

>  <PDB ID>  (1) 
3S7S

>  <Generic Name>  (1) 
Exemestane

>  <Brand Name>  (1) 
Act Exemestane#Apo-exemestane#Aromasin#Exemestane#Gd-exemestane#Med-exemestane#Mylan-exemestane#Teva-exemestane#Exemestance

>  <DrugBank ID>  (1) 
DB00990

>  <ATC Codes>  (1) 
L02BG06

>  <Ligand ID>  (1) 
EXM

>  <Target Name>  (1) 
Aromatase

>  <UniProt ID>  (1) 
P11511

>  <PDB ID.1>  (1) 
3S7S

>  <Seq. Identity>  (1) 
98%

$$$$
