PDB_DB06243_04
     RDKit          3D

 76 72  0  0  0  0  0  0  0  0999 V2000
    1.5948   -0.2485   -0.0604 C   0  0  2  0  0  0  0  0  0  0  0  0
    1.4062    0.3986    1.2816 C   0  0  0  0  0  0  0  0  0  0  0  0
    2.8984    0.2088   -0.5741 N   0  0  0  0  0  0  0  0  0  0  0  0
    0.5432    0.0441   -1.0631 C   0  0  0  0  0  0  0  0  0  0  0  0
   -0.8427   -0.3669   -0.7446 C   0  0  0  0  0  0  0  0  0  0  0  0
   -1.4490    0.2428    0.4912 C   0  0  0  0  0  0  0  0  0  0  0  0
   -2.8279   -0.2332    0.6602 N   0  0  0  0  0  0  0  0  0  0  0  0
    1.6118   -0.1750   -0.1128 C   0  0  0  0  0  0  0  0  0  0  0  0
    1.4106    0.3580    1.2685 C   0  0  0  0  0  0  0  0  0  0  0  0
    2.8758    0.4194   -0.5901 N   0  0  0  0  0  0  0  0  0  0  0  0
    0.5314    0.1532   -1.0986 C   0  0  0  0  0  0  0  0  0  0  0  0
   -0.8285   -0.3552   -0.7744 C   0  0  0  0  0  0  0  0  0  0  0  0
   -1.4294    0.1364    0.5102 C   0  0  0  0  0  0  0  0  0  0  0  0
   -2.7728   -0.4189    0.6781 N   0  0  0  0  0  0  0  0  0  0  0  0
    1.5948   -0.2485   -0.0604 C   0  0  2  0  0  0  0  0  0  0  0  0
    1.4062    0.3986    1.2816 C   0  0  0  0  0  0  0  0  0  0  0  0
    2.8984    0.2088   -0.5741 N   0  0  0  0  0  0  0  0  0  0  0  0
    0.5432    0.0441   -1.0631 C   0  0  0  0  0  0  0  0  0  0  0  0
   -0.8427   -0.3669   -0.7446 C   0  0  0  0  0  0  0  0  0  0  0  0
   -1.4490    0.2428    0.4912 C   0  0  0  0  0  0  0  0  0  0  0  0
   -2.8279   -0.2332    0.6602 N   0  0  0  0  0  0  0  0  0  0  0  0
    1.5948   -0.2485   -0.0604 C   0  0  2  0  0  0  0  0  0  0  0  0
    1.4062    0.3986    1.2816 C   0  0  0  0  0  0  0  0  0  0  0  0
    2.8984    0.2088   -0.5741 N   0  0  0  0  0  0  0  0  0  0  0  0
    0.5432    0.0441   -1.0631 C   0  0  0  0  0  0  0  0  0  0  0  0
   -0.8427   -0.3669   -0.7446 C   0  0  0  0  0  0  0  0  0  0  0  0
   -1.4490    0.2428    0.4912 C   0  0  0  0  0  0  0  0  0  0  0  0
   -2.8279   -0.2332    0.6602 N   0  0  0  0  0  0  0  0  0  0  0  0
    1.7420   -1.3491    0.0958 H   0  0  0  0  0  0  0  0  0  0  0  0
    1.7838    1.4411    1.2490 H   0  0  0  0  0  0  0  0  0  0  0  0
    2.0638   -0.1401    1.9990 H   0  0  0  0  0  0  0  0  0  0  0  0
    2.6845    1.0746   -1.1502 H   0  0  0  0  0  0  0  0  0  0  0  0
    0.5855    1.1620   -1.2520 H   0  0  0  0  0  0  0  0  0  0  0  0
    0.8024   -0.4017   -2.0702 H   0  0  0  0  0  0  0  0  0  0  0  0
   -0.9558   -1.4896   -0.6740 H   0  0  0  0  0  0  0  0  0  0  0  0
   -1.5634   -0.1071   -1.5795 H   0  0  0  0  0  0  0  0  0  0  0  0
   -1.4504    1.3476    0.4658 H   0  0  0  0  0  0  0  0  0  0  0  0
   -0.9038   -0.1240    1.4091 H   0  0  0  0  0  0  0  0  0  0  0  0
   -3.0920   -0.8915   -0.0929 H   0  0  0  0  0  0  0  0  0  0  0  0
   -3.0196   -0.5678    1.6093 H   0  0  0  0  0  0  0  0  0  0  0  0
    1.7713   -1.2775   -0.0366 H   0  0  0  0  0  0  0  0  0  0  0  0
    1.6302    1.4215    1.3943 H   0  0  0  0  0  0  0  0  0  0  0  0
    2.0512   -0.2204    1.9638 H   0  0  0  0  0  0  0  0  0  0  0  0
    2.5802    1.3756   -0.9550 H   0  0  0  0  0  0  0  0  0  0  0  0
    0.5151    1.2686   -1.3156 H   0  0  0  0  0  0  0  0  0  0  0  0
    0.8395   -0.3772   -2.0561 H   0  0  0  0  0  0  0  0  0  0  0  0
   -0.8187   -1.4700   -0.7847 H   0  0  0  0  0  0  0  0  0  0  0  0
   -1.5544   -0.0968   -1.6036 H   0  0  0  0  0  0  0  0  0  0  0  0
   -1.5341    1.2357    0.5242 H   0  0  0  0  0  0  0  0  0  0  0  0
   -0.8733   -0.1887    1.4207 H   0  0  0  0  0  0  0  0  0  0  0  0
   -3.0411   -1.0625   -0.0711 H   0  0  0  0  0  0  0  0  0  0  0  0
   -2.9649   -0.7261    1.6388 H   0  0  0  0  0  0  0  0  0  0  0  0
    1.7420   -1.3491    0.0958 H   0  0  0  0  0  0  0  0  0  0  0  0
    1.7838    1.4411    1.2490 H   0  0  0  0  0  0  0  0  0  0  0  0
    2.0638   -0.1401    1.9990 H   0  0  0  0  0  0  0  0  0  0  0  0
    2.6845    1.0746   -1.1502 H   0  0  0  0  0  0  0  0  0  0  0  0
    0.5855    1.1620   -1.2520 H   0  0  0  0  0  0  0  0  0  0  0  0
    0.8024   -0.4017   -2.0702 H   0  0  0  0  0  0  0  0  0  0  0  0
   -0.9558   -1.4896   -0.6740 H   0  0  0  0  0  0  0  0  0  0  0  0
   -1.5634   -0.1071   -1.5795 H   0  0  0  0  0  0  0  0  0  0  0  0
   -1.4504    1.3476    0.4658 H   0  0  0  0  0  0  0  0  0  0  0  0
   -0.9038   -0.1240    1.4091 H   0  0  0  0  0  0  0  0  0  0  0  0
   -3.0920   -0.8915   -0.0929 H   0  0  0  0  0  0  0  0  0  0  0  0
   -3.0196   -0.5678    1.6093 H   0  0  0  0  0  0  0  0  0  0  0  0
    1.7420   -1.3491    0.0958 H   0  0  0  0  0  0  0  0  0  0  0  0
    1.7838    1.4411    1.2490 H   0  0  0  0  0  0  0  0  0  0  0  0
    2.0638   -0.1401    1.9990 H   0  0  0  0  0  0  0  0  0  0  0  0
    2.6845    1.0746   -1.1502 H   0  0  0  0  0  0  0  0  0  0  0  0
    0.5855    1.1620   -1.2520 H   0  0  0  0  0  0  0  0  0  0  0  0
    0.8024   -0.4017   -2.0702 H   0  0  0  0  0  0  0  0  0  0  0  0
   -0.9558   -1.4896   -0.6740 H   0  0  0  0  0  0  0  0  0  0  0  0
   -1.5634   -0.1071   -1.5795 H   0  0  0  0  0  0  0  0  0  0  0  0
   -1.4504    1.3476    0.4658 H   0  0  0  0  0  0  0  0  0  0  0  0
   -0.9038   -0.1240    1.4091 H   0  0  0  0  0  0  0  0  0  0  0  0
   -3.0920   -0.8915   -0.0929 H   0  0  0  0  0  0  0  0  0  0  0  0
   -3.0196   -0.5678    1.6093 H   0  0  0  0  0  0  0  0  0  0  0  0
  1  2  1  0
  1  3  1  0
  1  4  1  0
  4  5  1  0
  5  6  1  0
  6  7  1  0
  8  9  1  0
  8 10  1  0
  8 11  1  0
 11 12  1  0
 12 13  1  0
 13 14  1  0
 15 16  1  0
 15 17  1  0
 15 18  1  0
 18 19  1  0
 19 20  1  0
 20 21  1  0
 22 23  1  0
 22 24  1  0
 22 25  1  0
 25 26  1  0
 26 27  1  0
 27 28  1  0
  1 29  1  1
  2 30  1  0
  2 31  1  0
  3 32  1  0
  4 33  1  0
  4 34  1  0
  5 35  1  0
  5 36  1  0
  6 37  1  0
  6 38  1  0
  7 39  1  0
  7 40  1  0
  8 41  1  0
  9 42  1  0
  9 43  1  0
 10 44  1  0
 11 45  1  0
 11 46  1  0
 12 47  1  0
 12 48  1  0
 13 49  1  0
 13 50  1  0
 14 51  1  0
 14 52  1  0
 15 53  1  1
 16 54  1  0
 16 55  1  0
 17 56  1  0
 18 57  1  0
 18 58  1  0
 19 59  1  0
 19 60  1  0
 20 61  1  0
 20 62  1  0
 21 63  1  0
 21 64  1  0
 22 65  1  1
 23 66  1  0
 23 67  1  0
 24 68  1  0
 25 69  1  0
 25 70  1  0
 26 71  1  0
 26 72  1  0
 27 73  1  0
 27 74  1  0
 28 75  1  0
 28 76  1  0
M  END
>  <PDBID>  (1) 
2TOD

>  <PDB ID>  (1) 
2TOD

>  <Generic Name>  (1) 
Eflornithine

>  <Brand Name>  (1) 
Vaniqa

>  <DrugBank ID>  (1) 
DB06243

>  <ATC Codes>  (1) 
D11AX16#P01CX03

>  <Ligand ID>  (1) 
DMO

>  <Target Name>  (1) 
Ornithine decarboxylase

>  <UniProt ID>  (1) 
P11926

>  <PDB ID.1>  (1) 
2TOD

>  <Seq. Identity>  (1) 
65%

$$$$
