PDB_DB00834_06
     RDKit          3D

 83 87  0  0  0  0  0  0  0  0999 V2000
   -3.5095    5.0105   -0.7673 O   0  0  0  0  0  0  0  0  0  0  0  0
   -2.1569    4.6709   -0.9591 C   0  0  0  0  0  0  0  0  0  0  0  0
   -2.0100    3.5154   -1.8274 C   0  0  0  0  0  0  0  0  0  0  0  0
   -1.5181    4.6124    0.3991 C   0  0  0  0  0  0  0  0  0  0  0  0
   -1.6461    3.2295    0.9160 C   0  0  0  0  0  0  0  0  0  0  0  0
   -1.1807    2.9703    2.2955 C   0  0  0  0  0  0  0  0  0  0  0  0
   -0.8766    2.3221   -0.0541 C   0  0  2  0  0  0  0  0  0  0  0  0
   -1.8223    2.1647   -1.1704 C   0  0  0  0  0  0  0  0  0  0  0  0
   -0.2887    1.1532    0.6201 C   0  0  0  0  0  0  0  0  0  0  0  0
    0.1809    0.0694   -0.2748 C   0  0  1  0  0  0  0  0  0  0  0  0
    1.6558    0.3232   -0.6494 C   0  0  0  0  0  0  0  0  0  0  0  0
    2.1256   -0.7961   -1.5701 C   0  0  0  0  0  0  0  0  0  0  0  0
    3.5214   -0.3752   -2.0384 C   0  0  0  0  0  0  0  0  0  0  0  0
    4.4315   -0.4889   -0.8570 C   0  0  0  0  0  0  0  0  0  0  0  0
    5.5126    0.5060   -0.9509 N   0  0  0  0  0  0  0  0  0  0  0  0
    6.3545    0.3249    0.2374 C   0  0  0  0  0  0  0  0  0  0  0  0
    6.3409    0.0508   -2.0784 C   0  0  0  0  0  0  0  0  0  0  0  0
    3.7601   -0.4855    0.4617 C   0  0  0  0  0  0  0  0  0  0  0  0
    2.5296    0.3680    0.5518 C   0  0  0  0  0  0  0  0  0  0  0  0
    0.1021   -1.3257    0.2348 C   0  0  0  0  0  0  0  0  0  0  0  0
   -1.0477   -1.7071    1.0491 C   0  0  2  0  0  0  0  0  0  0  0  0
   -0.5469   -2.1186    2.4447 C   0  0  0  0  0  0  0  0  0  0  0  0
   -1.9832   -2.7328    0.6001 C   0  0  1  0  0  0  0  0  0  0  0  0
   -2.1244   -2.9746   -0.8519 C   0  0  0  0  0  0  0  0  0  0  0  0
   -3.1517   -4.0858   -1.0430 C   0  0  0  0  0  0  0  0  0  0  0  0
   -3.3548   -4.3940   -2.5086 C   0  0  0  0  0  0  0  0  0  0  0  0
   -1.7023   -3.9800    1.2066 O   0  0  0  0  0  0  0  0  0  0  0  0
   -3.3531   -2.3157    1.1472 C   0  0  0  0  0  0  0  0  0  0  0  0
   -3.1069   -0.9977    1.8978 C   0  0  0  0  0  0  0  0  0  0  0  0
   -1.9524   -0.4692    1.1737 C   0  0  1  0  0  0  0  0  0  0  0  0
   -1.1097    0.5761    1.7835 C   0  0  2  0  0  0  0  0  0  0  0  0
   -1.7936    1.5936    2.6117 C   0  0  0  0  0  0  0  0  0  0  0  0
   -4.1100    4.2978   -1.0738 H   0  0  0  0  0  0  0  0  0  0  0  0
   -1.7120    5.5779   -1.4686 H   0  0  0  0  0  0  0  0  0  0  0  0
   -2.9325    3.4103   -2.4700 H   0  0  0  0  0  0  0  0  0  0  0  0
   -1.1727    3.6290   -2.5613 H   0  0  0  0  0  0  0  0  0  0  0  0
   -2.0236    5.3579    1.0656 H   0  0  0  0  0  0  0  0  0  0  0  0
   -0.4485    4.8866    0.3171 H   0  0  0  0  0  0  0  0  0  0  0  0
   -2.7520    2.9853    0.8920 H   0  0  0  0  0  0  0  0  0  0  0  0
   -1.5965    3.7381    2.9786 H   0  0  0  0  0  0  0  0  0  0  0  0
   -0.0968    2.9603    2.4441 H   0  0  0  0  0  0  0  0  0  0  0  0
   -0.0170    2.9401   -0.4657 H   0  0  0  0  0  0  0  0  0  0  0  0
   -2.8338    1.9071   -0.7381 H   0  0  0  0  0  0  0  0  0  0  0  0
   -1.6280    1.4553   -1.9552 H   0  0  0  0  0  0  0  0  0  0  0  0
    0.6297    1.5508    1.1610 H   0  0  0  0  0  0  0  0  0  0  0  0
   -0.3228    0.0699   -1.2874 H   0  0  0  0  0  0  0  0  0  0  0  0
    1.6608    1.2562   -1.2480 H   0  0  0  0  0  0  0  0  0  0  0  0
    1.4473   -0.9422   -2.4194 H   0  0  0  0  0  0  0  0  0  0  0  0
    2.2416   -1.7218   -0.9985 H   0  0  0  0  0  0  0  0  0  0  0  0
    3.8363   -0.9634   -2.9075 H   0  0  0  0  0  0  0  0  0  0  0  0
    3.4316    0.7103   -2.2839 H   0  0  0  0  0  0  0  0  0  0  0  0
    4.9666   -1.4795   -0.9611 H   0  0  0  0  0  0  0  0  0  0  0  0
    6.1352    1.0633    1.0195 H   0  0  0  0  0  0  0  0  0  0  0  0
    7.4322    0.4740   -0.0648 H   0  0  0  0  0  0  0  0  0  0  0  0
    6.3113   -0.7302    0.5928 H   0  0  0  0  0  0  0  0  0  0  0  0
    7.3854    0.3936   -1.9495 H   0  0  0  0  0  0  0  0  0  0  0  0
    6.3290   -1.0604   -2.1514 H   0  0  0  0  0  0  0  0  0  0  0  0
    5.9082    0.4754   -2.9893 H   0  0  0  0  0  0  0  0  0  0  0  0
    3.5031   -1.5294    0.8078 H   0  0  0  0  0  0  0  0  0  0  0  0
    4.4759   -0.1066    1.2283 H   0  0  0  0  0  0  0  0  0  0  0  0
    2.8793    1.4319    0.6955 H   0  0  0  0  0  0  0  0  0  0  0  0
    2.0249    0.1087    1.5056 H   0  0  0  0  0  0  0  0  0  0  0  0
    1.0761   -1.5376    0.7718 H   0  0  0  0  0  0  0  0  0  0  0  0
    0.1659   -2.0229   -0.6524 H   0  0  0  0  0  0  0  0  0  0  0  0
    0.5525   -1.8746    2.5425 H   0  0  0  0  0  0  0  0  0  0  0  0
   -0.5933   -3.2208    2.5781 H   0  0  0  0  0  0  0  0  0  0  0  0
   -1.1042   -1.6673    3.2556 H   0  0  0  0  0  0  0  0  0  0  0  0
   -1.1769   -3.4069   -1.2909 H   0  0  0  0  0  0  0  0  0  0  0  0
   -2.4448   -2.0966   -1.4304 H   0  0  0  0  0  0  0  0  0  0  0  0
   -4.1026   -3.8917   -0.5143 H   0  0  0  0  0  0  0  0  0  0  0  0
   -2.7579   -5.0421   -0.5871 H   0  0  0  0  0  0  0  0  0  0  0  0
   -2.5768   -5.1359   -2.8548 H   0  0  0  0  0  0  0  0  0  0  0  0
   -4.3241   -4.9546   -2.5873 H   0  0  0  0  0  0  0  0  0  0  0  0
   -3.3382   -3.4768   -3.1043 H   0  0  0  0  0  0  0  0  0  0  0  0
   -2.5337   -4.4140    1.5314 H   0  0  0  0  0  0  0  0  0  0  0  0
   -3.7571   -3.0198    1.8705 H   0  0  0  0  0  0  0  0  0  0  0  0
   -4.0464   -2.0434    0.3198 H   0  0  0  0  0  0  0  0  0  0  0  0
   -3.0398   -1.1313    2.9719 H   0  0  0  0  0  0  0  0  0  0  0  0
   -3.9854   -0.3040    1.7367 H   0  0  0  0  0  0  0  0  0  0  0  0
   -2.2600   -0.2547    0.1227 H   0  0  0  0  0  0  0  0  0  0  0  0
   -0.3793    0.0785    2.4974 H   0  0  0  0  0  0  0  0  0  0  0  0
   -1.7407    1.4052    3.7139 H   0  0  0  0  0  0  0  0  0  0  0  0
   -2.8649    1.6507    2.3649 H   0  0  0  0  0  0  0  0  0  0  0  0
  1  2  1  0
  2  3  1  0
  2  4  1  0
  4  5  1  0
  5  6  1  0
  5  7  1  0
  3  8  1  0
  7  8  1  0
  7  9  1  0
  9 10  1  0
 10 11  1  0
 11 12  1  0
 12 13  1  0
 13 14  1  0
 14 15  1  0
 15 16  1  0
 15 17  1  0
 14 18  1  0
 11 19  1  0
 18 19  1  0
 10 20  1  0
 20 21  1  0
 21 22  1  1
 21 23  1  0
 23 24  1  0
 24 25  1  0
 25 26  1  0
 23 27  1  1
 23 28  1  0
 28 29  1  0
 21 30  1  0
 29 30  1  0
  9 31  1  0
 30 31  1  0
  6 32  1  0
 31 32  1  0
  1 33  1  0
  2 34  1  0
  3 35  1  0
  3 36  1  0
  4 37  1  0
  4 38  1  0
  5 39  1  0
  6 40  1  0
  6 41  1  0
  7 42  1  6
  8 43  1  0
  8 44  1  0
  9 45  1  0
 10 46  1  6
 11 47  1  0
 12 48  1  0
 12 49  1  0
 13 50  1  0
 13 51  1  0
 14 52  1  0
 16 53  1  0
 16 54  1  0
 16 55  1  0
 17 56  1  0
 17 57  1  0
 17 58  1  0
 18 59  1  0
 18 60  1  0
 19 61  1  0
 19 62  1  0
 20 63  1  0
 20 64  1  0
 22 65  1  0
 22 66  1  0
 22 67  1  0
 24 68  1  0
 24 69  1  0
 25 70  1  0
 25 71  1  0
 26 72  1  0
 26 73  1  0
 26 74  1  0
 27 75  1  0
 28 76  1  0
 28 77  1  0
 29 78  1  0
 29 79  1  0
 30 80  1  6
 31 81  1  1
 32 82  1  0
 32 83  1  0
M  END
>  <PDBID>  (1) 
2W8Y

>  <PDB ID>  (1) 
2W8Y

>  <Generic Name>  (1) 
Mifepristone

>  <Brand Name>  (1) 
Korlym#Mifegymiso#Corlux#Mefipil#Mifegyne#Mifeprex

>  <DrugBank ID>  (1) 
DB00834

>  <ATC Codes>  (1) 
G03XB01#G03XB51

>  <Ligand ID>  (1) 
486

>  <Target Name>  (1) 
Progesterone receptor

>  <UniProt ID>  (1) 
P06401

>  <PDB ID.1>  (1) 
2W8Y

>  <Seq. Identity>  (1) 
96%

$$$$
