PDB_DB00196_08
     RDKit          3D

 48 50  0  0  0  0  0  0  0  0999 V2000
    0.4668   -0.8726    1.2630 O   0  0  0  0  0  0  0  0  0  0  0  0
    0.1159   -0.2379    0.0920 C   0  0  0  0  0  0  0  0  0  0  0  0
   -0.9055   -1.1029   -0.6659 C   0  0  0  0  0  0  0  0  0  0  0  0
    1.3483   -0.3377   -0.8296 C   0  0  0  0  0  0  0  0  0  0  0  0
   -0.3867    1.1259    0.2090 C   0  0  0  0  0  0  0  0  0  0  0  0
   -2.0878   -1.4394    0.0294 N   0  0  0  0  0  0  0  0  0  0  0  0
   -2.9703   -2.0929   -0.9622 C   0  0  0  0  0  0  0  0  0  0  0  0
   -1.8670   -2.4245    1.0129 N   0  0  0  0  0  0  0  0  0  0  0  0
   -3.6851   -3.0364   -0.1560 N   0  0  0  0  0  0  0  0  0  0  0  0
   -2.5926   -3.6096    0.6287 C   0  0  0  0  0  0  0  0  0  0  0  0
    2.5544    0.1908   -0.2116 N   0  0  0  0  0  0  0  0  0  0  0  0
    3.6120    0.3033   -1.2066 C   0  0  0  0  0  0  0  0  0  0  0  0
    3.0606   -0.7622    0.7066 N   0  0  0  0  0  0  0  0  0  0  0  0
    4.6088   -0.6606   -0.9454 N   0  0  0  0  0  0  0  0  0  0  0  0
    4.4459   -0.9563    0.4575 C   0  0  0  0  0  0  0  0  0  0  0  0
   -1.6180    1.2935    1.0624 C   0  0  0  0  0  0  0  0  0  0  0  0
    0.5530    2.1925    0.7145 C   0  0  0  0  0  0  0  0  0  0  0  0
   -2.3362    2.5299    0.5395 C   0  0  0  0  0  0  0  0  0  0  0  0
   -1.4566    3.7184    0.4650 C   0  0  0  0  0  0  0  0  0  0  0  0
   -1.6304    4.5827    1.5604 F   0  0  0  0  0  0  0  0  0  0  0  0
   -0.0205    3.5039    0.1950 C   0  0  0  0  0  0  0  0  0  0  0  0
    0.4293    2.2437    2.0964 F   0  0  0  0  0  0  0  0  0  0  0  0
    0.6923   -0.2405    1.9911 H   0  0  0  0  0  0  0  0  0  0  0  0
   -1.0925   -0.6696   -1.6761 H   0  0  0  0  0  0  0  0  0  0  0  0
   -0.4056   -2.0954   -0.9091 H   0  0  0  0  0  0  0  0  0  0  0  0
    1.1333    0.1242   -1.8141 H   0  0  0  0  0  0  0  0  0  0  0  0
    1.5637   -1.4122   -1.0410 H   0  0  0  0  0  0  0  0  0  0  0  0
   -0.7481    1.4311   -0.8378 H   0  0  0  0  0  0  0  0  0  0  0  0
   -2.3436   -2.5365   -1.7410 H   0  0  0  0  0  0  0  0  0  0  0  0
   -3.6404   -1.2802   -1.3115 H   0  0  0  0  0  0  0  0  0  0  0  0
   -0.8501   -2.6911    0.9467 H   0  0  0  0  0  0  0  0  0  0  0  0
   -4.1549   -3.7869   -0.7191 H   0  0  0  0  0  0  0  0  0  0  0  0
   -2.9690   -4.2135    1.4496 H   0  0  0  0  0  0  0  0  0  0  0  0
   -2.0006   -4.2178   -0.1158 H   0  0  0  0  0  0  0  0  0  0  0  0
    4.0533    1.3254   -1.0529 H   0  0  0  0  0  0  0  0  0  0  0  0
    3.2068    0.1529   -2.2290 H   0  0  0  0  0  0  0  0  0  0  0  0
    2.5088   -1.6565    0.6516 H   0  0  0  0  0  0  0  0  0  0  0  0
    4.5986   -1.5192   -1.5186 H   0  0  0  0  0  0  0  0  0  0  0  0
    5.0951   -0.3075    1.0805 H   0  0  0  0  0  0  0  0  0  0  0  0
    4.6982   -2.0464    0.6310 H   0  0  0  0  0  0  0  0  0  0  0  0
   -2.2900    0.4567    1.1302 H   0  0  0  0  0  0  0  0  0  0  0  0
   -1.3014    1.5541    2.1103 H   0  0  0  0  0  0  0  0  0  0  0  0
    1.5705    2.1420    0.3652 H   0  0  0  0  0  0  0  0  0  0  0  0
   -2.7431    2.2969   -0.4680 H   0  0  0  0  0  0  0  0  0  0  0  0
   -3.2153    2.7655    1.1656 H   0  0  0  0  0  0  0  0  0  0  0  0
   -1.8450    4.3452   -0.3972 H   0  0  0  0  0  0  0  0  0  0  0  0
    0.2663    3.6191   -0.8915 H   0  0  0  0  0  0  0  0  0  0  0  0
    0.5745    4.3087    0.7210 H   0  0  0  0  0  0  0  0  0  0  0  0
  2  1  1  0
  2  3  1  0
  2  4  1  0
  2  5  1  0
  3  6  1  0
  6  7  1  0
  6  8  1  0
  7  9  1  0
  8 10  1  0
  9 10  1  0
  4 11  1  0
 11 12  1  0
 11 13  1  0
 12 14  1  0
 13 15  1  0
 15 14  1  0
  5 16  1  0
  5 17  1  0
 16 18  1  0
 18 19  1  0
 19 20  1  0
 17 21  1  0
 19 21  1  0
 17 22  1  0
  1 23  1  0
  3 24  1  0
  3 25  1  0
  4 26  1  0
  4 27  1  0
  5 28  1  0
  7 29  1  0
  7 30  1  0
  8 31  1  0
  9 32  1  0
 10 33  1  0
 10 34  1  0
 12 35  1  0
 12 36  1  0
 13 37  1  0
 14 38  1  0
 15 39  1  0
 15 40  1  0
 16 41  1  0
 16 42  1  0
 17 43  1  0
 18 44  1  0
 18 45  1  0
 19 46  1  0
 21 47  1  0
 21 48  1  0
M  END
>  <PDBID>  (1) 
5ESM

>  <PDB ID>  (1) 
5ESM

>  <Generic Name>  (1) 
Fluconazole

>  <Brand Name>  (1) 
Act Fluconazole#Apo-fluconazole#Apo-fluconazole-150#Canesoral#Canesoral Combi-pak#Clotrimaderm-fluconazole Combi-pack#Clotrimazole-fluconazole Combi-pack#Co Fluconazole-150#Diflucan#Diflucan Inj 2mg/ml#Diflucan One#Diflucan Pws 50mg/5ml#Diflucan Tab 100mg#Diflucan Tab 50mg#Dom-fluconazole#Fluconazole#Fluconazole 150#Fluconazole In Sodium Chloride Injection USP#Fluconazole Injection#Fluconazole Injection Sdz#Fluconazole Omega#Fluconazole-150#Jamp-fluconazole#Mar-fluconazole-150#Monicure#Monicure Combo#Mylan-fluconazole#Novo-fluconazole#Novo-fluconazole-150#Nu-fluconazole-150#PHL-fluconazole#PMS-fluconazole#PMS-fluconazole-150#Priva-fluconazole#Pro-fluconazole#Riva-fluconazole#Taro-fluconazole#Teva-fluconazole#Elazor#Flucazol#Flucostat#Flunizol#Pritenzol#Trican#Triflucan

>  <DrugBank ID>  (1) 
DB00196

>  <ATC Codes>  (1) 
D01AC15#J02AC01#J01RA07

>  <Ligand ID>  (1) 
TPF

>  <Target Name>  (1) 
Lanosterol 14-alpha demethylase

>  <UniProt ID>  (1) 
P10613

>  <PDB ID.1>  (1) 
5ESM

>  <Seq. Identity>  (1) 
65%

$$$$
