PDB_DB01137_09
     RDKit          3D

116122  0  0  0  0  0  0  0  0999 V2000
   -4.3146   -1.4852   -0.1916 C   0  0  0  0  0  0  0  0  0  0  0  0
    0.5438   -2.6195   -0.9279 F   0  0  0  0  0  0  0  0  0  0  0  0
    5.0736    0.5680   -0.0084 N   0  0  0  0  0  0  0  0  0  0  0  0
   -4.5903   -2.7446    0.2698 O   0  0  0  0  0  0  0  0  0  0  0  0
    3.3040   -0.6300   -1.1335 C   0  0  0  0  0  0  0  0  0  0  0  0
    2.3662    0.2735   -0.4919 N   0  0  0  0  0  0  0  0  0  0  0  0
    0.1456    1.8546   -0.8253 O   0  0  0  0  0  0  0  0  0  0  0  0
    2.7869    0.3894    0.8882 C   0  0  0  0  0  0  0  0  0  0  0  0
   -2.4483    0.8729   -0.6081 N   0  0  0  0  0  0  0  0  0  0  0  0
   -2.6188   -2.1379    2.2369 O   0  0  0  0  0  0  0  0  0  0  0  0
   -2.2070    2.1267   -1.1838 C   0  0  2  0  0  0  0  0  0  0  0  0
   -5.5104   -0.9442   -0.6874 O   0  0  0  0  0  0  0  0  0  0  0  0
    1.0499   -0.2887   -0.6362 C   0  0  0  0  0  0  0  0  0  0  0  0
   -1.3682   -0.0075   -0.5198 C   0  0  0  0  0  0  0  0  0  0  0  0
   -0.0395    0.6670   -0.1447 C   0  0  0  0  0  0  0  0  0  0  0  0
    4.6173    0.1191   -1.3037 C   0  0  0  0  0  0  0  0  0  0  0  0
    4.2604    0.1067    1.0749 C   0  0  0  0  0  0  0  0  0  0  0  0
   -0.8080    2.1451   -1.7595 C   0  0  0  0  0  0  0  0  0  0  0  0
   -1.5164   -1.1854    0.3706 C   0  0  0  0  0  0  0  0  0  0  0  0
    0.9053   -1.6455    0.0143 C   0  0  0  0  0  0  0  0  0  0  0  0
   -3.5282    0.8060    0.2717 C   0  0  0  0  0  0  0  0  0  0  0  0
   -0.2025   -1.5939    1.0206 C   0  0  0  0  0  0  0  0  0  0  0  0
   -2.3845    3.3154   -0.3054 C   0  0  0  0  0  0  0  0  0  0  0  0
   -2.5112   -1.0013    1.4840 C   0  0  0  0  0  0  0  0  0  0  0  0
    6.4370    0.1361    0.2531 C   0  0  0  0  0  0  0  0  0  0  0  0
   -3.8017   -0.5374    0.8624 C   0  0  0  0  0  0  0  0  0  0  0  0
    2.9641   -0.8695   -2.1704 H   0  0  0  0  0  0  0  0  0  0  0  0
    3.4664   -1.5714   -0.6008 H   0  0  0  0  0  0  0  0  0  0  0  0
    2.5785    1.4277    1.2175 H   0  0  0  0  0  0  0  0  0  0  0  0
    2.2487   -0.2940    1.5684 H   0  0  0  0  0  0  0  0  0  0  0  0
   -2.9107    2.2585   -2.0580 H   0  0  0  0  0  0  0  0  0  0  0  0
    5.3455   -0.5433   -1.8093 H   0  0  0  0  0  0  0  0  0  0  0  0
    4.4299    0.9946   -1.9366 H   0  0  0  0  0  0  0  0  0  0  0  0
    4.5889    0.6591    1.9914 H   0  0  0  0  0  0  0  0  0  0  0  0
    4.4403   -0.9773    1.3123 H   0  0  0  0  0  0  0  0  0  0  0  0
   -0.8241    1.4499   -2.6326 H   0  0  0  0  0  0  0  0  0  0  0  0
   -0.6215    3.1492   -2.1579 H   0  0  0  0  0  0  0  0  0  0  0  0
   -4.4654    1.1039   -0.2849 H   0  0  0  0  0  0  0  0  0  0  0  0
   -0.0399   -0.9346    1.8692 H   0  0  0  0  0  0  0  0  0  0  0  0
   -1.5540    3.4582    0.4231 H   0  0  0  0  0  0  0  0  0  0  0  0
   -2.3445    4.2264   -0.9729 H   0  0  0  0  0  0  0  0  0  0  0  0
   -3.3611    3.3680    0.1972 H   0  0  0  0  0  0  0  0  0  0  0  0
    7.0751    1.0135    0.5000 H   0  0  0  0  0  0  0  0  0  0  0  0
    6.5048   -0.5631    1.1113 H   0  0  0  0  0  0  0  0  0  0  0  0
    6.8847   -0.3853   -0.6168 H   0  0  0  0  0  0  0  0  0  0  0  0
   -4.3146   -1.4852   -0.1916 C   0  0  0  0  0  0  0  0  0  0  0  0
    0.5438   -2.6195   -0.9279 F   0  0  0  0  0  0  0  0  0  0  0  0
    5.0736    0.5680   -0.0084 N   0  0  0  0  0  0  0  0  0  0  0  0
   -4.5903   -2.7446    0.2698 O   0  0  0  0  0  0  0  0  0  0  0  0
    3.3040   -0.6300   -1.1335 C   0  0  0  0  0  0  0  0  0  0  0  0
    2.3662    0.2735   -0.4919 N   0  0  0  0  0  0  0  0  0  0  0  0
    0.1456    1.8546   -0.8253 O   0  0  0  0  0  0  0  0  0  0  0  0
    2.7869    0.3894    0.8882 C   0  0  0  0  0  0  0  0  0  0  0  0
   -2.4483    0.8729   -0.6081 N   0  0  0  0  0  0  0  0  0  0  0  0
   -2.6188   -2.1379    2.2369 O   0  0  0  0  0  0  0  0  0  0  0  0
   -2.2070    2.1267   -1.1838 C   0  0  2  0  0  0  0  0  0  0  0  0
   -5.5104   -0.9442   -0.6874 O   0  0  0  0  0  0  0  0  0  0  0  0
    1.0499   -0.2887   -0.6362 C   0  0  0  0  0  0  0  0  0  0  0  0
   -1.3682   -0.0075   -0.5198 C   0  0  0  0  0  0  0  0  0  0  0  0
   -0.0395    0.6670   -0.1447 C   0  0  0  0  0  0  0  0  0  0  0  0
    4.6173    0.1191   -1.3037 C   0  0  0  0  0  0  0  0  0  0  0  0
    4.2604    0.1067    1.0749 C   0  0  0  0  0  0  0  0  0  0  0  0
   -0.8080    2.1451   -1.7595 C   0  0  0  0  0  0  0  0  0  0  0  0
   -1.5164   -1.1854    0.3706 C   0  0  0  0  0  0  0  0  0  0  0  0
    0.9053   -1.6455    0.0143 C   0  0  0  0  0  0  0  0  0  0  0  0
   -3.5282    0.8060    0.2717 C   0  0  0  0  0  0  0  0  0  0  0  0
   -0.2025   -1.5939    1.0206 C   0  0  0  0  0  0  0  0  0  0  0  0
   -2.3845    3.3154   -0.3054 C   0  0  0  0  0  0  0  0  0  0  0  0
   -2.5112   -1.0013    1.4840 C   0  0  0  0  0  0  0  0  0  0  0  0
    6.4370    0.1361    0.2531 C   0  0  0  0  0  0  0  0  0  0  0  0
   -3.8017   -0.5374    0.8624 C   0  0  0  0  0  0  0  0  0  0  0  0
    2.9641   -0.8695   -2.1704 H   0  0  0  0  0  0  0  0  0  0  0  0
    3.4664   -1.5714   -0.6008 H   0  0  0  0  0  0  0  0  0  0  0  0
    2.5785    1.4277    1.2175 H   0  0  0  0  0  0  0  0  0  0  0  0
    2.2487   -0.2940    1.5684 H   0  0  0  0  0  0  0  0  0  0  0  0
   -2.9107    2.2585   -2.0580 H   0  0  0  0  0  0  0  0  0  0  0  0
    5.3455   -0.5433   -1.8093 H   0  0  0  0  0  0  0  0  0  0  0  0
    4.4299    0.9946   -1.9366 H   0  0  0  0  0  0  0  0  0  0  0  0
    4.5889    0.6591    1.9914 H   0  0  0  0  0  0  0  0  0  0  0  0
    4.4403   -0.9773    1.3123 H   0  0  0  0  0  0  0  0  0  0  0  0
   -0.8241    1.4499   -2.6326 H   0  0  0  0  0  0  0  0  0  0  0  0
   -0.6215    3.1492   -2.1579 H   0  0  0  0  0  0  0  0  0  0  0  0
   -4.4654    1.1039   -0.2849 H   0  0  0  0  0  0  0  0  0  0  0  0
   -0.0399   -0.9346    1.8692 H   0  0  0  0  0  0  0  0  0  0  0  0
   -1.5540    3.4582    0.4231 H   0  0  0  0  0  0  0  0  0  0  0  0
   -2.3445    4.2264   -0.9729 H   0  0  0  0  0  0  0  0  0  0  0  0
   -3.3611    3.3680    0.1972 H   0  0  0  0  0  0  0  0  0  0  0  0
    7.0751    1.0135    0.5000 H   0  0  0  0  0  0  0  0  0  0  0  0
    6.5048   -0.5631    1.1113 H   0  0  0  0  0  0  0  0  0  0  0  0
    6.8847   -0.3853   -0.6168 H   0  0  0  0  0  0  0  0  0  0  0  0
   -3.6189   -1.5358   -1.0487 H   0  0  0  0  0  0  0  0  0  0  0  0
   -4.6106   -2.8384    1.2352 H   0  0  0  0  0  0  0  0  0  0  0  0
   -2.7528   -1.8510    3.1952 H   0  0  0  0  0  0  0  0  0  0  0  0
   -6.2650   -1.5878   -0.6261 H   0  0  0  0  0  0  0  0  0  0  0  0
    0.8667   -0.4222   -1.7223 H   0  0  0  0  0  0  0  0  0  0  0  0
   -1.1722   -0.4109   -1.5613 H   0  0  0  0  0  0  0  0  0  0  0  0
    0.0376    0.8691    0.9228 H   0  0  0  0  0  0  0  0  0  0  0  0
   -1.8487   -2.0827   -0.2082 H   0  0  0  0  0  0  0  0  0  0  0  0
    1.8168   -2.0062    0.5034 H   0  0  0  0  0  0  0  0  0  0  0  0
   -3.4733    1.5423    1.1251 H   0  0  0  0  0  0  0  0  0  0  0  0
   -0.3190   -2.6262    1.4298 H   0  0  0  0  0  0  0  0  0  0  0  0
   -2.1475   -0.1520    2.1235 H   0  0  0  0  0  0  0  0  0  0  0  0
   -4.5592   -0.4283    1.6623 H   0  0  0  0  0  0  0  0  0  0  0  0
   -3.6189   -1.5358   -1.0487 H   0  0  0  0  0  0  0  0  0  0  0  0
   -4.6106   -2.8384    1.2352 H   0  0  0  0  0  0  0  0  0  0  0  0
   -2.7528   -1.8510    3.1952 H   0  0  0  0  0  0  0  0  0  0  0  0
   -6.2650   -1.5878   -0.6261 H   0  0  0  0  0  0  0  0  0  0  0  0
    0.8667   -0.4222   -1.7223 H   0  0  0  0  0  0  0  0  0  0  0  0
   -1.1722   -0.4109   -1.5613 H   0  0  0  0  0  0  0  0  0  0  0  0
    0.0376    0.8691    0.9228 H   0  0  0  0  0  0  0  0  0  0  0  0
   -1.8487   -2.0827   -0.2082 H   0  0  0  0  0  0  0  0  0  0  0  0
    1.8168   -2.0062    0.5034 H   0  0  0  0  0  0  0  0  0  0  0  0
   -3.4733    1.5423    1.1251 H   0  0  0  0  0  0  0  0  0  0  0  0
   -0.3190   -2.6262    1.4298 H   0  0  0  0  0  0  0  0  0  0  0  0
   -2.1475   -0.1520    2.1235 H   0  0  0  0  0  0  0  0  0  0  0  0
   -4.5592   -0.4283    1.6623 H   0  0  0  0  0  0  0  0  0  0  0  0
  1  4  1  0
  5  6  1  0
  6  8  1  0
  9 11  1  0
  1 12  1  0
  6 13  1  0
  9 14  1  0
  7 15  1  0
 13 15  1  0
 14 15  1  0
  3 16  1  0
  5 16  1  0
  3 17  1  0
  8 17  1  0
  7 18  1  0
 11 18  1  0
 14 19  1  0
  2 20  1  0
 13 20  1  0
  9 21  1  0
 19 22  1  0
 20 22  1  0
 11 23  1  0
 19 24  1  0
 24 10  1  0
  3 25  1  0
  1 26  1  0
 21 26  1  0
 24 26  1  0
  5 27  1  0
  5 28  1  0
  8 29  1  0
  8 30  1  0
 11 31  1  6
 16 32  1  0
 16 33  1  0
 17 34  1  0
 17 35  1  0
 18 36  1  0
 18 37  1  0
 21 38  1  0
 22 39  1  0
 23 40  1  0
 23 41  1  0
 23 42  1  0
 25 43  1  0
 25 44  1  0
 25 45  1  0
 46 49  1  0
 50 51  1  0
 51 53  1  0
 54 56  1  0
 46 57  1  0
 51 58  1  0
 54 59  1  0
 52 60  1  0
 58 60  1  0
 59 60  1  0
 48 61  1  0
 50 61  1  0
 48 62  1  0
 53 62  1  0
 52 63  1  0
 56 63  1  0
 59 64  1  0
 47 65  1  0
 58 65  1  0
 54 66  1  0
 64 67  1  0
 65 67  1  0
 56 68  1  0
 64 69  1  0
 69 55  1  0
 48 70  1  0
 46 71  1  0
 66 71  1  0
 69 71  1  0
 50 72  1  0
 50 73  1  0
 53 74  1  0
 53 75  1  0
 56 76  1  6
 61 77  1  0
 61 78  1  0
 62 79  1  0
 62 80  1  0
 63 81  1  0
 63 82  1  0
 66 83  1  0
 67 84  1  0
 68 85  1  0
 68 86  1  0
 68 87  1  0
 70 88  1  0
 70 89  1  0
 70 90  1  0
  1 91  1  0
  4 92  1  0
 10 93  1  0
 12 94  1  0
 13 95  1  0
 14 96  1  0
 15 97  1  0
 19 98  1  0
 20 99  1  0
 21100  1  0
 22101  1  0
 24102  1  0
 26103  1  0
 46104  1  0
 49105  1  0
 55106  1  0
 57107  1  0
 58108  1  0
 59109  1  0
 60110  1  0
 64111  1  0
 65112  1  0
 66113  1  0
 67114  1  0
 69115  1  0
 71116  1  0
M  END
>  <PDBID>  (1) 
4Z2D

>  <PDB ID>  (1) 
4Z2D

>  <Generic Name>  (1) 
Levofloxacin

>  <Brand Name>  (1) 
Act Levofloxacin#Apo-levofloxacin#Auro-levofloxacin#Ava-levofloxacin#Dom-levofloxacin#Iquix#Levaquin#Levaquin 25mg/ml#Levaquin 500mg#Levaquin 5mg/ml#Levaquin 750mg#Levofloxacin#Levofloxacin In 5% Dextrose Injection#Levofloxacin Injection#Mylan-levofloxacin#Ntp-levofloxacin#PHL-levofloxacin#PMS-levofloxacin#Quinsair#Quixin#Sandoz Levofloxacin#Teva-levofloxacin#Cravit#Elequine#Floxel#Leroxacin#Levokacin#Levox#Levoxacin#Mosardal#Nofaxin#Reskuin#Tavanic

>  <DrugBank ID>  (1) 
DB01137

>  <ATC Codes>  (1) 
A02BD10#J01RA05#S01AE05#J01MA12

>  <Ligand ID>  (1) 
LFX

>  <Target Name>  (1) 
DNA gyrase subunit A

>  <UniProt ID>  (1) 
P43700

>  <PDB ID.1>  (1) 
4Z2D

>  <Seq. Identity>  (1) 
50%

$$$$
