PDB_DB00615_01
     RDKit          3D

294304  0  0  0  0  0  0  0  0999 V2000
    3.2386    0.6656    2.3089 C   0  0  0  0  0  0  0  0  0  0  0  0
    3.0144    1.9165    1.5095 C   0  0  0  0  0  0  0  0  0  0  0  0
    3.1662    1.7656    0.0349 C   0  0  0  0  0  0  0  0  0  0  0  0
    2.9904    0.3341   -0.4302 C   0  0  2  0  0  0  0  0  0  0  0  0
    1.2167   -1.4283   -0.1638 C   0  0  0  0  0  0  0  0  0  0  0  0
    1.4094   -2.6111    0.7796 C   0  0  0  0  0  0  0  0  0  0  0  0
    2.8420   -2.9008    0.9911 C   0  0  0  0  0  0  0  0  0  0  0  0
    3.3481   -1.7694    1.9016 C   0  0  0  0  0  0  0  0  0  0  0  0
    2.4925   -0.5373    1.8117 C   0  0  0  0  0  0  0  0  0  0  0  0
    1.9311   -0.2715    0.4528 C   0  0  0  0  0  0  0  0  0  0  0  0
   -0.2888   -1.3779   -0.0616 C   0  0  2  0  0  0  0  0  0  0  0  0
   -0.6413   -2.8397    0.2379 C   0  0  2  0  0  0  0  0  0  0  0  0
   -1.0783   -2.9537    1.6400 C   0  0  0  0  0  0  0  0  0  0  0  0
    2.9766   -4.2472    1.6714 C   0  0  0  0  0  0  0  0  0  0  0  0
    1.7749    3.9471    1.7012 C   0  0  0  0  0  0  0  0  0  0  0  0
    0.4915    4.5773    1.2307 C   0  0  0  0  0  0  0  0  0  0  0  0
   -0.6429    3.6190    1.1018 C   0  0  0  0  0  0  0  0  0  0  0  0
   -1.7233    4.2926    0.2561 C   0  0  0  0  0  0  0  0  0  0  0  0
   -3.1008    3.9872    0.7663 C   0  0  0  0  0  0  0  0  0  0  0  0
   -4.0660    3.8438   -0.3916 C   0  0  1  0  0  0  0  0  0  0  0  0
   -5.0044    2.6448   -0.1988 C   0  0  1  0  0  0  0  0  0  0  0  0
   -4.6753    1.6003   -1.2094 C   0  0  2  0  0  0  0  0  0  0  0  0
   -5.7448    0.5896   -1.4706 C   0  0  2  0  0  0  0  0  0  0  0  0
   -6.1741   -0.1896   -0.2482 C   0  0  2  0  0  0  0  0  0  0  0  0
   -6.2366   -1.6692   -0.5515 C   0  0  1  0  0  0  0  0  0  0  0  0
   -5.8087   -2.5205    0.6065 C   0  0  1  0  0  0  0  0  0  0  0  0
   -4.8488   -3.6224    0.2420 C   0  0  2  0  0  0  0  0  0  0  0  0
   -3.8274   -3.2541   -0.7606 C   0  0  0  0  0  0  0  0  0  0  0  0
   -2.5325   -4.0101   -0.5273 C   0  0  0  0  0  0  0  0  0  0  0  0
    0.1061    5.6476    2.2306 C   0  0  0  0  0  0  0  0  0  0  0  0
   -4.8797    5.0803   -0.6332 C   0  0  0  0  0  0  0  0  0  0  0  0
   -3.3131    0.9628   -0.9551 C   0  0  0  0  0  0  0  0  0  0  0  0
   -7.5414    0.3522    0.1445 C   0  0  0  0  0  0  0  0  0  0  0  0
   -5.1105   -1.7192    1.6887 C   0  0  0  0  0  0  0  0  0  0  0  0
   -7.6081   -2.4117   -2.3082 C   0  0  0  0  0  0  0  0  0  0  0  0
   -8.3938   -1.3552   -3.0986 C   0  0  0  0  0  0  0  0  0  0  0  0
   -5.4633   -5.8059    0.6664 C   0  0  0  0  0  0  0  0  0  0  0  0
    5.2357    0.8805   -0.5903 C   0  0  0  0  0  0  0  0  0  0  0  0
    5.7827    0.6889   -1.9724 C   0  0  0  0  0  0  0  0  0  0  0  0
    6.4399    1.0138    0.3241 C   0  0  0  0  0  0  0  0  0  0  0  0
    6.8539   -0.3349   -2.0784 C   0  0  0  0  0  0  0  0  0  0  0  0
    7.1816   -0.2959    0.3184 C   0  0  0  0  0  0  0  0  0  0  0  0
    8.9470    0.3572   -1.0770 C   0  0  0  0  0  0  0  0  0  0  0  0
    9.9081   -0.0789   -2.1607 C   0  0  0  0  0  0  0  0  0  0  0  0
   11.1104    0.8709   -2.1059 C   0  0  0  0  0  0  0  0  0  0  0  0
   10.4245   -1.4701   -1.9668 C   0  0  0  0  0  0  0  0  0  0  0  0
    1.7241    2.5220    1.7781 N   0  0  0  0  0  0  0  0  0  0  0  0
    4.4804    2.1018   -0.4709 N   0  0  0  0  0  0  0  0  0  0  0  0
    4.3267   -0.1720   -0.1836 N   0  0  0  0  0  0  0  0  0  0  0  0
    7.7635   -0.4352   -0.9928 N   0  0  0  0  0  0  0  0  0  0  0  0
    2.8741    0.9974    3.6393 O   0  0  0  0  0  0  0  0  0  0  0  0
    3.2110   -2.2645    3.2052 O   0  0  0  0  0  0  0  0  0  0  0  0
    0.6104   -3.5191    0.1638 O   0  0  0  0  0  0  0  0  0  0  0  0
   -0.7580   -1.0030   -1.3148 O   0  0  0  0  0  0  0  0  0  0  0  0
   -1.4033   -3.2903   -0.7516 O   0  0  0  0  0  0  0  0  0  0  0  0
   -5.5962   -4.7134   -0.1756 O   0  0  0  0  0  0  0  0  0  0  0  0
   -7.4836   -1.9551   -1.0420 O   0  0  0  0  0  0  0  0  0  0  0  0
   -8.4094   -3.5758   -2.3982 O   0  0  0  0  0  0  0  0  0  0  0  0
   -5.2082   -0.2902   -2.4399 O   0  0  0  0  0  0  0  0  0  0  0  0
   -4.8171    2.2325    1.1219 O   0  0  0  0  0  0  0  0  0  0  0  0
    2.7707    4.3111    0.7950 O   0  0  0  0  0  0  0  0  0  0  0  0
    2.5245    0.8943    2.9249 C   0  0  0  0  0  0  0  0  0  0  0  0
    2.6637    1.8034    1.6834 C   0  0  0  0  0  0  0  0  0  0  0  0
    3.4455    1.0071    0.7603 C   0  0  1  0  0  0  0  0  0  0  0  0
    2.4470    0.0276    0.1042 C   0  0  2  0  0  0  0  0  0  0  0  0
    1.1662   -1.9265    0.7186 C   0  0  0  0  0  0  0  0  0  0  0  0
    1.1888   -2.8563    1.9221 C   0  0  0  0  0  0  0  0  0  0  0  0
    2.5745   -2.9135    2.3927 C   0  0  0  0  0  0  0  0  0  0  0  0
    2.9035   -1.5623    2.9858 C   0  0  0  0  0  0  0  0  0  0  0  0
    2.0077   -0.4516    2.5518 C   0  0  0  0  0  0  0  0  0  0  0  0
    1.5570   -0.5510    1.1051 C   0  0  1  0  0  0  0  0  0  0  0  0
   -0.3157   -2.0780    0.3922 C   0  0  0  0  0  0  0  0  0  0  0  0
   -0.6250   -3.4697    0.9822 C   0  0  2  0  0  0  0  0  0  0  0  0
   -1.3442   -3.3766    2.2695 C   0  0  0  0  0  0  0  0  0  0  0  0
    2.7742   -4.0278    3.3973 C   0  0  0  0  0  0  0  0  0  0  0  0
    2.4552    4.1012    1.1827 C   0  0  0  0  0  0  0  0  0  0  0  0
    1.1334    4.5812    1.6853 C   0  0  0  0  0  0  0  0  0  0  0  0
   -0.0439    3.8607    1.0429 C   0  0  0  0  0  0  0  0  0  0  0  0
   -1.1780    4.8380    0.7270 C   0  0  0  0  0  0  0  0  0  0  0  0
   -2.5134    4.1368    0.9023 C   0  0  0  0  0  0  0  0  0  0  0  0
   -3.2437    3.9708   -0.4141 C   0  0  1  0  0  0  0  0  0  0  0  0
   -4.1529    2.7597   -0.4142 C   0  0  1  0  0  0  0  0  0  0  0  0
   -3.5500    1.5925   -1.1317 C   0  0  2  0  0  0  0  0  0  0  0  0
   -4.5599    0.6715   -1.7737 C   0  0  2  0  0  0  0  0  0  0  0  0
   -5.4564   -0.0346   -0.7884 C   0  0  2  0  0  0  0  0  0  0  0  0
   -5.5306   -1.5316   -1.0113 C   0  0  1  0  0  0  0  0  0  0  0  0
   -5.4919   -2.3365    0.2507 C   0  0  1  0  0  0  0  0  0  0  0  0
   -4.7448   -3.6360    0.1374 C   0  0  2  0  0  0  0  0  0  0  0  0
   -3.3984   -3.4946   -0.5184 C   0  0  0  0  0  0  0  0  0  0  0  0
   -2.4266   -4.5581   -0.0690 C   0  0  0  0  0  0  0  0  0  0  0  0
    1.0130    4.6301    3.1774 C   0  0  0  0  0  0  0  0  0  0  0  0
   -4.0114    5.2483   -0.6739 C   0  0  0  0  0  0  0  0  0  0  0  0
   -2.5558    0.8752   -0.2812 C   0  0  0  0  0  0  0  0  0  0  0  0
   -6.8424    0.5958   -0.9110 C   0  0  0  0  0  0  0  0  0  0  0  0
   -4.8688   -1.5978    1.4197 C   0  0  0  0  0  0  0  0  0  0  0  0
   -6.4030   -2.2981   -3.0528 C   0  0  0  0  0  0  0  0  0  0  0  0
   -6.8739   -1.2422   -4.0715 C   0  0  0  0  0  0  0  0  0  0  0  0
   -5.9007   -5.6329    0.2875 C   0  0  0  0  0  0  0  0  0  0  0  0
    4.3341    0.2311   -1.0924 C   0  0  0  0  0  0  0  0  0  0  0  0
    4.3470    0.4833   -2.5616 C   0  0  0  0  0  0  0  0  0  0  0  0
    5.6700   -0.2221   -0.5526 C   0  0  0  0  0  0  0  0  0  0  0  0
    5.2065   -0.4464   -3.3403 C   0  0  0  0  0  0  0  0  0  0  0  0
    6.4432   -1.0559   -1.5204 C   0  0  0  0  0  0  0  0  0  0  0  0
    7.1100    0.8791   -2.7980 C   0  0  0  0  0  0  0  0  0  0  0  0
    8.5855    0.9697   -2.5923 C   0  0  0  0  0  0  0  0  0  0  0  0
    9.0356    2.4419   -2.5790 C   0  0  0  0  0  0  0  0  0  0  0  0
    9.1451    0.3565   -1.3560 C   0  0  0  0  0  0  0  0  0  0  0  0
    3.0984    3.1053    2.0144 N   0  0  0  0  0  0  0  0  0  0  0  0
    4.0042    1.5108   -0.4293 N   0  0  0  0  0  0  0  0  0  0  0  0
    3.3407   -0.7369   -0.6565 N   0  0  0  0  0  0  0  0  0  0  0  0
    6.6041   -0.4513   -2.8347 N   0  0  0  0  0  0  0  0  0  0  0  0
    1.8014    1.5592    3.8827 O   0  0  0  0  0  0  0  0  0  0  0  0
    2.7716   -1.7247    4.3884 O   0  0  0  0  0  0  0  0  0  0  0  0
    0.6652   -3.9794    1.3077 O   0  0  0  0  0  0  0  0  0  0  0  0
   -0.3927   -2.0764   -0.9888 O   0  0  0  0  0  0  0  0  0  0  0  0
   -1.1384   -4.2066   -0.0042 O   0  0  0  0  0  0  0  0  0  0  0  0
   -5.5477   -4.5475   -0.4976 O   0  0  0  0  0  0  0  0  0  0  0  0
   -6.6101   -1.7848   -1.8209 O   0  0  0  0  0  0  0  0  0  0  0  0
   -7.2101   -3.4229   -3.3331 O   0  0  0  0  0  0  0  0  0  0  0  0
   -3.9560   -0.2767   -2.5750 O   0  0  0  0  0  0  0  0  0  0  0  0
   -4.5172    2.4067    0.8943 O   0  0  0  0  0  0  0  0  0  0  0  0
    2.2868    3.5247   -0.0910 O   0  0  0  0  0  0  0  0  0  0  0  0
    4.2958    0.4051    2.3657 H   0  0  0  0  0  0  0  0  0  0  0  0
    3.7867    2.6531    1.8482 H   0  0  0  0  0  0  0  0  0  0  0  0
    2.4304    2.3789   -0.5312 H   0  0  0  0  0  0  0  0  0  0  0  0
    2.7845    0.2605   -1.4962 H   0  0  0  0  0  0  0  0  0  0  0  0
    1.5335   -1.6619   -1.1853 H   0  0  0  0  0  0  0  0  0  0  0  0
    0.9616   -2.3848    1.7600 H   0  0  0  0  0  0  0  0  0  0  0  0
    3.4068   -2.9528    0.0554 H   0  0  0  0  0  0  0  0  0  0  0  0
    4.4216   -1.5867    1.7492 H   0  0  0  0  0  0  0  0  0  0  0  0
    1.6102   -0.6375    2.5139 H   0  0  0  0  0  0  0  0  0  0  0  0
    1.1538    0.5374    0.5900 H   0  0  0  0  0  0  0  0  0  0  0  0
   -0.6463   -0.7396    0.7473 H   0  0  0  0  0  0  0  0  0  0  0  0
   -0.5175   -3.6780    2.2711 H   0  0  0  0  0  0  0  0  0  0  0  0
   -0.9667   -1.9658    2.1819 H   0  0  0  0  0  0  0  0  0  0  0  0
   -2.1439   -3.1973    1.8012 H   0  0  0  0  0  0  0  0  0  0  0  0
    2.8029   -5.0073    0.8553 H   0  0  0  0  0  0  0  0  0  0  0  0
    3.9544   -4.4088    2.1392 H   0  0  0  0  0  0  0  0  0  0  0  0
    2.1150   -4.3650    2.3568 H   0  0  0  0  0  0  0  0  0  0  0  0
    2.0938    4.3379    2.6858 H   0  0  0  0  0  0  0  0  0  0  0  0
    0.6084    5.0856    0.2385 H   0  0  0  0  0  0  0  0  0  0  0  0
   -1.0897    3.4759    2.1190 H   0  0  0  0  0  0  0  0  0  0  0  0
   -0.3646    2.6394    0.6855 H   0  0  0  0  0  0  0  0  0  0  0  0
   -1.5923    5.3984    0.2989 H   0  0  0  0  0  0  0  0  0  0  0  0
   -1.5964    4.0309   -0.8290 H   0  0  0  0  0  0  0  0  0  0  0  0
   -3.4583    4.7979    1.4491 H   0  0  0  0  0  0  0  0  0  0  0  0
   -3.0837    3.0368    1.3461 H   0  0  0  0  0  0  0  0  0  0  0  0
   -3.4595    3.6738   -1.3193 H   0  0  0  0  0  0  0  0  0  0  0  0
   -6.0476    2.9757   -0.3693 H   0  0  0  0  0  0  0  0  0  0  0  0
   -4.5376    2.1458   -2.1916 H   0  0  0  0  0  0  0  0  0  0  0  0
   -6.5950    1.1143   -1.9508 H   0  0  0  0  0  0  0  0  0  0  0  0
   -5.4424    0.0619    0.5417 H   0  0  0  0  0  0  0  0  0  0  0  0
   -5.5020   -1.8626   -1.3596 H   0  0  0  0  0  0  0  0  0  0  0  0
   -6.6765   -3.0116    1.1232 H   0  0  0  0  0  0  0  0  0  0  0  0
   -4.3272   -3.9478    1.1826 H   0  0  0  0  0  0  0  0  0  0  0  0
   -4.2518   -3.4368   -1.7871 H   0  0  0  0  0  0  0  0  0  0  0  0
   -3.5567   -2.1771   -0.7694 H   0  0  0  0  0  0  0  0  0  0  0  0
   -2.5400   -4.8025   -1.3415 H   0  0  0  0  0  0  0  0  0  0  0  0
   -2.5416   -4.6054    0.4000 H   0  0  0  0  0  0  0  0  0  0  0  0
   -0.9902    5.7893    2.2856 H   0  0  0  0  0  0  0  0  0  0  0  0
    0.6020    6.6043    1.9311 H   0  0  0  0  0  0  0  0  0  0  0  0
    0.4358    5.3087    3.2391 H   0  0  0  0  0  0  0  0  0  0  0  0
   -5.7830    5.0758   -0.0232 H   0  0  0  0  0  0  0  0  0  0  0  0
   -5.1909    5.0585   -1.7143 H   0  0  0  0  0  0  0  0  0  0  0  0
   -4.2498    5.9830   -0.5259 H   0  0  0  0  0  0  0  0  0  0  0  0
   -2.5753    1.8138   -1.0436 H   0  0  0  0  0  0  0  0  0  0  0  0
   -3.1086    0.3079   -1.8340 H   0  0  0  0  0  0  0  0  0  0  0  0
   -3.2503    0.4568    0.0063 H   0  0  0  0  0  0  0  0  0  0  0  0
   -7.3563    1.2682    0.7435 H   0  0  0  0  0  0  0  0  0  0  0  0
   -8.1012   -0.3362    0.7884 H   0  0  0  0  0  0  0  0  0  0  0  0
   -8.0908    0.6649   -0.7590 H   0  0  0  0  0  0  0  0  0  0  0  0
   -4.1618   -1.2889    1.3675 H   0  0  0  0  0  0  0  0  0  0  0  0
   -4.8312   -2.4903    2.4701 H   0  0  0  0  0  0  0  0  0  0  0  0
   -5.7953   -1.0306    2.2184 H   0  0  0  0  0  0  0  0  0  0  0  0
   -6.6709   -2.5423   -2.8902 H   0  0  0  0  0  0  0  0  0  0  0  0
   -7.6914   -0.6249   -3.5564 H   0  0  0  0  0  0  0  0  0  0  0  0
   -9.0115   -1.8533   -3.8728 H   0  0  0  0  0  0  0  0  0  0  0  0
   -9.0912   -0.8142   -2.4275 H   0  0  0  0  0  0  0  0  0  0  0  0
   -4.3929   -6.0925    0.6809 H   0  0  0  0  0  0  0  0  0  0  0  0
   -6.0528   -6.6686    0.3680 H   0  0  0  0  0  0  0  0  0  0  0  0
   -5.7442   -5.5631    1.7173 H   0  0  0  0  0  0  0  0  0  0  0  0
    4.9935    0.4457   -2.7144 H   0  0  0  0  0  0  0  0  0  0  0  0
    6.2060    1.6739   -2.3020 H   0  0  0  0  0  0  0  0  0  0  0  0
    7.0836    1.8022   -0.1387 H   0  0  0  0  0  0  0  0  0  0  0  0
    6.1923    1.3980    1.3276 H   0  0  0  0  0  0  0  0  0  0  0  0
    6.3516   -1.3418   -2.1833 H   0  0  0  0  0  0  0  0  0  0  0  0
    7.4528   -0.1338   -3.0009 H   0  0  0  0  0  0  0  0  0  0  0  0
    8.0279   -0.1868    1.0443 H   0  0  0  0  0  0  0  0  0  0  0  0
    6.4869   -1.0938    0.5910 H   0  0  0  0  0  0  0  0  0  0  0  0
    8.7590    1.4460   -1.2402 H   0  0  0  0  0  0  0  0  0  0  0  0
    9.5088    0.2982   -0.1216 H   0  0  0  0  0  0  0  0  0  0  0  0
    9.4750    0.0673   -3.1718 H   0  0  0  0  0  0  0  0  0  0  0  0
   10.7804    1.9001   -1.9569 H   0  0  0  0  0  0  0  0  0  0  0  0
   11.7194    0.8133   -3.0288 H   0  0  0  0  0  0  0  0  0  0  0  0
   11.7884    0.5809   -1.2552 H   0  0  0  0  0  0  0  0  0  0  0  0
    9.6503   -2.1899   -1.6403 H   0  0  0  0  0  0  0  0  0  0  0  0
   10.8755   -1.7847   -2.9521 H   0  0  0  0  0  0  0  0  0  0  0  0
   11.2497   -1.5330   -1.2306 H   0  0  0  0  0  0  0  0  0  0  0  0
    1.2908    2.1685    2.6588 H   0  0  0  0  0  0  0  0  0  0  0  0
    4.9711    2.8281    0.0756 H   0  0  0  0  0  0  0  0  0  0  0  0
    4.5536   -1.0041   -0.7762 H   0  0  0  0  0  0  0  0  0  0  0  0
    3.5106    1.7443    3.8794 H   0  0  0  0  0  0  0  0  0  0  0  0
    2.2291   -2.3808    3.3806 H   0  0  0  0  0  0  0  0  0  0  0  0
   -0.4479   -1.6816   -1.9629 H   0  0  0  0  0  0  0  0  0  0  0  0
   -8.5466   -3.9847   -1.5167 H   0  0  0  0  0  0  0  0  0  0  0  0
   -5.3792    0.0483   -3.3526 H   0  0  0  0  0  0  0  0  0  0  0  0
   -5.3909    2.8500    1.6700 H   0  0  0  0  0  0  0  0  0  0  0  0
    2.4244    4.7347   -0.0168 H   0  0  0  0  0  0  0  0  0  0  0  0
    3.5753    0.8039    3.3086 H   0  0  0  0  0  0  0  0  0  0  0  0
    1.5902    1.9073    1.3382 H   0  0  0  0  0  0  0  0  0  0  0  0
    4.2364    0.4482    1.2947 H   0  0  0  0  0  0  0  0  0  0  0  0
    1.8960    0.6977   -0.6270 H   0  0  0  0  0  0  0  0  0  0  0  0
    1.8040   -2.2964   -0.0928 H   0  0  0  0  0  0  0  0  0  0  0  0
    0.5466   -2.4606    2.7106 H   0  0  0  0  0  0  0  0  0  0  0  0
    3.2563   -3.1094    1.5396 H   0  0  0  0  0  0  0  0  0  0  0  0
    3.9824   -1.3738    2.8322 H   0  0  0  0  0  0  0  0  0  0  0  0
    1.0582   -0.5658    3.1631 H   0  0  0  0  0  0  0  0  0  0  0  0
    0.5921    0.0515    1.0739 H   0  0  0  0  0  0  0  0  0  0  0  0
   -0.9220   -1.3067    0.8891 H   0  0  0  0  0  0  0  0  0  0  0  0
   -0.8467   -3.8791    3.1290 H   0  0  0  0  0  0  0  0  0  0  0  0
   -1.4658   -2.2812    2.5231 H   0  0  0  0  0  0  0  0  0  0  0  0
   -2.3765   -3.7678    2.2786 H   0  0  0  0  0  0  0  0  0  0  0  0
    2.5584   -4.9833    2.8559 H   0  0  0  0  0  0  0  0  0  0  0  0
    3.8088   -4.1016    3.7500 H   0  0  0  0  0  0  0  0  0  0  0  0
    2.0254   -3.9181    4.1815 H   0  0  0  0  0  0  0  0  0  0  0  0
    3.1558    4.9666    1.0102 H   0  0  0  0  0  0  0  0  0  0  0  0
    1.0319    5.6514    1.3323 H   0  0  0  0  0  0  0  0  0  0  0  0
   -0.4835    3.1140    1.7352 H   0  0  0  0  0  0  0  0  0  0  0  0
    0.2497    3.4301    0.0625 H   0  0  0  0  0  0  0  0  0  0  0  0
   -1.1248    5.7204    1.4027 H   0  0  0  0  0  0  0  0  0  0  0  0
   -1.1344    5.1635   -0.3385 H   0  0  0  0  0  0  0  0  0  0  0  0
   -3.1358    4.7232    1.6088 H   0  0  0  0  0  0  0  0  0  0  0  0
   -2.3329    3.1594    1.3917 H   0  0  0  0  0  0  0  0  0  0  0  0
   -2.5347    3.8239   -1.2600 H   0  0  0  0  0  0  0  0  0  0  0  0
   -5.0850    3.0503   -0.9390 H   0  0  0  0  0  0  0  0  0  0  0  0
   -2.9800    2.0372   -2.0029 H   0  0  0  0  0  0  0  0  0  0  0  0
   -5.1565    1.3284   -2.4738 H   0  0  0  0  0  0  0  0  0  0  0  0
   -5.0796    0.2228    0.2186 H   0  0  0  0  0  0  0  0  0  0  0  0
   -4.6185   -1.8024   -1.5807 H   0  0  0  0  0  0  0  0  0  0  0  0
   -6.5259   -2.6159    0.6096 H   0  0  0  0  0  0  0  0  0  0  0  0
   -4.5611   -4.0007    1.1743 H   0  0  0  0  0  0  0  0  0  0  0  0
   -3.5880   -3.5542   -1.6313 H   0  0  0  0  0  0  0  0  0  0  0  0
   -3.0267   -2.4648   -0.3556 H   0  0  0  0  0  0  0  0  0  0  0  0
   -2.4885   -5.3507   -0.8830 H   0  0  0  0  0  0  0  0  0  0  0  0
   -2.8476   -5.0900    0.8104 H   0  0  0  0  0  0  0  0  0  0  0  0
    0.3078    3.8401    3.5423 H   0  0  0  0  0  0  0  0  0  0  0  0
    0.6054    5.5922    3.5495 H   0  0  0  0  0  0  0  0  0  0  0  0
    2.0126    4.4627    3.6170 H   0  0  0  0  0  0  0  0  0  0  0  0
   -4.9892    5.2479   -0.1587 H   0  0  0  0  0  0  0  0  0  0  0  0
   -4.2222    5.3615   -1.7571 H   0  0  0  0  0  0  0  0  0  0  0  0
   -3.4387    6.1022   -0.2566 H   0  0  0  0  0  0  0  0  0  0  0  0
   -2.3657   -0.1757   -0.6430 H   0  0  0  0  0  0  0  0  0  0  0  0
   -1.5771    1.3886   -0.3749 H   0  0  0  0  0  0  0  0  0  0  0  0
   -2.8041    0.8837    0.7976 H   0  0  0  0  0  0  0  0  0  0  0  0
   -6.8221    1.5255   -0.3089 H   0  0  0  0  0  0  0  0  0  0  0  0
   -7.6267   -0.0512   -0.4898 H   0  0  0  0  0  0  0  0  0  0  0  0
   -7.0448    0.9088   -1.9553 H   0  0  0  0  0  0  0  0  0  0  0  0
   -3.8645   -1.2227    1.2253 H   0  0  0  0  0  0  0  0  0  0  0  0
   -4.7423   -2.3881    2.2202 H   0  0  0  0  0  0  0  0  0  0  0  0
   -5.5663   -0.8645    1.8699 H   0  0  0  0  0  0  0  0  0  0  0  0
   -5.3451   -2.4962   -3.3413 H   0  0  0  0  0  0  0  0  0  0  0  0
   -6.0644   -0.5465   -4.3182 H   0  0  0  0  0  0  0  0  0  0  0  0
   -7.1053   -1.7845   -5.0355 H   0  0  0  0  0  0  0  0  0  0  0  0
   -7.7981   -0.7756   -3.7314 H   0  0  0  0  0  0  0  0  0  0  0  0
   -4.9903   -6.1782    0.6124 H   0  0  0  0  0  0  0  0  0  0  0  0
   -6.5781   -6.3302   -0.1956 H   0  0  0  0  0  0  0  0  0  0  0  0
   -6.3955   -5.3102    1.2508 H   0  0  0  0  0  0  0  0  0  0  0  0
    3.3416    0.4684   -2.9835 H   0  0  0  0  0  0  0  0  0  0  0  0
    4.7554    1.5242   -2.7216 H   0  0  0  0  0  0  0  0  0  0  0  0
    5.4993   -0.8882    0.3458 H   0  0  0  0  0  0  0  0  0  0  0  0
    6.2053    0.6547   -0.1436 H   0  0  0  0  0  0  0  0  0  0  0  0
    4.8539   -1.4702   -3.2087 H   0  0  0  0  0  0  0  0  0  0  0  0
    5.2674   -0.1407   -4.3835 H   0  0  0  0  0  0  0  0  0  0  0  0
    7.3340   -1.4556   -1.0650 H   0  0  0  0  0  0  0  0  0  0  0  0
    5.7678   -1.9571   -1.7272 H   0  0  0  0  0  0  0  0  0  0  0  0
    6.7857    1.4699   -3.7105 H   0  0  0  0  0  0  0  0  0  0  0  0
    6.6495    1.4847   -1.9579 H   0  0  0  0  0  0  0  0  0  0  0  0
    9.0558    0.5500   -3.5200 H   0  0  0  0  0  0  0  0  0  0  0  0
    8.4422    3.0356   -3.2856 H   0  0  0  0  0  0  0  0  0  0  0  0
   10.0928    2.4650   -2.8893 H   0  0  0  0  0  0  0  0  0  0  0  0
    8.9816    2.8611   -1.5533 H   0  0  0  0  0  0  0  0  0  0  0  0
    9.4714   -0.7044   -1.5213 H   0  0  0  0  0  0  0  0  0  0  0  0
   10.0847    0.9549   -1.0878 H   0  0  0  0  0  0  0  0  0  0  0  0
    8.5157    0.4764   -0.4612 H   0  0  0  0  0  0  0  0  0  0  0  0
    4.1348    3.1755    1.8927 H   0  0  0  0  0  0  0  0  0  0  0  0
    4.9146    1.9915   -0.2869 H   0  0  0  0  0  0  0  0  0  0  0  0
    3.7317   -1.5900   -0.2525 H   0  0  0  0  0  0  0  0  0  0  0  0
    0.8321    1.4041    3.6704 H   0  0  0  0  0  0  0  0  0  0  0  0
    3.5037   -2.3123    4.7040 H   0  0  0  0  0  0  0  0  0  0  0  0
    0.2894   -2.6681   -1.3439 H   0  0  0  0  0  0  0  0  0  0  0  0
   -7.3821   -3.9509   -2.5077 H   0  0  0  0  0  0  0  0  0  0  0  0
   -3.5816    0.2160   -3.3599 H   0  0  0  0  0  0  0  0  0  0  0  0
   -5.1787    3.0629    1.2108 H   0  0  0  0  0  0  0  0  0  0  0  0
    2.0937    4.2205   -0.7673 H   0  0  0  0  0  0  0  0  0  0  0  0
  1  2  1  0
  2  3  1  0
  3  4  1  0
  5  6  1  0
  6  7  1  0
  7  8  1  0
  1  9  1  0
  8  9  1  0
  4 10  1  0
  5 10  1  0
  9 10  1  0
  5 11  1  0
 11 12  1  0
 12 13  1  1
  7 14  1  0
 15 16  1  0
 16 17  1  0
 17 18  1  0
 18 19  1  0
 19 20  1  0
 20 21  1  0
 21 22  1  0
 22 23  1  0
 23 24  1  0
 24 25  1  0
 25 26  1  0
 26 27  1  0
 27 28  1  0
 28 29  1  0
 16 30  1  0
 20 31  1  0
 22 32  1  0
 24 33  1  0
 26 34  1  0
 35 36  1  0
 38 39  1  0
 38 40  1  0
 39 41  1  0
 40 42  1  0
 43 44  1  0
 44 45  1  0
 44 46  1  0
  2 47  1  0
 15 47  1  0
  3 48  1  0
 38 48  1  0
  4 49  1  0
 38 49  1  0
 41 50  1  0
 42 50  1  0
 43 50  1  0
  1 51  1  0
  8 52  1  0
  6 53  1  0
 12 53  1  0
 11 54  1  0
 12 55  1  0
 29 55  1  0
 27 56  1  0
 37 56  1  0
 25 57  1  0
 35 57  1  0
 35 58  1  0
 23 59  1  0
 21 60  1  0
 15 61  1  0
 62 63  1  0
 63 64  1  0
 64 65  1  0
 66 67  1  0
 67 68  1  0
 68 69  1  0
 62 70  1  0
 69 70  1  0
 65 71  1  0
 66 71  1  0
 70 71  1  0
 66 72  1  0
 72 73  1  0
 73 74  1  1
 68 75  1  0
 76 77  1  0
 77 78  1  0
 78 79  1  0
 79 80  1  0
 80 81  1  0
 81 82  1  0
 82 83  1  0
 83 84  1  0
 84 85  1  0
 85 86  1  0
 86 87  1  0
 87 88  1  0
 88 89  1  0
 89 90  1  0
 77 91  1  0
 81 92  1  0
 83 93  1  0
 85 94  1  0
 87 95  1  0
 96 97  1  0
 99100  1  0
 99101  1  0
100102  1  0
101103  1  0
104105  1  0
105106  1  0
105107  1  0
 63108  1  0
 76108  1  0
 64109  1  0
 99109  1  0
 65110  1  0
 99110  1  0
102111  1  0
103111  1  0
104111  1  0
 62112  1  0
 69113  1  0
 67114  1  0
 73114  1  0
 72115  1  0
 73116  1  0
 90116  1  0
 88117  1  0
 98117  1  0
 86118  1  0
 96118  1  0
 96119  1  0
 84120  1  0
 82121  1  0
 76122  1  0
  1123  1  0
  2124  1  0
  3125  1  0
  4126  1  6
  5127  1  0
  6128  1  0
  7129  1  0
  8130  1  0
  9131  1  0
 10132  1  0
 11133  1  1
 13134  1  0
 13135  1  0
 13136  1  0
 14137  1  0
 14138  1  0
 14139  1  0
 15140  1  0
 16141  1  0
 17142  1  0
 17143  1  0
 18144  1  0
 18145  1  0
 19146  1  0
 19147  1  0
 20148  1  6
 21149  1  1
 22150  1  6
 23151  1  6
 24152  1  1
 25153  1  6
 26154  1  1
 27155  1  1
 28156  1  0
 28157  1  0
 29158  1  0
 29159  1  0
 30160  1  0
 30161  1  0
 30162  1  0
 31163  1  0
 31164  1  0
 31165  1  0
 32166  1  0
 32167  1  0
 32168  1  0
 33169  1  0
 33170  1  0
 33171  1  0
 34172  1  0
 34173  1  0
 34174  1  0
 35175  1  0
 36176  1  0
 36177  1  0
 36178  1  0
 37179  1  0
 37180  1  0
 37181  1  0
 39182  1  0
 39183  1  0
 40184  1  0
 40185  1  0
 41186  1  0
 41187  1  0
 42188  1  0
 42189  1  0
 43190  1  0
 43191  1  0
 44192  1  0
 45193  1  0
 45194  1  0
 45195  1  0
 46196  1  0
 46197  1  0
 46198  1  0
 47199  1  0
 48200  1  0
 49201  1  0
 51202  1  0
 52203  1  0
 54204  1  0
 58205  1  0
 59206  1  0
 60207  1  0
 61208  1  0
 62209  1  0
 63210  1  0
 64211  1  1
 65212  1  6
 66213  1  0
 67214  1  0
 68215  1  0
 69216  1  0
 70217  1  0
 71218  1  1
 72219  1  0
 74220  1  0
 74221  1  0
 74222  1  0
 75223  1  0
 75224  1  0
 75225  1  0
 76226  1  0
 77227  1  0
 78228  1  0
 78229  1  0
 79230  1  0
 79231  1  0
 80232  1  0
 80233  1  0
 81234  1  6
 82235  1  6
 83236  1  6
 84237  1  6
 85238  1  1
 86239  1  6
 87240  1  1
 88241  1  1
 89242  1  0
 89243  1  0
 90244  1  0
 90245  1  0
 91246  1  0
 91247  1  0
 91248  1  0
 92249  1  0
 92250  1  0
 92251  1  0
 93252  1  0
 93253  1  0
 93254  1  0
 94255  1  0
 94256  1  0
 94257  1  0
 95258  1  0
 95259  1  0
 95260  1  0
 96261  1  0
 97262  1  0
 97263  1  0
 97264  1  0
 98265  1  0
 98266  1  0
 98267  1  0
100268  1  0
100269  1  0
101270  1  0
101271  1  0
102272  1  0
102273  1  0
103274  1  0
103275  1  0
104276  1  0
104277  1  0
105278  1  0
106279  1  0
106280  1  0
106281  1  0
107282  1  0
107283  1  0
107284  1  0
108285  1  0
109286  1  0
110287  1  0
112288  1  0
113289  1  0
115290  1  0
119291  1  0
120292  1  0
121293  1  0
122294  1  0
M  END
>  <PDBID>  (1) 
2A68

>  <PDB ID>  (1) 
2A68

>  <Generic Name>  (1) 
Rifabutin

>  <Brand Name>  (1) 
Mycobutin#Rifabutin#Ansatipin#Ansatipine#Ributin

>  <DrugBank ID>  (1) 
DB00615

>  <ATC Codes>  (1) 
J04AB04

>  <Ligand ID>  (1) 
RBT

>  <Target Name>  (1) 
DNA-directed RNA polymerase subunit beta

>  <UniProt ID>  (1) 
P0A8V2

>  <PDB ID.1>  (1) 
2A68

>  <Seq. Identity>  (1) 
51%

$$$$
