PDB_DB00537_05
     RDKit          3D

108114  0  0  0  0  0  0  0  0999 V2000
    5.1304   -1.5445   -1.0853 O   0  0  0  0  0  0  0  0  0  0  0  0
    4.6758   -0.8130    0.0059 C   0  0  0  0  0  0  0  0  0  0  0  0
    5.5543    0.2402    0.2427 O   0  0  0  0  0  0  0  0  0  0  0  0
    3.2557   -0.3250   -0.2205 C   0  0  0  0  0  0  0  0  0  0  0  0
    2.7938    0.4627    0.9784 C   0  0  0  0  0  0  0  0  0  0  0  0
    1.4775    0.9282    0.7597 N   0  0  0  0  0  0  0  0  0  0  0  0
    0.5557   -0.1166    0.5955 C   0  0  0  0  0  0  0  0  0  0  0  0
   -0.8218    0.3190    0.1458 C   0  0  0  0  0  0  0  0  0  0  0  0
   -1.7755   -0.7894    0.5688 C   0  0  0  0  0  0  0  0  0  0  0  0
   -3.0641   -0.3646    0.2070 N   0  0  0  0  0  0  0  0  0  0  0  0
   -3.4103   -0.1352   -1.1247 C   0  0  0  0  0  0  0  0  0  0  0  0
   -4.8700   -0.4361   -1.3303 C   0  0  0  0  0  0  0  0  0  0  0  0
   -5.6445    0.3499   -0.3932 N   0  0  0  0  0  0  0  0  0  0  0  0
   -4.8744    1.2741    0.3788 C   0  0  0  0  0  0  0  0  0  0  0  0
   -3.6829    0.6143    1.0502 C   0  0  0  0  0  0  0  0  0  0  0  0
   -1.3559   -2.1481    0.1863 C   0  0  0  0  0  0  0  0  0  0  0  0
   -1.7715   -3.0586    1.1785 F   0  0  0  0  0  0  0  0  0  0  0  0
    0.0826   -2.4017   -0.0488 C   0  0  0  0  0  0  0  0  0  0  0  0
    0.9178   -1.2037   -0.3667 C   0  0  0  0  0  0  0  0  0  0  0  0
    2.3820   -1.5584   -0.3355 C   0  0  0  0  0  0  0  0  0  0  0  0
    2.6249   -2.4823    0.6488 O   0  0  0  0  0  0  0  0  0  0  0  0
    1.2795    2.1377    0.0711 C   0  0  0  0  0  0  0  0  0  0  0  0
    1.7799    3.4461    0.6035 C   0  0  0  0  0  0  0  0  0  0  0  0
    2.5082    2.8002   -0.5220 C   0  0  0  0  0  0  0  0  0  0  0  0
    3.5236    1.2355    1.3019 H   0  0  0  0  0  0  0  0  0  0  0  0
   -0.8700    0.4091   -0.9518 H   0  0  0  0  0  0  0  0  0  0  0  0
   -3.3044    0.9772   -1.3217 H   0  0  0  0  0  0  0  0  0  0  0  0
   -2.7586   -0.5928   -1.8940 H   0  0  0  0  0  0  0  0  0  0  0  0
   -5.1219   -1.4976   -1.1276 H   0  0  0  0  0  0  0  0  0  0  0  0
   -5.1502   -0.1803   -2.3864 H   0  0  0  0  0  0  0  0  0  0  0  0
   -6.4008    0.8152   -0.9165 H   0  0  0  0  0  0  0  0  0  0  0  0
   -5.5175    1.6537    1.2091 H   0  0  0  0  0  0  0  0  0  0  0  0
   -4.5991    2.1471   -0.2304 H   0  0  0  0  0  0  0  0  0  0  0  0
   -3.0112    1.4350    1.3728 H   0  0  0  0  0  0  0  0  0  0  0  0
   -4.0964    0.0633    1.9366 H   0  0  0  0  0  0  0  0  0  0  0  0
    0.5829   -2.8921    0.8413 H   0  0  0  0  0  0  0  0  0  0  0  0
    0.3812    2.1962   -0.6072 H   0  0  0  0  0  0  0  0  0  0  0  0
    1.2034    4.3613    0.3544 H   0  0  0  0  0  0  0  0  0  0  0  0
    2.2477    3.4779    1.6175 H   0  0  0  0  0  0  0  0  0  0  0  0
    2.4281    3.2473   -1.5464 H   0  0  0  0  0  0  0  0  0  0  0  0
    3.5151    2.4669   -0.2937 H   0  0  0  0  0  0  0  0  0  0  0  0
    5.1178   -1.5881   -1.0873 O   0  0  0  0  0  0  0  0  0  0  0  0
    4.6740   -0.8390    0.0040 C   0  0  0  0  0  0  0  0  0  0  0  0
    5.5705    0.1928    0.2239 O   0  0  0  0  0  0  0  0  0  0  0  0
    3.2574   -0.3403   -0.2309 C   0  0  0  0  0  0  0  0  0  0  0  0
    2.8042    0.4643    0.9625 C   0  0  0  0  0  0  0  0  0  0  0  0
    1.4910    0.9374    0.7381 N   0  0  0  0  0  0  0  0  0  0  0  0
    0.5606   -0.1018    0.5966 C   0  0  0  0  0  0  0  0  0  0  0  0
   -0.8186    0.3312    0.1590 C   0  0  0  0  0  0  0  0  0  0  0  0
   -1.7731   -0.7678    0.5957 C   0  0  0  0  0  0  0  0  0  0  0  0
   -3.0623   -0.3474    0.2281 N   0  0  0  0  0  0  0  0  0  0  0  0
   -3.4127   -0.1325   -1.1041 C   0  0  0  0  0  0  0  0  0  0  0  0
   -4.8699   -0.4468   -1.3037 C   0  0  0  0  0  0  0  0  0  0  0  0
   -5.6495    0.3356   -0.3680 N   0  0  0  0  0  0  0  0  0  0  0  0
   -4.8894    1.2731    0.3962 C   0  0  0  0  0  0  0  0  0  0  0  0
   -3.6839    0.6372    1.0645 C   0  0  0  0  0  0  0  0  0  0  0  0
   -1.3564   -2.1342    0.2383 C   0  0  0  0  0  0  0  0  0  0  0  0
   -1.7478   -3.0135    1.2585 F   0  0  0  0  0  0  0  0  0  0  0  0
    0.0751   -2.3886   -0.0307 C   0  0  0  0  0  0  0  0  0  0  0  0
    0.9110   -1.2016   -0.3595 C   0  0  0  0  0  0  0  0  0  0  0  0
    2.3724   -1.5665   -0.3278 C   0  0  0  0  0  0  0  0  0  0  0  0
    2.6125   -2.4841    0.6626 O   0  0  0  0  0  0  0  0  0  0  0  0
    1.3022    2.1379    0.0320 C   0  0  0  0  0  0  0  0  0  0  0  0
    1.8115    3.4501    0.5463 C   0  0  0  0  0  0  0  0  0  0  0  0
    2.5380    2.7823   -0.5676 C   0  0  0  0  0  0  0  0  0  0  0  0
    3.5402    1.2330    1.2787 H   0  0  0  0  0  0  0  0  0  0  0  0
   -0.8795    0.3885   -0.9473 H   0  0  0  0  0  0  0  0  0  0  0  0
   -3.3171    0.9793   -1.3111 H   0  0  0  0  0  0  0  0  0  0  0  0
   -2.7590   -0.5901   -1.8716 H   0  0  0  0  0  0  0  0  0  0  0  0
   -5.1124   -1.5102   -1.0958 H   0  0  0  0  0  0  0  0  0  0  0  0
   -5.1688   -0.1958   -2.3566 H   0  0  0  0  0  0  0  0  0  0  0  0
   -6.4218    0.7857   -0.8812 H   0  0  0  0  0  0  0  0  0  0  0  0
   -5.5459    1.6368    1.2376 H   0  0  0  0  0  0  0  0  0  0  0  0
   -4.6415    2.1573   -0.2019 H   0  0  0  0  0  0  0  0  0  0  0  0
   -3.0093    1.4843    1.3362 H   0  0  0  0  0  0  0  0  0  0  0  0
   -4.0683    0.1037    1.9655 H   0  0  0  0  0  0  0  0  0  0  0  0
    0.5883   -2.8972    0.8414 H   0  0  0  0  0  0  0  0  0  0  0  0
    0.4068    2.1929   -0.6500 H   0  0  0  0  0  0  0  0  0  0  0  0
    1.2344    4.3594    0.2812 H   0  0  0  0  0  0  0  0  0  0  0  0
    2.2921    3.5189    1.5453 H   0  0  0  0  0  0  0  0  0  0  0  0
    2.4671    3.2139   -1.5992 H   0  0  0  0  0  0  0  0  0  0  0  0
    3.5421    2.4455   -0.3303 H   0  0  0  0  0  0  0  0  0  0  0  0
    4.7867   -2.4724   -1.0710 H   0  0  0  0  0  0  0  0  0  0  0  0
    4.6427   -1.5030    0.8747 H   0  0  0  0  0  0  0  0  0  0  0  0
    6.1879    0.3160   -0.4959 H   0  0  0  0  0  0  0  0  0  0  0  0
    3.2499    0.2567   -1.1386 H   0  0  0  0  0  0  0  0  0  0  0  0
    2.7479   -0.2473    1.8550 H   0  0  0  0  0  0  0  0  0  0  0  0
    0.4044   -0.6116    1.5964 H   0  0  0  0  0  0  0  0  0  0  0  0
   -1.1394    1.2639    0.5928 H   0  0  0  0  0  0  0  0  0  0  0  0
   -1.7297   -0.7320    1.7020 H   0  0  0  0  0  0  0  0  0  0  0  0
   -1.9077   -2.5087   -0.7118 H   0  0  0  0  0  0  0  0  0  0  0  0
    0.2723   -3.1387   -0.8816 H   0  0  0  0  0  0  0  0  0  0  0  0
    0.6691   -0.8821   -1.4019 H   0  0  0  0  0  0  0  0  0  0  0  0
    2.6421   -2.0309   -1.3122 H   0  0  0  0  0  0  0  0  0  0  0  0
    2.3749   -2.2280    1.5510 H   0  0  0  0  0  0  0  0  0  0  0  0
    4.7110   -2.4894   -1.1190 H   0  0  0  0  0  0  0  0  0  0  0  0
    4.6503   -1.5288    0.8688 H   0  0  0  0  0  0  0  0  0  0  0  0
    6.1364    0.3168   -0.5703 H   0  0  0  0  0  0  0  0  0  0  0  0
    3.2471    0.2338   -1.1545 H   0  0  0  0  0  0  0  0  0  0  0  0
    2.7516   -0.2384    1.8443 H   0  0  0  0  0  0  0  0  0  0  0  0
    0.4212   -0.5896    1.6030 H   0  0  0  0  0  0  0  0  0  0  0  0
   -1.1292    1.2840    0.5896 H   0  0  0  0  0  0  0  0  0  0  0  0
   -1.7300   -0.6958    1.7289 H   0  0  0  0  0  0  0  0  0  0  0  0
   -1.9303   -2.5165   -0.6430 H   0  0  0  0  0  0  0  0  0  0  0  0
    0.2338   -3.1258   -0.8744 H   0  0  0  0  0  0  0  0  0  0  0  0
    0.6635   -0.8776   -1.3971 H   0  0  0  0  0  0  0  0  0  0  0  0
    2.6107   -2.0448   -1.3009 H   0  0  0  0  0  0  0  0  0  0  0  0
    2.3820   -2.2237    1.5676 H   0  0  0  0  0  0  0  0  0  0  0  0
  1  2  1  0
  2  3  1  0
  2  4  1  0
  4  5  1  0
  5  6  1  0
  6  7  1  0
  7  8  1  0
  8  9  1  0
  9 10  1  0
 10 11  1  0
 11 12  1  0
 12 13  1  0
 13 14  1  0
 10 15  1  0
 14 15  1  0
  9 16  1  0
 16 17  1  0
 16 18  1  0
  7 19  1  0
 18 19  1  0
  4 20  1  0
 19 20  1  0
 20 21  1  0
  6 22  1  0
 22 23  1  0
 22 24  1  0
 23 24  1  0
  5 25  1  0
  8 26  1  0
 11 27  1  0
 11 28  1  0
 12 29  1  0
 12 30  1  0
 13 31  1  0
 14 32  1  0
 14 33  1  0
 15 34  1  0
 15 35  1  0
 18 36  1  0
 22 37  1  0
 23 38  1  0
 23 39  1  0
 24 40  1  0
 24 41  1  0
 43 42  1  0
 43 44  1  0
 43 45  1  0
 45 46  1  0
 46 47  1  0
 47 48  1  0
 48 49  1  0
 49 50  1  0
 50 51  1  0
 51 52  1  0
 52 53  1  0
 53 54  1  0
 54 55  1  0
 51 56  1  0
 55 56  1  0
 50 57  1  0
 57 58  1  0
 57 59  1  0
 48 60  1  0
 59 60  1  0
 45 61  1  0
 60 61  1  0
 61 62  1  0
 47 63  1  0
 63 64  1  0
 63 65  1  0
 64 65  1  0
 46 66  1  0
 49 67  1  0
 52 68  1  0
 52 69  1  0
 53 70  1  0
 53 71  1  0
 54 72  1  0
 55 73  1  0
 55 74  1  0
 56 75  1  0
 56 76  1  0
 59 77  1  0
 63 78  1  0
 64 79  1  0
 64 80  1  0
 65 81  1  0
 65 82  1  0
  1 83  1  0
  2 84  1  0
  3 85  1  0
  4 86  1  0
  5 87  1  0
  7 88  1  0
  8 89  1  0
  9 90  1  0
 16 91  1  0
 18 92  1  0
 19 93  1  0
 20 94  1  0
 21 95  1  0
 42 96  1  0
 43 97  1  0
 44 98  1  0
 45 99  1  0
 46100  1  0
 48101  1  0
 49102  1  0
 50103  1  0
 57104  1  0
 59105  1  0
 60106  1  0
 61107  1  0
 62108  1  0
M  END
>  <PDBID>  (1) 
5BTC

>  <PDB ID>  (1) 
5BTC

>  <Generic Name>  (1) 
Ciprofloxacin

>  <Brand Name>  (1) 
Act Ciprofloxacin#Apo-ciproflox#Auro-ciprofloxacin#Bio-ciprofloxacin#Ciloxan#Cipro#Cipro 100 - Tab 100mg#Cipro 250 - Tab 250mg#Cipro 500 - Tab 500mg#Cipro 750 - Tab 750mg#Cipro HC#Cipro HC Otic Suspension#Cipro I.V. - Liq 10mg/ml#Cipro I.V. Minibags 2mg/ml#Cipro IV 10mg/ml#Cipro Oral Suspension 10%#Cipro Tab 100mg#Cipro Tab 250mg#Cipro Tab 500mg#Cipro Tab 750mg#Cipro XL#Ciprodex#Ciprofloxacin#Ciprofloxacin Extended-release#Ciprofloxacin Hydrochloride#Ciprofloxacin Injection#Ciprofloxacin Injection USP#Ciprofloxacin Injection, USP#Ciprofloxacin Intravenous Infusion#Ciprofloxacin Intravenous Infusion BP#Ciprofloxacin Intravenous Infusion, BP#Ciprofloxacin Omega#Ciprofloxacin Otic#Ciprofloxacin Tablets#Ciprofloxacin Tablets USP - 100 mg#Ciprofloxacin Tablets USP - 250 mg#Ciprofloxacin Tablets USP - 500 mg#Ciprofloxacin Tablets USP - 750 mg#Ciprofloxacin-250#Ciprofloxacin-500#Ciprofloxacin-750#Dom-ciprofloxacin#Ipg-ciprofloxacin#Jamp-ciprofloxacin#Mar-ciprofloxacin#Mint-ciproflox#Mint-ciprofloxacin#Mylan-ciprofloxacin#Mylan-ciprofloxacin XL#Nu-ciproflox#Nu-ciprofloxacin Tablets#Otiprio#Otixal#Otovel#PHL-ciprofloxacin#PMS-ciprofloxacin#PMS-ciprofloxacin 0.3%#PMS-ciprofloxacin XL#Priva-ciprofloxacin#Pro-ciprofloxacin#Proquin XR#Q-ciprofloxacin#Ran-ciproflox#Ran-ciprofloxacin#Ratio-ciprofloxacin#Riva-ciprofloxacin#Sandoz Ciprofloxacin#Septa-ciprofloxacin#Taro-ciprofloxacin#Teva-ciprofloxacin#Van-ciprofloxacin#Bacquinor#Baycip#Ciflox#Cifloxin#Ciprinol#Ciprobay#Ciprocinol#Ciprodar#Ciproxan#Ciproxin#Flociprin#Proquin

>  <DrugBank ID>  (1) 
DB00537

>  <ATC Codes>  (1) 
J01MA02#J01RA11#J01RA12#S02AA15#S03AA07#S01AE03#J01RA10

>  <Ligand ID>  (1) 
CPF

>  <Target Name>  (1) 
DNA gyrase subunit A

>  <UniProt ID>  (1) 
P43700

>  <PDB ID.1>  (1) 
5BTC

>  <Seq. Identity>  (1) 
48%

$$$$
