PDB_DB00284_08
     RDKit          3D

 89 92  0  0  0  0  0  0  0  0999 V2000
    5.7607   -0.1877   -0.1241 C   0  0  2  0  0  0  0  0  0  0  0  0
    6.1765    1.2100   -0.2050 C   0  0  1  0  0  0  0  0  0  0  0  0
    7.0799    1.3777   -1.4512 C   0  0  2  0  0  0  0  0  0  0  0  0
    8.4112    0.7974   -1.0001 C   0  0  1  0  0  0  0  0  0  0  0  0
    8.2483   -0.6240   -0.5344 C   0  0  0  0  0  0  0  0  0  0  0  0
    9.0481   -0.9224    0.7311 C   0  0  0  0  0  0  0  0  0  0  0  0
    6.8852   -1.1605   -0.5192 C   0  0  0  0  0  0  0  0  0  0  0  0
    5.2796    2.2146   -0.2578 O   0  0  0  0  0  0  0  0  0  0  0  0
    7.2110    2.7475   -1.6516 O   0  0  0  0  0  0  0  0  0  0  0  0
    9.3211    0.9748   -2.0116 O   0  0  0  0  0  0  0  0  0  0  0  0
    8.6968   -0.1450    1.8052 O   0  0  0  0  0  0  0  0  0  0  0  0
    0.6132   -0.2339   -0.4627 C   0  0  2  0  0  0  0  0  0  0  0  0
    1.2936    0.7183   -1.3898 C   0  0  1  0  0  0  0  0  0  0  0  0
    2.7294    0.8760   -0.7760 C   0  0  2  0  0  0  0  0  0  0  0  0
    3.2916   -0.4388   -0.4690 C   0  0  1  0  0  0  0  0  0  0  0  0
    2.4290   -1.5993   -0.9745 C   0  0  1  0  0  0  0  0  0  0  0  0
    2.9496   -2.9099   -0.3911 C   0  0  0  0  0  0  0  0  0  0  0  0
    4.6165   -0.6800   -0.7135 N   0  0  0  0  0  0  0  0  0  0  0  0
    1.3542    0.1788   -2.6509 O   0  0  0  0  0  0  0  0  0  0  0  0
    2.4707    1.6697    0.3480 O   0  0  0  0  0  0  0  0  0  0  0  0
    1.1081   -1.4994   -0.7367 O   0  0  0  0  0  0  0  0  0  0  0  0
   -4.3320    0.1115    0.9032 C   0  0  2  0  0  0  0  0  0  0  0  0
   -3.4884    1.3264    1.1153 C   0  0  1  0  0  0  0  0  0  0  0  0
   -2.2845    1.2458    0.2130 C   0  0  2  0  0  0  0  0  0  0  0  0
   -1.4858    0.0006    0.5248 C   0  0  1  0  0  0  0  0  0  0  0  0
   -2.3815   -1.1494    0.9285 C   0  0  1  0  0  0  0  0  0  0  0  0
   -2.2259   -1.4500    2.4044 C   0  0  0  0  0  0  0  0  0  0  0  0
   -4.2148    2.4531    0.7121 O   0  0  0  0  0  0  0  0  0  0  0  0
   -1.5082    2.3969    0.2761 O   0  0  0  0  0  0  0  0  0  0  0  0
   -0.7583   -0.2869   -0.6241 O   0  0  0  0  0  0  0  0  0  0  0  0
   -3.6685   -1.0127    0.5065 O   0  0  0  0  0  0  0  0  0  0  0  0
   -2.8604   -2.6403    2.7573 O   0  0  0  0  0  0  0  0  0  0  0  0
   -8.9860   -0.2587    1.1434 C   0  0  1  0  0  0  0  0  0  0  0  0
   -8.8700    1.1565    0.6133 C   0  0  1  0  0  0  0  0  0  0  0  0
   -7.4019    1.5960    0.4871 C   0  0  2  0  0  0  0  0  0  0  0  0
   -6.5860    0.3127    0.4314 C   0  0  1  0  0  0  0  0  0  0  0  0
   -7.3758   -0.6254   -0.4516 C   0  0  1  0  0  0  0  0  0  0  0  0
   -6.5624   -1.7232   -1.0643 C   0  0  0  0  0  0  0  0  0  0  0  0
  -10.3440   -0.5468    1.2365 O   0  0  0  0  0  0  0  0  0  0  0  0
   -9.5617    1.2432   -0.5681 O   0  0  0  0  0  0  0  0  0  0  0  0
   -7.1181    2.2674    1.6568 O   0  0  0  0  0  0  0  0  0  0  0  0
   -5.3193    0.4285   -0.0289 O   0  0  0  0  0  0  0  0  0  0  0  0
   -8.4214   -1.2058    0.2804 O   0  0  0  0  0  0  0  0  0  0  0  0
   -5.5240   -1.2206   -1.8563 O   0  0  0  0  0  0  0  0  0  0  0  0
    5.6127   -0.3653    1.0317 H   0  0  0  0  0  0  0  0  0  0  0  0
    6.8743    1.4902    0.6586 H   0  0  0  0  0  0  0  0  0  0  0  0
    6.6543    0.8766   -2.3207 H   0  0  0  0  0  0  0  0  0  0  0  0
    8.7129    1.3925   -0.0989 H   0  0  0  0  0  0  0  0  0  0  0  0
    8.8136   -1.2293   -1.3302 H   0  0  0  0  0  0  0  0  0  0  0  0
   10.1255   -0.8049    0.4486 H   0  0  0  0  0  0  0  0  0  0  0  0
    8.9441   -1.9896    1.0188 H   0  0  0  0  0  0  0  0  0  0  0  0
    6.8195   -2.0078    0.1930 H   0  0  0  0  0  0  0  0  0  0  0  0
    6.6272   -1.6231   -1.5171 H   0  0  0  0  0  0  0  0  0  0  0  0
    5.5214    3.0382    0.2308 H   0  0  0  0  0  0  0  0  0  0  0  0
    7.9763    3.1260   -1.1543 H   0  0  0  0  0  0  0  0  0  0  0  0
   10.2462    0.9468   -1.6529 H   0  0  0  0  0  0  0  0  0  0  0  0
    8.3781   -0.6828    2.5805 H   0  0  0  0  0  0  0  0  0  0  0  0
    0.9218    0.0257    0.5655 H   0  0  0  0  0  0  0  0  0  0  0  0
    0.8895    1.7252   -1.4097 H   0  0  0  0  0  0  0  0  0  0  0  0
    3.2378    1.4632   -1.5535 H   0  0  0  0  0  0  0  0  0  0  0  0
    3.1447   -0.5574    0.6812 H   0  0  0  0  0  0  0  0  0  0  0  0
    2.6210   -1.6741   -2.0630 H   0  0  0  0  0  0  0  0  0  0  0  0
    3.7003   -3.3903   -1.0852 H   0  0  0  0  0  0  0  0  0  0  0  0
    2.1545   -3.6573   -0.2642 H   0  0  0  0  0  0  0  0  0  0  0  0
    3.4177   -2.7040    0.5757 H   0  0  0  0  0  0  0  0  0  0  0  0
    4.8021   -1.3427   -1.5405 H   0  0  0  0  0  0  0  0  0  0  0  0
    1.4817    0.8787   -3.3355 H   0  0  0  0  0  0  0  0  0  0  0  0
    2.6521    1.1170    1.1449 H   0  0  0  0  0  0  0  0  0  0  0  0
   -4.8028   -0.1494    1.9001 H   0  0  0  0  0  0  0  0  0  0  0  0
   -3.2107    1.4885    2.1771 H   0  0  0  0  0  0  0  0  0  0  0  0
   -2.6912    1.1984   -0.8384 H   0  0  0  0  0  0  0  0  0  0  0  0
   -0.8487    0.2387    1.3977 H   0  0  0  0  0  0  0  0  0  0  0  0
   -1.9657   -2.0559    0.3953 H   0  0  0  0  0  0  0  0  0  0  0  0
   -1.1318   -1.6305    2.5990 H   0  0  0  0  0  0  0  0  0  0  0  0
   -2.6295   -0.6618    3.0562 H   0  0  0  0  0  0  0  0  0  0  0  0
   -4.3964    3.0348    1.4894 H   0  0  0  0  0  0  0  0  0  0  0  0
   -2.0495    3.1994    0.4475 H   0  0  0  0  0  0  0  0  0  0  0  0
   -3.1147   -2.5851    3.7259 H   0  0  0  0  0  0  0  0  0  0  0  0
   -8.5675   -0.3131    2.1594 H   0  0  0  0  0  0  0  0  0  0  0  0
   -9.4126    1.7968    1.3510 H   0  0  0  0  0  0  0  0  0  0  0  0
   -7.3281    2.1749   -0.4321 H   0  0  0  0  0  0  0  0  0  0  0  0
   -6.5449   -0.0758    1.4770 H   0  0  0  0  0  0  0  0  0  0  0  0
   -7.7586   -0.0058   -1.2944 H   0  0  0  0  0  0  0  0  0  0  0  0
   -6.1437   -2.4406   -0.3449 H   0  0  0  0  0  0  0  0  0  0  0  0
   -7.2386   -2.2632   -1.7882 H   0  0  0  0  0  0  0  0  0  0  0  0
  -10.5255   -1.3589    1.7674 H   0  0  0  0  0  0  0  0  0  0  0  0
  -10.0750    0.4036   -0.7805 H   0  0  0  0  0  0  0  0  0  0  0  0
   -7.7954    2.2074    2.3483 H   0  0  0  0  0  0  0  0  0  0  0  0
   -5.7939   -1.0368   -2.7743 H   0  0  0  0  0  0  0  0  0  0  0  0
  1  2  1  0
  2  3  1  0
  3  4  1  0
  4  5  1  0
  5  6  1  0
  1  7  1  0
  5  7  1  0
  2  8  1  0
  3  9  1  0
  4 10  1  0
  6 11  1  0
 12 13  1  0
 13 14  1  0
 14 15  1  0
 15 16  1  0
 16 17  1  0
  1 18  1  0
 15 18  1  0
 13 19  1  0
 14 20  1  0
 12 21  1  0
 16 21  1  0
 22 23  1  0
 23 24  1  0
 24 25  1  0
 25 26  1  0
 26 27  1  0
 23 28  1  0
 24 29  1  0
 12 30  1  0
 25 30  1  0
 22 31  1  0
 26 31  1  0
 27 32  1  0
 33 34  1  0
 34 35  1  0
 35 36  1  0
 36 37  1  0
 37 38  1  0
 33 39  1  0
 34 40  1  0
 35 41  1  0
 22 42  1  0
 36 42  1  0
 33 43  1  0
 37 43  1  0
 38 44  1  0
  1 45  1  1
  2 46  1  1
  3 47  1  6
  4 48  1  1
  5 49  1  0
  6 50  1  0
  6 51  1  0
  7 52  1  0
  7 53  1  0
  8 54  1  0
  9 55  1  0
 10 56  1  0
 11 57  1  0
 12 58  1  1
 13 59  1  6
 14 60  1  6
 15 61  1  1
 16 62  1  6
 17 63  1  0
 17 64  1  0
 17 65  1  0
 18 66  1  0
 19 67  1  0
 20 68  1  0
 22 69  1  1
 23 70  1  1
 24 71  1  6
 25 72  1  1
 26 73  1  6
 27 74  1  0
 27 75  1  0
 28 76  1  0
 29 77  1  0
 32 78  1  0
 33 79  1  1
 34 80  1  1
 35 81  1  6
 36 82  1  1
 37 83  1  6
 38 84  1  0
 38 85  1  0
 39 86  1  0
 40 87  1  0
 41 88  1  0
 44 89  1  0
M  END
>  <PDBID>  (1) 
2QMJ

>  <PDB ID>  (1) 
2QMJ

>  <Generic Name>  (1) 
Acarbose

>  <Brand Name>  (1) 
Acarbose#Glucobay#Precose#Prandase

>  <DrugBank ID>  (1) 
DB00284

>  <ATC Codes>  (1) 
A10BF01#A10BD17

>  <Ligand ID>  (1) 
ACR,QPS

>  <Target Name>  (1) 
Maltase-glucoamylase, intestinal

>  <UniProt ID>  (1) 
O43451

>  <PDB ID.1>  (1) 
2QMJ

>  <Seq. Identity>  (1) 
99%

$$$$
