PDB_DB00819_08
     RDKit          3D

 27 27  0  0  0  0  0  0  0  0999 V2000
    1.3947   -0.0094    0.2383 C   0  0  2  0  0  0  0  0  0  0  0  0
   -0.9430   -1.1135   -0.2989 C   0  0  2  0  0  0  0  0  0  0  0  0
   -2.7313    0.3994    0.1135 C   0  0  0  0  0  0  0  0  0  0  0  0
   -3.7340   -0.5507   -0.4907 C   0  0  0  0  0  0  0  0  0  0  0  0
    3.9799    1.0328    0.0822 N   0  0  0  0  0  0  0  0  0  0  0  0
   -0.3917   -0.2231   -1.2302 N   0  0  0  0  0  0  0  0  0  0  0  0
    0.6710    0.4542   -0.8487 N   0  0  0  0  0  0  0  0  0  0  0  0
   -1.6678   -0.3496    0.6990 N   0  0  0  0  0  0  0  0  0  0  0  0
    3.2084   -0.5448    2.1153 O   0  0  0  0  0  0  0  0  0  0  0  0
    3.5969   -1.5719   -0.2734 O   0  0  0  0  0  0  0  0  0  0  0  0
   -3.3267    1.1533    1.1231 O   0  0  0  0  0  0  0  0  0  0  0  0
    3.0512   -0.1340    0.1369 S   0  0  0  0  0  0  0  0  0  0  0  0
    0.6093   -1.6556    0.5480 S   0  0  0  0  0  0  0  0  0  0  0  0
    1.0816    0.5713    1.1622 H   0  0  0  0  0  0  0  0  0  0  0  0
   -1.4720   -1.9692   -0.6966 H   0  0  0  0  0  0  0  0  0  0  0  0
   -2.3946    1.1182   -0.6849 H   0  0  0  0  0  0  0  0  0  0  0  0
   -3.4348   -1.6096   -0.3422 H   0  0  0  0  0  0  0  0  0  0  0  0
   -4.7220   -0.4066    0.0206 H   0  0  0  0  0  0  0  0  0  0  0  0
   -3.8593   -0.3962   -1.5799 H   0  0  0  0  0  0  0  0  0  0  0  0
    4.7825    1.1412    0.7735 H   0  0  0  0  0  0  0  0  0  0  0  0
    3.8026    2.0251   -0.2573 H   0  0  0  0  0  0  0  0  0  0  0  0
   -1.0024    0.2383   -1.9006 H   0  0  0  0  0  0  0  0  0  0  0  0
    0.6716    1.4594   -1.0558 H   0  0  0  0  0  0  0  0  0  0  0  0
   -0.9430    0.2803    1.1555 H   0  0  0  0  0  0  0  0  0  0  0  0
    2.9037    0.3519    2.3358 H   0  0  0  0  0  0  0  0  0  0  0  0
    4.5630   -1.6767   -0.1975 H   0  0  0  0  0  0  0  0  0  0  0  0
   -3.6938    1.9855    0.7364 H   0  0  0  0  0  0  0  0  0  0  0  0
  3  4  1  0
  2  6  1  0
  1  7  1  0
  6  7  1  0
  2  8  1  0
  3  8  1  0
  3 11  1  0
  1 12  1  0
  5 12  1  0
 12  9  1  0
 10 12  1  0
  1 13  1  0
  2 13  1  0
  1 14  1  1
  2 15  1  6
  3 16  1  0
  4 17  1  0
  4 18  1  0
  4 19  1  0
  5 20  1  0
  5 21  1  0
  6 22  1  0
  7 23  1  0
  8 24  1  0
  9 25  1  0
 10 26  1  0
 11 27  1  0
M  END
>  <PDBID>  (1) 
1AZM

>  <PDB ID>  (1) 
1AZM

>  <Generic Name>  (1) 
Acetazolamide

>  <Brand Name>  (1) 
Acetazolam#Acetazolamide#Acetazolamide for Injection, USP#Diamox IV 500mg#Diamox Pws 500mg/vial#Diamox Sequels#Diamox Src 500mg#Diamox Tab 250mg#Diamox Tablets 250mg#Novo-zolamide Tab 250mg#Acemit#Acemox#Acetak#Acetamide#Acetazolamax#Azm#Azol#Azomid#Carbinib#Defiltran#Diabo#Diacarb#Diamox#Diamox Depot#Diazomid#Diluran#Diuramid#Défiltran#Edemox#Glaumox#Glaupax#Glupax#Huma-Zolamide#Iopar-SR#Medene#Oculten#Uramox#Zolmide#Ödemin

>  <DrugBank ID>  (1) 
DB00819

>  <ATC Codes>  (1) 
S01EC01

>  <Ligand ID>  (1) 
AZM

>  <Target Name>  (1) 
Carbonic anhydrase 1

>  <UniProt ID>  (1) 
P00915

>  <PDB ID.1>  (1) 
1AZM

>  <Seq. Identity>  (1) 
100%

$$$$
