PDB_DB01167_07
     RDKit          3D

113119  0  0  0  0  0  0  0  0999 V2000
    6.3477    0.6698    0.5194 C   0  0  0  0  0  0  0  0  0  0  0  0
    6.9961    0.4978   -0.8185 C   0  0  0  0  0  0  0  0  0  0  0  0
   13.1736   -0.3227    0.6319 C   0  0  0  0  0  0  0  0  0  0  0  0
   12.5821   -0.6471   -0.7160 C   0  0  0  0  0  0  0  0  0  0  0  0
   11.3378    0.1910   -0.9409 C   0  0  1  0  0  0  0  0  0  0  0  0
   10.7600   -0.1613   -2.2933 C   0  0  0  0  0  0  0  0  0  0  0  0
   10.3993    0.0373    0.1327 N   0  0  0  0  0  0  0  0  0  0  0  0
    9.2625    0.9051   -0.1015 C   0  0  0  0  0  0  0  0  0  0  0  0
    9.6071    1.9906   -0.9069 O   0  0  0  0  0  0  0  0  0  0  0  0
    8.3378    0.0062   -0.7661 N   0  0  0  0  0  0  0  0  0  0  0  0
    8.4689   -1.1763    0.0684 C   0  0  0  0  0  0  0  0  0  0  0  0
    9.9022   -1.2675    0.2451 N   0  0  0  0  0  0  0  0  0  0  0  0
    5.3330   -0.4569    0.6671 C   0  0  0  0  0  0  0  0  0  0  0  0
    4.1584   -0.2238   -0.2238 C   0  0  0  0  0  0  0  0  0  0  0  0
    4.6814    0.0062   -1.6269 C   0  0  0  0  0  0  0  0  0  0  0  0
    6.1631   -0.3490   -1.7382 C   0  0  0  0  0  0  0  0  0  0  0  0
    3.3878    0.9261    0.1503 N   0  0  0  0  0  0  0  0  0  0  0  0
    2.2491    1.0373   -0.7179 C   0  0  0  0  0  0  0  0  0  0  0  0
    1.3644   -0.1855   -0.6006 C   0  0  0  0  0  0  0  0  0  0  0  0
    1.0340   -0.5399    0.7259 N   0  0  0  0  0  0  0  0  0  0  0  0
    1.9846   -0.3206    1.7371 C   0  0  0  0  0  0  0  0  0  0  0  0
    2.8976    0.8533    1.5147 C   0  0  0  0  0  0  0  0  0  0  0  0
   -0.3337   -0.4497    1.1041 C   0  0  0  0  0  0  0  0  0  0  0  0
   -0.8710   -1.5934    1.9137 C   0  0  0  0  0  0  0  0  0  0  0  0
   -2.3775   -1.6039    1.8309 C   0  0  0  0  0  0  0  0  0  0  0  0
   -2.9068   -0.1955    2.0114 C   0  0  0  0  0  0  0  0  0  0  0  0
   -1.7839    0.6019    2.8141 C   0  0  0  0  0  0  0  0  0  0  0  0
   -0.6702    0.8344    1.8183 C   0  0  0  0  0  0  0  0  0  0  0  0
   -3.1629    0.4771    0.9405 O   0  0  0  0  0  0  0  0  0  0  0  0
   -3.8349    1.2190    0.2194 C   0  0  0  0  0  0  0  0  0  0  0  0
   -5.2017    0.9517   -0.3161 C   0  0  1  0  0  0  0  0  0  0  0  0
   -5.2703   -0.4231   -0.9871 C   0  0  0  0  0  0  0  0  0  0  0  0
   -6.6440   -0.7096   -0.9777 O   0  0  0  0  0  0  0  0  0  0  0  0
   -7.2655    0.2541   -0.1903 C   0  0  2  0  0  0  0  0  0  0  0  0
   -6.2332    0.8204    0.5777 O   0  0  0  0  0  0  0  0  0  0  0  0
   -8.1844   -0.4839    0.7330 C   0  0  0  0  0  0  0  0  0  0  0  0
   -9.1358   -1.3325    0.0139 N   0  0  0  0  0  0  0  0  0  0  0  0
  -10.0723   -1.9221    0.9565 C   0  0  0  0  0  0  0  0  0  0  0  0
  -10.6109   -3.0095    0.1728 N   0  0  0  0  0  0  0  0  0  0  0  0
   -9.5245   -3.4022   -0.7156 C   0  0  0  0  0  0  0  0  0  0  0  0
   -8.4495   -2.4714   -0.4787 N   0  0  0  0  0  0  0  0  0  0  0  0
   -7.9175    1.3006   -1.0531 C   0  0  0  0  0  0  0  0  0  0  0  0
   -8.3856    2.5127   -0.2984 C   0  0  0  0  0  0  0  0  0  0  0  0
   -9.8159    2.8635   -0.3885 C   0  0  0  0  0  0  0  0  0  0  0  0
  -10.7467    1.7034   -0.5096 C   0  0  0  0  0  0  0  0  0  0  0  0
  -10.3557    0.9425   -1.7465 C   0  0  0  0  0  0  0  0  0  0  0  0
   -8.9320    0.7612   -2.0231 C   0  0  0  0  0  0  0  0  0  0  0  0
  -12.3730    2.4218   -0.8239 Cl  0  0  0  0  0  0  0  0  0  0  0  0
   -7.9402    2.4829    1.4310 Cl  0  0  0  0  0  0  0  0  0  0  0  0
    5.7311    1.6149    0.5319 H   0  0  0  0  0  0  0  0  0  0  0  0
    7.0232    0.7323    1.3732 H   0  0  0  0  0  0  0  0  0  0  0  0
    7.0598    1.5176   -1.3040 H   0  0  0  0  0  0  0  0  0  0  0  0
   14.0634   -0.9502    0.7486 H   0  0  0  0  0  0  0  0  0  0  0  0
   13.4656    0.7529    0.6525 H   0  0  0  0  0  0  0  0  0  0  0  0
   12.4261   -0.5636    1.4122 H   0  0  0  0  0  0  0  0  0  0  0  0
   13.3243   -0.3374   -1.4898 H   0  0  0  0  0  0  0  0  0  0  0  0
   12.3775   -1.7134   -0.8225 H   0  0  0  0  0  0  0  0  0  0  0  0
   11.6412    1.2462   -0.9897 H   0  0  0  0  0  0  0  0  0  0  0  0
   10.2729    0.7208   -2.7606 H   0  0  0  0  0  0  0  0  0  0  0  0
   11.6074   -0.4900   -2.9413 H   0  0  0  0  0  0  0  0  0  0  0  0
   10.0319   -0.9785   -2.2424 H   0  0  0  0  0  0  0  0  0  0  0  0
    8.9186    1.2656    0.8687 H   0  0  0  0  0  0  0  0  0  0  0  0
    9.8966    2.7307   -0.2971 H   0  0  0  0  0  0  0  0  0  0  0  0
    8.0383   -1.0240    1.0815 H   0  0  0  0  0  0  0  0  0  0  0  0
    8.0749   -2.0703   -0.4476 H   0  0  0  0  0  0  0  0  0  0  0  0
   10.3690   -1.9469   -0.3774 H   0  0  0  0  0  0  0  0  0  0  0  0
    5.8302   -1.4053    0.3047 H   0  0  0  0  0  0  0  0  0  0  0  0
    5.0741   -0.6667    1.7219 H   0  0  0  0  0  0  0  0  0  0  0  0
    3.5487   -1.1472   -0.2472 H   0  0  0  0  0  0  0  0  0  0  0  0
    4.1457   -0.5557   -2.3951 H   0  0  0  0  0  0  0  0  0  0  0  0
    4.6182    1.0844   -1.8959 H   0  0  0  0  0  0  0  0  0  0  0  0
    6.3461   -1.4215   -1.6696 H   0  0  0  0  0  0  0  0  0  0  0  0
    6.4462   -0.0550   -2.7843 H   0  0  0  0  0  0  0  0  0  0  0  0
    2.5315    1.1379   -1.7858 H   0  0  0  0  0  0  0  0  0  0  0  0
    1.6423    1.9347   -0.4702 H   0  0  0  0  0  0  0  0  0  0  0  0
    0.3975    0.1039   -1.1135 H   0  0  0  0  0  0  0  0  0  0  0  0
    1.7653   -1.0278   -1.1965 H   0  0  0  0  0  0  0  0  0  0  0  0
    1.5572   -0.2180    2.7526 H   0  0  0  0  0  0  0  0  0  0  0  0
    2.6450   -1.2362    1.8172 H   0  0  0  0  0  0  0  0  0  0  0  0
    3.7377    0.7656    2.2397 H   0  0  0  0  0  0  0  0  0  0  0  0
    2.4245    1.8378    1.7125 H   0  0  0  0  0  0  0  0  0  0  0  0
   -0.9219   -0.4599    0.1467 H   0  0  0  0  0  0  0  0  0  0  0  0
   -0.4827   -2.5456    1.4765 H   0  0  0  0  0  0  0  0  0  0  0  0
   -0.5578   -1.5474    2.9793 H   0  0  0  0  0  0  0  0  0  0  0  0
   -2.7186   -2.0722    0.8749 H   0  0  0  0  0  0  0  0  0  0  0  0
   -2.7444   -2.2800    2.6342 H   0  0  0  0  0  0  0  0  0  0  0  0
   -3.7065   -0.2091    2.7582 H   0  0  0  0  0  0  0  0  0  0  0  0
   -1.4877    0.0539    3.6776 H   0  0  0  0  0  0  0  0  0  0  0  0
   -2.2586    1.5513    3.0483 H   0  0  0  0  0  0  0  0  0  0  0  0
    0.2048    1.2060    2.3455 H   0  0  0  0  0  0  0  0  0  0  0  0
   -0.9547    1.6231    1.0653 H   0  0  0  0  0  0  0  0  0  0  0  0
   -3.2707    1.6349   -0.7240 H   0  0  0  0  0  0  0  0  0  0  0  0
   -4.0119    2.2453    0.8196 H   0  0  0  0  0  0  0  0  0  0  0  0
   -5.4277    1.7215   -1.1121 H   0  0  0  0  0  0  0  0  0  0  0  0
   -4.8531   -0.4169   -1.9982 H   0  0  0  0  0  0  0  0  0  0  0  0
   -4.7004   -1.0912   -0.3010 H   0  0  0  0  0  0  0  0  0  0  0  0
   -7.5816   -1.1270    1.3703 H   0  0  0  0  0  0  0  0  0  0  0  0
   -8.8063    0.1646    1.3766 H   0  0  0  0  0  0  0  0  0  0  0  0
  -10.8567   -1.1566    1.1650 H   0  0  0  0  0  0  0  0  0  0  0  0
   -9.5659   -2.3218    1.8292 H   0  0  0  0  0  0  0  0  0  0  0  0
  -11.4188   -2.6121   -0.3763 H   0  0  0  0  0  0  0  0  0  0  0  0
   -9.2607   -4.4546   -0.4190 H   0  0  0  0  0  0  0  0  0  0  0  0
   -9.9086   -3.3767   -1.7424 H   0  0  0  0  0  0  0  0  0  0  0  0
   -7.9351   -2.8481    0.3627 H   0  0  0  0  0  0  0  0  0  0  0  0
   -7.0939    1.6535   -1.7212 H   0  0  0  0  0  0  0  0  0  0  0  0
   -7.8433    3.4472   -0.6732 H   0  0  0  0  0  0  0  0  0  0  0  0
  -10.1267    3.4501    0.5283 H   0  0  0  0  0  0  0  0  0  0  0  0
  -10.0486    3.5601   -1.2377 H   0  0  0  0  0  0  0  0  0  0  0  0
  -10.8894    1.0989    0.3856 H   0  0  0  0  0  0  0  0  0  0  0  0
  -10.8669    1.4822   -2.6020 H   0  0  0  0  0  0  0  0  0  0  0  0
  -10.9302   -0.0163   -1.6924 H   0  0  0  0  0  0  0  0  0  0  0  0
   -8.7230    1.1405   -3.0754 H   0  0  0  0  0  0  0  0  0  0  0  0
   -8.7136   -0.3207   -2.1261 H   0  0  0  0  0  0  0  0  0  0  0  0
  1  2  1  0
  3  4  1  0
  4  5  1  0
  5  6  1  0
  5  7  1  0
  7  8  1  0
  8  9  1  0
  2 10  1  0
  8 10  1  0
 10 11  1  0
  7 12  1  0
 11 12  1  0
  1 13  1  0
 13 14  1  0
 14 15  1  0
  2 16  1  0
 15 16  1  0
 14 17  1  0
 17 18  1  0
 18 19  1  0
 19 20  1  0
 20 21  1  0
 17 22  1  0
 21 22  1  0
 20 23  1  0
 23 24  1  0
 24 25  1  0
 25 26  1  0
 26 27  1  0
 23 28  1  0
 27 28  1  0
 26 29  1  0
 29 30  1  0
 30 31  1  0
 31 32  1  0
 32 33  1  0
 33 34  1  0
 31 35  1  0
 34 35  1  0
 34 36  1  1
 36 37  1  0
 37 38  1  0
 38 39  1  0
 40 39  1  0
 37 41  1  0
 40 41  1  0
 34 42  1  0
 42 43  1  0
 43 44  1  0
 44 45  1  0
 45 46  1  0
 42 47  1  0
 46 47  1  0
 45 48  1  0
 43 49  1  0
  1 50  1  0
  1 51  1  0
  2 52  1  0
  3 53  1  0
  3 54  1  0
  3 55  1  0
  4 56  1  0
  4 57  1  0
  5 58  1  6
  6 59  1  0
  6 60  1  0
  6 61  1  0
  8 62  1  0
  9 63  1  0
 11 64  1  0
 11 65  1  0
 12 66  1  0
 13 67  1  0
 13 68  1  0
 14 69  1  0
 15 70  1  0
 15 71  1  0
 16 72  1  0
 16 73  1  0
 18 74  1  0
 18 75  1  0
 19 76  1  0
 19 77  1  0
 21 78  1  0
 21 79  1  0
 22 80  1  0
 22 81  1  0
 23 82  1  0
 24 83  1  0
 24 84  1  0
 25 85  1  0
 25 86  1  0
 26 87  1  0
 27 88  1  0
 27 89  1  0
 28 90  1  0
 28 91  1  0
 30 92  1  0
 30 93  1  0
 31 94  1  6
 32 95  1  0
 32 96  1  0
 36 97  1  0
 36 98  1  0
 38 99  1  0
 38100  1  0
 39101  1  0
 40102  1  0
 40103  1  0
 41104  1  0
 42105  1  0
 43106  1  0
 44107  1  0
 44108  1  0
 45109  1  0
 46110  1  0
 46111  1  0
 47112  1  0
 47113  1  0
M  END
>  <PDBID>  (1) 
5JLC

>  <PDB ID>  (1) 
5JLC

>  <Generic Name>  (1) 
Itraconazole

>  <Brand Name>  (1) 
Itraconazole#Onmel#Sporanox#Sporanox Oral Solution 10mg/ml#Itrizole#Oriconazole#Sporal

>  <DrugBank ID>  (1) 
DB01167

>  <ATC Codes>  (1) 
J02AC02

>  <Ligand ID>  (1) 
1YN

>  <Target Name>  (1) 
Lanosterol 14-alpha demethylase

>  <UniProt ID>  (1) 
P50859

>  <PDB ID.1>  (1) 
5JLC

>  <Seq. Identity>  (1) 
97%

$$$$
