PDB_DB00715_05
     RDKit          3D

 56 59  0  0  0  0  0  0  0  0999 V2000
   -6.4379    1.8029    0.5592 F   0  0  0  0  0  0  0  0  0  0  0  0
   -4.7919    1.3596   -1.0168 C   0  0  0  0  0  0  0  0  0  0  0  0
   -4.8640    0.2296    1.2317 C   0  0  0  0  0  0  0  0  0  0  0  0
    3.1178    1.7591   -0.8585 C   0  0  0  0  0  0  0  0  0  0  0  0
   -3.3969    0.8076   -1.2850 C   0  0  0  0  0  0  0  0  0  0  0  0
   -3.6558   -0.5551    0.6867 C   0  0  0  0  0  0  0  0  0  0  0  0
    4.2678    1.6355    0.0913 C   0  0  0  0  0  0  0  0  0  0  0  0
    2.8079   -0.6125   -1.0837 C   0  0  0  0  0  0  0  0  0  0  0  0
   -1.4275   -2.4590   -0.6557 C   0  0  0  0  0  0  0  0  0  0  0  0
   -1.1438   -1.0930   -1.1729 C   0  0  0  0  0  0  0  0  0  0  0  0
   -0.1462   -1.6647    1.2439 C   0  0  0  0  0  0  0  0  0  0  0  0
    6.2813   -0.2664   -0.5100 C   0  0  0  0  0  0  0  0  0  0  0  0
    0.6361    0.6429    1.3197 C   0  0  0  0  0  0  0  0  0  0  0  0
   -1.0902   -2.5975    0.7180 N   0  0  0  0  0  0  0  0  0  0  0  0
    1.7692    0.5102    0.6720 O   0  0  0  0  0  0  0  0  0  0  0  0
    5.8254    0.0243    0.7571 O   0  0  0  0  0  0  0  0  0  0  0  0
    5.2095   -0.6728   -1.2725 O   0  0  0  0  0  0  0  0  0  0  0  0
   -5.0868    1.4759    0.4413 C   0  0  0  0  0  0  0  0  0  0  0  0
    2.0734    0.6436   -0.5995 C   0  0  0  0  0  0  0  0  0  0  0  0
   -2.7689    0.3954    0.0295 C   0  0  0  0  0  0  0  0  0  0  0  0
    4.4370    0.2372    0.6262 C   0  0  0  0  0  0  0  0  0  0  0  0
    4.1142   -0.8139   -0.4135 C   0  0  0  0  0  0  0  0  0  0  0  0
   -0.5585   -0.2257    1.0355 C   0  0  1  0  0  0  0  0  0  0  0  0
   -1.3270    0.0311   -0.1965 C   0  0  1  0  0  0  0  0  0  0  0  0
   -4.8238    2.3899   -1.4461 H   0  0  0  0  0  0  0  0  0  0  0  0
   -5.5866    0.7918   -1.4980 H   0  0  0  0  0  0  0  0  0  0  0  0
   -5.7440   -0.4120    1.3444 H   0  0  0  0  0  0  0  0  0  0  0  0
   -4.5716    0.5595    2.2676 H   0  0  0  0  0  0  0  0  0  0  0  0
    3.4928    1.5574   -1.8822 H   0  0  0  0  0  0  0  0  0  0  0  0
    2.6549    2.7442   -0.8603 H   0  0  0  0  0  0  0  0  0  0  0  0
   -2.7688    1.5179   -1.8470 H   0  0  0  0  0  0  0  0  0  0  0  0
   -3.5736   -0.1497   -1.8585 H   0  0  0  0  0  0  0  0  0  0  0  0
   -3.2894   -1.1249    1.5381 H   0  0  0  0  0  0  0  0  0  0  0  0
   -4.1361   -1.3077   -0.0073 H   0  0  0  0  0  0  0  0  0  0  0  0
    5.1850    1.9972   -0.4503 H   0  0  0  0  0  0  0  0  0  0  0  0
    4.1620    2.3481    0.9552 H   0  0  0  0  0  0  0  0  0  0  0  0
    2.1965   -1.5141   -1.0570 H   0  0  0  0  0  0  0  0  0  0  0  0
    3.0177   -0.4052   -2.1743 H   0  0  0  0  0  0  0  0  0  0  0  0
   -0.8059   -3.1787   -1.2709 H   0  0  0  0  0  0  0  0  0  0  0  0
   -2.4661   -2.8039   -0.8414 H   0  0  0  0  0  0  0  0  0  0  0  0
   -0.0816   -1.0710   -1.4980 H   0  0  0  0  0  0  0  0  0  0  0  0
   -1.6988   -0.8936   -2.1379 H   0  0  0  0  0  0  0  0  0  0  0  0
    0.8944   -1.8506    0.8941 H   0  0  0  0  0  0  0  0  0  0  0  0
   -0.0939   -1.8420    2.3463 H   0  0  0  0  0  0  0  0  0  0  0  0
    6.8105    0.6213   -0.9214 H   0  0  0  0  0  0  0  0  0  0  0  0
    7.0566   -1.0676   -0.4137 H   0  0  0  0  0  0  0  0  0  0  0  0
    0.2198    1.7059    1.2374 H   0  0  0  0  0  0  0  0  0  0  0  0
    0.8781    0.5954    2.4407 H   0  0  0  0  0  0  0  0  0  0  0  0
   -0.7453   -3.5579    0.9342 H   0  0  0  0  0  0  0  0  0  0  0  0
   -4.5358    2.3539    0.8354 H   0  0  0  0  0  0  0  0  0  0  0  0
    1.2507    0.8820   -1.2664 H   0  0  0  0  0  0  0  0  0  0  0  0
   -2.7440    1.3439    0.6466 H   0  0  0  0  0  0  0  0  0  0  0  0
    3.9071    0.0740    1.5815 H   0  0  0  0  0  0  0  0  0  0  0  0
    4.2321   -1.8017    0.0748 H   0  0  0  0  0  0  0  0  0  0  0  0
   -1.2264   -0.0297    1.9586 H   0  0  0  0  0  0  0  0  0  0  0  0
   -0.9108    0.9337   -0.6931 H   0  0  0  0  0  0  0  0  0  0  0  0
  2  5  1  0
  3  6  1  0
  4  7  1  0
  9 10  1  0
  9 14  1  0
 11 14  1  0
 13 15  1  0
 12 16  1  0
 12 17  1  0
  1 18  1  0
  2 18  1  0
  3 18  1  0
  4 19  1  0
  8 19  1  0
 15 19  1  0
  5 20  1  0
  6 20  1  0
  7 21  1  0
 16 21  1  0
  8 22  1  0
 17 22  1  0
 21 22  1  0
 11 23  1  0
 13 23  1  0
 10 24  1  0
 20 24  1  0
 23 24  1  0
  2 25  1  0
  2 26  1  0
  3 27  1  0
  3 28  1  0
  4 29  1  0
  4 30  1  0
  5 31  1  0
  5 32  1  0
  6 33  1  0
  6 34  1  0
  7 35  1  0
  7 36  1  0
  8 37  1  0
  8 38  1  0
  9 39  1  0
  9 40  1  0
 10 41  1  0
 10 42  1  0
 11 43  1  0
 11 44  1  0
 12 45  1  0
 12 46  1  0
 13 47  1  0
 13 48  1  0
 14 49  1  0
 18 50  1  0
 19 51  1  0
 20 52  1  0
 21 53  1  0
 22 54  1  0
 23 55  1  1
 24 56  1  6
M  END
>  <PDBID>  (1) 
5I6X

>  <PDB ID>  (1) 
5I6X

>  <Generic Name>  (1) 
Paroxetine

>  <Brand Name>  (1) 
Act Paroxetine#Apo-paroxetine#Auro-paroxetine#Bio-paroxetine#Brisdelle#Dom-paroxetine#Ipg-paroxetine#Jamp-paroxetine#Mar-paroxetine#Mint-paroxetine#Mylan-paroxetine#Ntp-paroxetine#Nu-paroxetine#PMS-paroxetine#Paroxetine#Paroxetine Hydrochloride#Paroxetine Hydrochloride Anhydrous#Paroxetine-10#Paroxetine-20#Paroxetine-30#Paxil#Paxil CR#Paxil Tab 10mg#Paxil Tab 20mg#Paxil Tab 30mg#Paxilcr CR#Pexeva#Priva-paroxetine#Q-paroxetine#Ratio-paroxetine#Riva-paroxetine#Sandoz Paroxetine#Sandoz Paroxetine Tablets#Teva-paroxetine#Aropax#PAXILCR#Sereupin#Seroxat#Seroxat CR

>  <DrugBank ID>  (1) 
DB00715

>  <ATC Codes>  (1) 
N06AB05

>  <Ligand ID>  (1) 
8PR

>  <Target Name>  (1) 
Sodium-dependent serotonin transporter

>  <UniProt ID>  (1) 
P31645

>  <PDB ID.1>  (1) 
5I6X

>  <Seq. Identity>  (1) 
99%

$$$$
