PDB_DB00255_01
     RDKit          3D

108110  0  0  0  0  0  0  0  0999 V2000
    1.3854   -0.5705   -3.0444 C   0  0  0  0  0  0  0  0  0  0  0  0
    1.4231   -1.4593   -1.8862 C   0  0  0  0  0  0  0  0  0  0  0  0
    0.9240   -0.8514   -0.5459 C   0  0  0  0  0  0  0  0  0  0  0  0
    1.8154    0.3314   -0.2468 C   0  0  0  0  0  0  0  0  0  0  0  0
    3.2791   -0.0918   -0.2506 C   0  0  0  0  0  0  0  0  0  0  0  0
    4.2270    0.9851    0.1619 C   0  0  0  0  0  0  0  0  0  0  0  0
    3.5991    2.0321    1.0552 C   0  0  0  0  0  0  0  0  0  0  0  0
    4.6143    2.5727    1.8383 O   0  0  0  0  0  0  0  0  0  0  0  0
    2.6890    1.2285    1.9402 C   0  0  0  0  0  0  0  0  0  0  0  0
    1.4489    0.9331    1.0656 C   0  0  0  0  0  0  0  0  0  0  0  0
   -0.5301   -0.5859   -0.7763 C   0  0  0  0  0  0  0  0  0  0  0  0
   -1.4185   -0.0732    0.2367 C   0  0  0  0  0  0  0  0  0  0  0  0
   -1.7396   -0.8377    1.4656 C   0  0  0  0  0  0  0  0  0  0  0  0
   -3.1928   -0.6611    1.8952 C   0  0  0  0  0  0  0  0  0  0  0  0
   -3.6278    0.7692    1.8873 C   0  0  0  0  0  0  0  0  0  0  0  0
   -5.0398    0.7731    1.9052 O   0  0  0  0  0  0  0  0  0  0  0  0
   -3.1982    1.5725    0.7022 C   0  0  0  0  0  0  0  0  0  0  0  0
   -2.6976    0.4918   -0.3305 C   0  0  0  0  0  0  0  0  0  0  0  0
   -1.0601   -1.8397   -1.4381 C   0  0  0  0  0  0  0  0  0  0  0  0
   -2.5135   -1.9130   -1.7567 C   0  0  0  0  0  0  0  0  0  0  0  0
    1.3854   -0.5705   -3.0444 C   0  0  0  0  0  0  0  0  0  0  0  0
    1.4231   -1.4593   -1.8862 C   0  0  0  0  0  0  0  0  0  0  0  0
    0.9240   -0.8514   -0.5459 C   0  0  0  0  0  0  0  0  0  0  0  0
    1.8154    0.3314   -0.2468 C   0  0  0  0  0  0  0  0  0  0  0  0
    3.2791   -0.0918   -0.2506 C   0  0  0  0  0  0  0  0  0  0  0  0
    4.2270    0.9851    0.1619 C   0  0  0  0  0  0  0  0  0  0  0  0
    3.5991    2.0321    1.0552 C   0  0  0  0  0  0  0  0  0  0  0  0
    4.6143    2.5727    1.8383 O   0  0  0  0  0  0  0  0  0  0  0  0
    2.6890    1.2285    1.9402 C   0  0  0  0  0  0  0  0  0  0  0  0
    1.4489    0.9331    1.0656 C   0  0  0  0  0  0  0  0  0  0  0  0
   -0.5301   -0.5859   -0.7763 C   0  0  0  0  0  0  0  0  0  0  0  0
   -1.4185   -0.0732    0.2367 C   0  0  0  0  0  0  0  0  0  0  0  0
   -1.7396   -0.8377    1.4656 C   0  0  0  0  0  0  0  0  0  0  0  0
   -3.1928   -0.6611    1.8952 C   0  0  0  0  0  0  0  0  0  0  0  0
   -3.6278    0.7692    1.8873 C   0  0  0  0  0  0  0  0  0  0  0  0
   -5.0398    0.7731    1.9052 O   0  0  0  0  0  0  0  0  0  0  0  0
   -3.1982    1.5725    0.7022 C   0  0  0  0  0  0  0  0  0  0  0  0
   -2.6976    0.4918   -0.3305 C   0  0  0  0  0  0  0  0  0  0  0  0
   -1.0601   -1.8397   -1.4381 C   0  0  0  0  0  0  0  0  0  0  0  0
   -2.5135   -1.9130   -1.7567 C   0  0  0  0  0  0  0  0  0  0  0  0
    2.4474   -0.3228   -3.4245 H   0  0  0  0  0  0  0  0  0  0  0  0
    0.8316    0.3832   -2.9297 H   0  0  0  0  0  0  0  0  0  0  0  0
    0.9508   -1.0177   -3.9940 H   0  0  0  0  0  0  0  0  0  0  0  0
    2.4844   -1.8613   -1.6854 H   0  0  0  0  0  0  0  0  0  0  0  0
    0.8964   -2.3961   -2.0227 H   0  0  0  0  0  0  0  0  0  0  0  0
    1.0511   -1.6397    0.1792 H   0  0  0  0  0  0  0  0  0  0  0  0
    1.6896    1.0610   -1.0376 H   0  0  0  0  0  0  0  0  0  0  0  0
    3.5889   -0.3461   -1.2870 H   0  0  0  0  0  0  0  0  0  0  0  0
    3.4853   -0.9746    0.3632 H   0  0  0  0  0  0  0  0  0  0  0  0
    4.6714    1.5422   -0.6966 H   0  0  0  0  0  0  0  0  0  0  0  0
    5.0980    0.5789    0.7204 H   0  0  0  0  0  0  0  0  0  0  0  0
    3.0731    2.8114    0.4777 H   0  0  0  0  0  0  0  0  0  0  0  0
    4.7618    2.0567    2.6772 H   0  0  0  0  0  0  0  0  0  0  0  0
    2.3166    1.7905    2.7969 H   0  0  0  0  0  0  0  0  0  0  0  0
    3.1426    0.2650    2.1912 H   0  0  0  0  0  0  0  0  0  0  0  0
    0.9590    1.9233    1.0236 H   0  0  0  0  0  0  0  0  0  0  0  0
    0.8805    0.2804    1.7439 H   0  0  0  0  0  0  0  0  0  0  0  0
   -0.5643    0.1866   -1.6171 H   0  0  0  0  0  0  0  0  0  0  0  0
   -0.9605    0.9425    0.6365 H   0  0  0  0  0  0  0  0  0  0  0  0
   -1.5545   -1.9009    1.3289 H   0  0  0  0  0  0  0  0  0  0  0  0
   -1.1618   -0.4822    2.3337 H   0  0  0  0  0  0  0  0  0  0  0  0
   -3.8879   -1.3014    1.3252 H   0  0  0  0  0  0  0  0  0  0  0  0
   -3.2462   -1.0211    2.9446 H   0  0  0  0  0  0  0  0  0  0  0  0
   -3.3383    1.2744    2.8542 H   0  0  0  0  0  0  0  0  0  0  0  0
   -5.4110    0.9342    1.0028 H   0  0  0  0  0  0  0  0  0  0  0  0
   -2.4045    2.2913    0.9034 H   0  0  0  0  0  0  0  0  0  0  0  0
   -4.0294    2.0689    0.1682 H   0  0  0  0  0  0  0  0  0  0  0  0
   -2.5749    1.0059   -1.2868 H   0  0  0  0  0  0  0  0  0  0  0  0
   -3.5467   -0.1879   -0.3387 H   0  0  0  0  0  0  0  0  0  0  0  0
   -0.7561   -2.7707   -0.9699 H   0  0  0  0  0  0  0  0  0  0  0  0
   -0.6104   -1.8908   -2.5130 H   0  0  0  0  0  0  0  0  0  0  0  0
   -2.6708   -2.7856   -2.5227 H   0  0  0  0  0  0  0  0  0  0  0  0
   -3.1452   -2.2563   -0.9239 H   0  0  0  0  0  0  0  0  0  0  0  0
   -2.8530   -1.0469   -2.2990 H   0  0  0  0  0  0  0  0  0  0  0  0
    2.4474   -0.3228   -3.4245 H   0  0  0  0  0  0  0  0  0  0  0  0
    0.8316    0.3832   -2.9297 H   0  0  0  0  0  0  0  0  0  0  0  0
    0.9508   -1.0177   -3.9940 H   0  0  0  0  0  0  0  0  0  0  0  0
    2.4844   -1.8613   -1.6854 H   0  0  0  0  0  0  0  0  0  0  0  0
    0.8964   -2.3961   -2.0227 H   0  0  0  0  0  0  0  0  0  0  0  0
    1.0511   -1.6397    0.1792 H   0  0  0  0  0  0  0  0  0  0  0  0
    1.6896    1.0610   -1.0376 H   0  0  0  0  0  0  0  0  0  0  0  0
    3.5889   -0.3461   -1.2870 H   0  0  0  0  0  0  0  0  0  0  0  0
    3.4853   -0.9746    0.3632 H   0  0  0  0  0  0  0  0  0  0  0  0
    4.6714    1.5422   -0.6966 H   0  0  0  0  0  0  0  0  0  0  0  0
    5.0980    0.5789    0.7204 H   0  0  0  0  0  0  0  0  0  0  0  0
    3.0731    2.8114    0.4777 H   0  0  0  0  0  0  0  0  0  0  0  0
    4.7618    2.0567    2.6772 H   0  0  0  0  0  0  0  0  0  0  0  0
    2.3166    1.7905    2.7969 H   0  0  0  0  0  0  0  0  0  0  0  0
    3.1426    0.2650    2.1912 H   0  0  0  0  0  0  0  0  0  0  0  0
    0.9590    1.9233    1.0236 H   0  0  0  0  0  0  0  0  0  0  0  0
    0.8805    0.2804    1.7439 H   0  0  0  0  0  0  0  0  0  0  0  0
   -0.5643    0.1866   -1.6171 H   0  0  0  0  0  0  0  0  0  0  0  0
   -0.9605    0.9425    0.6365 H   0  0  0  0  0  0  0  0  0  0  0  0
   -1.5545   -1.9009    1.3289 H   0  0  0  0  0  0  0  0  0  0  0  0
   -1.1618   -0.4822    2.3337 H   0  0  0  0  0  0  0  0  0  0  0  0
   -3.8879   -1.3014    1.3252 H   0  0  0  0  0  0  0  0  0  0  0  0
   -3.2462   -1.0211    2.9446 H   0  0  0  0  0  0  0  0  0  0  0  0
   -3.3383    1.2744    2.8542 H   0  0  0  0  0  0  0  0  0  0  0  0
   -5.4110    0.9342    1.0028 H   0  0  0  0  0  0  0  0  0  0  0  0
   -2.4045    2.2913    0.9034 H   0  0  0  0  0  0  0  0  0  0  0  0
   -4.0294    2.0689    0.1682 H   0  0  0  0  0  0  0  0  0  0  0  0
   -2.5749    1.0059   -1.2868 H   0  0  0  0  0  0  0  0  0  0  0  0
   -3.5467   -0.1879   -0.3387 H   0  0  0  0  0  0  0  0  0  0  0  0
   -0.7561   -2.7707   -0.9699 H   0  0  0  0  0  0  0  0  0  0  0  0
   -0.6104   -1.8908   -2.5130 H   0  0  0  0  0  0  0  0  0  0  0  0
   -2.6708   -2.7856   -2.5227 H   0  0  0  0  0  0  0  0  0  0  0  0
   -3.1452   -2.2563   -0.9239 H   0  0  0  0  0  0  0  0  0  0  0  0
   -2.8530   -1.0469   -2.2990 H   0  0  0  0  0  0  0  0  0  0  0  0
  1  2  1  0
  2  3  1  0
  3  4  1  0
  4  5  1  0
  5  6  1  0
  6  7  1  0
  7  8  1  0
  7  9  1  0
  4 10  1  0
  9 10  1  0
  3 11  1  0
 11 12  1  0
 12 13  1  0
 13 14  1  0
 14 15  1  0
 15 16  1  0
 15 17  1  0
 12 18  1  0
 17 18  1  0
 11 19  1  0
 19 20  1  0
 21 22  1  0
 22 23  1  0
 23 24  1  0
 24 25  1  0
 25 26  1  0
 26 27  1  0
 27 28  1  0
 27 29  1  0
 24 30  1  0
 29 30  1  0
 23 31  1  0
 31 32  1  0
 32 33  1  0
 33 34  1  0
 34 35  1  0
 35 36  1  0
 35 37  1  0
 32 38  1  0
 37 38  1  0
 31 39  1  0
 39 40  1  0
  1 41  1  0
  1 42  1  0
  1 43  1  0
  2 44  1  0
  2 45  1  0
  3 46  1  0
  4 47  1  0
  5 48  1  0
  5 49  1  0
  6 50  1  0
  6 51  1  0
  7 52  1  0
  8 53  1  0
  9 54  1  0
  9 55  1  0
 10 56  1  0
 10 57  1  0
 11 58  1  0
 12 59  1  0
 13 60  1  0
 13 61  1  0
 14 62  1  0
 14 63  1  0
 15 64  1  0
 16 65  1  0
 17 66  1  0
 17 67  1  0
 18 68  1  0
 18 69  1  0
 19 70  1  0
 19 71  1  0
 20 72  1  0
 20 73  1  0
 20 74  1  0
 21 75  1  0
 21 76  1  0
 21 77  1  0
 22 78  1  0
 22 79  1  0
 23 80  1  0
 24 81  1  0
 25 82  1  0
 25 83  1  0
 26 84  1  0
 26 85  1  0
 27 86  1  0
 28 87  1  0
 29 88  1  0
 29 89  1  0
 30 90  1  0
 30 91  1  0
 31 92  1  0
 32 93  1  0
 33 94  1  0
 33 95  1  0
 34 96  1  0
 34 97  1  0
 35 98  1  0
 36 99  1  0
 37100  1  0
 37101  1  0
 38102  1  0
 38103  1  0
 39104  1  0
 39105  1  0
 40106  1  0
 40107  1  0
 40108  1  0
M  END
>  <PDBID>  (1) 
4ZN7

>  <PDB ID>  (1) 
4ZN7

>  <Generic Name>  (1) 
Diethylstilbestrol

>  <Brand Name>  (1) 
Honvol Ampoules 250mg#Honvol Tablets 100mg#Stilbestrol 0.5mg Tablet#Stilbestrol 1.0mg Tablet#Stilbestrol Tab 1mg#Stilbestrol Tablets 0.1 mg#Stilbestrol Tablets 0.5 mg#Stilbestrol Tablets 1.0 mg#Stilboestrol Tab 0.1mg#Stilboestrol Tab 0.5mg#Distilbene#Stilbestrol#Stilbetin

>  <DrugBank ID>  (1) 
DB00255

>  <ATC Codes>  (1) 
L02AA01#G03CC05#L02AA04#G03CB02

>  <Ligand ID>  (1) 
DES

>  <Target Name>  (1) 
Estrogen receptor

>  <UniProt ID>  (1) 
P03372

>  <PDB ID.1>  (1) 
4ZN7

>  <Seq. Identity>  (1) 
93%

$$$$
