PDB_DB00586_04
     RDKit          3D

176180  0  0  0  0  0  0  0  0999 V2000
    3.9665   -0.7702   -0.5596 C   0  0  0  0  0  0  0  0  0  0  0  0
    2.4765   -0.8555   -0.6163 C   0  0  2  0  0  0  0  0  0  0  0  0
    1.9391   -0.4630   -2.2989 Cl  0  0  0  0  0  0  0  0  0  0  0  0
    1.7463    0.0640    0.2785 C   0  0  0  0  0  0  0  0  0  0  0  0
    2.4815    1.4163    0.2891 C   0  0  0  0  0  0  0  0  0  0  0  0
    2.9889    1.8874   -1.3452 Cl  0  0  0  0  0  0  0  0  0  0  0  0
    3.7255    1.1120    1.1325 C   0  0  0  0  0  0  0  0  0  0  0  0
    4.6078    0.2269    0.2918 C   0  0  0  0  0  0  0  0  0  0  0  0
    0.3855    0.3132    0.0570 N   0  0  0  0  0  0  0  0  0  0  0  0
   -1.8841    0.0908    0.6593 C   0  0  2  0  0  0  0  0  0  0  0  0
   -0.6022   -0.6665    0.2732 C   0  0  1  0  0  0  0  0  0  0  0  0
   -0.8338   -1.5696   -0.8755 C   0  0  0  0  0  0  0  0  0  0  0  0
   -2.0358   -2.4770   -0.6937 C   0  0  0  0  0  0  0  0  0  0  0  0
   -2.6953   -2.2134    0.6306 C   0  0  0  0  0  0  0  0  0  0  0  0
   -3.1203   -0.7468    0.5909 C   0  0  0  0  0  0  0  0  0  0  0  0
   -2.0443    1.2323   -0.3156 C   0  0  0  0  0  0  0  0  0  0  0  0
   -3.3133    2.0009    0.0236 C   0  0  0  0  0  0  0  0  0  0  0  0
   -3.2249    2.4951    1.3132 O   0  0  0  0  0  0  0  0  0  0  0  0
   -3.4714    3.0157   -0.8980 O   0  0  0  0  0  0  0  0  0  0  0  0
    3.9665   -0.7702   -0.5596 C   0  0  0  0  0  0  0  0  0  0  0  0
    2.4765   -0.8555   -0.6163 C   0  0  2  0  0  0  0  0  0  0  0  0
    1.9391   -0.4630   -2.2989 Cl  0  0  0  0  0  0  0  0  0  0  0  0
    1.7463    0.0640    0.2785 C   0  0  0  0  0  0  0  0  0  0  0  0
    2.4815    1.4163    0.2891 C   0  0  0  0  0  0  0  0  0  0  0  0
    2.9889    1.8874   -1.3452 Cl  0  0  0  0  0  0  0  0  0  0  0  0
    3.7255    1.1120    1.1325 C   0  0  0  0  0  0  0  0  0  0  0  0
    4.6078    0.2269    0.2918 C   0  0  0  0  0  0  0  0  0  0  0  0
    0.3855    0.3132    0.0570 N   0  0  0  0  0  0  0  0  0  0  0  0
   -1.8841    0.0908    0.6593 C   0  0  2  0  0  0  0  0  0  0  0  0
   -0.6022   -0.6665    0.2732 C   0  0  1  0  0  0  0  0  0  0  0  0
   -0.8338   -1.5696   -0.8755 C   0  0  0  0  0  0  0  0  0  0  0  0
   -2.0358   -2.4770   -0.6937 C   0  0  0  0  0  0  0  0  0  0  0  0
   -2.6953   -2.2134    0.6306 C   0  0  0  0  0  0  0  0  0  0  0  0
   -3.1203   -0.7468    0.5909 C   0  0  0  0  0  0  0  0  0  0  0  0
   -2.0443    1.2323   -0.3156 C   0  0  0  0  0  0  0  0  0  0  0  0
   -3.3133    2.0009    0.0236 C   0  0  0  0  0  0  0  0  0  0  0  0
   -3.2249    2.4951    1.3132 O   0  0  0  0  0  0  0  0  0  0  0  0
   -3.4714    3.0157   -0.8980 O   0  0  0  0  0  0  0  0  0  0  0  0
    3.9665   -0.7702   -0.5596 C   0  0  0  0  0  0  0  0  0  0  0  0
    2.4765   -0.8555   -0.6163 C   0  0  2  0  0  0  0  0  0  0  0  0
    1.9391   -0.4630   -2.2989 Cl  0  0  0  0  0  0  0  0  0  0  0  0
    1.7463    0.0640    0.2785 C   0  0  0  0  0  0  0  0  0  0  0  0
    2.4815    1.4163    0.2891 C   0  0  0  0  0  0  0  0  0  0  0  0
    2.9889    1.8874   -1.3452 Cl  0  0  0  0  0  0  0  0  0  0  0  0
    3.7255    1.1120    1.1325 C   0  0  0  0  0  0  0  0  0  0  0  0
    4.6078    0.2269    0.2918 C   0  0  0  0  0  0  0  0  0  0  0  0
    0.3855    0.3132    0.0570 N   0  0  0  0  0  0  0  0  0  0  0  0
   -1.8841    0.0908    0.6593 C   0  0  2  0  0  0  0  0  0  0  0  0
   -0.6022   -0.6665    0.2732 C   0  0  1  0  0  0  0  0  0  0  0  0
   -0.8338   -1.5696   -0.8755 C   0  0  0  0  0  0  0  0  0  0  0  0
   -2.0358   -2.4770   -0.6937 C   0  0  0  0  0  0  0  0  0  0  0  0
   -2.6953   -2.2134    0.6306 C   0  0  0  0  0  0  0  0  0  0  0  0
   -3.1203   -0.7468    0.5909 C   0  0  0  0  0  0  0  0  0  0  0  0
   -2.0443    1.2323   -0.3156 C   0  0  0  0  0  0  0  0  0  0  0  0
   -3.3133    2.0009    0.0236 C   0  0  0  0  0  0  0  0  0  0  0  0
   -3.2249    2.4951    1.3132 O   0  0  0  0  0  0  0  0  0  0  0  0
   -3.4714    3.0157   -0.8980 O   0  0  0  0  0  0  0  0  0  0  0  0
    3.9665   -0.7702   -0.5596 C   0  0  0  0  0  0  0  0  0  0  0  0
    2.4765   -0.8555   -0.6163 C   0  0  2  0  0  0  0  0  0  0  0  0
    1.9391   -0.4630   -2.2989 Cl  0  0  0  0  0  0  0  0  0  0  0  0
    1.7463    0.0640    0.2785 C   0  0  0  0  0  0  0  0  0  0  0  0
    2.4815    1.4163    0.2891 C   0  0  0  0  0  0  0  0  0  0  0  0
    2.9889    1.8874   -1.3452 Cl  0  0  0  0  0  0  0  0  0  0  0  0
    3.7255    1.1120    1.1325 C   0  0  0  0  0  0  0  0  0  0  0  0
    4.6078    0.2269    0.2918 C   0  0  0  0  0  0  0  0  0  0  0  0
    0.3855    0.3132    0.0570 N   0  0  0  0  0  0  0  0  0  0  0  0
   -1.8841    0.0908    0.6593 C   0  0  2  0  0  0  0  0  0  0  0  0
   -0.6022   -0.6665    0.2732 C   0  0  1  0  0  0  0  0  0  0  0  0
   -0.8338   -1.5696   -0.8755 C   0  0  0  0  0  0  0  0  0  0  0  0
   -2.0358   -2.4770   -0.6937 C   0  0  0  0  0  0  0  0  0  0  0  0
   -2.6953   -2.2134    0.6306 C   0  0  0  0  0  0  0  0  0  0  0  0
   -3.1203   -0.7468    0.5909 C   0  0  0  0  0  0  0  0  0  0  0  0
   -2.0443    1.2323   -0.3156 C   0  0  0  0  0  0  0  0  0  0  0  0
   -3.3133    2.0009    0.0236 C   0  0  0  0  0  0  0  0  0  0  0  0
   -3.2249    2.4951    1.3132 O   0  0  0  0  0  0  0  0  0  0  0  0
   -3.4714    3.0157   -0.8980 O   0  0  0  0  0  0  0  0  0  0  0  0
    4.3639   -1.7994   -0.3045 H   0  0  0  0  0  0  0  0  0  0  0  0
    4.3351   -0.6367   -1.6264 H   0  0  0  0  0  0  0  0  0  0  0  0
    2.1549   -1.8865   -0.4319 H   0  0  0  0  0  0  0  0  0  0  0  0
    1.8519   -0.3151    1.3547 H   0  0  0  0  0  0  0  0  0  0  0  0
    1.8394    2.1549    0.7682 H   0  0  0  0  0  0  0  0  0  0  0  0
    3.4190    0.5588    2.0684 H   0  0  0  0  0  0  0  0  0  0  0  0
    4.2121    2.0541    1.3691 H   0  0  0  0  0  0  0  0  0  0  0  0
    5.2770    0.9352   -0.2925 H   0  0  0  0  0  0  0  0  0  0  0  0
    5.3352   -0.2548    1.0127 H   0  0  0  0  0  0  0  0  0  0  0  0
    0.2292    0.7786   -0.8799 H   0  0  0  0  0  0  0  0  0  0  0  0
   -1.7471    0.4966    1.6793 H   0  0  0  0  0  0  0  0  0  0  0  0
   -0.3537   -1.2680    1.1911 H   0  0  0  0  0  0  0  0  0  0  0  0
   -0.9573   -0.9476   -1.8033 H   0  0  0  0  0  0  0  0  0  0  0  0
    0.0311   -2.2295   -1.0231 H   0  0  0  0  0  0  0  0  0  0  0  0
   -1.7312   -3.5527   -0.7641 H   0  0  0  0  0  0  0  0  0  0  0  0
   -2.7577   -2.2438   -1.4838 H   0  0  0  0  0  0  0  0  0  0  0  0
   -3.5970   -2.8543    0.7600 H   0  0  0  0  0  0  0  0  0  0  0  0
   -1.9609   -2.3925    1.4359 H   0  0  0  0  0  0  0  0  0  0  0  0
   -3.5972   -0.6022   -0.4295 H   0  0  0  0  0  0  0  0  0  0  0  0
   -3.8505   -0.5567    1.4179 H   0  0  0  0  0  0  0  0  0  0  0  0
   -1.1990    1.9721   -0.1955 H   0  0  0  0  0  0  0  0  0  0  0  0
   -2.1069    0.8130   -1.3262 H   0  0  0  0  0  0  0  0  0  0  0  0
   -4.1978    1.3056   -0.0702 H   0  0  0  0  0  0  0  0  0  0  0  0
   -3.2690    3.4660    1.2896 H   0  0  0  0  0  0  0  0  0  0  0  0
   -2.8157    2.9127   -1.6531 H   0  0  0  0  0  0  0  0  0  0  0  0
    4.3639   -1.7994   -0.3045 H   0  0  0  0  0  0  0  0  0  0  0  0
    4.3351   -0.6367   -1.6264 H   0  0  0  0  0  0  0  0  0  0  0  0
    2.1549   -1.8865   -0.4319 H   0  0  0  0  0  0  0  0  0  0  0  0
    1.8519   -0.3151    1.3547 H   0  0  0  0  0  0  0  0  0  0  0  0
    1.8394    2.1549    0.7682 H   0  0  0  0  0  0  0  0  0  0  0  0
    3.4190    0.5588    2.0684 H   0  0  0  0  0  0  0  0  0  0  0  0
    4.2121    2.0541    1.3691 H   0  0  0  0  0  0  0  0  0  0  0  0
    5.2770    0.9352   -0.2925 H   0  0  0  0  0  0  0  0  0  0  0  0
    5.3352   -0.2548    1.0127 H   0  0  0  0  0  0  0  0  0  0  0  0
    0.2292    0.7786   -0.8799 H   0  0  0  0  0  0  0  0  0  0  0  0
   -1.7471    0.4966    1.6793 H   0  0  0  0  0  0  0  0  0  0  0  0
   -0.3537   -1.2680    1.1911 H   0  0  0  0  0  0  0  0  0  0  0  0
   -0.9573   -0.9476   -1.8033 H   0  0  0  0  0  0  0  0  0  0  0  0
    0.0311   -2.2295   -1.0231 H   0  0  0  0  0  0  0  0  0  0  0  0
   -1.7312   -3.5527   -0.7641 H   0  0  0  0  0  0  0  0  0  0  0  0
   -2.7577   -2.2438   -1.4838 H   0  0  0  0  0  0  0  0  0  0  0  0
   -3.5970   -2.8543    0.7600 H   0  0  0  0  0  0  0  0  0  0  0  0
   -1.9609   -2.3925    1.4359 H   0  0  0  0  0  0  0  0  0  0  0  0
   -3.5972   -0.6022   -0.4295 H   0  0  0  0  0  0  0  0  0  0  0  0
   -3.8505   -0.5567    1.4179 H   0  0  0  0  0  0  0  0  0  0  0  0
   -1.1990    1.9721   -0.1955 H   0  0  0  0  0  0  0  0  0  0  0  0
   -2.1069    0.8130   -1.3262 H   0  0  0  0  0  0  0  0  0  0  0  0
   -4.1978    1.3056   -0.0702 H   0  0  0  0  0  0  0  0  0  0  0  0
   -3.2690    3.4660    1.2896 H   0  0  0  0  0  0  0  0  0  0  0  0
   -2.8157    2.9127   -1.6531 H   0  0  0  0  0  0  0  0  0  0  0  0
    4.3639   -1.7994   -0.3045 H   0  0  0  0  0  0  0  0  0  0  0  0
    4.3351   -0.6367   -1.6264 H   0  0  0  0  0  0  0  0  0  0  0  0
    2.1549   -1.8865   -0.4319 H   0  0  0  0  0  0  0  0  0  0  0  0
    1.8519   -0.3151    1.3547 H   0  0  0  0  0  0  0  0  0  0  0  0
    1.8394    2.1549    0.7682 H   0  0  0  0  0  0  0  0  0  0  0  0
    3.4190    0.5588    2.0684 H   0  0  0  0  0  0  0  0  0  0  0  0
    4.2121    2.0541    1.3691 H   0  0  0  0  0  0  0  0  0  0  0  0
    5.2770    0.9352   -0.2925 H   0  0  0  0  0  0  0  0  0  0  0  0
    5.3352   -0.2548    1.0127 H   0  0  0  0  0  0  0  0  0  0  0  0
    0.2292    0.7786   -0.8799 H   0  0  0  0  0  0  0  0  0  0  0  0
   -1.7471    0.4966    1.6793 H   0  0  0  0  0  0  0  0  0  0  0  0
   -0.3537   -1.2680    1.1911 H   0  0  0  0  0  0  0  0  0  0  0  0
   -0.9573   -0.9476   -1.8033 H   0  0  0  0  0  0  0  0  0  0  0  0
    0.0311   -2.2295   -1.0231 H   0  0  0  0  0  0  0  0  0  0  0  0
   -1.7312   -3.5527   -0.7641 H   0  0  0  0  0  0  0  0  0  0  0  0
   -2.7577   -2.2438   -1.4838 H   0  0  0  0  0  0  0  0  0  0  0  0
   -3.5970   -2.8543    0.7600 H   0  0  0  0  0  0  0  0  0  0  0  0
   -1.9609   -2.3925    1.4359 H   0  0  0  0  0  0  0  0  0  0  0  0
   -3.5972   -0.6022   -0.4295 H   0  0  0  0  0  0  0  0  0  0  0  0
   -3.8505   -0.5567    1.4179 H   0  0  0  0  0  0  0  0  0  0  0  0
   -1.1990    1.9721   -0.1955 H   0  0  0  0  0  0  0  0  0  0  0  0
   -2.1069    0.8130   -1.3262 H   0  0  0  0  0  0  0  0  0  0  0  0
   -4.1978    1.3056   -0.0702 H   0  0  0  0  0  0  0  0  0  0  0  0
   -3.2690    3.4660    1.2896 H   0  0  0  0  0  0  0  0  0  0  0  0
   -2.8157    2.9127   -1.6531 H   0  0  0  0  0  0  0  0  0  0  0  0
    4.3639   -1.7994   -0.3045 H   0  0  0  0  0  0  0  0  0  0  0  0
    4.3351   -0.6367   -1.6264 H   0  0  0  0  0  0  0  0  0  0  0  0
    2.1549   -1.8865   -0.4319 H   0  0  0  0  0  0  0  0  0  0  0  0
    1.8519   -0.3151    1.3547 H   0  0  0  0  0  0  0  0  0  0  0  0
    1.8394    2.1549    0.7682 H   0  0  0  0  0  0  0  0  0  0  0  0
    3.4190    0.5588    2.0684 H   0  0  0  0  0  0  0  0  0  0  0  0
    4.2121    2.0541    1.3691 H   0  0  0  0  0  0  0  0  0  0  0  0
    5.2770    0.9352   -0.2925 H   0  0  0  0  0  0  0  0  0  0  0  0
    5.3352   -0.2548    1.0127 H   0  0  0  0  0  0  0  0  0  0  0  0
    0.2292    0.7786   -0.8799 H   0  0  0  0  0  0  0  0  0  0  0  0
   -1.7471    0.4966    1.6793 H   0  0  0  0  0  0  0  0  0  0  0  0
   -0.3537   -1.2680    1.1911 H   0  0  0  0  0  0  0  0  0  0  0  0
   -0.9573   -0.9476   -1.8033 H   0  0  0  0  0  0  0  0  0  0  0  0
    0.0311   -2.2295   -1.0231 H   0  0  0  0  0  0  0  0  0  0  0  0
   -1.7312   -3.5527   -0.7641 H   0  0  0  0  0  0  0  0  0  0  0  0
   -2.7577   -2.2438   -1.4838 H   0  0  0  0  0  0  0  0  0  0  0  0
   -3.5970   -2.8543    0.7600 H   0  0  0  0  0  0  0  0  0  0  0  0
   -1.9609   -2.3925    1.4359 H   0  0  0  0  0  0  0  0  0  0  0  0
   -3.5972   -0.6022   -0.4295 H   0  0  0  0  0  0  0  0  0  0  0  0
   -3.8505   -0.5567    1.4179 H   0  0  0  0  0  0  0  0  0  0  0  0
   -1.1990    1.9721   -0.1955 H   0  0  0  0  0  0  0  0  0  0  0  0
   -2.1069    0.8130   -1.3262 H   0  0  0  0  0  0  0  0  0  0  0  0
   -4.1978    1.3056   -0.0702 H   0  0  0  0  0  0  0  0  0  0  0  0
   -3.2690    3.4660    1.2896 H   0  0  0  0  0  0  0  0  0  0  0  0
   -2.8157    2.9127   -1.6531 H   0  0  0  0  0  0  0  0  0  0  0  0
  1  2  1  0
  2  3  1  0
  2  4  1  0
  4  5  1  0
  5  6  1  0
  5  7  1  0
  1  8  1  0
  7  8  1  0
  4  9  1  0
  9 11  1  0
 10 11  1  0
 11 12  1  0
 12 13  1  0
 13 14  1  0
 10 15  1  0
 14 15  1  0
 10 16  1  0
 16 17  1  0
 17 18  1  0
 17 19  1  0
 20 21  1  0
 21 22  1  0
 21 23  1  0
 23 24  1  0
 24 25  1  0
 24 26  1  0
 20 27  1  0
 26 27  1  0
 23 28  1  0
 28 30  1  0
 29 30  1  0
 30 31  1  0
 31 32  1  0
 32 33  1  0
 29 34  1  0
 33 34  1  0
 29 35  1  0
 35 36  1  0
 36 37  1  0
 36 38  1  0
 39 40  1  0
 40 41  1  0
 40 42  1  0
 42 43  1  0
 43 44  1  0
 43 45  1  0
 39 46  1  0
 45 46  1  0
 42 47  1  0
 47 49  1  0
 48 49  1  0
 49 50  1  0
 50 51  1  0
 51 52  1  0
 48 53  1  0
 52 53  1  0
 48 54  1  0
 54 55  1  0
 55 56  1  0
 55 57  1  0
 58 59  1  0
 59 60  1  0
 59 61  1  0
 61 62  1  0
 62 63  1  0
 62 64  1  0
 58 65  1  0
 64 65  1  0
 61 66  1  0
 66 68  1  0
 67 68  1  0
 68 69  1  0
 69 70  1  0
 70 71  1  0
 67 72  1  0
 71 72  1  0
 67 73  1  0
 73 74  1  0
 74 75  1  0
 74 76  1  0
  1 77  1  0
  1 78  1  0
  2 79  1  1
  4 80  1  0
  5 81  1  0
  7 82  1  0
  7 83  1  0
  8 84  1  0
  8 85  1  0
  9 86  1  0
 10 87  1  1
 11 88  1  1
 12 89  1  0
 12 90  1  0
 13 91  1  0
 13 92  1  0
 14 93  1  0
 14 94  1  0
 15 95  1  0
 15 96  1  0
 16 97  1  0
 16 98  1  0
 17 99  1  0
 18100  1  0
 19101  1  0
 20102  1  0
 20103  1  0
 21104  1  1
 23105  1  0
 24106  1  0
 26107  1  0
 26108  1  0
 27109  1  0
 27110  1  0
 28111  1  0
 29112  1  1
 30113  1  1
 31114  1  0
 31115  1  0
 32116  1  0
 32117  1  0
 33118  1  0
 33119  1  0
 34120  1  0
 34121  1  0
 35122  1  0
 35123  1  0
 36124  1  0
 37125  1  0
 38126  1  0
 39127  1  0
 39128  1  0
 40129  1  1
 42130  1  0
 43131  1  0
 45132  1  0
 45133  1  0
 46134  1  0
 46135  1  0
 47136  1  0
 48137  1  1
 49138  1  1
 50139  1  0
 50140  1  0
 51141  1  0
 51142  1  0
 52143  1  0
 52144  1  0
 53145  1  0
 53146  1  0
 54147  1  0
 54148  1  0
 55149  1  0
 56150  1  0
 57151  1  0
 58152  1  0
 58153  1  0
 59154  1  1
 61155  1  0
 62156  1  0
 64157  1  0
 64158  1  0
 65159  1  0
 65160  1  0
 66161  1  0
 67162  1  1
 68163  1  1
 69164  1  0
 69165  1  0
 70166  1  0
 70167  1  0
 71168  1  0
 71169  1  0
 72170  1  0
 72171  1  0
 73172  1  0
 73173  1  0
 74174  1  0
 75175  1  0
 76176  1  0
M  END
>  <PDBID>  (1) 
1PXX

>  <PDB ID>  (1) 
1PXX

>  <Generic Name>  (1) 
Diclofenac

>  <Brand Name>  (1) 
Act Diclo-miso#Apo-diclo#Apo-diclo Rapide 50 Mg Tablets#Apo-diclo SR#Apo-diclofenac#Apo-diclofenac Ophthalmic#Arthrotec#Arthrotec 50#Arthrotec 75#Ava-diclofenac#Ava-diclofenac SR#Cambia#Cataflam#Diclo Gel 1% With Xrylix Sheets#Diclofenac#Diclofenac EC#Diclofenac Ect 25mg#Diclofenac Ect 50mg#Diclofenac K#Diclofenac Misoprostol#Diclofenac Potassium#Diclofenac Potassium for Oral Solution#Diclofenac SR#Diclofenac Sodium#Diclofenac Sodium 3 Percent#Diclofenac Sodium D/r#Diclofenac Sodium Delayed Release#Diclofenac Sodium Delayed Release Delayed Release#Diclofenac Sodium Dr#Diclofenac Sodium Extended-release#Diclofenac Sodium and Misoprostol#Diclofenac Sodium and Misoprostol Delayed-release#Diclofenac Topical Solution#Diclofenac-SR#Diclotec#Diclozor#Dipentocaine Topical Cream Compounding Kit#Dom-diclofenac#Dom-diclofenac-SR#Dyloject#Flector#Gapeam Budibac#Gd-diclofenac/misoprostol 50#Gd-diclofenac/misoprostol 75#Infla-eze#Klofensaid II#Lexixryl#Ntp-diclofenac Potassium#Ntp-diclofenac Sodium#Ntp-diclofenac Sodium SR#Nu-diclo Enteric Coated Tab 25mg#Nu-diclo Enteric Coated Tab 50mg#Nu-diclo Rapide#Nu-diclo SR - Srt 100mg#Nu-diclo SR - Srt 75mg#PMS-diclofenac#PMS-diclofenac K#PMS-diclofenac-SR#PMS-diclofenac-misoprostol#Pennsaid#Penta-diclofenac - 25mg#Penta-diclofenac - 50mg#Previdolrx Analgesic Pak#Previdolrx Plus Analgesic Pak#Pro-diclo Rapide - 50#Rho-diclofenac#Riva-diclofenac 100mg SR Tablets#Riva-diclofenac 50mg Tablets#Riva-diclofenac 75mg SR Tablets#Riva-diclofenac-K 50mg Tablets#Sandoz Diclofenac#Sandoz Diclofenac Misoprostol#Sandoz Diclofenac Ophtha#Sandoz-diclofenac#Sandoz-diclofenac Rapide#Sandoz-diclofenac SR#Solaraze#Taro-diclofenac#Taro-diclofenac Tab 25mg#Taro-diclofenac Tab 50mg#Teva-diclofenac#Teva-diclofenac EC#Teva-diclofenac SR#Teva-diclofenac-K#Vofenal 0.1%#Voltaren#Voltaren Emulgel#Voltaren Emulgel Extra Strength#Voltaren Emulgel Joint Pain#Voltaren Ophtha#Voltaren Rapide Tablets 50mg#Voltaren SR 75 Tab#Voltaren SR Tab 100mg#Voltaren Sup 100mg#Voltaren Sup 50mg#Voltaren Tab 25mg#Voltaren Tab 50mg#Voltaren XR#Xrylix#Zipsor#Zorvolex#Aclonac#Allvoran#Ecofenac#Effekton#Nu-Diclo#Primofenac#Prophenatin#Rhumalgan#Voltaren Emulgel#Voltarol

>  <DrugBank ID>  (1) 
DB00586

>  <ATC Codes>  (1) 
M01AB05#S01BC03#M01AB55#M02AA15#D11AX18#S01CC01

>  <Ligand ID>  (1) 
DIF

>  <Target Name>  (1) 
Prostaglandin G/H synthase 1

>  <UniProt ID>  (1) 
P23219

>  <PDB ID.1>  (1) 
1PXX

>  <Seq. Identity>  (1) 
61%

$$$$
