PDB_DB00696_08
     RDKit          3D

100107  0  0  0  0  0  0  0  0999 V2000
    7.9807   -0.0288    1.0834 C   0  0  0  0  0  0  0  0  0  0  0  0
    8.1855    1.4318    1.1587 N   0  0  0  0  0  0  0  0  0  0  0  0
    1.5463   -2.4356    2.0556 O   0  0  0  0  0  0  0  0  0  0  0  0
    4.5618    2.5935   -0.6340 C   0  0  0  0  0  0  0  0  0  0  0  0
    5.6708    3.6528   -0.5580 C   0  0  0  0  0  0  0  0  0  0  0  0
    6.9939    3.0895   -0.1933 C   0  0  0  0  0  0  0  0  0  0  0  0
    6.9254    2.0488    0.9044 C   0  0  0  0  0  0  0  0  0  0  0  0
    5.9940    0.9808    0.4724 C   0  0  0  0  0  0  0  0  0  0  0  0
    3.4382   -2.3572   -2.4334 C   0  0  0  0  0  0  0  0  0  0  0  0
    1.6854   -1.2586    1.3520 C   0  0  0  0  0  0  0  0  0  0  0  0
   -0.5939   -0.8003    0.9349 C   0  0  2  0  0  0  0  0  0  0  0  0
   -1.3374    0.2766    0.1730 C   0  0  0  0  0  0  0  0  0  0  0  0
   -3.7491    0.1406    0.3780 C   0  0  2  0  0  0  0  0  0  0  0  0
    4.1605   -2.2597   -1.1921 N   0  0  0  0  0  0  0  0  0  0  0  0
    6.9756   -0.1093   -0.0024 C   0  0  0  0  0  0  0  0  0  0  0  0
   -1.3554   -1.9373    0.8972 O   0  0  0  0  0  0  0  0  0  0  0  0
   -4.5593   -0.8866    1.1169 C   0  0  0  0  0  0  0  0  0  0  0  0
   -5.7243   -2.4744   -0.2582 C   0  0  0  0  0  0  0  0  0  0  0  0
   -5.2912   -3.6900   -1.0093 C   0  0  0  0  0  0  0  0  0  0  0  0
   -3.8172   -3.4348   -1.2434 C   0  0  0  0  0  0  0  0  0  0  0  0
   -3.4122   -2.6918    0.0156 C   0  0  1  0  0  0  0  0  0  0  0  0
   -2.2933   -1.7498   -0.1517 C   0  0  1  0  0  0  0  0  0  0  0  0
   -0.4871   -0.3783    2.4035 C   0  0  0  0  0  0  0  0  0  0  0  0
   -4.5330    0.7462   -0.7760 C   0  0  0  0  0  0  0  0  0  0  0  0
   -5.8137    1.3751   -0.3685 C   0  0  0  0  0  0  0  0  0  0  0  0
   -5.7052    2.4874    0.6316 C   0  0  0  0  0  0  0  0  0  0  0  0
    6.1746   -1.3500   -0.1176 C   0  0  0  0  0  0  0  0  0  0  0  0
    0.6944   -1.0357    0.3618 N   0  0  0  0  0  0  0  0  0  0  0  0
   -0.6232    0.7680   -0.9172 O   0  0  0  0  0  0  0  0  0  0  0  0
   -7.0057    3.2545    0.7122 C   0  0  0  0  0  0  0  0  0  0  0  0
   -8.1379    2.5701   -0.0216 C   0  0  0  0  0  0  0  0  0  0  0  0
   -7.8439    2.3576   -1.4731 C   0  0  0  0  0  0  0  0  0  0  0  0
   -6.3753    2.0375   -1.6431 C   0  0  0  0  0  0  0  0  0  0  0  0
    5.0690   -1.1599   -1.1142 C   0  0  2  0  0  0  0  0  0  0  0  0
   -2.5570   -0.3665   -0.1941 N   0  0  0  0  0  0  0  0  0  0  0  0
   -4.0990   -0.9440    2.4307 O   0  0  0  0  0  0  0  0  0  0  0  0
    3.3176   -2.4335   -0.0411 C   0  0  0  0  0  0  0  0  0  0  0  0
   -4.6106   -2.1740    0.5687 N   0  0  0  0  0  0  0  0  0  0  0  0
   -1.6086   -2.1032   -1.3168 O   0  0  0  0  0  0  0  0  0  0  0  0
    3.1033   -1.2291    0.7984 C   0  0  1  0  0  0  0  0  0  0  0  0
    3.1860    0.0629    0.0047 C   0  0  0  0  0  0  0  0  0  0  0  0
    4.2988    0.1092   -0.9888 C   0  0  1  0  0  0  0  0  0  0  0  0
    5.2225    1.2901   -0.7845 C   0  0  0  0  0  0  0  0  0  0  0  0
    8.9409   -0.5115    0.9015 H   0  0  0  0  0  0  0  0  0  0  0  0
    7.4981   -0.3058    2.0380 H   0  0  0  0  0  0  0  0  0  0  0  0
    8.5855    1.7045    2.0836 H   0  0  0  0  0  0  0  0  0  0  0  0
    1.0119   -3.0635    1.5111 H   0  0  0  0  0  0  0  0  0  0  0  0
    3.8574    2.8108   -1.4721 H   0  0  0  0  0  0  0  0  0  0  0  0
    3.9741    2.7245    0.2923 H   0  0  0  0  0  0  0  0  0  0  0  0
    5.7520    4.0686   -1.6070 H   0  0  0  0  0  0  0  0  0  0  0  0
    5.3642    4.5139    0.0734 H   0  0  0  0  0  0  0  0  0  0  0  0
    7.5519    2.6802   -1.0718 H   0  0  0  0  0  0  0  0  0  0  0  0
    7.6212    3.9243    0.2005 H   0  0  0  0  0  0  0  0  0  0  0  0
    6.4981    2.5760    1.8072 H   0  0  0  0  0  0  0  0  0  0  0  0
    5.3734    0.6244    1.2984 H   0  0  0  0  0  0  0  0  0  0  0  0
    2.6706   -3.1642   -2.2717 H   0  0  0  0  0  0  0  0  0  0  0  0
    2.8730   -1.4321   -2.6307 H   0  0  0  0  0  0  0  0  0  0  0  0
    4.1180   -2.6674   -3.2307 H   0  0  0  0  0  0  0  0  0  0  0  0
    1.6556   -0.3752    2.0782 H   0  0  0  0  0  0  0  0  0  0  0  0
   -1.5077    1.1338    0.8745 H   0  0  0  0  0  0  0  0  0  0  0  0
   -3.5166    0.9589    1.0722 H   0  0  0  0  0  0  0  0  0  0  0  0
    7.3548    0.1700   -0.9950 H   0  0  0  0  0  0  0  0  0  0  0  0
   -5.6062   -0.5066    1.2047 H   0  0  0  0  0  0  0  0  0  0  0  0
   -6.0859   -1.6633   -0.9051 H   0  0  0  0  0  0  0  0  0  0  0  0
   -6.6007   -2.7423    0.3979 H   0  0  0  0  0  0  0  0  0  0  0  0
   -5.8405   -3.7542   -1.9686 H   0  0  0  0  0  0  0  0  0  0  0  0
   -5.4484   -4.6075   -0.4057 H   0  0  0  0  0  0  0  0  0  0  0  0
   -3.3189   -4.4262   -1.3095 H   0  0  0  0  0  0  0  0  0  0  0  0
   -3.6174   -2.8737   -2.1522 H   0  0  0  0  0  0  0  0  0  0  0  0
   -3.0811   -3.5091    0.7264 H   0  0  0  0  0  0  0  0  0  0  0  0
   -1.5462   -0.2140    2.7395 H   0  0  0  0  0  0  0  0  0  0  0  0
   -0.0974   -1.1753    3.0158 H   0  0  0  0  0  0  0  0  0  0  0  0
   -0.0004    0.6147    2.4971 H   0  0  0  0  0  0  0  0  0  0  0  0
   -4.6621    0.0946   -1.6320 H   0  0  0  0  0  0  0  0  0  0  0  0
   -3.8779    1.5925   -1.1491 H   0  0  0  0  0  0  0  0  0  0  0  0
   -6.6119    0.6437   -0.0947 H   0  0  0  0  0  0  0  0  0  0  0  0
   -4.8435    3.1231    0.3666 H   0  0  0  0  0  0  0  0  0  0  0  0
   -5.5021    2.1161    1.6608 H   0  0  0  0  0  0  0  0  0  0  0  0
    6.8610   -2.1317   -0.5737 H   0  0  0  0  0  0  0  0  0  0  0  0
    5.8846   -1.7839    0.8367 H   0  0  0  0  0  0  0  0  0  0  0  0
    0.6478   -1.8287   -0.3057 H   0  0  0  0  0  0  0  0  0  0  0  0
   -0.6665    1.7692   -0.9341 H   0  0  0  0  0  0  0  0  0  0  0  0
   -7.3569    3.3759    1.7593 H   0  0  0  0  0  0  0  0  0  0  0  0
   -6.8440    4.2569    0.2307 H   0  0  0  0  0  0  0  0  0  0  0  0
   -9.0029    3.2677    0.0273 H   0  0  0  0  0  0  0  0  0  0  0  0
   -8.4066    1.6247    0.4548 H   0  0  0  0  0  0  0  0  0  0  0  0
   -8.4215    1.5417   -1.9242 H   0  0  0  0  0  0  0  0  0  0  0  0
   -8.0567    3.2827   -2.0454 H   0  0  0  0  0  0  0  0  0  0  0  0
   -5.8235    2.9799   -1.7810 H   0  0  0  0  0  0  0  0  0  0  0  0
   -6.1726    1.3883   -2.5134 H   0  0  0  0  0  0  0  0  0  0  0  0
    5.5779   -1.1238   -2.1251 H   0  0  0  0  0  0  0  0  0  0  0  0
   -4.4315   -1.6994    2.9381 H   0  0  0  0  0  0  0  0  0  0  0  0
    2.3811   -2.9265   -0.3621 H   0  0  0  0  0  0  0  0  0  0  0  0
    3.8267   -3.1972    0.6226 H   0  0  0  0  0  0  0  0  0  0  0  0
   -1.4896   -1.3581   -1.9452 H   0  0  0  0  0  0  0  0  0  0  0  0
    3.7681   -1.1811    1.7008 H   0  0  0  0  0  0  0  0  0  0  0  0
    2.1750    0.1787   -0.4903 H   0  0  0  0  0  0  0  0  0  0  0  0
    3.2236    0.8798    0.7538 H   0  0  0  0  0  0  0  0  0  0  0  0
    3.8242    0.2903   -1.9990 H   0  0  0  0  0  0  0  0  0  0  0  0
    5.9162    1.3271   -1.6458 H   0  0  0  0  0  0  0  0  0  0  0  0
  1  2  1  0
  4  5  1  0
  5  6  1  0
  2  7  1  0
  6  7  1  0
  7  8  1  0
  3 10  1  0
 11 12  1  0
  9 14  1  0
  1 15  1  0
  8 15  1  0
 11 16  1  0
 13 17  1  0
 18 19  1  0
 19 20  1  0
 20 21  1  0
 16 22  1  0
 21 22  1  0
 11 23  1  0
 13 24  1  0
 24 25  1  0
 25 26  1  0
 15 27  1  0
 10 28  1  0
 11 28  1  6
 12 29  1  0
 26 30  1  0
 30 31  1  0
 31 32  1  0
 25 33  1  0
 32 33  1  0
 14 34  1  0
 27 34  1  0
 12 35  1  0
 13 35  1  0
 22 35  1  0
 17 36  1  0
 14 37  1  0
 17 38  1  0
 18 38  1  0
 21 38  1  0
 22 39  1  6
 10 40  1  0
 37 40  1  0
 40 41  1  0
 34 42  1  0
 41 42  1  0
  4 43  1  0
  8 43  1  0
 42 43  1  0
  1 44  1  0
  1 45  1  0
  2 46  1  0
  3 47  1  0
  4 48  1  0
  4 49  1  0
  5 50  1  0
  5 51  1  0
  6 52  1  0
  6 53  1  0
  7 54  1  0
  8 55  1  0
  9 56  1  0
  9 57  1  0
  9 58  1  0
 10 59  1  0
 12 60  1  0
 13 61  1  1
 15 62  1  0
 17 63  1  0
 18 64  1  0
 18 65  1  0
 19 66  1  0
 19 67  1  0
 20 68  1  0
 20 69  1  0
 21 70  1  1
 23 71  1  0
 23 72  1  0
 23 73  1  0
 24 74  1  0
 24 75  1  0
 25 76  1  0
 26 77  1  0
 26 78  1  0
 27 79  1  0
 27 80  1  0
 28 81  1  0
 29 82  1  0
 30 83  1  0
 30 84  1  0
 31 85  1  0
 31 86  1  0
 32 87  1  0
 32 88  1  0
 33 89  1  0
 33 90  1  0
 34 91  1  6
 36 92  1  0
 37 93  1  0
 37 94  1  0
 39 95  1  0
 40 96  1  1
 41 97  1  0
 41 98  1  0
 42 99  1  6
 43100  1  0
M  END
>  <PDBID>  (1) 
4IB4

>  <PDB ID>  (1) 
4IB4

>  <Generic Name>  (1) 
Ergotamine

>  <Brand Name>  (1) 
Cafergot#Cafergot Sup#Cafergot Tab#Ergodryl Cap#Ergomar#Ergomar Slt 2mg#Ergomar Sublingual#Ergotamine#Ergotamine Tartrate and Caffeine#Gravergol Capsules#Megral Tabs#Migergot#Anervan#Antimigraine#Enxak#Ergam#Ergo-Kranit#Gynaemine#Wigrettes

>  <DrugBank ID>  (1) 
DB00696

>  <ATC Codes>  (1) 
N02CA52#N02CA72#N02CA02

>  <Ligand ID>  (1) 
ERM

>  <Target Name>  (1) 
5-hydroxytryptamine receptor 2A

>  <UniProt ID>  (1) 
P28223

>  <PDB ID.1>  (1) 
4IB4

>  <Seq. Identity>  (1) 
58%

$$$$
