PDB_DB00820_05
     RDKit          3D

132142  0  0  0  0  0  0  0  0999 V2000
   -3.2267   -3.7081   -0.6734 C   0  0  0  0  0  0  0  0  0  0  0  0
   -4.1882   -2.6026   -1.0840 C   0  0  0  0  0  0  0  0  0  0  0  0
   -3.8884   -1.3025   -0.3237 C   0  0  0  0  0  0  0  0  0  0  0  0
   -2.4684   -1.3493    0.0720 C   0  0  0  0  0  0  0  0  0  0  0  0
   -1.7297   -0.0699    0.1896 C   0  0  0  0  0  0  0  0  0  0  0  0
   -0.3084   -0.6855    0.2289 C   0  0  0  0  0  0  0  0  0  0  0  0
   -0.3217   -1.3882   -0.9806 N   0  0  0  0  0  0  0  0  0  0  0  0
   -1.6780   -1.9126   -1.1255 C   0  0  0  0  0  0  0  0  0  0  0  0
   -1.7957   -3.3846   -1.1316 C   0  0  0  0  0  0  0  0  0  0  0  0
    0.6707    0.3393    0.5641 C   0  0  2  0  0  0  0  0  0  0  0  0
    0.0811    1.6557    0.2766 N   0  0  0  0  0  0  0  0  0  0  0  0
    1.0429    2.7145    0.5095 C   0  0  0  0  0  0  0  0  0  0  0  0
    1.4657    2.5695    1.8525 O   0  0  0  0  0  0  0  0  0  0  0  0
    0.4546    4.0768    0.3572 C   0  0  0  0  0  0  0  0  0  0  0  0
   -0.9313    4.2124    0.4799 N   0  0  0  0  0  0  0  0  0  0  0  0
   -1.7183    3.1002    0.8147 C   0  0  0  0  0  0  0  0  0  0  0  0
   -2.7019    3.4387    1.7717 O   0  0  0  0  0  0  0  0  0  0  0  0
   -0.9582    1.9140    1.2955 C   0  0  1  0  0  0  0  0  0  0  0  0
   -1.8749    0.7034    1.4290 C   0  0  0  0  0  0  0  0  0  0  0  0
   -1.5425    5.1277   -0.4604 C   0  0  0  0  0  0  0  0  0  0  0  0
    2.0785    0.1939    0.1653 C   0  0  0  0  0  0  0  0  0  0  0  0
    2.4583    0.1374   -1.2545 C   0  0  0  0  0  0  0  0  0  0  0  0
    3.0033   -1.2075   -1.7181 C   0  0  0  0  0  0  0  0  0  0  0  0
    4.2159   -1.5677   -0.9044 C   0  0  0  0  0  0  0  0  0  0  0  0
    4.4308   -2.9227   -0.8744 O   0  0  0  0  0  0  0  0  0  0  0  0
    4.6224   -3.3023    0.4410 C   0  0  0  0  0  0  0  0  0  0  0  0
    4.7072   -2.1700    1.2131 O   0  0  0  0  0  0  0  0  0  0  0  0
    4.0726   -1.1368    0.5385 C   0  0  0  0  0  0  0  0  0  0  0  0
    2.5803   -1.1053    0.8365 C   0  0  0  0  0  0  0  0  0  0  0  0
   -3.2267   -3.7081   -0.6734 C   0  0  0  0  0  0  0  0  0  0  0  0
   -4.1882   -2.6026   -1.0840 C   0  0  0  0  0  0  0  0  0  0  0  0
   -3.8884   -1.3025   -0.3237 C   0  0  0  0  0  0  0  0  0  0  0  0
   -2.4684   -1.3493    0.0720 C   0  0  0  0  0  0  0  0  0  0  0  0
   -1.7297   -0.0699    0.1896 C   0  0  0  0  0  0  0  0  0  0  0  0
   -0.3084   -0.6855    0.2289 C   0  0  0  0  0  0  0  0  0  0  0  0
   -0.3217   -1.3882   -0.9806 N   0  0  0  0  0  0  0  0  0  0  0  0
   -1.6780   -1.9126   -1.1255 C   0  0  0  0  0  0  0  0  0  0  0  0
   -1.7957   -3.3846   -1.1316 C   0  0  0  0  0  0  0  0  0  0  0  0
    0.6707    0.3393    0.5641 C   0  0  2  0  0  0  0  0  0  0  0  0
    0.0811    1.6557    0.2766 N   0  0  0  0  0  0  0  0  0  0  0  0
    1.0429    2.7145    0.5095 C   0  0  0  0  0  0  0  0  0  0  0  0
    1.4657    2.5695    1.8525 O   0  0  0  0  0  0  0  0  0  0  0  0
    0.4546    4.0768    0.3572 C   0  0  0  0  0  0  0  0  0  0  0  0
   -0.9313    4.2124    0.4799 N   0  0  0  0  0  0  0  0  0  0  0  0
   -1.7183    3.1002    0.8147 C   0  0  0  0  0  0  0  0  0  0  0  0
   -2.7019    3.4387    1.7717 O   0  0  0  0  0  0  0  0  0  0  0  0
   -0.9582    1.9140    1.2955 C   0  0  1  0  0  0  0  0  0  0  0  0
   -1.8749    0.7034    1.4290 C   0  0  0  0  0  0  0  0  0  0  0  0
   -1.5425    5.1277   -0.4604 C   0  0  0  0  0  0  0  0  0  0  0  0
    2.0785    0.1939    0.1653 C   0  0  0  0  0  0  0  0  0  0  0  0
    2.4583    0.1374   -1.2545 C   0  0  0  0  0  0  0  0  0  0  0  0
    3.0033   -1.2075   -1.7181 C   0  0  0  0  0  0  0  0  0  0  0  0
    4.2159   -1.5677   -0.9044 C   0  0  0  0  0  0  0  0  0  0  0  0
    4.4308   -2.9227   -0.8744 O   0  0  0  0  0  0  0  0  0  0  0  0
    4.6224   -3.3023    0.4410 C   0  0  0  0  0  0  0  0  0  0  0  0
    4.7072   -2.1700    1.2131 O   0  0  0  0  0  0  0  0  0  0  0  0
    4.0726   -1.1368    0.5385 C   0  0  0  0  0  0  0  0  0  0  0  0
    2.5803   -1.1053    0.8365 C   0  0  0  0  0  0  0  0  0  0  0  0
   -3.1954   -3.8434    0.4155 H   0  0  0  0  0  0  0  0  0  0  0  0
   -3.5375   -4.6091   -1.2158 H   0  0  0  0  0  0  0  0  0  0  0  0
   -5.1997   -2.9707   -0.8599 H   0  0  0  0  0  0  0  0  0  0  0  0
   -4.0677   -2.4591   -2.1703 H   0  0  0  0  0  0  0  0  0  0  0  0
   -4.1502   -0.4199   -0.9241 H   0  0  0  0  0  0  0  0  0  0  0  0
   -4.5306   -1.3412    0.5937 H   0  0  0  0  0  0  0  0  0  0  0  0
   -2.3195   -2.0215    0.9422 H   0  0  0  0  0  0  0  0  0  0  0  0
   -1.8578    0.5030   -0.7462 H   0  0  0  0  0  0  0  0  0  0  0  0
   -0.4093   -1.4650    1.0495 H   0  0  0  0  0  0  0  0  0  0  0  0
   -0.1258   -0.9057   -1.8571 H   0  0  0  0  0  0  0  0  0  0  0  0
   -2.1940   -1.4986   -2.0287 H   0  0  0  0  0  0  0  0  0  0  0  0
   -1.0847   -3.9058   -0.4672 H   0  0  0  0  0  0  0  0  0  0  0  0
   -1.6934   -3.7456   -2.1785 H   0  0  0  0  0  0  0  0  0  0  0  0
    0.7124    0.3671    1.7066 H   0  0  0  0  0  0  0  0  0  0  0  0
    1.9408    2.6652   -0.1032 H   0  0  0  0  0  0  0  0  0  0  0  0
    1.2052    3.3482    2.3878 H   0  0  0  0  0  0  0  0  0  0  0  0
    0.7682    4.5106   -0.6387 H   0  0  0  0  0  0  0  0  0  0  0  0
    0.9558    4.7519    1.1053 H   0  0  0  0  0  0  0  0  0  0  0  0
   -2.3038    2.7751   -0.0941 H   0  0  0  0  0  0  0  0  0  0  0  0
   -2.3753    3.0995    2.6537 H   0  0  0  0  0  0  0  0  0  0  0  0
   -0.4644    2.1629    2.2519 H   0  0  0  0  0  0  0  0  0  0  0  0
   -2.9053    1.0039    1.6967 H   0  0  0  0  0  0  0  0  0  0  0  0
   -1.4631    0.1112    2.2793 H   0  0  0  0  0  0  0  0  0  0  0  0
   -2.3050    5.7494    0.0493 H   0  0  0  0  0  0  0  0  0  0  0  0
   -1.9793    4.6078   -1.3373 H   0  0  0  0  0  0  0  0  0  0  0  0
   -0.7703    5.8165   -0.8652 H   0  0  0  0  0  0  0  0  0  0  0  0
    2.6869    0.9741    0.6935 H   0  0  0  0  0  0  0  0  0  0  0  0
    3.3602    0.8151   -1.4344 H   0  0  0  0  0  0  0  0  0  0  0  0
    1.7279    0.5505   -1.9853 H   0  0  0  0  0  0  0  0  0  0  0  0
    2.2748   -2.0067   -1.7599 H   0  0  0  0  0  0  0  0  0  0  0  0
    3.3425   -1.0291   -2.7807 H   0  0  0  0  0  0  0  0  0  0  0  0
    5.0779   -1.0170   -1.3395 H   0  0  0  0  0  0  0  0  0  0  0  0
    3.8062   -3.9293    0.8359 H   0  0  0  0  0  0  0  0  0  0  0  0
    5.5660   -3.8927    0.5224 H   0  0  0  0  0  0  0  0  0  0  0  0
    4.5118   -0.1580    0.7438 H   0  0  0  0  0  0  0  0  0  0  0  0
    2.3865   -0.9769    1.9187 H   0  0  0  0  0  0  0  0  0  0  0  0
    2.0571   -1.9844    0.4350 H   0  0  0  0  0  0  0  0  0  0  0  0
   -3.1954   -3.8434    0.4155 H   0  0  0  0  0  0  0  0  0  0  0  0
   -3.5375   -4.6091   -1.2158 H   0  0  0  0  0  0  0  0  0  0  0  0
   -5.1997   -2.9707   -0.8599 H   0  0  0  0  0  0  0  0  0  0  0  0
   -4.0677   -2.4591   -2.1703 H   0  0  0  0  0  0  0  0  0  0  0  0
   -4.1502   -0.4199   -0.9241 H   0  0  0  0  0  0  0  0  0  0  0  0
   -4.5306   -1.3412    0.5937 H   0  0  0  0  0  0  0  0  0  0  0  0
   -2.3195   -2.0215    0.9422 H   0  0  0  0  0  0  0  0  0  0  0  0
   -1.8578    0.5030   -0.7462 H   0  0  0  0  0  0  0  0  0  0  0  0
   -0.4093   -1.4650    1.0495 H   0  0  0  0  0  0  0  0  0  0  0  0
   -0.1258   -0.9057   -1.8571 H   0  0  0  0  0  0  0  0  0  0  0  0
   -2.1940   -1.4986   -2.0287 H   0  0  0  0  0  0  0  0  0  0  0  0
   -1.0847   -3.9058   -0.4672 H   0  0  0  0  0  0  0  0  0  0  0  0
   -1.6934   -3.7456   -2.1785 H   0  0  0  0  0  0  0  0  0  0  0  0
    0.7124    0.3671    1.7066 H   0  0  0  0  0  0  0  0  0  0  0  0
    1.9408    2.6652   -0.1032 H   0  0  0  0  0  0  0  0  0  0  0  0
    1.2052    3.3482    2.3878 H   0  0  0  0  0  0  0  0  0  0  0  0
    0.7682    4.5106   -0.6387 H   0  0  0  0  0  0  0  0  0  0  0  0
    0.9558    4.7519    1.1053 H   0  0  0  0  0  0  0  0  0  0  0  0
   -2.3038    2.7751   -0.0941 H   0  0  0  0  0  0  0  0  0  0  0  0
   -2.3753    3.0995    2.6537 H   0  0  0  0  0  0  0  0  0  0  0  0
   -0.4644    2.1629    2.2519 H   0  0  0  0  0  0  0  0  0  0  0  0
   -2.9053    1.0039    1.6967 H   0  0  0  0  0  0  0  0  0  0  0  0
   -1.4631    0.1112    2.2793 H   0  0  0  0  0  0  0  0  0  0  0  0
   -2.3050    5.7494    0.0493 H   0  0  0  0  0  0  0  0  0  0  0  0
   -1.9793    4.6078   -1.3373 H   0  0  0  0  0  0  0  0  0  0  0  0
   -0.7703    5.8165   -0.8652 H   0  0  0  0  0  0  0  0  0  0  0  0
    2.6869    0.9741    0.6935 H   0  0  0  0  0  0  0  0  0  0  0  0
    3.3602    0.8151   -1.4344 H   0  0  0  0  0  0  0  0  0  0  0  0
    1.7279    0.5505   -1.9853 H   0  0  0  0  0  0  0  0  0  0  0  0
    2.2748   -2.0067   -1.7599 H   0  0  0  0  0  0  0  0  0  0  0  0
    3.3425   -1.0291   -2.7807 H   0  0  0  0  0  0  0  0  0  0  0  0
    5.0779   -1.0170   -1.3395 H   0  0  0  0  0  0  0  0  0  0  0  0
    3.8062   -3.9293    0.8359 H   0  0  0  0  0  0  0  0  0  0  0  0
    5.5660   -3.8927    0.5224 H   0  0  0  0  0  0  0  0  0  0  0  0
    4.5118   -0.1580    0.7438 H   0  0  0  0  0  0  0  0  0  0  0  0
    2.3865   -0.9769    1.9187 H   0  0  0  0  0  0  0  0  0  0  0  0
    2.0571   -1.9844    0.4350 H   0  0  0  0  0  0  0  0  0  0  0  0
  1  2  1  0
  2  3  1  0
  3  4  1  0
  4  5  1  0
  5  6  1  0
  6  7  1  0
  4  8  1  0
  7  8  1  0
  1  9  1  0
  8  9  1  0
  6 10  1  0
 10 11  1  0
 11 12  1  0
 12 13  1  0
 12 14  1  0
 14 15  1  0
 15 16  1  0
 16 17  1  0
 11 18  1  0
 16 18  1  0
  5 19  1  0
 18 19  1  0
 15 20  1  0
 10 21  1  0
 21 22  1  0
 22 23  1  0
 23 24  1  0
 24 25  1  0
 25 26  1  0
 26 27  1  0
 24 28  1  0
 27 28  1  0
 21 29  1  0
 28 29  1  0
 30 31  1  0
 31 32  1  0
 32 33  1  0
 33 34  1  0
 34 35  1  0
 35 36  1  0
 33 37  1  0
 36 37  1  0
 30 38  1  0
 37 38  1  0
 35 39  1  0
 39 40  1  0
 40 41  1  0
 41 42  1  0
 41 43  1  0
 43 44  1  0
 44 45  1  0
 45 46  1  0
 40 47  1  0
 45 47  1  0
 34 48  1  0
 47 48  1  0
 44 49  1  0
 39 50  1  0
 50 51  1  0
 51 52  1  0
 52 53  1  0
 53 54  1  0
 54 55  1  0
 55 56  1  0
 53 57  1  0
 56 57  1  0
 50 58  1  0
 57 58  1  0
  1 59  1  0
  1 60  1  0
  2 61  1  0
  2 62  1  0
  3 63  1  0
  3 64  1  0
  4 65  1  0
  5 66  1  0
  6 67  1  0
  7 68  1  0
  8 69  1  0
  9 70  1  0
  9 71  1  0
 10 72  1  1
 12 73  1  0
 13 74  1  0
 14 75  1  0
 14 76  1  0
 16 77  1  0
 17 78  1  0
 18 79  1  1
 19 80  1  0
 19 81  1  0
 20 82  1  0
 20 83  1  0
 20 84  1  0
 21 85  1  0
 22 86  1  0
 22 87  1  0
 23 88  1  0
 23 89  1  0
 24 90  1  0
 26 91  1  0
 26 92  1  0
 28 93  1  0
 29 94  1  0
 29 95  1  0
 30 96  1  0
 30 97  1  0
 31 98  1  0
 31 99  1  0
 32100  1  0
 32101  1  0
 33102  1  0
 34103  1  0
 35104  1  0
 36105  1  0
 37106  1  0
 38107  1  0
 38108  1  0
 39109  1  1
 41110  1  0
 42111  1  0
 43112  1  0
 43113  1  0
 45114  1  0
 46115  1  0
 47116  1  1
 48117  1  0
 48118  1  0
 49119  1  0
 49120  1  0
 49121  1  0
 50122  1  0
 51123  1  0
 51124  1  0
 52125  1  0
 52126  1  0
 53127  1  0
 55128  1  0
 55129  1  0
 57130  1  0
 58131  1  0
 58132  1  0
M  END
>  <PDBID>  (1) 
1UDU

>  <PDB ID>  (1) 
1UDU

>  <Generic Name>  (1) 
Tadalafil

>  <Brand Name>  (1) 
Act Tadalafil#Adcirca#Apo-tadalafil#Apo-tadalafil Pah#Auro-tadalafil#Cialis#Dom-tadalafil#Ipg-tadalafil#Jamp-tadalafil#Mar-tadalafil#Mint-tadalafil#Mylan-tadalafil#PMS-tadalafil#Priva-tadalafil#Ran-tadalafil#Riva-tadalafil#Tadalafil#Teva-tadalafil

>  <DrugBank ID>  (1) 
DB00820

>  <ATC Codes>  (1) 
G04BE08

>  <Ligand ID>  (1) 
CIA

>  <Target Name>  (1) 
cGMP-specific 3',5'-cyclic phosphodiesterase

>  <UniProt ID>  (1) 
O76074

>  <PDB ID.1>  (1) 
1UDU

>  <Seq. Identity>  (1) 
94%

$$$$
