PDB_DB00513_00
     RDKit          3D

 25 24  0  0  0  0  0  0  0  0999 V2000
    2.6185    0.6518    0.3650 C   0  0  0  0  0  0  0  0  0  0  0  0
    2.8759    1.5699    1.3597 O   0  0  0  0  0  0  0  0  0  0  0  0
    3.4032   -0.4831    0.6411 O   0  0  0  0  0  0  0  0  0  0  0  0
    1.1183    0.2583    0.4153 C   0  0  0  0  0  0  0  0  0  0  0  0
    0.8599   -0.7244   -0.6554 C   0  0  0  0  0  0  0  0  0  0  0  0
   -0.4715   -1.2968   -0.8405 C   0  0  0  0  0  0  0  0  0  0  0  0
   -1.6207   -0.4432   -1.2090 C   0  0  0  0  0  0  0  0  0  0  0  0
   -2.0413    0.6514   -0.3146 C   0  0  0  0  0  0  0  0  0  0  0  0
   -2.3834    0.2606    1.0320 N   0  0  0  0  0  0  0  0  0  0  0  0
    1.0261   -0.2123    1.4387 H   0  0  0  0  0  0  0  0  0  0  0  0
    0.5552    1.1719    0.4524 H   0  0  0  0  0  0  0  0  0  0  0  0
    1.6634   -1.5281   -0.5532 H   0  0  0  0  0  0  0  0  0  0  0  0
    1.1573   -0.2452   -1.6449 H   0  0  0  0  0  0  0  0  0  0  0  0
   -0.3705   -2.0547   -1.6991 H   0  0  0  0  0  0  0  0  0  0  0  0
   -0.7364   -1.9264    0.0656 H   0  0  0  0  0  0  0  0  0  0  0  0
   -2.5237   -1.0490   -1.4995 H   0  0  0  0  0  0  0  0  0  0  0  0
   -1.3285    0.0662   -2.1937 H   0  0  0  0  0  0  0  0  0  0  0  0
   -1.4604    1.5595   -0.3532 H   0  0  0  0  0  0  0  0  0  0  0  0
   -3.0718    0.9855   -0.7507 H   0  0  0  0  0  0  0  0  0  0  0  0
   -3.2266    0.7484    1.4016 H   0  0  0  0  0  0  0  0  0  0  0  0
   -1.6065    0.4983    1.7171 H   0  0  0  0  0  0  0  0  0  0  0  0
   -2.5461   -0.7606    1.1393 H   0  0  0  0  0  0  0  0  0  0  0  0
    2.8621    0.9793   -0.6458 H   0  0  0  0  0  0  0  0  0  0  0  0
    2.4229    2.4275    1.2020 H   0  0  0  0  0  0  0  0  0  0  0  0
    2.8247   -1.1048    1.1300 H   0  0  0  0  0  0  0  0  0  0  0  0
  1  2  1  0
  1  3  1  0
  1  4  1  0
  4  5  1  0
  5  6  1  0
  6  7  1  0
  7  8  1  0
  8  9  1  0
  4 10  1  0
  4 11  1  0
  5 12  1  0
  5 13  1  0
  6 14  1  0
  6 15  1  0
  7 16  1  0
  7 17  1  0
  8 18  1  0
  8 19  1  0
  9 20  1  0
  9 21  1  0
 22  9  1  0
  1 23  1  0
  2 24  1  0
  3 25  1  0
M  CHG  1   9   1
M  END
>  <PDBID>  (1) 
1HPK

>  <PDB ID>  (1) 
1HPK

>  <Generic Name>  (1) 
Aminocaproic Acid

>  <Brand Name>  (1) 
Amicar#Aminocaproic Acid#Exoden White Tooth#Acepramin#Amocap#Caproamin#Caprocat#Caprolisin#E-Capro#Epsicaprom#Hemocid#Inselon#Ipron#Ipsilon#Kai Nai Yin#Minocap#Plaslloid#Resplamin

>  <DrugBank ID>  (1) 
DB00513

>  <ATC Codes>  (1) 
B02AA01

>  <Ligand ID>  (1) 
ACA

>  <Target Name>  (1) 
Plasminogen

>  <UniProt ID>  (1) 
P00747

>  <PDB ID.1>  (1) 
1HPK

>  <Seq. Identity>  (1) 
100%

$$$$
