PDB_DB00311_00
     RDKit          3D

 36 37  0  0  0  0  0  0  0  0999 V2000
   -4.9082   -0.9626   -2.0914 N   0  0  0  0  0  0  0  0  0  0  0  0
   -0.7796    0.2417    0.4941 C   0  0  2  0  0  0  0  0  0  0  0  0
   -0.0918    0.6098   -0.8333 C   0  0  1  0  0  0  0  0  0  0  0  0
    1.2022   -0.1101   -0.8553 C   0  0  0  0  0  0  0  0  0  0  0  0
    2.0126    0.1597    0.3887 C   0  0  0  0  0  0  0  0  0  0  0  0
    4.2621    0.1240    0.2661 C   0  0  0  0  0  0  0  0  0  0  0  0
   -4.5449    1.5063   -0.9913 O   0  0  0  0  0  0  0  0  0  0  0  0
   -5.1080   -0.6686    0.5081 O   0  0  0  0  0  0  0  0  0  0  0  0
   -4.1785   -0.1141   -1.0668 S   0  0  0  0  0  0  0  0  0  0  0  0
   -2.6415   -0.3434   -0.6078 C   0  0  0  0  0  0  0  0  0  0  0  0
   -2.1381    0.6160    0.3663 N   0  0  0  0  0  0  0  0  0  0  0  0
   -1.3636   -0.1955   -1.9004 S   0  0  0  0  0  0  0  0  0  0  0  0
    1.2715   -0.0890    1.6599 C   0  0  0  0  0  0  0  0  0  0  0  0
   -0.0187    0.7463    1.6422 C   0  0  0  0  0  0  0  0  0  0  0  0
    3.1228   -0.7011    0.3343 O   0  0  0  0  0  0  0  0  0  0  0  0
    5.5206   -0.7154    0.2034 C   0  0  0  0  0  0  0  0  0  0  0  0
   -5.3553   -0.6431   -2.9635 H   0  0  0  0  0  0  0  0  0  0  0  0
   -5.3137   -1.8874   -1.8243 H   0  0  0  0  0  0  0  0  0  0  0  0
   -0.7391   -0.8873    0.5114 H   0  0  0  0  0  0  0  0  0  0  0  0
   -0.0564    1.6849   -0.9949 H   0  0  0  0  0  0  0  0  0  0  0  0
    1.0567   -1.1694   -1.0727 H   0  0  0  0  0  0  0  0  0  0  0  0
    1.8101    0.3060   -1.7118 H   0  0  0  0  0  0  0  0  0  0  0  0
    2.3073    1.2242    0.3649 H   0  0  0  0  0  0  0  0  0  0  0  0
    4.2119    0.7680   -0.6342 H   0  0  0  0  0  0  0  0  0  0  0  0
    4.2749    0.7475    1.1645 H   0  0  0  0  0  0  0  0  0  0  0  0
   -4.5698    1.8155   -0.0352 H   0  0  0  0  0  0  0  0  0  0  0  0
   -4.6139   -0.1159    1.1389 H   0  0  0  0  0  0  0  0  0  0  0  0
   -2.4463   -1.3550   -0.1416 H   0  0  0  0  0  0  0  0  0  0  0  0
   -2.1899    1.5791   -0.0635 H   0  0  0  0  0  0  0  0  0  0  0  0
    0.9223   -1.1607    1.6590 H   0  0  0  0  0  0  0  0  0  0  0  0
    1.9017    0.1541    2.5070 H   0  0  0  0  0  0  0  0  0  0  0  0
    0.3223    1.8055    1.5249 H   0  0  0  0  0  0  0  0  0  0  0  0
   -0.5617    0.5800    2.5714 H   0  0  0  0  0  0  0  0  0  0  0  0
    5.3603   -1.4737   -0.6009 H   0  0  0  0  0  0  0  0  0  0  0  0
    6.3495   -0.0373   -0.0939 H   0  0  0  0  0  0  0  0  0  0  0  0
    5.7104   -1.2145    1.1776 H   0  0  0  0  0  0  0  0  0  0  0  0
  2  3  1  0
  3  4  1  0
  4  5  1  0
  1  9  1  0
  9  7  1  0
  8  9  1  0
  9 10  1  0
  2 11  1  0
 10 11  1  0
  3 12  1  0
 10 12  1  0
  5 13  1  0
  2 14  1  0
 13 14  1  0
  5 15  1  0
  6 15  1  0
  6 16  1  0
  1 17  1  0
  1 18  1  0
  2 19  1  1
  3 20  1  6
  4 21  1  0
  4 22  1  0
  5 23  1  0
  6 24  1  0
  6 25  1  0
  7 26  1  0
  8 27  1  0
 10 28  1  0
 11 29  1  0
 13 30  1  0
 13 31  1  0
 14 32  1  0
 14 33  1  0
 16 34  1  0
 16 35  1  0
 16 36  1  0
M  END
>  <PDBID>  (1) 
3DD0

>  <PDB ID>  (1) 
3DD0

>  <Generic Name>  (1) 
Ethoxzolamide

>  <Brand Name>  (1) 
Cardrase#Ethamide

>  <DrugBank ID>  (1) 
DB00311

>  <ATC Codes>  (1) 
nan

>  <Ligand ID>  (1) 
EZL

>  <Target Name>  (1) 
Carbonic anhydrase 1

>  <UniProt ID>  (1) 
P00915

>  <PDB ID.1>  (1) 
3DD0

>  <Seq. Identity>  (1) 
61%

$$$$
