PDB_DB00224_05
     RDKit          3D

114118  0  0  0  0  0  0  0  0999 V2000
    4.2935   -1.1089    0.1347 N   0  0  0  0  0  0  0  0  0  0  0  0
    3.5539   -0.5790   -0.9530 C   0  0  0  0  0  0  0  0  0  0  0  0
    3.0755    0.8522   -0.6846 C   0  0  1  0  0  0  0  0  0  0  0  0
    2.6252    1.4653   -1.9596 C   0  0  0  0  0  0  0  0  0  0  0  0
    1.6147    0.6800   -2.5021 O   0  0  0  0  0  0  0  0  0  0  0  0
    3.5212    1.8154   -2.9444 N   0  0  0  0  0  0  0  0  0  0  0  0
    4.4997    2.7978   -2.8057 C   0  0  0  0  0  0  0  0  0  0  0  0
    3.9033    4.2024   -2.5633 C   0  0  0  0  0  0  0  0  0  0  0  0
    5.1315    2.9309   -4.1951 C   0  0  0  0  0  0  0  0  0  0  0  0
    5.6284    2.5533   -1.8567 C   0  0  0  0  0  0  0  0  0  0  0  0
    2.0841    0.7678    0.3409 N   0  0  0  0  0  0  0  0  0  0  0  0
    2.2485   -0.2729    1.2941 C   0  0  0  0  0  0  0  0  0  0  0  0
    3.4567   -1.1167    1.2881 C   0  0  0  0  0  0  0  0  0  0  0  0
    0.7082    0.8556   -0.0980 C   0  0  0  0  0  0  0  0  0  0  0  0
   -0.1771    1.0514    1.1208 C   0  0  1  0  0  0  0  0  0  0  0  0
    0.2327    2.2815    1.6821 O   0  0  0  0  0  0  0  0  0  0  0  0
   -1.6284    1.1125    0.8121 C   0  0  0  0  0  0  0  0  0  0  0  0
   -2.1715   -0.1514    0.1967 C   0  0  1  0  0  0  0  0  0  0  0  0
   -2.0008   -1.3292    1.1050 C   0  0  0  0  0  0  0  0  0  0  0  0
   -2.5315   -2.5901    0.5276 C   0  0  0  0  0  0  0  0  0  0  0  0
   -2.2859   -3.7170    1.5412 C   0  0  0  0  0  0  0  0  0  0  0  0
   -3.0700   -4.9090    1.1114 C   0  0  0  0  0  0  0  0  0  0  0  0
   -2.8710   -5.3080   -0.3267 C   0  0  0  0  0  0  0  0  0  0  0  0
   -2.7731   -4.1689   -1.2861 C   0  0  0  0  0  0  0  0  0  0  0  0
   -1.9133   -3.0199   -0.7577 C   0  0  0  0  0  0  0  0  0  0  0  0
   -3.5842   -0.0220   -0.3179 C   0  0  2  0  0  0  0  0  0  0  0  0
   -3.6898    0.9355   -1.3095 O   0  0  0  0  0  0  0  0  0  0  0  0
   -4.4384    0.1639    0.7848 N   0  0  0  0  0  0  0  0  0  0  0  0
   -5.7907    0.4203    0.6182 C   0  0  2  0  0  0  0  0  0  0  0  0
   -6.6481   -0.6241   -0.0422 C   0  0  2  0  0  0  0  0  0  0  0  0
   -6.4096   -0.7647   -1.4082 O   0  0  0  0  0  0  0  0  0  0  0  0
   -8.0161    0.0803    0.0490 C   0  0  0  0  0  0  0  0  0  0  0  0
   -7.7001    1.5566   -0.1175 C   0  0  0  0  0  0  0  0  0  0  0  0
   -8.2789    2.3719    1.0165 C   0  0  0  0  0  0  0  0  0  0  0  0
   -8.0182    3.8205    0.7433 C   0  0  0  0  0  0  0  0  0  0  0  0
   -6.5707    4.0800    0.3950 C   0  0  0  0  0  0  0  0  0  0  0  0
   -5.7289    2.8519    0.6653 C   0  0  0  0  0  0  0  0  0  0  0  0
   -6.1664    1.6622   -0.1316 C   0  0  0  0  0  0  0  0  0  0  0  0
    5.6025   -0.5648    0.3460 C   0  0  0  0  0  0  0  0  0  0  0  0
    6.3820   -1.2969    1.4109 C   0  0  0  0  0  0  0  0  0  0  0  0
    6.5568   -2.7656    0.9998 C   0  0  0  0  0  0  0  0  0  0  0  0
    7.8194   -3.2983    1.4352 N   0  0  0  0  0  0  0  0  0  0  0  0
    8.1042   -2.7415    2.7503 C   0  0  0  0  0  0  0  0  0  0  0  0
    8.4863   -1.2917    2.6575 C   0  0  0  0  0  0  0  0  0  0  0  0
    7.7655   -0.6891    1.4694 C   0  0  0  0  0  0  0  0  0  0  0  0
    2.7239   -1.2350   -1.2456 H   0  0  0  0  0  0  0  0  0  0  0  0
    4.2346   -0.4933   -1.8491 H   0  0  0  0  0  0  0  0  0  0  0  0
    3.9538    1.3502   -0.2295 H   0  0  0  0  0  0  0  0  0  0  0  0
    2.0966    2.4308   -1.6502 H   0  0  0  0  0  0  0  0  0  0  0  0
    1.6216    0.7156   -3.4930 H   0  0  0  0  0  0  0  0  0  0  0  0
    3.1356    1.7399   -3.8974 H   0  0  0  0  0  0  0  0  0  0  0  0
    3.3172    4.4512   -3.4718 H   0  0  0  0  0  0  0  0  0  0  0  0
    4.7277    4.9370   -2.4936 H   0  0  0  0  0  0  0  0  0  0  0  0
    3.3322    4.2589   -1.6376 H   0  0  0  0  0  0  0  0  0  0  0  0
    6.1118    3.4564   -4.1329 H   0  0  0  0  0  0  0  0  0  0  0  0
    5.3534    1.9183   -4.6169 H   0  0  0  0  0  0  0  0  0  0  0  0
    4.4408    3.4164   -4.9214 H   0  0  0  0  0  0  0  0  0  0  0  0
    5.4325    3.1011   -0.8837 H   0  0  0  0  0  0  0  0  0  0  0  0
    6.5911    3.0417   -2.2039 H   0  0  0  0  0  0  0  0  0  0  0  0
    5.8802    1.4986   -1.7214 H   0  0  0  0  0  0  0  0  0  0  0  0
    2.0135    0.1464    2.3112 H   0  0  0  0  0  0  0  0  0  0  0  0
    1.3696   -0.9817    1.1170 H   0  0  0  0  0  0  0  0  0  0  0  0
    3.1150   -2.2073    1.3755 H   0  0  0  0  0  0  0  0  0  0  0  0
    3.9981   -0.9786    2.2567 H   0  0  0  0  0  0  0  0  0  0  0  0
    0.5023    1.6689   -0.8168 H   0  0  0  0  0  0  0  0  0  0  0  0
    0.4467   -0.0991   -0.5770 H   0  0  0  0  0  0  0  0  0  0  0  0
    0.0890    0.2968    1.8716 H   0  0  0  0  0  0  0  0  0  0  0  0
    0.1336    2.9436    0.9214 H   0  0  0  0  0  0  0  0  0  0  0  0
   -1.7741    1.9705    0.1048 H   0  0  0  0  0  0  0  0  0  0  0  0
   -2.2061    1.3531    1.7212 H   0  0  0  0  0  0  0  0  0  0  0  0
   -1.5469   -0.3569   -0.7144 H   0  0  0  0  0  0  0  0  0  0  0  0
   -2.5833   -1.1273    2.0411 H   0  0  0  0  0  0  0  0  0  0  0  0
   -0.9249   -1.4827    1.3298 H   0  0  0  0  0  0  0  0  0  0  0  0
   -3.6604   -2.5483    0.4684 H   0  0  0  0  0  0  0  0  0  0  0  0
   -1.1986   -3.9120    1.5934 H   0  0  0  0  0  0  0  0  0  0  0  0
   -2.6333   -3.4282    2.5488 H   0  0  0  0  0  0  0  0  0  0  0  0
   -2.7002   -5.7777    1.7346 H   0  0  0  0  0  0  0  0  0  0  0  0
   -4.1400   -4.7954    1.3849 H   0  0  0  0  0  0  0  0  0  0  0  0
   -3.7868   -5.9008   -0.6160 H   0  0  0  0  0  0  0  0  0  0  0  0
   -2.0142   -6.0044   -0.4703 H   0  0  0  0  0  0  0  0  0  0  0  0
   -2.2930   -4.5483   -2.2255 H   0  0  0  0  0  0  0  0  0  0  0  0
   -3.7477   -3.7425   -1.5779 H   0  0  0  0  0  0  0  0  0  0  0  0
   -1.8997   -2.2279   -1.5330 H   0  0  0  0  0  0  0  0  0  0  0  0
   -0.8755   -3.3051   -0.5904 H   0  0  0  0  0  0  0  0  0  0  0  0
   -3.8217   -0.9906   -0.8056 H   0  0  0  0  0  0  0  0  0  0  0  0
   -3.3647    1.8198   -1.1104 H   0  0  0  0  0  0  0  0  0  0  0  0
   -4.0534    0.5114    1.6613 H   0  0  0  0  0  0  0  0  0  0  0  0
   -6.2385    0.5432    1.6507 H   0  0  0  0  0  0  0  0  0  0  0  0
   -6.6833   -1.5907    0.5022 H   0  0  0  0  0  0  0  0  0  0  0  0
   -7.2263   -0.6408   -1.9613 H   0  0  0  0  0  0  0  0  0  0  0  0
   -8.4299   -0.0715    1.0639 H   0  0  0  0  0  0  0  0  0  0  0  0
   -8.7148   -0.2871   -0.7020 H   0  0  0  0  0  0  0  0  0  0  0  0
   -8.1370    1.8836   -1.0673 H   0  0  0  0  0  0  0  0  0  0  0  0
   -9.3805    2.2002    0.9713 H   0  0  0  0  0  0  0  0  0  0  0  0
   -7.8662    2.0520    1.9931 H   0  0  0  0  0  0  0  0  0  0  0  0
   -8.3318    4.4465    1.6217 H   0  0  0  0  0  0  0  0  0  0  0  0
   -8.6472    4.1615   -0.1126 H   0  0  0  0  0  0  0  0  0  0  0  0
   -6.4213    4.3614   -0.6599 H   0  0  0  0  0  0  0  0  0  0  0  0
   -6.1951    4.8912    1.0454 H   0  0  0  0  0  0  0  0  0  0  0  0
   -5.7555    2.5757    1.7370 H   0  0  0  0  0  0  0  0  0  0  0  0
   -4.6919    3.1050    0.3941 H   0  0  0  0  0  0  0  0  0  0  0  0
   -5.8814    1.6826   -1.1820 H   0  0  0  0  0  0  0  0  0  0  0  0
    5.6060    0.5107    0.6126 H   0  0  0  0  0  0  0  0  0  0  0  0
    6.1695   -0.6618   -0.5992 H   0  0  0  0  0  0  0  0  0  0  0  0
    5.9775   -1.2448    2.4158 H   0  0  0  0  0  0  0  0  0  0  0  0
    6.5383   -2.8411   -0.1246 H   0  0  0  0  0  0  0  0  0  0  0  0
    5.7497   -3.3866    1.4233 H   0  0  0  0  0  0  0  0  0  0  0  0
    8.5925   -3.1136    0.7492 H   0  0  0  0  0  0  0  0  0  0  0  0
    7.1561   -2.8321    3.3434 H   0  0  0  0  0  0  0  0  0  0  0  0
    8.8638   -3.2874    3.3058 H   0  0  0  0  0  0  0  0  0  0  0  0
    8.1473   -0.7503    3.5652 H   0  0  0  0  0  0  0  0  0  0  0  0
    9.5884   -1.1534    2.5885 H   0  0  0  0  0  0  0  0  0  0  0  0
    7.6417    0.3977    1.7029 H   0  0  0  0  0  0  0  0  0  0  0  0
    8.3424   -0.8131    0.5303 H   0  0  0  0  0  0  0  0  0  0  0  0
  1  2  1  0
  2  3  1  0
  3  4  1  0
  4  5  1  0
  4  6  1  0
  7  6  1  0
  7  8  1  0
  7  9  1  0
  7 10  1  0
  3 11  1  0
 11 12  1  0
  1 13  1  0
 12 13  1  0
 11 14  1  0
 14 15  1  0
 15 16  1  0
 15 17  1  0
 17 18  1  0
 18 19  1  0
 19 20  1  0
 20 21  1  0
 21 22  1  0
 22 23  1  0
 23 24  1  0
 20 25  1  0
 24 25  1  0
 18 26  1  0
 26 27  1  0
 26 28  1  0
 28 29  1  0
 29 30  1  0
 30 31  1  0
 30 32  1  0
 32 33  1  0
 33 34  1  0
 34 35  1  0
 35 36  1  0
 36 37  1  0
 29 38  1  0
 33 38  1  0
 37 38  1  0
  1 39  1  0
 39 40  1  0
 40 41  1  0
 41 42  1  0
 42 43  1  0
 43 44  1  0
 40 45  1  0
 44 45  1  0
  2 46  1  0
  2 47  1  0
  3 48  1  1
  4 49  1  0
  5 50  1  0
  6 51  1  0
  8 52  1  0
  8 53  1  0
  8 54  1  0
  9 55  1  0
  9 56  1  0
  9 57  1  0
 10 58  1  0
 10 59  1  0
 10 60  1  0
 12 61  1  0
 12 62  1  0
 13 63  1  0
 13 64  1  0
 14 65  1  0
 14 66  1  0
 15 67  1  1
 16 68  1  0
 17 69  1  0
 17 70  1  0
 18 71  1  6
 19 72  1  0
 19 73  1  0
 20 74  1  0
 21 75  1  0
 21 76  1  0
 22 77  1  0
 22 78  1  0
 23 79  1  0
 23 80  1  0
 24 81  1  0
 24 82  1  0
 25 83  1  0
 25 84  1  0
 26 85  1  6
 27 86  1  0
 28 87  1  0
 29 88  1  1
 30 89  1  1
 31 90  1  0
 32 91  1  0
 32 92  1  0
 33 93  1  0
 34 94  1  0
 34 95  1  0
 35 96  1  0
 35 97  1  0
 36 98  1  0
 36 99  1  0
 37100  1  0
 37101  1  0
 38102  1  0
 39103  1  0
 39104  1  0
 40105  1  0
 41106  1  0
 41107  1  0
 42108  1  0
 43109  1  0
 43110  1  0
 44111  1  0
 44112  1  0
 45113  1  0
 45114  1  0
M  END
>  <PDBID>  (1) 
1HSG

>  <PDB ID>  (1) 
1HSG

>  <Generic Name>  (1) 
Indinavir

>  <Brand Name>  (1) 
Crixivan

>  <DrugBank ID>  (1) 
DB00224

>  <ATC Codes>  (1) 
J05AE02

>  <Ligand ID>  (1) 
MK1

>  <Target Name>  (1) 
Pol polyprotein

>  <UniProt ID>  (1) 
Q72874

>  <PDB ID.1>  (1) 
1HSG

>  <Seq. Identity>  (1) 
99%

$$$$
