PDB_DB00624_08
     RDKit          3D

 53 56  0  0  0  0  0  0  0  0999 V2000
    2.6914   -0.8053   -0.3324 C   0  0  0  0  0  0  0  0  0  0  0  0
    4.0503   -0.4355    0.1265 C   0  0  0  0  0  0  0  0  0  0  0  0
    4.0502    0.9907    0.5957 C   0  0  0  0  0  0  0  0  0  0  0  0
    5.3215    1.4917    0.8368 O   0  0  0  0  0  0  0  0  0  0  0  0
    3.1712    1.0418    1.8220 C   0  0  0  0  0  0  0  0  0  0  0  0
    1.7690    0.7577    1.4156 C   0  0  0  0  0  0  0  0  0  0  0  0
    1.1871    2.0307    0.8055 C   0  0  0  0  0  0  0  0  0  0  0  0
   -0.3130    1.8794    0.8466 C   0  0  0  0  0  0  0  0  0  0  0  0
   -0.7590    0.4979    0.4171 C   0  0  2  0  0  0  0  0  0  0  0  0
    0.3590   -0.1676   -0.3468 C   0  0  1  0  0  0  0  0  0  0  0  0
    1.5709   -0.4321    0.5623 C   0  0  1  0  0  0  0  0  0  0  0  0
   -0.0091   -1.3881   -1.0757 C   0  0  0  0  0  0  0  0  0  0  0  0
   -1.4163   -1.5975   -1.4579 C   0  0  0  0  0  0  0  0  0  0  0  0
   -2.4348   -0.7550   -0.7784 C   0  0  1  0  0  0  0  0  0  0  0  0
   -1.8760    0.6309   -0.5370 C   0  0  1  0  0  0  0  0  0  0  0  0
   -3.0623    1.3886   -0.1109 C   0  0  0  0  0  0  0  0  0  0  0  0
   -4.1485    0.8918   -1.0477 C   0  0  0  0  0  0  0  0  0  0  0  0
   -3.6146   -0.3965   -1.6587 C   0  0  2  0  0  0  0  0  0  0  0  0
   -4.6059   -1.3527   -1.5435 O   0  0  0  0  0  0  0  0  0  0  0  0
   -2.9807   -1.3826    0.4766 C   0  0  0  0  0  0  0  0  0  0  0  0
    1.2115   -1.6376    1.4291 C   0  0  0  0  0  0  0  0  0  0  0  0
    2.5505   -0.3771   -1.3665 H   0  0  0  0  0  0  0  0  0  0  0  0
    2.6707   -1.9185   -0.4920 H   0  0  0  0  0  0  0  0  0  0  0  0
    4.5022   -1.1295    0.8631 H   0  0  0  0  0  0  0  0  0  0  0  0
    4.7363   -0.4727   -0.7692 H   0  0  0  0  0  0  0  0  0  0  0  0
    3.6027    1.6068   -0.2152 H   0  0  0  0  0  0  0  0  0  0  0  0
    5.8764    1.2372    0.0496 H   0  0  0  0  0  0  0  0  0  0  0  0
    3.5682    0.3003    2.5600 H   0  0  0  0  0  0  0  0  0  0  0  0
    3.2247    2.0806    2.2289 H   0  0  0  0  0  0  0  0  0  0  0  0
    1.1750    0.6015    2.3645 H   0  0  0  0  0  0  0  0  0  0  0  0
    1.5898    2.2500   -0.1829 H   0  0  0  0  0  0  0  0  0  0  0  0
    1.4540    2.8583    1.5137 H   0  0  0  0  0  0  0  0  0  0  0  0
   -0.6533    2.0562    1.8896 H   0  0  0  0  0  0  0  0  0  0  0  0
   -0.7848    2.6767    0.2254 H   0  0  0  0  0  0  0  0  0  0  0  0
   -0.9717   -0.1075    1.3140 H   0  0  0  0  0  0  0  0  0  0  0  0
    0.7314    0.6165   -1.0643 H   0  0  0  0  0  0  0  0  0  0  0  0
    0.3644   -2.2779   -0.4846 H   0  0  0  0  0  0  0  0  0  0  0  0
    0.6166   -1.4376   -2.0178 H   0  0  0  0  0  0  0  0  0  0  0  0
   -1.7079   -2.6670   -1.2821 H   0  0  0  0  0  0  0  0  0  0  0  0
   -1.5690   -1.4616   -2.5707 H   0  0  0  0  0  0  0  0  0  0  0  0
   -1.5004    1.0061   -1.5012 H   0  0  0  0  0  0  0  0  0  0  0  0
   -2.9153    2.4724   -0.3426 H   0  0  0  0  0  0  0  0  0  0  0  0
   -3.3440    1.2351    0.9483 H   0  0  0  0  0  0  0  0  0  0  0  0
   -4.3370    1.6183   -1.8757 H   0  0  0  0  0  0  0  0  0  0  0  0
   -5.1044    0.7428   -0.5258 H   0  0  0  0  0  0  0  0  0  0  0  0
   -3.3053   -0.2401   -2.7114 H   0  0  0  0  0  0  0  0  0  0  0  0
   -4.6395   -1.9595   -2.3433 H   0  0  0  0  0  0  0  0  0  0  0  0
   -2.4921   -2.3686    0.7054 H   0  0  0  0  0  0  0  0  0  0  0  0
   -2.9180   -0.7224    1.3601 H   0  0  0  0  0  0  0  0  0  0  0  0
   -4.0776   -1.6303    0.3737 H   0  0  0  0  0  0  0  0  0  0  0  0
    0.1372   -1.8125    1.4884 H   0  0  0  0  0  0  0  0  0  0  0  0
    1.6712   -1.4598    2.4444 H   0  0  0  0  0  0  0  0  0  0  0  0
    1.6873   -2.5667    1.0411 H   0  0  0  0  0  0  0  0  0  0  0  0
  1  2  1  0
  2  3  1  0
  3  4  1  0
  3  5  1  0
  5  6  1  0
  6  7  1  0
  7  8  1  0
  8  9  1  0
  9 10  1  0
  1 11  1  0
  6 11  1  0
 10 11  1  0
 10 12  1  0
 12 13  1  0
 13 14  1  0
  9 15  1  0
 14 15  1  0
 15 16  1  0
 16 17  1  0
 14 18  1  0
 17 18  1  0
 18 19  1  0
 14 20  1  1
 11 21  1  1
  1 22  1  0
  1 23  1  0
  2 24  1  0
  2 25  1  0
  3 26  1  0
  4 27  1  0
  5 28  1  0
  5 29  1  0
  6 30  1  0
  7 31  1  0
  7 32  1  0
  8 33  1  0
  8 34  1  0
  9 35  1  1
 10 36  1  6
 12 37  1  0
 12 38  1  0
 13 39  1  0
 13 40  1  0
 15 41  1  6
 16 42  1  0
 16 43  1  0
 17 44  1  0
 17 45  1  0
 18 46  1  6
 19 47  1  0
 20 48  1  0
 20 49  1  0
 20 50  1  0
 21 51  1  0
 21 52  1  0
 21 53  1  0
M  END
>  <PDBID>  (1) 
2AM9

>  <PDB ID>  (1) 
2AM9

>  <Generic Name>  (1) 
Testosterone

>  <Brand Name>  (1) 
Andriol#Androderm#Androgel#Aveed#Axiron#Delatestryl#Depo-testosterone#Depo-testosterone Inj 100mg/ml#Fortesta#Malogen Aqueous 100 Sus 100mg/ml#Malogex La200 Liq 200mg/ml#Natesto#Neo Pause Injection#PMS-testosterone#PMS-testosterone Enanthate Inj 200mg/ml USP#Scheinpharm Testone-cyp Inject.- Im 100mg/ml#Striant#Taro-testosterone#Testim#Testim 1%#Testopel#Testosterone#Testosterone Cypionate#Testosterone Cypionate Injection USP#Testosterone Cypionate Injection, USP#Testosterone Enanthate#Testosterone Enanthate Inj 200mg/ml#Vogelxo#Andronate 100#Andronate 200#Andropatch#Andropository 200#Andryl 200#Bio-T-Gel#Fortigel#Intrinsa#Livensa#Nebido#Sustanon#Testamone 100#Testaqua IM#Testoderm#Testoderm TTS#Testogel#Testolin#Testopatch#Testopel Pellets#Testrin-P.A#Testro AQ#Tostrelle#Tostrex#Virormone

>  <DrugBank ID>  (1) 
DB00624

>  <ATC Codes>  (1) 
G03EA02#G03BA03

>  <Ligand ID>  (1) 
TES

>  <Target Name>  (1) 
Androgen receptor

>  <UniProt ID>  (1) 
P10275

>  <PDB ID.1>  (1) 
2AM9

>  <Seq. Identity>  (1) 
100%

$$$$
