PDB_DB00275_06
     RDKit          3D

 81 84  0  0  0  0  0  0  0  0999 V2000
    2.1956   -1.1441   -1.1960 C   0  0  0  0  0  0  0  0  0  0  0  0
    0.7010   -1.2455   -1.5812 C   0  0  0  0  0  0  0  0  0  0  0  0
   -4.5082    0.3115   -2.3935 O   0  0  0  0  0  0  0  0  0  0  0  0
   -0.1536   -1.0248   -0.3359 C   0  0  0  0  0  0  0  0  0  0  0  0
   -1.6888    2.6427    0.9632 O   0  0  0  0  0  0  0  0  0  0  0  0
   -1.3700   -0.2081   -0.6947 C   0  0  0  0  0  0  0  0  0  0  0  0
   -3.9323    3.2439    0.9313 O   0  0  0  0  0  0  0  0  0  0  0  0
   -5.1382   -2.9821    1.3203 C   0  0  0  0  0  0  0  0  0  0  0  0
   -3.8403   -2.8727    2.0724 C   0  0  0  0  0  0  0  0  0  0  0  0
   -2.7213   -2.2115    1.2603 C   0  0  0  0  0  0  0  0  0  0  0  0
   -3.1120   -0.8520    0.9220 C   0  0  0  0  0  0  0  0  0  0  0  0
   -4.3387   -0.8628    0.1143 N   0  0  0  0  0  0  0  0  0  0  0  0
   -4.5812    0.5757   -0.0106 C   0  0  0  0  0  0  0  0  0  0  0  0
   -5.3059    0.7657   -1.3454 C   0  0  0  0  0  0  0  0  0  0  0  0
   -6.5861   -0.0544   -1.3579 C   0  0  0  0  0  0  0  0  0  0  0  0
   -5.7171    2.2215   -1.5303 C   0  0  0  0  0  0  0  0  0  0  0  0
   -3.2154    1.1645   -0.0259 C   0  0  0  0  0  0  0  0  0  0  0  0
   -3.0179    2.2298    1.0342 C   0  0  0  0  0  0  0  0  0  0  0  0
   -2.2682    0.0804    0.3283 N   0  0  0  0  0  0  0  0  0  0  0  0
    0.7211   -0.3275    0.6813 C   0  0  0  0  0  0  0  0  0  0  0  0
    1.4386    0.8122    0.0099 C   0  0  0  0  0  0  0  0  0  0  0  0
    2.4636    0.2919   -0.9744 C   0  0  0  0  0  0  0  0  0  0  0  0
    3.8341    0.7675   -0.7493 C   0  0  0  0  0  0  0  0  0  0  0  0
    4.7675    0.3761   -1.9075 C   0  0  0  0  0  0  0  0  0  0  0  0
    6.0318    1.1559   -1.7926 C   0  0  0  0  0  0  0  0  0  0  0  0
    6.0359    2.2220   -0.7505 C   0  0  0  0  0  0  0  0  0  0  0  0
    5.5409    1.8208    0.5990 C   0  0  0  0  0  0  0  0  0  0  0  0
    4.5267    0.6495    0.5241 C   0  0  0  0  0  0  0  0  0  0  0  0
    5.3522   -0.5591    0.8153 C   0  0  0  0  0  0  0  0  0  0  0  0
    5.9307   -0.3313    2.1562 N   0  0  0  0  0  0  0  0  0  0  0  0
    6.1909   -1.5954    2.6388 N   0  0  0  0  0  0  0  0  0  0  0  0
    5.3715   -2.4996    1.9856 N   0  0  0  0  0  0  0  0  0  0  0  0
    4.6552   -1.7785    1.0286 N   0  0  0  0  0  0  0  0  0  0  0  0
    2.3261   -1.8438   -0.3882 H   0  0  0  0  0  0  0  0  0  0  0  0
    2.7167   -1.4646   -2.1477 H   0  0  0  0  0  0  0  0  0  0  0  0
    0.4547   -0.5785   -2.4036 H   0  0  0  0  0  0  0  0  0  0  0  0
    0.5724   -2.3027   -1.8703 H   0  0  0  0  0  0  0  0  0  0  0  0
   -4.7072    0.8373   -3.1995 H   0  0  0  0  0  0  0  0  0  0  0  0
   -0.4921   -2.0248    0.0610 H   0  0  0  0  0  0  0  0  0  0  0  0
   -1.5613    3.5859    1.2196 H   0  0  0  0  0  0  0  0  0  0  0  0
   -1.8206   -0.6710   -1.6097 H   0  0  0  0  0  0  0  0  0  0  0  0
   -0.9822    0.7768   -1.0997 H   0  0  0  0  0  0  0  0  0  0  0  0
   -3.4485    4.1089    0.9583 H   0  0  0  0  0  0  0  0  0  0  0  0
   -5.6883   -3.9232    1.5963 H   0  0  0  0  0  0  0  0  0  0  0  0
   -4.9032   -3.1142    0.2424 H   0  0  0  0  0  0  0  0  0  0  0  0
   -5.8037   -2.1135    1.4117 H   0  0  0  0  0  0  0  0  0  0  0  0
   -3.5138   -3.8405    2.5027 H   0  0  0  0  0  0  0  0  0  0  0  0
   -4.0751   -2.2213    2.9689 H   0  0  0  0  0  0  0  0  0  0  0  0
   -1.8323   -2.2812    1.9443 H   0  0  0  0  0  0  0  0  0  0  0  0
   -2.6269   -2.9115    0.3791 H   0  0  0  0  0  0  0  0  0  0  0  0
   -3.4806   -0.3756    1.9004 H   0  0  0  0  0  0  0  0  0  0  0  0
   -4.0365   -1.1685   -0.8493 H   0  0  0  0  0  0  0  0  0  0  0  0
   -5.1888    0.9561    0.8250 H   0  0  0  0  0  0  0  0  0  0  0  0
   -7.3426    0.3988   -2.0396 H   0  0  0  0  0  0  0  0  0  0  0  0
   -7.0505   -0.0874   -0.3475 H   0  0  0  0  0  0  0  0  0  0  0  0
   -6.3819   -1.1222   -1.6230 H   0  0  0  0  0  0  0  0  0  0  0  0
   -6.2384    2.2634   -2.5095 H   0  0  0  0  0  0  0  0  0  0  0  0
   -4.8531    2.9014   -1.6026 H   0  0  0  0  0  0  0  0  0  0  0  0
   -6.4198    2.4523   -0.7313 H   0  0  0  0  0  0  0  0  0  0  0  0
   -2.9573    1.4794   -1.0347 H   0  0  0  0  0  0  0  0  0  0  0  0
   -3.1389    1.7779    2.0581 H   0  0  0  0  0  0  0  0  0  0  0  0
   -0.0058    0.0989    1.4538 H   0  0  0  0  0  0  0  0  0  0  0  0
    1.4080   -1.0260    1.1733 H   0  0  0  0  0  0  0  0  0  0  0  0
    0.7286    1.5430   -0.4284 H   0  0  0  0  0  0  0  0  0  0  0  0
    2.0388    1.3302    0.8234 H   0  0  0  0  0  0  0  0  0  0  0  0
    2.1353    0.7958   -1.9572 H   0  0  0  0  0  0  0  0  0  0  0  0
    3.7567    1.9078   -0.9469 H   0  0  0  0  0  0  0  0  0  0  0  0
    4.1930    0.6222   -2.8317 H   0  0  0  0  0  0  0  0  0  0  0  0
    4.9165   -0.7221   -1.9430 H   0  0  0  0  0  0  0  0  0  0  0  0
    6.9453    0.4918   -1.7438 H   0  0  0  0  0  0  0  0  0  0  0  0
    6.1802    1.6943   -2.7776 H   0  0  0  0  0  0  0  0  0  0  0  0
    7.1058    2.5548   -0.6275 H   0  0  0  0  0  0  0  0  0  0  0  0
    5.5147    3.1334   -1.1463 H   0  0  0  0  0  0  0  0  0  0  0  0
    6.3649    1.6036    1.2766 H   0  0  0  0  0  0  0  0  0  0  0  0
    5.0195    2.7226    1.0208 H   0  0  0  0  0  0  0  0  0  0  0  0
    3.8886    0.8138    1.4218 H   0  0  0  0  0  0  0  0  0  0  0  0
    6.2074   -0.7334    0.1637 H   0  0  0  0  0  0  0  0  0  0  0  0
    5.1435    0.0790    2.7040 H   0  0  0  0  0  0  0  0  0  0  0  0
    5.9422   -1.6400    3.6714 H   0  0  0  0  0  0  0  0  0  0  0  0
    6.0297   -3.1955    1.5269 H   0  0  0  0  0  0  0  0  0  0  0  0
    4.6983   -2.3506    0.1412 H   0  0  0  0  0  0  0  0  0  0  0  0
  1  2  1  0
  2  4  1  0
  4  6  1  0
  8  9  1  0
  9 10  1  0
 10 11  1  0
 11 12  1  0
 12 13  1  0
 14  3  1  0
 13 14  1  0
 14 15  1  0
 14 16  1  0
 13 17  1  0
  5 18  1  0
  7 18  1  0
 17 18  1  0
  6 19  1  0
 11 19  1  0
 17 19  1  0
  4 20  1  0
 20 21  1  0
  1 22  1  0
 21 22  1  0
 22 23  1  0
 23 24  1  0
 24 25  1  0
 25 26  1  0
 26 27  1  0
 23 28  1  0
 27 28  1  0
 28 29  1  0
 29 30  1  0
 30 31  1  0
 31 32  1  0
 29 33  1  0
 32 33  1  0
  1 34  1  0
  1 35  1  0
  2 36  1  0
  2 37  1  0
  3 38  1  0
  4 39  1  0
  5 40  1  0
  6 41  1  0
  6 42  1  0
  7 43  1  0
  8 44  1  0
  8 45  1  0
  8 46  1  0
  9 47  1  0
  9 48  1  0
 10 49  1  0
 10 50  1  0
 11 51  1  0
 12 52  1  0
 13 53  1  0
 15 54  1  0
 15 55  1  0
 15 56  1  0
 16 57  1  0
 16 58  1  0
 16 59  1  0
 17 60  1  0
 18 61  1  0
 20 62  1  0
 20 63  1  0
 21 64  1  0
 21 65  1  0
 22 66  1  0
 23 67  1  0
 24 68  1  0
 24 69  1  0
 25 70  1  0
 25 71  1  0
 26 72  1  0
 26 73  1  0
 27 74  1  0
 27 75  1  0
 28 76  1  0
 29 77  1  0
 30 78  1  0
 31 79  1  0
 32 80  1  0
 33 81  1  0
M  END
>  <PDBID>  (1) 
4ZUD

>  <PDB ID>  (1) 
4ZUD

>  <Generic Name>  (1) 
Olmesartan

>  <Brand Name>  (1) 
Amlodipine Besylate and Olmesartan Medoxomil#Amlodipine and Olmesartan Medoxomil#Azor#Benicar#Benicar Hct#Olmesartan Medoxmil and Hydrochlorothiazide#Olmesartan Medoxomil#Olmesartan Medoxomil / Amlodipine Besylate / Hydrochlorothiazide#Olmesartan Medoxomil and Hydrochlorothiazide#Olmesartan Medoxomil, Amlodipine and Hydrochlorothiazide#Olmesartan Medoxomil, Amlodipine and Hydrochlorothiazide 20/5/12.5 mg#Olmesartan Medoxomil, Amlodipine and Hydrochlorothiazide 40/10/12.5 mg#Olmesartan Medoxomil, Amlodipine and Hydrochlorothiazide 40/10/25 mg#Olmesartan Medoxomil, Amlodipine and Hydrochlorothiazide 40/5/12.5 mg#Olmesartan Medoxomil, Amlodipine and Hydrochlorothiazide 40/5/25 mg#Olmetec#Olmetec Plus#Tribenzor#Erastapex#Golme#Olmetec#WinBP

>  <DrugBank ID>  (1) 
DB00275

>  <ATC Codes>  (1) 
C09DA08#C09CA08#C09DX03#C09DB02

>  <Ligand ID>  (1) 
OLM

>  <Target Name>  (1) 
Type-1 angiotensin II receptor

>  <UniProt ID>  (1) 
P30556

>  <PDB ID.1>  (1) 
4ZUD

>  <Seq. Identity>  (1) 
87%

$$$$
