PDB_DB01336_04
     RDKit          3D

  0  0  0  0  0  0  0  0  0  0999 V3000
M  V30 BEGIN CTAB
M  V30 COUNTS 960 1008 0 0 0
M  V30 BEGIN ATOM
M  V30 1 N -5.10256 -2.53057 -0.575468 0 CHG=1
M  V30 2 C -6.3853 -2.0475 -0.124066 0
M  V30 3 C -6.58829 -0.73674 -0.908118 0
M  V30 4 C -5.63068 0.218798 -0.303715 0
M  V30 5 C -4.19358 -0.242323 -0.253466 0
M  V30 6 C -3.98429 -1.70909 -0.208907 0 CFG=2
M  V30 7 C -5.60608 1.5838 -0.901204 0
M  V30 8 C -4.69535 2.53965 -0.194708 0
M  V30 9 C -3.52437 1.97853 0.505859 0
M  V30 10 C -3.59036 0.519448 0.878678 0
M  V30 11 O -2.30634 2.11787 -0.207725 0
M  V30 12 C -1.27013 2.55145 0.601116 0
M  V30 13 C -0.839071 3.91106 0.102252 0
M  V30 14 C 0.0540081 4.60878 1.11102 0
M  V30 15 C 0.794062 3.51579 1.8531 0
M  V30 16 C 1.17969 2.41058 0.852707 0
M  V30 17 C -0.111951 1.588 0.706129 0
M  V30 18 C 2.28321 1.65791 1.47601 0
M  V30 19 C 3.21808 0.913806 0.534814 0 CFG=1
M  V30 20 N 4.27413 1.69601 0.0170966 0 CHG=1
M  V30 21 C 5.53674 1.6374 0.725009 0
M  V30 22 C 6.02862 0.183943 0.758815 0
M  V30 23 C 5.0123 -0.451694 1.67411 0 CFG=1
M  V30 24 C 3.61585 -0.422501 1.11683 0
M  V30 25 C 5.35404 -1.83629 2.09289 0
M  V30 26 C 5.50461 -2.66132 0.835067 0
M  V30 27 C 4.32614 -2.56624 -0.0846142 0
M  V30 28 C 3.26061 -1.60076 0.270801 0
M  V30 29 O 2.19849 -2.34383 0.814941 0
M  V30 30 C 0.976897 -2.12868 0.272726 0
M  V30 31 C 0.105108 -3.31726 0.715096 0
M  V30 32 C -1.36316 -2.99643 0.580161 0
M  V30 33 C -1.49607 -2.00606 -0.552953 0
M  V30 34 C -0.507902 -2.48269 -1.62878 0
M  V30 35 C 0.908669 -2.08397 -1.21625 0
M  V30 36 C -2.86775 -2.10463 -1.15488 0
M  V30 37 O -5.52144 3.22552 0.710948 0
M  V30 38 C -5.61284 4.57486 0.449955 0
M  V30 39 O -1.95547 4.67896 -0.0976277 0
M  V30 40 O 6.6914 -2.34098 0.175415 0
M  V30 41 C 7.63008 -3.33898 0.184311 0
M  V30 42 O 4.82252 -2.37237 -1.37601 0
M  V30 43 C -4.91104 -3.86445 -0.0329942 0
M  V30 44 C 4.59882 1.37917 -1.38675 0
M  V30 45 C 3.98088 3.12664 -0.0425636 0
M  V30 46 C 4.66546 -3.43522 -2.22078 0
M  V30 47 C -5.22192 -2.6971 -2.01898 0
M  V30 48 C -2.11654 5.16043 -1.37292 0
M  V30 49 N -4.78921 -2.55708 -0.349036 0 CHG=1
M  V30 50 C -5.66595 -2.19323 0.709534 0
M  V30 51 C -5.63158 -0.780763 1.18595 0
M  V30 52 C -4.21746 -0.38056 1.40164 0 CFG=1
M  V30 53 C -3.44779 -0.552973 0.108053 0 CFG=1
M  V30 54 C -3.46939 -1.9983 -0.315272 0 CFG=2
M  V30 55 C -4.1112 1.03417 1.85899 0
M  V30 56 C -4.13849 2.09561 0.805189 0 CFG=1
M  V30 57 C -3.45387 1.78984 -0.474875 0
M  V30 58 C -3.98169 0.394695 -0.895561 0
M  V30 59 O -2.11957 1.71155 -0.513114 0
M  V30 60 C -1.31633 2.46863 0.269942 0
M  V30 61 C -1.01609 3.86248 -0.295311 0
M  V30 62 C -0.200947 4.62429 0.724027 0
M  V30 63 C 0.782654 3.71609 1.42374 0
M  V30 64 C 1.19357 2.64053 0.403919 0 CFG=2
M  V30 65 C 0.0171106 1.69129 0.354008 0
M  V30 66 C 2.43156 2.01072 0.925368 0
M  V30 67 C 3.17355 1.12225 -0.0811283 0 CFG=1
M  V30 68 N 3.98358 1.95143 -0.917643 0 CHG=1
M  V30 69 C 5.23167 1.44669 -1.3724 0
M  V30 70 C 5.46434 -0.0246904 -1.12476 0
M  V30 71 C 5.30871 -0.115183 0.401088 0 CFG=1
M  V30 72 C 3.8329 0.0134518 0.64406 0 CFG=2
M  V30 73 C 5.93572 -1.34758 0.881349 0
M  V30 74 C 5.01369 -2.02995 1.86059 0 CFG=1
M  V30 75 C 3.80437 -2.47851 1.01784 0
M  V30 76 C 3.08536 -1.28922 0.473012 0 CFG=2
M  V30 77 O 2.6714 -1.4851 -0.859192 0
M  V30 78 C 1.29794 -1.65527 -0.9475 0
M  V30 79 C 0.890858 -3.08764 -0.633995 0
M  V30 80 C -0.619522 -3.20818 -0.72065 0
M  V30 81 C -1.25127 -2.02936 -1.38129 0
M  V30 82 C -0.525522 -1.79464 -2.68527 0
M  V30 83 C 0.855885 -1.25651 -2.33129 0
M  V30 84 C -2.73875 -2.25571 -1.5777 0
M  V30 85 O -5.51061 2.3883 0.598675 0
M  V30 86 C -5.83168 3.65114 1.06016 0
M  V30 87 O -2.21463 4.51918 -0.541029 0
M  V30 88 O 5.55675 -3.15332 2.42946 0
M  V30 89 C 5.61336 -3.1245 3.81299 0
M  V30 90 O 4.27811 -3.37716 0.132335 0
M  V30 91 C -4.57534 -4.01606 -0.17873 0
M  V30 92 C 3.23935 2.33106 -2.13506 0
M  V30 93 C 4.29758 3.24705 -0.281916 0
M  V30 94 C 3.97872 -4.67935 0.247105 0
M  V30 95 C -5.43466 -2.45155 -1.64983 0
M  V30 96 C -2.37165 4.84645 -1.88509 0
M  V30 97 N -4.80578 -2.81806 -0.295187 0 CHG=1
M  V30 98 C -5.96207 -2.51725 0.502589 0
M  V30 99 C -6.43167 -1.13997 0.00667984 0
M  V30 100 C -5.39714 -0.189907 0.479693 0
M  V30 101 C -3.9843 -0.501329 0.0543255 0
M  V30 102 C -3.68761 -1.94054 -0.119343 0 CFG=2
M  V30 103 C -5.63508 1.24049 0.0957483 0
M  V30 104 C -4.63194 2.18952 0.636563 0
M  V30 105 C -3.27946 1.66825 0.938827 0
M  V30 106 C -3.11869 0.197994 1.06567 0
M  V30 107 O -2.34007 2.10141 -0.0258241 0
M  V30 108 C -1.17847 2.5697 0.582893 0
M  V30 109 C -0.929402 3.96675 0.00117035 0
M  V30 110 C 0.163514 4.67361 0.779626 0
M  V30 111 C 1.06302 3.60893 1.35291 0
M  V30 112 C 1.23879 2.55995 0.240917 0
M  V30 113 C -0.00573024 1.66663 0.370062 0
M  V30 114 C 2.49757 1.83222 0.532091 0
M  V30 115 C 3.13665 1.09453 -0.592034 0 CFG=1
M  V30 116 N 4.04694 1.93319 -1.35307 0 CHG=1
M  V30 117 C 5.15036 2.42069 -0.58023 0
M  V30 118 C 5.85415 1.45294 0.277888 0
M  V30 119 C 4.95201 0.413887 0.953884 0
M  V30 120 C 3.99887 -0.0618111 -0.116423 0 CFG=1
M  V30 121 C 5.85614 -0.720247 1.31052 0
M  V30 122 C 5.15288 -1.97568 1.69803 0
M  V30 123 C 4.07674 -2.40697 0.73836 0
M  V30 124 C 3.20567 -1.27453 0.260203 0 CFG=2
M  V30 125 O 2.57724 -1.74553 -0.881677 0
M  V30 126 C 1.23053 -1.8539 -0.823418 0
M  V30 127 C 0.677609 -3.0893 -0.162697 0
M  V30 128 C -0.826658 -2.93411 -0.0247589 0
M  V30 129 C -1.36189 -2.0239 -1.0852 0
M  V30 130 C -0.654066 -2.43645 -2.38795 0
M  V30 131 C 0.751398 -1.9121 -2.28056 0
M  V30 132 C -2.8219 -2.16381 -1.36476 0
M  V30 133 O -5.2154 2.75391 1.79426 0
M  V30 134 C -5.46063 4.1074 1.65461 0
M  V30 135 O -2.09331 4.67934 0.149479 0
M  V30 136 O 6.09852 -3.00195 1.73589 0
M  V30 137 C 6.27352 -3.52158 3.00038 0
M  V30 138 O 4.5722 -3.20787 -0.282556 0
M  V30 139 C -4.38721 -4.17299 0.100363 0
M  V30 140 C 4.58273 1.15431 -2.46849 0
M  V30 141 C 3.42107 3.09449 -1.94849 0
M  V30 142 C 4.15926 -4.49964 -0.26603 0
M  V30 143 C -5.23735 -2.9467 -1.6759 0
M  V30 144 C -2.66168 5.11855 -1.01838 0
M  V30 145 N -4.97125 -2.92531 0.24357 0 CHG=1
M  V30 146 C -6.16162 -2.36639 0.786091 0
M  V30 147 C -6.44954 -1.09573 -0.0307562 0
M  V30 148 C -5.36103 -0.145763 0.316655 0
M  V30 149 C -3.96222 -0.681322 0.120607 0
M  V30 150 C -3.77927 -2.12404 0.446476 0 CFG=2
M  V30 151 C -5.38631 1.13703 -0.4867 0
M  V30 152 C -4.45184 2.16751 0.0848934 0
M  V30 153 C -3.48791 1.63789 1.0676 0
M  V30 154 C -3.08288 0.2279 0.932489 0
M  V30 155 O -2.41179 2.47365 1.33595 0
M  V30 156 C -1.41203 2.55846 0.421635 0 CFG=1
M  V30 157 C -1.15069 4.02205 0.145057 0 CFG=1
M  V30 158 C -0.156057 4.65564 1.07286 0
M  V30 159 C 0.758941 3.6873 1.73613 0
M  V30 160 C 1.08851 2.64605 0.644054 0
M  V30 161 C -0.178839 1.76261 0.679619 0
M  V30 162 C 2.31522 1.96576 1.04643 0
M  V30 163 C 3.1827 1.34868 -0.0495872 0 CFG=1
M  V30 164 N 4.03838 2.31131 -0.659385 0 CHG=1
M  V30 165 C 5.29147 2.52281 0.0906145 0
M  V30 166 C 6.0486 1.25302 -0.184959 0
M  V30 167 C 5.33815 0.110522 0.558238 0
M  V30 168 C 3.88836 0.0858625 0.427341 0
M  V30 169 C 6.12619 -1.09772 0.159916 0
M  V30 170 C 5.28907 -2.34312 0.260518 0
M  V30 171 C 4.22601 -2.11129 -0.823415 0
M  V30 172 C 3.26625 -1.11073 -0.242374 0
M  V30 173 O 2.51228 -1.91339 0.654745 0
M  V30 174 C 1.19038 -2.06484 0.256353 0
M  V30 175 C 0.429538 -2.29893 1.55774 0
M  V30 176 C -0.990625 -2.71598 1.3527 0
M  V30 177 C -1.32982 -2.53381 -0.0874041 0
M  V30 178 C -0.494089 -3.59114 -0.833279 0
M  V30 179 C 0.958376 -3.25517 -0.620365 0
M  V30 180 C -2.74711 -2.75183 -0.464826 0
M  V30 181 O -5.29767 3.14766 0.61016 0
M  V30 182 C -5.37788 4.31064 -0.0720484 0
M  V30 183 O -0.786015 4.24283 -1.17768 0
M  V30 184 O 5.96405 -3.51195 0.122543 0
M  V30 185 C 5.84548 -4.38537 1.19335 0
M  V30 186 O 4.77112 -1.7473 -2.01714 0
M  V30 187 C -4.74286 -4.22707 0.854462 0
M  V30 188 C 4.36475 1.96086 -2.03066 0
M  V30 189 C 3.50662 3.6464 -0.764658 0
M  V30 190 C 4.53265 -2.73388 -2.97009 0
M  V30 191 C -5.21408 -3.17777 -1.18071 0
M  V30 192 C -1.72283 5.05562 -1.80757 0
M  V30 193 N -4.52502 -2.85858 0.0130176 0 CHG=1
M  V30 194 C -5.71837 -2.49212 0.719542 0
M  V30 195 C -6.21052 -1.2288 -0.0155558 0
M  V30 196 C -5.25683 -0.174245 0.417225 0 CFG=1
M  V30 197 C -3.80414 -0.474029 0.129494 0
M  V30 198 C -3.47433 -1.90551 -0.00583824 0 CFG=2
M  V30 199 C -5.49053 1.19104 -0.147356 0
M  V30 200 C -4.57795 2.20345 0.475477 0
M  V30 201 C -3.47031 1.69204 1.3222 0
M  V30 202 C -3.0746 0.270455 1.22309 0
M  V30 203 O -2.41992 2.6035 1.35635 0
M  V30 204 C -1.44353 2.50691 0.425384 0 CFG=1
M  V30 205 C -1.06098 3.91272 -0.0482914 0
M  V30 206 C -0.290547 4.61812 1.05925 0
M  V30 207 C 0.866691 3.81165 1.55545 0
M  V30 208 C 1.07811 2.62405 0.645879 0 CFG=2
M  V30 209 C -0.196335 1.77543 0.837552 0
M  V30 210 C 2.31232 1.93912 1.06672 0
M  V30 211 C 3.04233 1.13078 -0.0203351 0 CFG=1
M  V30 212 N 3.64184 1.87568 -1.05199 0 CHG=1
M  V30 213 C 5.0529 1.72275 -1.30141 0
M  V30 214 C 5.48224 0.327085 -1.05049 0
M  V30 215 C 5.30603 0.179678 0.468751 0 CFG=1
M  V30 216 C 3.835 0.0710596 0.680142 0
M  V30 217 C 6.17545 -0.885494 0.951894 0
M  V30 218 C 5.39061 -2.01539 1.56479 0 CFG=1
M  V30 219 C 4.23027 -2.42498 0.665809 0
M  V30 220 C 3.25669 -1.30715 0.452241 0 CFG=2
M  V30 221 O 2.68825 -1.49846 -0.794478 0
M  V30 222 C 1.34112 -1.75558 -0.801331 0
M  V30 223 C 0.937423 -3.20595 -0.686737 0
M  V30 224 C -0.579696 -3.18958 -0.41944 0
M  V30 225 C -1.22895 -2.02782 -1.105 0
M  V30 226 C -0.540985 -1.93376 -2.47535 0
M  V30 227 C 0.808459 -1.28205 -2.13901 0
M  V30 228 C -2.70914 -2.18547 -1.30895 0
M  V30 229 O -5.45125 3.00554 1.2445 0
M  V30 230 C -5.55124 4.29744 0.817971 0
M  V30 231 O -2.13884 4.6998 -0.359713 0
M  V30 232 O 6.1186 -3.12885 1.84925 0
M  V30 233 C 6.13679 -3.48979 3.18636 0
M  V30 234 O 4.68193 -3.01542 -0.499401 0
M  V30 235 C -4.03292 -4.08705 0.658759 0
M  V30 236 C 3.04704 1.56049 -2.3808 0
M  V30 237 C 3.47547 3.33547 -0.980023 0
M  V30 238 C 4.49937 -4.34756 -0.629206 0
M  V30 239 C -4.94495 -3.28053 -1.33184 0
M  V30 240 C -2.16615 5.17527 -1.64664 0
M  V30 241 N -4.78593 -2.65755 -0.0891344 0 CHG=1
M  V30 242 C -5.86273 -1.95627 0.539961 0
M  V30 243 C -6.19803 -0.619749 -0.0716846 0
M  V30 244 C -5.11335 -0.0713622 -0.919231 0 CFG=2
M  V30 245 C -3.73151 -0.44505 -0.447248 0
M  V30 246 C -3.56897 -1.92728 -0.239448 0 CFG=2
M  V30 247 C -5.22308 1.41665 -1.02811 0
M  V30 248 C -4.76027 2.21653 0.132058 0
M  V30 249 C -3.45031 1.75291 0.713393 0
M  V30 250 C -3.4983 0.270668 0.8635 0
M  V30 251 O -2.33602 2.17346 -0.0140722 0
M  V30 252 C -1.25355 2.31896 0.871219 0
M  V30 253 C -0.834515 3.76717 0.916256 0 CFG=1
M  V30 254 C 0.280103 3.88078 1.94034 0
M  V30 255 C 0.766151 2.56009 2.44447 0
M  V30 256 C 1.10905 1.6143 1.29323 0 CFG=1
M  V30 257 C -0.0537194 1.54332 0.369162 0
M  V30 258 C 2.38084 2.13852 0.694257 0
M  V30 259 C 2.96054 1.24473 -0.40589 0 CFG=1
M  V30 260 N 3.82237 2.06316 -1.21014 0 CHG=1
M  V30 261 C 4.91639 2.51947 -0.411072 0
M  V30 262 C 5.74304 1.37813 0.12951 0
M  V30 263 C 4.91273 0.403784 0.911169 0 CFG=1
M  V30 264 C 3.61093 0.0626052 0.261402 0
M  V30 265 C 5.73396 -0.810345 1.21064 0
M  V30 266 C 4.82223 -2.02214 1.29305 0
M  V30 267 C 4.28154 -2.32859 -0.122241 0
M  V30 268 C 3.64958 -1.10871 -0.695381 0
M  V30 269 O 2.5185 -1.1918 -1.34361 0
M  V30 270 C 1.37785 -1.75221 -1.22105 0
M  V30 271 C 0.902428 -2.43095 0.029796 0
M  V30 272 C -0.63079 -2.47507 0.0811752 0
M  V30 273 C -1.25252 -2.09931 -1.21771 0
M  V30 274 C -0.57689 -2.72113 -2.41218 0
M  V30 275 C 0.92393 -2.70051 -2.35271 0
M  V30 276 C -2.69977 -2.60345 -1.27078 0
M  V30 277 O -5.76007 2.25483 1.10476 0
M  V30 278 C -6.2452 3.53655 1.3167 0
M  V30 279 O -0.330877 4.08459 -0.365863 0
M  V30 280 O 5.51942 -3.077 1.82988 0
M  V30 281 C 4.97198 -3.46122 3.04603 0
M  V30 282 O 5.45898 -2.63075 -0.835963 0
M  V30 283 C -4.49496 -3.80109 0.804528 0
M  V30 284 C 4.20789 1.52052 -2.47287 0
M  V30 285 C 3.05632 3.29198 -1.53123 0
M  V30 286 C 5.52939 -3.95737 -1.19686 0
M  V30 287 C -5.30141 -3.25571 -1.29685 0
M  V30 288 C -1.02537 5.1809 -0.879312 0
M  V30 289 N -4.98288 -2.81804 -0.341387 0 CHG=1
M  V30 290 C -6.11873 -2.46289 0.434797 0
M  V30 291 C -6.54029 -1.07989 -0.0821334 0
M  V30 292 C -5.47198 -0.146252 0.332054 0
M  V30 293 C -4.06277 -0.527015 -0.0510631 0
M  V30 294 C -3.79725 -1.98345 -0.0729844 0 CFG=2
M  V30 295 C -5.6715 1.23893 -0.226068 0
M  V30 296 C -4.65686 2.21346 0.261793 0
M  V30 297 C -3.5389 1.66621 1.08449 0
M  V30 298 C -3.20278 0.234501 0.935267 0
M  V30 299 O -2.49057 2.55323 1.14278 0
M  V30 300 C -1.36656 2.35955 0.429155 0 CFG=1
M  V30 301 C -0.993224 3.6981 -0.239216 0
M  V30 302 C -0.298843 4.62436 0.720184 0
M  V30 303 C 0.845207 4.01397 1.45487 0
M  V30 304 C 1.09982 2.64191 0.817288 0 CFG=2
M  V30 305 C -0.163357 1.86984 1.19019 0
M  V30 306 C 2.35748 2.10284 1.34255 0
M  V30 307 C 3.17701 1.24405 0.359628 0 CFG=1
M  V30 308 N 4.05976 1.99842 -0.448065 0 CHG=1
M  V30 309 C 5.36241 2.25178 0.177498 0
M  V30 310 C 6.04716 0.936374 0.22758 0
M  V30 311 C 5.27157 0.138368 1.25054 0
M  V30 312 C 3.80789 0.05601 1.06187 0
M  V30 313 C 5.98567 -1.18357 1.33813 0
M  V30 314 C 5.60448 -1.98321 0.135632 0
M  V30 315 C 4.18107 -2.39443 0.394224 0 CFG=2
M  V30 316 C 3.22194 -1.26079 0.626252 0 CFG=2
M  V30 317 O 2.4326 -1.1688 -0.483888 0
M  V30 318 C 1.15246 -1.5409 -0.48039 0
M  V30 319 C 0.558011 -2.17778 0.720369 0
M  V30 320 C -0.906128 -2.49212 0.460486 0
M  V30 321 C -1.38706 -2.05195 -0.873603 0
M  V30 322 C -0.528131 -2.80368 -1.89619 0
M  V30 323 C 0.908201 -2.377 -1.74681 0
M  V30 324 C -2.80384 -2.4656 -1.08347 0
M  V30 325 O -5.38881 3.15532 1.00649 0
M  V30 326 C -5.43137 4.40457 0.464151 0
M  V30 327 O -2.10466 4.35539 -0.747187 0
M  V30 328 O 6.36235 -3.17353 0.185884 0
M  V30 329 C 7.07137 -3.36215 -1.00911 0
M  V30 330 O 4.25054 -3.27916 1.48265 0
M  V30 331 C -4.59497 -4.18192 0.0518697 0
M  V30 332 C 4.35021 1.32353 -1.7036 0
M  V30 333 C 3.61678 3.30377 -0.858774 0
M  V30 334 C 3.92731 -4.57792 1.10725 0
M  V30 335 C -5.29676 -2.85345 -1.7367 0
M  V30 336 C -2.10901 4.57514 -2.09283 0
M  V30 337 N -4.81895 -2.94998 0.207736 0 CHG=1
M  V30 338 C -5.98187 -2.43964 0.835654 0
M  V30 339 C -6.34176 -1.1431 0.0939584 0
M  V30 340 C -5.2786 -0.187134 0.458316 0
M  V30 341 C -3.86784 -0.654865 0.142833 0
M  V30 342 C -3.65433 -2.10873 0.21133 0 CFG=2
M  V30 343 C -5.389 1.1536 -0.220681 0
M  V30 344 C -4.43524 2.15881 0.384951 0
M  V30 345 C -3.45141 1.56283 1.29848 0
M  V30 346 C -3.02854 0.174981 1.08351 0
M  V30 347 O -2.35329 2.35789 1.58786 0
M  V30 348 C -1.41532 2.54904 0.619366 0 CFG=1
M  V30 349 C -1.21678 4.0285 0.410576 0 CFG=1
M  V30 350 C -0.126481 4.63791 1.24102 0
M  V30 351 C 0.852102 3.66588 1.80044 0
M  V30 352 C 1.11267 2.66785 0.655249 0 CFG=2
M  V30 353 C -0.146336 1.77913 0.754503 0
M  V30 354 C 2.34241 1.92952 0.979946 0
M  V30 355 C 3.1144 1.32323 -0.176503 0 CFG=1
M  V30 356 N 4.06022 2.24857 -0.747051 0 CHG=1
M  V30 357 C 5.1807 2.47401 0.135898 0
M  V30 358 C 5.93017 1.22512 0.384296 0
M  V30 359 C 5.0688 0.0726305 0.8235 0
M  V30 360 C 3.72581 -0.00047851 0.222105 0
M  V30 361 C 5.89174 -1.17453 0.627345 0
M  V30 362 C 4.97618 -2.36788 0.688217 0
M  V30 363 C 4.06727 -2.39828 -0.541158 0
M  V30 364 C 3.54889 -1.05248 -0.854943 0
M  V30 365 O 2.33569 -0.938586 -1.38437 0
M  V30 366 C 1.2105 -1.53598 -1.10092 0
M  V30 367 C 0.780014 -1.85814 0.274063 0
M  V30 368 C -0.566156 -2.54624 0.292367 0
M  V30 369 C -1.37198 -2.18487 -0.900469 0
M  V30 370 C -0.69441 -2.80465 -2.10879 0
M  V30 371 C 0.814464 -2.75561 -1.9577 0
M  V30 372 C -2.77693 -2.70885 -0.866237 0
M  V30 373 O -5.27335 3.09267 0.990004 0
M  V30 374 C -5.38961 4.29529 0.383222 0
M  V30 375 O -0.914707 4.29489 -0.919904 0
M  V30 376 O 5.76913 -3.49582 0.761996 0
M  V30 377 C 5.59352 -4.13738 1.95858 0
M  V30 378 O 4.88229 -2.8876 -1.5586 0
M  V30 379 C -4.45873 -4.1917 0.913001 0
M  V30 380 C 4.44268 1.89305 -2.08004 0
M  V30 381 C 3.48213 3.60184 -0.869324 0
M  V30 382 C 4.51966 -4.15963 -1.97186 0
M  V30 383 C -5.18335 -3.37861 -1.13553 0
M  V30 384 C -1.86536 5.15795 -1.45153 0
M  V30 385 H -6.3188 -1.77075 0.930287 0
M  V30 386 H -7.13681 -2.79449 -0.378742 0
M  V30 387 H -6.48877 -0.882653 -1.98464 0
M  V30 388 H -7.61462 -0.411031 -0.64118 0
M  V30 389 H -5.9696 0.357799 0.768263 0
M  V30 390 H -3.71055 0.146097 -1.19841 0
M  V30 391 H -3.71145 -1.98553 0.84372 0
M  V30 392 H -6.61872 2.01884 -1.01991 0
M  V30 393 H -5.20041 1.48202 -1.95073 0
M  V30 394 H -4.3238 3.34474 -0.900476 0
M  V30 395 H -3.30883 2.57064 1.46008 0
M  V30 396 H -4.27877 0.48293 1.77684 0
M  V30 397 H -2.63018 0.135654 1.2341 0
M  V30 398 H -1.64211 2.71167 1.64012 0
M  V30 399 H -0.29728 3.85393 -0.880645 0
M  V30 400 H -0.529124 5.17337 1.8687 0
M  V30 401 H 0.771739 5.23514 0.56363 0
M  V30 402 H 0.117059 3.07552 2.599 0
M  V30 403 H 1.68951 3.8859 2.37451 0
M  V30 404 H 1.35114 2.82246 -0.141608 0
M  V30 405 H -0.218503 0.876119 1.52493 0
M  V30 406 H -0.0132006 1.0573 -0.256053 0
M  V30 407 H 1.79927 0.834054 2.08907 0
M  V30 408 H 2.86183 2.22775 2.26058 0
M  V30 409 H 2.55303 0.652854 -0.346911 0
M  V30 410 H 5.34291 1.99574 1.76429 0
M  V30 411 H 6.24377 2.28822 0.200224 0
M  V30 412 H 7.01021 0.12918 1.24522 0
M  V30 413 H 6.00277 -0.157592 -0.270145 0
M  V30 414 H 5.03368 0.17611 2.61138 0
M  V30 415 H 2.98623 -0.549646 2.05751 0
M  V30 416 H 4.5232 -2.25224 2.66783 0
M  V30 417 H 6.31607 -1.8472 2.62914 0
M  V30 418 H 5.67703 -3.71695 1.20808 0
M  V30 419 H 3.90484 -3.62081 -0.131031 0
M  V30 420 H 2.83975 -1.19034 -0.688467 0
M  V30 421 H 0.541374 -1.2356 0.73458 0
M  V30 422 H 0.34279 -4.12646 -0.0252887 0
M  V30 423 H 0.388443 -3.6896 1.70296 0
M  V30 424 H -1.98342 -3.8756 0.370691 0
M  V30 425 H -1.65962 -2.45341 1.51315 0
M  V30 426 H -1.18991 -0.995616 -0.299522 0
M  V30 427 H -0.608601 -3.55384 -1.81104 0
M  V30 428 H -0.815917 -1.94148 -2.56055 0
M  V30 429 H 1.57143 -2.84222 -1.66948 0
M  V30 430 H 1.05 -1.06338 -1.65123 0
M  V30 431 H -2.89285 -1.45011 -2.07272 0
M  V30 432 H -2.96616 -3.16497 -1.50426 0
M  V30 433 H -6.03906 4.66869 -0.593863 0
M  V30 434 H -6.31701 5.10728 1.08901 0
M  V30 435 H -4.62164 5.06773 0.386973 0
M  V30 436 H 7.92701 -3.61736 1.20554 0
M  V30 437 H 8.50395 -2.95014 -0.409196 0
M  V30 438 H 7.23285 -4.18707 -0.408001 0
M  V30 439 H -5.89443 -4.34057 0.193127 0
M  V30 440 H -4.35267 -3.84742 0.923065 0
M  V30 441 H -4.35385 -4.53146 -0.719923 0
M  V30 442 H 4.51219 0.330453 -1.62018 0
M  V30 443 H 3.82391 1.90941 -2.01514 0
M  V30 444 H 5.57887 1.82891 -1.59233 0
M  V30 445 H 4.95503 3.70411 -0.122355 0
M  V30 446 H 3.48951 3.3921 -1.026 0
M  V30 447 H 3.49158 3.52835 0.832415 0
M  V30 448 H 3.64883 -3.76901 -2.41271 0
M  V30 449 H 5.29445 -4.2787 -1.81873 0
M  V30 450 H 5.15046 -3.14264 -3.19117 0
M  V30 451 H -4.80919 -1.86802 -2.59438 0
M  V30 452 H -6.30762 -2.88987 -2.27688 0
M  V30 453 H -4.72316 -3.64657 -2.37537 0
M  V30 454 H -3.06726 5.76208 -1.36879 0
M  V30 455 H -1.31884 5.92855 -1.59601 0
M  V30 456 H -2.21192 4.41791 -2.16199 0
M  V30 457 H -5.59083 -2.89166 1.58229 0
M  V30 458 H -6.7166 -2.37461 0.329394 0
M  V30 459 H -6.24771 -0.107544 0.585913 0
M  V30 460 H -6.10992 -0.801725 2.21755 0
M  V30 461 H -3.79051 -1.07692 2.1804 0
M  V30 462 H -2.40273 -0.294552 0.371268 0
M  V30 463 H -2.92045 -2.54524 0.507914 0
M  V30 464 H -3.1295 1.1766 2.41593 0
M  V30 465 H -4.88984 1.2414 2.65764 0
M  V30 466 H -3.7171 3.01997 1.30221 0
M  V30 467 H -3.85661 2.44721 -1.29574 0
M  V30 468 H -3.60045 0.248112 -1.92212 0
M  V30 469 H -5.07663 0.515197 -0.889139 0
M  V30 470 H -1.61337 2.63537 1.30465 0
M  V30 471 H -0.508122 3.77581 -1.27513 0
M  V30 472 H -0.891593 5.00955 1.49289 0
M  V30 473 H 0.407075 5.4328 0.252622 0
M  V30 474 H 0.321753 3.17908 2.27564 0
M  V30 475 H 1.66858 4.24631 1.82101 0
M  V30 476 H 1.25717 3.08774 -0.599833 0
M  V30 477 H 0.00391476 0.959021 1.16638 0
M  V30 478 H 0.127779 1.1578 -0.637271 0
M  V30 479 H 2.10916 1.29703 1.74292 0
M  V30 480 H 3.11816 2.70852 1.44336 0
M  V30 481 H 2.36098 0.708957 -0.716952 0
M  V30 482 H 6.09566 1.95702 -0.847096 0
M  V30 483 H 5.43302 1.69029 -2.4568 0
M  V30 484 H 6.48131 -0.270379 -1.42449 0
M  V30 485 H 4.67352 -0.572536 -1.64887 0
M  V30 486 H 5.81891 0.759621 0.853873 0
M  V30 487 H 3.77033 0.22788 1.75899 0
M  V30 488 H 6.89883 -1.17637 1.40344 0
M  V30 489 H 6.16421 -2.06877 0.0542127 0
M  V30 490 H 4.73137 -1.32979 2.64497 0
M  V30 491 H 3.18374 -3.03349 1.75565 0
M  V30 492 H 2.13549 -1.18009 1.0411 0
M  V30 493 H 0.768561 -1.04338 -0.185511 0
M  V30 494 H 1.35231 -3.78691 -1.33468 0
M  V30 495 H 1.1526 -3.26033 0.429555 0
M  V30 496 H -0.898985 -4.11524 -1.33184 0
M  V30 497 H -1.08247 -3.36199 0.272637 0
M  V30 498 H -1.05795 -1.13018 -0.771545 0
M  V30 499 H -0.45341 -2.74936 -3.25689 0
M  V30 500 H -1.03025 -1.05388 -3.3039 0
M  V30 501 H 1.55289 -1.69915 -3.10472 0
M  V30 502 H 0.839889 -0.16004 -2.47072 0
M  V30 503 H -3.12717 -1.6971 -2.4519 0
M  V30 504 H -2.8555 -3.33235 -1.82988 0
M  V30 505 H -6.87588 3.92137 0.923114 0
M  V30 506 H -5.6252 3.68457 2.14987 0
M  V30 507 H -5.13314 4.40006 0.605654 0
M  V30 508 H 4.59623 -3.01828 4.27973 0
M  V30 509 H 6.31726 -2.38126 4.21343 0
M  V30 510 H 5.98221 -4.11887 4.15036 0
M  V30 511 H -3.72577 -4.15827 0.548259 0
M  V30 512 H -5.45832 -4.48947 0.294878 0
M  V30 513 H -4.38544 -4.50373 -1.13591 0
M  V30 514 H 3.80991 2.09771 -3.05943 0
M  V30 515 H 2.33523 1.68948 -2.19228 0
M  V30 516 H 2.99646 3.38783 -2.18954 0
M  V30 517 H 4.9283 3.11138 0.618268 0
M  V30 518 H 4.98624 3.74679 -1.02874 0
M  V30 519 H 3.44118 3.90218 -0.177568 0
M  V30 520 H 4.49206 -5.21799 -0.60852 0
M  V30 521 H 2.92758 -4.97636 0.169058 0
M  V30 522 H 4.47471 -5.13673 1.15561 0
M  V30 523 H -5.31163 -1.49043 -2.14315 0
M  V30 524 H -6.53125 -2.63087 -1.48466 0
M  V30 525 H -5.01484 -3.26414 -2.30847 0
M  V30 526 H -3.34721 5.3642 -1.97925 0
M  V30 527 H -1.59055 5.53396 -2.22998 0
M  V30 528 H -2.45322 3.94463 -2.52615 0
M  V30 529 H -5.71575 -2.37825 1.57853 0
M  V30 530 H -6.71591 -3.28253 0.312633 0
M  V30 531 H -6.62072 -1.12957 -1.06874 0
M  V30 532 H -7.38034 -0.897551 0.513742 0
M  V30 533 H -5.42098 -0.220944 1.60955 0
M  V30 534 H -3.83388 0.00518362 -0.943054 0
M  V30 535 H -3.10256 -2.28156 0.759637 0
M  V30 536 H -6.68704 1.49809 0.371247 0
M  V30 537 H -5.59677 1.2874 -1.02078 0
M  V30 538 H -4.54221 3.06664 -0.0756914 0
M  V30 539 H -2.90786 2.15559 1.89992 0
M  V30 540 H -3.50589 -0.0798587 2.0922 0
M  V30 541 H -2.0741 -0.146477 1.06493 0
M  V30 542 H -1.35696 2.73418 1.66046 0
M  V30 543 H -0.701768 3.90502 -1.08256 0
M  V30 544 H -0.227656 5.27528 1.60565 0
M  V30 545 H 0.779397 5.2662 0.0548437 0
M  V30 546 H 0.56165 3.13373 2.22078 0
M  V30 547 H 2.06314 3.99106 1.62933 0
M  V30 548 H 1.13381 3.01041 -0.744726 0
M  V30 549 H 0.0741133 0.952576 1.19135 0
M  V30 550 H -0.177095 1.17696 -0.634223 0
M  V30 551 H 2.32356 1.20766 1.43426 0
M  V30 552 H 3.24468 2.60423 0.886072 0
M  V30 553 H 2.38871 0.691553 -1.28189 0
M  V30 554 H 4.91877 3.3429 0.00613035 0
M  V30 555 H 5.90438 2.79017 -1.34178 0
M  V30 556 H 6.42751 2.01205 1.05079 0
M  V30 557 H 6.62481 0.892195 -0.32122 0
M  V30 558 H 4.43802 0.839694 1.82924 0
M  V30 559 H 4.63236 -0.355281 -0.978871 0
M  V30 560 H 6.47369 -0.392273 2.17851 0
M  V30 561 H 6.59618 -0.859824 0.475226 0
M  V30 562 H 4.7868 -1.85558 2.73914 0
M  V30 563 H 3.41497 -3.0803 1.31977 0
M  V30 564 H 2.49202 -0.974669 1.05411 0
M  V30 565 H 0.829345 -0.975433 -0.294959 0
M  V30 566 H 0.864012 -3.97048 -0.810286 0
M  V30 567 H 1.05553 -3.24313 0.868921 0
M  V30 568 H -1.34098 -3.90217 -0.0920575 0
M  V30 569 H -1.08535 -2.49551 0.976141 0
M  V30 570 H -1.08511 -0.971484 -0.950142 0
M  V30 571 H -0.669066 -3.54518 -2.39247 0
M  V30 572 H -1.17682 -2.04458 -3.27193 0
M  V30 573 H 1.4127 -2.65043 -2.78305 0
M  V30 574 H 0.900605 -0.944845 -2.79544 0
M  V30 575 H -3.07666 -1.41662 -2.14774 0
M  V30 576 H -2.97949 -3.17203 -1.7924 0
M  V30 577 H -6.16911 4.20102 0.779402 0
M  V30 578 H -5.97497 4.55659 2.49905 0
M  V30 579 H -4.55994 4.66799 1.3577 0
M  V30 580 H 5.33338 -3.95585 3.42885 0
M  V30 581 H 6.7509 -2.8151 3.71263 0
M  V30 582 H 6.97151 -4.38833 2.89674 0
M  V30 583 H -3.83075 -4.14968 1.05537 0
M  V30 584 H -3.84602 -4.68172 -0.718349 0
M  V30 585 H -5.31193 -4.78088 0.286912 0
M  V30 586 H 5.62484 0.820059 -2.29384 0
M  V30 587 H 3.88217 0.336515 -2.73143 0
M  V30 588 H 4.62934 1.78468 -3.40499 0
M  V30 589 H 4.21342 3.49015 -2.66229 0
M  V30 590 H 2.5799 2.85066 -2.61972 0
M  V30 591 H 3.26195 3.92503 -1.25631 0
M  V30 592 H 4.55961 -5.125 -1.08376 0
M  V30 593 H 3.07175 -4.67695 -0.161761 0
M  V30 594 H 4.59578 -4.96597 0.670839 0
M  V30 595 H -4.99308 -2.09132 -2.30439 0
M  V30 596 H -6.35994 -3.04452 -1.70954 0
M  V30 597 H -4.84987 -3.86532 -2.1646 0
M  V30 598 H -3.59293 5.677 -0.739201 0
M  V30 599 H -2.01601 5.89247 -1.51509 0
M  V30 600 H -2.95968 4.3237 -1.70664 0
M  V30 601 H -6.06841 -2.045 1.84311 0
M  V30 602 H -6.97902 -3.07887 0.648466 0
M  V30 603 H -6.53414 -1.29851 -1.09757 0
M  V30 604 H -7.39982 -0.691731 0.380893 0
M  V30 605 H -5.46652 0.1371 1.38605 0
M  V30 606 H -3.75654 -0.578159 -0.983826 0
M  V30 607 H -3.5293 -2.2053 1.51116 0
M  V30 608 H -6.42961 1.45199 -0.57312 0
M  V30 609 H -5.06991 0.836927 -1.51747 0
M  V30 610 H -3.99139 2.65892 -0.824859 0
M  V30 611 H -4.05719 1.67765 2.0688 0
M  V30 612 H -3.02602 -0.292124 1.95211 0
M  V30 613 H -2.02511 0.18978 0.599867 0
M  V30 614 H -1.84036 2.17012 -0.552979 0
M  V30 615 H -2.09557 4.57425 0.312266 0
M  V30 616 H -0.622416 5.29447 1.85691 0
M  V30 617 H 0.491681 5.36353 0.474729 0
M  V30 618 H 0.235695 3.19517 2.58343 0
M  V30 619 H 1.70017 4.17962 2.04631 0
M  V30 620 H 1.04142 3.09131 -0.34526 0
M  V30 621 H -0.184277 1.24544 1.64821 0
M  V30 622 H 0.0420965 1.02764 -0.150242 0
M  V30 623 H 2.04022 1.09153 1.71032 0
M  V30 624 H 2.95017 2.60913 1.72409 0
M  V30 625 H 2.43089 1.06643 -0.849299 0
M  V30 626 H 5.11502 2.5863 1.16271 0
M  V30 627 H 5.81856 3.35862 -0.366988 0
M  V30 628 H 7.07319 1.39277 0.230291 0
M  V30 629 H 6.18084 1.02352 -1.25885 0
M  V30 630 H 5.67794 0.312357 1.62647 0
M  V30 631 H 3.50754 -0.0163702 1.50511 0
M  V30 632 H 7.07432 -1.19713 0.716775 0
M  V30 633 H 6.42688 -1.01775 -0.925953 0
M  V30 634 H 4.7513 -2.31177 1.24578 0
M  V30 635 H 3.73811 -3.09819 -0.931204 0
M  V30 636 H 2.55596 -0.819851 -1.04049 0
M  V30 637 H 0.92144 -1.14395 -0.257569 0
M  V30 638 H 0.975772 -3.13235 2.08294 0
M  V30 639 H 0.535896 -1.42361 2.24765 0
M  V30 640 H -1.10209 -3.80532 1.57364 0
M  V30 641 H -1.60129 -2.18453 2.07722 0
M  V30 642 H -0.999703 -1.58318 -0.543435 0
M  V30 643 H -0.746195 -4.6022 -0.44105 0
M  V30 644 H -0.72593 -3.50057 -1.91574 0
M  V30 645 H 1.44391 -4.18007 -0.222432 0
M  V30 646 H 1.44661 -3.07565 -1.6024 0
M  V30 647 H -2.87647 -2.35566 -1.51087 0
M  V30 648 H -2.90996 -3.8703 -0.503303 0
M  V30 649 H -5.75558 4.06635 -1.11006 0
M  V30 650 H -6.10279 5.04326 0.316742 0
M  V30 651 H -4.37484 4.73975 -0.23251 0
M  V30 652 H 4.7872 -4.62474 1.31093 0
M  V30 653 H 6.34664 -4.02174 2.11265 0
M  V30 654 H 6.36374 -5.3247 0.907883 0
M  V30 655 H -5.47799 -4.40042 1.68641 0
M  V30 656 H -3.73229 -4.27293 1.35444 0
M  V30 657 H -4.86223 -5.06329 0.135855 0
M  V30 658 H 4.40734 0.90816 -2.25219 0
M  V30 659 H 3.53468 2.37581 -2.67568 0
M  V30 660 H 5.26717 2.54915 -2.34959 0
M  V30 661 H 4.40042 4.29169 -1.05172 0
M  V30 662 H 2.85235 3.79134 -1.67344 0
M  V30 663 H 3.14235 4.09631 0.147451 0
M  V30 664 H 4.9811 -3.72634 -2.66873 0
M  V30 665 H 3.43817 -2.95037 -3.08604 0
M  V30 666 H 4.89278 -2.45609 -3.98436 0
M  V30 667 H -4.73288 -4.11758 -1.50174 0
M  V30 668 H -6.30807 -3.30997 -1.34481 0
M  V30 669 H -4.90755 -2.311 -1.79746 0
M  V30 670 H -1.45153 5.25306 -2.86548 0
M  V30 671 H -2.67845 4.45469 -1.8884 0
M  V30 672 H -1.99496 5.95498 -1.23038 0
M  V30 673 H -5.54454 -2.19821 1.75723 0
M  V30 674 H -6.45074 -3.30285 0.597674 0
M  V30 675 H -6.25625 -1.38869 -1.10013 0
M  V30 676 H -7.209 -0.972209 0.360361 0
M  V30 677 H -5.41582 -0.0667105 1.5339 0
M  V30 678 H -3.50719 0.0342974 -0.823547 0
M  V30 679 H -2.75086 -2.17026 0.819683 0
M  V30 680 H -6.55282 1.48249 -0.177277 0
M  V30 681 H -5.18043 1.127 -1.23366 0
M  V30 682 H -4.19139 2.92838 -0.30791 0
M  V30 683 H -3.88758 1.79456 2.39898 0
M  V30 684 H -1.97886 0.102234 1.18642 0
M  V30 685 H -3.35823 -0.325373 2.16022 0
M  V30 686 H -1.81886 2.00454 -0.516031 0
M  V30 687 H -0.468621 3.87102 -0.999719 0
M  V30 688 H -1.00657 4.75306 1.89727 0
M  V30 689 H 0.0723945 5.583 0.648278 0
M  V30 690 H 0.639746 3.37501 2.57338 0
M  V30 691 H 1.74517 4.44422 1.69917 0
M  V30 692 H 1.099 2.82032 -0.411161 0
M  V30 693 H -0.242782 1.53225 1.91778 0
M  V30 694 H 0.00322081 0.904376 0.180081 0
M  V30 695 H 3.01982 2.54337 1.67432 0
M  V30 696 H 1.98404 1.13404 1.80089 0
M  V30 697 H 2.16707 0.613451 -0.491728 0
M  V30 698 H 5.61543 2.43077 -0.632312 0
M  V30 699 H 5.3137 1.98789 -2.3459 0
M  V30 700 H 6.53289 0.11749 -1.26717 0
M  V30 701 H 4.78757 -0.419712 -1.4976 0
M  V30 702 H 5.65256 1.13936 0.908795 0
M  V30 703 H 3.73499 0.211601 1.80479 0
M  V30 704 H 6.89535 -0.573957 1.74233 0
M  V30 705 H 6.85233 -1.27535 0.133127 0
M  V30 706 H 4.94756 -1.62422 2.50175 0
M  V30 707 H 3.75654 -3.24111 1.24259 0
M  V30 708 H 2.39028 -1.45751 1.16937 0
M  V30 709 H 0.793774 -1.25926 0.0281629 0
M  V30 710 H 1.12349 -3.78057 -1.60015 0
M  V30 711 H 1.35534 -3.67803 0.239203 0
M  V30 712 H -1.04441 -4.13026 -0.732763 0
M  V30 713 H -0.737406 -3.0339 0.676892 0
M  V30 714 H -1.07061 -1.04974 -0.656441 0
M  V30 715 H -0.389478 -2.94743 -2.86186 0
M  V30 716 H -1.13113 -1.26857 -3.1179 0
M  V30 717 H 1.49551 -1.51522 -2.95853 0
M  V30 718 H 0.583295 -0.18015 -2.09331 0
M  V30 719 H -3.00277 -1.43563 -2.09329 0
M  V30 720 H -2.86655 -3.22985 -1.64252 0
M  V30 721 H -5.92216 4.25926 -0.249369 0
M  V30 722 H -6.34191 4.87468 1.34455 0
M  V30 723 H -4.5868 4.81192 0.792014 0
M  V30 724 H 5.1468 -3.70496 3.5995 0
M  V30 725 H 6.70372 -2.73219 3.79863 0
M  V30 726 H 6.73685 -4.4212 3.26029 0
M  V30 727 H -4.87073 -4.60879 1.1893 0
M  V30 728 H -3.26454 -3.86521 1.41336 0
M  V30 729 H -3.62592 -4.80188 -0.0660338 0
M  V30 730 H 3.20355 0.486887 -2.59587 0
M  V30 731 H 2.00301 1.89705 -2.4314 0
M  V30 732 H 3.5965 2.10737 -3.17576 0
M  V30 733 H 4.44168 3.86901 -1.26004 0
M  V30 734 H 3.28191 3.69015 0.0252044 0
M  V30 735 H 2.78658 3.73075 -1.75513 0
M  V30 736 H 5.05176 -4.86259 0.216755 0
M  V30 737 H 4.73015 -4.7846 -1.5953 0
M  V30 738 H 3.43971 -4.59982 -0.419896 0
M  V30 739 H -4.57762 -4.30684 -1.57777 0
M  V30 740 H -6.06837 -3.39915 -1.35892 0
M  V30 741 H -4.72378 -2.52774 -2.09332 0
M  V30 742 H -3.10817 5.79429 -1.73169 0
M  V30 743 H -1.34762 5.93128 -1.83894 0
M  V30 744 H -2.22964 4.41702 -2.43443 0
M  V30 745 H -5.77213 -1.90635 1.64503 0
M  V30 746 H -6.78108 -2.59847 0.377603 0
M  V30 747 H -7.1299 -0.660619 -0.705568 0
M  V30 748 H -6.44255 0.0644203 0.75811 0
M  V30 749 H -5.28253 -0.445477 -1.98141 0
M  V30 750 H -3.04939 -0.00975777 -1.19877 0
M  V30 751 H -2.99648 -2.0621 0.727967 0
M  V30 752 H -6.26893 1.67158 -1.3315 0
M  V30 753 H -4.61623 1.78603 -1.91865 0
M  V30 754 H -4.63038 3.27279 -0.212187 0
M  V30 755 H -3.32008 2.15639 1.76602 0
M  V30 756 H -4.38037 0.0280126 1.52205 0
M  V30 757 H -2.62955 -0.14478 1.41598 0
M  V30 758 H -1.52278 1.96262 1.88669 0
M  V30 759 H -1.63788 4.44074 1.20995 0
M  V30 760 H -0.0899886 4.44247 2.82756 0
M  V30 761 H 1.10251 4.45102 1.49417 0
M  V30 762 H 0.0562606 2.07061 3.14153 0
M  V30 763 H 1.69635 2.77601 3.03833 0
M  V30 764 H 1.27219 0.601828 1.73263 0
M  V30 765 H -0.407417 0.484357 0.289252 0
M  V30 766 H 0.15064 1.9396 -0.662177 0
M  V30 767 H 3.12966 2.17335 1.5254 0
M  V30 768 H 2.20251 3.16275 0.38865 0
M  V30 769 H 2.10497 0.927614 -1.02739 0
M  V30 770 H 4.55267 3.178 0.375718 0
M  V30 771 H 5.61918 3.12799 -1.0414 0
M  V30 772 H 6.53424 1.82997 0.760331 0
M  V30 773 H 6.26362 0.92307 -0.736288 0
M  V30 774 H 4.69812 0.901576 1.89648 0
M  V30 775 H 2.9201 -0.265091 1.06815 0
M  V30 776 H 6.19396 -0.693118 2.20857 0
M  V30 777 H 6.56668 -0.966081 0.498758 0
M  V30 778 H 4.00604 -1.75779 1.98841 0
M  V30 779 H 3.69577 -3.21916 -0.0271933 0
M  V30 780 H 4.41088 -0.751978 -1.46896 0
M  V30 781 H 0.621051 -0.905422 -1.35472 0
M  V30 782 H 1.20192 -3.5139 -0.0242488 0
M  V30 783 H 1.2559 -1.95728 0.963954 0
M  V30 784 H -1.00896 -3.47448 0.376368 0
M  V30 785 H -0.980981 -1.77074 0.858392 0
M  V30 786 H -1.33503 -1.00842 -1.28947 0
M  V30 787 H -0.956645 -3.77058 -2.57162 0
M  V30 788 H -0.863522 -2.14261 -3.33425 0
M  V30 789 H 1.23066 -3.73149 -2.02633 0
M  V30 790 H 1.39519 -2.4275 -3.29658 0
M  V30 791 H -3.01565 -2.39301 -2.32065 0
M  V30 792 H -2.76995 -3.67955 -1.11383 0
M  V30 793 H -7.02546 3.46023 2.10163 0
M  V30 794 H -5.48737 4.2429 1.65529 0
M  V30 795 H -6.73693 3.96471 0.418456 0
M  V30 796 H 4.98474 -2.64611 3.79663 0
M  V30 797 H 3.95449 -3.87373 2.88629 0
M  V30 798 H 5.59546 -4.28178 3.45295 0
M  V30 799 H -5.40378 -4.112 1.35346 0
M  V30 800 H -3.75015 -3.51786 1.57874 0
M  V30 801 H -4.15714 -4.67809 0.216699 0
M  V30 802 H 5.24506 1.12706 -2.52455 0
M  V30 803 H 3.42887 0.869919 -2.8723 0
M  V30 804 H 4.24398 2.38556 -3.21725 0
M  V30 805 H 3.35893 3.63973 -2.5701 0
M  V30 806 H 1.98796 3.11505 -1.60892 0
M  V30 807 H 3.36142 4.14427 -0.89147 0
M  V30 808 H 4.73341 -4.33214 -1.82743 0
M  V30 809 H 5.72011 -4.62621 -0.323763 0
M  V30 810 H 6.47547 -4.04752 -1.80811 0
M  V30 811 H -5.00112 -2.79457 -2.22932 0
M  V30 812 H -6.43075 -3.27945 -1.28766 0
M  V30 813 H -5.00481 -4.34216 -1.38702 0
M  V30 814 H -0.597834 5.3958 -1.87845 0
M  V30 815 H -2.10507 4.93856 -0.938028 0
M  V30 816 H -0.850144 6.04079 -0.205121 0
M  V30 817 H -5.89559 -2.35425 1.50869 0
M  V30 818 H -6.89694 -3.20791 0.285464 0
M  V30 819 H -6.77025 -1.09893 -1.15759 0
M  V30 820 H -7.45688 -0.828378 0.492894 0
M  V30 821 H -5.54244 -0.0347649 1.45467 0
M  V30 822 H -3.8328 -0.110067 -1.05282 0
M  V30 823 H -3.53985 -2.28499 0.985439 0
M  V30 824 H -6.73117 1.55348 -0.0604586 0
M  V30 825 H -5.61531 1.11014 -1.34802 0
M  V30 826 H -4.24876 2.71476 -0.635587 0
M  V30 827 H -3.96273 1.73536 2.16256 0
M  V30 828 H -3.33064 -0.359377 1.90333 0
M  V30 829 H -2.13082 0.148569 0.735986 0
M  V30 830 H -1.52056 1.65649 -0.431406 0
M  V30 831 H -0.376922 3.52615 -1.14926 0
M  V30 832 H -0.990595 5.05857 1.46684 0
M  V30 833 H 0.108207 5.49498 0.156355 0
M  V30 834 H 0.53799 3.78887 2.52433 0
M  V30 835 H 1.74936 4.60292 1.54095 0
M  V30 836 H 1.14406 2.6537 -0.26394 0
M  V30 837 H -0.356011 2.10946 2.27678 0
M  V30 838 H 0.0612366 0.817045 1.123 0
M  V30 839 H 2.10447 1.37855 2.17451 0
M  V30 840 H 3.02739 2.85243 1.84709 0
M  V30 841 H 2.39318 0.844041 -0.3183 0
M  V30 842 H 5.22118 2.62779 1.20025 0
M  V30 843 H 5.89367 2.97876 -0.482741 0
M  V30 844 H 7.085 1.06083 0.652924 0
M  V30 845 H 6.19742 0.4417 -0.734691 0
M  V30 846 H 5.56175 0.653852 2.22467 0
M  V30 847 H 3.41631 0.163621 2.13686 0
M  V30 848 H 5.71707 -1.7452 2.23484 0
M  V30 849 H 7.07513 -0.974288 1.36005 0
M  V30 850 H 5.78683 -1.53974 -0.83335 0
M  V30 851 H 3.87671 -3.01658 -0.483047 0
M  V30 852 H 2.53717 -1.70012 1.42435 0
M  V30 853 H 0.560694 -0.597739 -0.683121 0
M  V30 854 H 1.03144 -3.14414 0.99919 0
M  V30 855 H 0.559374 -1.45194 1.5584 0
M  V30 856 H -1.09603 -3.60955 0.491843 0
M  V30 857 H -1.55444 -2.11096 1.27795 0
M  V30 858 H -1.30214 -1.00988 -1.14472 0
M  V30 859 H -0.604232 -3.89081 -1.60945 0
M  V30 860 H -0.930531 -2.6176 -2.90185 0
M  V30 861 H 1.61817 -3.21015 -1.77143 0
M  V30 862 H 1.15025 -1.7036 -2.59685 0
M  V30 863 H -3.1354 -2.1378 -2.0679 0
M  V30 864 H -2.84506 -3.5828 -1.07648 0
M  V30 865 H -6.06044 5.02755 1.17247 0
M  V30 866 H -4.48366 4.94846 0.40365 0
M  V30 867 H -6.00402 4.38993 -0.487365 0
M  V30 868 H 7.75677 -2.47439 -1.13616 0
M  V30 869 H 6.34743 -3.45509 -1.82724 0
M  V30 870 H 7.71928 -4.23552 -0.910641 0
M  V30 871 H -3.69405 -4.19326 0.67436 0
M  V30 872 H -5.40323 -4.66292 0.666239 0
M  V30 873 H -4.43207 -4.83353 -0.815329 0
M  V30 874 H 4.41981 0.245283 -1.6515 0
M  V30 875 H 3.51594 1.53913 -2.43825 0
M  V30 876 H 5.2491 1.79435 -2.2032 0
M  V30 877 H 4.51735 3.81349 -1.33663 0
M  V30 878 H 3.33501 3.98796 -0.0722028 0
M  V30 879 H 2.90966 3.25978 -1.73562 0
M  V30 880 H 3.97204 -5.28905 1.93075 0
M  V30 881 H 4.6884 -4.89001 0.361839 0
M  V30 882 H 2.9444 -4.59865 0.568329 0
M  V30 883 H -5.21343 -1.86892 -2.23568 0
M  V30 884 H -6.37018 -3.15363 -1.85104 0
M  V30 885 H -4.71813 -3.62769 -2.27517 0
M  V30 886 H -3.06021 5.1036 -2.33384 0
M  V30 887 H -1.30166 5.26701 -2.43784 0
M  V30 888 H -2.12616 3.64148 -2.71427 0
M  V30 889 H -5.8132 -2.13468 1.8859 0
M  V30 890 H -6.79752 -3.14832 0.71234 0
M  V30 891 H -6.54051 -1.29595 -0.960024 0
M  V30 892 H -7.28856 -0.801761 0.565851 0
M  V30 893 H -5.39186 0.0279664 1.56416 0
M  V30 894 H -3.6459 -0.344358 -0.922484 0
M  V30 895 H -3.1176 -2.3211 1.18316 0
M  V30 896 H -6.44153 1.48511 -0.246164 0
M  V30 897 H -5.14572 0.943378 -1.30656 0
M  V30 898 H -4.00968 2.69945 -0.512939 0
M  V30 899 H -3.9897 1.54633 2.31953 0
M  V30 900 H -3.04355 -0.436797 2.05352 0
M  V30 901 H -1.96067 0.172991 0.822634 0
M  V30 902 H -1.88821 2.18598 -0.344375 0
M  V30 903 H -2.13316 4.59217 0.651443 0
M  V30 904 H -0.542505 5.22152 2.11638 0
M  V30 905 H 0.449228 5.39958 0.663312 0
M  V30 906 H 0.477706 3.11402 2.68792 0
M  V30 907 H 1.77709 4.19386 2.06342 0
M  V30 908 H 1.02022 3.12558 -0.326217 0
M  V30 909 H -0.0329552 1.22438 1.70277 0
M  V30 910 H 0.0223543 1.06693 -0.100715 0
M  V30 911 H 2.04562 1.04244 1.61766 0
M  V30 912 H 2.99571 2.52674 1.64985 0
M  V30 913 H 2.36183 1.11283 -0.964942 0
M  V30 914 H 4.86308 3.02649 1.01789 0
M  V30 915 H 5.87249 3.17214 -0.423512 0
M  V30 916 H 6.69699 1.45564 1.18378 0
M  V30 917 H 6.54612 0.991477 -0.510223 0
M  V30 918 H 5.00353 0.191394 1.95219 0
M  V30 919 H 3.03961 -0.375732 1.04845 0
M  V30 920 H 6.60015 -1.25447 1.47049 0
M  V30 921 H 6.5068 -1.14449 -0.28922 0
M  V30 922 H 4.40085 -2.28644 1.63068 0
M  V30 923 H 3.33825 -3.19523 -0.348691 0
M  V30 924 H 4.24758 -0.66646 -1.6733 0
M  V30 925 H 0.425493 -0.787613 -1.47468 0
M  V30 926 H 1.43609 -2.54127 0.842796 0
M  V30 927 H 0.72848 -0.938698 0.90917 0
M  V30 928 H -0.479886 -3.64017 0.423466 0
M  V30 929 H -1.09077 -2.1856 1.22571 0
M  V30 930 H -1.44805 -1.10727 -1.08605 0
M  V30 931 H -1.02352 -3.84969 -2.27315 0
M  V30 932 H -0.971639 -2.2208 -3.02421 0
M  V30 933 H 1.0975 -3.69515 -1.42901 0
M  V30 934 H 1.23247 -2.68667 -2.97196 0
M  V30 935 H -3.19852 -2.58895 -1.88362 0
M  V30 936 H -2.72605 -3.79947 -0.667439 0
M  V30 937 H -5.79324 4.10472 -0.656759 0
M  V30 938 H -6.14013 4.97438 0.832394 0
M  V30 939 H -4.44088 4.83914 0.239851 0
M  V30 940 H 4.55933 -4.449 2.09485 0
M  V30 941 H 5.99829 -3.5318 2.81858 0
M  V30 942 H 6.2227 -5.07584 1.97985 0
M  V30 943 H -5.37096 -4.60551 1.42961 0
M  V30 944 H -3.7207 -4.01835 1.69361 0
M  V30 945 H -4.14271 -4.9814 0.202364 0
M  V30 946 H 5.39773 1.33984 -2.15319 0
M  V30 947 H 3.58878 1.42667 -2.58603 0
M  V30 948 H 4.63962 2.8338 -2.683 0
M  V30 949 H 4.39244 4.22543 -1.15442 0
M  V30 950 H 2.82603 3.70606 -1.72749 0
M  V30 951 H 3.17079 4.02415 0.0802066 0
M  V30 952 H 5.14619 -4.55973 -2.76698 0
M  V30 953 H 3.42944 -4.14419 -2.20536 0
M  V30 954 H 4.62911 -4.82613 -1.09006 0
M  V30 955 H -4.55309 -4.2376 -1.46061 0
M  V30 956 H -6.22274 -3.81351 -1.05169 0
M  V30 957 H -5.23524 -2.57174 -1.86183 0
M  V30 958 H -1.65074 5.397 -2.51565 0
M  V30 959 H -2.82355 4.55794 -1.49228 0
M  V30 960 H -2.0715 6.03001 -0.830273 0
M  V30 END ATOM
M  V30 BEGIN BOND
M  V30 1 1 1 2
M  V30 2 1 2 3
M  V30 3 1 3 4
M  V30 4 1 4 5
M  V30 5 1 1 6
M  V30 6 1 5 6
M  V30 7 1 4 7
M  V30 8 1 7 8
M  V30 9 1 8 9
M  V30 10 1 5 10
M  V30 11 1 9 10
M  V30 12 1 9 11
M  V30 13 1 11 12
M  V30 14 1 12 13
M  V30 15 1 13 14
M  V30 16 1 14 15
M  V30 17 1 15 16
M  V30 18 1 12 17
M  V30 19 1 16 17
M  V30 20 1 16 18
M  V30 21 1 18 19
M  V30 22 1 19 20
M  V30 23 1 20 21
M  V30 24 1 21 22
M  V30 25 1 22 23
M  V30 26 1 19 24
M  V30 27 1 23 24
M  V30 28 1 23 25
M  V30 29 1 25 26
M  V30 30 1 26 27
M  V30 31 1 24 28
M  V30 32 1 27 28
M  V30 33 1 28 29
M  V30 34 1 29 30
M  V30 35 1 30 31
M  V30 36 1 31 32
M  V30 37 1 32 33
M  V30 38 1 33 34
M  V30 39 1 30 35
M  V30 40 1 34 35
M  V30 41 1 6 36
M  V30 42 1 33 36
M  V30 43 1 8 37
M  V30 44 1 37 38
M  V30 45 1 13 39
M  V30 46 1 26 40
M  V30 47 1 40 41
M  V30 48 1 27 42
M  V30 49 1 1 43
M  V30 50 1 20 44
M  V30 51 1 20 45
M  V30 52 1 42 46
M  V30 53 1 1 47
M  V30 54 1 39 48
M  V30 55 1 49 50
M  V30 56 1 50 51
M  V30 57 1 51 52
M  V30 58 1 52 53
M  V30 59 1 49 54
M  V30 60 1 53 54
M  V30 61 1 52 55
M  V30 62 1 55 56
M  V30 63 1 56 57
M  V30 64 1 53 58
M  V30 65 1 57 58
M  V30 66 1 57 59
M  V30 67 1 59 60
M  V30 68 1 60 61
M  V30 69 1 61 62
M  V30 70 1 62 63
M  V30 71 1 63 64
M  V30 72 1 60 65
M  V30 73 1 64 65
M  V30 74 1 64 66
M  V30 75 1 66 67
M  V30 76 1 67 68
M  V30 77 1 68 69
M  V30 78 1 69 70
M  V30 79 1 70 71
M  V30 80 1 67 72
M  V30 81 1 71 72
M  V30 82 1 71 73
M  V30 83 1 73 74
M  V30 84 1 74 75
M  V30 85 1 72 76
M  V30 86 1 75 76
M  V30 87 1 76 77
M  V30 88 1 77 78
M  V30 89 1 78 79
M  V30 90 1 79 80
M  V30 91 1 80 81
M  V30 92 1 81 82
M  V30 93 1 78 83
M  V30 94 1 82 83
M  V30 95 1 54 84
M  V30 96 1 81 84
M  V30 97 1 56 85
M  V30 98 1 85 86
M  V30 99 1 61 87
M  V30 100 1 74 88
M  V30 101 1 88 89
M  V30 102 1 75 90
M  V30 103 1 49 91
M  V30 104 1 68 92
M  V30 105 1 68 93
M  V30 106 1 90 94
M  V30 107 1 49 95
M  V30 108 1 87 96
M  V30 109 1 97 98
M  V30 110 1 98 99
M  V30 111 1 99 100
M  V30 112 1 100 101
M  V30 113 1 97 102
M  V30 114 1 101 102
M  V30 115 1 100 103
M  V30 116 1 103 104
M  V30 117 1 104 105
M  V30 118 1 101 106
M  V30 119 1 105 106
M  V30 120 1 105 107
M  V30 121 1 107 108
M  V30 122 1 108 109
M  V30 123 1 109 110
M  V30 124 1 110 111
M  V30 125 1 111 112
M  V30 126 1 108 113
M  V30 127 1 112 113
M  V30 128 1 112 114
M  V30 129 1 114 115
M  V30 130 1 115 116
M  V30 131 1 116 117
M  V30 132 1 117 118
M  V30 133 1 118 119
M  V30 134 1 115 120
M  V30 135 1 119 120
M  V30 136 1 119 121
M  V30 137 1 121 122
M  V30 138 1 122 123
M  V30 139 1 120 124
M  V30 140 1 123 124
M  V30 141 1 124 125
M  V30 142 1 125 126
M  V30 143 1 126 127
M  V30 144 1 127 128
M  V30 145 1 128 129
M  V30 146 1 129 130
M  V30 147 1 126 131
M  V30 148 1 130 131
M  V30 149 1 102 132
M  V30 150 1 129 132
M  V30 151 1 104 133
M  V30 152 1 133 134
M  V30 153 1 109 135
M  V30 154 1 122 136
M  V30 155 1 136 137
M  V30 156 1 123 138
M  V30 157 1 97 139
M  V30 158 1 116 140
M  V30 159 1 116 141
M  V30 160 1 138 142
M  V30 161 1 97 143
M  V30 162 1 135 144
M  V30 163 1 145 146
M  V30 164 1 146 147
M  V30 165 1 147 148
M  V30 166 1 148 149
M  V30 167 1 145 150
M  V30 168 1 149 150
M  V30 169 1 148 151
M  V30 170 1 151 152
M  V30 171 1 152 153
M  V30 172 1 149 154
M  V30 173 1 153 154
M  V30 174 1 153 155
M  V30 175 1 155 156
M  V30 176 1 156 157
M  V30 177 1 157 158
M  V30 178 1 158 159
M  V30 179 1 159 160
M  V30 180 1 156 161
M  V30 181 1 160 161
M  V30 182 1 160 162
M  V30 183 1 162 163
M  V30 184 1 163 164
M  V30 185 1 164 165
M  V30 186 1 165 166
M  V30 187 1 166 167
M  V30 188 1 163 168
M  V30 189 1 167 168
M  V30 190 1 167 169
M  V30 191 1 169 170
M  V30 192 1 170 171
M  V30 193 1 168 172
M  V30 194 1 171 172
M  V30 195 1 172 173
M  V30 196 1 173 174
M  V30 197 1 174 175
M  V30 198 1 175 176
M  V30 199 1 176 177
M  V30 200 1 177 178
M  V30 201 1 174 179
M  V30 202 1 178 179
M  V30 203 1 150 180
M  V30 204 1 177 180
M  V30 205 1 152 181
M  V30 206 1 181 182
M  V30 207 1 157 183
M  V30 208 1 170 184
M  V30 209 1 184 185
M  V30 210 1 171 186
M  V30 211 1 145 187
M  V30 212 1 164 188
M  V30 213 1 164 189
M  V30 214 1 186 190
M  V30 215 1 145 191
M  V30 216 1 183 192
M  V30 217 1 193 194
M  V30 218 1 194 195
M  V30 219 1 195 196
M  V30 220 1 196 197
M  V30 221 1 193 198
M  V30 222 1 197 198
M  V30 223 1 196 199
M  V30 224 1 199 200
M  V30 225 1 200 201
M  V30 226 1 197 202
M  V30 227 1 201 202
M  V30 228 1 201 203
M  V30 229 1 203 204
M  V30 230 1 204 205
M  V30 231 1 205 206
M  V30 232 1 206 207
M  V30 233 1 207 208
M  V30 234 1 204 209
M  V30 235 1 208 209
M  V30 236 1 208 210
M  V30 237 1 210 211
M  V30 238 1 211 212
M  V30 239 1 212 213
M  V30 240 1 213 214
M  V30 241 1 214 215
M  V30 242 1 211 216
M  V30 243 1 215 216
M  V30 244 1 215 217
M  V30 245 1 217 218
M  V30 246 1 218 219
M  V30 247 1 216 220
M  V30 248 1 219 220
M  V30 249 1 220 221
M  V30 250 1 221 222
M  V30 251 1 222 223
M  V30 252 1 223 224
M  V30 253 1 224 225
M  V30 254 1 225 226
M  V30 255 1 222 227
M  V30 256 1 226 227
M  V30 257 1 198 228
M  V30 258 1 225 228
M  V30 259 1 200 229
M  V30 260 1 229 230
M  V30 261 1 205 231
M  V30 262 1 218 232
M  V30 263 1 232 233
M  V30 264 1 219 234
M  V30 265 1 193 235
M  V30 266 1 212 236
M  V30 267 1 212 237
M  V30 268 1 234 238
M  V30 269 1 193 239
M  V30 270 1 231 240
M  V30 271 1 241 242
M  V30 272 1 242 243
M  V30 273 1 243 244
M  V30 274 1 244 245
M  V30 275 1 241 246
M  V30 276 1 245 246
M  V30 277 1 244 247
M  V30 278 1 247 248
M  V30 279 1 248 249
M  V30 280 1 245 250
M  V30 281 1 249 250
M  V30 282 1 249 251
M  V30 283 1 251 252
M  V30 284 1 252 253
M  V30 285 1 253 254
M  V30 286 1 254 255
M  V30 287 1 255 256
M  V30 288 1 252 257
M  V30 289 1 256 257
M  V30 290 1 256 258
M  V30 291 1 258 259
M  V30 292 1 259 260
M  V30 293 1 260 261
M  V30 294 1 261 262
M  V30 295 1 262 263
M  V30 296 1 259 264
M  V30 297 1 263 264
M  V30 298 1 263 265
M  V30 299 1 265 266
M  V30 300 1 266 267
M  V30 301 1 264 268
M  V30 302 1 267 268
M  V30 303 1 268 269
M  V30 304 1 269 270
M  V30 305 1 270 271
M  V30 306 1 271 272
M  V30 307 1 272 273
M  V30 308 1 273 274
M  V30 309 1 270 275
M  V30 310 1 274 275
M  V30 311 1 246 276
M  V30 312 1 273 276
M  V30 313 1 248 277
M  V30 314 1 277 278
M  V30 315 1 253 279
M  V30 316 1 266 280
M  V30 317 1 280 281
M  V30 318 1 267 282
M  V30 319 1 241 283
M  V30 320 1 260 284
M  V30 321 1 260 285
M  V30 322 1 282 286
M  V30 323 1 241 287
M  V30 324 1 279 288
M  V30 325 1 289 290
M  V30 326 1 290 291
M  V30 327 1 291 292
M  V30 328 1 292 293
M  V30 329 1 289 294
M  V30 330 1 293 294
M  V30 331 1 292 295
M  V30 332 1 295 296
M  V30 333 1 296 297
M  V30 334 1 293 298
M  V30 335 1 297 298
M  V30 336 1 297 299
M  V30 337 1 299 300
M  V30 338 1 300 301
M  V30 339 1 301 302
M  V30 340 1 302 303
M  V30 341 1 303 304
M  V30 342 1 300 305
M  V30 343 1 304 305
M  V30 344 1 304 306
M  V30 345 1 306 307
M  V30 346 1 307 308
M  V30 347 1 308 309
M  V30 348 1 309 310
M  V30 349 1 310 311
M  V30 350 1 307 312
M  V30 351 1 311 312
M  V30 352 1 311 313
M  V30 353 1 313 314
M  V30 354 1 314 315
M  V30 355 1 312 316
M  V30 356 1 315 316
M  V30 357 1 316 317
M  V30 358 1 317 318
M  V30 359 1 318 319
M  V30 360 1 319 320
M  V30 361 1 320 321
M  V30 362 1 321 322
M  V30 363 1 318 323
M  V30 364 1 322 323
M  V30 365 1 294 324
M  V30 366 1 321 324
M  V30 367 1 296 325
M  V30 368 1 325 326
M  V30 369 1 301 327
M  V30 370 1 314 328
M  V30 371 1 328 329
M  V30 372 1 315 330
M  V30 373 1 289 331
M  V30 374 1 308 332
M  V30 375 1 308 333
M  V30 376 1 330 334
M  V30 377 1 289 335
M  V30 378 1 327 336
M  V30 379 1 337 338
M  V30 380 1 338 339
M  V30 381 1 339 340
M  V30 382 1 340 341
M  V30 383 1 337 342
M  V30 384 1 341 342
M  V30 385 1 340 343
M  V30 386 1 343 344
M  V30 387 1 344 345
M  V30 388 1 341 346
M  V30 389 1 345 346
M  V30 390 1 345 347
M  V30 391 1 347 348
M  V30 392 1 348 349
M  V30 393 1 349 350
M  V30 394 1 350 351
M  V30 395 1 351 352
M  V30 396 1 348 353
M  V30 397 1 352 353
M  V30 398 1 352 354
M  V30 399 1 354 355
M  V30 400 1 355 356
M  V30 401 1 356 357
M  V30 402 1 357 358
M  V30 403 1 358 359
M  V30 404 1 355 360
M  V30 405 1 359 360
M  V30 406 1 359 361
M  V30 407 1 361 362
M  V30 408 1 362 363
M  V30 409 1 360 364
M  V30 410 1 363 364
M  V30 411 1 364 365
M  V30 412 1 365 366
M  V30 413 1 366 367
M  V30 414 1 367 368
M  V30 415 1 368 369
M  V30 416 1 369 370
M  V30 417 1 366 371
M  V30 418 1 370 371
M  V30 419 1 342 372
M  V30 420 1 369 372
M  V30 421 1 344 373
M  V30 422 1 373 374
M  V30 423 1 349 375
M  V30 424 1 362 376
M  V30 425 1 376 377
M  V30 426 1 363 378
M  V30 427 1 337 379
M  V30 428 1 356 380
M  V30 429 1 356 381
M  V30 430 1 378 382
M  V30 431 1 337 383
M  V30 432 1 375 384
M  V30 433 1 2 385
M  V30 434 1 2 386
M  V30 435 1 3 387
M  V30 436 1 3 388
M  V30 437 1 4 389
M  V30 438 1 5 390
M  V30 439 1 6 391 CFG=1
M  V30 440 1 7 392
M  V30 441 1 7 393
M  V30 442 1 8 394
M  V30 443 1 9 395
M  V30 444 1 10 396
M  V30 445 1 10 397
M  V30 446 1 12 398
M  V30 447 1 13 399
M  V30 448 1 14 400
M  V30 449 1 14 401
M  V30 450 1 15 402
M  V30 451 1 15 403
M  V30 452 1 16 404
M  V30 453 1 17 405
M  V30 454 1 17 406
M  V30 455 1 18 407
M  V30 456 1 18 408
M  V30 457 1 19 409 CFG=3
M  V30 458 1 21 410
M  V30 459 1 21 411
M  V30 460 1 22 412
M  V30 461 1 22 413
M  V30 462 1 23 414 CFG=1
M  V30 463 1 24 415
M  V30 464 1 25 416
M  V30 465 1 25 417
M  V30 466 1 26 418
M  V30 467 1 27 419
M  V30 468 1 28 420
M  V30 469 1 30 421
M  V30 470 1 31 422
M  V30 471 1 31 423
M  V30 472 1 32 424
M  V30 473 1 32 425
M  V30 474 1 33 426
M  V30 475 1 34 427
M  V30 476 1 34 428
M  V30 477 1 35 429
M  V30 478 1 35 430
M  V30 479 1 36 431
M  V30 480 1 36 432
M  V30 481 1 38 433
M  V30 482 1 38 434
M  V30 483 1 38 435
M  V30 484 1 41 436
M  V30 485 1 41 437
M  V30 486 1 41 438
M  V30 487 1 43 439
M  V30 488 1 43 440
M  V30 489 1 43 441
M  V30 490 1 44 442
M  V30 491 1 44 443
M  V30 492 1 44 444
M  V30 493 1 45 445
M  V30 494 1 45 446
M  V30 495 1 45 447
M  V30 496 1 46 448
M  V30 497 1 46 449
M  V30 498 1 46 450
M  V30 499 1 47 451
M  V30 500 1 47 452
M  V30 501 1 47 453
M  V30 502 1 48 454
M  V30 503 1 48 455
M  V30 504 1 48 456
M  V30 505 1 50 457
M  V30 506 1 50 458
M  V30 507 1 51 459
M  V30 508 1 51 460
M  V30 509 1 52 461 CFG=1
M  V30 510 1 53 462 CFG=1
M  V30 511 1 54 463 CFG=1
M  V30 512 1 55 464
M  V30 513 1 55 465
M  V30 514 1 56 466 CFG=1
M  V30 515 1 57 467
M  V30 516 1 58 468
M  V30 517 1 58 469
M  V30 518 1 60 470
M  V30 519 1 61 471
M  V30 520 1 62 472
M  V30 521 1 62 473
M  V30 522 1 63 474
M  V30 523 1 63 475
M  V30 524 1 64 476 CFG=3
M  V30 525 1 65 477
M  V30 526 1 65 478
M  V30 527 1 66 479
M  V30 528 1 66 480
M  V30 529 1 67 481 CFG=3
M  V30 530 1 69 482
M  V30 531 1 69 483
M  V30 532 1 70 484
M  V30 533 1 70 485
M  V30 534 1 71 486 CFG=1
M  V30 535 1 72 487 CFG=1
M  V30 536 1 73 488
M  V30 537 1 73 489
M  V30 538 1 74 490 CFG=1
M  V30 539 1 75 491
M  V30 540 1 76 492 CFG=1
M  V30 541 1 78 493
M  V30 542 1 79 494
M  V30 543 1 79 495
M  V30 544 1 80 496
M  V30 545 1 80 497
M  V30 546 1 81 498
M  V30 547 1 82 499
M  V30 548 1 82 500
M  V30 549 1 83 501
M  V30 550 1 83 502
M  V30 551 1 84 503
M  V30 552 1 84 504
M  V30 553 1 86 505
M  V30 554 1 86 506
M  V30 555 1 86 507
M  V30 556 1 89 508
M  V30 557 1 89 509
M  V30 558 1 89 510
M  V30 559 1 91 511
M  V30 560 1 91 512
M  V30 561 1 91 513
M  V30 562 1 92 514
M  V30 563 1 92 515
M  V30 564 1 92 516
M  V30 565 1 93 517
M  V30 566 1 93 518
M  V30 567 1 93 519
M  V30 568 1 94 520
M  V30 569 1 94 521
M  V30 570 1 94 522
M  V30 571 1 95 523
M  V30 572 1 95 524
M  V30 573 1 95 525
M  V30 574 1 96 526
M  V30 575 1 96 527
M  V30 576 1 96 528
M  V30 577 1 98 529
M  V30 578 1 98 530
M  V30 579 1 99 531
M  V30 580 1 99 532
M  V30 581 1 100 533
M  V30 582 1 101 534
M  V30 583 1 102 535 CFG=1
M  V30 584 1 103 536
M  V30 585 1 103 537
M  V30 586 1 104 538
M  V30 587 1 105 539
M  V30 588 1 106 540
M  V30 589 1 106 541
M  V30 590 1 108 542
M  V30 591 1 109 543
M  V30 592 1 110 544
M  V30 593 1 110 545
M  V30 594 1 111 546
M  V30 595 1 111 547
M  V30 596 1 112 548
M  V30 597 1 113 549
M  V30 598 1 113 550
M  V30 599 1 114 551
M  V30 600 1 114 552
M  V30 601 1 115 553 CFG=3
M  V30 602 1 117 554
M  V30 603 1 117 555
M  V30 604 1 118 556
M  V30 605 1 118 557
M  V30 606 1 119 558
M  V30 607 1 120 559 CFG=3
M  V30 608 1 121 560
M  V30 609 1 121 561
M  V30 610 1 122 562
M  V30 611 1 123 563
M  V30 612 1 124 564 CFG=1
M  V30 613 1 126 565
M  V30 614 1 127 566
M  V30 615 1 127 567
M  V30 616 1 128 568
M  V30 617 1 128 569
M  V30 618 1 129 570
M  V30 619 1 130 571
M  V30 620 1 130 572
M  V30 621 1 131 573
M  V30 622 1 131 574
M  V30 623 1 132 575
M  V30 624 1 132 576
M  V30 625 1 134 577
M  V30 626 1 134 578
M  V30 627 1 134 579
M  V30 628 1 137 580
M  V30 629 1 137 581
M  V30 630 1 137 582
M  V30 631 1 139 583
M  V30 632 1 139 584
M  V30 633 1 139 585
M  V30 634 1 140 586
M  V30 635 1 140 587
M  V30 636 1 140 588
M  V30 637 1 141 589
M  V30 638 1 141 590
M  V30 639 1 141 591
M  V30 640 1 142 592
M  V30 641 1 142 593
M  V30 642 1 142 594
M  V30 643 1 143 595
M  V30 644 1 143 596
M  V30 645 1 143 597
M  V30 646 1 144 598
M  V30 647 1 144 599
M  V30 648 1 144 600
M  V30 649 1 146 601
M  V30 650 1 146 602
M  V30 651 1 147 603
M  V30 652 1 147 604
M  V30 653 1 148 605
M  V30 654 1 149 606
M  V30 655 1 150 607 CFG=1
M  V30 656 1 151 608
M  V30 657 1 151 609
M  V30 658 1 152 610
M  V30 659 1 153 611
M  V30 660 1 154 612
M  V30 661 1 154 613
M  V30 662 1 156 614 CFG=3
M  V30 663 1 157 615 CFG=3
M  V30 664 1 158 616
M  V30 665 1 158 617
M  V30 666 1 159 618
M  V30 667 1 159 619
M  V30 668 1 160 620
M  V30 669 1 161 621
M  V30 670 1 161 622
M  V30 671 1 162 623
M  V30 672 1 162 624
M  V30 673 1 163 625 CFG=3
M  V30 674 1 165 626
M  V30 675 1 165 627
M  V30 676 1 166 628
M  V30 677 1 166 629
M  V30 678 1 167 630
M  V30 679 1 168 631
M  V30 680 1 169 632
M  V30 681 1 169 633
M  V30 682 1 170 634
M  V30 683 1 171 635
M  V30 684 1 172 636
M  V30 685 1 174 637
M  V30 686 1 175 638
M  V30 687 1 175 639
M  V30 688 1 176 640
M  V30 689 1 176 641
M  V30 690 1 177 642
M  V30 691 1 178 643
M  V30 692 1 178 644
M  V30 693 1 179 645
M  V30 694 1 179 646
M  V30 695 1 180 647
M  V30 696 1 180 648
M  V30 697 1 182 649
M  V30 698 1 182 650
M  V30 699 1 182 651
M  V30 700 1 185 652
M  V30 701 1 185 653
M  V30 702 1 185 654
M  V30 703 1 187 655
M  V30 704 1 187 656
M  V30 705 1 187 657
M  V30 706 1 188 658
M  V30 707 1 188 659
M  V30 708 1 188 660
M  V30 709 1 189 661
M  V30 710 1 189 662
M  V30 711 1 189 663
M  V30 712 1 190 664
M  V30 713 1 190 665
M  V30 714 1 190 666
M  V30 715 1 191 667
M  V30 716 1 191 668
M  V30 717 1 191 669
M  V30 718 1 192 670
M  V30 719 1 192 671
M  V30 720 1 192 672
M  V30 721 1 194 673
M  V30 722 1 194 674
M  V30 723 1 195 675
M  V30 724 1 195 676
M  V30 725 1 196 677 CFG=1
M  V30 726 1 197 678
M  V30 727 1 198 679 CFG=1
M  V30 728 1 199 680
M  V30 729 1 199 681
M  V30 730 1 200 682
M  V30 731 1 201 683
M  V30 732 1 202 684
M  V30 733 1 202 685
M  V30 734 1 204 686 CFG=3
M  V30 735 1 205 687
M  V30 736 1 206 688
M  V30 737 1 206 689
M  V30 738 1 207 690
M  V30 739 1 207 691
M  V30 740 1 208 692 CFG=3
M  V30 741 1 209 693
M  V30 742 1 209 694
M  V30 743 1 210 695
M  V30 744 1 210 696
M  V30 745 1 211 697 CFG=3
M  V30 746 1 213 698
M  V30 747 1 213 699
M  V30 748 1 214 700
M  V30 749 1 214 701
M  V30 750 1 215 702 CFG=1
M  V30 751 1 216 703
M  V30 752 1 217 704
M  V30 753 1 217 705
M  V30 754 1 218 706 CFG=1
M  V30 755 1 219 707
M  V30 756 1 220 708 CFG=1
M  V30 757 1 222 709
M  V30 758 1 223 710
M  V30 759 1 223 711
M  V30 760 1 224 712
M  V30 761 1 224 713
M  V30 762 1 225 714
M  V30 763 1 226 715
M  V30 764 1 226 716
M  V30 765 1 227 717
M  V30 766 1 227 718
M  V30 767 1 228 719
M  V30 768 1 228 720
M  V30 769 1 230 721
M  V30 770 1 230 722
M  V30 771 1 230 723
M  V30 772 1 233 724
M  V30 773 1 233 725
M  V30 774 1 233 726
M  V30 775 1 235 727
M  V30 776 1 235 728
M  V30 777 1 235 729
M  V30 778 1 236 730
M  V30 779 1 236 731
M  V30 780 1 236 732
M  V30 781 1 237 733
M  V30 782 1 237 734
M  V30 783 1 237 735
M  V30 784 1 238 736
M  V30 785 1 238 737
M  V30 786 1 238 738
M  V30 787 1 239 739
M  V30 788 1 239 740
M  V30 789 1 239 741
M  V30 790 1 240 742
M  V30 791 1 240 743
M  V30 792 1 240 744
M  V30 793 1 242 745
M  V30 794 1 242 746
M  V30 795 1 243 747
M  V30 796 1 243 748
M  V30 797 1 244 749 CFG=3
M  V30 798 1 245 750
M  V30 799 1 246 751 CFG=1
M  V30 800 1 247 752
M  V30 801 1 247 753
M  V30 802 1 248 754
M  V30 803 1 249 755
M  V30 804 1 250 756
M  V30 805 1 250 757
M  V30 806 1 252 758
M  V30 807 1 253 759 CFG=1
M  V30 808 1 254 760
M  V30 809 1 254 761
M  V30 810 1 255 762
M  V30 811 1 255 763
M  V30 812 1 256 764 CFG=1
M  V30 813 1 257 765
M  V30 814 1 257 766
M  V30 815 1 258 767
M  V30 816 1 258 768
M  V30 817 1 259 769 CFG=3
M  V30 818 1 261 770
M  V30 819 1 261 771
M  V30 820 1 262 772
M  V30 821 1 262 773
M  V30 822 1 263 774 CFG=1
M  V30 823 1 264 775
M  V30 824 1 265 776
M  V30 825 1 265 777
M  V30 826 1 266 778
M  V30 827 1 267 779
M  V30 828 1 268 780
M  V30 829 1 270 781
M  V30 830 1 271 782
M  V30 831 1 271 783
M  V30 832 1 272 784
M  V30 833 1 272 785
M  V30 834 1 273 786
M  V30 835 1 274 787
M  V30 836 1 274 788
M  V30 837 1 275 789
M  V30 838 1 275 790
M  V30 839 1 276 791
M  V30 840 1 276 792
M  V30 841 1 278 793
M  V30 842 1 278 794
M  V30 843 1 278 795
M  V30 844 1 281 796
M  V30 845 1 281 797
M  V30 846 1 281 798
M  V30 847 1 283 799
M  V30 848 1 283 800
M  V30 849 1 283 801
M  V30 850 1 284 802
M  V30 851 1 284 803
M  V30 852 1 284 804
M  V30 853 1 285 805
M  V30 854 1 285 806
M  V30 855 1 285 807
M  V30 856 1 286 808
M  V30 857 1 286 809
M  V30 858 1 286 810
M  V30 859 1 287 811
M  V30 860 1 287 812
M  V30 861 1 287 813
M  V30 862 1 288 814
M  V30 863 1 288 815
M  V30 864 1 288 816
M  V30 865 1 290 817
M  V30 866 1 290 818
M  V30 867 1 291 819
M  V30 868 1 291 820
M  V30 869 1 292 821
M  V30 870 1 293 822
M  V30 871 1 294 823 CFG=1
M  V30 872 1 295 824
M  V30 873 1 295 825
M  V30 874 1 296 826
M  V30 875 1 297 827
M  V30 876 1 298 828
M  V30 877 1 298 829
M  V30 878 1 300 830 CFG=3
M  V30 879 1 301 831
M  V30 880 1 302 832
M  V30 881 1 302 833
M  V30 882 1 303 834
M  V30 883 1 303 835
M  V30 884 1 304 836 CFG=3
M  V30 885 1 305 837
M  V30 886 1 305 838
M  V30 887 1 306 839
M  V30 888 1 306 840
M  V30 889 1 307 841 CFG=3
M  V30 890 1 309 842
M  V30 891 1 309 843
M  V30 892 1 310 844
M  V30 893 1 310 845
M  V30 894 1 311 846
M  V30 895 1 312 847
M  V30 896 1 313 848
M  V30 897 1 313 849
M  V30 898 1 314 850
M  V30 899 1 315 851 CFG=3
M  V30 900 1 316 852 CFG=1
M  V30 901 1 318 853
M  V30 902 1 319 854
M  V30 903 1 319 855
M  V30 904 1 320 856
M  V30 905 1 320 857
M  V30 906 1 321 858
M  V30 907 1 322 859
M  V30 908 1 322 860
M  V30 909 1 323 861
M  V30 910 1 323 862
M  V30 911 1 324 863
M  V30 912 1 324 864
M  V30 913 1 326 865
M  V30 914 1 326 866
M  V30 915 1 326 867
M  V30 916 1 329 868
M  V30 917 1 329 869
M  V30 918 1 329 870
M  V30 919 1 331 871
M  V30 920 1 331 872
M  V30 921 1 331 873
M  V30 922 1 332 874
M  V30 923 1 332 875
M  V30 924 1 332 876
M  V30 925 1 333 877
M  V30 926 1 333 878
M  V30 927 1 333 879
M  V30 928 1 334 880
M  V30 929 1 334 881
M  V30 930 1 334 882
M  V30 931 1 335 883
M  V30 932 1 335 884
M  V30 933 1 335 885
M  V30 934 1 336 886
M  V30 935 1 336 887
M  V30 936 1 336 888
M  V30 937 1 338 889
M  V30 938 1 338 890
M  V30 939 1 339 891
M  V30 940 1 339 892
M  V30 941 1 340 893
M  V30 942 1 341 894
M  V30 943 1 342 895 CFG=1
M  V30 944 1 343 896
M  V30 945 1 343 897
M  V30 946 1 344 898
M  V30 947 1 345 899
M  V30 948 1 346 900
M  V30 949 1 346 901
M  V30 950 1 348 902 CFG=3
M  V30 951 1 349 903 CFG=1
M  V30 952 1 350 904
M  V30 953 1 350 905
M  V30 954 1 351 906
M  V30 955 1 351 907
M  V30 956 1 352 908 CFG=3
M  V30 957 1 353 909
M  V30 958 1 353 910
M  V30 959 1 354 911
M  V30 960 1 354 912
M  V30 961 1 355 913 CFG=3
M  V30 962 1 357 914
M  V30 963 1 357 915
M  V30 964 1 358 916
M  V30 965 1 358 917
M  V30 966 1 359 918
M  V30 967 1 360 919
M  V30 968 1 361 920
M  V30 969 1 361 921
M  V30 970 1 362 922
M  V30 971 1 363 923
M  V30 972 1 364 924
M  V30 973 1 366 925
M  V30 974 1 367 926
M  V30 975 1 367 927
M  V30 976 1 368 928
M  V30 977 1 368 929
M  V30 978 1 369 930
M  V30 979 1 370 931
M  V30 980 1 370 932
M  V30 981 1 371 933
M  V30 982 1 371 934
M  V30 983 1 372 935
M  V30 984 1 372 936
M  V30 985 1 374 937
M  V30 986 1 374 938
M  V30 987 1 374 939
M  V30 988 1 377 940
M  V30 989 1 377 941
M  V30 990 1 377 942
M  V30 991 1 379 943
M  V30 992 1 379 944
M  V30 993 1 379 945
M  V30 994 1 380 946
M  V30 995 1 380 947
M  V30 996 1 380 948
M  V30 997 1 381 949
M  V30 998 1 381 950
M  V30 999 1 381 951
M  V30 1000 1 382 952
M  V30 1001 1 382 953
M  V30 1002 1 382 954
M  V30 1003 1 383 955
M  V30 1004 1 383 956
M  V30 1005 1 383 957
M  V30 1006 1 384 958
M  V30 1007 1 384 959
M  V30 1008 1 384 960
M  V30 END BOND
M  V30 END CTAB
M  END
>  <PDBID>  (1) 
3PEO

>  <PDB ID>  (1) 
3PEO

>  <Generic Name>  (1) 
Metocurine

>  <Brand Name>  (1) 
nan

>  <DrugBank ID>  (1) 
DB01336

>  <ATC Codes>  (1) 
M03AA04

>  <Ligand ID>  (1) 
CU9

>  <Target Name>  (1) 
Neuronal acetylcholine receptor subunit alpha-2

>  <UniProt ID>  (1) 
Q15822

>  <PDB ID.1>  (1) 
3PEO

>  <Seq. Identity>  (1) 
30%

$$$$
