PDB_DB00787_03
     RDKit          3D

 70 72  0  0  0  0  0  0  0  0999 V2000
    3.6099    1.7360    0.5328 C   0  0  0  0  0  0  0  0  0  0  0  0
    4.6775    2.2597   -0.2359 O   0  0  0  0  0  0  0  0  0  0  0  0
    3.5824    0.2658    0.2617 C   0  0  0  0  0  0  0  0  0  0  0  0
    2.6121   -0.4450    0.9146 O   0  0  0  0  0  0  0  0  0  0  0  0
    1.3243   -0.0188    0.6011 C   0  0  0  0  0  0  0  0  0  0  0  0
    0.3227   -0.8045    1.3150 N   0  0  0  0  0  0  0  0  0  0  0  0
    0.4076   -2.2029    0.9829 C   0  0  0  0  0  0  0  0  0  0  0  0
   -0.8405   -2.5586    0.3183 N   0  0  0  0  0  0  0  0  0  0  0  0
   -1.1845   -1.2959   -0.3129 C   0  0  0  0  0  0  0  0  0  0  0  0
   -2.6274   -1.2312   -0.7437 C   0  0  0  0  0  0  0  0  0  0  0  0
   -3.4282   -2.1686   -0.1253 O   0  0  0  0  0  0  0  0  0  0  0  0
   -3.0818    0.1320   -0.4394 N   0  0  0  0  0  0  0  0  0  0  0  0
   -2.0022    1.0882   -0.6315 C   0  0  0  0  0  0  0  0  0  0  0  0
   -2.5983    2.4086   -0.5639 N   0  0  0  0  0  0  0  0  0  0  0  0
   -1.0256    1.0137    0.4626 N   0  0  0  0  0  0  0  0  0  0  0  0
   -0.9704   -0.3629    0.8627 C   0  0  0  0  0  0  0  0  0  0  0  0
    2.8369    2.2134    0.3163 C   0  0  0  0  0  0  0  0  0  0  0  0
    3.8976    2.4341    1.1673 O   0  0  0  0  0  0  0  0  0  0  0  0
    2.5771    0.7075    0.1919 C   0  0  0  0  0  0  0  0  0  0  0  0
    1.5038    0.5720   -0.6744 O   0  0  0  0  0  0  0  0  0  0  0  0
    1.1464   -0.7423   -0.8894 C   0  0  0  0  0  0  0  0  0  0  0  0
    0.7798   -1.3292    0.3825 N   0  0  0  0  0  0  0  0  0  0  0  0
    0.3906   -2.7174    0.2375 C   0  0  0  0  0  0  0  0  0  0  0  0
   -1.0366   -2.6792   -0.0192 N   0  0  0  0  0  0  0  0  0  0  0  0
   -1.5206   -1.4493    0.5827 C   0  0  2  0  0  0  0  0  0  0  0  0
   -2.4723   -0.7638   -0.3465 C   0  0  0  0  0  0  0  0  0  0  0  0
   -3.6563   -1.4951   -0.3672 O   0  0  0  0  0  0  0  0  0  0  0  0
   -2.7032    0.5699    0.2319 N   0  0  0  0  0  0  0  0  0  0  0  0
   -1.4643    1.2854    0.0685 C   0  0  0  0  0  0  0  0  0  0  0  0
   -1.6834    2.6411    0.5694 N   0  0  0  0  0  0  0  0  0  0  0  0
   -0.3405    0.7147    0.6862 N   0  0  0  0  0  0  0  0  0  0  0  0
   -0.3463   -0.6522    0.9901 C   0  0  0  0  0  0  0  0  0  0  0  0
    2.7172    2.2823    0.1619 H   0  0  0  0  0  0  0  0  0  0  0  0
    3.8565    1.9662    1.5762 H   0  0  0  0  0  0  0  0  0  0  0  0
    4.6368    3.2428   -0.2318 H   0  0  0  0  0  0  0  0  0  0  0  0
    4.5736   -0.1401    0.5810 H   0  0  0  0  0  0  0  0  0  0  0  0
    3.4422    0.1041   -0.8309 H   0  0  0  0  0  0  0  0  0  0  0  0
    1.2582    1.0547    0.8619 H   0  0  0  0  0  0  0  0  0  0  0  0
    1.1760   -0.2017   -0.4690 H   0  0  0  0  0  0  0  0  0  0  0  0
    1.2277   -2.4417    0.2750 H   0  0  0  0  0  0  0  0  0  0  0  0
    0.5312   -2.8122    1.8946 H   0  0  0  0  0  0  0  0  0  0  0  0
   -1.5385   -2.7135    1.0833 H   0  0  0  0  0  0  0  0  0  0  0  0
   -0.5289   -1.0796   -1.1520 H   0  0  0  0  0  0  0  0  0  0  0  0
   -2.6859   -1.3691   -1.8465 H   0  0  0  0  0  0  0  0  0  0  0  0
   -3.4156   -2.9860   -0.6906 H   0  0  0  0  0  0  0  0  0  0  0  0
   -3.3708    0.1180    0.5603 H   0  0  0  0  0  0  0  0  0  0  0  0
   -1.4628    0.9020   -1.5681 H   0  0  0  0  0  0  0  0  0  0  0  0
   -3.4879    2.4213   -0.0115 H   0  0  0  0  0  0  0  0  0  0  0  0
   -2.6762    2.8769   -1.4787 H   0  0  0  0  0  0  0  0  0  0  0  0
   -1.3315    1.5746    1.2859 H   0  0  0  0  0  0  0  0  0  0  0  0
   -1.6992   -0.6145    1.6585 H   0  0  0  0  0  0  0  0  0  0  0  0
    3.1264    2.5433   -0.7038 H   0  0  0  0  0  0  0  0  0  0  0  0
    1.9136    2.7406    0.5827 H   0  0  0  0  0  0  0  0  0  0  0  0
    4.7527    2.2572    0.6900 H   0  0  0  0  0  0  0  0  0  0  0  0
    2.3784    0.2555    1.1731 H   0  0  0  0  0  0  0  0  0  0  0  0
    3.5051    0.2816   -0.2347 H   0  0  0  0  0  0  0  0  0  0  0  0
    0.2836   -0.7754   -1.5662 H   0  0  0  0  0  0  0  0  0  0  0  0
    1.9465   -1.3484   -1.3499 H   0  0  0  0  0  0  0  0  0  0  0  0
    0.9315   -3.1525   -0.6293 H   0  0  0  0  0  0  0  0  0  0  0  0
    0.5964   -3.2499    1.1876 H   0  0  0  0  0  0  0  0  0  0  0  0
   -1.2025   -2.6765   -1.0527 H   0  0  0  0  0  0  0  0  0  0  0  0
   -2.1227   -1.7730    1.4787 H   0  0  0  0  0  0  0  0  0  0  0  0
   -2.1150   -0.6662   -1.3748 H   0  0  0  0  0  0  0  0  0  0  0  0
   -3.5784   -2.2463   -0.9780 H   0  0  0  0  0  0  0  0  0  0  0  0
   -2.8643    0.4197    1.2589 H   0  0  0  0  0  0  0  0  0  0  0  0
   -1.2907    1.3921   -1.0331 H   0  0  0  0  0  0  0  0  0  0  0  0
   -2.6727    2.8173    0.7974 H   0  0  0  0  0  0  0  0  0  0  0  0
   -1.3354    3.3541   -0.0916 H   0  0  0  0  0  0  0  0  0  0  0  0
    0.0414    1.2898    1.4724 H   0  0  0  0  0  0  0  0  0  0  0  0
   -0.2025   -0.7723    2.1046 H   0  0  0  0  0  0  0  0  0  0  0  0
  1  2  1  0
  1  3  1  0
  3  4  1  0
  4  5  1  0
  5  6  1  0
  6  7  1  0
  7  8  1  0
  8  9  1  0
  9 10  1  0
 10 11  1  0
 10 12  1  0
 12 13  1  0
 13 14  1  0
 13 15  1  0
  6 16  1  0
  9 16  1  0
 15 16  1  0
 17 18  1  0
 17 19  1  0
 19 20  1  0
 20 21  1  0
 21 22  1  0
 22 23  1  0
 23 24  1  0
 24 25  1  0
 25 26  1  0
 26 27  1  0
 26 28  1  0
 28 29  1  0
 29 30  1  0
 29 31  1  0
 22 32  1  0
 25 32  1  0
 31 32  1  0
  1 33  1  0
  1 34  1  0
  2 35  1  0
  3 36  1  0
  3 37  1  0
  5 38  1  0
  5 39  1  0
  7 40  1  0
  7 41  1  0
  8 42  1  0
  9 43  1  0
 10 44  1  0
 11 45  1  0
 12 46  1  0
 13 47  1  0
 14 48  1  0
 14 49  1  0
 15 50  1  0
 16 51  1  0
 17 52  1  0
 17 53  1  0
 18 54  1  0
 19 55  1  0
 19 56  1  0
 21 57  1  0
 21 58  1  0
 23 59  1  0
 23 60  1  0
 24 61  1  0
 25 62  1  1
 26 63  1  0
 27 64  1  0
 28 65  1  0
 29 66  1  0
 30 67  1  0
 30 68  1  0
 31 69  1  0
 32 70  1  0
M  END
>  <PDBID>  (1) 
2KI5

>  <PDB ID>  (1) 
2KI5

>  <Generic Name>  (1) 
Aciclovir

>  <Brand Name>  (1) 
Acyclovir#Acyclovir Sodium#Acyclovir Sodium Injection#Acyclovir Sodium for Injection#Acyclovir-200#Acyclovir-400#Acyclovir-800#Alti-acyclovir - 400mg#Alti-acyclovir - 800mg#Alti-acyclovir - Tab 200mg#Apo-acyclovir - Tab 200mg#Apo-acyclovir - Tab 400mg#Apo-acyclovir - Tab 800mg#Mylan-acyclovir#Ntp-acyclovir#Nu-acyclovir - Tab 200mg#Nu-acyclovir - Tab 400mg#Nu-acyclovir - Tab 800mg#Ratio-acyclovir#Sitavig#Teva-acyclovir#Xerese#Zovirax#Zovirax 400#Zovirax 800#Zovirax Cap 200mg#Zovirax Tab 200mg#Zovir

>  <DrugBank ID>  (1) 
DB00787

>  <ATC Codes>  (1) 
S01AD03#D06BB03#J05AB01#D06BB53

>  <Ligand ID>  (1) 
AC2

>  <Target Name>  (1) 
Thymidine kinase

>  <UniProt ID>  (1) 
P03176

>  <PDB ID.1>  (1) 
2KI5

>  <Seq. Identity>  (1) 
100%

$$$$
