PDB_DB00701_03
     RDKit          3D

 86 88  0  0  0  0  0  0  0  0999 V2000
   -1.6858    2.6150    2.5527 C   0  0  0  0  0  0  0  0  0  0  0  0
   -3.4693    4.0052    1.9789 C   0  0  0  0  0  0  0  0  0  0  0  0
   -3.7404    1.2073    0.1335 C   0  0  2  0  0  0  0  0  0  0  0  0
   -2.7585    2.7469    1.4810 C   0  0  2  0  0  0  0  0  0  0  0  0
   -2.3320   -0.7429    0.4511 C   0  0  2  0  0  0  0  0  0  0  0  0
   -1.1949   -0.2179   -0.3635 C   0  0  1  0  0  0  0  0  0  0  0  0
   -2.4336   -2.1994    0.6035 C   0  0  0  0  0  0  0  0  0  0  0  0
   -2.5884   -3.0677   -0.5579 C   0  0  0  0  0  0  0  0  0  0  0  0
   -3.7726   -2.8797   -1.4233 C   0  0  0  0  0  0  0  0  0  0  0  0
   -2.6668   -4.5122   -0.0180 C   0  0  0  0  0  0  0  0  0  0  0  0
   -4.9770   -3.7087   -0.9465 C   0  0  0  0  0  0  0  0  0  0  0  0
   -3.2308   -5.3893   -1.1018 C   0  0  0  0  0  0  0  0  0  0  0  0
   -4.7160   -5.1713   -1.2300 C   0  0  0  0  0  0  0  0  0  0  0  0
    0.1505   -0.4500    0.2416 C   0  0  0  0  0  0  0  0  0  0  0  0
    1.6149   -0.0382   -1.6753 C   0  0  0  0  0  0  0  0  0  0  0  0
    2.3407   -1.2927   -1.9584 C   0  0  0  0  0  0  0  0  0  0  0  0
    3.6215    1.4637    0.4454 C   0  0  0  0  0  0  0  0  0  0  0  0
    4.3283    1.8509   -0.7952 C   0  0  0  0  0  0  0  0  0  0  0  0
    5.6557    2.5340   -0.5452 C   0  0  0  0  0  0  0  0  0  0  0  0
    6.3272    1.9413    0.6666 C   0  0  0  0  0  0  0  0  0  0  0  0
    5.4803    2.1472    1.8800 C   0  0  0  0  0  0  0  0  0  0  0  0
    4.0398    2.4953    1.5177 C   0  0  0  0  0  0  0  0  0  0  0  0
    2.6350   -1.3034   -3.4857 C   0  0  0  0  0  0  0  0  0  0  0  0
    1.6246   -2.5867   -1.7247 C   0  0  0  0  0  0  0  0  0  0  0  0
   -2.2993    4.7635    2.5681 C   0  0  0  0  0  0  0  0  0  0  0  0
   -3.5874   -0.1988    0.0157 N   0  0  0  0  0  0  0  0  0  0  0  0
    1.2186    0.2942   -0.3758 N   0  0  0  0  0  0  0  0  0  0  0  0
    7.6261    2.6008    0.7972 N   0  0  0  0  0  0  0  0  0  0  0  0
   -3.6200    1.6783    1.4613 O   0  0  0  0  0  0  0  0  0  0  0  0
   -5.0819    1.4979   -0.2174 O   0  0  0  0  0  0  0  0  0  0  0  0
   -1.3534   -0.5419   -1.6758 O   0  0  0  0  0  0  0  0  0  0  0  0
    1.7460    0.6990    2.1590 O   0  0  0  0  0  0  0  0  0  0  0  0
    1.2706    2.8009    0.6758 O   0  0  0  0  0  0  0  0  0  0  0  0
   -1.2303    3.9092    2.6470 O   0  0  0  0  0  0  0  0  0  0  0  0
    1.9290    1.4088    0.4151 S   0  0  0  0  0  0  0  0  0  0  0  0
   -0.8681    1.9776    2.1930 H   0  0  0  0  0  0  0  0  0  0  0  0
   -2.1627    2.2473    3.4723 H   0  0  0  0  0  0  0  0  0  0  0  0
   -3.9465    4.5624    1.1673 H   0  0  0  0  0  0  0  0  0  0  0  0
   -4.1350    3.7054    2.7915 H   0  0  0  0  0  0  0  0  0  0  0  0
   -3.1229    1.8163   -0.5273 H   0  0  0  0  0  0  0  0  0  0  0  0
   -2.3457    3.0135    0.4952 H   0  0  0  0  0  0  0  0  0  0  0  0
   -2.1752   -0.3235    1.4942 H   0  0  0  0  0  0  0  0  0  0  0  0
   -1.3135    0.9170   -0.3195 H   0  0  0  0  0  0  0  0  0  0  0  0
   -1.5277   -2.5515    1.1816 H   0  0  0  0  0  0  0  0  0  0  0  0
   -3.2839   -2.4015    1.3129 H   0  0  0  0  0  0  0  0  0  0  0  0
   -1.6893   -3.1084   -1.2359 H   0  0  0  0  0  0  0  0  0  0  0  0
   -3.5757   -3.2733   -2.4665 H   0  0  0  0  0  0  0  0  0  0  0  0
   -4.1481   -1.8732   -1.5637 H   0  0  0  0  0  0  0  0  0  0  0  0
   -3.2574   -4.5373    0.9083 H   0  0  0  0  0  0  0  0  0  0  0  0
   -1.6501   -4.8378    0.2026 H   0  0  0  0  0  0  0  0  0  0  0  0
   -5.1971   -3.5014    0.1016 H   0  0  0  0  0  0  0  0  0  0  0  0
   -5.8370   -3.3856   -1.5638 H   0  0  0  0  0  0  0  0  0  0  0  0
   -2.7608   -5.0944   -2.0506 H   0  0  0  0  0  0  0  0  0  0  0  0
   -2.9782   -6.4679   -0.9235 H   0  0  0  0  0  0  0  0  0  0  0  0
   -5.0874   -5.4025   -2.2449 H   0  0  0  0  0  0  0  0  0  0  0  0
   -5.2982   -5.7774   -0.5177 H   0  0  0  0  0  0  0  0  0  0  0  0
    0.0816   -0.0300    1.2939 H   0  0  0  0  0  0  0  0  0  0  0  0
    0.4721   -1.5056    0.2884 H   0  0  0  0  0  0  0  0  0  0  0  0
    0.7353    0.0011   -2.4031 H   0  0  0  0  0  0  0  0  0  0  0  0
    2.2362    0.8428   -2.0612 H   0  0  0  0  0  0  0  0  0  0  0  0
    3.3113   -1.3203   -1.4179 H   0  0  0  0  0  0  0  0  0  0  0  0
    4.0140    0.4911    0.8591 H   0  0  0  0  0  0  0  0  0  0  0  0
    4.5302    0.9471   -1.4033 H   0  0  0  0  0  0  0  0  0  0  0  0
    3.7397    2.5609   -1.4381 H   0  0  0  0  0  0  0  0  0  0  0  0
    6.2895    2.3439   -1.4565 H   0  0  0  0  0  0  0  0  0  0  0  0
    5.4844    3.6074   -0.4426 H   0  0  0  0  0  0  0  0  0  0  0  0
    6.5559    0.8708    0.4715 H   0  0  0  0  0  0  0  0  0  0  0  0
    5.9316    2.9448    2.4947 H   0  0  0  0  0  0  0  0  0  0  0  0
    5.5177    1.2246    2.4991 H   0  0  0  0  0  0  0  0  0  0  0  0
    3.3876    2.4319    2.3904 H   0  0  0  0  0  0  0  0  0  0  0  0
    4.0648    3.4734    1.0133 H   0  0  0  0  0  0  0  0  0  0  0  0
    1.6452   -1.1411   -3.9500 H   0  0  0  0  0  0  0  0  0  0  0  0
    3.0340   -2.3173   -3.6839 H   0  0  0  0  0  0  0  0  0  0  0  0
    3.3609   -0.5071   -3.6508 H   0  0  0  0  0  0  0  0  0  0  0  0
    0.5330   -2.4858   -1.8380 H   0  0  0  0  0  0  0  0  0  0  0  0
    1.8237   -3.0586   -0.7397 H   0  0  0  0  0  0  0  0  0  0  0  0
    2.0318   -3.3410   -2.4569 H   0  0  0  0  0  0  0  0  0  0  0  0
   -2.5461    5.2845    3.4991 H   0  0  0  0  0  0  0  0  0  0  0  0
   -2.0345    5.5661    1.8182 H   0  0  0  0  0  0  0  0  0  0  0  0
   -4.3962   -0.6560    0.4885 H   0  0  0  0  0  0  0  0  0  0  0  0
    7.4663    3.5593    1.1840 H   0  0  0  0  0  0  0  0  0  0  0  0
    8.2821    2.0365    1.3724 H   0  0  0  0  0  0  0  0  0  0  0  0
   -5.7026    1.0545    0.4084 H   0  0  0  0  0  0  0  0  0  0  0  0
   -2.2690   -0.3797   -1.9467 H   0  0  0  0  0  0  0  0  0  0  0  0
    2.2183   -0.1509    2.0058 H   0  0  0  0  0  0  0  0  0  0  0  0
    1.6913    3.5901    0.2980 H   0  0  0  0  0  0  0  0  0  0  0  0
  1  4  1  0
  2  4  1  0
  5  6  1  0
  5  7  1  0
  7  8  1  0
  8  9  1  0
  8 10  1  0
  9 11  1  0
 10 12  1  0
 11 13  1  0
 12 13  1  0
  6 14  1  0
 15 16  1  0
 17 18  1  0
 18 19  1  0
 19 20  1  0
 20 21  1  0
 17 22  1  0
 21 22  1  0
 16 23  1  0
 16 24  1  0
  2 25  1  0
  3 26  1  0
  5 26  1  0
 14 27  1  0
 15 27  1  0
 20 28  1  0
  3 29  1  0
  4 29  1  0
  3 30  1  0
  6 31  1  0
  1 34  1  0
 25 34  1  0
 17 35  1  0
 27 35  1  0
 35 32  1  0
 33 35  1  0
  1 36  1  0
  1 37  1  0
  2 38  1  0
  2 39  1  0
  3 40  1  6
  4 41  1  6
  5 42  1  1
  6 43  1  6
  7 44  1  0
  7 45  1  0
  8 46  1  0
  9 47  1  0
  9 48  1  0
 10 49  1  0
 10 50  1  0
 11 51  1  0
 11 52  1  0
 12 53  1  0
 12 54  1  0
 13 55  1  0
 13 56  1  0
 14 57  1  0
 14 58  1  0
 15 59  1  0
 15 60  1  0
 16 61  1  0
 17 62  1  0
 18 63  1  0
 18 64  1  0
 19 65  1  0
 19 66  1  0
 20 67  1  0
 21 68  1  0
 21 69  1  0
 22 70  1  0
 22 71  1  0
 23 72  1  0
 23 73  1  0
 23 74  1  0
 24 75  1  0
 24 76  1  0
 24 77  1  0
 25 78  1  0
 25 79  1  0
 26 80  1  0
 28 81  1  0
 28 82  1  0
 30 83  1  0
 31 84  1  0
 32 85  1  0
 33 86  1  0
M  END
>  <PDBID>  (1) 
1HPV

>  <PDB ID>  (1) 
1HPV

>  <Generic Name>  (1) 
Amprenavir

>  <Brand Name>  (1) 
Agenerase#Agemerase#Prozei

>  <DrugBank ID>  (1) 
DB00701

>  <ATC Codes>  (1) 
J05AE05

>  <Ligand ID>  (1) 
478

>  <Target Name>  (1) 
Pol polyprotein

>  <UniProt ID>  (1) 
Q72874

>  <PDB ID.1>  (1) 
1HPV

>  <Seq. Identity>  (1) 
99%

$$$$
