PDB_DB06700_01
     RDKit          3D

 50 51  0  0  0  0  0  0  0  0999 V2000
   -2.2642   -0.0297   -1.5870 O   0  0  0  0  0  0  0  0  0  0  0  0
   -1.4474   -0.4307   -0.4630 C   0  0  0  0  0  0  0  0  0  0  0  0
   -2.2328   -0.0585    0.7111 C   0  0  0  0  0  0  0  0  0  0  0  0
   -1.4304   -1.9336   -0.5845 C   0  0  0  0  0  0  0  0  0  0  0  0
   -1.8717   -2.6454    0.6783 C   0  0  0  0  0  0  0  0  0  0  0  0
   -3.3081   -2.2288    1.0284 C   0  0  0  0  0  0  0  0  0  0  0  0
   -3.5764   -0.8240    0.5318 C   0  0  0  0  0  0  0  0  0  0  0  0
   -0.1387    0.2271   -0.7670 C   0  0  1  0  0  0  0  0  0  0  0  0
   -0.3600    1.7385   -0.8850 C   0  0  0  0  0  0  0  0  0  0  0  0
   -0.8609    2.4191    0.2289 N   0  0  0  0  0  0  0  0  0  0  0  0
   -0.0650    2.5997    1.3915 C   0  0  0  0  0  0  0  0  0  0  0  0
   -1.4226    3.6889   -0.1901 C   0  0  0  0  0  0  0  0  0  0  0  0
    1.0437   -0.0507    0.0234 C   0  0  0  0  0  0  0  0  0  0  0  0
    1.5528   -1.4640    0.1368 C   0  0  0  0  0  0  0  0  0  0  0  0
    2.9295   -1.4063    0.8610 C   0  0  0  0  0  0  0  0  0  0  0  0
    3.9772   -0.9549   -0.1316 C   0  0  0  0  0  0  0  0  0  0  0  0
    4.8683   -0.1242    0.5385 O   0  0  0  0  0  0  0  0  0  0  0  0
    3.2664   -0.1612   -1.1749 C   0  0  0  0  0  0  0  0  0  0  0  0
    2.2333    0.7287   -0.4889 C   0  0  0  0  0  0  0  0  0  0  0  0
   -1.7260   -0.1540   -2.4010 H   0  0  0  0  0  0  0  0  0  0  0  0
   -1.8866   -0.4040    1.6866 H   0  0  0  0  0  0  0  0  0  0  0  0
   -2.5020    1.0107    0.8321 H   0  0  0  0  0  0  0  0  0  0  0  0
   -2.1654   -2.2939   -1.3642 H   0  0  0  0  0  0  0  0  0  0  0  0
   -0.4819   -2.3720   -0.9089 H   0  0  0  0  0  0  0  0  0  0  0  0
   -1.2057   -2.5271    1.5288 H   0  0  0  0  0  0  0  0  0  0  0  0
   -1.9303   -3.7242    0.4263 H   0  0  0  0  0  0  0  0  0  0  0  0
   -4.0395   -2.9625    0.6874 H   0  0  0  0  0  0  0  0  0  0  0  0
   -3.3395   -2.2337    2.1529 H   0  0  0  0  0  0  0  0  0  0  0  0
   -3.8146   -0.9025   -0.5384 H   0  0  0  0  0  0  0  0  0  0  0  0
   -4.3629   -0.3858    1.1428 H   0  0  0  0  0  0  0  0  0  0  0  0
    0.0760   -0.0888   -1.8366 H   0  0  0  0  0  0  0  0  0  0  0  0
    0.4754    2.3054   -1.3068 H   0  0  0  0  0  0  0  0  0  0  0  0
   -1.1486    1.8758   -1.7472 H   0  0  0  0  0  0  0  0  0  0  0  0
   -0.3615    1.9014    2.2333 H   0  0  0  0  0  0  0  0  0  0  0  0
   -0.2853    3.6181    1.8843 H   0  0  0  0  0  0  0  0  0  0  0  0
    1.0256    2.6526    1.2429 H   0  0  0  0  0  0  0  0  0  0  0  0
   -0.7939    4.1701   -0.9838 H   0  0  0  0  0  0  0  0  0  0  0  0
   -2.4764    3.5985   -0.5269 H   0  0  0  0  0  0  0  0  0  0  0  0
   -1.4365    4.4277    0.6450 H   0  0  0  0  0  0  0  0  0  0  0  0
    0.8919    0.3050    1.0895 H   0  0  0  0  0  0  0  0  0  0  0  0
    0.9529   -1.9914    0.8982 H   0  0  0  0  0  0  0  0  0  0  0  0
    1.7763   -1.9808   -0.7794 H   0  0  0  0  0  0  0  0  0  0  0  0
    2.8167   -0.7579    1.7295 H   0  0  0  0  0  0  0  0  0  0  0  0
    3.1106   -2.4436    1.2006 H   0  0  0  0  0  0  0  0  0  0  0  0
    4.4962   -1.8507   -0.5353 H   0  0  0  0  0  0  0  0  0  0  0  0
    5.7953   -0.2886    0.2206 H   0  0  0  0  0  0  0  0  0  0  0  0
    3.9844    0.5228   -1.6905 H   0  0  0  0  0  0  0  0  0  0  0  0
    2.8698   -0.8130   -1.9426 H   0  0  0  0  0  0  0  0  0  0  0  0
    1.9946    1.4877   -1.2478 H   0  0  0  0  0  0  0  0  0  0  0  0
    2.7981    1.2086    0.3491 H   0  0  0  0  0  0  0  0  0  0  0  0
  2  1  1  0
  2  3  1  0
  2  4  1  0
  4  5  1  0
  5  6  1  0
  3  7  1  0
  6  7  1  0
  2  8  1  0
  8  9  1  0
  9 10  1  0
 10 11  1  0
 10 12  1  0
  8 13  1  0
 13 14  1  0
 14 15  1  0
 15 16  1  0
 16 17  1  0
 16 18  1  0
 13 19  1  0
 18 19  1  0
  1 20  1  0
  3 21  1  0
  3 22  1  0
  4 23  1  0
  4 24  1  0
  5 25  1  0
  5 26  1  0
  6 27  1  0
  6 28  1  0
  7 29  1  0
  7 30  1  0
  8 31  1  6
  9 32  1  0
  9 33  1  0
 11 34  1  0
 11 35  1  0
 11 36  1  0
 12 37  1  0
 12 38  1  0
 12 39  1  0
 13 40  1  0
 14 41  1  0
 14 42  1  0
 15 43  1  0
 15 44  1  0
 16 45  1  0
 17 46  1  0
 18 47  1  0
 18 48  1  0
 19 49  1  0
 19 50  1  0
M  END
>  <PDBID>  (1) 
4MM7

>  <PDB ID>  (1) 
4MM7

>  <Generic Name>  (1) 
Desvenlafaxine

>  <Brand Name>  (1) 
Desvenlafaxine#Desvenlafaxine Extended-release#Desvenlafaxine Succinate#Gd-desvenlafaxine#Khedezla Extended-release#Pristiq#Pristiq Extended Release#Pristiq Extended-release#Pristiq Extended-release Extended-release#Zyven-OD

>  <DrugBank ID>  (1) 
DB06700

>  <ATC Codes>  (1) 
N06AX23

>  <Ligand ID>  (1) 
29J

>  <Target Name>  (1) 
Sodium-dependent noradrenaline transporter

>  <UniProt ID>  (1) 
P23975

>  <PDB ID.1>  (1) 
4MM7

>  <Seq. Identity>  (1) 
30%

$$$$
