PDB_DB00276_08
     RDKit          3D

138144  0  0  0  0  0  0  0  0999 V2000
    2.1525    3.0077   -0.4093 C   0  0  0  0  0  0  0  0  0  0  0  0
    1.4044    1.9491    0.1272 O   0  0  0  0  0  0  0  0  0  0  0  0
    1.9833    0.7208   -0.0918 C   0  0  0  0  0  0  0  0  0  0  0  0
    2.3429   -0.0071    1.1566 C   0  0  0  0  0  0  0  0  0  0  0  0
    3.2686   -1.1516    0.7842 C   0  0  0  0  0  0  0  0  0  0  0  0
    4.6057   -0.5851    0.6405 N   0  0  0  0  0  0  0  0  0  0  0  0
    5.7765   -1.6973    0.2259 S   0  0  0  0  0  0  0  0  0  0  0  0
    6.6964   -0.7386   -1.0820 C   0  0  0  0  0  0  0  0  0  0  0  0
    5.3431   -2.9597   -0.2465 O   0  0  0  0  0  0  0  0  0  0  0  0
    6.9164   -1.7273    1.4814 O   0  0  0  0  0  0  0  0  0  0  0  0
    2.8767   -1.7346   -0.5716 C   0  0  0  0  0  0  0  0  0  0  0  0
    1.3413   -1.5773   -0.6183 C   0  0  0  0  0  0  0  0  0  0  0  0
    1.0684   -0.1745   -0.9749 C   0  0  0  0  0  0  0  0  0  0  0  0
   -0.1840    0.3828   -1.0050 N   0  0  0  0  0  0  0  0  0  0  0  0
   -1.0656    0.5400    0.0525 C   0  0  0  0  0  0  0  0  0  0  0  0
   -1.6412   -0.7548    0.5337 C   0  0  0  0  0  0  0  0  0  0  0  0
   -1.7567   -1.8379   -0.4820 C   0  0  0  0  0  0  0  0  0  0  0  0
   -3.1320   -2.3803   -0.7371 C   0  0  0  0  0  0  0  0  0  0  0  0
   -3.8080   -2.7581    0.5332 C   0  0  0  0  0  0  0  0  0  0  0  0
   -3.4929   -1.8636    1.7058 C   0  0  0  0  0  0  0  0  0  0  0  0
   -2.9592   -0.5249    1.2687 C   0  0  0  0  0  0  0  0  0  0  0  0
   -3.9218    0.1636    0.4993 N   0  0  0  0  0  0  0  0  0  0  0  0
   -3.4569    1.0109   -0.5398 C   0  0  0  0  0  0  0  0  0  0  0  0
   -4.4272    2.1372   -0.8446 C   0  0  0  0  0  0  0  0  0  0  0  0
   -4.5927    2.9049    0.4488 C   0  0  0  0  0  0  0  0  0  0  0  0
   -3.2849    3.5934    0.7055 C   0  0  0  0  0  0  0  0  0  0  0  0
   -2.0854    2.7392    0.6947 C   0  0  0  0  0  0  0  0  0  0  0  0
   -2.1076    1.6074   -0.2881 C   0  0  0  0  0  0  0  0  0  0  0  0
    2.1525    3.0077   -0.4093 C   0  0  0  0  0  0  0  0  0  0  0  0
    1.4044    1.9491    0.1272 O   0  0  0  0  0  0  0  0  0  0  0  0
    1.9833    0.7208   -0.0918 C   0  0  0  0  0  0  0  0  0  0  0  0
    2.3429   -0.0071    1.1566 C   0  0  0  0  0  0  0  0  0  0  0  0
    3.2686   -1.1516    0.7842 C   0  0  0  0  0  0  0  0  0  0  0  0
    4.6057   -0.5851    0.6405 N   0  0  0  0  0  0  0  0  0  0  0  0
    5.7765   -1.6973    0.2259 S   0  0  0  0  0  0  0  0  0  0  0  0
    6.6964   -0.7386   -1.0820 C   0  0  0  0  0  0  0  0  0  0  0  0
    5.3431   -2.9597   -0.2465 O   0  0  0  0  0  0  0  0  0  0  0  0
    6.9164   -1.7273    1.4814 O   0  0  0  0  0  0  0  0  0  0  0  0
    2.8767   -1.7346   -0.5716 C   0  0  0  0  0  0  0  0  0  0  0  0
    1.3413   -1.5773   -0.6183 C   0  0  0  0  0  0  0  0  0  0  0  0
    1.0684   -0.1745   -0.9749 C   0  0  0  0  0  0  0  0  0  0  0  0
   -0.1840    0.3828   -1.0050 N   0  0  0  0  0  0  0  0  0  0  0  0
   -1.0656    0.5400    0.0525 C   0  0  0  0  0  0  0  0  0  0  0  0
   -1.6412   -0.7548    0.5337 C   0  0  0  0  0  0  0  0  0  0  0  0
   -1.7567   -1.8379   -0.4820 C   0  0  0  0  0  0  0  0  0  0  0  0
   -3.1320   -2.3803   -0.7371 C   0  0  0  0  0  0  0  0  0  0  0  0
   -3.8080   -2.7581    0.5332 C   0  0  0  0  0  0  0  0  0  0  0  0
   -3.4929   -1.8636    1.7058 C   0  0  0  0  0  0  0  0  0  0  0  0
   -2.9592   -0.5249    1.2687 C   0  0  0  0  0  0  0  0  0  0  0  0
   -3.9218    0.1636    0.4993 N   0  0  0  0  0  0  0  0  0  0  0  0
   -3.4569    1.0109   -0.5398 C   0  0  0  0  0  0  0  0  0  0  0  0
   -4.4272    2.1372   -0.8446 C   0  0  0  0  0  0  0  0  0  0  0  0
   -4.5927    2.9049    0.4488 C   0  0  0  0  0  0  0  0  0  0  0  0
   -3.2849    3.5934    0.7055 C   0  0  0  0  0  0  0  0  0  0  0  0
   -2.0854    2.7392    0.6947 C   0  0  0  0  0  0  0  0  0  0  0  0
   -2.1076    1.6074   -0.2881 C   0  0  0  0  0  0  0  0  0  0  0  0
    3.1738    3.0743    0.0146 H   0  0  0  0  0  0  0  0  0  0  0  0
    2.2230    2.9197   -1.5196 H   0  0  0  0  0  0  0  0  0  0  0  0
    1.5915    3.9322   -0.2186 H   0  0  0  0  0  0  0  0  0  0  0  0
    2.9443    0.9303   -0.6489 H   0  0  0  0  0  0  0  0  0  0  0  0
    2.9542    0.6942    1.7829 H   0  0  0  0  0  0  0  0  0  0  0  0
    1.4958   -0.3208    1.7692 H   0  0  0  0  0  0  0  0  0  0  0  0
    3.2523   -1.9280    1.5803 H   0  0  0  0  0  0  0  0  0  0  0  0
    4.9131   -0.1508    1.5643 H   0  0  0  0  0  0  0  0  0  0  0  0
    6.1031   -0.8464   -2.0023 H   0  0  0  0  0  0  0  0  0  0  0  0
    6.6740    0.3094   -0.7144 H   0  0  0  0  0  0  0  0  0  0  0  0
    7.6873   -1.1926   -1.1288 H   0  0  0  0  0  0  0  0  0  0  0  0
    5.2909   -3.8802    0.0483 H   0  0  0  0  0  0  0  0  0  0  0  0
    6.7062   -1.0041    2.1420 H   0  0  0  0  0  0  0  0  0  0  0  0
    3.0422   -2.8322   -0.5977 H   0  0  0  0  0  0  0  0  0  0  0  0
    3.3219   -1.1838   -1.4105 H   0  0  0  0  0  0  0  0  0  0  0  0
    1.0008   -2.2359   -1.4537 H   0  0  0  0  0  0  0  0  0  0  0  0
    1.0206   -1.9352    0.3573 H   0  0  0  0  0  0  0  0  0  0  0  0
    1.5144   -0.0489   -2.0241 H   0  0  0  0  0  0  0  0  0  0  0  0
   -0.5297    0.5884   -1.9654 H   0  0  0  0  0  0  0  0  0  0  0  0
   -0.5399    1.0293    0.9668 H   0  0  0  0  0  0  0  0  0  0  0  0
   -0.9700   -1.1299    1.3481 H   0  0  0  0  0  0  0  0  0  0  0  0
   -1.3620   -1.5509   -1.4933 H   0  0  0  0  0  0  0  0  0  0  0  0
   -1.1469   -2.7539   -0.1923 H   0  0  0  0  0  0  0  0  0  0  0  0
   -3.7511   -1.8121   -1.4320 H   0  0  0  0  0  0  0  0  0  0  0  0
   -2.9584   -3.3644   -1.2919 H   0  0  0  0  0  0  0  0  0  0  0  0
   -4.9266   -2.7513    0.3476 H   0  0  0  0  0  0  0  0  0  0  0  0
   -3.5825   -3.8021    0.8030 H   0  0  0  0  0  0  0  0  0  0  0  0
   -2.7992   -2.3969    2.3831 H   0  0  0  0  0  0  0  0  0  0  0  0
   -4.4293   -1.6838    2.2631 H   0  0  0  0  0  0  0  0  0  0  0  0
   -2.7200    0.0431    2.1784 H   0  0  0  0  0  0  0  0  0  0  0  0
   -4.7586   -0.3568    0.2338 H   0  0  0  0  0  0  0  0  0  0  0  0
   -3.3728    0.4449   -1.4910 H   0  0  0  0  0  0  0  0  0  0  0  0
   -3.9392    2.8151   -1.5724 H   0  0  0  0  0  0  0  0  0  0  0  0
   -5.3714    1.7677   -1.2738 H   0  0  0  0  0  0  0  0  0  0  0  0
   -4.8282    2.2249    1.2909 H   0  0  0  0  0  0  0  0  0  0  0  0
   -5.3719    3.6743    0.3068 H   0  0  0  0  0  0  0  0  0  0  0  0
   -3.3677    4.0841    1.7219 H   0  0  0  0  0  0  0  0  0  0  0  0
   -3.1533    4.4529    0.0092 H   0  0  0  0  0  0  0  0  0  0  0  0
   -1.8562    2.4228    1.7282 H   0  0  0  0  0  0  0  0  0  0  0  0
   -1.2088    3.3959    0.4128 H   0  0  0  0  0  0  0  0  0  0  0  0
   -1.8259    2.0734   -1.2838 H   0  0  0  0  0  0  0  0  0  0  0  0
    3.1738    3.0743    0.0146 H   0  0  0  0  0  0  0  0  0  0  0  0
    2.2230    2.9197   -1.5196 H   0  0  0  0  0  0  0  0  0  0  0  0
    1.5915    3.9322   -0.2186 H   0  0  0  0  0  0  0  0  0  0  0  0
    2.9443    0.9303   -0.6489 H   0  0  0  0  0  0  0  0  0  0  0  0
    2.9542    0.6942    1.7829 H   0  0  0  0  0  0  0  0  0  0  0  0
    1.4958   -0.3208    1.7692 H   0  0  0  0  0  0  0  0  0  0  0  0
    3.2523   -1.9280    1.5803 H   0  0  0  0  0  0  0  0  0  0  0  0
    4.9131   -0.1508    1.5643 H   0  0  0  0  0  0  0  0  0  0  0  0
    6.1031   -0.8464   -2.0023 H   0  0  0  0  0  0  0  0  0  0  0  0
    6.6740    0.3094   -0.7144 H   0  0  0  0  0  0  0  0  0  0  0  0
    7.6873   -1.1926   -1.1288 H   0  0  0  0  0  0  0  0  0  0  0  0
    5.2909   -3.8802    0.0483 H   0  0  0  0  0  0  0  0  0  0  0  0
    6.7062   -1.0041    2.1420 H   0  0  0  0  0  0  0  0  0  0  0  0
    3.0422   -2.8322   -0.5977 H   0  0  0  0  0  0  0  0  0  0  0  0
    3.3219   -1.1838   -1.4105 H   0  0  0  0  0  0  0  0  0  0  0  0
    1.0008   -2.2359   -1.4537 H   0  0  0  0  0  0  0  0  0  0  0  0
    1.0206   -1.9352    0.3573 H   0  0  0  0  0  0  0  0  0  0  0  0
    1.5144   -0.0489   -2.0241 H   0  0  0  0  0  0  0  0  0  0  0  0
   -0.5297    0.5884   -1.9654 H   0  0  0  0  0  0  0  0  0  0  0  0
   -0.5399    1.0293    0.9668 H   0  0  0  0  0  0  0  0  0  0  0  0
   -0.9700   -1.1299    1.3481 H   0  0  0  0  0  0  0  0  0  0  0  0
   -1.3620   -1.5509   -1.4933 H   0  0  0  0  0  0  0  0  0  0  0  0
   -1.1469   -2.7539   -0.1923 H   0  0  0  0  0  0  0  0  0  0  0  0
   -3.7511   -1.8121   -1.4320 H   0  0  0  0  0  0  0  0  0  0  0  0
   -2.9584   -3.3644   -1.2919 H   0  0  0  0  0  0  0  0  0  0  0  0
   -4.9266   -2.7513    0.3476 H   0  0  0  0  0  0  0  0  0  0  0  0
   -3.5825   -3.8021    0.8030 H   0  0  0  0  0  0  0  0  0  0  0  0
   -2.7992   -2.3969    2.3831 H   0  0  0  0  0  0  0  0  0  0  0  0
   -4.4293   -1.6838    2.2631 H   0  0  0  0  0  0  0  0  0  0  0  0
   -2.7200    0.0431    2.1784 H   0  0  0  0  0  0  0  0  0  0  0  0
   -4.7586   -0.3568    0.2338 H   0  0  0  0  0  0  0  0  0  0  0  0
   -3.3728    0.4449   -1.4910 H   0  0  0  0  0  0  0  0  0  0  0  0
   -3.9392    2.8151   -1.5724 H   0  0  0  0  0  0  0  0  0  0  0  0
   -5.3714    1.7677   -1.2738 H   0  0  0  0  0  0  0  0  0  0  0  0
   -4.8282    2.2249    1.2909 H   0  0  0  0  0  0  0  0  0  0  0  0
   -5.3719    3.6743    0.3068 H   0  0  0  0  0  0  0  0  0  0  0  0
   -3.3677    4.0841    1.7219 H   0  0  0  0  0  0  0  0  0  0  0  0
   -3.1533    4.4529    0.0092 H   0  0  0  0  0  0  0  0  0  0  0  0
   -1.8562    2.4228    1.7282 H   0  0  0  0  0  0  0  0  0  0  0  0
   -1.2088    3.3959    0.4128 H   0  0  0  0  0  0  0  0  0  0  0  0
   -1.8259    2.0734   -1.2838 H   0  0  0  0  0  0  0  0  0  0  0  0
  1  2  1  0
  2  3  1  0
  3  4  1  0
  4  5  1  0
  5  6  1  0
  6  7  1  0
  7  8  1  0
  7  9  1  0
  7 10  1  0
  5 11  1  0
 11 12  1  0
  3 13  1  0
 12 13  1  0
 13 14  1  0
 14 15  1  0
 15 16  1  0
 16 17  1  0
 17 18  1  0
 18 19  1  0
 19 20  1  0
 16 21  1  0
 20 21  1  0
 21 22  1  0
 22 23  1  0
 23 24  1  0
 24 25  1  0
 25 26  1  0
 26 27  1  0
 15 28  1  0
 23 28  1  0
 27 28  1  0
 29 30  1  0
 30 31  1  0
 31 32  1  0
 32 33  1  0
 33 34  1  0
 34 35  1  0
 35 36  1  0
 35 37  1  0
 35 38  1  0
 33 39  1  0
 39 40  1  0
 31 41  1  0
 40 41  1  0
 41 42  1  0
 42 43  1  0
 43 44  1  0
 44 45  1  0
 45 46  1  0
 46 47  1  0
 47 48  1  0
 44 49  1  0
 48 49  1  0
 49 50  1  0
 50 51  1  0
 51 52  1  0
 52 53  1  0
 53 54  1  0
 54 55  1  0
 43 56  1  0
 51 56  1  0
 55 56  1  0
  1 57  1  0
  1 58  1  0
  1 59  1  0
  3 60  1  0
  4 61  1  0
  4 62  1  0
  5 63  1  0
  6 64  1  0
  8 65  1  0
  8 66  1  0
  8 67  1  0
  9 68  1  0
 10 69  1  0
 11 70  1  0
 11 71  1  0
 12 72  1  0
 12 73  1  0
 13 74  1  0
 14 75  1  0
 15 76  1  0
 16 77  1  0
 17 78  1  0
 17 79  1  0
 18 80  1  0
 18 81  1  0
 19 82  1  0
 19 83  1  0
 20 84  1  0
 20 85  1  0
 21 86  1  0
 22 87  1  0
 23 88  1  0
 24 89  1  0
 24 90  1  0
 25 91  1  0
 25 92  1  0
 26 93  1  0
 26 94  1  0
 27 95  1  0
 27 96  1  0
 28 97  1  0
 29 98  1  0
 29 99  1  0
 29100  1  0
 31101  1  0
 32102  1  0
 32103  1  0
 33104  1  0
 34105  1  0
 36106  1  0
 36107  1  0
 36108  1  0
 37109  1  0
 38110  1  0
 39111  1  0
 39112  1  0
 40113  1  0
 40114  1  0
 41115  1  0
 42116  1  0
 43117  1  0
 44118  1  0
 45119  1  0
 45120  1  0
 46121  1  0
 46122  1  0
 47123  1  0
 47124  1  0
 48125  1  0
 48126  1  0
 49127  1  0
 50128  1  0
 51129  1  0
 52130  1  0
 52131  1  0
 53132  1  0
 53133  1  0
 54134  1  0
 54135  1  0
 55136  1  0
 55137  1  0
 56138  1  0
M  END
>  <PDBID>  (1) 
4G0U

>  <PDB ID>  (1) 
4G0U

>  <Generic Name>  (1) 
Amsacrine

>  <Brand Name>  (1) 
Amsa Pd Inj 50mg/ml#AMSA P-D#Amekrin#Amsidine#Amsidyl

>  <DrugBank ID>  (1) 
DB00276

>  <ATC Codes>  (1) 
L01XX01

>  <Ligand ID>  (1) 
ASW

>  <Target Name>  (1) 
DNA topoisomerase 2-alpha

>  <UniProt ID>  (1) 
P11388

>  <PDB ID.1>  (1) 
4G0U

>  <Seq. Identity>  (1) 
78%

$$$$
