PDB_DB00311_07
     RDKit          3D

 36 37  0  0  0  0  0  0  0  0999 V2000
   -4.8578   -0.3495   -0.9988 N   0  0  0  0  0  0  0  0  0  0  0  0
   -0.4456   -0.6246   -0.2108 C   0  0  2  0  0  0  0  0  0  0  0  0
   -0.1009    0.8629   -0.1234 C   0  0  1  0  0  0  0  0  0  0  0  0
    1.3777    0.9816   -0.1723 C   0  0  0  0  0  0  0  0  0  0  0  0
    1.9336    0.0359    0.9018 C   0  0  0  0  0  0  0  0  0  0  0  0
    4.2034   -0.1213    1.3428 C   0  0  0  0  0  0  0  0  0  0  0  0
   -3.4234    1.4493    0.3999 O   0  0  0  0  0  0  0  0  0  0  0  0
   -4.1529    1.9340   -2.1354 O   0  0  0  0  0  0  0  0  0  0  0  0
   -3.6765    0.9876   -1.1605 S   0  0  0  0  0  0  0  0  0  0  0  0
   -2.1895    0.0796   -1.6103 C   0  0  0  0  0  0  0  0  0  0  0  0
   -1.8514   -0.7103   -0.4612 N   0  0  0  0  0  0  0  0  0  0  0  0
   -0.8909    1.3488   -1.7132 S   0  0  0  0  0  0  0  0  0  0  0  0
    0.8450   -0.3442    1.8811 C   0  0  0  0  0  0  0  0  0  0  0  0
   -0.1541   -1.2104    1.1444 C   0  0  0  0  0  0  0  0  0  0  0  0
    3.0318    0.5880    1.4982 O   0  0  0  0  0  0  0  0  0  0  0  0
    4.4993   -0.2166   -0.1387 C   0  0  0  0  0  0  0  0  0  0  0  0
   -4.9971   -0.6060   -2.0082 H   0  0  0  0  0  0  0  0  0  0  0  0
   -4.2640   -1.1035   -0.5818 H   0  0  0  0  0  0  0  0  0  0  0  0
    0.1917   -1.0897   -0.9625 H   0  0  0  0  0  0  0  0  0  0  0  0
   -0.6010    1.3689    0.6996 H   0  0  0  0  0  0  0  0  0  0  0  0
    1.7200    0.6584   -1.1897 H   0  0  0  0  0  0  0  0  0  0  0  0
    1.7504    2.0075   -0.0157 H   0  0  0  0  0  0  0  0  0  0  0  0
    2.2374   -0.9055    0.3992 H   0  0  0  0  0  0  0  0  0  0  0  0
    4.1451   -1.1583    1.7314 H   0  0  0  0  0  0  0  0  0  0  0  0
    5.0457    0.3577    1.8535 H   0  0  0  0  0  0  0  0  0  0  0  0
   -4.2316    1.4358    0.9695 H   0  0  0  0  0  0  0  0  0  0  0  0
   -5.1130    2.0040   -2.4338 H   0  0  0  0  0  0  0  0  0  0  0  0
   -2.3391   -0.4669   -2.5314 H   0  0  0  0  0  0  0  0  0  0  0  0
   -2.0781   -1.6959   -0.6733 H   0  0  0  0  0  0  0  0  0  0  0  0
    0.3093    0.5043    2.3054 H   0  0  0  0  0  0  0  0  0  0  0  0
    1.3226   -0.9954    2.6430 H   0  0  0  0  0  0  0  0  0  0  0  0
    0.1758   -2.2690    1.0876 H   0  0  0  0  0  0  0  0  0  0  0  0
   -1.1003   -1.2243    1.7529 H   0  0  0  0  0  0  0  0  0  0  0  0
    4.0522    0.6607   -0.6376 H   0  0  0  0  0  0  0  0  0  0  0  0
    5.5876   -0.3090   -0.3338 H   0  0  0  0  0  0  0  0  0  0  0  0
    4.0384   -1.1432   -0.5180 H   0  0  0  0  0  0  0  0  0  0  0  0
  2  3  1  0
  3  4  1  0
  4  5  1  0
  1  9  1  0
  9  7  1  0
  8  9  1  0
  9 10  1  0
  2 11  1  0
 10 11  1  0
  3 12  1  0
 10 12  1  0
  5 13  1  0
  2 14  1  0
 13 14  1  0
  5 15  1  0
  6 15  1  0
  6 16  1  0
  1 17  1  0
  1 18  1  0
  2 19  1  6
  3 20  1  1
  4 21  1  0
  4 22  1  0
  5 23  1  0
  6 24  1  0
  6 25  1  0
  7 26  1  0
  8 27  1  0
 10 28  1  0
 11 29  1  0
 13 30  1  0
 13 31  1  0
 14 32  1  0
 14 33  1  0
 16 34  1  0
 16 35  1  0
 16 36  1  0
M  END
>  <PDBID>  (1) 
3DD0

>  <PDB ID>  (1) 
3DD0

>  <Generic Name>  (1) 
Ethoxzolamide

>  <Brand Name>  (1) 
Cardrase#Ethamide

>  <DrugBank ID>  (1) 
DB00311

>  <ATC Codes>  (1) 
nan

>  <Ligand ID>  (1) 
EZL

>  <Target Name>  (1) 
Carbonic anhydrase 1

>  <UniProt ID>  (1) 
P00915

>  <PDB ID.1>  (1) 
3DD0

>  <Seq. Identity>  (1) 
61%

$$$$
