PDB_DB00615_00
     RDKit          3D

294304  0  0  0  0  0  0  0  0999 V2000
    1.5696    1.3652   -2.2024 C   0  0  0  0  0  0  0  0  0  0  0  0
    2.4968    2.1284   -1.2848 C   0  0  0  0  0  0  0  0  0  0  0  0
    3.1049    1.3623   -0.1912 C   0  0  0  0  0  0  0  0  0  0  0  0
    3.5250   -0.0109   -0.7646 C   0  0  2  0  0  0  0  0  0  0  0  0
    2.2264   -2.1515   -1.0820 C   0  0  0  0  0  0  0  0  0  0  0  0
    1.3942   -2.8702   -2.0675 C   0  0  0  0  0  0  0  0  0  0  0  0
    0.4050   -2.0576   -2.8182 C   0  0  0  0  0  0  0  0  0  0  0  0
    0.8115   -0.7012   -3.2087 C   0  0  0  0  0  0  0  0  0  0  0  0
    1.8988   -0.0546   -2.4584 C   0  0  0  0  0  0  0  0  0  0  0  0
    2.2415   -0.6844   -1.1110 C   0  0  0  0  0  0  0  0  0  0  0  0
    1.6860   -2.6365    0.2561 C   0  0  2  0  0  0  0  0  0  0  0  0
    0.6138   -3.6560   -0.1153 C   0  0  2  0  0  0  0  0  0  0  0  0
    0.9584   -4.9488    0.6379 C   0  0  0  0  0  0  0  0  0  0  0  0
    0.0021   -2.8581   -4.0524 C   0  0  0  0  0  0  0  0  0  0  0  0
    1.8047    3.9036    0.2794 C   0  0  0  0  0  0  0  0  0  0  0  0
    0.6270    4.8985    0.3309 C   0  0  0  0  0  0  0  0  0  0  0  0
   -0.6772    4.1597    0.1207 C   0  0  0  0  0  0  0  0  0  0  0  0
   -1.4089    3.8211    1.3738 C   0  0  0  0  0  0  0  0  0  0  0  0
   -2.7179    4.5068    1.5674 C   0  0  0  0  0  0  0  0  0  0  0  0
   -3.7921    4.1101    0.5792 C   0  0  1  0  0  0  0  0  0  0  0  0
   -4.6807    3.0571    1.2190 C   0  0  1  0  0  0  0  0  0  0  0  0
   -5.5788    2.3433    0.2732 C   0  0  2  0  0  0  0  0  0  0  0  0
   -5.0785    0.9699   -0.1258 C   0  0  2  0  0  0  0  0  0  0  0  0
   -5.8582   -0.0867    0.5688 C   0  0  2  0  0  0  0  0  0  0  0  0
   -5.6806   -1.4860    0.0708 C   0  0  1  0  0  0  0  0  0  0  0  0
   -4.8306   -1.6719   -1.1230 C   0  0  1  0  0  0  0  0  0  0  0  0
   -3.9509   -2.9053   -0.9903 C   0  0  2  0  0  0  0  0  0  0  0  0
   -2.7575   -2.6448   -0.1258 C   0  0  0  0  0  0  0  0  0  0  0  0
   -1.7294   -3.7578   -0.1476 C   0  0  0  0  0  0  0  0  0  0  0  0
    0.7711    5.8519   -0.8630 C   0  0  0  0  0  0  0  0  0  0  0  0
   -4.5943    5.3871    0.3136 C   0  0  0  0  0  0  0  0  0  0  0  0
   -5.9107    3.1571   -0.9761 C   0  0  0  0  0  0  0  0  0  0  0  0
   -7.3315    0.2621    0.6244 C   0  0  0  0  0  0  0  0  0  0  0  0
   -5.6980   -1.9452   -2.3657 C   0  0  0  0  0  0  0  0  0  0  0  0
   -6.3534   -3.2270    1.4659 C   0  0  0  0  0  0  0  0  0  0  0  0
   -6.8768   -2.8332    2.8680 C   0  0  0  0  0  0  0  0  0  0  0  0
   -3.9308   -4.6062   -2.5265 C   0  0  0  0  0  0  0  0  0  0  0  0
    5.1122    0.6119    0.6708 C   0  0  0  0  0  0  0  0  0  0  0  0
    5.3129    0.7241    2.1687 C   0  0  0  0  0  0  0  0  0  0  0  0
    6.5126    0.4405    0.1062 C   0  0  0  0  0  0  0  0  0  0  0  0
    5.8664   -0.5354    2.6981 C   0  0  0  0  0  0  0  0  0  0  0  0
    6.9560   -0.9353    0.6191 C   0  0  0  0  0  0  0  0  0  0  0  0
    8.2400   -0.5852    2.6770 C   0  0  0  0  0  0  0  0  0  0  0  0
    9.5421   -1.2513    2.4137 C   0  0  0  0  0  0  0  0  0  0  0  0
   10.6382   -0.5841    3.2993 C   0  0  0  0  0  0  0  0  0  0  0  0
   10.0943   -1.2013    1.0293 C   0  0  0  0  0  0  0  0  0  0  0  0
    1.7856    3.3148   -0.9741 N   0  0  0  0  0  0  0  0  0  0  0  0
    4.4398    1.8051    0.1978 N   0  0  0  0  0  0  0  0  0  0  0  0
    4.2742   -0.5257    0.3044 N   0  0  0  0  0  0  0  0  0  0  0  0
    7.0771   -1.0305    2.0221 N   0  0  0  0  0  0  0  0  0  0  0  0
    1.5525    2.0503   -3.4227 O   0  0  0  0  0  0  0  0  0  0  0  0
   -0.3431    0.1199   -3.1782 O   0  0  0  0  0  0  0  0  0  0  0  0
    0.7118   -3.8972   -1.4398 O   0  0  0  0  0  0  0  0  0  0  0  0
    1.1341   -1.5865    0.9895 O   0  0  0  0  0  0  0  0  0  0  0  0
   -0.5705   -3.2183    0.3742 O   0  0  0  0  0  0  0  0  0  0  0  0
   -3.4941   -3.3261   -2.2418 O   0  0  0  0  0  0  0  0  0  0  0  0
   -5.3451   -2.3619    1.1288 O   0  0  0  0  0  0  0  0  0  0  0  0
   -6.0447   -4.5525    1.5321 O   0  0  0  0  0  0  0  0  0  0  0  0
   -3.7213    0.8794    0.1463 O   0  0  0  0  0  0  0  0  0  0  0  0
   -3.8717    2.1736    1.9561 O   0  0  0  0  0  0  0  0  0  0  0  0
    1.6563    3.1241    1.3896 O   0  0  0  0  0  0  0  0  0  0  0  0
    1.7724    1.1088   -2.4425 C   0  0  0  0  0  0  0  0  0  0  0  0
    2.5106    1.9130   -1.4105 C   0  0  0  0  0  0  0  0  0  0  0  0
    2.9530    1.0182   -0.2738 C   0  0  1  0  0  0  0  0  0  0  0  0
    3.6581   -0.1517   -0.9707 C   0  0  2  0  0  0  0  0  0  0  0  0
    2.4130   -2.3631   -1.0986 C   0  0  0  0  0  0  0  0  0  0  0  0
    1.7152   -3.1834   -2.1435 C   0  0  0  0  0  0  0  0  0  0  0  0
    0.9094   -2.4888   -3.1390 C   0  0  0  0  0  0  0  0  0  0  0  0
    0.8280   -1.0271   -3.1466 C   0  0  0  0  0  0  0  0  0  0  0  0
    1.4615   -0.3134   -1.9836 C   0  0  0  0  0  0  0  0  0  0  0  0
    2.7525   -1.0509   -1.6761 C   0  0  1  0  0  0  0  0  0  0  0  0
    1.4795   -2.4198    0.0507 C   0  0  0  0  0  0  0  0  0  0  0  0
    0.3721   -3.3423   -0.3572 C   0  0  2  0  0  0  0  0  0  0  0  0
    0.0064   -4.3383    0.7519 C   0  0  0  0  0  0  0  0  0  0  0  0
    1.3552   -2.9561   -4.5385 C   0  0  0  0  0  0  0  0  0  0  0  0
    1.0985    3.0447    0.1992 C   0  0  0  0  0  0  0  0  0  0  0  0
    0.3311    4.3631    0.3211 C   0  0  0  0  0  0  0  0  0  0  0  0
   -1.1732    4.1259    0.2478 C   0  0  0  0  0  0  0  0  0  0  0  0
   -1.6898    3.5353    1.5420 C   0  0  0  0  0  0  0  0  0  0  0  0
   -2.9850    4.1645    1.9669 C   0  0  0  0  0  0  0  0  0  0  0  0
   -4.0728    4.0003    0.9020 C   0  0  1  0  0  0  0  0  0  0  0  0
   -5.1931    3.2419    1.5478 C   0  0  1  0  0  0  0  0  0  0  0  0
   -6.0194    2.4149    0.6118 C   0  0  2  0  0  0  0  0  0  0  0  0
   -5.3646    1.1218    0.1850 C   0  0  2  0  0  0  0  0  0  0  0  0
   -6.0689   -0.0363    0.7907 C   0  0  2  0  0  0  0  0  0  0  0  0
   -5.7142   -1.3853    0.2110 C   0  0  1  0  0  0  0  0  0  0  0  0
   -4.7261   -1.3558   -0.9005 C   0  0  1  0  0  0  0  0  0  0  0  0
   -3.7528   -2.5332   -0.7774 C   0  0  2  0  0  0  0  0  0  0  0  0
   -2.8228   -2.3797    0.3823 C   0  0  0  0  0  0  0  0  0  0  0  0
   -1.4315   -1.9292    0.0020 C   0  0  0  0  0  0  0  0  0  0  0  0
    0.6825    5.3116   -0.8047 C   0  0  0  0  0  0  0  0  0  0  0  0
   -4.5033    5.4083    0.4891 C   0  0  0  0  0  0  0  0  0  0  0  0
   -6.3770    3.2718   -0.6023 C   0  0  0  0  0  0  0  0  0  0  0  0
   -7.5606    0.1912    0.8046 C   0  0  0  0  0  0  0  0  0  0  0  0
   -5.4716   -1.4681   -2.2224 C   0  0  0  0  0  0  0  0  0  0  0  0
   -6.3359   -3.2752    1.4224 C   0  0  0  0  0  0  0  0  0  0  0  0
   -6.9807   -3.0441    2.7956 C   0  0  0  0  0  0  0  0  0  0  0  0
   -3.3990   -3.9692   -2.5591 C   0  0  0  0  0  0  0  0  0  0  0  0
    5.0931    0.5675    0.5679 C   0  0  0  0  0  0  0  0  0  0  0  0
    5.5605    0.3787    1.9983 C   0  0  0  0  0  0  0  0  0  0  0  0
    6.2994    0.9853   -0.2307 C   0  0  0  0  0  0  0  0  0  0  0  0
    6.5842   -0.7372    1.9973 C   0  0  0  0  0  0  0  0  0  0  0  0
    7.3154   -0.1051   -0.2156 C   0  0  0  0  0  0  0  0  0  0  0  0
    8.8561    0.0253    1.6500 C   0  0  0  0  0  0  0  0  0  0  0  0
    9.5712   -0.9486    2.5691 C   0  0  0  0  0  0  0  0  0  0  0  0
   10.8338   -0.3431    3.1369 C   0  0  0  0  0  0  0  0  0  0  0  0
    9.9343   -2.2250    1.8192 C   0  0  0  0  0  0  0  0  0  0  0  0
    1.8505    3.1044   -1.0036 N   0  0  0  0  0  0  0  0  0  0  0  0
    4.0340    1.5816    0.4877 N   0  0  0  0  0  0  0  0  0  0  0  0
    4.4746   -0.6557    0.0718 N   0  0  0  0  0  0  0  0  0  0  0  0
    7.6604   -0.5164    1.1013 N   0  0  0  0  0  0  0  0  0  0  0  0
    2.5138    0.9573   -3.6350 O   0  0  0  0  0  0  0  0  0  0  0  0
   -0.5101   -0.5635   -3.1934 O   0  0  0  0  0  0  0  0  0  0  0  0
    0.9581   -4.0927   -1.3647 O   0  0  0  0  0  0  0  0  0  0  0  0
    2.0962   -3.0685    1.1536 O   0  0  0  0  0  0  0  0  0  0  0  0
   -0.7550   -2.7575   -0.8291 O   0  0  0  0  0  0  0  0  0  0  0  0
   -3.0704   -2.7426   -1.9805 O   0  0  0  0  0  0  0  0  0  0  0  0
   -5.4120   -2.2815    1.2380 O   0  0  0  0  0  0  0  0  0  0  0  0
   -5.8536   -4.5599    1.3872 O   0  0  0  0  0  0  0  0  0  0  0  0
   -4.0323    1.2109    0.6148 O   0  0  0  0  0  0  0  0  0  0  0  0
   -4.6702    2.4356    2.5550 O   0  0  0  0  0  0  0  0  0  0  0  0
    0.1677    2.0327    0.2508 O   0  0  0  0  0  0  0  0  0  0  0  0
    0.5386    1.4193   -1.7670 H   0  0  0  0  0  0  0  0  0  0  0  0
    3.3550    2.4497   -1.9562 H   0  0  0  0  0  0  0  0  0  0  0  0
    2.4882    1.0834    0.6638 H   0  0  0  0  0  0  0  0  0  0  0  0
    4.1889    0.1938   -1.6223 H   0  0  0  0  0  0  0  0  0  0  0  0
    3.2946   -2.5180   -1.1284 H   0  0  0  0  0  0  0  0  0  0  0  0
    2.0615   -3.3638   -2.8110 H   0  0  0  0  0  0  0  0  0  0  0  0
   -0.5374   -2.0195   -2.1938 H   0  0  0  0  0  0  0  0  0  0  0  0
    1.0912   -0.7188   -4.3041 H   0  0  0  0  0  0  0  0  0  0  0  0
    2.8487   -0.0739   -3.0716 H   0  0  0  0  0  0  0  0  0  0  0  0
    1.4018   -0.3289   -0.4403 H   0  0  0  0  0  0  0  0  0  0  0  0
    2.4785   -3.0728    0.8960 H   0  0  0  0  0  0  0  0  0  0  0  0
    1.8527   -5.4172    0.2045 H   0  0  0  0  0  0  0  0  0  0  0  0
    1.1583   -4.6124    1.6901 H   0  0  0  0  0  0  0  0  0  0  0  0
    0.0573   -5.5708    0.6315 H   0  0  0  0  0  0  0  0  0  0  0  0
   -0.6272   -3.7186   -3.7957 H   0  0  0  0  0  0  0  0  0  0  0  0
    0.9471   -3.2369   -4.5313 H   0  0  0  0  0  0  0  0  0  0  0  0
   -0.4697   -2.2118   -4.8204 H   0  0  0  0  0  0  0  0  0  0  0  0
    2.7071    4.5540    0.4047 H   0  0  0  0  0  0  0  0  0  0  0  0
    0.6243    5.4422    1.2804 H   0  0  0  0  0  0  0  0  0  0  0  0
   -1.3795    4.7620   -0.5249 H   0  0  0  0  0  0  0  0  0  0  0  0
   -0.5231    3.1915   -0.4360 H   0  0  0  0  0  0  0  0  0  0  0  0
   -1.5952    2.7143    1.4846 H   0  0  0  0  0  0  0  0  0  0  0  0
   -0.7848    4.1031    2.2767 H   0  0  0  0  0  0  0  0  0  0  0  0
   -2.5890    5.6234    1.6315 H   0  0  0  0  0  0  0  0  0  0  0  0
   -3.0752    4.2203    2.5940 H   0  0  0  0  0  0  0  0  0  0  0  0
   -3.2918    3.7486   -0.3286 H   0  0  0  0  0  0  0  0  0  0  0  0
   -5.2772    3.6075    1.9886 H   0  0  0  0  0  0  0  0  0  0  0  0
   -6.5684    2.2184    0.7841 H   0  0  0  0  0  0  0  0  0  0  0  0
   -5.2248    0.8708   -1.2202 H   0  0  0  0  0  0  0  0  0  0  0  0
   -5.5268   -0.0765    1.6518 H   0  0  0  0  0  0  0  0  0  0  0  0
   -6.7281   -1.8310   -0.2086 H   0  0  0  0  0  0  0  0  0  0  0  0
   -4.1721   -0.8063   -1.3646 H   0  0  0  0  0  0  0  0  0  0  0  0
   -4.5431   -3.7204   -0.5488 H   0  0  0  0  0  0  0  0  0  0  0  0
   -2.2863   -1.6824   -0.4913 H   0  0  0  0  0  0  0  0  0  0  0  0
   -3.0037   -2.4443    0.9312 H   0  0  0  0  0  0  0  0  0  0  0  0
   -2.1394   -4.5874    0.4667 H   0  0  0  0  0  0  0  0  0  0  0  0
   -1.5525   -4.0411   -1.1897 H   0  0  0  0  0  0  0  0  0  0  0  0
    0.2789    5.3887   -1.7526 H   0  0  0  0  0  0  0  0  0  0  0  0
    1.8257    6.0608   -1.0807 H   0  0  0  0  0  0  0  0  0  0  0  0
    0.1646    6.7510   -0.6293 H   0  0  0  0  0  0  0  0  0  0  0  0
   -4.7426    5.5792   -0.7585 H   0  0  0  0  0  0  0  0  0  0  0  0
   -4.0462    6.3017    0.6917 H   0  0  0  0  0  0  0  0  0  0  0  0
   -5.5364    5.3930    0.9118 H   0  0  0  0  0  0  0  0  0  0  0  0
   -5.0369    3.3610   -1.6026 H   0  0  0  0  0  0  0  0  0  0  0  0
   -6.5587    4.0166   -0.7520 H   0  0  0  0  0  0  0  0  0  0  0  0
   -6.5645    2.4765   -1.6007 H   0  0  0  0  0  0  0  0  0  0  0  0
   -7.6835    0.8165   -0.2581 H   0  0  0  0  0  0  0  0  0  0  0  0
   -7.9013   -0.7154    0.5853 H   0  0  0  0  0  0  0  0  0  0  0  0
   -7.6458    0.7150    1.5883 H   0  0  0  0  0  0  0  0  0  0  0  0
   -6.5071   -2.6658   -2.1260 H   0  0  0  0  0  0  0  0  0  0  0  0
   -5.0878   -2.3995   -3.1702 H   0  0  0  0  0  0  0  0  0  0  0  0
   -6.0793   -0.9798   -2.7702 H   0  0  0  0  0  0  0  0  0  0  0  0
   -7.2726   -3.1095    0.8139 H   0  0  0  0  0  0  0  0  0  0  0  0
   -7.9195   -3.1758    2.9720 H   0  0  0  0  0  0  0  0  0  0  0  0
   -6.7612   -1.7351    2.9903 H   0  0  0  0  0  0  0  0  0  0  0  0
   -6.2624   -3.4248    3.5802 H   0  0  0  0  0  0  0  0  0  0  0  0
   -3.5335   -5.2760   -1.7378 H   0  0  0  0  0  0  0  0  0  0  0  0
   -5.0285   -4.7131   -2.5546 H   0  0  0  0  0  0  0  0  0  0  0  0
   -3.5263   -4.8580   -3.5375 H   0  0  0  0  0  0  0  0  0  0  0  0
    4.3271    0.9119    2.6346 H   0  0  0  0  0  0  0  0  0  0  0  0
    6.0300    1.5512    2.3239 H   0  0  0  0  0  0  0  0  0  0  0  0
    7.1386    1.2410    0.5176 H   0  0  0  0  0  0  0  0  0  0  0  0
    6.5638    0.4235   -0.9791 H   0  0  0  0  0  0  0  0  0  0  0  0
    5.1255   -1.3577    2.7356 H   0  0  0  0  0  0  0  0  0  0  0  0
    6.1962   -0.3714    3.7614 H   0  0  0  0  0  0  0  0  0  0  0  0
    6.1289   -1.6267    0.2792 H   0  0  0  0  0  0  0  0  0  0  0  0
    7.8592   -1.1910    0.0888 H   0  0  0  0  0  0  0  0  0  0  0  0
    8.0748   -0.6706    3.8008 H   0  0  0  0  0  0  0  0  0  0  0  0
    8.4051    0.5291    2.5207 H   0  0  0  0  0  0  0  0  0  0  0  0
    9.4982   -2.3232    2.7282 H   0  0  0  0  0  0  0  0  0  0  0  0
   11.3749   -1.3858    3.4835 H   0  0  0  0  0  0  0  0  0  0  0  0
   10.1713   -0.2351    4.2372 H   0  0  0  0  0  0  0  0  0  0  0  0
   11.1303    0.2013    2.7146 H   0  0  0  0  0  0  0  0  0  0  0  0
   11.2422   -1.2588    1.1641 H   0  0  0  0  0  0  0  0  0  0  0  0
    9.9651   -0.2405    0.5156 H   0  0  0  0  0  0  0  0  0  0  0  0
    9.8695   -2.1068    0.4110 H   0  0  0  0  0  0  0  0  0  0  0  0
    1.8631    4.0083   -1.7206 H   0  0  0  0  0  0  0  0  0  0  0  0
    4.3762    2.5179    0.9659 H   0  0  0  0  0  0  0  0  0  0  0  0
    3.7843   -0.8208    1.1468 H   0  0  0  0  0  0  0  0  0  0  0  0
    2.4491    1.9098   -3.8113 H   0  0  0  0  0  0  0  0  0  0  0  0
   -0.3438    0.7624   -3.9303 H   0  0  0  0  0  0  0  0  0  0  0  0
    0.1773   -1.4572    0.8182 H   0  0  0  0  0  0  0  0  0  0  0  0
   -6.8016   -5.1567    1.5667 H   0  0  0  0  0  0  0  0  0  0  0  0
   -3.4690    0.1282    0.7154 H   0  0  0  0  0  0  0  0  0  0  0  0
   -3.9476    2.2901    2.9281 H   0  0  0  0  0  0  0  0  0  0  0  0
    0.8221    2.6286    1.3401 H   0  0  0  0  0  0  0  0  0  0  0  0
    0.8288    1.5933   -2.7448 H   0  0  0  0  0  0  0  0  0  0  0  0
    3.4756    2.2422   -1.9056 H   0  0  0  0  0  0  0  0  0  0  0  0
    2.1530    0.7050    0.3872 H   0  0  0  0  0  0  0  0  0  0  0  0
    4.3526    0.3698   -1.6991 H   0  0  0  0  0  0  0  0  0  0  0  0
    3.3908   -2.8500   -0.8012 H   0  0  0  0  0  0  0  0  0  0  0  0
    2.5071   -3.8372   -2.6147 H   0  0  0  0  0  0  0  0  0  0  0  0
   -0.1494   -2.8928   -3.0754 H   0  0  0  0  0  0  0  0  0  0  0  0
    1.2919   -0.5908   -4.0810 H   0  0  0  0  0  0  0  0  0  0  0  0
    0.7415   -0.3069   -1.1639 H   0  0  0  0  0  0  0  0  0  0  0  0
    3.1921   -1.2645   -2.7018 H   0  0  0  0  0  0  0  0  0  0  0  0
    1.1389   -1.4610    0.4584 H   0  0  0  0  0  0  0  0  0  0  0  0
    0.9100   -4.9157    1.0227 H   0  0  0  0  0  0  0  0  0  0  0  0
   -0.3406   -3.8356    1.6599 H   0  0  0  0  0  0  0  0  0  0  0  0
   -0.7357   -5.0432    0.3819 H   0  0  0  0  0  0  0  0  0  0  0  0
    0.9336   -3.9546   -4.7745 H   0  0  0  0  0  0  0  0  0  0  0  0
    2.4505   -3.0456   -4.5995 H   0  0  0  0  0  0  0  0  0  0  0  0
    0.9387   -2.2571   -5.2930 H   0  0  0  0  0  0  0  0  0  0  0  0
    1.7126    2.9767    1.1197 H   0  0  0  0  0  0  0  0  0  0  0  0
    0.5283    4.8844    1.2656 H   0  0  0  0  0  0  0  0  0  0  0  0
   -1.6391    5.1212    0.0952 H   0  0  0  0  0  0  0  0  0  0  0  0
   -1.4375    3.5176   -0.6314 H   0  0  0  0  0  0  0  0  0  0  0  0
   -1.7538    2.4303    1.5226 H   0  0  0  0  0  0  0  0  0  0  0  0
   -0.9380    3.7922    2.3343 H   0  0  0  0  0  0  0  0  0  0  0  0
   -2.7846    5.2399    2.1748 H   0  0  0  0  0  0  0  0  0  0  0  0
   -3.2755    3.7150    2.9363 H   0  0  0  0  0  0  0  0  0  0  0  0
   -3.6765    3.4378    0.0390 H   0  0  0  0  0  0  0  0  0  0  0  0
   -5.8873    3.9495    2.0815 H   0  0  0  0  0  0  0  0  0  0  0  0
   -7.0018    2.2590    1.1311 H   0  0  0  0  0  0  0  0  0  0  0  0
   -5.4029    1.1048   -0.9389 H   0  0  0  0  0  0  0  0  0  0  0  0
   -5.7611   -0.0558    1.8795 H   0  0  0  0  0  0  0  0  0  0  0  0
   -6.6947   -1.7779   -0.2039 H   0  0  0  0  0  0  0  0  0  0  0  0
   -4.1111   -0.4503   -0.9835 H   0  0  0  0  0  0  0  0  0  0  0  0
   -4.3895   -3.4270   -0.6243 H   0  0  0  0  0  0  0  0  0  0  0  0
   -3.1865   -1.6463    1.1301 H   0  0  0  0  0  0  0  0  0  0  0  0
   -2.7611   -3.3575    0.9464 H   0  0  0  0  0  0  0  0  0  0  0  0
   -1.5509   -0.9355   -0.5048 H   0  0  0  0  0  0  0  0  0  0  0  0
   -0.9108   -1.7003    0.9576 H   0  0  0  0  0  0  0  0  0  0  0  0
    0.7380    4.7025   -1.7328 H   0  0  0  0  0  0  0  0  0  0  0  0
    1.6252    5.8549   -0.5857 H   0  0  0  0  0  0  0  0  0  0  0  0
   -0.1736    6.0214   -0.9549 H   0  0  0  0  0  0  0  0  0  0  0  0
   -4.5638    5.5060   -0.6167 H   0  0  0  0  0  0  0  0  0  0  0  0
   -3.7180    6.1408    0.8134 H   0  0  0  0  0  0  0  0  0  0  0  0
   -5.4330    5.7278    0.9791 H   0  0  0  0  0  0  0  0  0  0  0  0
   -5.5030    3.4009   -1.2554 H   0  0  0  0  0  0  0  0  0  0  0  0
   -6.8280    4.1985   -0.2244 H   0  0  0  0  0  0  0  0  0  0  0  0
   -7.1519    2.7730   -1.2216 H   0  0  0  0  0  0  0  0  0  0  0  0
   -7.9213    0.8747    0.0113 H   0  0  0  0  0  0  0  0  0  0  0  0
   -8.1015   -0.8065    0.7278 H   0  0  0  0  0  0  0  0  0  0  0  0
   -7.9102    0.5937    1.7756 H   0  0  0  0  0  0  0  0  0  0  0  0
   -6.2246   -0.6623   -2.3264 H   0  0  0  0  0  0  0  0  0  0  0  0
   -6.0556   -2.4121   -2.2283 H   0  0  0  0  0  0  0  0  0  0  0  0
   -4.8121   -1.4225   -3.1027 H   0  0  0  0  0  0  0  0  0  0  0  0
   -7.1537   -3.1303    0.6625 H   0  0  0  0  0  0  0  0  0  0  0  0
   -8.0376   -3.3678    2.7042 H   0  0  0  0  0  0  0  0  0  0  0  0
   -6.8681   -1.9916    3.0606 H   0  0  0  0  0  0  0  0  0  0  0  0
   -6.4781   -3.7298    3.5055 H   0  0  0  0  0  0  0  0  0  0  0  0
   -3.1077   -4.7636   -1.8084 H   0  0  0  0  0  0  0  0  0  0  0  0
   -4.4641   -4.1179   -2.7399 H   0  0  0  0  0  0  0  0  0  0  0  0
   -2.8851   -4.1263   -3.5197 H   0  0  0  0  0  0  0  0  0  0  0  0
    6.0864    1.2970    2.2928 H   0  0  0  0  0  0  0  0  0  0  0  0
    4.7505    0.0668    2.6714 H   0  0  0  0  0  0  0  0  0  0  0  0
    6.7421    1.8538    0.3248 H   0  0  0  0  0  0  0  0  0  0  0  0
    6.0813    1.3416   -1.2366 H   0  0  0  0  0  0  0  0  0  0  0  0
    6.9708   -0.8309    3.0293 H   0  0  0  0  0  0  0  0  0  0  0  0
    6.0915   -1.7067    1.7372 H   0  0  0  0  0  0  0  0  0  0  0  0
    7.0468   -0.9611   -0.8782 H   0  0  0  0  0  0  0  0  0  0  0  0
    8.2540    0.3185   -0.6821 H   0  0  0  0  0  0  0  0  0  0  0  0
    8.6784    0.9799    2.2141 H   0  0  0  0  0  0  0  0  0  0  0  0
    9.5924    0.3005    0.8655 H   0  0  0  0  0  0  0  0  0  0  0  0
    8.9228   -1.2127    3.3998 H   0  0  0  0  0  0  0  0  0  0  0  0
   11.4924   -1.2012    3.4239 H   0  0  0  0  0  0  0  0  0  0  0  0
   10.5701    0.1648    4.0838 H   0  0  0  0  0  0  0  0  0  0  0  0
   11.3681    0.3088    2.4437 H   0  0  0  0  0  0  0  0  0  0  0  0
    9.9437   -3.0489    2.5460 H   0  0  0  0  0  0  0  0  0  0  0  0
   10.8919   -2.1172    1.2634 H   0  0  0  0  0  0  0  0  0  0  0  0
    9.0814   -2.4243    1.1157 H   0  0  0  0  0  0  0  0  0  0  0  0
    2.4938    3.9259   -0.9464 H   0  0  0  0  0  0  0  0  0  0  0  0
    3.7363    1.7537    1.4831 H   0  0  0  0  0  0  0  0  0  0  0  0
    3.9316   -1.0342    0.8791 H   0  0  0  0  0  0  0  0  0  0  0  0
    3.0111    1.8045   -3.7361 H   0  0  0  0  0  0  0  0  0  0  0  0
   -0.8020   -0.3926   -4.1222 H   0  0  0  0  0  0  0  0  0  0  0  0
    1.6331   -2.8538    1.9819 H   0  0  0  0  0  0  0  0  0  0  0  0
   -6.6136   -5.1825    1.2661 H   0  0  0  0  0  0  0  0  0  0  0  0
   -3.8187    0.6350    1.3645 H   0  0  0  0  0  0  0  0  0  0  0  0
   -5.1475    2.4730    3.3983 H   0  0  0  0  0  0  0  0  0  0  0  0
   -0.2749    1.8391   -0.6121 H   0  0  0  0  0  0  0  0  0  0  0  0
  1  2  1  0
  2  3  1  0
  3  4  1  0
  5  6  1  0
  6  7  1  0
  7  8  1  0
  1  9  1  0
  8  9  1  0
  4 10  1  0
  5 10  1  0
  9 10  1  0
  5 11  1  0
 11 12  1  0
 12 13  1  1
  7 14  1  0
 15 16  1  0
 16 17  1  0
 17 18  1  0
 18 19  1  0
 19 20  1  0
 20 21  1  0
 21 22  1  0
 22 23  1  0
 23 24  1  0
 24 25  1  0
 25 26  1  0
 26 27  1  0
 27 28  1  0
 28 29  1  0
 16 30  1  0
 20 31  1  0
 22 32  1  0
 24 33  1  0
 26 34  1  0
 35 36  1  0
 38 39  1  0
 38 40  1  0
 39 41  1  0
 40 42  1  0
 43 44  1  0
 44 45  1  0
 44 46  1  0
  2 47  1  0
 15 47  1  0
  3 48  1  0
 38 48  1  0
  4 49  1  0
 38 49  1  0
 41 50  1  0
 42 50  1  0
 43 50  1  0
  1 51  1  0
  8 52  1  0
  6 53  1  0
 12 53  1  0
 11 54  1  0
 12 55  1  0
 29 55  1  0
 27 56  1  0
 37 56  1  0
 25 57  1  0
 35 57  1  0
 35 58  1  0
 23 59  1  0
 21 60  1  0
 15 61  1  0
 62 63  1  0
 63 64  1  0
 64 65  1  0
 66 67  1  0
 67 68  1  0
 68 69  1  0
 62 70  1  0
 69 70  1  0
 65 71  1  0
 66 71  1  0
 70 71  1  0
 66 72  1  0
 72 73  1  0
 73 74  1  1
 68 75  1  0
 76 77  1  0
 77 78  1  0
 78 79  1  0
 79 80  1  0
 80 81  1  0
 81 82  1  0
 82 83  1  0
 83 84  1  0
 84 85  1  0
 85 86  1  0
 86 87  1  0
 87 88  1  0
 88 89  1  0
 89 90  1  0
 77 91  1  0
 81 92  1  0
 83 93  1  0
 85 94  1  0
 87 95  1  0
 96 97  1  0
 99100  1  0
 99101  1  0
100102  1  0
101103  1  0
104105  1  0
105106  1  0
105107  1  0
 63108  1  0
 76108  1  0
 64109  1  0
 99109  1  0
 65110  1  0
 99110  1  0
102111  1  0
103111  1  0
104111  1  0
 62112  1  0
 69113  1  0
 67114  1  0
 73114  1  0
 72115  1  0
 73116  1  0
 90116  1  0
 88117  1  0
 98117  1  0
 86118  1  0
 96118  1  0
 96119  1  0
 84120  1  0
 82121  1  0
 76122  1  0
  1123  1  0
  2124  1  0
  3125  1  0
  4126  1  6
  5127  1  0
  6128  1  0
  7129  1  0
  8130  1  0
  9131  1  0
 10132  1  0
 11133  1  1
 13134  1  0
 13135  1  0
 13136  1  0
 14137  1  0
 14138  1  0
 14139  1  0
 15140  1  0
 16141  1  0
 17142  1  0
 17143  1  0
 18144  1  0
 18145  1  0
 19146  1  0
 19147  1  0
 20148  1  6
 21149  1  1
 22150  1  1
 23151  1  6
 24152  1  1
 25153  1  6
 26154  1  6
 27155  1  1
 28156  1  0
 28157  1  0
 29158  1  0
 29159  1  0
 30160  1  0
 30161  1  0
 30162  1  0
 31163  1  0
 31164  1  0
 31165  1  0
 32166  1  0
 32167  1  0
 32168  1  0
 33169  1  0
 33170  1  0
 33171  1  0
 34172  1  0
 34173  1  0
 34174  1  0
 35175  1  0
 36176  1  0
 36177  1  0
 36178  1  0
 37179  1  0
 37180  1  0
 37181  1  0
 39182  1  0
 39183  1  0
 40184  1  0
 40185  1  0
 41186  1  0
 41187  1  0
 42188  1  0
 42189  1  0
 43190  1  0
 43191  1  0
 44192  1  0
 45193  1  0
 45194  1  0
 45195  1  0
 46196  1  0
 46197  1  0
 46198  1  0
 47199  1  0
 48200  1  0
 49201  1  0
 51202  1  0
 52203  1  0
 54204  1  0
 58205  1  0
 59206  1  0
 60207  1  0
 61208  1  0
 62209  1  0
 63210  1  0
 64211  1  1
 65212  1  6
 66213  1  0
 67214  1  0
 68215  1  0
 69216  1  0
 70217  1  0
 71218  1  6
 72219  1  0
 74220  1  0
 74221  1  0
 74222  1  0
 75223  1  0
 75224  1  0
 75225  1  0
 76226  1  0
 77227  1  0
 78228  1  0
 78229  1  0
 79230  1  0
 79231  1  0
 80232  1  0
 80233  1  0
 81234  1  6
 82235  1  1
 83236  1  1
 84237  1  6
 85238  1  1
 86239  1  6
 87240  1  6
 88241  1  1
 89242  1  0
 89243  1  0
 90244  1  0
 90245  1  0
 91246  1  0
 91247  1  0
 91248  1  0
 92249  1  0
 92250  1  0
 92251  1  0
 93252  1  0
 93253  1  0
 93254  1  0
 94255  1  0
 94256  1  0
 94257  1  0
 95258  1  0
 95259  1  0
 95260  1  0
 96261  1  0
 97262  1  0
 97263  1  0
 97264  1  0
 98265  1  0
 98266  1  0
 98267  1  0
100268  1  0
100269  1  0
101270  1  0
101271  1  0
102272  1  0
102273  1  0
103274  1  0
103275  1  0
104276  1  0
104277  1  0
105278  1  0
106279  1  0
106280  1  0
106281  1  0
107282  1  0
107283  1  0
107284  1  0
108285  1  0
109286  1  0
110287  1  0
112288  1  0
113289  1  0
115290  1  0
119291  1  0
120292  1  0
121293  1  0
122294  1  0
M  END
>  <PDBID>  (1) 
2A68

>  <PDB ID>  (1) 
2A68

>  <Generic Name>  (1) 
Rifabutin

>  <Brand Name>  (1) 
Mycobutin#Rifabutin#Ansatipin#Ansatipine#Ributin

>  <DrugBank ID>  (1) 
DB00615

>  <ATC Codes>  (1) 
J04AB04

>  <Ligand ID>  (1) 
RBT

>  <Target Name>  (1) 
DNA-directed RNA polymerase subunit beta

>  <UniProt ID>  (1) 
P0A8V2

>  <PDB ID.1>  (1) 
2A68

>  <Seq. Identity>  (1) 
51%

$$$$
