PDB_DB00184_06
     RDKit          3D

 64 66  0  0  0  0  0  0  0  0999 V2000
    2.9452    0.7726   -0.6352 N   0  0  0  0  0  0  0  0  0  0  0  0
    1.5711    0.6433   -1.0564 C   0  0  0  0  0  0  0  0  0  0  0  0
    0.5975    0.5991    0.0720 C   0  0  0  0  0  0  0  0  0  0  0  0
    1.2570    0.0171    1.3159 C   0  0  0  0  0  0  0  0  0  0  0  0
    2.3165   -0.9977    0.9468 C   0  0  0  0  0  0  0  0  0  0  0  0
    3.4158   -0.3508    0.1273 C   0  0  0  0  0  0  0  0  0  0  0  0
   -1.5518   -0.2851    0.8664 N   0  0  0  0  0  0  0  0  0  0  0  0
   -0.6159   -0.2408   -0.2147 C   0  0  1  0  0  0  0  0  0  0  0  0
   -1.4416    0.2699   -1.3591 C   0  0  0  0  0  0  0  0  0  0  0  0
   -2.7411   -0.5171   -1.1581 C   0  0  0  0  0  0  0  0  0  0  0  0
   -2.6530   -1.0560    0.2644 C   0  0  0  0  0  0  0  0  0  0  0  0
   -2.0954    0.9821    1.2405 C   0  0  0  0  0  0  0  0  0  0  0  0
    2.9452    0.7726   -0.6352 N   0  0  0  0  0  0  0  0  0  0  0  0
    1.5711    0.6433   -1.0564 C   0  0  0  0  0  0  0  0  0  0  0  0
    0.5975    0.5991    0.0720 C   0  0  0  0  0  0  0  0  0  0  0  0
    1.2570    0.0171    1.3159 C   0  0  0  0  0  0  0  0  0  0  0  0
    2.3165   -0.9977    0.9468 C   0  0  0  0  0  0  0  0  0  0  0  0
    3.4158   -0.3508    0.1273 C   0  0  0  0  0  0  0  0  0  0  0  0
   -1.5518   -0.2851    0.8664 N   0  0  0  0  0  0  0  0  0  0  0  0
   -0.6159   -0.2408   -0.2147 C   0  0  1  0  0  0  0  0  0  0  0  0
   -1.4416    0.2699   -1.3591 C   0  0  0  0  0  0  0  0  0  0  0  0
   -2.7411   -0.5171   -1.1581 C   0  0  0  0  0  0  0  0  0  0  0  0
   -2.6530   -1.0560    0.2644 C   0  0  0  0  0  0  0  0  0  0  0  0
   -2.0954    0.9821    1.2405 C   0  0  0  0  0  0  0  0  0  0  0  0
    3.1749    1.6894   -0.2173 H   0  0  0  0  0  0  0  0  0  0  0  0
    1.5169   -0.2822   -1.6902 H   0  0  0  0  0  0  0  0  0  0  0  0
    1.3447    1.5094   -1.7049 H   0  0  0  0  0  0  0  0  0  0  0  0
    0.3039    1.6257    0.3232 H   0  0  0  0  0  0  0  0  0  0  0  0
    1.7287    0.7949    1.9335 H   0  0  0  0  0  0  0  0  0  0  0  0
    0.5115   -0.5104    1.9365 H   0  0  0  0  0  0  0  0  0  0  0  0
    2.7616   -1.3605    1.8811 H   0  0  0  0  0  0  0  0  0  0  0  0
    1.8701   -1.8654    0.4158 H   0  0  0  0  0  0  0  0  0  0  0  0
    4.2696   -0.0582    0.7791 H   0  0  0  0  0  0  0  0  0  0  0  0
    3.7677   -1.1243   -0.5965 H   0  0  0  0  0  0  0  0  0  0  0  0
   -0.3249   -1.2854   -0.4523 H   0  0  0  0  0  0  0  0  0  0  0  0
   -1.6777    1.3472   -1.2755 H   0  0  0  0  0  0  0  0  0  0  0  0
   -1.0482    0.0144   -2.3465 H   0  0  0  0  0  0  0  0  0  0  0  0
   -3.6212    0.1037   -1.3170 H   0  0  0  0  0  0  0  0  0  0  0  0
   -2.7764   -1.4033   -1.8336 H   0  0  0  0  0  0  0  0  0  0  0  0
   -3.5585   -0.8429    0.8383 H   0  0  0  0  0  0  0  0  0  0  0  0
   -2.3749   -2.1290    0.2692 H   0  0  0  0  0  0  0  0  0  0  0  0
   -1.3726    1.7592    1.4768 H   0  0  0  0  0  0  0  0  0  0  0  0
   -2.7005    0.8151    2.1726 H   0  0  0  0  0  0  0  0  0  0  0  0
   -2.7992    1.3660    0.4754 H   0  0  0  0  0  0  0  0  0  0  0  0
    3.1749    1.6894   -0.2173 H   0  0  0  0  0  0  0  0  0  0  0  0
    1.5169   -0.2822   -1.6902 H   0  0  0  0  0  0  0  0  0  0  0  0
    1.3447    1.5094   -1.7049 H   0  0  0  0  0  0  0  0  0  0  0  0
    0.3039    1.6257    0.3232 H   0  0  0  0  0  0  0  0  0  0  0  0
    1.7287    0.7949    1.9335 H   0  0  0  0  0  0  0  0  0  0  0  0
    0.5115   -0.5104    1.9365 H   0  0  0  0  0  0  0  0  0  0  0  0
    2.7616   -1.3605    1.8811 H   0  0  0  0  0  0  0  0  0  0  0  0
    1.8701   -1.8654    0.4158 H   0  0  0  0  0  0  0  0  0  0  0  0
    4.2696   -0.0582    0.7791 H   0  0  0  0  0  0  0  0  0  0  0  0
    3.7677   -1.1243   -0.5965 H   0  0  0  0  0  0  0  0  0  0  0  0
   -0.3249   -1.2854   -0.4523 H   0  0  0  0  0  0  0  0  0  0  0  0
   -1.6777    1.3472   -1.2755 H   0  0  0  0  0  0  0  0  0  0  0  0
   -1.0482    0.0144   -2.3465 H   0  0  0  0  0  0  0  0  0  0  0  0
   -3.6212    0.1037   -1.3170 H   0  0  0  0  0  0  0  0  0  0  0  0
   -2.7764   -1.4033   -1.8336 H   0  0  0  0  0  0  0  0  0  0  0  0
   -3.5585   -0.8429    0.8383 H   0  0  0  0  0  0  0  0  0  0  0  0
   -2.3749   -2.1290    0.2692 H   0  0  0  0  0  0  0  0  0  0  0  0
   -1.3726    1.7592    1.4768 H   0  0  0  0  0  0  0  0  0  0  0  0
   -2.7005    0.8151    2.1726 H   0  0  0  0  0  0  0  0  0  0  0  0
   -2.7992    1.3660    0.4754 H   0  0  0  0  0  0  0  0  0  0  0  0
  1  2  1  0
  2  3  1  0
  3  4  1  0
  4  5  1  0
  1  6  1  0
  5  6  1  0
  3  8  1  0
  7  8  1  0
  8  9  1  0
  9 10  1  0
  7 11  1  0
 10 11  1  0
  7 12  1  0
 13 14  1  0
 14 15  1  0
 15 16  1  0
 16 17  1  0
 13 18  1  0
 17 18  1  0
 15 20  1  0
 19 20  1  0
 20 21  1  0
 21 22  1  0
 19 23  1  0
 22 23  1  0
 19 24  1  0
  1 25  1  0
  2 26  1  0
  2 27  1  0
  3 28  1  0
  4 29  1  0
  4 30  1  0
  5 31  1  0
  5 32  1  0
  6 33  1  0
  6 34  1  0
  8 35  1  6
  9 36  1  0
  9 37  1  0
 10 38  1  0
 10 39  1  0
 11 40  1  0
 11 41  1  0
 12 42  1  0
 12 43  1  0
 12 44  1  0
 13 45  1  0
 14 46  1  0
 14 47  1  0
 15 48  1  0
 16 49  1  0
 16 50  1  0
 17 51  1  0
 17 52  1  0
 18 53  1  0
 18 54  1  0
 20 55  1  6
 21 56  1  0
 21 57  1  0
 22 58  1  0
 22 59  1  0
 23 60  1  0
 23 61  1  0
 24 62  1  0
 24 63  1  0
 24 64  1  0
M  END
>  <PDBID>  (1) 
5KXI

>  <PDB ID>  (1) 
5KXI

>  <Generic Name>  (1) 
Nicotine

>  <Brand Name>  (1) 
American Fare Nicotine Transdermal System#Berkley and Jensen Nicotine#Berkley and Jensen Nicotine Polacrilex#Care One Nicotine#Careone Mini Nicotine Polacrilex#Careone Nicotine#Careone Nicotine Polacrilex#Careone Nicotine Transdermal System Step 1#Careone Nicotine Transdermal System Step 2#Careone Nicotine Transdermal System Step 3#Equaline Nicotine#Equate Nicotine#Exchange Select Nicotine Transdermal System Step 3#Good Neighbor Pharmacy Nicotine#Good Neighbor Pharmacy Nicotine Mini#Good Sense Nicotine#Good Sense Nicotine Mint#Good Sense Nicotine Stop Smoking Aid#Habitrol Patch Nicotine Transdermal System, Step 1#Habitrol Patch Nicotine Transdermal System, Step 2#Habitrol Patch Nicotine Transdermal System, Step 3#Harris Teeter Nicotine#Health Mart Nicotine#Health Mart Nicotine Polacrilex#Healthmart Nicotine Transdermal System Step 1#Healthmart Nicotine Transdermal System Step 2#Healthmart Nicotine Transdermal System Step 3#Healthy Accents Nicotine#Humana Pharmacy Nicotine#In Control Nicotine#Kirkland Signature Quit 2#Kirkland Signature Quit 4#Kroger Nicotine Transdermal System Step 1#Kroger Nicotine Transdermal System Step 2#Kroger Nicotine Transdermal System Step 3#Leader Nicotine#Leader Nicotine Transdermal System Step 1#Leader Nicotine Transdermal System Step 2#Leader Nicotine Transdermal System Step 3#Meijer Nicotine Transdermal System Step 1#Meijer Nicotine Transdermal System Step 2#Meijer Nicotine Transdermal System Step 3#Members Mark Mini Nicotine#Members Mark Nicotine#Mini Nicotine#Nicoderm Cq#Nicoderm Trd 114mg Nicotine/21#Nicoderm Trd 36mg Nicotine/7 Sqcm Patch#Nicoderm Trd 78mg Nicotine/14#Nicorelief#Nicorette#Nicorette Cinnamon Surge#Nicorette Fresh Mint#Nicorette Fruit Chill#Nicorette Gum 2mg#Nicorette Invisipatch#Nicorette Mint#Nicorette Original#Nicorette Plus 4mg#Nicorette Spearmint Burst#Nicorette White Ice Mint#Nicotine#Nicotine Coated Mint#Nicotine Gum#Nicotine Mini#Nicotine Mint Flavor#Nicotine Original#Nicotine Polacrilex#Nicotine Polacrilex Stop Smoking Aid#Nicotine Polacrilex, Coated Fruit Flavor#Nicotine Polacrilex, Coated Mint Flavor#Nicotine Polacrilex, Original#Nicotine Stop Smoking Aid#Nicotine Transdermal System#Nicotine Transdermal System Patch Kit#Nicotine Transdermal System Step 1#Nicotine Transdermal System Step 2#Nicotine Transdermal System Step 3#Nicotine Un1654#Nicotrol#Nicotrol (professional Sample)#Nictoine Gum#Preferred Plus Nicotine#Preferred Plus Nicotine Polacrilex Gum, Original Flavor#Rexall Nicotine#Rite Aid Nicotine Transdermal System Step 1#Rite Aid Nicotine Transdermal System Step 2#Rite Aid Nicotine Transdermal System Step 3#Rugby Nicotine#Rugby Nicotine Polacrilex Gum, Coated Cinnamon Flavor#Rugby Nicotine Polacrilex Gum, Coated Fruit Flavor#Rugby Nicotine Polacrilex Gum, Coated Mint Flavor#Rugby Nicotine Polacrilex Gum, Mint Flavor#Rugby Nicotine Polacrilex Gum, Original Flavor#Safeway Nicotine Transdermal System Step 1#Safeway Nicotine Transdermal System Step 2#Safeway Nicotine Transdermal System Step 3#Signature Care Nicotine#Simply Right Nicotine#Smart Sense Nicotine#Smart Sense Nicotine Mint#Smart Sense Nicotine Polacrilex#Stop Smoking Aid#Stop Smoking Aid Nicotine#Sunmark Nicotine#Sunmark Nicotine Transdermal System Step 1#Sunmark Nicotine Transdermal System Step 2#Sunmark Nicotine Transdermal System Step 3#Topcare Nicotine#Topcare Nicotine Gum#Topcare Nicotine Polacrilex#Topcare Nicotine Stop Smoking Aid#Tru Relief Nicotine#Up and Up Nicotine#Up and Up Nicotine Polacrilex#Zonnic#Zonnic Nicotine#Zonnic Nicotine Mini#Zonnic Nicotine Polacrilex#Habitrol#Nicoderm

>  <DrugBank ID>  (1) 
DB00184

>  <ATC Codes>  (1) 
N07BA01

>  <Ligand ID>  (1) 
NCT

>  <Target Name>  (1) 
Neuronal acetylcholine receptor subunit alpha-4

>  <UniProt ID>  (1) 
P43681

>  <PDB ID.1>  (1) 
5KXI

>  <Seq. Identity>  (1) 
54%

$$$$
