PDB_DB00412_07
     RDKit          3D

 60 62  0  0  0  0  0  0  0  0999 V2000
    5.1651    1.1702   -1.1821 S   0  0  0  0  0  0  0  0  0  0  0  0
    7.1841    2.7840   -1.5242 O   0  0  0  0  0  0  0  0  0  0  0  0
    6.8896   -0.0590    1.9619 O   0  0  0  0  0  0  0  0  0  0  0  0
   -1.1345   -1.3162    0.6963 O   0  0  0  0  0  0  0  0  0  0  0  0
    7.3372    1.2146    0.1231 N   0  0  0  0  0  0  0  0  0  0  0  0
   -3.4096    1.4177   -0.0294 N   0  0  0  0  0  0  0  0  0  0  0  0
   -4.5912   -0.2569   -1.1530 N   0  0  0  0  0  0  0  0  0  0  0  0
    6.9858    1.4297   -1.2582 C   0  0  0  0  0  0  0  0  0  0  0  0
    6.6026    0.0918    0.6294 C   0  0  0  0  0  0  0  0  0  0  0  0
    5.1159    0.4660    0.5143 C   0  0  2  0  0  0  0  0  0  0  0  0
    4.3223   -0.7853    0.5787 C   0  0  0  0  0  0  0  0  0  0  0  0
    2.8852   -0.6293    0.1684 C   0  0  0  0  0  0  0  0  0  0  0  0
    2.2129   -1.9804    0.2883 C   0  0  0  0  0  0  0  0  0  0  0  0
    0.8768   -1.9521   -0.3797 C   0  0  0  0  0  0  0  0  0  0  0  0
    0.0590   -0.8302    0.2513 C   0  0  0  0  0  0  0  0  0  0  0  0
    0.7984   -0.2538    1.4655 C   0  0  0  0  0  0  0  0  0  0  0  0
    2.1296    0.3552    1.0101 C   0  0  0  0  0  0  0  0  0  0  0  0
   -2.2304   -0.6653    0.1670 C   0  0  0  0  0  0  0  0  0  0  0  0
   -2.2844    0.7881    0.5309 C   0  0  0  0  0  0  0  0  0  0  0  0
   -3.5411    2.8205    0.2672 C   0  0  0  0  0  0  0  0  0  0  0  0
   -4.6401    0.7124   -0.1107 C   0  0  0  0  0  0  0  0  0  0  0  0
   -5.6677   -1.1563   -1.2786 C   0  0  0  0  0  0  0  0  0  0  0  0
   -6.6507   -1.1673   -0.1586 C   0  0  0  0  0  0  0  0  0  0  0  0
   -5.9918   -0.9800    1.1858 C   0  0  0  0  0  0  0  0  0  0  0  0
   -5.2455    0.2993    1.1735 C   0  0  0  0  0  0  0  0  0  0  0  0
    6.9247    3.2773   -0.6976 H   0  0  0  0  0  0  0  0  0  0  0  0
    7.1790   -1.0047    2.1006 H   0  0  0  0  0  0  0  0  0  0  0  0
    7.2323    2.0740    0.6857 H   0  0  0  0  0  0  0  0  0  0  0  0
   -4.1399    0.0493   -2.0165 H   0  0  0  0  0  0  0  0  0  0  0  0
    7.4642    0.7567   -1.9662 H   0  0  0  0  0  0  0  0  0  0  0  0
    6.8345   -0.7845    0.0042 H   0  0  0  0  0  0  0  0  0  0  0  0
    4.8992    1.2215    1.2600 H   0  0  0  0  0  0  0  0  0  0  0  0
    4.7807   -1.5207   -0.1200 H   0  0  0  0  0  0  0  0  0  0  0  0
    4.4142   -1.2081    1.5817 H   0  0  0  0  0  0  0  0  0  0  0  0
    2.7957   -0.3341   -0.8974 H   0  0  0  0  0  0  0  0  0  0  0  0
    2.8792   -2.7024   -0.2482 H   0  0  0  0  0  0  0  0  0  0  0  0
    2.1906   -2.3295    1.3404 H   0  0  0  0  0  0  0  0  0  0  0  0
    1.0130   -1.7824   -1.4490 H   0  0  0  0  0  0  0  0  0  0  0  0
    0.3709   -2.9402   -0.2215 H   0  0  0  0  0  0  0  0  0  0  0  0
   -0.0537   -0.0172   -0.4629 H   0  0  0  0  0  0  0  0  0  0  0  0
    0.1701    0.5599    1.8645 H   0  0  0  0  0  0  0  0  0  0  0  0
    0.9366   -1.0046    2.2547 H   0  0  0  0  0  0  0  0  0  0  0  0
    1.8596    1.2576    0.4202 H   0  0  0  0  0  0  0  0  0  0  0  0
    2.6503    0.6957    1.9020 H   0  0  0  0  0  0  0  0  0  0  0  0
   -2.1759   -0.8071   -0.9467 H   0  0  0  0  0  0  0  0  0  0  0  0
   -3.1874   -1.1597    0.4750 H   0  0  0  0  0  0  0  0  0  0  0  0
   -2.1957    0.8858    1.6357 H   0  0  0  0  0  0  0  0  0  0  0  0
   -1.3738    1.3228    0.1449 H   0  0  0  0  0  0  0  0  0  0  0  0
   -3.0038    3.1003    1.2196 H   0  0  0  0  0  0  0  0  0  0  0  0
   -4.5663    3.1954    0.2415 H   0  0  0  0  0  0  0  0  0  0  0  0
   -2.9770    3.3748   -0.5320 H   0  0  0  0  0  0  0  0  0  0  0  0
   -5.3616    1.4979   -0.5297 H   0  0  0  0  0  0  0  0  0  0  0  0
   -6.2339   -0.8956   -2.2093 H   0  0  0  0  0  0  0  0  0  0  0  0
   -5.3368   -2.2239   -1.4519 H   0  0  0  0  0  0  0  0  0  0  0  0
   -7.1455   -2.1801   -0.1160 H   0  0  0  0  0  0  0  0  0  0  0  0
   -7.4663   -0.4402   -0.2586 H   0  0  0  0  0  0  0  0  0  0  0  0
   -5.3828   -1.8603    1.4803 H   0  0  0  0  0  0  0  0  0  0  0  0
   -6.8043   -0.9169    1.9382 H   0  0  0  0  0  0  0  0  0  0  0  0
   -5.9241    1.1012    1.5946 H   0  0  0  0  0  0  0  0  0  0  0  0
   -4.4434    0.2242    1.9594 H   0  0  0  0  0  0  0  0  0  0  0  0
  1  8  1  0
  2  8  1  0
  5  8  1  0
  3  9  1  0
  5  9  1  0
  1 10  1  0
  9 10  1  0
 10 11  1  0
 11 12  1  0
 12 13  1  0
 13 14  1  0
  4 15  1  0
 14 15  1  0
 15 16  1  0
 12 17  1  0
 16 17  1  0
  4 18  1  0
  6 19  1  0
 18 19  1  0
  6 20  1  0
  6 21  1  0
  7 21  1  0
  7 22  1  0
 22 23  1  0
 23 24  1  0
 21 25  1  0
 24 25  1  0
  2 26  1  0
  3 27  1  0
  5 28  1  0
  7 29  1  0
  8 30  1  0
  9 31  1  0
 10 32  1  1
 11 33  1  0
 11 34  1  0
 12 35  1  0
 13 36  1  0
 13 37  1  0
 14 38  1  0
 14 39  1  0
 15 40  1  0
 16 41  1  0
 16 42  1  0
 17 43  1  0
 17 44  1  0
 18 45  1  0
 18 46  1  0
 19 47  1  0
 19 48  1  0
 20 49  1  0
 20 50  1  0
 20 51  1  0
 21 52  1  0
 22 53  1  0
 22 54  1  0
 23 55  1  0
 23 56  1  0
 24 57  1  0
 24 58  1  0
 25 59  1  0
 25 60  1  0
M  END
>  <PDBID>  (1) 
3DZY

>  <PDB ID>  (1) 
3DZY

>  <Generic Name>  (1) 
Rosiglitazone

>  <Brand Name>  (1) 
Apo-rosiglitazone#Avandamet#Avandaryl#Avandia#Avandia 2mg#Avandia 4mg#Avandia 8mg#Dom-rosiglitazone#Mylan-rosiglitazone#PHL-rosiglitazone#PMS-rosiglitazone#PMS-rosiglitazone-metformin#Teva-rosiglitazone#Blutab#DH-Rosidia#Diaben#Diaglinex#Gaudil#Gliximina#Naidi#Rogelin#Roglit#Romerol#Rosit#Rosix#Rossini#Sensulin#Sheng Ao#Sheng Min

>  <DrugBank ID>  (1) 
DB00412

>  <ATC Codes>  (1) 
A10BD03#A10BG02#A10BD04

>  <Ligand ID>  (1) 
BRL,RGZ

>  <Target Name>  (1) 
Peroxisome proliferator-activated receptor gamma

>  <UniProt ID>  (1) 
P37231

>  <PDB ID.1>  (1) 
3DZY

>  <Seq. Identity>  (1) 
97%

$$$$
