PDB_DB00320_04
     RDKit          3D

100107  0  0  0  0  0  0  0  0999 V2000
   -3.1405    0.1783    0.5941 C   0  0  0  0  0  0  0  0  0  0  0  0
   -4.4530    0.6945    0.1308 C   0  0  2  0  0  0  0  0  0  0  0  0
   -5.4381    0.5501    1.2650 C   0  0  2  0  0  0  0  0  0  0  0  0
   -6.8068    1.0822    0.9389 C   0  0  2  0  0  0  0  0  0  0  0  0
   -5.0055    1.1760    2.5436 C   0  0  0  0  0  0  0  0  0  0  0  0
   -5.8762    0.6392    3.6282 C   0  0  0  0  0  0  0  0  0  0  0  0
   -7.2975    0.4235    3.3215 C   0  0  0  0  0  0  0  0  0  0  0  0
   -7.7571    0.4590    1.9278 C   0  0  0  0  0  0  0  0  0  0  0  0
   -8.0375   -0.8239    1.3370 N   0  0  0  0  0  0  0  0  0  0  0  0
   -8.1604   -0.5459   -0.0818 C   0  0  0  0  0  0  0  0  0  0  0  0
   -7.3491    0.6739   -0.3782 C   0  0  0  0  0  0  0  0  0  0  0  0
   -6.3358    0.5039   -1.4622 C   0  0  0  0  0  0  0  0  0  0  0  0
   -5.0511   -0.1147   -1.0065 C   0  0  1  0  0  0  0  0  0  0  0  0
   -4.0829   -0.1379   -2.0662 N   0  0  0  0  0  0  0  0  0  0  0  0
   -4.6257   -0.6824   -3.2988 C   0  0  0  0  0  0  0  0  0  0  0  0
   -2.9935   -0.9694   -1.6141 C   0  0  0  0  0  0  0  0  0  0  0  0
   -2.2057   -0.2675   -0.5282 C   0  0  2  0  0  0  0  0  0  0  0  0
   -1.2088   -1.1639    0.1099 C   0  0  0  0  0  0  0  0  0  0  0  0
   -1.9216   -2.2659    0.6639 O   0  0  0  0  0  0  0  0  0  0  0  0
   -0.1155   -1.6451   -0.5839 N   0  0  0  0  0  0  0  0  0  0  0  0
    0.9404   -0.8260   -1.0414 C   0  0  2  0  0  0  0  0  0  0  0  0
    0.5318    0.2016   -2.0437 C   0  0  0  0  0  0  0  0  0  0  0  0
    1.8355   -1.6744   -1.7012 O   0  0  0  0  0  0  0  0  0  0  0  0
    1.7381   -0.2231    0.0946 C   0  0  0  0  0  0  0  0  0  0  0  0
    1.5991   -0.9515    1.2528 O   0  0  0  0  0  0  0  0  0  0  0  0
    3.1209   -0.3751   -0.3647 N   0  0  0  0  0  0  0  0  0  0  0  0
    3.0762   -1.5736   -1.1052 C   0  0  1  0  0  0  0  0  0  0  0  0
    3.1501   -2.6515   -0.2247 O   0  0  0  0  0  0  0  0  0  0  0  0
    4.1341   -1.7744   -2.1334 C   0  0  2  0  0  0  0  0  0  0  0  0
    5.2021   -2.7170   -1.6279 C   0  0  0  0  0  0  0  0  0  0  0  0
    6.5404   -2.1105   -1.9291 C   0  0  0  0  0  0  0  0  0  0  0  0
    6.2033   -0.8503   -2.6821 C   0  0  0  0  0  0  0  0  0  0  0  0
    4.8072   -0.6384   -2.5835 N   0  0  0  0  0  0  0  0  0  0  0  0
    4.3293    0.6324   -2.2694 C   0  0  0  0  0  0  0  0  0  0  0  0
    5.3986    1.5389   -2.2962 O   0  0  0  0  0  0  0  0  0  0  0  0
    3.6357    0.8033   -0.9490 C   0  0  2  0  0  0  0  0  0  0  0  0
    4.4217    1.7127   -0.0424 C   0  0  0  0  0  0  0  0  0  0  0  0
    5.6422    1.1779    0.5807 C   0  0  0  0  0  0  0  0  0  0  0  0
    5.4270   -0.0245    1.4648 C   0  0  0  0  0  0  0  0  0  0  0  0
    6.7846   -0.4766    2.0260 C   0  0  0  0  0  0  0  0  0  0  0  0
    7.4506    0.6144    2.8314 C   0  0  0  0  0  0  0  0  0  0  0  0
    6.4961    1.7810    2.8768 C   0  0  0  0  0  0  0  0  0  0  0  0
    6.2624    2.2649    1.4727 C   0  0  0  0  0  0  0  0  0  0  0  0
   -2.6106    0.9840    1.1539 H   0  0  0  0  0  0  0  0  0  0  0  0
   -3.2883   -0.6583    1.3240 H   0  0  0  0  0  0  0  0  0  0  0  0
   -4.3981    1.7710   -0.1400 H   0  0  0  0  0  0  0  0  0  0  0  0
   -5.5401   -0.5508    1.4482 H   0  0  0  0  0  0  0  0  0  0  0  0
   -6.8421    2.1865    1.0960 H   0  0  0  0  0  0  0  0  0  0  0  0
   -5.1196    2.2912    2.4608 H   0  0  0  0  0  0  0  0  0  0  0  0
   -3.9487    0.9619    2.8024 H   0  0  0  0  0  0  0  0  0  0  0  0
   -5.7422    1.3395    4.5069 H   0  0  0  0  0  0  0  0  0  0  0  0
   -5.3777   -0.3066    3.9977 H   0  0  0  0  0  0  0  0  0  0  0  0
   -7.5928   -0.5861    3.7422 H   0  0  0  0  0  0  0  0  0  0  0  0
   -7.9086    1.1304    3.9603 H   0  0  0  0  0  0  0  0  0  0  0  0
   -8.7116    1.0481    1.8640 H   0  0  0  0  0  0  0  0  0  0  0  0
   -7.3701   -1.5647    1.5654 H   0  0  0  0  0  0  0  0  0  0  0  0
   -9.2656   -0.3907   -0.2637 H   0  0  0  0  0  0  0  0  0  0  0  0
   -7.8836   -1.4242   -0.7001 H   0  0  0  0  0  0  0  0  0  0  0  0
   -8.0640    1.4789   -0.7222 H   0  0  0  0  0  0  0  0  0  0  0  0
   -6.1497    1.4835   -1.9448 H   0  0  0  0  0  0  0  0  0  0  0  0
   -6.7664   -0.1636   -2.2431 H   0  0  0  0  0  0  0  0  0  0  0  0
   -5.2090   -1.1433   -0.6476 H   0  0  0  0  0  0  0  0  0  0  0  0
   -3.7871   -0.8222   -3.9961 H   0  0  0  0  0  0  0  0  0  0  0  0
   -5.3454    0.0317   -3.7106 H   0  0  0  0  0  0  0  0  0  0  0  0
   -5.1634   -1.6200   -3.0475 H   0  0  0  0  0  0  0  0  0  0  0  0
   -2.3267   -1.1502   -2.4675 H   0  0  0  0  0  0  0  0  0  0  0  0
   -3.4606   -1.9072   -1.2311 H   0  0  0  0  0  0  0  0  0  0  0  0
   -1.7712    0.6443   -0.9345 H   0  0  0  0  0  0  0  0  0  0  0  0
   -0.8960   -0.6015    1.0729 H   0  0  0  0  0  0  0  0  0  0  0  0
   -1.5286   -2.5479    1.5234 H   0  0  0  0  0  0  0  0  0  0  0  0
    0.1526   -2.6291   -0.4879 H   0  0  0  0  0  0  0  0  0  0  0  0
    0.3953    1.2275   -1.6220 H   0  0  0  0  0  0  0  0  0  0  0  0
   -0.3222   -0.0260   -2.6685 H   0  0  0  0  0  0  0  0  0  0  0  0
    1.3806    0.3596   -2.7971 H   0  0  0  0  0  0  0  0  0  0  0  0
    1.4873    0.8509    0.2677 H   0  0  0  0  0  0  0  0  0  0  0  0
    1.1464   -1.8055    1.1040 H   0  0  0  0  0  0  0  0  0  0  0  0
    3.3865   -2.4489    0.6857 H   0  0  0  0  0  0  0  0  0  0  0  0
    3.6764   -2.2872   -3.0326 H   0  0  0  0  0  0  0  0  0  0  0  0
    5.1294   -3.7247   -2.1270 H   0  0  0  0  0  0  0  0  0  0  0  0
    5.0316   -2.8754   -0.5430 H   0  0  0  0  0  0  0  0  0  0  0  0
    7.0281   -1.8758   -0.9710 H   0  0  0  0  0  0  0  0  0  0  0  0
    7.2096   -2.7749   -2.4870 H   0  0  0  0  0  0  0  0  0  0  0  0
    6.8095   -0.0259   -2.3040 H   0  0  0  0  0  0  0  0  0  0  0  0
    6.5348   -1.0192   -3.7379 H   0  0  0  0  0  0  0  0  0  0  0  0
    3.6794    0.9665   -3.1336 H   0  0  0  0  0  0  0  0  0  0  0  0
    5.6187    1.8109   -3.2207 H   0  0  0  0  0  0  0  0  0  0  0  0
    2.7234    1.4450   -1.1846 H   0  0  0  0  0  0  0  0  0  0  0  0
    3.7348    2.0370    0.8004 H   0  0  0  0  0  0  0  0  0  0  0  0
    4.5927    2.6701   -0.6035 H   0  0  0  0  0  0  0  0  0  0  0  0
    6.4499    0.9021   -0.1249 H   0  0  0  0  0  0  0  0  0  0  0  0
    4.7112    0.1374    2.2723 H   0  0  0  0  0  0  0  0  0  0  0  0
    5.1362   -0.8870    0.7920 H   0  0  0  0  0  0  0  0  0  0  0  0
    6.6436   -1.3715    2.6688 H   0  0  0  0  0  0  0  0  0  0  0  0
    7.4517   -0.7726    1.2081 H   0  0  0  0  0  0  0  0  0  0  0  0
    8.4032    0.9678    2.3763 H   0  0  0  0  0  0  0  0  0  0  0  0
    7.6205    0.2584    3.8807 H   0  0  0  0  0  0  0  0  0  0  0  0
    7.0173    2.6028    3.4120 H   0  0  0  0  0  0  0  0  0  0  0  0
    5.5813    1.5657    3.4408 H   0  0  0  0  0  0  0  0  0  0  0  0
    5.5772    3.1331    1.5545 H   0  0  0  0  0  0  0  0  0  0  0  0
    7.2158    2.6450    1.0663 H   0  0  0  0  0  0  0  0  0  0  0  0
  1  2  1  0
  2  3  1  0
  3  4  1  0
  3  5  1  0
  5  6  1  0
  6  7  1  0
  4  8  1  0
  7  8  1  0
  8  9  1  0
  9 10  1  0
  4 11  1  0
 10 11  1  0
 11 12  1  0
  2 13  1  0
 12 13  1  0
 13 14  1  0
 14 15  1  0
 14 16  1  0
  1 17  1  0
 16 17  1  0
 17 18  1  0
 18 19  1  0
 18 20  1  0
 21 20  1  1
 21 22  1  0
 21 23  1  0
 21 24  1  0
 24 25  1  0
 24 26  1  0
 23 27  1  0
 26 27  1  0
 27 28  1  1
 27 29  1  0
 29 30  1  0
 30 31  1  0
 31 32  1  0
 29 33  1  0
 32 33  1  0
 33 34  1  0
 34 35  1  0
 26 36  1  0
 34 36  1  0
 36 37  1  0
 37 38  1  0
 38 39  1  0
 39 40  1  0
 40 41  1  0
 41 42  1  0
 38 43  1  0
 42 43  1  0
  1 44  1  0
  1 45  1  0
  2 46  1  6
  3 47  1  1
  4 48  1  6
  5 49  1  0
  5 50  1  0
  6 51  1  0
  6 52  1  0
  7 53  1  0
  7 54  1  0
  8 55  1  0
  9 56  1  0
 10 57  1  0
 10 58  1  0
 11 59  1  0
 12 60  1  0
 12 61  1  0
 13 62  1  1
 15 63  1  0
 15 64  1  0
 15 65  1  0
 16 66  1  0
 16 67  1  0
 17 68  1  6
 18 69  1  0
 19 70  1  0
 20 71  1  0
 22 72  1  0
 22 73  1  0
 22 74  1  0
 24 75  1  0
 25 76  1  0
 28 77  1  0
 29 78  1  6
 30 79  1  0
 30 80  1  0
 31 81  1  0
 31 82  1  0
 32 83  1  0
 32 84  1  0
 34 85  1  0
 35 86  1  0
 36 87  1  6
 37 88  1  0
 37 89  1  0
 38 90  1  0
 39 91  1  0
 39 92  1  0
 40 93  1  0
 40 94  1  0
 41 95  1  0
 41 96  1  0
 42 97  1  0
 42 98  1  0
 43 99  1  0
 43100  1  0
M  END
>  <PDBID>  (1) 
4IAQ

>  <PDB ID>  (1) 
4IAQ

>  <Generic Name>  (1) 
Dihydroergotamine

>  <Brand Name>  (1) 
D.H.E. 45#Dihydroergotamine (dhe), 1mg/ml#Dihydroergotamine Mesylate#Dihydroergotamine Mesylate Injection USP#Migranal#Migranal Nasal Spray 4mg/ml#PMS-dihydroergotamine#Dihydergot#Ergont#Ergotonin#Ikaran#Orstanorm#Verladyn

>  <DrugBank ID>  (1) 
DB00320

>  <ATC Codes>  (1) 
N02CA01#N02CA51

>  <Ligand ID>  (1) 
2GM

>  <Target Name>  (1) 
5-hydroxytryptamine receptor 1D

>  <UniProt ID>  (1) 
P28221

>  <PDB ID.1>  (1) 
4IAQ

>  <Seq. Identity>  (1) 
55%

$$$$
