PDB_DB01197_08
     RDKit          3D

 33 33  0  0  0  0  0  0  0  0999 V2000
    0.4006    1.0034    1.5987 O   0  0  0  0  0  0  0  0  0  0  0  0
    0.5912    0.0616    0.5975 C   0  0  0  0  0  0  0  0  0  0  0  0
    1.9381    0.1691   -0.0511 C   0  0  1  0  0  0  0  0  0  0  0  0
    3.0587   -0.0311    0.9540 C   0  0  0  0  0  0  0  0  0  0  0  0
    4.6745    0.1027    0.1463 S   0  0  0  0  0  0  0  0  0  0  0  0
    2.0898   -0.9346   -1.0828 C   0  0  0  0  0  0  0  0  0  0  0  0
   -0.4246    0.1923   -0.4493 N   0  0  0  0  0  0  0  0  0  0  0  0
   -1.6899   -0.1905    0.1084 C   0  0  2  0  0  0  0  0  0  0  0  0
   -2.0924   -1.5946   -0.2614 C   0  0  0  0  0  0  0  0  0  0  0  0
   -3.3066   -1.9511    0.2791 O   0  0  0  0  0  0  0  0  0  0  0  0
   -1.1188   -2.4567    0.2402 O   0  0  0  0  0  0  0  0  0  0  0  0
   -0.5235    1.5769   -0.8517 C   0  0  0  0  0  0  0  0  0  0  0  0
   -1.8246    2.0903   -0.2385 C   0  0  0  0  0  0  0  0  0  0  0  0
   -2.6830    0.8336   -0.4335 C   0  0  0  0  0  0  0  0  0  0  0  0
    1.0912    1.7078    1.6027 H   0  0  0  0  0  0  0  0  0  0  0  0
    0.4578   -0.9389    1.0519 H   0  0  0  0  0  0  0  0  0  0  0  0
    2.0541    1.1270   -0.5801 H   0  0  0  0  0  0  0  0  0  0  0  0
    2.9712   -1.0400    1.4040 H   0  0  0  0  0  0  0  0  0  0  0  0
    2.9605    0.7004    1.7930 H   0  0  0  0  0  0  0  0  0  0  0  0
    4.9965   -1.1750   -0.3465 H   0  0  0  0  0  0  0  0  0  0  0  0
    1.5402   -0.7256   -2.0132 H   0  0  0  0  0  0  0  0  0  0  0  0
    3.1611   -1.0768   -1.3143 H   0  0  0  0  0  0  0  0  0  0  0  0
    1.7017   -1.9063   -0.6733 H   0  0  0  0  0  0  0  0  0  0  0  0
   -1.7196   -0.0993    1.2123 H   0  0  0  0  0  0  0  0  0  0  0  0
   -2.1223   -1.7574   -1.3513 H   0  0  0  0  0  0  0  0  0  0  0  0
   -4.0774   -1.5153   -0.1604 H   0  0  0  0  0  0  0  0  0  0  0  0
   -1.3930   -2.7921    1.1271 H   0  0  0  0  0  0  0  0  0  0  0  0
   -0.6804    1.6442   -1.9580 H   0  0  0  0  0  0  0  0  0  0  0  0
    0.3314    2.1972   -0.5807 H   0  0  0  0  0  0  0  0  0  0  0  0
   -1.6981    2.2141    0.8422 H   0  0  0  0  0  0  0  0  0  0  0  0
   -2.2235    2.9516   -0.7617 H   0  0  0  0  0  0  0  0  0  0  0  0
   -2.8367    0.7337   -1.5116 H   0  0  0  0  0  0  0  0  0  0  0  0
   -3.6042    0.8790    0.1556 H   0  0  0  0  0  0  0  0  0  0  0  0
  1  2  1  0
  2  3  1  0
  3  4  1  0
  4  5  1  0
  3  6  1  0
  2  7  1  0
  7  8  1  0
  8  9  1  0
  9 10  1  0
  9 11  1  0
  7 12  1  0
 12 13  1  0
  8 14  1  0
 13 14  1  0
  1 15  1  0
  2 16  1  0
  3 17  1  6
  4 18  1  0
  4 19  1  0
  5 20  1  0
  6 21  1  0
  6 22  1  0
  6 23  1  0
  8 24  1  1
  9 25  1  0
 10 26  1  0
 11 27  1  0
 12 28  1  0
 12 29  1  0
 13 30  1  0
 13 31  1  0
 14 32  1  0
 14 33  1  0
M  END
>  <PDBID>  (1) 
4C2P

>  <PDB ID>  (1) 
4C2P

>  <Generic Name>  (1) 
Captopril

>  <Brand Name>  (1) 
Apo-capto Tab 100mg#Apo-capto Tab 12.5mg#Apo-capto Tab 25mg#Apo-capto Tab 50mg#Apo-capto Tab 6.25mg#Bci Captopril Tablets#Capoten Tab 100mg#Capoten Tab 12.5mg#Capoten Tab 25mg#Capoten Tab 50mg#Captopril#Captopril Tablets#Captopril and Hydrochlorothiazide#Captopril-100 Tab 100mg#Captopril-12.5 Tab 12.5mg#Captopril-25 Tab 25mg#Captopril-50 Tab 50mg#Captril#Dom-captopril#Ftp-captopril#Med Captopril - Tab  12.5mg#Med Captopril - Tab 100mg#Med Captopril - Tab 25mg#Med Captopril - Tab 50mg#Mylan-captopril#Novo-captoril#Nu-capto Tab 100mg#Nu-capto Tab 12.5mg#Nu-capto Tab 25mg#Nu-capto Tab 50mg#Orb-captopril#PMS-captopril - Tab  12.5mg#PMS-captopril - Tab  25mg#PMS-captopril - Tab  50mg#PMS-captopril - Tab 100mg#Penta-captopril Tablets#Ratio-captopril Tab 100mg#Ratio-captopril Tab 12.5mg#Ratio-captopril Tab 25mg#Ratio-captopril Tab 50mg#Teva-captopril#Tria-captopril 100mg Tablet#Tria-captopril 12.5mg Tablet#Tria-captopril 25mg Tablet#Tria-captopril 50mg Tablet#Acepress#Acepril#Alopresin#Apopril#Capoten#Captolane#Captoril#Cesplon#Dilabar#Garranil#Hipertil#Hypertil#Lopirin#Lopril#Tenosbon#Tensoprel

>  <DrugBank ID>  (1) 
DB01197

>  <ATC Codes>  (1) 
C09AA01#C09BA01

>  <Ligand ID>  (1) 
X8Z

>  <Target Name>  (1) 
Angiotensin-converting enzyme

>  <UniProt ID>  (1) 
P12821

>  <PDB ID.1>  (1) 
4C2P

>  <Seq. Identity>  (1) 
100%

$$$$
