PDB_DB00755_06
     RDKit          3D

124124  0  0  0  0  0  0  0  0999 V2000
   -2.9081    1.1983    0.5737 C   0  0  0  0  0  0  0  0  0  0  0  0
   -4.3269    1.5083    0.2462 C   0  0  0  0  0  0  0  0  0  0  0  0
   -5.3000    0.4046    0.4758 C   0  0  0  0  0  0  0  0  0  0  0  0
   -4.6773   -0.8973    0.8565 C   0  0  0  0  0  0  0  0  0  0  0  0
   -3.4186   -1.2277    0.1123 C   0  0  0  0  0  0  0  0  0  0  0  0
   -2.4190   -0.1302    0.0187 C   0  0  0  0  0  0  0  0  0  0  0  0
   -1.1559   -0.4517    0.7515 C   0  0  0  0  0  0  0  0  0  0  0  0
   -0.4837   -1.7211    0.3667 C   0  0  0  0  0  0  0  0  0  0  0  0
   -0.0777   -1.7633   -1.0884 C   0  0  1  0  0  0  0  0  0  0  0  0
    0.8730   -0.6823   -1.4708 C   0  0  0  0  0  0  0  0  0  0  0  0
    2.1758   -0.6989   -0.7122 C   0  0  0  0  0  0  0  0  0  0  0  0
    3.0063    0.4398   -1.2194 C   0  0  0  0  0  0  0  0  0  0  0  0
    4.3576    0.5673   -0.5634 C   0  0  0  0  0  0  0  0  0  0  0  0
    4.1554    0.7773    0.8986 C   0  0  0  0  0  0  0  0  0  0  0  0
    5.4447    0.9230    1.6695 C   0  0  0  0  0  0  0  0  0  0  0  0
   -2.5853    1.3546    2.0406 C   0  0  0  0  0  0  0  0  0  0  0  0
   -2.0669    2.2688   -0.1450 C   0  0  0  0  0  0  0  0  0  0  0  0
   -3.8645   -1.7164   -1.2740 C   0  0  0  0  0  0  0  0  0  0  0  0
    0.4220   -3.1458   -1.4674 C   0  0  0  0  0  0  0  0  0  0  0  0
    5.0528    1.7504   -1.2229 C   0  0  0  0  0  0  0  0  0  0  0  0
    6.2562   -0.1860    1.5625 O   0  0  0  0  0  0  0  0  0  0  0  0
    6.1400    2.0699    1.3739 O   0  0  0  0  0  0  0  0  0  0  0  0
   -4.2207    0.5673   -0.1019 C   0  0  0  0  0  0  0  0  0  0  0  0
   -5.3151   -0.2400    0.5036 C   0  0  0  0  0  0  0  0  0  0  0  0
   -4.9587   -1.6207    0.9149 C   0  0  0  0  0  0  0  0  0  0  0  0
   -3.5273   -1.8066    1.3322 C   0  0  0  0  0  0  0  0  0  0  0  0
   -2.8622   -0.5040    1.7121 C   0  0  0  0  0  0  0  0  0  0  0  0
   -2.9044    0.5200    0.6377 C   0  0  0  0  0  0  0  0  0  0  0  0
   -1.8180    0.4722   -0.3751 C   0  0  0  0  0  0  0  0  0  0  0  0
   -0.4235    0.4228    0.1407 C   0  0  0  0  0  0  0  0  0  0  0  0
    0.5669    0.3871   -1.0276 C   0  0  0  0  0  0  0  0  0  0  0  0
    1.9808    0.3372   -0.5328 C   0  0  0  0  0  0  0  0  0  0  0  0
    2.9928    0.2970   -1.6448 C   0  0  0  0  0  0  0  0  0  0  0  0
    4.4122    0.2393   -1.1173 C   0  0  0  0  0  0  0  0  0  0  0  0
    4.7022   -0.9338   -0.2810 C   0  0  0  0  0  0  0  0  0  0  0  0
    6.1030   -1.0203    0.2403 C   0  0  0  0  0  0  0  0  0  0  0  0
    6.4659    0.1627    1.1025 C   0  0  0  0  0  0  0  0  0  0  0  0
   -4.7332    2.0029   -0.2253 C   0  0  0  0  0  0  0  0  0  0  0  0
   -4.0656    0.0784   -1.5494 C   0  0  0  0  0  0  0  0  0  0  0  0
   -3.4603    0.0319    3.0211 C   0  0  0  0  0  0  0  0  0  0  0  0
    0.2587    1.5603   -1.9167 C   0  0  0  0  0  0  0  0  0  0  0  0
    4.3112   -2.2564   -0.8935 C   0  0  0  0  0  0  0  0  0  0  0  0
    5.6003    0.2575    2.1981 O   0  0  0  0  0  0  0  0  0  0  0  0
    6.5632    1.3512    0.4130 O   0  0  0  0  0  0  0  0  0  0  0  0
   -4.3743    1.7939   -0.8299 H   0  0  0  0  0  0  0  0  0  0  0  0
   -4.5986    2.4265    0.8144 H   0  0  0  0  0  0  0  0  0  0  0  0
   -5.9717    0.2593   -0.4134 H   0  0  0  0  0  0  0  0  0  0  0  0
   -5.9816    0.7015    1.3247 H   0  0  0  0  0  0  0  0  0  0  0  0
   -5.4263   -1.6953    0.5662 H   0  0  0  0  0  0  0  0  0  0  0  0
   -4.5789   -1.0427    1.9642 H   0  0  0  0  0  0  0  0  0  0  0  0
   -2.9845   -2.1399    0.5948 H   0  0  0  0  0  0  0  0  0  0  0  0
   -2.2421    0.0547   -1.0741 H   0  0  0  0  0  0  0  0  0  0  0  0
   -0.4092    0.3682    0.6719 H   0  0  0  0  0  0  0  0  0  0  0  0
   -1.4048   -0.5219    1.8321 H   0  0  0  0  0  0  0  0  0  0  0  0
   -1.0246   -2.6301    0.6514 H   0  0  0  0  0  0  0  0  0  0  0  0
    0.4798   -1.7515    0.9569 H   0  0  0  0  0  0  0  0  0  0  0  0
   -1.0045   -1.5993   -1.6826 H   0  0  0  0  0  0  0  0  0  0  0  0
    1.1034   -0.7714   -2.5521 H   0  0  0  0  0  0  0  0  0  0  0  0
    0.3648    0.2876   -1.3389 H   0  0  0  0  0  0  0  0  0  0  0  0
    2.6665   -1.6669   -0.7003 H   0  0  0  0  0  0  0  0  0  0  0  0
    1.8982   -0.4319    0.3498 H   0  0  0  0  0  0  0  0  0  0  0  0
    2.4359    1.3783   -1.1303 H   0  0  0  0  0  0  0  0  0  0  0  0
    3.1191    0.2748   -2.3301 H   0  0  0  0  0  0  0  0  0  0  0  0
    4.9968   -0.3100   -0.7561 H   0  0  0  0  0  0  0  0  0  0  0  0
    3.4836    1.6291    1.0564 H   0  0  0  0  0  0  0  0  0  0  0  0
    3.6681   -0.1503    1.2984 H   0  0  0  0  0  0  0  0  0  0  0  0
    5.1468    0.9929    2.7566 H   0  0  0  0  0  0  0  0  0  0  0  0
   -2.9295    0.5285    2.6759 H   0  0  0  0  0  0  0  0  0  0  0  0
   -1.4983    1.4789    2.2155 H   0  0  0  0  0  0  0  0  0  0  0  0
   -3.0523    2.3283    2.3532 H   0  0  0  0  0  0  0  0  0  0  0  0
   -1.8077    1.9233   -1.1630 H   0  0  0  0  0  0  0  0  0  0  0  0
   -2.6632    3.1926   -0.2658 H   0  0  0  0  0  0  0  0  0  0  0  0
   -1.1579    2.5107    0.4319 H   0  0  0  0  0  0  0  0  0  0  0  0
   -3.8532   -0.8649   -1.9907 H   0  0  0  0  0  0  0  0  0  0  0  0
   -3.2028   -2.5579   -1.6185 H   0  0  0  0  0  0  0  0  0  0  0  0
   -4.8730   -2.1362   -1.2095 H   0  0  0  0  0  0  0  0  0  0  0  0
   -0.3865   -3.7494   -1.9286 H   0  0  0  0  0  0  0  0  0  0  0  0
    0.7574   -3.7190   -0.5775 H   0  0  0  0  0  0  0  0  0  0  0  0
    1.2253   -3.0453   -2.2347 H   0  0  0  0  0  0  0  0  0  0  0  0
    4.9642    2.6710   -0.5838 H   0  0  0  0  0  0  0  0  0  0  0  0
    6.1180    1.5332   -1.4486 H   0  0  0  0  0  0  0  0  0  0  0  0
    4.5743    2.0152   -2.1922 H   0  0  0  0  0  0  0  0  0  0  0  0
    6.8137   -0.1121    0.7383 H   0  0  0  0  0  0  0  0  0  0  0  0
    7.0101    1.9061    0.9208 H   0  0  0  0  0  0  0  0  0  0  0  0
   -5.8513    0.3523    1.3020 H   0  0  0  0  0  0  0  0  0  0  0  0
   -6.1064   -0.3399   -0.3002 H   0  0  0  0  0  0  0  0  0  0  0  0
   -5.6064   -1.8856    1.8013 H   0  0  0  0  0  0  0  0  0  0  0  0
   -5.1921   -2.3890    0.1513 H   0  0  0  0  0  0  0  0  0  0  0  0
   -2.9033   -2.2879    0.5450 H   0  0  0  0  0  0  0  0  0  0  0  0
   -3.4674   -2.4697    2.2220 H   0  0  0  0  0  0  0  0  0  0  0  0
   -1.8093   -0.7506    1.9465 H   0  0  0  0  0  0  0  0  0  0  0  0
   -2.8127    1.5232    1.1545 H   0  0  0  0  0  0  0  0  0  0  0  0
   -1.9724   -0.3240   -1.1515 H   0  0  0  0  0  0  0  0  0  0  0  0
   -1.8989    1.4328   -0.9678 H   0  0  0  0  0  0  0  0  0  0  0  0
   -0.1336    1.2562    0.7761 H   0  0  0  0  0  0  0  0  0  0  0  0
   -0.2789   -0.5430    0.6770 H   0  0  0  0  0  0  0  0  0  0  0  0
    0.3825   -0.5561   -1.6002 H   0  0  0  0  0  0  0  0  0  0  0  0
    2.1419    1.2242    0.1390 H   0  0  0  0  0  0  0  0  0  0  0  0
    2.1143   -0.5794    0.0746 H   0  0  0  0  0  0  0  0  0  0  0  0
    2.7709   -0.4603   -2.4051 H   0  0  0  0  0  0  0  0  0  0  0  0
    2.9418    1.2875   -2.1696 H   0  0  0  0  0  0  0  0  0  0  0  0
    5.0888    0.2781   -1.9919 H   0  0  0  0  0  0  0  0  0  0  0  0
    4.5412    1.1963   -0.5657 H   0  0  0  0  0  0  0  0  0  0  0  0
    4.0496   -0.8515    0.6442 H   0  0  0  0  0  0  0  0  0  0  0  0
    6.8156   -1.0804   -0.6386 H   0  0  0  0  0  0  0  0  0  0  0  0
    6.2250   -1.9319    0.8658 H   0  0  0  0  0  0  0  0  0  0  0  0
    7.4993   -0.0022    1.5521 H   0  0  0  0  0  0  0  0  0  0  0  0
   -4.2022    2.5393   -1.0380 H   0  0  0  0  0  0  0  0  0  0  0  0
   -5.8292    2.0378   -0.3260 H   0  0  0  0  0  0  0  0  0  0  0  0
   -4.4820    2.4933    0.7449 H   0  0  0  0  0  0  0  0  0  0  0  0
   -3.8452   -0.9893   -1.6041 H   0  0  0  0  0  0  0  0  0  0  0  0
   -3.4123    0.7320   -2.1377 H   0  0  0  0  0  0  0  0  0  0  0  0
   -5.0973    0.2100   -1.9915 H   0  0  0  0  0  0  0  0  0  0  0  0
   -4.5028   -0.3221    3.1605 H   0  0  0  0  0  0  0  0  0  0  0  0
   -3.4246    1.1314    3.0186 H   0  0  0  0  0  0  0  0  0  0  0  0
   -2.8904   -0.4069    3.8655 H   0  0  0  0  0  0  0  0  0  0  0  0
    1.0640    1.8914   -2.5643 H   0  0  0  0  0  0  0  0  0  0  0  0
   -0.6192    1.2631   -2.5386 H   0  0  0  0  0  0  0  0  0  0  0  0
   -0.0812    2.3911   -1.2337 H   0  0  0  0  0  0  0  0  0  0  0  0
    4.9406   -3.0357   -0.4152 H   0  0  0  0  0  0  0  0  0  0  0  0
    4.5249   -2.3106   -1.9780 H   0  0  0  0  0  0  0  0  0  0  0  0
    3.2609   -2.5438   -0.6831 H   0  0  0  0  0  0  0  0  0  0  0  0
    6.0717    0.3826    3.0450 H   0  0  0  0  0  0  0  0  0  0  0  0
    6.3176    2.1314    0.9742 H   0  0  0  0  0  0  0  0  0  0  0  0
  1  2  1  0
  2  3  1  0
  3  4  1  0
  4  5  1  0
  1  6  1  0
  5  6  1  0
  6  7  1  0
  7  8  1  0
  8  9  1  0
  9 10  1  0
 10 11  1  0
 11 12  1  0
 12 13  1  0
 13 14  1  0
 14 15  1  0
  1 16  1  0
  1 17  1  0
  5 18  1  0
  9 19  1  0
 13 20  1  0
 15 21  1  0
 15 22  1  0
 23 24  1  0
 24 25  1  0
 25 26  1  0
 26 27  1  0
 23 28  1  0
 27 28  1  0
 28 29  1  0
 29 30  1  0
 30 31  1  0
 31 32  1  0
 32 33  1  0
 33 34  1  0
 34 35  1  0
 35 36  1  0
 36 37  1  0
 23 38  1  0
 23 39  1  0
 27 40  1  0
 31 41  1  0
 35 42  1  0
 37 43  1  0
 37 44  1  0
  2 45  1  0
  2 46  1  0
  3 47  1  0
  3 48  1  0
  4 49  1  0
  4 50  1  0
  5 51  1  0
  6 52  1  0
  7 53  1  0
  7 54  1  0
  8 55  1  0
  8 56  1  0
  9 57  1  6
 10 58  1  0
 10 59  1  0
 11 60  1  0
 11 61  1  0
 12 62  1  0
 12 63  1  0
 13 64  1  0
 14 65  1  0
 14 66  1  0
 15 67  1  0
 16 68  1  0
 16 69  1  0
 16 70  1  0
 17 71  1  0
 17 72  1  0
 17 73  1  0
 18 74  1  0
 18 75  1  0
 18 76  1  0
 19 77  1  0
 19 78  1  0
 19 79  1  0
 20 80  1  0
 20 81  1  0
 20 82  1  0
 21 83  1  0
 22 84  1  0
 24 85  1  0
 24 86  1  0
 25 87  1  0
 25 88  1  0
 26 89  1  0
 26 90  1  0
 27 91  1  0
 28 92  1  0
 29 93  1  0
 29 94  1  0
 30 95  1  0
 30 96  1  0
 31 97  1  0
 32 98  1  0
 32 99  1  0
 33100  1  0
 33101  1  0
 34102  1  0
 34103  1  0
 35104  1  0
 36105  1  0
 36106  1  0
 37107  1  0
 38108  1  0
 38109  1  0
 38110  1  0
 39111  1  0
 39112  1  0
 39113  1  0
 40114  1  0
 40115  1  0
 40116  1  0
 41117  1  0
 41118  1  0
 41119  1  0
 42120  1  0
 42121  1  0
 42122  1  0
 43123  1  0
 44124  1  0
M  END
>  <PDBID>  (1) 
3FC6

>  <PDB ID>  (1) 
3FC6

>  <Generic Name>  (1) 
Tretinoin

>  <Brand Name>  (1) 
Atralin#Avita#Biacna Topical Gel#Clindamycin Phosphate and Tretinoin#Dr. Throwers Hydrotet#Dr. Throwers Pbc No. 1#Obagi#Refissa#Rejuva-A#Renova#Retin-A#Retin-A Micro#Retisol-A#Solagé#Stie Vaa Sol 0.05%#Stieva-A Cream#Stieva-A Gel#Stieva-A Solution#Stievaa Gel 0.01%#Stievamycin Forte#Stievamycin Mild#Stievamycin Regular#Tretin.x#Tretinoin#Tretinoin Cream#Tretinoin Gel#Tretinoin Gel Microsphere#Tretinx#Tri-luma#Veltin#Vesanoid#Vitamin A Acid 0.01% Cream#Vitamin A Acid 0.01% Gel#Vitamin A Acid 0.025% Cream#Vitamin A Acid 0.025% Gel#Vitamin A Acid 0.05% Cream#Vitamin A Acid 0.05% Gel#Vitamin A Acid 0.1% Cream#Vitinoin - Crm 0.025%#Vitinoin - Crm 0.05%#Vitinoin - Crm 0.1%#Vitinoin Gel - 0.025%#Ziana#Aberel#Aberela#Airol#Dermairol#Eudyna#Kétrel#Retisol-A#Sotret#Stieva-A#Vitinoin

>  <DrugBank ID>  (1) 
DB00755

>  <ATC Codes>  (1) 
L01XX14#D10AD01#D10AD51

>  <Ligand ID>  (1) 
3KV,REA

>  <Target Name>  (1) 
Retinoic acid receptor RXR-beta

>  <UniProt ID>  (1) 
P28702

>  <PDB ID.1>  (1) 
3FC6

>  <Seq. Identity>  (1) 
87%

$$$$
