PDB_DB00841_08
     RDKit          3D

114116  0  0  0  0  0  0  0  0999 V2000
   -7.1038    1.8460    0.0265 O   0  0  0  0  0  0  0  0  0  0  0  0
   -5.8281    1.2386    0.1421 C   0  0  0  0  0  0  0  0  0  0  0  0
   -5.2608    1.1409   -1.2284 C   0  0  0  0  0  0  0  0  0  0  0  0
   -4.1684    0.1274   -1.4121 C   0  0  0  0  0  0  0  0  0  0  0  0
   -6.0208   -0.0572    0.8348 C   0  0  0  0  0  0  0  0  0  0  0  0
   -5.0410   -1.1160    0.5390 C   0  0  0  0  0  0  0  0  0  0  0  0
   -3.8041   -0.6788   -0.2256 C   0  0  0  0  0  0  0  0  0  0  0  0
   -2.8421   -0.1367    0.7388 C   0  0  0  0  0  0  0  0  0  0  0  0
   -1.4740    0.2122    0.3685 C   0  0  0  0  0  0  0  0  0  0  0  0
   -0.5852   -0.8808   -0.1719 C   0  0  1  0  0  0  0  0  0  0  0  0
   -0.9537   -1.5367   -1.4252 C   0  0  0  0  0  0  0  0  0  0  0  0
    0.7456   -0.3165   -0.1963 N   0  0  0  0  0  0  0  0  0  0  0  0
    1.6293   -1.2496    0.5229 C   0  0  0  0  0  0  0  0  0  0  0  0
    2.6820   -0.4068    1.1632 C   0  0  0  0  0  0  0  0  0  0  0  0
    3.4511    0.3931    0.1649 C   0  0  0  0  0  0  0  0  0  0  0  0
    4.1789   -0.4872   -0.7823 C   0  0  0  0  0  0  0  0  0  0  0  0
    5.6299   -0.0955   -0.9678 C   0  0  0  0  0  0  0  0  0  0  0  0
    5.8004    0.9133   -1.9188 O   0  0  0  0  0  0  0  0  0  0  0  0
    6.3667    0.2515    0.2751 C   0  0  0  0  0  0  0  0  0  0  0  0
    7.1570    1.4022    0.0429 O   0  0  0  0  0  0  0  0  0  0  0  0
    5.4893    0.6047    1.4562 C   0  0  0  0  0  0  0  0  0  0  0  0
    4.3091    1.3654    0.9450 C   0  0  0  0  0  0  0  0  0  0  0  0
   -7.1038    1.8460    0.0265 O   0  0  0  0  0  0  0  0  0  0  0  0
   -5.8281    1.2386    0.1421 C   0  0  0  0  0  0  0  0  0  0  0  0
   -5.2608    1.1409   -1.2284 C   0  0  0  0  0  0  0  0  0  0  0  0
   -4.1684    0.1274   -1.4121 C   0  0  0  0  0  0  0  0  0  0  0  0
   -6.0208   -0.0572    0.8348 C   0  0  0  0  0  0  0  0  0  0  0  0
   -5.0410   -1.1160    0.5390 C   0  0  0  0  0  0  0  0  0  0  0  0
   -3.8041   -0.6788   -0.2256 C   0  0  0  0  0  0  0  0  0  0  0  0
   -2.8421   -0.1367    0.7388 C   0  0  0  0  0  0  0  0  0  0  0  0
   -1.4740    0.2122    0.3685 C   0  0  0  0  0  0  0  0  0  0  0  0
   -0.5852   -0.8808   -0.1719 C   0  0  1  0  0  0  0  0  0  0  0  0
   -0.9537   -1.5367   -1.4252 C   0  0  0  0  0  0  0  0  0  0  0  0
    0.7456   -0.3165   -0.1963 N   0  0  0  0  0  0  0  0  0  0  0  0
    1.6293   -1.2496    0.5229 C   0  0  0  0  0  0  0  0  0  0  0  0
    2.6820   -0.4068    1.1632 C   0  0  0  0  0  0  0  0  0  0  0  0
    3.4511    0.3931    0.1649 C   0  0  0  0  0  0  0  0  0  0  0  0
    4.1789   -0.4872   -0.7823 C   0  0  0  0  0  0  0  0  0  0  0  0
    5.6299   -0.0955   -0.9678 C   0  0  0  0  0  0  0  0  0  0  0  0
    5.8004    0.9133   -1.9188 O   0  0  0  0  0  0  0  0  0  0  0  0
    6.3667    0.2515    0.2751 C   0  0  0  0  0  0  0  0  0  0  0  0
    7.1570    1.4022    0.0429 O   0  0  0  0  0  0  0  0  0  0  0  0
    5.4893    0.6047    1.4562 C   0  0  0  0  0  0  0  0  0  0  0  0
    4.3091    1.3654    0.9450 C   0  0  0  0  0  0  0  0  0  0  0  0
   -6.9721    2.6256   -0.5824 H   0  0  0  0  0  0  0  0  0  0  0  0
   -5.2391    1.9809    0.7523 H   0  0  0  0  0  0  0  0  0  0  0  0
   -6.1209    0.9720   -1.9435 H   0  0  0  0  0  0  0  0  0  0  0  0
   -4.9048    2.1763   -1.5154 H   0  0  0  0  0  0  0  0  0  0  0  0
   -3.3246    0.6321   -1.8807 H   0  0  0  0  0  0  0  0  0  0  0  0
   -4.5442   -0.5987   -2.1983 H   0  0  0  0  0  0  0  0  0  0  0  0
   -7.0603   -0.4459    0.6020 H   0  0  0  0  0  0  0  0  0  0  0  0
   -6.0614    0.1441    1.9367 H   0  0  0  0  0  0  0  0  0  0  0  0
   -5.4997   -1.9645    0.0006 H   0  0  0  0  0  0  0  0  0  0  0  0
   -4.6394   -1.5399    1.5035 H   0  0  0  0  0  0  0  0  0  0  0  0
   -3.3819   -1.6597   -0.6009 H   0  0  0  0  0  0  0  0  0  0  0  0
   -3.2551    0.7334    1.3334 H   0  0  0  0  0  0  0  0  0  0  0  0
   -2.7550   -0.9275    1.5601 H   0  0  0  0  0  0  0  0  0  0  0  0
   -1.3783    1.1290   -0.2714 H   0  0  0  0  0  0  0  0  0  0  0  0
   -0.9457    0.5415    1.3205 H   0  0  0  0  0  0  0  0  0  0  0  0
   -0.5478   -1.6395    0.6965 H   0  0  0  0  0  0  0  0  0  0  0  0
   -1.6356   -1.0276   -2.1037 H   0  0  0  0  0  0  0  0  0  0  0  0
   -1.2991   -2.5948   -1.1790 H   0  0  0  0  0  0  0  0  0  0  0  0
   -0.0388   -1.7589   -2.0724 H   0  0  0  0  0  0  0  0  0  0  0  0
    1.0311   -0.2395   -1.2054 H   0  0  0  0  0  0  0  0  0  0  0  0
    1.0739   -1.8486    1.2501 H   0  0  0  0  0  0  0  0  0  0  0  0
    2.0800   -1.9282   -0.2481 H   0  0  0  0  0  0  0  0  0  0  0  0
    3.3769   -1.1514    1.6768 H   0  0  0  0  0  0  0  0  0  0  0  0
    2.2074    0.2249    1.9518 H   0  0  0  0  0  0  0  0  0  0  0  0
    2.7486    1.0557   -0.4265 H   0  0  0  0  0  0  0  0  0  0  0  0
    4.1826   -1.5693   -0.4826 H   0  0  0  0  0  0  0  0  0  0  0  0
    3.7399   -0.4752   -1.8057 H   0  0  0  0  0  0  0  0  0  0  0  0
    6.1423   -0.9977   -1.4134 H   0  0  0  0  0  0  0  0  0  0  0  0
    4.9807    1.1938   -2.3540 H   0  0  0  0  0  0  0  0  0  0  0  0
    7.0779   -0.5161    0.6305 H   0  0  0  0  0  0  0  0  0  0  0  0
    7.1288    2.0136    0.8128 H   0  0  0  0  0  0  0  0  0  0  0  0
    5.2021   -0.2555    2.0615 H   0  0  0  0  0  0  0  0  0  0  0  0
    6.0366    1.3010    2.1510 H   0  0  0  0  0  0  0  0  0  0  0  0
    3.6469    1.7098    1.7935 H   0  0  0  0  0  0  0  0  0  0  0  0
    4.5910    2.1708    0.2746 H   0  0  0  0  0  0  0  0  0  0  0  0
   -6.9721    2.6256   -0.5824 H   0  0  0  0  0  0  0  0  0  0  0  0
   -5.2391    1.9809    0.7523 H   0  0  0  0  0  0  0  0  0  0  0  0
   -6.1209    0.9720   -1.9435 H   0  0  0  0  0  0  0  0  0  0  0  0
   -4.9048    2.1763   -1.5154 H   0  0  0  0  0  0  0  0  0  0  0  0
   -3.3246    0.6321   -1.8807 H   0  0  0  0  0  0  0  0  0  0  0  0
   -4.5442   -0.5987   -2.1983 H   0  0  0  0  0  0  0  0  0  0  0  0
   -7.0603   -0.4459    0.6020 H   0  0  0  0  0  0  0  0  0  0  0  0
   -6.0614    0.1441    1.9367 H   0  0  0  0  0  0  0  0  0  0  0  0
   -5.4997   -1.9645    0.0006 H   0  0  0  0  0  0  0  0  0  0  0  0
   -4.6394   -1.5399    1.5035 H   0  0  0  0  0  0  0  0  0  0  0  0
   -3.3819   -1.6597   -0.6009 H   0  0  0  0  0  0  0  0  0  0  0  0
   -3.2551    0.7334    1.3334 H   0  0  0  0  0  0  0  0  0  0  0  0
   -2.7550   -0.9275    1.5601 H   0  0  0  0  0  0  0  0  0  0  0  0
   -1.3783    1.1290   -0.2714 H   0  0  0  0  0  0  0  0  0  0  0  0
   -0.9457    0.5415    1.3205 H   0  0  0  0  0  0  0  0  0  0  0  0
   -0.5478   -1.6395    0.6965 H   0  0  0  0  0  0  0  0  0  0  0  0
   -1.6356   -1.0276   -2.1037 H   0  0  0  0  0  0  0  0  0  0  0  0
   -1.2991   -2.5948   -1.1790 H   0  0  0  0  0  0  0  0  0  0  0  0
   -0.0388   -1.7589   -2.0724 H   0  0  0  0  0  0  0  0  0  0  0  0
    1.0311   -0.2395   -1.2054 H   0  0  0  0  0  0  0  0  0  0  0  0
    1.0739   -1.8486    1.2501 H   0  0  0  0  0  0  0  0  0  0  0  0
    2.0800   -1.9282   -0.2481 H   0  0  0  0  0  0  0  0  0  0  0  0
    3.3769   -1.1514    1.6768 H   0  0  0  0  0  0  0  0  0  0  0  0
    2.2074    0.2249    1.9518 H   0  0  0  0  0  0  0  0  0  0  0  0
    2.7486    1.0557   -0.4265 H   0  0  0  0  0  0  0  0  0  0  0  0
    4.1826   -1.5693   -0.4826 H   0  0  0  0  0  0  0  0  0  0  0  0
    3.7399   -0.4752   -1.8057 H   0  0  0  0  0  0  0  0  0  0  0  0
    6.1423   -0.9977   -1.4134 H   0  0  0  0  0  0  0  0  0  0  0  0
    4.9807    1.1938   -2.3540 H   0  0  0  0  0  0  0  0  0  0  0  0
    7.0779   -0.5161    0.6305 H   0  0  0  0  0  0  0  0  0  0  0  0
    7.1288    2.0136    0.8128 H   0  0  0  0  0  0  0  0  0  0  0  0
    5.2021   -0.2555    2.0615 H   0  0  0  0  0  0  0  0  0  0  0  0
    6.0366    1.3010    2.1510 H   0  0  0  0  0  0  0  0  0  0  0  0
    3.6469    1.7098    1.7935 H   0  0  0  0  0  0  0  0  0  0  0  0
    4.5910    2.1708    0.2746 H   0  0  0  0  0  0  0  0  0  0  0  0
  1  2  1  0
  2  3  1  0
  3  4  1  0
  2  5  1  0
  5  6  1  0
  4  7  1  0
  6  7  1  0
  7  8  1  0
  8  9  1  0
  9 10  1  0
 10 11  1  0
 10 12  1  0
 12 13  1  0
 13 14  1  0
 14 15  1  0
 15 16  1  0
 16 17  1  0
 17 18  1  0
 17 19  1  0
 19 20  1  0
 19 21  1  0
 15 22  1  0
 21 22  1  0
 23 24  1  0
 24 25  1  0
 25 26  1  0
 24 27  1  0
 27 28  1  0
 26 29  1  0
 28 29  1  0
 29 30  1  0
 30 31  1  0
 31 32  1  0
 32 33  1  0
 32 34  1  0
 34 35  1  0
 35 36  1  0
 36 37  1  0
 37 38  1  0
 38 39  1  0
 39 40  1  0
 39 41  1  0
 41 42  1  0
 41 43  1  0
 37 44  1  0
 43 44  1  0
  1 45  1  0
  2 46  1  0
  3 47  1  0
  3 48  1  0
  4 49  1  0
  4 50  1  0
  5 51  1  0
  5 52  1  0
  6 53  1  0
  6 54  1  0
  7 55  1  0
  8 56  1  0
  8 57  1  0
  9 58  1  0
  9 59  1  0
 10 60  1  1
 11 61  1  0
 11 62  1  0
 11 63  1  0
 12 64  1  0
 13 65  1  0
 13 66  1  0
 14 67  1  0
 14 68  1  0
 15 69  1  0
 16 70  1  0
 16 71  1  0
 17 72  1  0
 18 73  1  0
 19 74  1  0
 20 75  1  0
 21 76  1  0
 21 77  1  0
 22 78  1  0
 22 79  1  0
 23 80  1  0
 24 81  1  0
 25 82  1  0
 25 83  1  0
 26 84  1  0
 26 85  1  0
 27 86  1  0
 27 87  1  0
 28 88  1  0
 28 89  1  0
 29 90  1  0
 30 91  1  0
 30 92  1  0
 31 93  1  0
 31 94  1  0
 32 95  1  1
 33 96  1  0
 33 97  1  0
 33 98  1  0
 34 99  1  0
 35100  1  0
 35101  1  0
 36102  1  0
 36103  1  0
 37104  1  0
 38105  1  0
 38106  1  0
 39107  1  0
 40108  1  0
 41109  1  0
 42110  1  0
 43111  1  0
 43112  1  0
 44113  1  0
 44114  1  0
M  END
>  <PDBID>  (1) 
2Y00

>  <PDB ID>  (1) 
2Y00

>  <Generic Name>  (1) 
Dobutamine

>  <Brand Name>  (1) 
Dobutamine#Dobutamine 12.5mg/ml#Dobutamine Hydrochloride#Dobutamine Hydrochloride In Dextrose#Dobutamine Hydrochloride Injection USP#Dobutamine Hydrochloride Injection-12.5mg/ml#Dobutamine Injection Sdz#Dobutamine Injection USP#Dobutrex#Dobuject#Dobusafe#Dobutamin#Dobutan#Dobutel#Dobutil#Dopmin#Inotrex

>  <DrugBank ID>  (1) 
DB00841

>  <ATC Codes>  (1) 
C01CA07

>  <Ligand ID>  (1) 
Y00

>  <Target Name>  (1) 
Beta-1 adrenergic receptor

>  <UniProt ID>  (1) 
P08588

>  <PDB ID.1>  (1) 
2Y00

>  <Seq. Identity>  (1) 
63%

$$$$
