PDB_DB00685_07
     RDKit          3D

124132  0  0  0  0  0  0  0  0999 V2000
   -1.3823    2.1050   -0.4639 C   0  0  0  0  0  0  0  0  0  0  0  0
   -2.0681    3.3863   -0.8779 C   0  0  0  0  0  0  0  0  0  0  0  0
   -3.2523    3.6938    0.0110 C   0  0  0  0  0  0  0  0  0  0  0  0
   -2.8613    3.7376    1.3349 F   0  0  0  0  0  0  0  0  0  0  0  0
   -4.2529    2.6015   -0.1553 C   0  0  0  0  0  0  0  0  0  0  0  0
   -3.6377    1.3211   -0.7578 C   0  0  0  0  0  0  0  0  0  0  0  0
   -4.6289    0.4040   -0.7243 F   0  0  0  0  0  0  0  0  0  0  0  0
   -2.3929    1.0475   -0.0099 C   0  0  0  0  0  0  0  0  0  0  0  0
   -1.8253   -0.2726   -0.1262 N   0  0  0  0  0  0  0  0  0  0  0  0
   -0.6658   -0.4459    0.6958 C   0  0  0  0  0  0  0  0  0  0  0  0
    0.5693   -0.2575   -0.0494 N   0  0  0  0  0  0  0  0  0  0  0  0
    1.7213   -0.3388    0.8012 C   0  0  0  0  0  0  0  0  0  0  0  0
    2.8995    0.2257    0.2739 N   0  0  0  0  0  0  0  0  0  0  0  0
    3.4470   -0.3596   -0.9019 C   0  0  0  0  0  0  0  0  0  0  0  0
    4.6606    0.5463   -1.1505 C   0  0  1  0  0  0  0  0  0  0  0  0
    4.3995    1.9871   -0.8583 C   0  0  0  0  0  0  0  0  0  0  0  0
    5.2781    3.0139   -1.3636 N   0  0  0  0  0  0  0  0  0  0  0  0
    5.0116    1.0787    0.1847 C   0  0  1  0  0  0  0  0  0  0  0  0
    3.9589    0.5330    1.1640 C   0  0  0  0  0  0  0  0  0  0  0  0
    1.8374   -1.7666    1.2581 C   0  0  0  0  0  0  0  0  0  0  0  0
    0.6321   -2.0042    2.1649 C   0  0  0  0  0  0  0  0  0  0  0  0
   -0.6234   -1.7348    1.4427 C   0  0  0  0  0  0  0  0  0  0  0  0
   -0.8563   -2.8207    0.3810 C   0  0  0  0  0  0  0  0  0  0  0  0
   -2.3348   -2.6878    0.0902 C   0  0  0  0  0  0  0  0  0  0  0  0
   -2.7779   -1.2806   -0.1394 C   0  0  0  0  0  0  0  0  0  0  0  0
   -2.7450   -3.6253   -1.0444 C   0  0  0  0  0  0  0  0  0  0  0  0
   -2.0275   -3.3003   -2.1918 O   0  0  0  0  0  0  0  0  0  0  0  0
   -2.5600   -4.9450   -0.6540 O   0  0  0  0  0  0  0  0  0  0  0  0
   -0.5916   -4.0785    0.9083 O   0  0  0  0  0  0  0  0  0  0  0  0
    2.9517   -2.0360    1.9857 F   0  0  0  0  0  0  0  0  0  0  0  0
   -0.8037    1.7571   -1.3343 H   0  0  0  0  0  0  0  0  0  0  0  0
   -1.3482    4.2336   -0.7737 H   0  0  0  0  0  0  0  0  0  0  0  0
   -4.7550    2.3220    0.7961 H   0  0  0  0  0  0  0  0  0  0  0  0
    3.8663   -1.3670   -0.7218 H   0  0  0  0  0  0  0  0  0  0  0  0
    2.8252   -0.2938   -1.7967 H   0  0  0  0  0  0  0  0  0  0  0  0
    5.4024    0.2516   -1.8897 H   0  0  0  0  0  0  0  0  0  0  0  0
    3.3533    2.3522   -0.7176 H   0  0  0  0  0  0  0  0  0  0  0  0
    6.0933    2.5989   -1.8667 H   0  0  0  0  0  0  0  0  0  0  0  0
    5.6697    3.5339   -0.5452 H   0  0  0  0  0  0  0  0  0  0  0  0
    6.0326    1.2300    0.5301 H   0  0  0  0  0  0  0  0  0  0  0  0
    4.4346   -0.3187    1.6603 H   0  0  0  0  0  0  0  0  0  0  0  0
    3.7527    1.3829    1.8532 H   0  0  0  0  0  0  0  0  0  0  0  0
    0.6246   -3.0634    2.5172 H   0  0  0  0  0  0  0  0  0  0  0  0
   -3.2671   -1.2917   -1.1587 H   0  0  0  0  0  0  0  0  0  0  0  0
   -1.4114    2.1372   -0.5695 C   0  0  0  0  0  0  0  0  0  0  0  0
   -2.1075    3.4581   -0.8119 C   0  0  0  0  0  0  0  0  0  0  0  0
   -3.3299    3.6205    0.0303 C   0  0  0  0  0  0  0  0  0  0  0  0
   -3.0285    3.6067    1.3789 F   0  0  0  0  0  0  0  0  0  0  0  0
   -4.3150    2.5622   -0.3409 C   0  0  0  0  0  0  0  0  0  0  0  0
   -3.6391    1.2883   -0.8904 C   0  0  0  0  0  0  0  0  0  0  0  0
   -4.6090    0.3406   -0.8555 F   0  0  0  0  0  0  0  0  0  0  0  0
   -2.4035    1.0600   -0.1134 C   0  0  0  0  0  0  0  0  0  0  0  0
   -1.8049   -0.2393   -0.1697 N   0  0  0  0  0  0  0  0  0  0  0  0
   -0.6684   -0.3811    0.6846 C   0  0  0  0  0  0  0  0  0  0  0  0
    0.5941   -0.3730   -0.0282 N   0  0  0  0  0  0  0  0  0  0  0  0
    1.7090   -0.3187    0.8922 C   0  0  0  0  0  0  0  0  0  0  0  0
    2.8996    0.1878    0.3391 N   0  0  0  0  0  0  0  0  0  0  0  0
    3.4685   -0.5022   -0.7664 C   0  0  0  0  0  0  0  0  0  0  0  0
    4.6983    0.3616   -1.0824 C   0  0  1  0  0  0  0  0  0  0  0  0
    4.4638    1.8217   -0.8923 C   0  0  0  0  0  0  0  0  0  0  0  0
    5.3933    2.7883   -1.4548 N   0  0  0  0  0  0  0  0  0  0  0  0
    5.0415    0.9659    0.2256 C   0  0  1  0  0  0  0  0  0  0  0  0
    3.9644    0.5059    1.2237 C   0  0  0  0  0  0  0  0  0  0  0  0
    1.7838   -1.7020    1.4954 C   0  0  0  0  0  0  0  0  0  0  0  0
    0.5220   -1.8428    2.3348 C   0  0  0  0  0  0  0  0  0  0  0  0
   -0.6969   -1.6367    1.5287 C   0  0  0  0  0  0  0  0  0  0  0  0
   -0.8169   -2.7680    0.4949 C   0  0  0  0  0  0  0  0  0  0  0  0
   -2.2565   -2.6678    0.0488 C   0  0  0  0  0  0  0  0  0  0  0  0
   -2.7273   -1.2812   -0.2088 C   0  0  0  0  0  0  0  0  0  0  0  0
   -2.5316   -3.6172   -1.1186 C   0  0  0  0  0  0  0  0  0  0  0  0
   -3.8682   -3.4719   -1.4770 O   0  0  0  0  0  0  0  0  0  0  0  0
   -1.6422   -3.4499   -2.1491 O   0  0  0  0  0  0  0  0  0  0  0  0
   -0.5541   -4.0021    1.0361 O   0  0  0  0  0  0  0  0  0  0  0  0
    2.8357   -1.8983    2.3330 F   0  0  0  0  0  0  0  0  0  0  0  0
   -0.9283    1.8773   -1.5279 H   0  0  0  0  0  0  0  0  0  0  0  0
   -1.4045    4.2996   -0.5740 H   0  0  0  0  0  0  0  0  0  0  0  0
   -4.9593    2.2483    0.5102 H   0  0  0  0  0  0  0  0  0  0  0  0
    3.8334   -1.4931   -0.4912 H   0  0  0  0  0  0  0  0  0  0  0  0
    2.8454   -0.4754   -1.6842 H   0  0  0  0  0  0  0  0  0  0  0  0
    5.4722   -0.0349   -1.7377 H   0  0  0  0  0  0  0  0  0  0  0  0
    3.4289    2.2015   -0.7936 H   0  0  0  0  0  0  0  0  0  0  0  0
    6.2468    2.3036   -1.8137 H   0  0  0  0  0  0  0  0  0  0  0  0
    5.7222    3.3924   -0.6710 H   0  0  0  0  0  0  0  0  0  0  0  0
    6.0589    1.1235    0.5778 H   0  0  0  0  0  0  0  0  0  0  0  0
    4.4263   -0.3612    1.7412 H   0  0  0  0  0  0  0  0  0  0  0  0
    3.8026    1.3677    1.8901 H   0  0  0  0  0  0  0  0  0  0  0  0
    0.4702   -2.8508    2.7945 H   0  0  0  0  0  0  0  0  0  0  0  0
   -3.1865   -1.3089   -1.2415 H   0  0  0  0  0  0  0  0  0  0  0  0
   -0.6815    2.3503    0.3469 H   0  0  0  0  0  0  0  0  0  0  0  0
   -2.3991    3.3847   -1.9247 H   0  0  0  0  0  0  0  0  0  0  0  0
   -3.6874    4.6366   -0.3435 H   0  0  0  0  0  0  0  0  0  0  0  0
   -5.0709    2.8818   -0.8626 H   0  0  0  0  0  0  0  0  0  0  0  0
   -3.4251    1.5249   -1.8364 H   0  0  0  0  0  0  0  0  0  0  0  0
   -2.5686    1.2453    1.0689 H   0  0  0  0  0  0  0  0  0  0  0  0
   -0.6864    0.3754    1.4663 H   0  0  0  0  0  0  0  0  0  0  0  0
    0.6243   -0.7880   -0.9162 H   0  0  0  0  0  0  0  0  0  0  0  0
    1.4631    0.2541    1.7297 H   0  0  0  0  0  0  0  0  0  0  0  0
    1.7094   -2.4947    0.4105 H   0  0  0  0  0  0  0  0  0  0  0  0
    0.7355   -1.2913    3.0117 H   0  0  0  0  0  0  0  0  0  0  0  0
   -1.4735   -1.7710    2.1700 H   0  0  0  0  0  0  0  0  0  0  0  0
   -0.2218   -2.5932   -0.4991 H   0  0  0  0  0  0  0  0  0  0  0  0
   -2.8433   -3.0960    0.9868 H   0  0  0  0  0  0  0  0  0  0  0  0
   -3.5869   -1.0590    0.5829 H   0  0  0  0  0  0  0  0  0  0  0  0
   -3.8223   -3.5022   -1.2758 H   0  0  0  0  0  0  0  0  0  0  0  0
   -1.5514   -2.4615   -2.0424 H   0  0  0  0  0  0  0  0  0  0  0  0
   -0.2776   -4.6511    0.1467 H   0  0  0  0  0  0  0  0  0  0  0  0
   -0.6345    2.2990    0.1879 H   0  0  0  0  0  0  0  0  0  0  0  0
   -2.3882    3.5862   -1.8824 H   0  0  0  0  0  0  0  0  0  0  0  0
   -3.7717    4.6089   -0.2294 H   0  0  0  0  0  0  0  0  0  0  0  0
   -5.0362    2.8860   -1.1401 H   0  0  0  0  0  0  0  0  0  0  0  0
   -3.4165    1.4602   -1.9827 H   0  0  0  0  0  0  0  0  0  0  0  0
   -2.6027    1.2939    0.9627 H   0  0  0  0  0  0  0  0  0  0  0  0
   -0.6489    0.4731    1.3894 H   0  0  0  0  0  0  0  0  0  0  0  0
    0.6503    0.2374   -0.8375 H   0  0  0  0  0  0  0  0  0  0  0  0
    1.3899    0.3667    1.7155 H   0  0  0  0  0  0  0  0  0  0  0  0
    1.7822   -2.4978    0.6926 H   0  0  0  0  0  0  0  0  0  0  0  0
    0.5820   -1.0423    3.1199 H   0  0  0  0  0  0  0  0  0  0  0  0
   -1.5912   -1.6323    2.1709 H   0  0  0  0  0  0  0  0  0  0  0  0
   -0.1174   -2.5188   -0.3504 H   0  0  0  0  0  0  0  0  0  0  0  0
   -2.8530   -3.1108    0.8935 H   0  0  0  0  0  0  0  0  0  0  0  0
   -3.5604   -1.0706    0.4896 H   0  0  0  0  0  0  0  0  0  0  0  0
   -2.4328   -4.6765   -0.7612 H   0  0  0  0  0  0  0  0  0  0  0  0
   -2.1085   -2.9711   -2.8861 H   0  0  0  0  0  0  0  0  0  0  0  0
   -0.0337   -4.5331    0.3515 H   0  0  0  0  0  0  0  0  0  0  0  0
  1  2  1  0
  2  3  1  0
  3  4  1  0
  3  5  1  0
  5  6  1  0
  6  7  1  0
  1  8  1  0
  6  8  1  0
  8  9  1  0
  9 10  1  0
 10 11  1  0
 11 12  1  0
 12 13  1  0
 13 14  1  0
 14 15  1  0
 15 16  1  0
 16 17  1  0
 15 18  1  0
 16 18  1  0
 13 19  1  0
 18 19  1  0
 12 20  1  0
 20 21  1  0
 10 22  1  0
 21 22  1  0
 22 23  1  0
 23 24  1  0
  9 25  1  0
 24 25  1  0
 24 26  1  0
 26 27  1  0
 26 28  1  0
 23 29  1  0
 20 30  1  0
  1 31  1  0
  2 32  1  0
  5 33  1  0
 14 34  1  0
 14 35  1  0
 15 36  1  6
 16 37  1  0
 17 38  1  0
 17 39  1  0
 18 40  1  1
 19 41  1  0
 19 42  1  0
 21 43  1  0
 25 44  1  0
 45 46  1  0
 46 47  1  0
 47 48  1  0
 47 49  1  0
 49 50  1  0
 50 51  1  0
 45 52  1  0
 50 52  1  0
 52 53  1  0
 53 54  1  0
 54 55  1  0
 55 56  1  0
 56 57  1  0
 57 58  1  0
 58 59  1  0
 59 60  1  0
 60 61  1  0
 59 62  1  0
 60 62  1  0
 57 63  1  0
 62 63  1  0
 56 64  1  0
 64 65  1  0
 54 66  1  0
 65 66  1  0
 66 67  1  0
 67 68  1  0
 53 69  1  0
 68 69  1  0
 68 70  1  0
 70 71  1  0
 70 72  1  0
 67 73  1  0
 64 74  1  0
 45 75  1  0
 46 76  1  0
 49 77  1  0
 58 78  1  0
 58 79  1  0
 59 80  1  6
 60 81  1  0
 61 82  1  0
 61 83  1  0
 62 84  1  1
 63 85  1  0
 63 86  1  0
 65 87  1  0
 69 88  1  0
  1 89  1  0
  2 90  1  0
  3 91  1  0
  5 92  1  0
  6 93  1  0
  8 94  1  0
 10 95  1  0
 11 96  1  0
 12 97  1  0
 20 98  1  0
 21 99  1  0
 22100  1  0
 23101  1  0
 24102  1  0
 25103  1  0
 26104  1  0
 27105  1  0
 29106  1  0
 45107  1  0
 46108  1  0
 47109  1  0
 49110  1  0
 50111  1  0
 52112  1  0
 54113  1  0
 55114  1  0
 56115  1  0
 64116  1  0
 65117  1  0
 66118  1  0
 67119  1  0
 68120  1  0
 69121  1  0
 70122  1  0
 72123  1  0
 73124  1  0
M  CHG  2  28  -1  71  -1
M  END
>  <PDBID>  (1) 
4Z2E

>  <PDB ID>  (1) 
4Z2E

>  <Generic Name>  (1) 
Trovafloxacin

>  <Brand Name>  (1) 
Trovan I.V.#Trovan Tablets 100mg#Trovan Tablets 200mg#Trovan

>  <DrugBank ID>  (1) 
DB00685

>  <ATC Codes>  (1) 
J01MA13

>  <Ligand ID>  (1) 
TR6

>  <Target Name>  (1) 
DNA gyrase subunit A

>  <UniProt ID>  (1) 
P43700

>  <PDB ID.1>  (1) 
4Z2E

>  <Seq. Identity>  (1) 
50%

$$$$
