PDB_DB01044_02
     RDKit          3D

122128  0  0  0  0  0  0  0  0999 V2000
    4.4431    2.0965   -1.0016 C   0  0  0  0  0  0  0  0  0  0  0  0
    4.3092    1.2615    0.2515 C   0  0  1  0  0  0  0  0  0  0  0  0
    2.8686    0.8019    0.3775 C   0  0  0  0  0  0  0  0  0  0  0  0
    2.5880   -0.3876   -0.3485 N   0  0  0  0  0  0  0  0  0  0  0  0
    3.4237   -1.4827   -0.0973 C   0  0  0  0  0  0  0  0  0  0  0  0
    4.6863   -1.0534    0.6634 C   0  0  0  0  0  0  0  0  0  0  0  0
    5.2289    0.1657    0.1543 N   0  0  0  0  0  0  0  0  0  0  0  0
    1.2227   -0.5597   -0.6050 C   0  0  0  0  0  0  0  0  0  0  0  0
    0.8451   -1.6377   -1.5829 C   0  0  0  0  0  0  0  0  0  0  0  0
   -0.6551   -1.7174   -1.7470 C   0  0  0  0  0  0  0  0  0  0  0  0
   -1.3490   -0.5105   -1.1274 C   0  0  0  0  0  0  0  0  0  0  0  0
   -1.0805   -0.4210    0.3332 C   0  0  0  0  0  0  0  0  0  0  0  0
    0.3790   -0.6370    0.6731 C   0  0  0  0  0  0  0  0  0  0  0  0
    0.5986   -1.7821    1.3767 O   0  0  0  0  0  0  0  0  0  0  0  0
    1.1194   -1.6951    2.6291 C   0  0  0  0  0  0  0  0  0  0  0  0
   -1.6722    0.7588    0.8904 N   0  0  0  0  0  0  0  0  0  0  0  0
   -3.1083    0.5446    0.9247 C   0  0  0  0  0  0  0  0  0  0  0  0
   -3.5793   -0.5567    0.0306 C   0  0  0  0  0  0  0  0  0  0  0  0
   -2.8482   -0.6912   -1.2744 C   0  0  0  0  0  0  0  0  0  0  0  0
   -3.1227   -1.9944   -1.7490 O   0  0  0  0  0  0  0  0  0  0  0  0
   -5.0422   -0.2604   -0.3283 C   0  0  0  0  0  0  0  0  0  0  0  0
   -5.8438   -0.2045    0.8030 O   0  0  0  0  0  0  0  0  0  0  0  0
   -5.5200   -1.2566   -1.1884 O   0  0  0  0  0  0  0  0  0  0  0  0
   -1.2273    2.0112    0.4629 C   0  0  0  0  0  0  0  0  0  0  0  0
   -1.3979    2.6414   -0.8411 C   0  0  0  0  0  0  0  0  0  0  0  0
   -2.0737    3.2130    0.3902 C   0  0  0  0  0  0  0  0  0  0  0  0
    1.3618   -2.8632   -1.2858 F   0  0  0  0  0  0  0  0  0  0  0  0
    4.7894    3.1178   -0.6930 H   0  0  0  0  0  0  0  0  0  0  0  0
    3.4707    2.1582   -1.5477 H   0  0  0  0  0  0  0  0  0  0  0  0
    5.1995    1.7081   -1.7102 H   0  0  0  0  0  0  0  0  0  0  0  0
    4.5576    1.8566    1.1615 H   0  0  0  0  0  0  0  0  0  0  0  0
    2.2476    1.6179   -0.0904 H   0  0  0  0  0  0  0  0  0  0  0  0
    2.6636    0.6961    1.4459 H   0  0  0  0  0  0  0  0  0  0  0  0
    3.0038   -2.3080    0.4879 H   0  0  0  0  0  0  0  0  0  0  0  0
    3.8289   -1.9618   -1.0363 H   0  0  0  0  0  0  0  0  0  0  0  0
    4.3995   -0.8812    1.7177 H   0  0  0  0  0  0  0  0  0  0  0  0
    5.4416   -1.8406    0.5943 H   0  0  0  0  0  0  0  0  0  0  0  0
    5.7627    0.1151   -0.7146 H   0  0  0  0  0  0  0  0  0  0  0  0
   -1.0434   -2.6105   -1.2220 H   0  0  0  0  0  0  0  0  0  0  0  0
    1.2516   -2.6843    3.1275 H   0  0  0  0  0  0  0  0  0  0  0  0
    2.1920   -1.3451    2.5136 H   0  0  0  0  0  0  0  0  0  0  0  0
    0.6610   -0.9350    3.2939 H   0  0  0  0  0  0  0  0  0  0  0  0
   -3.3043    0.1754    1.9808 H   0  0  0  0  0  0  0  0  0  0  0  0
   -0.2075    2.2597    0.9602 H   0  0  0  0  0  0  0  0  0  0  0  0
   -0.5786    3.2667   -1.2464 H   0  0  0  0  0  0  0  0  0  0  0  0
   -2.0930    2.3241   -1.6490 H   0  0  0  0  0  0  0  0  0  0  0  0
   -3.1662    3.2248    0.4260 H   0  0  0  0  0  0  0  0  0  0  0  0
   -1.6662    4.2154    0.7454 H   0  0  0  0  0  0  0  0  0  0  0  0
    4.4431    2.0965   -1.0016 C   0  0  0  0  0  0  0  0  0  0  0  0
    4.3092    1.2615    0.2515 C   0  0  1  0  0  0  0  0  0  0  0  0
    2.8686    0.8019    0.3775 C   0  0  0  0  0  0  0  0  0  0  0  0
    2.5880   -0.3876   -0.3485 N   0  0  0  0  0  0  0  0  0  0  0  0
    3.4237   -1.4827   -0.0973 C   0  0  0  0  0  0  0  0  0  0  0  0
    4.6863   -1.0534    0.6634 C   0  0  0  0  0  0  0  0  0  0  0  0
    5.2289    0.1657    0.1543 N   0  0  0  0  0  0  0  0  0  0  0  0
    1.2227   -0.5597   -0.6050 C   0  0  0  0  0  0  0  0  0  0  0  0
    0.8451   -1.6377   -1.5829 C   0  0  0  0  0  0  0  0  0  0  0  0
   -0.6551   -1.7174   -1.7470 C   0  0  0  0  0  0  0  0  0  0  0  0
   -1.3490   -0.5105   -1.1274 C   0  0  0  0  0  0  0  0  0  0  0  0
   -1.0805   -0.4210    0.3332 C   0  0  0  0  0  0  0  0  0  0  0  0
    0.3790   -0.6370    0.6731 C   0  0  0  0  0  0  0  0  0  0  0  0
    0.5986   -1.7821    1.3767 O   0  0  0  0  0  0  0  0  0  0  0  0
    1.1194   -1.6951    2.6291 C   0  0  0  0  0  0  0  0  0  0  0  0
   -1.6722    0.7588    0.8904 N   0  0  0  0  0  0  0  0  0  0  0  0
   -3.1083    0.5446    0.9247 C   0  0  0  0  0  0  0  0  0  0  0  0
   -3.5793   -0.5567    0.0306 C   0  0  0  0  0  0  0  0  0  0  0  0
   -2.8482   -0.6912   -1.2744 C   0  0  0  0  0  0  0  0  0  0  0  0
   -3.1227   -1.9944   -1.7490 O   0  0  0  0  0  0  0  0  0  0  0  0
   -5.0422   -0.2604   -0.3283 C   0  0  0  0  0  0  0  0  0  0  0  0
   -5.8438   -0.2045    0.8030 O   0  0  0  0  0  0  0  0  0  0  0  0
   -5.5200   -1.2566   -1.1884 O   0  0  0  0  0  0  0  0  0  0  0  0
   -1.2273    2.0112    0.4629 C   0  0  0  0  0  0  0  0  0  0  0  0
   -1.3979    2.6414   -0.8411 C   0  0  0  0  0  0  0  0  0  0  0  0
   -2.0737    3.2130    0.3902 C   0  0  0  0  0  0  0  0  0  0  0  0
    1.3618   -2.8632   -1.2858 F   0  0  0  0  0  0  0  0  0  0  0  0
    4.7894    3.1178   -0.6930 H   0  0  0  0  0  0  0  0  0  0  0  0
    3.4707    2.1582   -1.5477 H   0  0  0  0  0  0  0  0  0  0  0  0
    5.1995    1.7081   -1.7102 H   0  0  0  0  0  0  0  0  0  0  0  0
    4.5576    1.8566    1.1615 H   0  0  0  0  0  0  0  0  0  0  0  0
    2.2476    1.6179   -0.0904 H   0  0  0  0  0  0  0  0  0  0  0  0
    2.6636    0.6961    1.4459 H   0  0  0  0  0  0  0  0  0  0  0  0
    3.0038   -2.3080    0.4879 H   0  0  0  0  0  0  0  0  0  0  0  0
    3.8289   -1.9618   -1.0363 H   0  0  0  0  0  0  0  0  0  0  0  0
    4.3995   -0.8812    1.7177 H   0  0  0  0  0  0  0  0  0  0  0  0
    5.4416   -1.8406    0.5943 H   0  0  0  0  0  0  0  0  0  0  0  0
    5.7627    0.1151   -0.7146 H   0  0  0  0  0  0  0  0  0  0  0  0
   -1.0434   -2.6105   -1.2220 H   0  0  0  0  0  0  0  0  0  0  0  0
    1.2516   -2.6843    3.1275 H   0  0  0  0  0  0  0  0  0  0  0  0
    2.1920   -1.3451    2.5136 H   0  0  0  0  0  0  0  0  0  0  0  0
    0.6610   -0.9350    3.2939 H   0  0  0  0  0  0  0  0  0  0  0  0
   -3.3043    0.1754    1.9808 H   0  0  0  0  0  0  0  0  0  0  0  0
   -0.2075    2.2597    0.9602 H   0  0  0  0  0  0  0  0  0  0  0  0
   -0.5786    3.2667   -1.2464 H   0  0  0  0  0  0  0  0  0  0  0  0
   -2.0930    2.3241   -1.6490 H   0  0  0  0  0  0  0  0  0  0  0  0
   -3.1662    3.2248    0.4260 H   0  0  0  0  0  0  0  0  0  0  0  0
   -1.6662    4.2154    0.7454 H   0  0  0  0  0  0  0  0  0  0  0  0
    0.8769    0.4061   -1.0907 H   0  0  0  0  0  0  0  0  0  0  0  0
    1.2528   -1.3363   -2.5706 H   0  0  0  0  0  0  0  0  0  0  0  0
   -0.9930   -1.7704   -2.7958 H   0  0  0  0  0  0  0  0  0  0  0  0
   -1.0053    0.3698   -1.6905 H   0  0  0  0  0  0  0  0  0  0  0  0
   -1.6355   -1.2716    0.8593 H   0  0  0  0  0  0  0  0  0  0  0  0
    0.6947    0.2197    1.2833 H   0  0  0  0  0  0  0  0  0  0  0  0
   -3.7314    1.4095    0.8050 H   0  0  0  0  0  0  0  0  0  0  0  0
   -3.6353   -1.5453    0.5768 H   0  0  0  0  0  0  0  0  0  0  0  0
   -3.2670    0.0252   -2.0304 H   0  0  0  0  0  0  0  0  0  0  0  0
   -3.1037   -2.5824   -0.9333 H   0  0  0  0  0  0  0  0  0  0  0  0
   -5.0875    0.7490   -0.8105 H   0  0  0  0  0  0  0  0  0  0  0  0
   -5.8337    0.7175    1.1991 H   0  0  0  0  0  0  0  0  0  0  0  0
   -6.4966   -1.3435   -0.9903 H   0  0  0  0  0  0  0  0  0  0  0  0
    0.8769    0.4061   -1.0907 H   0  0  0  0  0  0  0  0  0  0  0  0
    1.2528   -1.3363   -2.5706 H   0  0  0  0  0  0  0  0  0  0  0  0
   -0.9930   -1.7704   -2.7958 H   0  0  0  0  0  0  0  0  0  0  0  0
   -1.0053    0.3698   -1.6905 H   0  0  0  0  0  0  0  0  0  0  0  0
   -1.6355   -1.2716    0.8593 H   0  0  0  0  0  0  0  0  0  0  0  0
    0.6947    0.2197    1.2833 H   0  0  0  0  0  0  0  0  0  0  0  0
   -3.7314    1.4095    0.8050 H   0  0  0  0  0  0  0  0  0  0  0  0
   -3.6353   -1.5453    0.5768 H   0  0  0  0  0  0  0  0  0  0  0  0
   -3.2670    0.0252   -2.0304 H   0  0  0  0  0  0  0  0  0  0  0  0
   -3.1037   -2.5824   -0.9333 H   0  0  0  0  0  0  0  0  0  0  0  0
   -5.0875    0.7490   -0.8105 H   0  0  0  0  0  0  0  0  0  0  0  0
   -5.8337    0.7175    1.1991 H   0  0  0  0  0  0  0  0  0  0  0  0
   -6.4966   -1.3435   -0.9903 H   0  0  0  0  0  0  0  0  0  0  0  0
  1  2  1  0
  2  3  1  0
  3  4  1  0
  4  5  1  0
  5  6  1  0
  2  7  1  0
  6  7  1  0
  4  8  1  0
  8  9  1  0
  9 10  1  0
 10 11  1  0
 11 12  1  0
  8 13  1  0
 12 13  1  0
 13 14  1  0
 14 15  1  0
 12 16  1  0
 16 17  1  0
 17 18  1  0
 11 19  1  0
 18 19  1  0
 19 20  1  0
 18 21  1  0
 21 22  1  0
 21 23  1  0
 16 24  1  0
 24 25  1  0
 24 26  1  0
 25 26  1  0
  9 27  1  0
  1 28  1  0
  1 29  1  0
  1 30  1  0
  2 31  1  1
  3 32  1  0
  3 33  1  0
  5 34  1  0
  5 35  1  0
  6 36  1  0
  6 37  1  0
  7 38  1  0
 10 39  1  0
 15 40  1  0
 15 41  1  0
 15 42  1  0
 17 43  1  0
 24 44  1  0
 25 45  1  0
 25 46  1  0
 26 47  1  0
 26 48  1  0
 49 50  1  0
 50 51  1  0
 51 52  1  0
 52 53  1  0
 53 54  1  0
 50 55  1  0
 54 55  1  0
 52 56  1  0
 56 57  1  0
 57 58  1  0
 58 59  1  0
 59 60  1  0
 56 61  1  0
 60 61  1  0
 61 62  1  0
 62 63  1  0
 60 64  1  0
 64 65  1  0
 65 66  1  0
 59 67  1  0
 66 67  1  0
 67 68  1  0
 66 69  1  0
 69 70  1  0
 69 71  1  0
 64 72  1  0
 72 73  1  0
 72 74  1  0
 73 74  1  0
 57 75  1  0
 49 76  1  0
 49 77  1  0
 49 78  1  0
 50 79  1  1
 51 80  1  0
 51 81  1  0
 53 82  1  0
 53 83  1  0
 54 84  1  0
 54 85  1  0
 55 86  1  0
 58 87  1  0
 63 88  1  0
 63 89  1  0
 63 90  1  0
 65 91  1  0
 72 92  1  0
 73 93  1  0
 73 94  1  0
 74 95  1  0
 74 96  1  0
  8 97  1  0
  9 98  1  0
 10 99  1  0
 11100  1  0
 12101  1  0
 13102  1  0
 17103  1  0
 18104  1  0
 19105  1  0
 20106  1  0
 21107  1  0
 22108  1  0
 23109  1  0
 56110  1  0
 57111  1  0
 58112  1  0
 59113  1  0
 60114  1  0
 61115  1  0
 65116  1  0
 66117  1  0
 67118  1  0
 68119  1  0
 69120  1  0
 70121  1  0
 71122  1  0
M  END
>  <PDBID>  (1) 
5BTF

>  <PDB ID>  (1) 
5BTF

>  <Generic Name>  (1) 
Gatifloxacin

>  <Brand Name>  (1) 
Apo-gatifloxacin#Gatifloxacin#Tequin#Tequin IV#Zymar#Zymaxid

>  <DrugBank ID>  (1) 
DB01044

>  <ATC Codes>  (1) 
S01AE06#J01MA16

>  <Ligand ID>  (1) 
GFN

>  <Target Name>  (1) 
DNA gyrase subunit A

>  <UniProt ID>  (1) 
P72524

>  <PDB ID.1>  (1) 
5BTF

>  <Seq. Identity>  (1) 
53%

$$$$
