PDB_DB01268_05
     RDKit          3D

 72 74  0  0  0  0  0  0  0  0999 V2000
    1.5659   -2.3735   -0.9437 C   0  0  0  0  0  0  0  0  0  0  0  0
   -6.5146    1.6225    0.3838 C   0  0  0  0  0  0  0  0  0  0  0  0
   -5.9038    1.3449    1.7470 C   0  0  0  0  0  0  0  0  0  0  0  0
   -4.4110    0.7458   -0.6591 C   0  0  0  0  0  0  0  0  0  0  0  0
   -0.7126    0.2932   -0.8662 C   0  0  0  0  0  0  0  0  0  0  0  0
   -5.3661    1.9169   -0.5377 C   0  0  0  0  0  0  0  0  0  0  0  0
   -3.8636    0.3077    0.6814 C   0  0  0  0  0  0  0  0  0  0  0  0
   -3.3930   -1.1197    0.6543 C   0  0  0  0  0  0  0  0  0  0  0  0
   -4.7401   -1.8240    0.3830 C   0  0  0  0  0  0  0  0  0  0  0  0
    1.4880    1.1547   -1.6613 C   0  0  0  0  0  0  0  0  0  0  0  0
   -0.3808    1.0579    0.4268 C   0  0  0  0  0  0  0  0  0  0  0  0
   -2.4551   -1.5456   -0.3616 C   0  0  0  0  0  0  0  0  0  0  0  0
    1.1322   -1.0328   -0.3714 C   0  0  0  0  0  0  0  0  0  0  0  0
   -5.0682    0.1166    1.6429 C   0  0  0  0  0  0  0  0  0  0  0  0
   -1.1286   -1.0911   -0.5796 C   0  0  0  0  0  0  0  0  0  0  0  0
    0.7083   -0.0665   -1.4202 C   0  0  0  0  0  0  0  0  0  0  0  0
   -0.0861   -1.3993    0.4155 N   0  0  0  0  0  0  0  0  0  0  0  0
   -5.7374   -0.9685    0.9507 N   0  0  0  0  0  0  0  0  0  0  0  0
    2.7691    0.9738   -2.1761 N   0  0  0  0  0  0  0  0  0  0  0  0
   -4.7302   -3.0717    1.0508 O   0  0  0  0  0  0  0  0  0  0  0  0
    0.8241    1.9715   -2.6505 O   0  0  0  0  0  0  0  0  0  0  0  0
   -5.7764    2.2257   -1.8268 F   0  0  0  0  0  0  0  0  0  0  0  0
    3.8382    0.3655   -1.5484 C   0  0  0  0  0  0  0  0  0  0  0  0
    4.4028    1.1136   -0.3517 C   0  0  0  0  0  0  0  0  0  0  0  0
    5.5181    0.4703    0.1963 N   0  0  0  0  0  0  0  0  0  0  0  0
    6.1251    1.0851    1.3253 C   0  0  0  0  0  0  0  0  0  0  0  0
    5.7687   -0.8900   -0.0260 C   0  0  0  0  0  0  0  0  0  0  0  0
    4.8612   -1.8865    0.6035 C   0  0  0  0  0  0  0  0  0  0  0  0
    6.7641    2.3919    0.8614 C   0  0  0  0  0  0  0  0  0  0  0  0
    0.7180   -3.0508   -1.0690 H   0  0  0  0  0  0  0  0  0  0  0  0
    2.1656   -2.3147   -1.8440 H   0  0  0  0  0  0  0  0  0  0  0  0
    2.1951   -2.8403   -0.1359 H   0  0  0  0  0  0  0  0  0  0  0  0
   -7.0815    0.7528    0.0032 H   0  0  0  0  0  0  0  0  0  0  0  0
   -7.1720    2.4952    0.4308 H   0  0  0  0  0  0  0  0  0  0  0  0
   -6.7342    1.1132    2.4443 H   0  0  0  0  0  0  0  0  0  0  0  0
   -5.3117    2.2060    2.0566 H   0  0  0  0  0  0  0  0  0  0  0  0
   -4.9859   -0.0725   -1.1005 H   0  0  0  0  0  0  0  0  0  0  0  0
   -3.5845    1.1083   -1.2986 H   0  0  0  0  0  0  0  0  0  0  0  0
   -1.2569    0.8708   -1.5927 H   0  0  0  0  0  0  0  0  0  0  0  0
   -4.8169    2.7731   -0.1274 H   0  0  0  0  0  0  0  0  0  0  0  0
   -3.1777    1.0136    1.1230 H   0  0  0  0  0  0  0  0  0  0  0  0
   -3.1613   -1.4504    1.6997 H   0  0  0  0  0  0  0  0  0  0  0  0
   -4.8524   -2.0405   -0.6804 H   0  0  0  0  0  0  0  0  0  0  0  0
    1.5384    1.8395   -0.7679 H   0  0  0  0  0  0  0  0  0  0  0  0
   -0.9251    0.5241    1.2667 H   0  0  0  0  0  0  0  0  0  0  0  0
   -0.5903    2.1173    0.3542 H   0  0  0  0  0  0  0  0  0  0  0  0
    0.6763    0.9355    0.7378 H   0  0  0  0  0  0  0  0  0  0  0  0
   -2.4073   -2.6969   -0.2860 H   0  0  0  0  0  0  0  0  0  0  0  0
   -3.0145   -1.4682   -1.3699 H   0  0  0  0  0  0  0  0  0  0  0  0
    1.8561   -0.6468    0.3583 H   0  0  0  0  0  0  0  0  0  0  0  0
   -4.6584   -0.2559    2.5842 H   0  0  0  0  0  0  0  0  0  0  0  0
   -0.7335   -1.7031   -1.4913 H   0  0  0  0  0  0  0  0  0  0  0  0
    0.5581   -0.6635   -2.3595 H   0  0  0  0  0  0  0  0  0  0  0  0
   -0.1436   -2.3982    0.6069 H   0  0  0  0  0  0  0  0  0  0  0  0
   -6.3671   -1.5170    1.5996 H   0  0  0  0  0  0  0  0  0  0  0  0
    3.0193    1.4398   -3.0604 H   0  0  0  0  0  0  0  0  0  0  0  0
   -3.8235   -3.4779    0.9951 H   0  0  0  0  0  0  0  0  0  0  0  0
    0.2480    1.3799   -3.1957 H   0  0  0  0  0  0  0  0  0  0  0  0
    4.7027    0.3488   -2.3060 H   0  0  0  0  0  0  0  0  0  0  0  0
    3.7727   -0.6808   -1.2361 H   0  0  0  0  0  0  0  0  0  0  0  0
    4.7198    2.1291   -0.7246 H   0  0  0  0  0  0  0  0  0  0  0  0
    3.5816    1.3374    0.3884 H   0  0  0  0  0  0  0  0  0  0  0  0
    5.3899    1.3385    2.1006 H   0  0  0  0  0  0  0  0  0  0  0  0
    6.9264    0.4412    1.7840 H   0  0  0  0  0  0  0  0  0  0  0  0
    6.8071   -1.1062    0.3761 H   0  0  0  0  0  0  0  0  0  0  0  0
    5.8952   -1.1550   -1.1246 H   0  0  0  0  0  0  0  0  0  0  0  0
    4.5756   -2.6740   -0.1470 H   0  0  0  0  0  0  0  0  0  0  0  0
    5.3651   -2.4747    1.4164 H   0  0  0  0  0  0  0  0  0  0  0  0
    3.9465   -1.4917    1.0321 H   0  0  0  0  0  0  0  0  0  0  0  0
    7.6160    2.6725    1.5111 H   0  0  0  0  0  0  0  0  0  0  0  0
    5.9670    3.1645    0.9162 H   0  0  0  0  0  0  0  0  0  0  0  0
    7.0600    2.2894   -0.2002 H   0  0  0  0  0  0  0  0  0  0  0  0
  2  3  1  0
  2  6  1  0
  4  6  1  0
  4  7  1  0
  7  8  1  0
  8  9  1  0
  5 11  1  0
  8 12  1  0
  1 13  1  0
  3 14  1  0
  7 14  1  0
  5 15  1  0
 12 15  1  0
  5 16  1  0
 10 16  1  0
 13 16  1  0
 13 17  1  0
 15 17  1  0
  9 18  1  0
 14 18  1  0
 10 19  1  0
  9 20  1  0
 10 21  1  0
  6 22  1  0
 19 23  1  0
 23 24  1  0
 24 25  1  0
 25 26  1  0
 25 27  1  0
 27 28  1  0
 26 29  1  0
  1 30  1  0
  1 31  1  0
  1 32  1  0
  2 33  1  0
  2 34  1  0
  3 35  1  0
  3 36  1  0
  4 37  1  0
  4 38  1  0
  5 39  1  0
  6 40  1  0
  7 41  1  0
  8 42  1  0
  9 43  1  0
 10 44  1  0
 11 45  1  0
 11 46  1  0
 11 47  1  0
 12 48  1  0
 12 49  1  0
 13 50  1  0
 14 51  1  0
 15 52  1  0
 16 53  1  0
 17 54  1  0
 18 55  1  0
 19 56  1  0
 20 57  1  0
 21 58  1  0
 23 59  1  0
 23 60  1  0
 24 61  1  0
 24 62  1  0
 26 63  1  0
 26 64  1  0
 27 65  1  0
 27 66  1  0
 28 67  1  0
 28 68  1  0
 28 69  1  0
 29 70  1  0
 29 71  1  0
 29 72  1  0
M  END
>  <PDBID>  (1) 
4AGD

>  <PDB ID>  (1) 
4AGD

>  <Generic Name>  (1) 
Sunitinib

>  <Brand Name>  (1) 
Sutent

>  <DrugBank ID>  (1) 
DB01268

>  <ATC Codes>  (1) 
L01XE04

>  <Ligand ID>  (1) 
B49

>  <Target Name>  (1) 
Vascular endothelial growth factor receptor 3

>  <UniProt ID>  (1) 
P35916

>  <PDB ID.1>  (1) 
4AGD

>  <Seq. Identity>  (1) 
66%

$$$$
