PDB_DB01157_08
     RDKit          3D

264272  0  0  0  0  0  0  0  0999 V2000
   -5.0956    1.9991   -0.0348 N   0  0  0  0  0  0  0  0  0  0  0  0
   -6.1942    1.2851    0.5890 C   0  0  1  0  0  0  0  0  0  0  0  0
   -6.2747   -0.0956    0.2035 N   0  0  0  0  0  0  0  0  0  0  0  0
   -5.0923   -0.8717    0.4453 C   0  0  2  0  0  0  0  0  0  0  0  0
   -4.0463    1.0897   -0.4672 C   0  0  0  0  0  0  0  0  0  0  0  0
   -3.8795    0.0576    0.6046 C   0  0  0  0  0  0  0  0  0  0  0  0
   -2.5939   -0.6366    0.7053 C   0  0  0  0  0  0  0  0  0  0  0  0
   -1.4411    0.1280    0.1285 C   0  0  0  0  0  0  0  0  0  0  0  0
   -1.7620    0.8209   -1.1775 C   0  0  0  0  0  0  0  0  0  0  0  0
   -2.8286    1.8645   -0.8054 C   0  0  0  0  0  0  0  0  0  0  0  0
   -0.1786   -0.6983    0.0399 C   0  0  0  0  0  0  0  0  0  0  0  0
    0.8522    0.1358   -0.5269 N   0  0  0  0  0  0  0  0  0  0  0  0
    2.1194   -0.5323   -0.7086 C   0  0  0  0  0  0  0  0  0  0  0  0
    2.7904   -0.9854    0.5334 C   0  0  0  0  0  0  0  0  0  0  0  0
    3.9123   -0.1346    1.0340 C   0  0  0  0  0  0  0  0  0  0  0  0
    4.7593    0.4938   -0.0391 C   0  0  0  0  0  0  0  0  0  0  0  0
    4.4369   -0.1857   -1.3785 C   0  0  0  0  0  0  0  0  0  0  0  0
    3.0080    0.2237   -1.6754 C   0  0  0  0  0  0  0  0  0  0  0  0
   -2.6073   -2.0832    0.2125 C   0  0  0  0  0  0  0  0  0  0  0  0
    4.7870   -0.9818    1.7518 O   0  0  0  0  0  0  0  0  0  0  0  0
    4.3083    1.8098   -0.1896 O   0  0  0  0  0  0  0  0  0  0  0  0
    4.6103   -1.5489   -1.2939 O   0  0  0  0  0  0  0  0  0  0  0  0
    4.8944   -0.6512    3.0780 C   0  0  0  0  0  0  0  0  0  0  0  0
    5.3704    2.7087   -0.0921 C   0  0  0  0  0  0  0  0  0  0  0  0
    5.6122   -2.0158   -2.1339 C   0  0  0  0  0  0  0  0  0  0  0  0
   -6.2581    1.4624    2.0225 N   0  0  0  0  0  0  0  0  0  0  0  0
   -4.9283   -1.7223   -0.7469 N   0  0  0  0  0  0  0  0  0  0  0  0
   -4.6291    1.9809    1.1866 N   0  0  0  0  0  0  0  0  0  0  0  0
   -5.9034    1.6531    0.6551 C   0  0  1  0  0  0  0  0  0  0  0  0
   -5.8015    1.0851   -0.6534 N   0  0  0  0  0  0  0  0  0  0  0  0
   -5.0419   -0.1301   -0.6831 C   0  0  0  0  0  0  0  0  0  0  0  0
   -3.5477    1.1245    0.9027 C   0  0  0  0  0  0  0  0  0  0  0  0
   -3.8423   -0.1492    0.1914 C   0  0  0  0  0  0  0  0  0  0  0  0
   -2.6282   -0.4649   -0.6807 C   0  0  1  0  0  0  0  0  0  0  0  0
   -1.4183   -0.2542    0.2008 C   0  0  0  0  0  0  0  0  0  0  0  0
   -1.1489    1.2509    0.2026 C   0  0  0  0  0  0  0  0  0  0  0  0
   -2.4723    1.9446    0.1743 C   0  0  0  0  0  0  0  0  0  0  0  0
   -0.1789   -0.9023   -0.3656 C   0  0  0  0  0  0  0  0  0  0  0  0
    0.8991   -0.6230    0.5874 N   0  0  0  0  0  0  0  0  0  0  0  0
    2.1487   -1.2020    0.1366 C   0  0  0  0  0  0  0  0  0  0  0  0
    3.1967   -1.1434    1.1837 C   0  0  0  0  0  0  0  0  0  0  0  0
    4.1478   -0.0074    1.1319 C   0  0  0  0  0  0  0  0  0  0  0  0
    4.5423    0.4260   -0.2516 C   0  0  0  0  0  0  0  0  0  0  0  0
    4.0125   -0.5535   -1.2944 C   0  0  0  0  0  0  0  0  0  0  0  0
    2.5090   -0.5324   -1.1634 C   0  0  0  0  0  0  0  0  0  0  0  0
   -2.6879   -1.8666   -1.2359 C   0  0  0  0  0  0  0  0  0  0  0  0
    5.2979   -0.3795    1.8547 O   0  0  0  0  0  0  0  0  0  0  0  0
    3.9704    1.6697   -0.5112 O   0  0  0  0  0  0  0  0  0  0  0  0
    4.4237   -1.8581   -0.9724 O   0  0  0  0  0  0  0  0  0  0  0  0
    5.4911    0.4024    2.9683 C   0  0  0  0  0  0  0  0  0  0  0  0
    4.9457    2.6007   -0.8666 C   0  0  0  0  0  0  0  0  0  0  0  0
    5.1693   -2.3267   -2.0523 C   0  0  0  0  0  0  0  0  0  0  0  0
   -6.7182    0.8714    1.5643 N   0  0  0  0  0  0  0  0  0  0  0  0
   -5.9424   -1.2131   -0.2541 N   0  0  0  0  0  0  0  0  0  0  0  0
   -4.7762    1.4841    1.5386 N   0  0  0  0  0  0  0  0  0  0  0  0
   -5.6168    1.7231    0.3888 C   0  0  0  0  0  0  0  0  0  0  0  0
   -5.6098    0.6492   -0.5593 N   0  0  0  0  0  0  0  0  0  0  0  0
   -5.1830   -0.5990    0.0584 C   0  0  2  0  0  0  0  0  0  0  0  0
   -3.5480    0.8119    1.1924 C   0  0  0  0  0  0  0  0  0  0  0  0
   -3.7975   -0.5487    0.5755 C   0  0  0  0  0  0  0  0  0  0  0  0
   -2.7236   -0.7386   -0.4781 C   0  0  1  0  0  0  0  0  0  0  0  0
   -1.4457   -0.3057    0.1545 C   0  0  0  0  0  0  0  0  0  0  0  0
   -1.3441    1.2005    0.0466 C   0  0  0  0  0  0  0  0  0  0  0  0
   -2.7640    1.7260    0.2829 C   0  0  0  0  0  0  0  0  0  0  0  0
   -0.2104   -1.0119   -0.3355 C   0  0  0  0  0  0  0  0  0  0  0  0
    0.8878   -0.4227    0.4212 N   0  0  0  0  0  0  0  0  0  0  0  0
    2.1732   -1.0027    0.0838 C   0  0  0  0  0  0  0  0  0  0  0  0
    3.1152   -0.9208    1.2232 C   0  0  0  0  0  0  0  0  0  0  0  0
    4.2611    0.0058    1.1280 C   0  0  0  0  0  0  0  0  0  0  0  0
    4.6136    0.4975   -0.2518 C   0  0  0  0  0  0  0  0  0  0  0  0
    4.1021   -0.4434   -1.3173 C   0  0  0  0  0  0  0  0  0  0  0  0
    2.6023   -0.4183   -1.2100 C   0  0  0  0  0  0  0  0  0  0  0  0
   -2.7165   -2.0951   -1.0791 C   0  0  0  0  0  0  0  0  0  0  0  0
    5.3832   -0.6178    1.7178 O   0  0  0  0  0  0  0  0  0  0  0  0
    3.9488    1.7305   -0.4340 O   0  0  0  0  0  0  0  0  0  0  0  0
    4.5382   -1.7390   -1.1327 O   0  0  0  0  0  0  0  0  0  0  0  0
    5.8351    0.0410    2.8427 C   0  0  0  0  0  0  0  0  0  0  0  0
    4.8564    2.7321   -0.7518 C   0  0  0  0  0  0  0  0  0  0  0  0
    5.2393   -2.1147   -2.2789 C   0  0  0  0  0  0  0  0  0  0  0  0
   -6.9443    2.0303    0.8905 N   0  0  0  0  0  0  0  0  0  0  0  0
   -5.4639   -1.7137   -0.8018 N   0  0  0  0  0  0  0  0  0  0  0  0
   -4.7762    1.4841    1.5386 N   0  0  0  0  0  0  0  0  0  0  0  0
   -5.6168    1.7231    0.3888 C   0  0  0  0  0  0  0  0  0  0  0  0
   -5.6098    0.6492   -0.5593 N   0  0  0  0  0  0  0  0  0  0  0  0
   -5.1830   -0.5990    0.0584 C   0  0  2  0  0  0  0  0  0  0  0  0
   -3.5480    0.8119    1.1924 C   0  0  0  0  0  0  0  0  0  0  0  0
   -3.7975   -0.5487    0.5755 C   0  0  0  0  0  0  0  0  0  0  0  0
   -2.7236   -0.7386   -0.4781 C   0  0  1  0  0  0  0  0  0  0  0  0
   -1.4457   -0.3057    0.1545 C   0  0  0  0  0  0  0  0  0  0  0  0
   -1.3441    1.2005    0.0466 C   0  0  0  0  0  0  0  0  0  0  0  0
   -2.7640    1.7260    0.2829 C   0  0  0  0  0  0  0  0  0  0  0  0
   -0.2104   -1.0119   -0.3355 C   0  0  0  0  0  0  0  0  0  0  0  0
    0.8878   -0.4227    0.4212 N   0  0  0  0  0  0  0  0  0  0  0  0
    2.1732   -1.0027    0.0838 C   0  0  0  0  0  0  0  0  0  0  0  0
    3.1152   -0.9208    1.2232 C   0  0  0  0  0  0  0  0  0  0  0  0
    4.2611    0.0058    1.1280 C   0  0  0  0  0  0  0  0  0  0  0  0
    4.6136    0.4975   -0.2518 C   0  0  0  0  0  0  0  0  0  0  0  0
    4.1021   -0.4434   -1.3173 C   0  0  0  0  0  0  0  0  0  0  0  0
    2.6023   -0.4183   -1.2100 C   0  0  0  0  0  0  0  0  0  0  0  0
   -2.7165   -2.0951   -1.0791 C   0  0  0  0  0  0  0  0  0  0  0  0
    5.3832   -0.6178    1.7178 O   0  0  0  0  0  0  0  0  0  0  0  0
    3.9488    1.7305   -0.4340 O   0  0  0  0  0  0  0  0  0  0  0  0
    4.5382   -1.7390   -1.1327 O   0  0  0  0  0  0  0  0  0  0  0  0
    5.8351    0.0410    2.8427 C   0  0  0  0  0  0  0  0  0  0  0  0
    4.8564    2.7321   -0.7518 C   0  0  0  0  0  0  0  0  0  0  0  0
    5.2393   -2.1147   -2.2789 C   0  0  0  0  0  0  0  0  0  0  0  0
   -6.9443    2.0303    0.8905 N   0  0  0  0  0  0  0  0  0  0  0  0
   -5.4639   -1.7137   -0.8018 N   0  0  0  0  0  0  0  0  0  0  0  0
   -4.6578    2.5719    0.7484 H   0  0  0  0  0  0  0  0  0  0  0  0
   -7.1279    1.7724    0.1862 H   0  0  0  0  0  0  0  0  0  0  0  0
   -6.5786   -0.1051   -0.8168 H   0  0  0  0  0  0  0  0  0  0  0  0
   -5.2346   -1.4848    1.3585 H   0  0  0  0  0  0  0  0  0  0  0  0
   -4.4202    0.5996   -1.3900 H   0  0  0  0  0  0  0  0  0  0  0  0
   -4.0940    0.5846    1.5838 H   0  0  0  0  0  0  0  0  0  0  0  0
   -2.3300   -0.7622    1.8032 H   0  0  0  0  0  0  0  0  0  0  0  0
   -1.2101    0.9545    0.8640 H   0  0  0  0  0  0  0  0  0  0  0  0
   -0.8459    1.3160   -1.5415 H   0  0  0  0  0  0  0  0  0  0  0  0
   -2.1850    0.1094   -1.8953 H   0  0  0  0  0  0  0  0  0  0  0  0
   -3.0198    2.4430   -1.7218 H   0  0  0  0  0  0  0  0  0  0  0  0
   -2.4430    2.4895    0.0229 H   0  0  0  0  0  0  0  0  0  0  0  0
   -0.2814   -1.5620   -0.6480 H   0  0  0  0  0  0  0  0  0  0  0  0
    0.0915   -0.9689    1.0558 H   0  0  0  0  0  0  0  0  0  0  0  0
    0.9127    1.0829   -0.1457 H   0  0  0  0  0  0  0  0  0  0  0  0
    1.8753   -1.4921   -1.2812 H   0  0  0  0  0  0  0  0  0  0  0  0
    2.0394   -1.0307    1.3583 H   0  0  0  0  0  0  0  0  0  0  0  0
    3.1500   -2.0583    0.4615 H   0  0  0  0  0  0  0  0  0  0  0  0
    3.5222    0.6032    1.7537 H   0  0  0  0  0  0  0  0  0  0  0  0
    5.8369    0.4260    0.1226 H   0  0  0  0  0  0  0  0  0  0  0  0
    5.1552    0.2158   -2.1168 H   0  0  0  0  0  0  0  0  0  0  0  0
    2.9297    1.3078   -1.5852 H   0  0  0  0  0  0  0  0  0  0  0  0
    2.7923   -0.0349   -2.7316 H   0  0  0  0  0  0  0  0  0  0  0  0
   -3.3549   -2.6565    0.7615 H   0  0  0  0  0  0  0  0  0  0  0  0
   -1.6159   -2.5022    0.5624 H   0  0  0  0  0  0  0  0  0  0  0  0
   -2.6000   -2.1648   -0.8683 H   0  0  0  0  0  0  0  0  0  0  0  0
    5.2829    0.3971    3.1403 H   0  0  0  0  0  0  0  0  0  0  0  0
    3.9826   -0.8207    3.6482 H   0  0  0  0  0  0  0  0  0  0  0  0
    5.7407   -1.2775    3.4844 H   0  0  0  0  0  0  0  0  0  0  0  0
    5.0599    3.7456   -0.2037 H   0  0  0  0  0  0  0  0  0  0  0  0
    6.1432    2.4660   -0.8599 H   0  0  0  0  0  0  0  0  0  0  0  0
    5.8494    2.6203    0.9175 H   0  0  0  0  0  0  0  0  0  0  0  0
    6.6024   -1.5610   -1.9089 H   0  0  0  0  0  0  0  0  0  0  0  0
    5.7392   -3.1063   -1.8697 H   0  0  0  0  0  0  0  0  0  0  0  0
    5.3714   -1.9212   -3.2017 H   0  0  0  0  0  0  0  0  0  0  0  0
   -6.6334    0.5562    2.4393 H   0  0  0  0  0  0  0  0  0  0  0  0
   -6.9513    2.1846    2.3109 H   0  0  0  0  0  0  0  0  0  0  0  0
   -5.4605   -2.5992   -0.5373 H   0  0  0  0  0  0  0  0  0  0  0  0
   -5.3133   -1.2736   -1.5897 H   0  0  0  0  0  0  0  0  0  0  0  0
   -4.7118    2.2299    2.2022 H   0  0  0  0  0  0  0  0  0  0  0  0
   -6.4657    2.6276    0.5273 H   0  0  0  0  0  0  0  0  0  0  0  0
   -6.7411    0.9049   -1.0614 H   0  0  0  0  0  0  0  0  0  0  0  0
   -4.8194   -0.3276   -1.7669 H   0  0  0  0  0  0  0  0  0  0  0  0
   -3.0573    0.8546    1.8852 H   0  0  0  0  0  0  0  0  0  0  0  0
   -3.8844   -1.0046    0.9292 H   0  0  0  0  0  0  0  0  0  0  0  0
   -2.6378    0.2734   -1.5072 H   0  0  0  0  0  0  0  0  0  0  0  0
   -1.5507   -0.6047    1.2305 H   0  0  0  0  0  0  0  0  0  0  0  0
   -0.4903    1.5456    1.0271 H   0  0  0  0  0  0  0  0  0  0  0  0
   -0.6386    1.4657   -0.7797 H   0  0  0  0  0  0  0  0  0  0  0  0
   -2.8052    2.2449   -0.8237 H   0  0  0  0  0  0  0  0  0  0  0  0
   -2.3567    2.8863    0.7649 H   0  0  0  0  0  0  0  0  0  0  0  0
   -0.3657   -2.0111   -0.4013 H   0  0  0  0  0  0  0  0  0  0  0  0
    0.0955   -0.4729   -1.3296 H   0  0  0  0  0  0  0  0  0  0  0  0
    0.6422   -0.8967    1.5602 H   0  0  0  0  0  0  0  0  0  0  0  0
    1.9594   -2.2879   -0.1054 H   0  0  0  0  0  0  0  0  0  0  0  0
    2.6666   -1.0899    2.1811 H   0  0  0  0  0  0  0  0  0  0  0  0
    3.7921   -2.0913    1.2650 H   0  0  0  0  0  0  0  0  0  0  0  0
    3.7037    0.8498    1.6904 H   0  0  0  0  0  0  0  0  0  0  0  0
    5.6193    0.5115   -0.3990 H   0  0  0  0  0  0  0  0  0  0  0  0
    4.3728   -0.2423   -2.2911 H   0  0  0  0  0  0  0  0  0  0  0  0
    2.1308    0.5272   -1.1066 H   0  0  0  0  0  0  0  0  0  0  0  0
    1.9820   -1.0283   -1.9772 H   0  0  0  0  0  0  0  0  0  0  0  0
   -2.7150   -2.6232   -0.4534 H   0  0  0  0  0  0  0  0  0  0  0  0
   -3.5807   -1.9292   -1.8899 H   0  0  0  0  0  0  0  0  0  0  0  0
   -1.7906   -2.0117   -1.8577 H   0  0  0  0  0  0  0  0  0  0  0  0
    5.6118    1.4721    2.6960 H   0  0  0  0  0  0  0  0  0  0  0  0
    4.7632    0.2325    3.7807 H   0  0  0  0  0  0  0  0  0  0  0  0
    6.4863    0.0997    3.3978 H   0  0  0  0  0  0  0  0  0  0  0  0
    4.5222    3.5874   -1.0758 H   0  0  0  0  0  0  0  0  0  0  0  0
    5.4695    2.2429   -1.7671 H   0  0  0  0  0  0  0  0  0  0  0  0
    5.6680    2.6842   -0.0383 H   0  0  0  0  0  0  0  0  0  0  0  0
    6.0382   -1.6130   -2.1520 H   0  0  0  0  0  0  0  0  0  0  0  0
    5.4907   -3.3538   -1.8126 H   0  0  0  0  0  0  0  0  0  0  0  0
    4.5371   -2.2446   -2.9504 H   0  0  0  0  0  0  0  0  0  0  0  0
   -7.6890    0.8874    1.2123 H   0  0  0  0  0  0  0  0  0  0  0  0
   -6.3326   -0.0488    1.7886 H   0  0  0  0  0  0  0  0  0  0  0  0
   -5.3755   -1.9279    0.2743 H   0  0  0  0  0  0  0  0  0  0  0  0
   -6.3364   -1.7212   -1.0730 H   0  0  0  0  0  0  0  0  0  0  0  0
   -4.5067    2.4231    1.9214 H   0  0  0  0  0  0  0  0  0  0  0  0
   -5.2641    2.6361   -0.1356 H   0  0  0  0  0  0  0  0  0  0  0  0
   -6.5962    0.4863   -0.8788 H   0  0  0  0  0  0  0  0  0  0  0  0
   -5.8586   -0.7269    0.9589 H   0  0  0  0  0  0  0  0  0  0  0  0
   -2.9661    0.6586    2.1077 H   0  0  0  0  0  0  0  0  0  0  0  0
   -3.6553   -1.3647    1.3252 H   0  0  0  0  0  0  0  0  0  0  0  0
   -2.9720   -0.0076   -1.2995 H   0  0  0  0  0  0  0  0  0  0  0  0
   -1.4835   -0.5073    1.2680 H   0  0  0  0  0  0  0  0  0  0  0  0
   -0.6480    1.6053    0.8053 H   0  0  0  0  0  0  0  0  0  0  0  0
   -1.0469    1.4746   -0.9799 H   0  0  0  0  0  0  0  0  0  0  0  0
   -3.2728    1.9623   -0.6537 H   0  0  0  0  0  0  0  0  0  0  0  0
   -2.6356    2.6845    0.8411 H   0  0  0  0  0  0  0  0  0  0  0  0
   -0.2693   -2.0658   -0.0606 H   0  0  0  0  0  0  0  0  0  0  0  0
   -0.0463   -0.8240   -1.4058 H   0  0  0  0  0  0  0  0  0  0  0  0
    0.7093   -0.3941    1.4287 H   0  0  0  0  0  0  0  0  0  0  0  0
    1.9982   -2.1066   -0.1149 H   0  0  0  0  0  0  0  0  0  0  0  0
    2.4982   -0.6108    2.1251 H   0  0  0  0  0  0  0  0  0  0  0  0
    3.4790   -1.9458    1.5535 H   0  0  0  0  0  0  0  0  0  0  0  0
    4.0615    0.9016    1.7905 H   0  0  0  0  0  0  0  0  0  0  0  0
    5.6840    0.6387   -0.4077 H   0  0  0  0  0  0  0  0  0  0  0  0
    4.4092   -0.0337   -2.3042 H   0  0  0  0  0  0  0  0  0  0  0  0
    2.2926    0.6636   -1.2199 H   0  0  0  0  0  0  0  0  0  0  0  0
    2.1128   -0.9669   -2.0446 H   0  0  0  0  0  0  0  0  0  0  0  0
   -3.4091   -2.1195   -1.9735 H   0  0  0  0  0  0  0  0  0  0  0  0
   -2.9803   -2.9127   -0.3877 H   0  0  0  0  0  0  0  0  0  0  0  0
   -1.7051   -2.2973   -1.5213 H   0  0  0  0  0  0  0  0  0  0  0  0
    6.1433    1.0963    2.5996 H   0  0  0  0  0  0  0  0  0  0  0  0
    5.1256    0.0173    3.6944 H   0  0  0  0  0  0  0  0  0  0  0  0
    6.7580   -0.4668    3.1892 H   0  0  0  0  0  0  0  0  0  0  0  0
    4.3349    3.6836   -0.8944 H   0  0  0  0  0  0  0  0  0  0  0  0
    5.4559    2.4701   -1.6307 H   0  0  0  0  0  0  0  0  0  0  0  0
    5.4913    2.8701    0.1706 H   0  0  0  0  0  0  0  0  0  0  0  0
    6.0818   -1.4222   -2.3957 H   0  0  0  0  0  0  0  0  0  0  0  0
    5.5523   -3.1596   -2.1411 H   0  0  0  0  0  0  0  0  0  0  0  0
    4.5162   -1.9994   -3.1158 H   0  0  0  0  0  0  0  0  0  0  0  0
   -7.5545    2.4887    0.1964 H   0  0  0  0  0  0  0  0  0  0  0  0
   -7.3320    1.2016    1.3526 H   0  0  0  0  0  0  0  0  0  0  0  0
   -5.8765   -2.5334   -0.2961 H   0  0  0  0  0  0  0  0  0  0  0  0
   -6.0378   -1.4372   -1.6322 H   0  0  0  0  0  0  0  0  0  0  0  0
   -4.5067    2.4231    1.9214 H   0  0  0  0  0  0  0  0  0  0  0  0
   -5.2641    2.6361   -0.1356 H   0  0  0  0  0  0  0  0  0  0  0  0
   -6.5962    0.4863   -0.8788 H   0  0  0  0  0  0  0  0  0  0  0  0
   -5.8586   -0.7269    0.9589 H   0  0  0  0  0  0  0  0  0  0  0  0
   -2.9661    0.6586    2.1077 H   0  0  0  0  0  0  0  0  0  0  0  0
   -3.6553   -1.3647    1.3252 H   0  0  0  0  0  0  0  0  0  0  0  0
   -2.9720   -0.0076   -1.2995 H   0  0  0  0  0  0  0  0  0  0  0  0
   -1.4835   -0.5073    1.2680 H   0  0  0  0  0  0  0  0  0  0  0  0
   -0.6480    1.6053    0.8053 H   0  0  0  0  0  0  0  0  0  0  0  0
   -1.0469    1.4746   -0.9799 H   0  0  0  0  0  0  0  0  0  0  0  0
   -3.2728    1.9623   -0.6537 H   0  0  0  0  0  0  0  0  0  0  0  0
   -2.6356    2.6845    0.8411 H   0  0  0  0  0  0  0  0  0  0  0  0
   -0.2693   -2.0658   -0.0606 H   0  0  0  0  0  0  0  0  0  0  0  0
   -0.0463   -0.8240   -1.4058 H   0  0  0  0  0  0  0  0  0  0  0  0
    0.7093   -0.3941    1.4287 H   0  0  0  0  0  0  0  0  0  0  0  0
    1.9982   -2.1066   -0.1149 H   0  0  0  0  0  0  0  0  0  0  0  0
    2.4982   -0.6108    2.1251 H   0  0  0  0  0  0  0  0  0  0  0  0
    3.4790   -1.9458    1.5535 H   0  0  0  0  0  0  0  0  0  0  0  0
    4.0615    0.9016    1.7905 H   0  0  0  0  0  0  0  0  0  0  0  0
    5.6840    0.6387   -0.4077 H   0  0  0  0  0  0  0  0  0  0  0  0
    4.4092   -0.0337   -2.3042 H   0  0  0  0  0  0  0  0  0  0  0  0
    2.2926    0.6636   -1.2199 H   0  0  0  0  0  0  0  0  0  0  0  0
    2.1128   -0.9669   -2.0446 H   0  0  0  0  0  0  0  0  0  0  0  0
   -3.4091   -2.1195   -1.9735 H   0  0  0  0  0  0  0  0  0  0  0  0
   -2.9803   -2.9127   -0.3877 H   0  0  0  0  0  0  0  0  0  0  0  0
   -1.7051   -2.2973   -1.5213 H   0  0  0  0  0  0  0  0  0  0  0  0
    6.1433    1.0963    2.5996 H   0  0  0  0  0  0  0  0  0  0  0  0
    5.1256    0.0173    3.6944 H   0  0  0  0  0  0  0  0  0  0  0  0
    6.7580   -0.4668    3.1892 H   0  0  0  0  0  0  0  0  0  0  0  0
    4.3349    3.6836   -0.8944 H   0  0  0  0  0  0  0  0  0  0  0  0
    5.4559    2.4701   -1.6307 H   0  0  0  0  0  0  0  0  0  0  0  0
    5.4913    2.8701    0.1706 H   0  0  0  0  0  0  0  0  0  0  0  0
    6.0818   -1.4222   -2.3957 H   0  0  0  0  0  0  0  0  0  0  0  0
    5.5523   -3.1596   -2.1411 H   0  0  0  0  0  0  0  0  0  0  0  0
    4.5162   -1.9994   -3.1158 H   0  0  0  0  0  0  0  0  0  0  0  0
   -7.5545    2.4887    0.1964 H   0  0  0  0  0  0  0  0  0  0  0  0
   -7.3320    1.2016    1.3526 H   0  0  0  0  0  0  0  0  0  0  0  0
   -5.8765   -2.5334   -0.2961 H   0  0  0  0  0  0  0  0  0  0  0  0
   -6.0378   -1.4372   -1.6322 H   0  0  0  0  0  0  0  0  0  0  0  0
  1  2  1  0
  2  3  1  0
  3  4  1  0
  1  5  1  0
  4  6  1  0
  5  6  1  0
  6  7  1  0
  7  8  1  0
  8  9  1  0
  5 10  1  0
  9 10  1  0
  8 11  1  0
 11 12  1  0
 12 13  1  0
 13 14  1  0
 14 15  1  0
 15 16  1  0
 16 17  1  0
 13 18  1  0
 17 18  1  0
  7 19  1  0
 15 20  1  0
 16 21  1  0
 17 22  1  0
 20 23  1  0
 21 24  1  0
 22 25  1  0
  2 26  1  0
  4 27  1  0
 28 29  1  0
 29 30  1  0
 30 31  1  0
 28 32  1  0
 31 33  1  0
 32 33  1  0
 33 34  1  0
 34 35  1  0
 35 36  1  0
 32 37  1  0
 36 37  1  0
 35 38  1  0
 38 39  1  0
 39 40  1  0
 40 41  1  0
 41 42  1  0
 42 43  1  0
 43 44  1  0
 40 45  1  0
 44 45  1  0
 34 46  1  0
 42 47  1  0
 43 48  1  0
 44 49  1  0
 47 50  1  0
 48 51  1  0
 49 52  1  0
 29 53  1  0
 31 54  1  0
 55 56  1  0
 56 57  1  0
 57 58  1  0
 55 59  1  0
 58 60  1  0
 59 60  1  0
 60 61  1  0
 61 62  1  0
 62 63  1  0
 59 64  1  0
 63 64  1  0
 62 65  1  0
 65 66  1  0
 66 67  1  0
 67 68  1  0
 68 69  1  0
 69 70  1  0
 70 71  1  0
 67 72  1  0
 71 72  1  0
 61 73  1  0
 69 74  1  0
 70 75  1  0
 71 76  1  0
 74 77  1  0
 75 78  1  0
 76 79  1  0
 56 80  1  0
 58 81  1  0
 82 83  1  0
 83 84  1  0
 84 85  1  0
 82 86  1  0
 85 87  1  0
 86 87  1  0
 87 88  1  0
 88 89  1  0
 89 90  1  0
 86 91  1  0
 90 91  1  0
 89 92  1  0
 92 93  1  0
 93 94  1  0
 94 95  1  0
 95 96  1  0
 96 97  1  0
 97 98  1  0
 94 99  1  0
 98 99  1  0
 88100  1  0
 96101  1  0
 97102  1  0
 98103  1  0
101104  1  0
102105  1  0
103106  1  0
 83107  1  0
 85108  1  0
  1109  1  0
  2110  1  6
  3111  1  0
  4112  1  1
  5113  1  0
  6114  1  0
  7115  1  0
  8116  1  0
  9117  1  0
  9118  1  0
 10119  1  0
 10120  1  0
 11121  1  0
 11122  1  0
 12123  1  0
 13124  1  0
 14125  1  0
 14126  1  0
 15127  1  0
 16128  1  0
 17129  1  0
 18130  1  0
 18131  1  0
 19132  1  0
 19133  1  0
 19134  1  0
 23135  1  0
 23136  1  0
 23137  1  0
 24138  1  0
 24139  1  0
 24140  1  0
 25141  1  0
 25142  1  0
 25143  1  0
 26144  1  0
 26145  1  0
 27146  1  0
 27147  1  0
 28148  1  0
 29149  1  6
 30150  1  0
 31151  1  0
 32152  1  0
 33153  1  0
 34154  1  6
 35155  1  0
 36156  1  0
 36157  1  0
 37158  1  0
 37159  1  0
 38160  1  0
 38161  1  0
 39162  1  0
 40163  1  0
 41164  1  0
 41165  1  0
 42166  1  0
 43167  1  0
 44168  1  0
 45169  1  0
 45170  1  0
 46171  1  0
 46172  1  0
 46173  1  0
 50174  1  0
 50175  1  0
 50176  1  0
 51177  1  0
 51178  1  0
 51179  1  0
 52180  1  0
 52181  1  0
 52182  1  0
 53183  1  0
 53184  1  0
 54185  1  0
 54186  1  0
 55187  1  0
 56188  1  0
 57189  1  0
 58190  1  1
 59191  1  0
 60192  1  0
 61193  1  6
 62194  1  0
 63195  1  0
 63196  1  0
 64197  1  0
 64198  1  0
 65199  1  0
 65200  1  0
 66201  1  0
 67202  1  0
 68203  1  0
 68204  1  0
 69205  1  0
 70206  1  0
 71207  1  0
 72208  1  0
 72209  1  0
 73210  1  0
 73211  1  0
 73212  1  0
 77213  1  0
 77214  1  0
 77215  1  0
 78216  1  0
 78217  1  0
 78218  1  0
 79219  1  0
 79220  1  0
 79221  1  0
 80222  1  0
 80223  1  0
 81224  1  0
 81225  1  0
 82226  1  0
 83227  1  0
 84228  1  0
 85229  1  1
 86230  1  0
 87231  1  0
 88232  1  6
 89233  1  0
 90234  1  0
 90235  1  0
 91236  1  0
 91237  1  0
 92238  1  0
 92239  1  0
 93240  1  0
 94241  1  0
 95242  1  0
 95243  1  0
 96244  1  0
 97245  1  0
 98246  1  0
 99247  1  0
 99248  1  0
100249  1  0
100250  1  0
100251  1  0
104252  1  0
104253  1  0
104254  1  0
105255  1  0
105256  1  0
105257  1  0
106258  1  0
106259  1  0
106260  1  0
107261  1  0
107262  1  0
108263  1  0
108264  1  0
M  END
>  <PDBID>  (1) 
4M2X

>  <PDB ID>  (1) 
4M2X

>  <Generic Name>  (1) 
Trimetrexate

>  <Brand Name>  (1) 
Neutrexin Pws IV 25mg/vial#Neutrexin

>  <DrugBank ID>  (1) 
DB01157

>  <ATC Codes>  (1) 
P01AX07

>  <Ligand ID>  (1) 
TMQ

>  <Target Name>  (1) 
Dihydrofolate reductase

>  <UniProt ID>  (1) 
P00374

>  <PDB ID.1>  (1) 
4M2X

>  <Seq. Identity>  (1) 
31%

$$$$
