PDB_DB00668_02
     RDKit          3D

 32 32  0  0  0  0  0  0  0  0999 V2000
    0.0199   -0.5424    0.6033 C   0  0  0  0  0  0  0  0  0  0  0  0
   -1.0516   -1.3887   -0.0297 C   0  0  0  0  0  0  0  0  0  0  0  0
   -2.3859   -0.8979    0.5456 C   0  0  0  0  0  0  0  0  0  0  0  0
   -2.6083    0.4607   -0.0939 C   0  0  0  0  0  0  0  0  0  0  0  0
   -1.5768    1.3942    0.4585 C   0  0  0  0  0  0  0  0  0  0  0  0
   -0.1740    0.9316    0.3515 C   0  0  0  0  0  0  0  0  0  0  0  0
   -3.4166   -1.7796    0.2534 O   0  0  0  0  0  0  0  0  0  0  0  0
   -3.8757    0.9614    0.1665 O   0  0  0  0  0  0  0  0  0  0  0  0
    1.4759   -0.9403   -1.2719 O   0  0  0  0  0  0  0  0  0  0  0  0
    3.1994    1.2847   -0.6368 C   0  0  0  0  0  0  0  0  0  0  0  0
    2.6976    0.9622    0.6712 N   0  0  0  0  0  0  0  0  0  0  0  0
    2.4768   -0.4311    0.8791 C   0  0  0  0  0  0  0  0  0  0  0  0
    1.3505   -1.0306    0.0882 C   0  0  1  0  0  0  0  0  0  0  0  0
   -0.0142   -0.7168    1.6958 H   0  0  0  0  0  0  0  0  0  0  0  0
   -1.0779   -1.2366   -1.1266 H   0  0  0  0  0  0  0  0  0  0  0  0
   -0.8650   -2.4387    0.2544 H   0  0  0  0  0  0  0  0  0  0  0  0
   -2.2682   -0.7978    1.6464 H   0  0  0  0  0  0  0  0  0  0  0  0
   -2.4199    0.3714   -1.1903 H   0  0  0  0  0  0  0  0  0  0  0  0
   -1.6826    2.3672   -0.1020 H   0  0  0  0  0  0  0  0  0  0  0  0
   -1.8115    1.6770    1.5228 H   0  0  0  0  0  0  0  0  0  0  0  0
    0.4138    1.4569    1.1616 H   0  0  0  0  0  0  0  0  0  0  0  0
    0.2510    1.2769   -0.6062 H   0  0  0  0  0  0  0  0  0  0  0  0
   -3.2235   -2.6030    0.7994 H   0  0  0  0  0  0  0  0  0  0  0  0
   -4.4645    0.1638    0.3263 H   0  0  0  0  0  0  0  0  0  0  0  0
    0.7415   -0.4550   -1.7190 H   0  0  0  0  0  0  0  0  0  0  0  0
    4.2098    1.7884   -0.5610 H   0  0  0  0  0  0  0  0  0  0  0  0
    3.3653    0.4055   -1.2827 H   0  0  0  0  0  0  0  0  0  0  0  0
    2.4873    2.0076   -1.1174 H   0  0  0  0  0  0  0  0  0  0  0  0
    3.0976    1.4876    1.4523 H   0  0  0  0  0  0  0  0  0  0  0  0
    3.4512   -0.9555    0.6523 H   0  0  0  0  0  0  0  0  0  0  0  0
    2.3020   -0.6468    1.9575 H   0  0  0  0  0  0  0  0  0  0  0  0
    1.3768   -2.1364    0.3300 H   0  0  0  0  0  0  0  0  0  0  0  0
  1  2  1  0
  2  3  1  0
  3  4  1  0
  4  5  1  0
  1  6  1  0
  5  6  1  0
  3  7  1  0
  4  8  1  0
 10 11  1  0
 11 12  1  0
  1 13  1  0
  9 13  1  0
 12 13  1  0
  1 14  1  0
  2 15  1  0
  2 16  1  0
  3 17  1  0
  4 18  1  0
  5 19  1  0
  5 20  1  0
  6 21  1  0
  6 22  1  0
  7 23  1  0
  8 24  1  0
  9 25  1  0
 10 26  1  0
 10 27  1  0
 10 28  1  0
 11 29  1  0
 12 30  1  0
 12 31  1  0
 13 32  1  6
M  END
>  <PDBID>  (1) 
4LDO

>  <PDB ID>  (1) 
4LDO

>  <Generic Name>  (1) 
Epinephrine

>  <Brand Name>  (1) 
2% Lidocaine and Epinephrine 1:100,000 Injection USP#4% Astracaine Dental With Epinephrine 1:200,000 (0.005mg/ml)#4% Astracaine Dental With Epinephrine Forte 1:100,000 (0.01mg/ml)#4% Citanest Forte Dental With Epinephrine 1:200,000#Adrenaclick#Adrenaclick 0.15mg Auto-injector#Adrenaclick 0.30mg Auto-injector#Adrenalin#Adrenalin Chloride Sol 1:1000#Adrenalin Chloride Sol 1:1000 Amp#Adyphren Amp II Kit#Adyphren Amp Kit#Adyphren II Kit#Allerject#Ana-kit#Ana-kit (2mg/tab Orl, 1mg/ml Liq Sc Im)#Anakit Insect Sting Treatment Kit#Anapen#Anapen Junior#Articadent#Articaine#Articaine HCl and Epinephrine#Articaine Hydrochloride and Epinephrine#Auvi-Q#Bronkaid Mistometer Aem 0.5%#Bupivacaine HCl 0.5% and Epinephrine 1:200,000 Injection#Bupivacaine Hydrochloride and Epinephrine#Citanest Forte#Dentsply 2% Lidocaine With Epinephrine 1:100,000#Dentsply 2% Lidocaine With Epinephrine 1:50,000#Dentsply 4% Prilocaine and Epinephrine Injection 1:200,000#Dysne Inhal#E-pilo 1 Ophthalmic Solution#E-pilo 2 Ophthalmic Solution#E-pilo 4 Ophthalmic Solution#E-pilo 6 Ophthalmic Solution#E-pilo-1 Oph Soln#E-pilo-2 Oph Soln#E-pilo-4 Oph Soln#E-pilo-6 Oph Soln#Ephinephrine#Epi E-Z Pen  -  Liquid - 0.3mg/0.3ml#Epinephrine#Epinephrine 1:1000 Inj 1mg/ml USP#Epinephrine Inj 0.1mg/ml USP#Epinephrine Inj 1mg/ml USP#Epinephrine Injection#Epinephrine Injection USP#Epinephrine Injection USP 1 mg/ml#Epipen#Epipen Jr#Episnap Epinephrine Convenience Kit#Gingi Pak Cord No 1#Karticaine#Karticaine Forte#Lidocaine#Lidocaine 2% and Epinephrine 1:100 000#Lidocaine 2% and Epinephrine 1:100,000#Lidocaine 2% and Epinephrine 1:100,000 Injection#Lidocaine 2% and Epinephrine 1:50 000#Lidocaine 2% and Epinephrine 1:50,000#Lidocaine HCl#Lidocaine Hydrochloride 0.5% and Epinephrine 1:200000 Injection USP#Lidocaine Hydrochloride 1% and Epinephrine 1:100 000 Injection USP#Lidocaine Hydrochloride 1.5% and Epinephrine 1:200000 Injection USP#Lidocaine Hydrochloride 1.5% and Epinephrine 1:200000 Injection USP Test Dose#Lidocaine Hydrochloride 2% and Epinephrine 1:100 000 Injection USP#Lidocaine Hydrochloride 2% and Epinephrine 1:200000 Injection USP#Lidocaine Hydrochloride and Epinephrine#Lidocaine Hydrochloride and Epinephrine Bitartrate#Lidocaine and Epinephrine Inj.usp 2% 1:100000#Lignospan Forte#Lignospan Speciale Inj#Lignospan Standard#Marcaine#Marcaine 0.5% and Epinephrine 1:200,000 Liq#Marcaine E 0.25% Liq Prt#Marcaine E 2.5 mg/ml#Marcaine E 5.0 mg/ml#Marcaine E Liq Prt 0.50%#Marcaine With Epinephrine#Numbing Hemorrhoidal Label#Numquick Analgesic#Numquick Topical Analgesic#Octocaine 100#Octocaine 100 Needleject Inj#Octocaine 50#Octocaine HCl 2% Epinephrine 1:100000#Octocaine HCl 2% Epinephrine 1:50000#Orabloc#Orabloc 1:100,000#Orabloc 1:200,000#Posicaine N#Posicaine Sp#Prilocaine HCl 4% Epineph 1:200000inj#Prilocaine Hydrochloride With Epinephrine#Prime Asthma Relief#Scandonest 2% Special Inj#Sensorcaine#Sensorcaine 0.25% With Epinephrine#Sensorcaine 0.5% With Epinephrine#Sensorcaine Forte#Sensorcaine Mpf#Septanest N#Septanest Sp#Septocaine and Epinephrine#Taro-epinephrine Auto-injector#Twinject 0.15mg Auto-injector#Twinject 0.3mg Auto-injector#Ultracaine D-S Forte Injection#Ultracaine D-S Injection#Ultracaine DS Forte Inj#Ultracaine DS Inj#Vivacaine#Xylocaine#Xylocaine 0.5% W Epinephrine 1:100000#Xylocaine 0.5% W Epinephrine 1:200000#Xylocaine 1% W Epinephrine 1:100000#Xylocaine 1% W Epinephrine 1:200000#Xylocaine 1.5% W Epinephrine 1:200000#Xylocaine 1.5% W Epinephrine 1:200000 Test Dose#Xylocaine 2% W Epinephrine 1:100000#Xylocaine 2% W Epinephrine 1:200000#Xylocaine Dental Lidocaine HCl 2% and Epinephrine 1:100,000#Xylocaine Dental Lidocaine Hydrochloride 2% and Epinephrine 1:50,000#Xylocaine Mpf#Xylocaine Mpf 1.5% With Epinephrine#Zorcaine#Epi EZ Pen JR#Medihaler-Epi#Twinject

>  <DrugBank ID>  (1) 
DB00668

>  <ATC Codes>  (1) 
R03AK01#R01AA14#S01EA51#C01CA24#R03AA01#S01EA01#A01AD01#B02BC09

>  <Ligand ID>  (1) 
ALE

>  <Target Name>  (1) 
Beta-1 adrenergic receptor

>  <UniProt ID>  (1) 
P08588

>  <PDB ID.1>  (1) 
4LDO

>  <Seq. Identity>  (1) 
54%

$$$$
