PDB_DB08954_08
     RDKit          3D

126130  0  0  0  0  0  0  0  0999 V2000
    7.0147    0.7317    0.1482 C   0  0  0  0  0  0  0  0  0  0  0  0
   -0.2662    0.2671   -0.2882 N   0  0  0  0  0  0  0  0  0  0  0  0
   -2.7433   -1.3306   -0.0570 O   0  0  0  0  0  0  0  0  0  0  0  0
   -6.1293    0.6027    1.5033 C   0  0  0  0  0  0  0  0  0  0  0  0
   -7.0800   -1.1692    0.1606 O   0  0  0  0  0  0  0  0  0  0  0  0
   -6.1780    0.7527   -0.9505 C   0  0  0  0  0  0  0  0  0  0  0  0
    4.5087   -0.7745   -0.4145 C   0  0  0  0  0  0  0  0  0  0  0  0
    5.8546   -1.3939   -0.0143 C   0  0  0  0  0  0  0  0  0  0  0  0
    6.5127   -0.4483    0.9611 C   0  0  0  0  0  0  0  0  0  0  0  0
    3.5162   -1.2855    0.5616 C   0  0  0  0  0  0  0  0  0  0  0  0
    2.1074   -0.8660    0.4156 C   0  0  0  0  0  0  0  0  0  0  0  0
    1.4618   -1.2364   -0.9026 C   0  0  0  0  0  0  0  0  0  0  0  0
    5.9459    1.2463   -0.7889 C   0  0  0  0  0  0  0  0  0  0  0  0
    4.5731    0.7115   -0.4205 C   0  0  0  0  0  0  0  0  0  0  0  0
   -0.0549   -1.0826   -0.6886 C   0  0  0  0  0  0  0  0  0  0  0  0
    0.2357    0.5381    1.0224 C   0  0  0  0  0  0  0  0  0  0  0  0
    1.7772    0.5409    0.8474 C   0  0  0  0  0  0  0  0  0  0  0  0
   -1.6183    0.7687   -0.5228 C   0  0  2  0  0  0  0  0  0  0  0  0
   -2.6277    0.0186    0.2559 C   0  0  1  0  0  0  0  0  0  0  0  0
   -3.9899    0.6357    0.3166 C   0  0  0  0  0  0  0  0  0  0  0  0
   -4.7963   -0.0646    1.4176 C   0  0  0  0  0  0  0  0  0  0  0  0
   -6.8846    0.1907    0.2317 C   0  0  0  0  0  0  0  0  0  0  0  0
   -4.6905    0.4637   -0.9996 C   0  0  0  0  0  0  0  0  0  0  0  0
   -1.7844    0.7298   -2.0293 C   0  0  0  0  0  0  0  0  0  0  0  0
    7.0147    0.7317    0.1482 C   0  0  0  0  0  0  0  0  0  0  0  0
   -0.2662    0.2671   -0.2882 N   0  0  0  0  0  0  0  0  0  0  0  0
   -2.7433   -1.3306   -0.0570 O   0  0  0  0  0  0  0  0  0  0  0  0
   -6.1293    0.6027    1.5033 C   0  0  0  0  0  0  0  0  0  0  0  0
   -7.0800   -1.1692    0.1606 O   0  0  0  0  0  0  0  0  0  0  0  0
   -6.1780    0.7527   -0.9505 C   0  0  0  0  0  0  0  0  0  0  0  0
    4.5087   -0.7745   -0.4145 C   0  0  0  0  0  0  0  0  0  0  0  0
    5.8546   -1.3939   -0.0143 C   0  0  0  0  0  0  0  0  0  0  0  0
    6.5127   -0.4483    0.9611 C   0  0  0  0  0  0  0  0  0  0  0  0
    3.5162   -1.2855    0.5616 C   0  0  0  0  0  0  0  0  0  0  0  0
    2.1074   -0.8660    0.4156 C   0  0  0  0  0  0  0  0  0  0  0  0
    1.4618   -1.2364   -0.9026 C   0  0  0  0  0  0  0  0  0  0  0  0
    5.9459    1.2463   -0.7889 C   0  0  0  0  0  0  0  0  0  0  0  0
    4.5731    0.7115   -0.4205 C   0  0  0  0  0  0  0  0  0  0  0  0
   -0.0549   -1.0826   -0.6886 C   0  0  0  0  0  0  0  0  0  0  0  0
    0.2357    0.5381    1.0224 C   0  0  0  0  0  0  0  0  0  0  0  0
    1.7772    0.5409    0.8474 C   0  0  0  0  0  0  0  0  0  0  0  0
   -1.6183    0.7687   -0.5228 C   0  0  2  0  0  0  0  0  0  0  0  0
   -2.6277    0.0186    0.2559 C   0  0  1  0  0  0  0  0  0  0  0  0
   -3.9899    0.6357    0.3166 C   0  0  0  0  0  0  0  0  0  0  0  0
   -4.7963   -0.0646    1.4176 C   0  0  0  0  0  0  0  0  0  0  0  0
   -6.8846    0.1907    0.2317 C   0  0  0  0  0  0  0  0  0  0  0  0
   -4.6905    0.4637   -0.9996 C   0  0  0  0  0  0  0  0  0  0  0  0
   -1.7844    0.7298   -2.0293 C   0  0  0  0  0  0  0  0  0  0  0  0
    7.8550    0.3687   -0.4787 H   0  0  0  0  0  0  0  0  0  0  0  0
    7.3969    1.4916    0.8320 H   0  0  0  0  0  0  0  0  0  0  0  0
   -2.7745   -1.5051   -1.0108 H   0  0  0  0  0  0  0  0  0  0  0  0
   -6.7356    0.2819    2.3656 H   0  0  0  0  0  0  0  0  0  0  0  0
   -6.0197    1.7170    1.4389 H   0  0  0  0  0  0  0  0  0  0  0  0
   -7.8562   -1.3802    0.7587 H   0  0  0  0  0  0  0  0  0  0  0  0
   -6.3747    1.8320   -1.0610 H   0  0  0  0  0  0  0  0  0  0  0  0
   -6.6188    0.2669   -1.8699 H   0  0  0  0  0  0  0  0  0  0  0  0
    4.3168   -1.1512   -1.4546 H   0  0  0  0  0  0  0  0  0  0  0  0
    5.6626   -2.3934    0.3802 H   0  0  0  0  0  0  0  0  0  0  0  0
    6.4707   -1.4667   -0.9191 H   0  0  0  0  0  0  0  0  0  0  0  0
    7.4076   -0.9250    1.4149 H   0  0  0  0  0  0  0  0  0  0  0  0
    5.8009   -0.0575    1.7075 H   0  0  0  0  0  0  0  0  0  0  0  0
    3.5523   -2.4109    0.6360 H   0  0  0  0  0  0  0  0  0  0  0  0
    3.8453   -0.9537    1.5889 H   0  0  0  0  0  0  0  0  0  0  0  0
    1.5296   -1.5134    1.1696 H   0  0  0  0  0  0  0  0  0  0  0  0
    1.6799   -2.2996   -1.0972 H   0  0  0  0  0  0  0  0  0  0  0  0
    1.7108   -0.5575   -1.7318 H   0  0  0  0  0  0  0  0  0  0  0  0
    5.9002    2.3472   -0.6551 H   0  0  0  0  0  0  0  0  0  0  0  0
    6.1776    1.0646   -1.8579 H   0  0  0  0  0  0  0  0  0  0  0  0
    4.2371    1.1690    0.5275 H   0  0  0  0  0  0  0  0  0  0  0  0
    3.9032    1.0820   -1.2238 H   0  0  0  0  0  0  0  0  0  0  0  0
   -0.3999   -1.8470    0.0317 H   0  0  0  0  0  0  0  0  0  0  0  0
   -0.4913   -1.2470   -1.7050 H   0  0  0  0  0  0  0  0  0  0  0  0
   -0.0663    1.5465    1.3741 H   0  0  0  0  0  0  0  0  0  0  0  0
    0.0113   -0.2638    1.7580 H   0  0  0  0  0  0  0  0  0  0  0  0
    1.9241    1.2955    0.0412 H   0  0  0  0  0  0  0  0  0  0  0  0
    2.2615    0.7729    1.7927 H   0  0  0  0  0  0  0  0  0  0  0  0
   -1.6051    1.8353   -0.2246 H   0  0  0  0  0  0  0  0  0  0  0  0
   -2.2123    0.0703    1.3452 H   0  0  0  0  0  0  0  0  0  0  0  0
   -3.9746    1.7094    0.5569 H   0  0  0  0  0  0  0  0  0  0  0  0
   -4.9533   -1.1177    1.0878 H   0  0  0  0  0  0  0  0  0  0  0  0
   -4.2040   -0.0286    2.3323 H   0  0  0  0  0  0  0  0  0  0  0  0
   -7.8737    0.6893    0.3092 H   0  0  0  0  0  0  0  0  0  0  0  0
   -4.2656    1.2694   -1.6705 H   0  0  0  0  0  0  0  0  0  0  0  0
   -4.5366   -0.5501   -1.3943 H   0  0  0  0  0  0  0  0  0  0  0  0
   -2.1224    1.7244   -2.4208 H   0  0  0  0  0  0  0  0  0  0  0  0
   -0.7605    0.6246   -2.5225 H   0  0  0  0  0  0  0  0  0  0  0  0
   -2.4628   -0.0365   -2.3933 H   0  0  0  0  0  0  0  0  0  0  0  0
    7.8550    0.3687   -0.4787 H   0  0  0  0  0  0  0  0  0  0  0  0
    7.3969    1.4916    0.8320 H   0  0  0  0  0  0  0  0  0  0  0  0
   -2.7745   -1.5051   -1.0108 H   0  0  0  0  0  0  0  0  0  0  0  0
   -6.7356    0.2819    2.3656 H   0  0  0  0  0  0  0  0  0  0  0  0
   -6.0197    1.7170    1.4389 H   0  0  0  0  0  0  0  0  0  0  0  0
   -7.8562   -1.3802    0.7587 H   0  0  0  0  0  0  0  0  0  0  0  0
   -6.3747    1.8320   -1.0610 H   0  0  0  0  0  0  0  0  0  0  0  0
   -6.6188    0.2669   -1.8699 H   0  0  0  0  0  0  0  0  0  0  0  0
    4.3168   -1.1512   -1.4546 H   0  0  0  0  0  0  0  0  0  0  0  0
    5.6626   -2.3934    0.3802 H   0  0  0  0  0  0  0  0  0  0  0  0
    6.4707   -1.4667   -0.9191 H   0  0  0  0  0  0  0  0  0  0  0  0
    7.4076   -0.9250    1.4149 H   0  0  0  0  0  0  0  0  0  0  0  0
    5.8009   -0.0575    1.7075 H   0  0  0  0  0  0  0  0  0  0  0  0
    3.5523   -2.4109    0.6360 H   0  0  0  0  0  0  0  0  0  0  0  0
    3.8453   -0.9537    1.5889 H   0  0  0  0  0  0  0  0  0  0  0  0
    1.5296   -1.5134    1.1696 H   0  0  0  0  0  0  0  0  0  0  0  0
    1.6799   -2.2996   -1.0972 H   0  0  0  0  0  0  0  0  0  0  0  0
    1.7108   -0.5575   -1.7318 H   0  0  0  0  0  0  0  0  0  0  0  0
    5.9002    2.3472   -0.6551 H   0  0  0  0  0  0  0  0  0  0  0  0
    6.1776    1.0646   -1.8579 H   0  0  0  0  0  0  0  0  0  0  0  0
    4.2371    1.1690    0.5275 H   0  0  0  0  0  0  0  0  0  0  0  0
    3.9032    1.0820   -1.2238 H   0  0  0  0  0  0  0  0  0  0  0  0
   -0.3999   -1.8470    0.0317 H   0  0  0  0  0  0  0  0  0  0  0  0
   -0.4913   -1.2470   -1.7050 H   0  0  0  0  0  0  0  0  0  0  0  0
   -0.0663    1.5465    1.3741 H   0  0  0  0  0  0  0  0  0  0  0  0
    0.0113   -0.2638    1.7580 H   0  0  0  0  0  0  0  0  0  0  0  0
    1.9241    1.2955    0.0412 H   0  0  0  0  0  0  0  0  0  0  0  0
    2.2615    0.7729    1.7927 H   0  0  0  0  0  0  0  0  0  0  0  0
   -1.6051    1.8353   -0.2246 H   0  0  0  0  0  0  0  0  0  0  0  0
   -2.2123    0.0703    1.3452 H   0  0  0  0  0  0  0  0  0  0  0  0
   -3.9746    1.7094    0.5569 H   0  0  0  0  0  0  0  0  0  0  0  0
   -4.9533   -1.1177    1.0878 H   0  0  0  0  0  0  0  0  0  0  0  0
   -4.2040   -0.0286    2.3323 H   0  0  0  0  0  0  0  0  0  0  0  0
   -7.8737    0.6893    0.3092 H   0  0  0  0  0  0  0  0  0  0  0  0
   -4.2656    1.2694   -1.6705 H   0  0  0  0  0  0  0  0  0  0  0  0
   -4.5366   -0.5501   -1.3943 H   0  0  0  0  0  0  0  0  0  0  0  0
   -2.1224    1.7244   -2.4208 H   0  0  0  0  0  0  0  0  0  0  0  0
   -0.7605    0.6246   -2.5225 H   0  0  0  0  0  0  0  0  0  0  0  0
   -2.4628   -0.0365   -2.3933 H   0  0  0  0  0  0  0  0  0  0  0  0
  7  8  1  0
  1  9  1  0
  8  9  1  0
  7 10  1  0
 10 11  1  0
 11 12  1  0
  1 13  1  0
  7 14  1  0
 13 14  1  0
  2 15  1  0
 12 15  1  0
  2 16  1  0
 11 17  1  0
 16 17  1  0
  2 18  1  0
  3 19  1  0
 18 19  1  0
 19 20  1  0
  4 21  1  0
 20 21  1  0
  4 22  1  0
  5 22  1  0
  6 22  1  0
  6 23  1  0
 20 23  1  0
 18 24  1  0
 31 32  1  0
 25 33  1  0
 32 33  1  0
 31 34  1  0
 34 35  1  0
 35 36  1  0
 25 37  1  0
 31 38  1  0
 37 38  1  0
 26 39  1  0
 36 39  1  0
 26 40  1  0
 35 41  1  0
 40 41  1  0
 26 42  1  0
 27 43  1  0
 42 43  1  0
 43 44  1  0
 28 45  1  0
 44 45  1  0
 28 46  1  0
 29 46  1  0
 30 46  1  0
 30 47  1  0
 44 47  1  0
 42 48  1  0
  1 49  1  0
  1 50  1  0
  3 51  1  0
  4 52  1  0
  4 53  1  0
  5 54  1  0
  6 55  1  0
  6 56  1  0
  7 57  1  0
  8 58  1  0
  8 59  1  0
  9 60  1  0
  9 61  1  0
 10 62  1  0
 10 63  1  0
 11 64  1  0
 12 65  1  0
 12 66  1  0
 13 67  1  0
 13 68  1  0
 14 69  1  0
 14 70  1  0
 15 71  1  0
 15 72  1  0
 16 73  1  0
 16 74  1  0
 17 75  1  0
 17 76  1  0
 18 77  1  1
 19 78  1  1
 20 79  1  0
 21 80  1  0
 21 81  1  0
 22 82  1  0
 23 83  1  0
 23 84  1  0
 24 85  1  0
 24 86  1  0
 24 87  1  0
 25 88  1  0
 25 89  1  0
 27 90  1  0
 28 91  1  0
 28 92  1  0
 29 93  1  0
 30 94  1  0
 30 95  1  0
 31 96  1  0
 32 97  1  0
 32 98  1  0
 33 99  1  0
 33100  1  0
 34101  1  0
 34102  1  0
 35103  1  0
 36104  1  0
 36105  1  0
 37106  1  0
 37107  1  0
 38108  1  0
 38109  1  0
 39110  1  0
 39111  1  0
 40112  1  0
 40113  1  0
 41114  1  0
 41115  1  0
 42116  1  1
 43117  1  1
 44118  1  0
 45119  1  0
 45120  1  0
 46121  1  0
 47122  1  0
 47123  1  0
 48124  1  0
 48125  1  0
 48126  1  0
M  END
>  <PDBID>  (1) 
4PE5

>  <PDB ID>  (1) 
4PE5

>  <Generic Name>  (1) 
Ifenprodil

>  <Brand Name>  (1) 
Cerocral#Furezanil#Iburonol#Linbulane#Technis#Vadilex#Vasculodil#Youajyl

>  <DrugBank ID>  (1) 
DB08954

>  <ATC Codes>  (1) 
C04AX28

>  <Ligand ID>  (1) 
QEL

>  <Target Name>  (1) 
Glutamate receptor ionotropic, NMDA 1

>  <UniProt ID>  (1) 
Q05586

>  <PDB ID.1>  (1) 
4PE5

>  <Seq. Identity>  (1) 
98%

$$$$
