PDB_DB08915_04
     RDKit          3D

 74 77  0  0  0  0  0  0  0  0999 V2000
   -4.4512   -3.1571    0.1657 C   0  0  0  0  0  0  0  0  0  0  0  0
   -3.3352   -2.1994    0.4049 C   0  0  0  0  0  0  0  0  0  0  0  0
   -3.6951   -0.9977    0.9516 O   0  0  0  0  0  0  0  0  0  0  0  0
   -3.9812   -0.1138   -0.0805 C   0  0  0  0  0  0  0  0  0  0  0  0
   -5.5027    0.0258   -0.1059 C   0  0  0  0  0  0  0  0  0  0  0  0
   -5.9821    0.9538   -1.1706 C   0  0  0  0  0  0  0  0  0  0  0  0
   -6.0544    2.3905   -0.7688 C   0  0  0  0  0  0  0  0  0  0  0  0
   -6.6194    2.6115    0.6073 C   0  0  0  0  0  0  0  0  0  0  0  0
   -5.9124    1.7761    1.6528 C   0  0  0  0  0  0  0  0  0  0  0  0
   -5.9970    0.3270    1.2693 C   0  0  0  0  0  0  0  0  0  0  0  0
   -3.5612   -0.7146   -1.3039 N   0  0  0  0  0  0  0  0  0  0  0  0
   -2.6621   -1.7478   -0.9015 C   0  0  0  0  0  0  0  0  0  0  0  0
   -1.3455   -1.1235   -0.4484 C   0  0  0  0  0  0  0  0  0  0  0  0
   -0.5256   -0.6195   -1.5750 C   0  0  0  0  0  0  0  0  0  0  0  0
    0.6578   -0.0767   -1.1174 O   0  0  0  0  0  0  0  0  0  0  0  0
    1.4184   -1.0282   -0.5058 C   0  0  0  0  0  0  0  0  0  0  0  0
    2.6428   -1.2541   -1.4242 C   0  0  0  0  0  0  0  0  0  0  0  0
    3.4061    0.0305   -1.6454 C   0  0  0  0  0  0  0  0  0  0  0  0
    1.9380   -0.7173    0.8472 C   0  0  0  0  0  0  0  0  0  0  0  0
    1.2142    0.3318    1.6187 C   0  0  0  0  0  0  0  0  0  0  0  0
    1.8967    0.2779    2.9976 C   0  0  0  0  0  0  0  0  0  0  0  0
    3.4030   -0.2978    0.7625 C   0  0  0  0  0  0  0  0  0  0  0  0
    3.6380    0.4175    2.4291 S   0  0  0  0  0  0  0  0  0  0  0  0
    3.5631    0.7233   -0.3093 C   0  0  0  0  0  0  0  0  0  0  0  0
    4.8016    1.5307   -0.1722 C   0  0  0  0  0  0  0  0  0  0  0  0
    6.0917    0.8119   -0.3233 C   0  0  2  0  0  0  0  0  0  0  0  0
    6.3273   -0.2061    0.5671 O   0  0  0  0  0  0  0  0  0  0  0  0
    6.7369   -1.3791   -0.0716 C   0  0  0  0  0  0  0  0  0  0  0  0
    7.1943    1.8586   -0.0473 C   0  0  0  0  0  0  0  0  0  0  0  0
    7.1025    2.3034    1.2695 O   0  0  0  0  0  0  0  0  0  0  0  0
    8.4440    1.2449   -0.2521 O   0  0  0  0  0  0  0  0  0  0  0  0
   -4.7978   -3.0844   -0.8851 H   0  0  0  0  0  0  0  0  0  0  0  0
   -4.0948   -4.2036    0.3912 H   0  0  0  0  0  0  0  0  0  0  0  0
   -5.2633   -2.9498    0.8888 H   0  0  0  0  0  0  0  0  0  0  0  0
   -2.5253   -2.6405    1.0482 H   0  0  0  0  0  0  0  0  0  0  0  0
   -3.4957    0.8524    0.0861 H   0  0  0  0  0  0  0  0  0  0  0  0
   -5.8796   -1.0037   -0.3706 H   0  0  0  0  0  0  0  0  0  0  0  0
   -6.9717    0.5735   -1.5544 H   0  0  0  0  0  0  0  0  0  0  0  0
   -5.2788    0.8805   -2.0337 H   0  0  0  0  0  0  0  0  0  0  0  0
   -5.0717    2.8822   -0.9152 H   0  0  0  0  0  0  0  0  0  0  0  0
   -6.7636    2.8945   -1.4842 H   0  0  0  0  0  0  0  0  0  0  0  0
   -7.6889    2.3896    0.6200 H   0  0  0  0  0  0  0  0  0  0  0  0
   -6.4479    3.6872    0.8656 H   0  0  0  0  0  0  0  0  0  0  0  0
   -4.8410    2.0670    1.7045 H   0  0  0  0  0  0  0  0  0  0  0  0
   -6.4221    1.9233    2.6087 H   0  0  0  0  0  0  0  0  0  0  0  0
   -7.0139   -0.0866    1.3965 H   0  0  0  0  0  0  0  0  0  0  0  0
   -5.3529   -0.2559    1.9841 H   0  0  0  0  0  0  0  0  0  0  0  0
   -3.0796   -0.0556   -1.9452 H   0  0  0  0  0  0  0  0  0  0  0  0
   -2.5302   -2.5685   -1.6049 H   0  0  0  0  0  0  0  0  0  0  0  0
   -1.6326   -0.2541    0.1934 H   0  0  0  0  0  0  0  0  0  0  0  0
   -0.8891   -1.8505    0.2243 H   0  0  0  0  0  0  0  0  0  0  0  0
   -1.0860    0.1711   -2.1583 H   0  0  0  0  0  0  0  0  0  0  0  0
   -0.2304   -1.4458   -2.2918 H   0  0  0  0  0  0  0  0  0  0  0  0
    0.9350   -2.0323   -0.4853 H   0  0  0  0  0  0  0  0  0  0  0  0
    2.2059   -1.6123   -2.3926 H   0  0  0  0  0  0  0  0  0  0  0  0
    3.2702   -2.0826   -1.0537 H   0  0  0  0  0  0  0  0  0  0  0  0
    2.8222    0.6327   -2.3731 H   0  0  0  0  0  0  0  0  0  0  0  0
    4.3568   -0.2253   -2.1121 H   0  0  0  0  0  0  0  0  0  0  0  0
    1.9350   -1.6420    1.4952 H   0  0  0  0  0  0  0  0  0  0  0  0
    1.3339    1.3621    1.2523 H   0  0  0  0  0  0  0  0  0  0  0  0
    0.1654    0.0265    1.7207 H   0  0  0  0  0  0  0  0  0  0  0  0
    1.6071    1.1059    3.6371 H   0  0  0  0  0  0  0  0  0  0  0  0
    1.7397   -0.7216    3.4094 H   0  0  0  0  0  0  0  0  0  0  0  0
    3.9687   -1.2198    0.6449 H   0  0  0  0  0  0  0  0  0  0  0  0
    2.6984    1.4306   -0.2524 H   0  0  0  0  0  0  0  0  0  0  0  0
    4.7911    1.9709    0.8556 H   0  0  0  0  0  0  0  0  0  0  0  0
    4.7960    2.3987   -0.8686 H   0  0  0  0  0  0  0  0  0  0  0  0
    6.2779    0.4026   -1.3516 H   0  0  0  0  0  0  0  0  0  0  0  0
    5.9032   -1.6624   -0.7641 H   0  0  0  0  0  0  0  0  0  0  0  0
    7.7020   -1.2624   -0.5992 H   0  0  0  0  0  0  0  0  0  0  0  0
    6.7668   -2.1689    0.7074 H   0  0  0  0  0  0  0  0  0  0  0  0
    7.0876    2.7026   -0.7551 H   0  0  0  0  0  0  0  0  0  0  0  0
    7.6592    1.7625    1.8842 H   0  0  0  0  0  0  0  0  0  0  0  0
    8.4835    0.9303   -1.1914 H   0  0  0  0  0  0  0  0  0  0  0  0
  1  2  1  0
  2  3  1  0
  3  4  1  0
  4  5  1  0
  5  6  1  0
  6  7  1  0
  7  8  1  0
  8  9  1  0
  5 10  1  0
  9 10  1  0
  4 11  1  0
  2 12  1  0
 11 12  1  0
 12 13  1  0
 13 14  1  0
 14 15  1  0
 15 16  1  0
 16 17  1  0
 17 18  1  0
 16 19  1  0
 19 20  1  0
 20 21  1  0
 19 22  1  0
 21 23  1  0
 22 23  1  0
 18 24  1  0
 22 24  1  0
 24 25  1  0
 25 26  1  0
 26 27  1  0
 27 28  1  0
 26 29  1  0
 29 30  1  0
 29 31  1  0
  1 32  1  0
  1 33  1  0
  1 34  1  0
  2 35  1  0
  4 36  1  0
  5 37  1  0
  6 38  1  0
  6 39  1  0
  7 40  1  0
  7 41  1  0
  8 42  1  0
  8 43  1  0
  9 44  1  0
  9 45  1  0
 10 46  1  0
 10 47  1  0
 11 48  1  0
 12 49  1  0
 13 50  1  0
 13 51  1  0
 14 52  1  0
 14 53  1  0
 16 54  1  0
 17 55  1  0
 17 56  1  0
 18 57  1  0
 18 58  1  0
 19 59  1  0
 20 60  1  0
 20 61  1  0
 21 62  1  0
 21 63  1  0
 22 64  1  0
 24 65  1  0
 25 66  1  0
 25 67  1  0
 26 68  1  6
 28 69  1  0
 28 70  1  0
 28 71  1  0
 29 72  1  0
 30 73  1  0
 31 74  1  0
M  END
>  <PDBID>  (1) 
3G8I

>  <PDB ID>  (1) 
3G8I

>  <Generic Name>  (1) 
Aleglitazar

>  <Brand Name>  (1) 
nan

>  <DrugBank ID>  (1) 
DB08915

>  <ATC Codes>  (1) 
nan

>  <Ligand ID>  (1) 
RO7

>  <Target Name>  (1) 
Peroxisome proliferator-activated receptor alpha

>  <UniProt ID>  (1) 
Q07869

>  <PDB ID.1>  (1) 
3G8I

>  <Seq. Identity>  (1) 
100%

$$$$
