PDB_DB00480_06
     RDKit          3D

 88 92  0  0  0  0  0  0  0  0999 V2000
    1.5082   -0.3054   -0.0598 C   0  0  1  0  0  0  0  0  0  0  0  0
    2.6474   -0.4993   -1.0530 C   0  0  0  0  0  0  0  0  0  0  0  0
    3.9216   -0.4238   -0.2406 C   0  0  0  0  0  0  0  0  0  0  0  0
    3.9617    0.9180    0.4305 C   0  0  0  0  0  0  0  0  0  0  0  0
    2.8121    1.2016    1.2421 N   0  0  0  0  0  0  0  0  0  0  0  0
    1.5532    1.0520    0.5531 C   0  0  0  0  0  0  0  0  0  0  0  0
   -1.7371   -1.6138    0.0249 C   0  0  0  0  0  0  0  0  0  0  0  0
   -1.9710   -0.4929   -0.9778 C   0  0  0  0  0  0  0  0  0  0  0  0
   -0.7152    0.3158   -0.7970 C   0  0  0  0  0  0  0  0  0  0  0  0
    0.3016   -0.6706   -0.7069 N   0  0  0  0  0  0  0  0  0  0  0  0
   -0.2724   -1.9156   -0.2738 C   0  0  0  0  0  0  0  0  0  0  0  0
   -3.0412   -0.2887    1.7186 C   0  0  0  0  0  0  0  0  0  0  0  0
   -3.2963    0.8050    0.7157 C   0  0  0  0  0  0  0  0  0  0  0  0
   -3.2277    0.2639   -0.6823 C   0  0  0  0  0  0  0  0  0  0  0  0
   -1.7866   -1.0577    1.4185 C   0  0  0  0  0  0  0  0  0  0  0  0
    0.3528   -2.4029    0.8802 O   0  0  0  0  0  0  0  0  0  0  0  0
   -3.3922    1.3055   -1.6606 N   0  0  0  0  0  0  0  0  0  0  0  0
    1.2850    2.0859   -0.3214 O   0  0  0  0  0  0  0  0  0  0  0  0
    4.1825    1.8987   -0.5193 O   0  0  0  0  0  0  0  0  0  0  0  0
    1.5082   -0.3054   -0.0598 C   0  0  1  0  0  0  0  0  0  0  0  0
    2.6474   -0.4993   -1.0530 C   0  0  0  0  0  0  0  0  0  0  0  0
    3.9216   -0.4238   -0.2406 C   0  0  0  0  0  0  0  0  0  0  0  0
    3.9617    0.9180    0.4305 C   0  0  0  0  0  0  0  0  0  0  0  0
    2.8121    1.2016    1.2421 N   0  0  0  0  0  0  0  0  0  0  0  0
    1.5532    1.0520    0.5531 C   0  0  0  0  0  0  0  0  0  0  0  0
   -1.7371   -1.6138    0.0249 C   0  0  0  0  0  0  0  0  0  0  0  0
   -1.9710   -0.4929   -0.9778 C   0  0  0  0  0  0  0  0  0  0  0  0
   -0.7152    0.3158   -0.7970 C   0  0  0  0  0  0  0  0  0  0  0  0
    0.3016   -0.6706   -0.7069 N   0  0  0  0  0  0  0  0  0  0  0  0
   -0.2724   -1.9156   -0.2738 C   0  0  0  0  0  0  0  0  0  0  0  0
   -3.0412   -0.2887    1.7186 C   0  0  0  0  0  0  0  0  0  0  0  0
   -3.2963    0.8050    0.7157 C   0  0  0  0  0  0  0  0  0  0  0  0
   -3.2277    0.2639   -0.6823 C   0  0  0  0  0  0  0  0  0  0  0  0
   -1.7866   -1.0577    1.4185 C   0  0  0  0  0  0  0  0  0  0  0  0
    0.3528   -2.4029    0.8802 O   0  0  0  0  0  0  0  0  0  0  0  0
   -3.3922    1.3055   -1.6606 N   0  0  0  0  0  0  0  0  0  0  0  0
    1.2850    2.0859   -0.3214 O   0  0  0  0  0  0  0  0  0  0  0  0
    4.1825    1.8987   -0.5193 O   0  0  0  0  0  0  0  0  0  0  0  0
    1.7061   -1.0396    0.7609 H   0  0  0  0  0  0  0  0  0  0  0  0
    2.6827    0.3098   -1.8029 H   0  0  0  0  0  0  0  0  0  0  0  0
    2.4954   -1.5037   -1.5098 H   0  0  0  0  0  0  0  0  0  0  0  0
    4.7587   -0.4492   -0.9774 H   0  0  0  0  0  0  0  0  0  0  0  0
    3.9640   -1.2753    0.4658 H   0  0  0  0  0  0  0  0  0  0  0  0
    4.8408    0.9033    1.1232 H   0  0  0  0  0  0  0  0  0  0  0  0
    2.9188    2.1975    1.5698 H   0  0  0  0  0  0  0  0  0  0  0  0
    0.7692    1.0910    1.3514 H   0  0  0  0  0  0  0  0  0  0  0  0
   -2.3899   -2.4806   -0.1421 H   0  0  0  0  0  0  0  0  0  0  0  0
   -2.0372   -0.9021   -1.9934 H   0  0  0  0  0  0  0  0  0  0  0  0
   -0.7763    1.0274    0.0334 H   0  0  0  0  0  0  0  0  0  0  0  0
   -0.5639    0.8796   -1.7524 H   0  0  0  0  0  0  0  0  0  0  0  0
   -0.2056   -2.6577   -1.1041 H   0  0  0  0  0  0  0  0  0  0  0  0
   -2.8723    0.2213    2.7011 H   0  0  0  0  0  0  0  0  0  0  0  0
   -3.9313   -0.9519    1.7749 H   0  0  0  0  0  0  0  0  0  0  0  0
   -4.3162    1.2029    0.8726 H   0  0  0  0  0  0  0  0  0  0  0  0
   -2.5888    1.6387    0.8319 H   0  0  0  0  0  0  0  0  0  0  0  0
   -4.0714   -0.4491   -0.8057 H   0  0  0  0  0  0  0  0  0  0  0  0
   -0.9327   -0.3567    1.5237 H   0  0  0  0  0  0  0  0  0  0  0  0
   -1.6665   -1.8460    2.1724 H   0  0  0  0  0  0  0  0  0  0  0  0
    0.6253   -3.3275    0.7030 H   0  0  0  0  0  0  0  0  0  0  0  0
   -3.9714    2.0586   -1.2019 H   0  0  0  0  0  0  0  0  0  0  0  0
   -3.9557    0.9912   -2.4862 H   0  0  0  0  0  0  0  0  0  0  0  0
    1.6297    1.9597   -1.2292 H   0  0  0  0  0  0  0  0  0  0  0  0
    4.8022    2.5831   -0.1355 H   0  0  0  0  0  0  0  0  0  0  0  0
    1.7061   -1.0396    0.7609 H   0  0  0  0  0  0  0  0  0  0  0  0
    2.6827    0.3098   -1.8029 H   0  0  0  0  0  0  0  0  0  0  0  0
    2.4954   -1.5037   -1.5098 H   0  0  0  0  0  0  0  0  0  0  0  0
    4.7587   -0.4492   -0.9774 H   0  0  0  0  0  0  0  0  0  0  0  0
    3.9640   -1.2753    0.4658 H   0  0  0  0  0  0  0  0  0  0  0  0
    4.8408    0.9033    1.1232 H   0  0  0  0  0  0  0  0  0  0  0  0
    2.9188    2.1975    1.5698 H   0  0  0  0  0  0  0  0  0  0  0  0
    0.7692    1.0910    1.3514 H   0  0  0  0  0  0  0  0  0  0  0  0
   -2.3899   -2.4806   -0.1421 H   0  0  0  0  0  0  0  0  0  0  0  0
   -2.0372   -0.9021   -1.9934 H   0  0  0  0  0  0  0  0  0  0  0  0
   -0.7763    1.0274    0.0334 H   0  0  0  0  0  0  0  0  0  0  0  0
   -0.5639    0.8796   -1.7524 H   0  0  0  0  0  0  0  0  0  0  0  0
   -0.2056   -2.6577   -1.1041 H   0  0  0  0  0  0  0  0  0  0  0  0
   -2.8723    0.2213    2.7011 H   0  0  0  0  0  0  0  0  0  0  0  0
   -3.9313   -0.9519    1.7749 H   0  0  0  0  0  0  0  0  0  0  0  0
   -4.3162    1.2029    0.8726 H   0  0  0  0  0  0  0  0  0  0  0  0
   -2.5888    1.6387    0.8319 H   0  0  0  0  0  0  0  0  0  0  0  0
   -4.0714   -0.4491   -0.8057 H   0  0  0  0  0  0  0  0  0  0  0  0
   -0.9327   -0.3567    1.5237 H   0  0  0  0  0  0  0  0  0  0  0  0
   -1.6665   -1.8460    2.1724 H   0  0  0  0  0  0  0  0  0  0  0  0
    0.6253   -3.3275    0.7030 H   0  0  0  0  0  0  0  0  0  0  0  0
   -3.9714    2.0586   -1.2019 H   0  0  0  0  0  0  0  0  0  0  0  0
   -3.9557    0.9912   -2.4862 H   0  0  0  0  0  0  0  0  0  0  0  0
    1.6297    1.9597   -1.2292 H   0  0  0  0  0  0  0  0  0  0  0  0
    4.8022    2.5831   -0.1355 H   0  0  0  0  0  0  0  0  0  0  0  0
  1  2  1  0
  2  3  1  0
  3  4  1  0
  4  5  1  0
  1  6  1  0
  5  6  1  0
  7  8  1  0
  8  9  1  0
  1 10  1  0
  9 10  1  0
  7 11  1  0
 10 11  1  0
 12 13  1  0
  8 14  1  0
 13 14  1  0
  7 15  1  0
 12 15  1  0
 11 16  1  0
 14 17  1  0
  6 18  1  0
  4 19  1  0
 20 21  1  0
 21 22  1  0
 22 23  1  0
 23 24  1  0
 20 25  1  0
 24 25  1  0
 26 27  1  0
 27 28  1  0
 20 29  1  0
 28 29  1  0
 26 30  1  0
 29 30  1  0
 31 32  1  0
 27 33  1  0
 32 33  1  0
 26 34  1  0
 31 34  1  0
 30 35  1  0
 33 36  1  0
 25 37  1  0
 23 38  1  0
  1 39  1  1
  2 40  1  0
  2 41  1  0
  3 42  1  0
  3 43  1  0
  4 44  1  0
  5 45  1  0
  6 46  1  0
  7 47  1  0
  8 48  1  0
  9 49  1  0
  9 50  1  0
 11 51  1  0
 12 52  1  0
 12 53  1  0
 13 54  1  0
 13 55  1  0
 14 56  1  0
 15 57  1  0
 15 58  1  0
 16 59  1  0
 17 60  1  0
 17 61  1  0
 18 62  1  0
 19 63  1  0
 20 64  1  1
 21 65  1  0
 21 66  1  0
 22 67  1  0
 22 68  1  0
 23 69  1  0
 24 70  1  0
 25 71  1  0
 26 72  1  0
 27 73  1  0
 28 74  1  0
 28 75  1  0
 30 76  1  0
 31 77  1  0
 31 78  1  0
 32 79  1  0
 32 80  1  0
 33 81  1  0
 34 82  1  0
 34 83  1  0
 35 84  1  0
 36 85  1  0
 36 86  1  0
 37 87  1  0
 38 88  1  0
M  END
>  <PDBID>  (1) 
5FQD

>  <PDB ID>  (1) 
5FQD

>  <Generic Name>  (1) 
Lenalidomide

>  <Brand Name>  (1) 
Revlimid#Ladevina#Lenangio

>  <DrugBank ID>  (1) 
DB00480

>  <ATC Codes>  (1) 
L04AX04

>  <Ligand ID>  (1) 
LVY

>  <Target Name>  (1) 
Protein cereblon

>  <UniProt ID>  (1) 
Q96SW2

>  <PDB ID.1>  (1) 
5FQD

>  <Seq. Identity>  (1) 
100%

$$$$
