PDB_DB00428_06
     RDKit          3D

 37 37  0  0  0  0  0  0  0  0999 V2000
   -0.3644   -0.8119   -1.3835 O   0  0  0  0  0  0  0  0  0  0  0  0
    0.1849   -0.5531   -0.1053 C   0  0  1  0  0  0  0  0  0  0  0  0
    1.6341   -1.0057   -0.2127 C   0  0  2  0  0  0  0  0  0  0  0  0
    1.5772   -2.4126   -0.3021 O   0  0  0  0  0  0  0  0  0  0  0  0
    2.4717   -0.6147    0.9530 C   0  0  1  0  0  0  0  0  0  0  0  0
    3.8805   -0.3464    0.4273 C   0  0  0  0  0  0  0  0  0  0  0  0
    4.7785   -0.1126    1.4711 O   0  0  0  0  0  0  0  0  0  0  0  0
    1.9839    0.4440    1.6820 O   0  0  0  0  0  0  0  0  0  0  0  0
    1.3422    1.4079    0.9389 C   0  0  1  0  0  0  0  0  0  0  0  0
    2.2153    2.1128    0.1140 O   0  0  0  0  0  0  0  0  0  0  0  0
    0.1276    0.8922    0.1898 C   0  0  2  0  0  0  0  0  0  0  0  0
   -1.0972    1.2659    0.8165 N   0  0  0  0  0  0  0  0  0  0  0  0
   -2.2367    1.0593    0.0063 C   0  0  0  0  0  0  0  0  0  0  0  0
   -3.2962    1.7661    0.6305 O   0  0  0  0  0  0  0  0  0  0  0  0
   -2.5989   -0.3497   -0.0484 N   0  0  0  0  0  0  0  0  0  0  0  0
   -3.0420   -0.8302    1.2489 C   0  0  0  0  0  0  0  0  0  0  0  0
   -3.5581   -0.5910   -1.0390 N   0  0  0  0  0  0  0  0  0  0  0  0
   -3.2849   -1.8006   -1.5773 O   0  0  0  0  0  0  0  0  0  0  0  0
    0.2485   -0.3340   -2.0095 H   0  0  0  0  0  0  0  0  0  0  0  0
   -0.3315   -1.1846    0.6198 H   0  0  0  0  0  0  0  0  0  0  0  0
    2.0247   -0.6469   -1.1828 H   0  0  0  0  0  0  0  0  0  0  0  0
    1.6810   -2.7427    0.6419 H   0  0  0  0  0  0  0  0  0  0  0  0
    2.5515   -1.4837    1.6380 H   0  0  0  0  0  0  0  0  0  0  0  0
    3.8872    0.5286   -0.2708 H   0  0  0  0  0  0  0  0  0  0  0  0
    4.2393   -1.2015   -0.1857 H   0  0  0  0  0  0  0  0  0  0  0  0
    5.2883    0.7084    1.2893 H   0  0  0  0  0  0  0  0  0  0  0  0
    0.9444    2.1624    1.6700 H   0  0  0  0  0  0  0  0  0  0  0  0
    1.8253    2.2070   -0.7902 H   0  0  0  0  0  0  0  0  0  0  0  0
    0.1843    1.4253   -0.8169 H   0  0  0  0  0  0  0  0  0  0  0  0
   -1.0639    2.2152    1.2571 H   0  0  0  0  0  0  0  0  0  0  0  0
   -2.1654    1.4346   -1.0225 H   0  0  0  0  0  0  0  0  0  0  0  0
   -3.0136    2.7011    0.7919 H   0  0  0  0  0  0  0  0  0  0  0  0
   -4.1239   -1.0039    1.1924 H   0  0  0  0  0  0  0  0  0  0  0  0
   -2.5545   -1.8183    1.4054 H   0  0  0  0  0  0  0  0  0  0  0  0
   -2.7763   -0.1730    2.0767 H   0  0  0  0  0  0  0  0  0  0  0  0
   -3.5153    0.1139   -1.8031 H   0  0  0  0  0  0  0  0  0  0  0  0
   -4.0475   -2.4276   -1.5024 H   0  0  0  0  0  0  0  0  0  0  0  0
  1  2  1  0
  2  3  1  0
  3  4  1  0
  3  5  1  0
  5  6  1  0
  6  7  1  0
  5  8  1  0
  8  9  1  0
  9 10  1  0
  2 11  1  0
  9 11  1  0
 11 12  1  0
 12 13  1  0
 13 14  1  0
 13 15  1  0
 15 16  1  0
 15 17  1  0
 17 18  1  0
  1 19  1  0
  2 20  1  1
  3 21  1  6
  4 22  1  0
  5 23  1  1
  6 24  1  0
  6 25  1  0
  7 26  1  0
  9 27  1  1
 10 28  1  0
 11 29  1  6
 12 30  1  0
 13 31  1  0
 14 32  1  0
 16 33  1  0
 16 34  1  0
 16 35  1  0
 17 36  1  0
 18 37  1  0
M  END
>  <PDBID>  (1) 
2W4X

>  <PDB ID>  (1) 
2W4X

>  <Generic Name>  (1) 
Streptozocin

>  <Brand Name>  (1) 
Zanosar#Zanosar Sterile Powder

>  <DrugBank ID>  (1) 
DB00428

>  <ATC Codes>  (1) 
L01AD04

>  <Ligand ID>  (1) 
STZ

>  <Target Name>  (1) 
O-GlcNAcase BT_4395

>  <UniProt ID>  (1) 
Q89ZI2

>  <PDB ID.1>  (1) 
2W4X

>  <Seq. Identity>  (1) 
100%

$$$$
