PDB_DB08882_02
     RDKit          3D

170178  0  0  0  0  0  0  0  0999 V2000
   -0.9891    0.7045   -0.1876 C   0  0  0  0  0  0  0  0  0  0  0  0
   -2.2345    0.7969    0.4224 N   0  0  0  0  0  0  0  0  0  0  0  0
   -1.3449    0.2779   -1.6273 C   0  0  0  0  0  0  0  0  0  0  0  0
   -0.0111    1.7717   -0.1955 C   0  0  0  0  0  0  0  0  0  0  0  0
   -2.8264   -0.4684   -0.0316 C   0  0  0  0  0  0  0  0  0  0  0  0
   -3.1441    1.8252    0.1359 C   0  0  0  0  0  0  0  0  0  0  0  0
   -2.4389   -0.5786   -1.4243 N   0  0  0  0  0  0  0  0  0  0  0  0
   -0.0994   -0.3242   -2.0895 N   0  0  0  0  0  0  0  0  0  0  0  0
    1.2428    1.2499   -0.8041 N   0  0  0  0  0  0  0  0  0  0  0  0
    0.3342    2.1547    1.0887 O   0  0  0  0  0  0  0  0  0  0  0  0
   -4.1779   -0.6140    0.2780 N   0  0  0  0  0  0  0  0  0  0  0  0
   -2.8446    3.2008    0.6182 C   0  0  0  0  0  0  0  0  0  0  0  0
    0.8697    0.7791   -2.0820 C   0  0  0  0  0  0  0  0  0  0  0  0
   -0.3305   -0.8230   -3.4013 C   0  0  0  0  0  0  0  0  0  0  0  0
    1.9418    0.4926    0.1192 C   0  0  0  0  0  0  0  0  0  0  0  0
   -4.3853   -0.8522    1.6755 C   0  0  0  0  0  0  0  0  0  0  0  0
   -4.9510   -1.4594   -0.5768 C   0  0  0  0  0  0  0  0  0  0  0  0
   -4.0000    4.1301    0.1890 C   0  0  0  0  0  0  0  0  0  0  0  0
    1.8527    0.6564   -3.0316 O   0  0  0  0  0  0  0  0  0  0  0  0
    3.3612    0.1443   -0.0412 C   0  0  0  0  0  0  0  0  0  0  0  0
   -5.4202   -1.9391    1.9212 C   0  0  1  0  0  0  0  0  0  0  0  0
   -6.4275   -1.3703   -0.2285 C   0  0  0  0  0  0  0  0  0  0  0  0
   -5.3089    3.6952    0.7597 C   0  0  0  0  0  0  0  0  0  0  0  0
    3.7995   -0.6099   -1.1502 N   0  0  0  0  0  0  0  0  0  0  0  0
    4.2546    1.2925    0.0476 N   0  0  0  0  0  0  0  0  0  0  0  0
   -6.7168   -1.6627    1.2115 C   0  0  0  0  0  0  0  0  0  0  0  0
   -4.9544   -3.2573    1.6067 N   0  0  0  0  0  0  0  0  0  0  0  0
    5.0703   -1.2908   -0.8087 C   0  0  0  0  0  0  0  0  0  0  0  0
    5.5863    0.9023    0.3569 C   0  0  0  0  0  0  0  0  0  0  0  0
    6.0916   -0.2843   -0.4299 C   0  0  0  0  0  0  0  0  0  0  0  0
    4.8568   -2.4485    0.0733 C   0  0  0  0  0  0  0  0  0  0  0  0
    5.7158    0.7581    1.8572 C   0  0  0  0  0  0  0  0  0  0  0  0
    7.3176   -0.8821    0.1453 C   0  0  0  0  0  0  0  0  0  0  0  0
    5.7939   -2.6014    1.2139 C   0  0  0  0  0  0  0  0  0  0  0  0
    7.1512   -2.0317    1.0503 C   0  0  0  0  0  0  0  0  0  0  0  0
   -0.9891    0.7045   -0.1876 C   0  0  0  0  0  0  0  0  0  0  0  0
   -2.2345    0.7969    0.4224 N   0  0  0  0  0  0  0  0  0  0  0  0
   -1.3449    0.2779   -1.6273 C   0  0  0  0  0  0  0  0  0  0  0  0
   -0.0111    1.7717   -0.1955 C   0  0  0  0  0  0  0  0  0  0  0  0
   -2.8264   -0.4684   -0.0316 C   0  0  0  0  0  0  0  0  0  0  0  0
   -3.1441    1.8252    0.1359 C   0  0  0  0  0  0  0  0  0  0  0  0
   -2.4389   -0.5786   -1.4243 N   0  0  0  0  0  0  0  0  0  0  0  0
   -0.0994   -0.3242   -2.0895 N   0  0  0  0  0  0  0  0  0  0  0  0
    1.2428    1.2499   -0.8041 N   0  0  0  0  0  0  0  0  0  0  0  0
    0.3342    2.1547    1.0887 O   0  0  0  0  0  0  0  0  0  0  0  0
   -4.1779   -0.6140    0.2780 N   0  0  0  0  0  0  0  0  0  0  0  0
   -2.8446    3.2008    0.6182 C   0  0  0  0  0  0  0  0  0  0  0  0
    0.8697    0.7791   -2.0820 C   0  0  0  0  0  0  0  0  0  0  0  0
   -0.3305   -0.8230   -3.4013 C   0  0  0  0  0  0  0  0  0  0  0  0
    1.9418    0.4926    0.1192 C   0  0  0  0  0  0  0  0  0  0  0  0
   -4.3853   -0.8522    1.6755 C   0  0  0  0  0  0  0  0  0  0  0  0
   -4.9510   -1.4594   -0.5768 C   0  0  0  0  0  0  0  0  0  0  0  0
   -4.0000    4.1301    0.1890 C   0  0  0  0  0  0  0  0  0  0  0  0
    1.8527    0.6564   -3.0316 O   0  0  0  0  0  0  0  0  0  0  0  0
    3.3612    0.1443   -0.0412 C   0  0  0  0  0  0  0  0  0  0  0  0
   -5.4202   -1.9391    1.9212 C   0  0  1  0  0  0  0  0  0  0  0  0
   -6.4275   -1.3703   -0.2285 C   0  0  0  0  0  0  0  0  0  0  0  0
   -5.3089    3.6952    0.7597 C   0  0  0  0  0  0  0  0  0  0  0  0
    3.7995   -0.6099   -1.1502 N   0  0  0  0  0  0  0  0  0  0  0  0
    4.2546    1.2925    0.0476 N   0  0  0  0  0  0  0  0  0  0  0  0
   -6.7168   -1.6627    1.2115 C   0  0  0  0  0  0  0  0  0  0  0  0
   -4.9544   -3.2573    1.6067 N   0  0  0  0  0  0  0  0  0  0  0  0
    5.0703   -1.2908   -0.8087 C   0  0  0  0  0  0  0  0  0  0  0  0
    5.5863    0.9023    0.3569 C   0  0  0  0  0  0  0  0  0  0  0  0
    6.0916   -0.2843   -0.4299 C   0  0  0  0  0  0  0  0  0  0  0  0
    4.8568   -2.4485    0.0733 C   0  0  0  0  0  0  0  0  0  0  0  0
    5.7158    0.7581    1.8572 C   0  0  0  0  0  0  0  0  0  0  0  0
    7.3176   -0.8821    0.1453 C   0  0  0  0  0  0  0  0  0  0  0  0
    5.7939   -2.6014    1.2139 C   0  0  0  0  0  0  0  0  0  0  0  0
    7.1512   -2.0317    1.0503 C   0  0  0  0  0  0  0  0  0  0  0  0
   -0.5091   -0.2341    0.2361 H   0  0  0  0  0  0  0  0  0  0  0  0
   -1.5236    1.1619   -2.2607 H   0  0  0  0  0  0  0  0  0  0  0  0
   -0.2359    2.6377   -0.8661 H   0  0  0  0  0  0  0  0  0  0  0  0
   -2.1695   -1.2452    0.4886 H   0  0  0  0  0  0  0  0  0  0  0  0
   -3.3892    1.9082   -0.9663 H   0  0  0  0  0  0  0  0  0  0  0  0
   -4.1428    1.5526    0.5650 H   0  0  0  0  0  0  0  0  0  0  0  0
   -2.3769   -1.5452   -1.7793 H   0  0  0  0  0  0  0  0  0  0  0  0
   -0.0924    1.5522    1.7315 H   0  0  0  0  0  0  0  0  0  0  0  0
   -2.8610    3.2684    1.7466 H   0  0  0  0  0  0  0  0  0  0  0  0
   -1.9074    3.6524    0.3190 H   0  0  0  0  0  0  0  0  0  0  0  0
    0.2262    1.6461   -2.5131 H   0  0  0  0  0  0  0  0  0  0  0  0
   -0.4328   -1.9487   -3.3081 H   0  0  0  0  0  0  0  0  0  0  0  0
   -1.3254   -0.5099   -3.7965 H   0  0  0  0  0  0  0  0  0  0  0  0
    0.4204   -0.6424   -4.1601 H   0  0  0  0  0  0  0  0  0  0  0  0
    1.4065   -0.5059    0.2944 H   0  0  0  0  0  0  0  0  0  0  0  0
    1.8451    0.9735    1.1487 H   0  0  0  0  0  0  0  0  0  0  0  0
   -4.6221    0.0398    2.2458 H   0  0  0  0  0  0  0  0  0  0  0  0
   -3.4378   -1.2627    2.1305 H   0  0  0  0  0  0  0  0  0  0  0  0
   -4.5958   -2.4864   -0.6727 H   0  0  0  0  0  0  0  0  0  0  0  0
   -4.8842   -1.0221   -1.6165 H   0  0  0  0  0  0  0  0  0  0  0  0
   -3.7718    5.1770    0.4194 H   0  0  0  0  0  0  0  0  0  0  0  0
   -4.0683    4.0484   -0.9300 H   0  0  0  0  0  0  0  0  0  0  0  0
    2.1354   -0.2277   -3.2844 H   0  0  0  0  0  0  0  0  0  0  0  0
    3.6506   -0.4627    0.8776 H   0  0  0  0  0  0  0  0  0  0  0  0
   -5.6481   -1.9113    3.0185 H   0  0  0  0  0  0  0  0  0  0  0  0
   -6.7165   -0.2988   -0.3951 H   0  0  0  0  0  0  0  0  0  0  0  0
   -6.9904   -2.0117   -0.9360 H   0  0  0  0  0  0  0  0  0  0  0  0
   -5.9878    3.2718   -0.0368 H   0  0  0  0  0  0  0  0  0  0  0  0
   -5.8670    4.6095    1.1161 H   0  0  0  0  0  0  0  0  0  0  0  0
   -5.2542    2.9437    1.5501 H   0  0  0  0  0  0  0  0  0  0  0  0
    4.1545    0.0830   -1.8894 H   0  0  0  0  0  0  0  0  0  0  0  0
    4.1337    1.9853   -0.6980 H   0  0  0  0  0  0  0  0  0  0  0  0
   -7.3137   -2.6110    1.2362 H   0  0  0  0  0  0  0  0  0  0  0  0
   -7.2971   -0.8608    1.7220 H   0  0  0  0  0  0  0  0  0  0  0  0
   -3.9499   -3.3631    1.4587 H   0  0  0  0  0  0  0  0  0  0  0  0
   -5.5871   -3.8332    1.0427 H   0  0  0  0  0  0  0  0  0  0  0  0
    5.3667   -1.7126   -1.8252 H   0  0  0  0  0  0  0  0  0  0  0  0
    6.2307    1.8108    0.1268 H   0  0  0  0  0  0  0  0  0  0  0  0
    6.4210    0.1964   -1.4099 H   0  0  0  0  0  0  0  0  0  0  0  0
    4.8568   -3.4316   -0.4991 H   0  0  0  0  0  0  0  0  0  0  0  0
    3.8081   -2.4344    0.4830 H   0  0  0  0  0  0  0  0  0  0  0  0
    6.7504    0.5790    2.2040 H   0  0  0  0  0  0  0  0  0  0  0  0
    5.4747    1.7957    2.2480 H   0  0  0  0  0  0  0  0  0  0  0  0
    4.9619    0.1073    2.3158 H   0  0  0  0  0  0  0  0  0  0  0  0
    8.0210   -1.1978   -0.6837 H   0  0  0  0  0  0  0  0  0  0  0  0
    7.8877   -0.0351    0.6386 H   0  0  0  0  0  0  0  0  0  0  0  0
    5.9080   -3.7081    1.4426 H   0  0  0  0  0  0  0  0  0  0  0  0
    5.2857   -2.2518    2.1645 H   0  0  0  0  0  0  0  0  0  0  0  0
    7.4947   -1.7160    2.0802 H   0  0  0  0  0  0  0  0  0  0  0  0
    7.8832   -2.8644    0.8156 H   0  0  0  0  0  0  0  0  0  0  0  0
   -0.5091   -0.2341    0.2361 H   0  0  0  0  0  0  0  0  0  0  0  0
   -1.5236    1.1619   -2.2607 H   0  0  0  0  0  0  0  0  0  0  0  0
   -0.2359    2.6377   -0.8661 H   0  0  0  0  0  0  0  0  0  0  0  0
   -2.1695   -1.2452    0.4886 H   0  0  0  0  0  0  0  0  0  0  0  0
   -3.3892    1.9082   -0.9663 H   0  0  0  0  0  0  0  0  0  0  0  0
   -4.1428    1.5526    0.5650 H   0  0  0  0  0  0  0  0  0  0  0  0
   -2.3769   -1.5452   -1.7793 H   0  0  0  0  0  0  0  0  0  0  0  0
   -0.0924    1.5522    1.7315 H   0  0  0  0  0  0  0  0  0  0  0  0
   -2.8610    3.2684    1.7466 H   0  0  0  0  0  0  0  0  0  0  0  0
   -1.9074    3.6524    0.3190 H   0  0  0  0  0  0  0  0  0  0  0  0
    0.2262    1.6461   -2.5131 H   0  0  0  0  0  0  0  0  0  0  0  0
   -0.4328   -1.9487   -3.3081 H   0  0  0  0  0  0  0  0  0  0  0  0
   -1.3254   -0.5099   -3.7965 H   0  0  0  0  0  0  0  0  0  0  0  0
    0.4204   -0.6424   -4.1601 H   0  0  0  0  0  0  0  0  0  0  0  0
    1.4065   -0.5059    0.2944 H   0  0  0  0  0  0  0  0  0  0  0  0
    1.8451    0.9735    1.1487 H   0  0  0  0  0  0  0  0  0  0  0  0
   -4.6221    0.0398    2.2458 H   0  0  0  0  0  0  0  0  0  0  0  0
   -3.4378   -1.2627    2.1305 H   0  0  0  0  0  0  0  0  0  0  0  0
   -4.5958   -2.4864   -0.6727 H   0  0  0  0  0  0  0  0  0  0  0  0
   -4.8842   -1.0221   -1.6165 H   0  0  0  0  0  0  0  0  0  0  0  0
   -3.7718    5.1770    0.4194 H   0  0  0  0  0  0  0  0  0  0  0  0
   -4.0683    4.0484   -0.9300 H   0  0  0  0  0  0  0  0  0  0  0  0
    2.1354   -0.2277   -3.2844 H   0  0  0  0  0  0  0  0  0  0  0  0
    3.6506   -0.4627    0.8776 H   0  0  0  0  0  0  0  0  0  0  0  0
   -5.6481   -1.9113    3.0185 H   0  0  0  0  0  0  0  0  0  0  0  0
   -6.7165   -0.2988   -0.3951 H   0  0  0  0  0  0  0  0  0  0  0  0
   -6.9904   -2.0117   -0.9360 H   0  0  0  0  0  0  0  0  0  0  0  0
   -5.9878    3.2718   -0.0368 H   0  0  0  0  0  0  0  0  0  0  0  0
   -5.8670    4.6095    1.1161 H   0  0  0  0  0  0  0  0  0  0  0  0
   -5.2542    2.9437    1.5501 H   0  0  0  0  0  0  0  0  0  0  0  0
    4.1545    0.0830   -1.8894 H   0  0  0  0  0  0  0  0  0  0  0  0
    4.1337    1.9853   -0.6980 H   0  0  0  0  0  0  0  0  0  0  0  0
   -7.3137   -2.6110    1.2362 H   0  0  0  0  0  0  0  0  0  0  0  0
   -7.2971   -0.8608    1.7220 H   0  0  0  0  0  0  0  0  0  0  0  0
   -3.9499   -3.3631    1.4587 H   0  0  0  0  0  0  0  0  0  0  0  0
   -5.5871   -3.8332    1.0427 H   0  0  0  0  0  0  0  0  0  0  0  0
    5.3667   -1.7126   -1.8252 H   0  0  0  0  0  0  0  0  0  0  0  0
    6.2307    1.8108    0.1268 H   0  0  0  0  0  0  0  0  0  0  0  0
    6.4210    0.1964   -1.4099 H   0  0  0  0  0  0  0  0  0  0  0  0
    4.8568   -3.4316   -0.4991 H   0  0  0  0  0  0  0  0  0  0  0  0
    3.8081   -2.4344    0.4830 H   0  0  0  0  0  0  0  0  0  0  0  0
    6.7504    0.5790    2.2040 H   0  0  0  0  0  0  0  0  0  0  0  0
    5.4747    1.7957    2.2480 H   0  0  0  0  0  0  0  0  0  0  0  0
    4.9619    0.1073    2.3158 H   0  0  0  0  0  0  0  0  0  0  0  0
    8.0210   -1.1978   -0.6837 H   0  0  0  0  0  0  0  0  0  0  0  0
    7.8877   -0.0351    0.6386 H   0  0  0  0  0  0  0  0  0  0  0  0
    5.9080   -3.7081    1.4426 H   0  0  0  0  0  0  0  0  0  0  0  0
    5.2857   -2.2518    2.1645 H   0  0  0  0  0  0  0  0  0  0  0  0
    7.4947   -1.7160    2.0802 H   0  0  0  0  0  0  0  0  0  0  0  0
    7.8832   -2.8644    0.8156 H   0  0  0  0  0  0  0  0  0  0  0  0
  1  2  1  0
  1  3  1  0
  1  4  1  0
  2  5  1  0
  2  6  1  0
  3  7  1  0
  5  7  1  0
  3  8  1  0
  4  9  1  0
  4 10  1  0
  5 11  1  0
  6 12  1  0
  8 13  1  0
  9 13  1  0
  8 14  1  0
  9 15  1  0
 11 16  1  0
 11 17  1  0
 12 18  1  0
 13 19  1  0
 15 20  1  0
 16 21  1  0
 17 22  1  0
 18 23  1  0
 20 24  1  0
 20 25  1  0
 21 26  1  0
 22 26  1  0
 21 27  1  0
 24 28  1  0
 25 29  1  0
 28 30  1  0
 29 30  1  0
 28 31  1  0
 29 32  1  0
 30 33  1  0
 31 34  1  0
 33 35  1  0
 34 35  1  0
 36 37  1  0
 36 38  1  0
 36 39  1  0
 37 40  1  0
 37 41  1  0
 38 42  1  0
 40 42  1  0
 38 43  1  0
 39 44  1  0
 39 45  1  0
 40 46  1  0
 41 47  1  0
 43 48  1  0
 44 48  1  0
 43 49  1  0
 44 50  1  0
 46 51  1  0
 46 52  1  0
 47 53  1  0
 48 54  1  0
 50 55  1  0
 51 56  1  0
 52 57  1  0
 53 58  1  0
 55 59  1  0
 55 60  1  0
 56 61  1  0
 57 61  1  0
 56 62  1  0
 59 63  1  0
 60 64  1  0
 63 65  1  0
 64 65  1  0
 63 66  1  0
 64 67  1  0
 65 68  1  0
 66 69  1  0
 68 70  1  0
 69 70  1  0
  1 71  1  0
  3 72  1  0
  4 73  1  0
  5 74  1  0
  6 75  1  0
  6 76  1  0
  7 77  1  0
 10 78  1  0
 12 79  1  0
 12 80  1  0
 13 81  1  0
 14 82  1  0
 14 83  1  0
 14 84  1  0
 15 85  1  0
 15 86  1  0
 16 87  1  0
 16 88  1  0
 17 89  1  0
 17 90  1  0
 18 91  1  0
 18 92  1  0
 19 93  1  0
 20 94  1  0
 21 95  1  1
 22 96  1  0
 22 97  1  0
 23 98  1  0
 23 99  1  0
 23100  1  0
 24101  1  0
 25102  1  0
 26103  1  0
 26104  1  0
 27105  1  0
 27106  1  0
 28107  1  0
 29108  1  0
 30109  1  0
 31110  1  0
 31111  1  0
 32112  1  0
 32113  1  0
 32114  1  0
 33115  1  0
 33116  1  0
 34117  1  0
 34118  1  0
 35119  1  0
 35120  1  0
 36121  1  0
 38122  1  0
 39123  1  0
 40124  1  0
 41125  1  0
 41126  1  0
 42127  1  0
 45128  1  0
 47129  1  0
 47130  1  0
 48131  1  0
 49132  1  0
 49133  1  0
 49134  1  0
 50135  1  0
 50136  1  0
 51137  1  0
 51138  1  0
 52139  1  0
 52140  1  0
 53141  1  0
 53142  1  0
 54143  1  0
 55144  1  0
 56145  1  1
 57146  1  0
 57147  1  0
 58148  1  0
 58149  1  0
 58150  1  0
 59151  1  0
 60152  1  0
 61153  1  0
 61154  1  0
 62155  1  0
 62156  1  0
 63157  1  0
 64158  1  0
 65159  1  0
 66160  1  0
 66161  1  0
 67162  1  0
 67163  1  0
 67164  1  0
 68165  1  0
 68166  1  0
 69167  1  0
 69168  1  0
 70169  1  0
 70170  1  0
M  END
>  <PDBID>  (1) 
2RGU

>  <PDB ID>  (1) 
2RGU

>  <Generic Name>  (1) 
Linagliptin

>  <Brand Name>  (1) 
Glyxambi#Jentadueto#Jentadueto XR#Tradjenta#Trajenta

>  <DrugBank ID>  (1) 
DB08882

>  <ATC Codes>  (1) 
A10BH05#A10BD19#A10BD11

>  <Ligand ID>  (1) 
356

>  <Target Name>  (1) 
Dipeptidyl peptidase 4

>  <UniProt ID>  (1) 
P27487

>  <PDB ID.1>  (1) 
2RGU

>  <Seq. Identity>  (1) 
100%

$$$$
