PDB_DB01010_07
     RDKit          3D

 34 34  0  0  0  0  0  0  0  0999 V2000
    0.6017   -1.1078    0.7717 C   0  0  0  0  0  0  0  0  0  0  0  0
    0.2702   -0.2106   -0.4225 C   0  0  0  0  0  0  0  0  0  0  0  0
    1.2235    0.9278   -0.5406 C   0  0  0  0  0  0  0  0  0  0  0  0
    2.6386    0.4178   -0.5259 C   0  0  2  0  0  0  0  0  0  0  0  0
    2.9349   -0.4781    0.6408 C   0  0  0  0  0  0  0  0  0  0  0  0
    1.9833   -1.6760    0.5166 C   0  0  0  0  0  0  0  0  0  0  0  0
    3.5121    1.5172   -0.5569 O   0  0  0  0  0  0  0  0  0  0  0  0
   -1.0982    0.1141   -0.3498 N   0  0  0  0  0  0  0  0  0  0  0  0
   -1.8620   -1.0307   -0.8539 C   0  0  0  0  0  0  0  0  0  0  0  0
   -1.5239    1.2639   -1.0951 C   0  0  0  0  0  0  0  0  0  0  0  0
   -1.5675    0.3144    1.0316 C   0  0  0  0  0  0  0  0  0  0  0  0
   -3.0731    0.4606    0.9620 C   0  0  0  0  0  0  0  0  0  0  0  0
    0.6727   -0.5192    1.7123 H   0  0  0  0  0  0  0  0  0  0  0  0
   -0.0922   -1.9416    0.8251 H   0  0  0  0  0  0  0  0  0  0  0  0
    0.4272   -0.8692   -1.3250 H   0  0  0  0  0  0  0  0  0  0  0  0
    1.1057    1.3454   -1.5856 H   0  0  0  0  0  0  0  0  0  0  0  0
    1.0630    1.7217    0.2037 H   0  0  0  0  0  0  0  0  0  0  0  0
    2.8416   -0.1645   -1.4509 H   0  0  0  0  0  0  0  0  0  0  0  0
    3.9785   -0.8225    0.5391 H   0  0  0  0  0  0  0  0  0  0  0  0
    2.7938    0.0465    1.6059 H   0  0  0  0  0  0  0  0  0  0  0  0
    2.0321   -1.9804   -0.5674 H   0  0  0  0  0  0  0  0  0  0  0  0
    2.2554   -2.4818    1.1999 H   0  0  0  0  0  0  0  0  0  0  0  0
    3.1223    2.2766   -0.0376 H   0  0  0  0  0  0  0  0  0  0  0  0
   -1.1827   -1.7792   -1.3435 H   0  0  0  0  0  0  0  0  0  0  0  0
   -2.5881   -0.7367   -1.6294 H   0  0  0  0  0  0  0  0  0  0  0  0
   -2.3993   -1.5620   -0.0709 H   0  0  0  0  0  0  0  0  0  0  0  0
   -0.7780    2.0406   -1.2257 H   0  0  0  0  0  0  0  0  0  0  0  0
   -1.8857    0.9861   -2.1250 H   0  0  0  0  0  0  0  0  0  0  0  0
   -2.4151    1.7625   -0.6190 H   0  0  0  0  0  0  0  0  0  0  0  0
   -1.3702   -0.5853    1.6546 H   0  0  0  0  0  0  0  0  0  0  0  0
   -1.1440    1.2184    1.4727 H   0  0  0  0  0  0  0  0  0  0  0  0
   -3.5021    0.1541    0.0079 H   0  0  0  0  0  0  0  0  0  0  0  0
   -3.5816   -0.1435    1.7529 H   0  0  0  0  0  0  0  0  0  0  0  0
   -3.3930    1.5213    1.1569 H   0  0  0  0  0  0  0  0  0  0  0  0
  1  2  1  0
  2  3  1  0
  3  4  1  0
  4  5  1  0
  1  6  1  0
  5  6  1  0
  4  7  1  0
  2  8  1  0
  8  9  1  0
  8 10  1  0
  8 11  1  0
 11 12  1  0
  1 13  1  0
  1 14  1  0
  2 15  1  0
  3 16  1  0
  3 17  1  0
  4 18  1  6
  5 19  1  0
  5 20  1  0
  6 21  1  0
  6 22  1  0
  7 23  1  0
  9 24  1  0
  9 25  1  0
  9 26  1  0
 10 27  1  0
 10 28  1  0
 10 29  1  0
 11 30  1  0
 11 31  1  0
 12 32  1  0
 12 33  1  0
 12 34  1  0
M  CHG  1   8   1
M  END
>  <PDBID>  (1) 
2ACK

>  <PDB ID>  (1) 
2ACK

>  <Generic Name>  (1) 
Edrophonium

>  <Brand Name>  (1) 
Enlon#Enlon 10mg/ml#Enlon Liq IV 10mg/ml#Enlon Plus#Tensilon#Antirex#Reversol

>  <DrugBank ID>  (1) 
DB01010

>  <ATC Codes>  (1) 
nan

>  <Ligand ID>  (1) 
EDR

>  <Target Name>  (1) 
Acetylcholinesterase

>  <UniProt ID>  (1) 
P22303

>  <PDB ID.1>  (1) 
2ACK

>  <Seq. Identity>  (1) 
57%

$$$$
