PDB_DB08910_07
     RDKit          3D

180188  0  0  0  0  0  0  0  0999 V2000
   -4.0263    0.1153    0.5312 C   0  0  0  0  0  0  0  0  0  0  0  0
   -3.6578   -1.0902   -0.2328 C   0  0  0  0  0  0  0  0  0  0  0  0
   -2.4578   -1.0113   -1.0904 C   0  0  0  0  0  0  0  0  0  0  0  0
   -1.7315    0.2905   -1.0780 C   0  0  0  0  0  0  0  0  0  0  0  0
   -1.6307    0.8334    0.3287 C   0  0  0  0  0  0  0  0  0  0  0  0
   -2.9161    0.9508    1.0397 C   0  0  0  0  0  0  0  0  0  0  0  0
   -0.2453   -0.0116   -1.3250 C   0  0  0  0  0  0  0  0  0  0  0  0
    0.2485   -0.5476   -0.0428 N   0  0  0  0  0  0  0  0  0  0  0  0
   -0.6875   -0.2136    0.9408 C   0  0  0  0  0  0  0  0  0  0  0  0
   -3.3373    2.3601    0.9797 N   0  0  0  0  0  0  0  0  0  0  0  0
   -0.2616    0.2838    2.1247 O   0  0  0  0  0  0  0  0  0  0  0  0
    1.5835   -0.1302    0.0992 C   0  0  1  0  0  0  0  0  0  0  0  0
   -0.2162   -0.9801   -2.3185 O   0  0  0  0  0  0  0  0  0  0  0  0
    2.3520   -0.6216    1.2617 C   0  0  0  0  0  0  0  0  0  0  0  0
    2.3405   -0.6343   -1.1420 C   0  0  0  0  0  0  0  0  0  0  0  0
    3.7490   -0.3220   -1.0596 N   0  0  0  0  0  0  0  0  0  0  0  0
    4.0361    0.6834   -0.0669 C   0  0  0  0  0  0  0  0  0  0  0  0
    3.6933    0.1294    1.2765 C   0  0  0  0  0  0  0  0  0  0  0  0
    2.2315   -2.0207   -1.2337 O   0  0  0  0  0  0  0  0  0  0  0  0
    5.4343    0.8744   -0.0908 O   0  0  0  0  0  0  0  0  0  0  0  0
   -4.0263    0.1153    0.5312 C   0  0  0  0  0  0  0  0  0  0  0  0
   -3.6578   -1.0902   -0.2328 C   0  0  0  0  0  0  0  0  0  0  0  0
   -2.4578   -1.0113   -1.0904 C   0  0  0  0  0  0  0  0  0  0  0  0
   -1.7315    0.2905   -1.0780 C   0  0  0  0  0  0  0  0  0  0  0  0
   -1.6307    0.8334    0.3287 C   0  0  0  0  0  0  0  0  0  0  0  0
   -2.9161    0.9508    1.0397 C   0  0  0  0  0  0  0  0  0  0  0  0
   -0.2453   -0.0116   -1.3250 C   0  0  0  0  0  0  0  0  0  0  0  0
    0.2485   -0.5476   -0.0428 N   0  0  0  0  0  0  0  0  0  0  0  0
   -0.6875   -0.2136    0.9408 C   0  0  0  0  0  0  0  0  0  0  0  0
   -3.3373    2.3601    0.9797 N   0  0  0  0  0  0  0  0  0  0  0  0
   -0.2616    0.2838    2.1247 O   0  0  0  0  0  0  0  0  0  0  0  0
    1.5835   -0.1302    0.0992 C   0  0  1  0  0  0  0  0  0  0  0  0
   -0.2162   -0.9801   -2.3185 O   0  0  0  0  0  0  0  0  0  0  0  0
    2.3520   -0.6216    1.2617 C   0  0  0  0  0  0  0  0  0  0  0  0
    2.3405   -0.6343   -1.1420 C   0  0  0  0  0  0  0  0  0  0  0  0
    3.7490   -0.3220   -1.0596 N   0  0  0  0  0  0  0  0  0  0  0  0
    4.0361    0.6834   -0.0669 C   0  0  0  0  0  0  0  0  0  0  0  0
    3.6933    0.1294    1.2765 C   0  0  0  0  0  0  0  0  0  0  0  0
    2.2315   -2.0207   -1.2337 O   0  0  0  0  0  0  0  0  0  0  0  0
    5.4343    0.8744   -0.0908 O   0  0  0  0  0  0  0  0  0  0  0  0
   -4.0263    0.1153    0.5312 C   0  0  0  0  0  0  0  0  0  0  0  0
   -3.6578   -1.0902   -0.2328 C   0  0  0  0  0  0  0  0  0  0  0  0
   -2.4578   -1.0113   -1.0904 C   0  0  0  0  0  0  0  0  0  0  0  0
   -1.7315    0.2905   -1.0780 C   0  0  0  0  0  0  0  0  0  0  0  0
   -1.6307    0.8334    0.3287 C   0  0  0  0  0  0  0  0  0  0  0  0
   -2.9161    0.9508    1.0397 C   0  0  0  0  0  0  0  0  0  0  0  0
   -0.2453   -0.0116   -1.3250 C   0  0  0  0  0  0  0  0  0  0  0  0
    0.2485   -0.5476   -0.0428 N   0  0  0  0  0  0  0  0  0  0  0  0
   -0.6875   -0.2136    0.9408 C   0  0  0  0  0  0  0  0  0  0  0  0
   -3.3373    2.3601    0.9797 N   0  0  0  0  0  0  0  0  0  0  0  0
   -0.2616    0.2838    2.1247 O   0  0  0  0  0  0  0  0  0  0  0  0
    1.5835   -0.1302    0.0992 C   0  0  1  0  0  0  0  0  0  0  0  0
   -0.2162   -0.9801   -2.3185 O   0  0  0  0  0  0  0  0  0  0  0  0
    2.3520   -0.6216    1.2617 C   0  0  0  0  0  0  0  0  0  0  0  0
    2.3405   -0.6343   -1.1420 C   0  0  0  0  0  0  0  0  0  0  0  0
    3.7490   -0.3220   -1.0596 N   0  0  0  0  0  0  0  0  0  0  0  0
    4.0361    0.6834   -0.0669 C   0  0  0  0  0  0  0  0  0  0  0  0
    3.6933    0.1294    1.2765 C   0  0  0  0  0  0  0  0  0  0  0  0
    2.2315   -2.0207   -1.2337 O   0  0  0  0  0  0  0  0  0  0  0  0
    5.4343    0.8744   -0.0908 O   0  0  0  0  0  0  0  0  0  0  0  0
   -4.0263    0.1153    0.5312 C   0  0  0  0  0  0  0  0  0  0  0  0
   -3.6578   -1.0902   -0.2328 C   0  0  0  0  0  0  0  0  0  0  0  0
   -2.4578   -1.0113   -1.0904 C   0  0  0  0  0  0  0  0  0  0  0  0
   -1.7315    0.2905   -1.0780 C   0  0  0  0  0  0  0  0  0  0  0  0
   -1.6307    0.8334    0.3287 C   0  0  0  0  0  0  0  0  0  0  0  0
   -2.9161    0.9508    1.0397 C   0  0  0  0  0  0  0  0  0  0  0  0
   -0.2453   -0.0116   -1.3250 C   0  0  0  0  0  0  0  0  0  0  0  0
    0.2485   -0.5476   -0.0428 N   0  0  0  0  0  0  0  0  0  0  0  0
   -0.6875   -0.2136    0.9408 C   0  0  0  0  0  0  0  0  0  0  0  0
   -3.3373    2.3601    0.9797 N   0  0  0  0  0  0  0  0  0  0  0  0
   -0.2616    0.2838    2.1247 O   0  0  0  0  0  0  0  0  0  0  0  0
    1.5835   -0.1302    0.0992 C   0  0  1  0  0  0  0  0  0  0  0  0
   -0.2162   -0.9801   -2.3185 O   0  0  0  0  0  0  0  0  0  0  0  0
    2.3520   -0.6216    1.2617 C   0  0  0  0  0  0  0  0  0  0  0  0
    2.3405   -0.6343   -1.1420 C   0  0  0  0  0  0  0  0  0  0  0  0
    3.7490   -0.3220   -1.0596 N   0  0  0  0  0  0  0  0  0  0  0  0
    4.0361    0.6834   -0.0669 C   0  0  0  0  0  0  0  0  0  0  0  0
    3.6933    0.1294    1.2765 C   0  0  0  0  0  0  0  0  0  0  0  0
    2.2315   -2.0207   -1.2337 O   0  0  0  0  0  0  0  0  0  0  0  0
    5.4343    0.8744   -0.0908 O   0  0  0  0  0  0  0  0  0  0  0  0
   -4.6393   -0.2075    1.4255 H   0  0  0  0  0  0  0  0  0  0  0  0
   -4.7533    0.7431   -0.0646 H   0  0  0  0  0  0  0  0  0  0  0  0
   -3.6007   -1.9678    0.4776 H   0  0  0  0  0  0  0  0  0  0  0  0
   -4.5361   -1.3552   -0.8953 H   0  0  0  0  0  0  0  0  0  0  0  0
   -1.7433   -1.8345   -0.7914 H   0  0  0  0  0  0  0  0  0  0  0  0
   -2.6826   -1.2476   -2.1731 H   0  0  0  0  0  0  0  0  0  0  0  0
   -2.0843    1.0263   -1.8034 H   0  0  0  0  0  0  0  0  0  0  0  0
   -1.0479    1.7700    0.2876 H   0  0  0  0  0  0  0  0  0  0  0  0
   -2.7239    0.7697    2.1377 H   0  0  0  0  0  0  0  0  0  0  0  0
    0.2773    0.9227   -1.6006 H   0  0  0  0  0  0  0  0  0  0  0  0
   -1.3542   -1.1097    1.1162 H   0  0  0  0  0  0  0  0  0  0  0  0
   -2.5123    2.9854    1.1598 H   0  0  0  0  0  0  0  0  0  0  0  0
   -3.6146    2.5362   -0.0260 H   0  0  0  0  0  0  0  0  0  0  0  0
   -0.4423   -0.3581    2.8599 H   0  0  0  0  0  0  0  0  0  0  0  0
    1.6389    0.9917    0.0119 H   0  0  0  0  0  0  0  0  0  0  0  0
   -0.4090   -0.5378   -3.1650 H   0  0  0  0  0  0  0  0  0  0  0  0
    1.9278   -0.4919    2.2483 H   0  0  0  0  0  0  0  0  0  0  0  0
    2.5542   -1.7134    1.1353 H   0  0  0  0  0  0  0  0  0  0  0  0
    1.9590   -0.1671   -2.0639 H   0  0  0  0  0  0  0  0  0  0  0  0
    4.3411   -1.1471   -0.8521 H   0  0  0  0  0  0  0  0  0  0  0  0
    3.5665    1.6554   -0.2873 H   0  0  0  0  0  0  0  0  0  0  0  0
    3.6298    0.9786    1.9960 H   0  0  0  0  0  0  0  0  0  0  0  0
    4.4456   -0.5819    1.6268 H   0  0  0  0  0  0  0  0  0  0  0  0
    1.6294   -2.4042   -0.5647 H   0  0  0  0  0  0  0  0  0  0  0  0
    5.6740    1.8069   -0.2985 H   0  0  0  0  0  0  0  0  0  0  0  0
   -4.6393   -0.2075    1.4255 H   0  0  0  0  0  0  0  0  0  0  0  0
   -4.7533    0.7431   -0.0646 H   0  0  0  0  0  0  0  0  0  0  0  0
   -3.6007   -1.9678    0.4776 H   0  0  0  0  0  0  0  0  0  0  0  0
   -4.5361   -1.3552   -0.8953 H   0  0  0  0  0  0  0  0  0  0  0  0
   -1.7433   -1.8345   -0.7914 H   0  0  0  0  0  0  0  0  0  0  0  0
   -2.6826   -1.2476   -2.1731 H   0  0  0  0  0  0  0  0  0  0  0  0
   -2.0843    1.0263   -1.8034 H   0  0  0  0  0  0  0  0  0  0  0  0
   -1.0479    1.7700    0.2876 H   0  0  0  0  0  0  0  0  0  0  0  0
   -2.7239    0.7697    2.1377 H   0  0  0  0  0  0  0  0  0  0  0  0
    0.2773    0.9227   -1.6006 H   0  0  0  0  0  0  0  0  0  0  0  0
   -1.3542   -1.1097    1.1162 H   0  0  0  0  0  0  0  0  0  0  0  0
   -2.5123    2.9854    1.1598 H   0  0  0  0  0  0  0  0  0  0  0  0
   -3.6146    2.5362   -0.0260 H   0  0  0  0  0  0  0  0  0  0  0  0
   -0.4423   -0.3581    2.8599 H   0  0  0  0  0  0  0  0  0  0  0  0
    1.6389    0.9917    0.0119 H   0  0  0  0  0  0  0  0  0  0  0  0
   -0.4090   -0.5378   -3.1650 H   0  0  0  0  0  0  0  0  0  0  0  0
    1.9278   -0.4919    2.2483 H   0  0  0  0  0  0  0  0  0  0  0  0
    2.5542   -1.7134    1.1353 H   0  0  0  0  0  0  0  0  0  0  0  0
    1.9590   -0.1671   -2.0639 H   0  0  0  0  0  0  0  0  0  0  0  0
    4.3411   -1.1471   -0.8521 H   0  0  0  0  0  0  0  0  0  0  0  0
    3.5665    1.6554   -0.2873 H   0  0  0  0  0  0  0  0  0  0  0  0
    3.6298    0.9786    1.9960 H   0  0  0  0  0  0  0  0  0  0  0  0
    4.4456   -0.5819    1.6268 H   0  0  0  0  0  0  0  0  0  0  0  0
    1.6294   -2.4042   -0.5647 H   0  0  0  0  0  0  0  0  0  0  0  0
    5.6740    1.8069   -0.2985 H   0  0  0  0  0  0  0  0  0  0  0  0
   -4.6393   -0.2075    1.4255 H   0  0  0  0  0  0  0  0  0  0  0  0
   -4.7533    0.7431   -0.0646 H   0  0  0  0  0  0  0  0  0  0  0  0
   -3.6007   -1.9678    0.4776 H   0  0  0  0  0  0  0  0  0  0  0  0
   -4.5361   -1.3552   -0.8953 H   0  0  0  0  0  0  0  0  0  0  0  0
   -1.7433   -1.8345   -0.7914 H   0  0  0  0  0  0  0  0  0  0  0  0
   -2.6826   -1.2476   -2.1731 H   0  0  0  0  0  0  0  0  0  0  0  0
   -2.0843    1.0263   -1.8034 H   0  0  0  0  0  0  0  0  0  0  0  0
   -1.0479    1.7700    0.2876 H   0  0  0  0  0  0  0  0  0  0  0  0
   -2.7239    0.7697    2.1377 H   0  0  0  0  0  0  0  0  0  0  0  0
    0.2773    0.9227   -1.6006 H   0  0  0  0  0  0  0  0  0  0  0  0
   -1.3542   -1.1097    1.1162 H   0  0  0  0  0  0  0  0  0  0  0  0
   -2.5123    2.9854    1.1598 H   0  0  0  0  0  0  0  0  0  0  0  0
   -3.6146    2.5362   -0.0260 H   0  0  0  0  0  0  0  0  0  0  0  0
   -0.4423   -0.3581    2.8599 H   0  0  0  0  0  0  0  0  0  0  0  0
    1.6389    0.9917    0.0119 H   0  0  0  0  0  0  0  0  0  0  0  0
   -0.4090   -0.5378   -3.1650 H   0  0  0  0  0  0  0  0  0  0  0  0
    1.9278   -0.4919    2.2483 H   0  0  0  0  0  0  0  0  0  0  0  0
    2.5542   -1.7134    1.1353 H   0  0  0  0  0  0  0  0  0  0  0  0
    1.9590   -0.1671   -2.0639 H   0  0  0  0  0  0  0  0  0  0  0  0
    4.3411   -1.1471   -0.8521 H   0  0  0  0  0  0  0  0  0  0  0  0
    3.5665    1.6554   -0.2873 H   0  0  0  0  0  0  0  0  0  0  0  0
    3.6298    0.9786    1.9960 H   0  0  0  0  0  0  0  0  0  0  0  0
    4.4456   -0.5819    1.6268 H   0  0  0  0  0  0  0  0  0  0  0  0
    1.6294   -2.4042   -0.5647 H   0  0  0  0  0  0  0  0  0  0  0  0
    5.6740    1.8069   -0.2985 H   0  0  0  0  0  0  0  0  0  0  0  0
   -4.6393   -0.2075    1.4255 H   0  0  0  0  0  0  0  0  0  0  0  0
   -4.7533    0.7431   -0.0646 H   0  0  0  0  0  0  0  0  0  0  0  0
   -3.6007   -1.9678    0.4776 H   0  0  0  0  0  0  0  0  0  0  0  0
   -4.5361   -1.3552   -0.8953 H   0  0  0  0  0  0  0  0  0  0  0  0
   -1.7433   -1.8345   -0.7914 H   0  0  0  0  0  0  0  0  0  0  0  0
   -2.6826   -1.2476   -2.1731 H   0  0  0  0  0  0  0  0  0  0  0  0
   -2.0843    1.0263   -1.8034 H   0  0  0  0  0  0  0  0  0  0  0  0
   -1.0479    1.7700    0.2876 H   0  0  0  0  0  0  0  0  0  0  0  0
   -2.7239    0.7697    2.1377 H   0  0  0  0  0  0  0  0  0  0  0  0
    0.2773    0.9227   -1.6006 H   0  0  0  0  0  0  0  0  0  0  0  0
   -1.3542   -1.1097    1.1162 H   0  0  0  0  0  0  0  0  0  0  0  0
   -2.5123    2.9854    1.1598 H   0  0  0  0  0  0  0  0  0  0  0  0
   -3.6146    2.5362   -0.0260 H   0  0  0  0  0  0  0  0  0  0  0  0
   -0.4423   -0.3581    2.8599 H   0  0  0  0  0  0  0  0  0  0  0  0
    1.6389    0.9917    0.0119 H   0  0  0  0  0  0  0  0  0  0  0  0
   -0.4090   -0.5378   -3.1650 H   0  0  0  0  0  0  0  0  0  0  0  0
    1.9278   -0.4919    2.2483 H   0  0  0  0  0  0  0  0  0  0  0  0
    2.5542   -1.7134    1.1353 H   0  0  0  0  0  0  0  0  0  0  0  0
    1.9590   -0.1671   -2.0639 H   0  0  0  0  0  0  0  0  0  0  0  0
    4.3411   -1.1471   -0.8521 H   0  0  0  0  0  0  0  0  0  0  0  0
    3.5665    1.6554   -0.2873 H   0  0  0  0  0  0  0  0  0  0  0  0
    3.6298    0.9786    1.9960 H   0  0  0  0  0  0  0  0  0  0  0  0
    4.4456   -0.5819    1.6268 H   0  0  0  0  0  0  0  0  0  0  0  0
    1.6294   -2.4042   -0.5647 H   0  0  0  0  0  0  0  0  0  0  0  0
    5.6740    1.8069   -0.2985 H   0  0  0  0  0  0  0  0  0  0  0  0
  1  2  1  0
  2  3  1  0
  3  4  1  0
  4  5  1  0
  1  6  1  0
  5  6  1  0
  4  7  1  0
  7  8  1  0
  5  9  1  0
  8  9  1  0
  6 10  1  0
  9 11  1  0
  8 12  1  0
  7 13  1  0
 12 14  1  0
 12 15  1  0
 15 16  1  0
 16 17  1  0
 14 18  1  0
 17 18  1  0
 15 19  1  0
 17 20  1  0
 21 22  1  0
 22 23  1  0
 23 24  1  0
 24 25  1  0
 21 26  1  0
 25 26  1  0
 24 27  1  0
 27 28  1  0
 25 29  1  0
 28 29  1  0
 26 30  1  0
 29 31  1  0
 28 32  1  0
 27 33  1  0
 32 34  1  0
 32 35  1  0
 35 36  1  0
 36 37  1  0
 34 38  1  0
 37 38  1  0
 35 39  1  0
 37 40  1  0
 41 42  1  0
 42 43  1  0
 43 44  1  0
 44 45  1  0
 41 46  1  0
 45 46  1  0
 44 47  1  0
 47 48  1  0
 45 49  1  0
 48 49  1  0
 46 50  1  0
 49 51  1  0
 48 52  1  0
 47 53  1  0
 52 54  1  0
 52 55  1  0
 55 56  1  0
 56 57  1  0
 54 58  1  0
 57 58  1  0
 55 59  1  0
 57 60  1  0
 61 62  1  0
 62 63  1  0
 63 64  1  0
 64 65  1  0
 61 66  1  0
 65 66  1  0
 64 67  1  0
 67 68  1  0
 65 69  1  0
 68 69  1  0
 66 70  1  0
 69 71  1  0
 68 72  1  0
 67 73  1  0
 72 74  1  0
 72 75  1  0
 75 76  1  0
 76 77  1  0
 74 78  1  0
 77 78  1  0
 75 79  1  0
 77 80  1  0
  1 81  1  0
  1 82  1  0
  2 83  1  0
  2 84  1  0
  3 85  1  0
  3 86  1  0
  4 87  1  0
  5 88  1  0
  6 89  1  0
  7 90  1  0
  9 91  1  0
 10 92  1  0
 10 93  1  0
 11 94  1  0
 12 95  1  6
 13 96  1  0
 14 97  1  0
 14 98  1  0
 15 99  1  0
 16100  1  0
 17101  1  0
 18102  1  0
 18103  1  0
 19104  1  0
 20105  1  0
 21106  1  0
 21107  1  0
 22108  1  0
 22109  1  0
 23110  1  0
 23111  1  0
 24112  1  0
 25113  1  0
 26114  1  0
 27115  1  0
 29116  1  0
 30117  1  0
 30118  1  0
 31119  1  0
 32120  1  6
 33121  1  0
 34122  1  0
 34123  1  0
 35124  1  0
 36125  1  0
 37126  1  0
 38127  1  0
 38128  1  0
 39129  1  0
 40130  1  0
 41131  1  0
 41132  1  0
 42133  1  0
 42134  1  0
 43135  1  0
 43136  1  0
 44137  1  0
 45138  1  0
 46139  1  0
 47140  1  0
 49141  1  0
 50142  1  0
 50143  1  0
 51144  1  0
 52145  1  6
 53146  1  0
 54147  1  0
 54148  1  0
 55149  1  0
 56150  1  0
 57151  1  0
 58152  1  0
 58153  1  0
 59154  1  0
 60155  1  0
 61156  1  0
 61157  1  0
 62158  1  0
 62159  1  0
 63160  1  0
 63161  1  0
 64162  1  0
 65163  1  0
 66164  1  0
 67165  1  0
 69166  1  0
 70167  1  0
 70168  1  0
 71169  1  0
 72170  1  6
 73171  1  0
 74172  1  0
 74173  1  0
 75174  1  0
 76175  1  0
 77176  1  0
 78177  1  0
 78178  1  0
 79179  1  0
 80180  1  0
M  END
>  <PDBID>  (1) 
4TZU

>  <PDB ID>  (1) 
4TZU

>  <Generic Name>  (1) 
Pomalidomide

>  <Brand Name>  (1) 
Pomalyst#Imnovid

>  <DrugBank ID>  (1) 
DB08910

>  <ATC Codes>  (1) 
L04AX06

>  <Ligand ID>  (1) 
Y70

>  <Target Name>  (1) 
Protein cereblon

>  <UniProt ID>  (1) 
Q96SW2

>  <PDB ID.1>  (1) 
4TZU

>  <Seq. Identity>  (1) 
97%

$$$$
