PDB_DB00624_09
     RDKit          3D

 53 56  0  0  0  0  0  0  0  0999 V2000
    2.3040   -1.2908   -1.0779 C   0  0  0  0  0  0  0  0  0  0  0  0
    3.6785   -1.5663   -0.5586 C   0  0  0  0  0  0  0  0  0  0  0  0
    4.2335   -0.5140    0.3332 C   0  0  0  0  0  0  0  0  0  0  0  0
    5.6232   -0.4396    0.0754 O   0  0  0  0  0  0  0  0  0  0  0  0
    3.6747    0.8459    0.1399 C   0  0  0  0  0  0  0  0  0  0  0  0
    2.2085    0.9201   -0.0734 C   0  0  0  0  0  0  0  0  0  0  0  0
    1.5025    1.8645    0.8786 C   0  0  0  0  0  0  0  0  0  0  0  0
    0.0710    1.9880    0.4746 C   0  0  0  0  0  0  0  0  0  0  0  0
   -0.6440    0.6918    0.3018 C   0  0  2  0  0  0  0  0  0  0  0  0
    0.1476   -0.2374   -0.6229 C   0  0  1  0  0  0  0  0  0  0  0  0
    1.5272   -0.4434   -0.0919 C   0  0  1  0  0  0  0  0  0  0  0  0
   -0.5515   -1.5065   -0.9125 C   0  0  0  0  0  0  0  0  0  0  0  0
   -2.0155   -1.4287   -1.1077 C   0  0  0  0  0  0  0  0  0  0  0  0
   -2.7003   -0.4783   -0.1894 C   0  0  1  0  0  0  0  0  0  0  0  0
   -1.9639    0.8610   -0.3385 C   0  0  1  0  0  0  0  0  0  0  0  0
   -2.9074    1.8038    0.2886 C   0  0  0  0  0  0  0  0  0  0  0  0
   -4.2126    1.4049   -0.4205 C   0  0  0  0  0  0  0  0  0  0  0  0
   -4.0825   -0.0960   -0.5932 C   0  0  2  0  0  0  0  0  0  0  0  0
   -4.9760   -0.6719    0.3264 O   0  0  0  0  0  0  0  0  0  0  0  0
   -2.6424   -0.9844    1.2287 C   0  0  0  0  0  0  0  0  0  0  0  0
    1.5099   -1.0698    1.2754 C   0  0  0  0  0  0  0  0  0  0  0  0
    1.8186   -2.2670   -1.2786 H   0  0  0  0  0  0  0  0  0  0  0  0
    2.3883   -0.7214   -2.0174 H   0  0  0  0  0  0  0  0  0  0  0  0
    3.6747   -2.5521   -0.0211 H   0  0  0  0  0  0  0  0  0  0  0  0
    4.3362   -1.7416   -1.4552 H   0  0  0  0  0  0  0  0  0  0  0  0
    4.1751   -0.7843    1.4266 H   0  0  0  0  0  0  0  0  0  0  0  0
    5.9247    0.4366    0.4323 H   0  0  0  0  0  0  0  0  0  0  0  0
    3.9253    1.4521    1.0537 H   0  0  0  0  0  0  0  0  0  0  0  0
    4.2583    1.3507   -0.6837 H   0  0  0  0  0  0  0  0  0  0  0  0
    2.0317    1.3456   -1.1023 H   0  0  0  0  0  0  0  0  0  0  0  0
    1.6609    1.6291    1.9305 H   0  0  0  0  0  0  0  0  0  0  0  0
    1.9784    2.8714    0.7078 H   0  0  0  0  0  0  0  0  0  0  0  0
   -0.4545    2.5463    1.3008 H   0  0  0  0  0  0  0  0  0  0  0  0
   -0.0224    2.6571   -0.4200 H   0  0  0  0  0  0  0  0  0  0  0  0
   -0.7150    0.2028    1.2914 H   0  0  0  0  0  0  0  0  0  0  0  0
    0.2533    0.3492   -1.5824 H   0  0  0  0  0  0  0  0  0  0  0  0
   -0.3403   -2.3011   -0.1416 H   0  0  0  0  0  0  0  0  0  0  0  0
   -0.1063   -1.9302   -1.8613 H   0  0  0  0  0  0  0  0  0  0  0  0
   -2.2747   -1.1848   -2.1716 H   0  0  0  0  0  0  0  0  0  0  0  0
   -2.4362   -2.4650   -0.9571 H   0  0  0  0  0  0  0  0  0  0  0  0
   -1.8891    1.0722   -1.4148 H   0  0  0  0  0  0  0  0  0  0  0  0
   -2.6852    2.8745    0.1118 H   0  0  0  0  0  0  0  0  0  0  0  0
   -3.0863    1.6754    1.3531 H   0  0  0  0  0  0  0  0  0  0  0  0
   -5.0882    1.7064    0.1538 H   0  0  0  0  0  0  0  0  0  0  0  0
   -4.1687    1.8811   -1.4372 H   0  0  0  0  0  0  0  0  0  0  0  0
   -4.3586   -0.4272   -1.6135 H   0  0  0  0  0  0  0  0  0  0  0  0
   -5.0284   -0.0631    1.1306 H   0  0  0  0  0  0  0  0  0  0  0  0
   -2.5901   -0.1999    1.9853 H   0  0  0  0  0  0  0  0  0  0  0  0
   -3.6233   -1.5164    1.4048 H   0  0  0  0  0  0  0  0  0  0  0  0
   -1.8659   -1.7379    1.3938 H   0  0  0  0  0  0  0  0  0  0  0  0
    2.1242   -2.0137    1.2242 H   0  0  0  0  0  0  0  0  0  0  0  0
    1.8969   -0.3923    2.0712 H   0  0  0  0  0  0  0  0  0  0  0  0
    0.5020   -1.4057    1.5942 H   0  0  0  0  0  0  0  0  0  0  0  0
  1  2  1  0
  2  3  1  0
  3  4  1  0
  3  5  1  0
  5  6  1  0
  6  7  1  0
  7  8  1  0
  8  9  1  0
  9 10  1  0
  1 11  1  0
  6 11  1  0
 10 11  1  0
 10 12  1  0
 12 13  1  0
 13 14  1  0
  9 15  1  0
 14 15  1  0
 15 16  1  0
 16 17  1  0
 14 18  1  0
 17 18  1  0
 18 19  1  0
 14 20  1  1
 11 21  1  1
  1 22  1  0
  1 23  1  0
  2 24  1  0
  2 25  1  0
  3 26  1  0
  4 27  1  0
  5 28  1  0
  5 29  1  0
  6 30  1  0
  7 31  1  0
  7 32  1  0
  8 33  1  0
  8 34  1  0
  9 35  1  1
 10 36  1  6
 12 37  1  0
 12 38  1  0
 13 39  1  0
 13 40  1  0
 15 41  1  6
 16 42  1  0
 16 43  1  0
 17 44  1  0
 17 45  1  0
 18 46  1  6
 19 47  1  0
 20 48  1  0
 20 49  1  0
 20 50  1  0
 21 51  1  0
 21 52  1  0
 21 53  1  0
M  END
>  <PDBID>  (1) 
2AM9

>  <PDB ID>  (1) 
2AM9

>  <Generic Name>  (1) 
Testosterone

>  <Brand Name>  (1) 
Andriol#Androderm#Androgel#Aveed#Axiron#Delatestryl#Depo-testosterone#Depo-testosterone Inj 100mg/ml#Fortesta#Malogen Aqueous 100 Sus 100mg/ml#Malogex La200 Liq 200mg/ml#Natesto#Neo Pause Injection#PMS-testosterone#PMS-testosterone Enanthate Inj 200mg/ml USP#Scheinpharm Testone-cyp Inject.- Im 100mg/ml#Striant#Taro-testosterone#Testim#Testim 1%#Testopel#Testosterone#Testosterone Cypionate#Testosterone Cypionate Injection USP#Testosterone Cypionate Injection, USP#Testosterone Enanthate#Testosterone Enanthate Inj 200mg/ml#Vogelxo#Andronate 100#Andronate 200#Andropatch#Andropository 200#Andryl 200#Bio-T-Gel#Fortigel#Intrinsa#Livensa#Nebido#Sustanon#Testamone 100#Testaqua IM#Testoderm#Testoderm TTS#Testogel#Testolin#Testopatch#Testopel Pellets#Testrin-P.A#Testro AQ#Tostrelle#Tostrex#Virormone

>  <DrugBank ID>  (1) 
DB00624

>  <ATC Codes>  (1) 
G03EA02#G03BA03

>  <Ligand ID>  (1) 
TES

>  <Target Name>  (1) 
Androgen receptor

>  <UniProt ID>  (1) 
P10275

>  <PDB ID.1>  (1) 
2AM9

>  <Seq. Identity>  (1) 
100%

$$$$
