PDB_DB00255_03
     RDKit          3D

108110  0  0  0  0  0  0  0  0999 V2000
   -1.6634   -2.6134   -1.7312 C   0  0  0  0  0  0  0  0  0  0  0  0
   -0.5237   -1.6641   -1.4190 C   0  0  0  0  0  0  0  0  0  0  0  0
   -0.6308   -0.8455   -0.2052 C   0  0  0  0  0  0  0  0  0  0  0  0
   -1.7562    0.1256   -0.1784 C   0  0  0  0  0  0  0  0  0  0  0  0
   -3.1161   -0.5128   -0.2260 C   0  0  0  0  0  0  0  0  0  0  0  0
   -4.0427    0.0468    0.8563 C   0  0  0  0  0  0  0  0  0  0  0  0
   -4.1418    1.5353    0.8084 C   0  0  0  0  0  0  0  0  0  0  0  0
   -5.1076    1.9197   -0.1227 O   0  0  0  0  0  0  0  0  0  0  0  0
   -2.8108    2.1947    0.5294 C   0  0  0  0  0  0  0  0  0  0  0  0
   -1.7458    1.1396    0.9109 C   0  0  0  0  0  0  0  0  0  0  0  0
    0.6223   -0.3693    0.4442 C   0  0  0  0  0  0  0  0  0  0  0  0
    1.5455    0.5085   -0.2791 C   0  0  0  0  0  0  0  0  0  0  0  0
    2.2072    0.0655   -1.5232 C   0  0  0  0  0  0  0  0  0  0  0  0
    3.2004    1.2036   -1.8914 C   0  0  0  0  0  0  0  0  0  0  0  0
    4.3970    1.1109   -1.0001 C   0  0  0  0  0  0  0  0  0  0  0  0
    4.9644    2.3621   -0.7651 O   0  0  0  0  0  0  0  0  0  0  0  0
    3.9898    0.5513    0.3709 C   0  0  0  0  0  0  0  0  0  0  0  0
    2.6062    1.0267    0.6864 C   0  0  0  0  0  0  0  0  0  0  0  0
    1.4116   -1.5709    0.9815 C   0  0  0  0  0  0  0  0  0  0  0  0
    0.5844   -2.3439    1.9877 C   0  0  0  0  0  0  0  0  0  0  0  0
   -1.6634   -2.6134   -1.7312 C   0  0  0  0  0  0  0  0  0  0  0  0
   -0.5237   -1.6641   -1.4190 C   0  0  0  0  0  0  0  0  0  0  0  0
   -0.6308   -0.8455   -0.2052 C   0  0  0  0  0  0  0  0  0  0  0  0
   -1.7562    0.1256   -0.1784 C   0  0  0  0  0  0  0  0  0  0  0  0
   -3.1161   -0.5128   -0.2260 C   0  0  0  0  0  0  0  0  0  0  0  0
   -4.0427    0.0468    0.8563 C   0  0  0  0  0  0  0  0  0  0  0  0
   -4.1418    1.5353    0.8084 C   0  0  0  0  0  0  0  0  0  0  0  0
   -5.1076    1.9197   -0.1227 O   0  0  0  0  0  0  0  0  0  0  0  0
   -2.8108    2.1947    0.5294 C   0  0  0  0  0  0  0  0  0  0  0  0
   -1.7458    1.1396    0.9109 C   0  0  0  0  0  0  0  0  0  0  0  0
    0.6223   -0.3693    0.4442 C   0  0  0  0  0  0  0  0  0  0  0  0
    1.5455    0.5085   -0.2791 C   0  0  0  0  0  0  0  0  0  0  0  0
    2.2072    0.0655   -1.5232 C   0  0  0  0  0  0  0  0  0  0  0  0
    3.2004    1.2036   -1.8914 C   0  0  0  0  0  0  0  0  0  0  0  0
    4.3970    1.1109   -1.0001 C   0  0  0  0  0  0  0  0  0  0  0  0
    4.9644    2.3621   -0.7651 O   0  0  0  0  0  0  0  0  0  0  0  0
    3.9898    0.5513    0.3709 C   0  0  0  0  0  0  0  0  0  0  0  0
    2.6062    1.0267    0.6864 C   0  0  0  0  0  0  0  0  0  0  0  0
    1.4116   -1.5709    0.9815 C   0  0  0  0  0  0  0  0  0  0  0  0
    0.5844   -2.3439    1.9877 C   0  0  0  0  0  0  0  0  0  0  0  0
   -2.4957   -2.0858   -2.2187 H   0  0  0  0  0  0  0  0  0  0  0  0
   -1.9118   -3.3093   -0.9286 H   0  0  0  0  0  0  0  0  0  0  0  0
   -1.3139   -3.3250   -2.5719 H   0  0  0  0  0  0  0  0  0  0  0  0
    0.3956   -2.2806   -1.3748 H   0  0  0  0  0  0  0  0  0  0  0  0
   -0.3838   -0.9859   -2.3155 H   0  0  0  0  0  0  0  0  0  0  0  0
   -1.0151   -1.6498    0.5920 H   0  0  0  0  0  0  0  0  0  0  0  0
   -1.7159    0.6997   -1.1911 H   0  0  0  0  0  0  0  0  0  0  0  0
   -3.6668   -0.3747   -1.1713 H   0  0  0  0  0  0  0  0  0  0  0  0
   -3.0843   -1.5879   -0.0015 H   0  0  0  0  0  0  0  0  0  0  0  0
   -5.0518   -0.3604    0.6115 H   0  0  0  0  0  0  0  0  0  0  0  0
   -3.7920   -0.3613    1.8576 H   0  0  0  0  0  0  0  0  0  0  0  0
   -4.4568    1.8825    1.8235 H   0  0  0  0  0  0  0  0  0  0  0  0
   -4.9939    2.8899   -0.3107 H   0  0  0  0  0  0  0  0  0  0  0  0
   -2.7532    2.3670   -0.5660 H   0  0  0  0  0  0  0  0  0  0  0  0
   -2.6600    3.1265    1.0983 H   0  0  0  0  0  0  0  0  0  0  0  0
   -0.7940    1.6781    1.0740 H   0  0  0  0  0  0  0  0  0  0  0  0
   -2.0396    0.6825    1.8688 H   0  0  0  0  0  0  0  0  0  0  0  0
    0.3250    0.1412    1.3959 H   0  0  0  0  0  0  0  0  0  0  0  0
    1.0166    1.4858   -0.6028 H   0  0  0  0  0  0  0  0  0  0  0  0
    1.5717    0.0300   -2.4241 H   0  0  0  0  0  0  0  0  0  0  0  0
    2.8559   -0.8254   -1.4163 H   0  0  0  0  0  0  0  0  0  0  0  0
    3.4550    1.1434   -2.9704 H   0  0  0  0  0  0  0  0  0  0  0  0
    2.6486    2.1399   -1.6759 H   0  0  0  0  0  0  0  0  0  0  0  0
    5.1599    0.4618   -1.4593 H   0  0  0  0  0  0  0  0  0  0  0  0
    5.6060    2.2260    0.0010 H   0  0  0  0  0  0  0  0  0  0  0  0
    4.1737   -0.5148    0.4355 H   0  0  0  0  0  0  0  0  0  0  0  0
    4.6536    1.0223    1.1529 H   0  0  0  0  0  0  0  0  0  0  0  0
    2.3710    0.8103    1.7442 H   0  0  0  0  0  0  0  0  0  0  0  0
    2.6703    2.1608    0.6605 H   0  0  0  0  0  0  0  0  0  0  0  0
    1.7682   -2.2503    0.2304 H   0  0  0  0  0  0  0  0  0  0  0  0
    2.2552   -1.1561    1.5518 H   0  0  0  0  0  0  0  0  0  0  0  0
    1.2730   -2.8667    2.7137 H   0  0  0  0  0  0  0  0  0  0  0  0
    0.0171   -3.1643    1.4994 H   0  0  0  0  0  0  0  0  0  0  0  0
   -0.0777   -1.7201    2.5836 H   0  0  0  0  0  0  0  0  0  0  0  0
   -2.4957   -2.0858   -2.2187 H   0  0  0  0  0  0  0  0  0  0  0  0
   -1.9118   -3.3093   -0.9286 H   0  0  0  0  0  0  0  0  0  0  0  0
   -1.3139   -3.3250   -2.5719 H   0  0  0  0  0  0  0  0  0  0  0  0
    0.3956   -2.2806   -1.3748 H   0  0  0  0  0  0  0  0  0  0  0  0
   -0.3838   -0.9859   -2.3155 H   0  0  0  0  0  0  0  0  0  0  0  0
   -1.0151   -1.6498    0.5920 H   0  0  0  0  0  0  0  0  0  0  0  0
   -1.7159    0.6997   -1.1911 H   0  0  0  0  0  0  0  0  0  0  0  0
   -3.6668   -0.3747   -1.1713 H   0  0  0  0  0  0  0  0  0  0  0  0
   -3.0843   -1.5879   -0.0015 H   0  0  0  0  0  0  0  0  0  0  0  0
   -5.0518   -0.3604    0.6115 H   0  0  0  0  0  0  0  0  0  0  0  0
   -3.7920   -0.3613    1.8576 H   0  0  0  0  0  0  0  0  0  0  0  0
   -4.4568    1.8825    1.8235 H   0  0  0  0  0  0  0  0  0  0  0  0
   -4.9939    2.8899   -0.3107 H   0  0  0  0  0  0  0  0  0  0  0  0
   -2.7532    2.3670   -0.5660 H   0  0  0  0  0  0  0  0  0  0  0  0
   -2.6600    3.1265    1.0983 H   0  0  0  0  0  0  0  0  0  0  0  0
   -0.7940    1.6781    1.0740 H   0  0  0  0  0  0  0  0  0  0  0  0
   -2.0396    0.6825    1.8688 H   0  0  0  0  0  0  0  0  0  0  0  0
    0.3250    0.1412    1.3959 H   0  0  0  0  0  0  0  0  0  0  0  0
    1.0166    1.4858   -0.6028 H   0  0  0  0  0  0  0  0  0  0  0  0
    1.5717    0.0300   -2.4241 H   0  0  0  0  0  0  0  0  0  0  0  0
    2.8559   -0.8254   -1.4163 H   0  0  0  0  0  0  0  0  0  0  0  0
    3.4550    1.1434   -2.9704 H   0  0  0  0  0  0  0  0  0  0  0  0
    2.6486    2.1399   -1.6759 H   0  0  0  0  0  0  0  0  0  0  0  0
    5.1599    0.4618   -1.4593 H   0  0  0  0  0  0  0  0  0  0  0  0
    5.6060    2.2260    0.0010 H   0  0  0  0  0  0  0  0  0  0  0  0
    4.1737   -0.5148    0.4355 H   0  0  0  0  0  0  0  0  0  0  0  0
    4.6536    1.0223    1.1529 H   0  0  0  0  0  0  0  0  0  0  0  0
    2.3710    0.8103    1.7442 H   0  0  0  0  0  0  0  0  0  0  0  0
    2.6703    2.1608    0.6605 H   0  0  0  0  0  0  0  0  0  0  0  0
    1.7682   -2.2503    0.2304 H   0  0  0  0  0  0  0  0  0  0  0  0
    2.2552   -1.1561    1.5518 H   0  0  0  0  0  0  0  0  0  0  0  0
    1.2730   -2.8667    2.7137 H   0  0  0  0  0  0  0  0  0  0  0  0
    0.0171   -3.1643    1.4994 H   0  0  0  0  0  0  0  0  0  0  0  0
   -0.0777   -1.7201    2.5836 H   0  0  0  0  0  0  0  0  0  0  0  0
  1  2  1  0
  2  3  1  0
  3  4  1  0
  4  5  1  0
  5  6  1  0
  6  7  1  0
  7  8  1  0
  7  9  1  0
  4 10  1  0
  9 10  1  0
  3 11  1  0
 11 12  1  0
 12 13  1  0
 13 14  1  0
 14 15  1  0
 15 16  1  0
 15 17  1  0
 12 18  1  0
 17 18  1  0
 11 19  1  0
 19 20  1  0
 21 22  1  0
 22 23  1  0
 23 24  1  0
 24 25  1  0
 25 26  1  0
 26 27  1  0
 27 28  1  0
 27 29  1  0
 24 30  1  0
 29 30  1  0
 23 31  1  0
 31 32  1  0
 32 33  1  0
 33 34  1  0
 34 35  1  0
 35 36  1  0
 35 37  1  0
 32 38  1  0
 37 38  1  0
 31 39  1  0
 39 40  1  0
  1 41  1  0
  1 42  1  0
  1 43  1  0
  2 44  1  0
  2 45  1  0
  3 46  1  0
  4 47  1  0
  5 48  1  0
  5 49  1  0
  6 50  1  0
  6 51  1  0
  7 52  1  0
  8 53  1  0
  9 54  1  0
  9 55  1  0
 10 56  1  0
 10 57  1  0
 11 58  1  0
 12 59  1  0
 13 60  1  0
 13 61  1  0
 14 62  1  0
 14 63  1  0
 15 64  1  0
 16 65  1  0
 17 66  1  0
 17 67  1  0
 18 68  1  0
 18 69  1  0
 19 70  1  0
 19 71  1  0
 20 72  1  0
 20 73  1  0
 20 74  1  0
 21 75  1  0
 21 76  1  0
 21 77  1  0
 22 78  1  0
 22 79  1  0
 23 80  1  0
 24 81  1  0
 25 82  1  0
 25 83  1  0
 26 84  1  0
 26 85  1  0
 27 86  1  0
 28 87  1  0
 29 88  1  0
 29 89  1  0
 30 90  1  0
 30 91  1  0
 31 92  1  0
 32 93  1  0
 33 94  1  0
 33 95  1  0
 34 96  1  0
 34 97  1  0
 35 98  1  0
 36 99  1  0
 37100  1  0
 37101  1  0
 38102  1  0
 38103  1  0
 39104  1  0
 39105  1  0
 40106  1  0
 40107  1  0
 40108  1  0
M  END
>  <PDBID>  (1) 
4ZN7

>  <PDB ID>  (1) 
4ZN7

>  <Generic Name>  (1) 
Diethylstilbestrol

>  <Brand Name>  (1) 
Honvol Ampoules 250mg#Honvol Tablets 100mg#Stilbestrol 0.5mg Tablet#Stilbestrol 1.0mg Tablet#Stilbestrol Tab 1mg#Stilbestrol Tablets 0.1 mg#Stilbestrol Tablets 0.5 mg#Stilbestrol Tablets 1.0 mg#Stilboestrol Tab 0.1mg#Stilboestrol Tab 0.5mg#Distilbene#Stilbestrol#Stilbetin

>  <DrugBank ID>  (1) 
DB00255

>  <ATC Codes>  (1) 
L02AA01#G03CC05#L02AA04#G03CB02

>  <Ligand ID>  (1) 
DES

>  <Target Name>  (1) 
Estrogen receptor

>  <UniProt ID>  (1) 
P03372

>  <PDB ID.1>  (1) 
4ZN7

>  <Seq. Identity>  (1) 
93%

$$$$
