PDB_DB01264_03
     RDKit          3D

 91 94  0  0  0  0  0  0  0  0999 V2000
    6.6618   -0.8158    0.4554 N   0  0  0  0  0  0  0  0  0  0  0  0
    6.1212   -0.7608    1.7827 C   0  0  0  0  0  0  0  0  0  0  0  0
    5.3401    0.5222    1.9619 C   0  0  0  0  0  0  0  0  0  0  0  0
    4.1149    0.5297    1.0903 C   0  0  0  0  0  0  0  0  0  0  0  0
    3.5333   -0.8635    0.9568 C   0  0  0  0  0  0  0  0  0  0  0  0
    3.8820   -1.6366    2.2086 C   0  0  0  0  0  0  0  0  0  0  0  0
    5.3303   -1.9880    2.1592 C   0  0  0  0  0  0  0  0  0  0  0  0
    1.7825   -0.8097    0.8547 S   0  0  0  0  0  0  0  0  0  0  0  0
    1.2395   -0.0582    2.1058 O   0  0  0  0  0  0  0  0  0  0  0  0
    1.4800   -2.5590    1.3280 O   0  0  0  0  0  0  0  0  0  0  0  0
    1.3429   -0.6250   -0.5707 N   0  0  0  0  0  0  0  0  0  0  0  0
    1.9755   -1.4609   -1.5323 C   0  0  0  0  0  0  0  0  0  0  0  0
    1.2825   -1.9362   -2.7401 C   0  0  0  0  0  0  0  0  0  0  0  0
    0.8071   -0.9546   -3.7588 C   0  0  0  0  0  0  0  0  0  0  0  0
    2.2769   -2.8574   -3.4971 C   0  0  0  0  0  0  0  0  0  0  0  0
    1.1093    0.6852   -1.0318 C   0  0  0  0  0  0  0  0  0  0  0  0
    0.4199    1.6298   -0.0852 C   0  0  1  0  0  0  0  0  0  0  0  0
    0.5147    2.9319   -0.7719 O   0  0  0  0  0  0  0  0  0  0  0  0
   -1.0396    1.4725    0.0250 C   0  0  1  0  0  0  0  0  0  0  0  0
   -1.6824    0.3444    0.5504 N   0  0  0  0  0  0  0  0  0  0  0  0
   -1.6733   -0.9274   -0.0103 C   0  0  0  0  0  0  0  0  0  0  0  0
   -1.6710   -0.9472   -1.4043 O   0  0  0  0  0  0  0  0  0  0  0  0
   -2.8642   -1.6486    0.4038 O   0  0  0  0  0  0  0  0  0  0  0  0
   -2.5846   -2.7674    1.1135 C   0  0  1  0  0  0  0  0  0  0  0  0
   -3.1939   -2.7349    2.5194 C   0  0  0  0  0  0  0  0  0  0  0  0
   -4.5460   -2.7612    2.1924 O   0  0  0  0  0  0  0  0  0  0  0  0
   -4.6915   -3.7536    1.2553 C   0  0  1  0  0  0  0  0  0  0  0  0
   -5.5614   -3.2997    0.2693 O   0  0  0  0  0  0  0  0  0  0  0  0
   -5.1632   -3.9154   -0.9150 C   0  0  0  0  0  0  0  0  0  0  0  0
   -3.6455   -3.9194   -0.8815 C   0  0  0  0  0  0  0  0  0  0  0  0
   -3.3471   -3.9405    0.5713 C   0  0  1  0  0  0  0  0  0  0  0  0
   -1.6864    2.6472    0.7801 C   0  0  0  0  0  0  0  0  0  0  0  0
   -2.3362    4.9114    1.2208 C   0  0  0  0  0  0  0  0  0  0  0  0
   -2.5627    6.2420    0.5864 C   0  0  0  0  0  0  0  0  0  0  0  0
   -3.6606    6.0570   -0.4631 C   0  0  0  0  0  0  0  0  0  0  0  0
   -3.6057    4.6508   -1.0128 C   0  0  0  0  0  0  0  0  0  0  0  0
   -2.1310    4.2456   -1.1048 C   0  0  0  0  0  0  0  0  0  0  0  0
   -1.5320    3.9939    0.2393 C   0  0  0  0  0  0  0  0  0  0  0  0
    6.3500   -1.6014   -0.1308 H   0  0  0  0  0  0  0  0  0  0  0  0
    6.6809    0.0901   -0.0296 H   0  0  0  0  0  0  0  0  0  0  0  0
    6.9988   -0.6811    2.4823 H   0  0  0  0  0  0  0  0  0  0  0  0
    6.0305    1.3439    1.6199 H   0  0  0  0  0  0  0  0  0  0  0  0
    5.1134    0.7504    3.0226 H   0  0  0  0  0  0  0  0  0  0  0  0
    3.3206    1.2051    1.4689 H   0  0  0  0  0  0  0  0  0  0  0  0
    4.4496    0.9147    0.0818 H   0  0  0  0  0  0  0  0  0  0  0  0
    3.9712   -1.4063    0.0923 H   0  0  0  0  0  0  0  0  0  0  0  0
    3.6548   -1.0016    3.0976 H   0  0  0  0  0  0  0  0  0  0  0  0
    3.2387   -2.5308    2.3194 H   0  0  0  0  0  0  0  0  0  0  0  0
    5.4666   -2.7614    1.3482 H   0  0  0  0  0  0  0  0  0  0  0  0
    5.6712   -2.4057    3.1464 H   0  0  0  0  0  0  0  0  0  0  0  0
    1.9091    0.3748    2.6886 H   0  0  0  0  0  0  0  0  0  0  0  0
    1.2589   -2.9478    0.4614 H   0  0  0  0  0  0  0  0  0  0  0  0
    2.5265   -2.3176   -1.0283 H   0  0  0  0  0  0  0  0  0  0  0  0
    2.8715   -0.8403   -1.9061 H   0  0  0  0  0  0  0  0  0  0  0  0
    0.3826   -2.5829   -2.4833 H   0  0  0  0  0  0  0  0  0  0  0  0
   -0.2220   -0.6167   -3.6719 H   0  0  0  0  0  0  0  0  0  0  0  0
    0.8192   -1.4550   -4.8030 H   0  0  0  0  0  0  0  0  0  0  0  0
    1.5580   -0.1297   -3.9211 H   0  0  0  0  0  0  0  0  0  0  0  0
    2.9184   -3.3868   -2.7951 H   0  0  0  0  0  0  0  0  0  0  0  0
    2.8928   -2.1764   -4.1146 H   0  0  0  0  0  0  0  0  0  0  0  0
    1.7208   -3.5129   -4.1776 H   0  0  0  0  0  0  0  0  0  0  0  0
    0.6187    0.6779   -2.0098 H   0  0  0  0  0  0  0  0  0  0  0  0
    2.1311    1.1411   -1.2401 H   0  0  0  0  0  0  0  0  0  0  0  0
    0.9365    1.8390    0.8430 H   0  0  0  0  0  0  0  0  0  0  0  0
    0.3396    2.7132   -1.7266 H   0  0  0  0  0  0  0  0  0  0  0  0
   -1.4566    1.5963   -1.0417 H   0  0  0  0  0  0  0  0  0  0  0  0
   -2.0269    0.4262    1.5308 H   0  0  0  0  0  0  0  0  0  0  0  0
   -0.8962   -1.5715    0.3720 H   0  0  0  0  0  0  0  0  0  0  0  0
   -2.3844   -0.2989   -1.6727 H   0  0  0  0  0  0  0  0  0  0  0  0
   -1.4954   -2.9547    1.2247 H   0  0  0  0  0  0  0  0  0  0  0  0
   -2.8300   -3.6649    2.9985 H   0  0  0  0  0  0  0  0  0  0  0  0
   -2.8911   -1.8870    3.1165 H   0  0  0  0  0  0  0  0  0  0  0  0
   -5.0594   -4.6851    1.7177 H   0  0  0  0  0  0  0  0  0  0  0  0
   -5.6001   -4.9219   -0.9227 H   0  0  0  0  0  0  0  0  0  0  0  0
   -5.5130   -3.2802   -1.7515 H   0  0  0  0  0  0  0  0  0  0  0  0
   -3.2991   -3.0563   -1.4484 H   0  0  0  0  0  0  0  0  0  0  0  0
   -3.2382   -4.8196   -1.4077 H   0  0  0  0  0  0  0  0  0  0  0  0
   -2.9204   -4.9143    0.9186 H   0  0  0  0  0  0  0  0  0  0  0  0
   -1.3467    2.5665    1.8294 H   0  0  0  0  0  0  0  0  0  0  0  0
   -2.7904    2.4032    0.7951 H   0  0  0  0  0  0  0  0  0  0  0  0
   -1.7395    4.9209    2.1476 H   0  0  0  0  0  0  0  0  0  0  0  0
   -3.2920    4.4008    1.4626 H   0  0  0  0  0  0  0  0  0  0  0  0
   -1.6121    6.5863    0.1253 H   0  0  0  0  0  0  0  0  0  0  0  0
   -2.8833    6.9455    1.3750 H   0  0  0  0  0  0  0  0  0  0  0  0
   -3.4216    6.7428   -1.2789 H   0  0  0  0  0  0  0  0  0  0  0  0
   -4.6433    6.3015   -0.0658 H   0  0  0  0  0  0  0  0  0  0  0  0
   -3.9848    4.6639   -2.0518 H   0  0  0  0  0  0  0  0  0  0  0  0
   -4.2023    3.9289   -0.4555 H   0  0  0  0  0  0  0  0  0  0  0  0
   -1.6284    5.1356   -1.5705 H   0  0  0  0  0  0  0  0  0  0  0  0
   -1.9899    3.4132   -1.7940 H   0  0  0  0  0  0  0  0  0  0  0  0
   -0.4986    4.4047    0.3623 H   0  0  0  0  0  0  0  0  0  0  0  0
  1  2  1  0
  2  3  1  0
  3  4  1  0
  4  5  1  0
  5  6  1  0
  2  7  1  0
  6  7  1  0
  5  8  1  0
  8  9  1  0
  8 10  1  0
  8 11  1  0
 11 12  1  0
 12 13  1  0
 13 14  1  0
 13 15  1  0
 11 16  1  0
 16 17  1  0
 17 18  1  0
 17 19  1  0
 19 20  1  0
 20 21  1  0
 21 22  1  0
 21 23  1  0
 23 24  1  0
 24 25  1  0
 25 26  1  0
 26 27  1  0
 27 28  1  0
 28 29  1  0
 29 30  1  0
 24 31  1  0
 27 31  1  0
 30 31  1  0
 19 32  1  0
 33 34  1  0
 34 35  1  0
 35 36  1  0
 36 37  1  0
 32 38  1  0
 33 38  1  0
 37 38  1  0
  1 39  1  0
  1 40  1  0
  2 41  1  0
  3 42  1  0
  3 43  1  0
  4 44  1  0
  4 45  1  0
  5 46  1  0
  6 47  1  0
  6 48  1  0
  7 49  1  0
  7 50  1  0
  9 51  1  0
 10 52  1  0
 12 53  1  0
 12 54  1  0
 13 55  1  0
 14 56  1  0
 14 57  1  0
 14 58  1  0
 15 59  1  0
 15 60  1  0
 15 61  1  0
 16 62  1  0
 16 63  1  0
 17 64  1  1
 18 65  1  0
 19 66  1  6
 20 67  1  0
 21 68  1  0
 22 69  1  0
 24 70  1  1
 25 71  1  0
 25 72  1  0
 27 73  1  1
 29 74  1  0
 29 75  1  0
 30 76  1  0
 30 77  1  0
 31 78  1  1
 32 79  1  0
 32 80  1  0
 33 81  1  0
 33 82  1  0
 34 83  1  0
 34 84  1  0
 35 85  1  0
 35 86  1  0
 36 87  1  0
 36 88  1  0
 37 89  1  0
 37 90  1  0
 38 91  1  0
M  END
>  <PDBID>  (1) 
4HLA

>  <PDB ID>  (1) 
4HLA

>  <Generic Name>  (1) 
Darunavir

>  <Brand Name>  (1) 
Pat-darunavir#Prezcobix#Prezista

>  <DrugBank ID>  (1) 
DB01264

>  <ATC Codes>  (1) 
J05AE10#J05AR14

>  <Ligand ID>  (1) 
17

>  <Target Name>  (1) 
Pol polyprotein

>  <UniProt ID>  (1) 
Q72874

>  <PDB ID.1>  (1) 
4HLA

>  <Seq. Identity>  (1) 
99%

$$$$
