PDB_DB00705_00
     RDKit          3D

 78 81  0  0  0  0  0  0  0  0999 V2000
   -4.1511   -0.6587    1.0680 C   0  0  0  0  0  0  0  0  0  0  0  0
   -5.4586   -0.3332    0.3289 C   0  0  0  0  0  0  0  0  0  0  0  0
   -6.5614   -0.8013    1.2678 C   0  0  0  0  0  0  0  0  0  0  0  0
   -6.4770   -2.2994    1.3576 C   0  0  0  0  0  0  0  0  0  0  0  0
   -5.0915   -2.6346    1.8944 C   0  0  0  0  0  0  0  0  0  0  0  0
   -2.6233   -0.2448   -0.7094 C   0  0  0  0  0  0  0  0  0  0  0  0
   -1.1257   -0.2411   -0.9487 C   0  0  0  0  0  0  0  0  0  0  0  0
   -0.9354    1.1847    0.9889 C   0  0  0  0  0  0  0  0  0  0  0  0
   -2.3263    0.7963    1.4497 C   0  0  0  0  0  0  0  0  0  0  0  0
    0.6745   -0.5992    0.6391 C   0  0  0  0  0  0  0  0  0  0  0  0
    1.7281   -0.8441   -0.4310 C   0  0  0  0  0  0  0  0  0  0  0  0
    2.3713    0.4741   -0.8395 C   0  0  0  0  0  0  0  0  0  0  0  0
    4.7332    1.2506   -0.5855 C   0  0  0  0  0  0  0  0  0  0  0  0
    6.1069    0.8169   -0.0475 C   0  0  0  0  0  0  0  0  0  0  0  0
    5.8795   -0.1263    1.1377 C   0  0  0  0  0  0  0  0  0  0  0  0
    5.1073   -1.3638    0.7473 C   0  0  0  0  0  0  0  0  0  0  0  0
    4.0059   -1.0528   -0.2161 C   0  0  0  0  0  0  0  0  0  0  0  0
    3.6550    0.4235    0.0108 C   0  0  0  0  0  0  0  0  0  0  0  0
   -6.3509    1.4351   -1.0777 C   0  0  0  0  0  0  0  0  0  0  0  0
   -7.8049    1.1133   -1.0255 C   0  0  0  0  0  0  0  0  0  0  0  0
   -6.2477    2.9624   -1.2013 C   0  0  0  0  0  0  0  0  0  0  0  0
    9.1232    1.7442   -1.4117 C   0  0  0  0  0  0  0  0  0  0  0  0
   -5.5716    1.0554    0.0448 N   0  0  0  0  0  0  0  0  0  0  0  0
   -4.0556   -2.1291    1.0272 N   0  0  0  0  0  0  0  0  0  0  0  0
   -3.0420   -0.0007    0.5876 N   0  0  0  0  0  0  0  0  0  0  0  0
   -0.3453    0.2365    0.1253 N   0  0  0  0  0  0  0  0  0  0  0  0
    2.7645   -1.7084    0.0426 N   0  0  0  0  0  0  0  0  0  0  0  0
    6.8522    0.2217   -1.1094 N   0  0  0  0  0  0  0  0  0  0  0  0
    0.1408   -1.8580    0.9614 O   0  0  0  0  0  0  0  0  0  0  0  0
    8.8384    0.0760    0.6547 O   0  0  0  0  0  0  0  0  0  0  0  0
    9.2074   -0.9721   -1.7068 O   0  0  0  0  0  0  0  0  0  0  0  0
    8.6241    0.2430   -0.6015 S   0  0  0  0  0  0  0  0  0  0  0  0
   -4.3849   -0.4553    2.1606 H   0  0  0  0  0  0  0  0  0  0  0  0
   -5.4213   -0.9579   -0.5903 H   0  0  0  0  0  0  0  0  0  0  0  0
   -7.5501   -0.4171    1.0369 H   0  0  0  0  0  0  0  0  0  0  0  0
   -6.2720   -0.4165    2.2907 H   0  0  0  0  0  0  0  0  0  0  0  0
   -7.2024   -2.7058    2.0974 H   0  0  0  0  0  0  0  0  0  0  0  0
   -6.6114   -2.7685    0.3761 H   0  0  0  0  0  0  0  0  0  0  0  0
   -4.9819   -3.7140    2.0032 H   0  0  0  0  0  0  0  0  0  0  0  0
   -4.9714   -2.1271    2.8841 H   0  0  0  0  0  0  0  0  0  0  0  0
   -3.0442    0.5193   -1.4466 H   0  0  0  0  0  0  0  0  0  0  0  0
   -3.0395   -1.2440   -1.0689 H   0  0  0  0  0  0  0  0  0  0  0  0
   -0.9139    0.4088   -1.8366 H   0  0  0  0  0  0  0  0  0  0  0  0
   -0.8336   -1.2851   -1.1976 H   0  0  0  0  0  0  0  0  0  0  0  0
   -0.9366    2.2005    0.5274 H   0  0  0  0  0  0  0  0  0  0  0  0
   -0.3126    1.2971    1.9079 H   0  0  0  0  0  0  0  0  0  0  0  0
   -2.2266    0.3269    2.4678 H   0  0  0  0  0  0  0  0  0  0  0  0
   -2.8580    1.7790    1.6135 H   0  0  0  0  0  0  0  0  0  0  0  0
    1.1602   -0.2259    1.5529 H   0  0  0  0  0  0  0  0  0  0  0  0
    1.2350   -1.2820   -1.3120 H   0  0  0  0  0  0  0  0  0  0  0  0
    1.8197    1.3574   -0.5243 H   0  0  0  0  0  0  0  0  0  0  0  0
    2.6944    0.4540   -1.8818 H   0  0  0  0  0  0  0  0  0  0  0  0
    4.6901    1.1669   -1.6954 H   0  0  0  0  0  0  0  0  0  0  0  0
    4.5187    2.3230   -0.3115 H   0  0  0  0  0  0  0  0  0  0  0  0
    6.5772    1.7258    0.3667 H   0  0  0  0  0  0  0  0  0  0  0  0
    6.8555   -0.3965    1.5461 H   0  0  0  0  0  0  0  0  0  0  0  0
    5.3180    0.4885    1.8825 H   0  0  0  0  0  0  0  0  0  0  0  0
    4.6915   -1.8096    1.6845 H   0  0  0  0  0  0  0  0  0  0  0  0
    5.8297   -2.0562    0.2708 H   0  0  0  0  0  0  0  0  0  0  0  0
    4.3465   -1.1459   -1.2727 H   0  0  0  0  0  0  0  0  0  0  0  0
    3.4103    0.6225    1.0516 H   0  0  0  0  0  0  0  0  0  0  0  0
   -5.9659    1.0485   -2.0565 H   0  0  0  0  0  0  0  0  0  0  0  0
   -8.2857    1.7222   -1.8484 H   0  0  0  0  0  0  0  0  0  0  0  0
   -8.0879    0.0824   -1.2402 H   0  0  0  0  0  0  0  0  0  0  0  0
   -8.2770    1.5447   -0.1002 H   0  0  0  0  0  0  0  0  0  0  0  0
   -5.2674    3.2730   -1.5807 H   0  0  0  0  0  0  0  0  0  0  0  0
   -7.0950    3.3266   -1.8228 H   0  0  0  0  0  0  0  0  0  0  0  0
   -6.4264    3.3859   -0.1695 H   0  0  0  0  0  0  0  0  0  0  0  0
   10.0340    2.0811   -0.8959 H   0  0  0  0  0  0  0  0  0  0  0  0
    8.2999    2.4857   -1.3441 H   0  0  0  0  0  0  0  0  0  0  0  0
    9.3616    1.5244   -2.4678 H   0  0  0  0  0  0  0  0  0  0  0  0
   -4.6481    1.5112   -0.0039 H   0  0  0  0  0  0  0  0  0  0  0  0
   -4.3305   -2.3711    0.0354 H   0  0  0  0  0  0  0  0  0  0  0  0
    2.7794   -2.6421   -0.4359 H   0  0  0  0  0  0  0  0  0  0  0  0
    6.7188   -0.7914   -1.1696 H   0  0  0  0  0  0  0  0  0  0  0  0
    0.0989   -2.4600    0.1819 H   0  0  0  0  0  0  0  0  0  0  0  0
    9.1902    0.2218    1.5709 H   0  0  0  0  0  0  0  0  0  0  0  0
    8.6710   -1.7713   -1.5118 H   0  0  0  0  0  0  0  0  0  0  0  0
  1  2  1  0
  2  3  1  0
  3  4  1  0
  4  5  1  0
  6  7  1  0
  8  9  1  0
 10 11  1  0
 11 12  1  0
 13 14  1  0
 14 15  1  0
 15 16  1  0
 16 17  1  0
 12 18  1  0
 13 18  1  0
 17 18  1  0
 19 20  1  0
 19 21  1  0
  2 23  1  0
 19 23  1  0
  1 24  1  0
  5 24  1  0
  1 25  1  0
  6 25  1  0
  9 25  1  0
  7 26  1  0
  8 26  1  0
 10 26  1  0
 11 27  1  0
 17 27  1  0
 14 28  1  0
 10 29  1  0
 22 32  1  0
 28 32  1  0
 32 30  1  0
 31 32  1  0
  1 33  1  0
  2 34  1  0
  3 35  1  0
  3 36  1  0
  4 37  1  0
  4 38  1  0
  5 39  1  0
  5 40  1  0
  6 41  1  0
  6 42  1  0
  7 43  1  0
  7 44  1  0
  8 45  1  0
  8 46  1  0
  9 47  1  0
  9 48  1  0
 10 49  1  0
 11 50  1  0
 12 51  1  0
 12 52  1  0
 13 53  1  0
 13 54  1  0
 14 55  1  0
 15 56  1  0
 15 57  1  0
 16 58  1  0
 16 59  1  0
 17 60  1  0
 18 61  1  0
 19 62  1  0
 20 63  1  0
 20 64  1  0
 20 65  1  0
 21 66  1  0
 21 67  1  0
 21 68  1  0
 22 69  1  0
 22 70  1  0
 22 71  1  0
 23 72  1  0
 24 73  1  0
 27 74  1  0
 28 75  1  0
 29 76  1  0
 30 77  1  0
 31 78  1  0
M  END
>  <PDBID>  (1) 
1KLM

>  <PDB ID>  (1) 
1KLM

>  <Generic Name>  (1) 
Delavirdine

>  <Brand Name>  (1) 
Rescriptor

>  <DrugBank ID>  (1) 
DB00705

>  <ATC Codes>  (1) 
J05AG02

>  <Ligand ID>  (1) 
SPP

>  <Target Name>  (1) 
Reverse transcriptase/RNaseH

>  <UniProt ID>  (1) 
Q72547

>  <PDB ID.1>  (1) 
1KLM

>  <Seq. Identity>  (1) 
95%

$$$$
