PDB_DB09079_06
     RDKit          3D

 99103  0  0  0  0  0  0  0  0999 V2000
   -2.8880   -1.0167   -0.3519 C   0  0  0  0  0  0  0  0  0  0  0  0
   -3.7729   -0.1381    0.3354 C   0  0  0  0  0  0  0  0  0  0  0  0
   -1.7947   -0.8137   -1.2889 C   0  0  0  0  0  0  0  0  0  0  0  0
   -2.6805   -2.1987    0.6042 C   0  0  0  0  0  0  0  0  0  0  0  0
   -4.6940   -1.1364    1.0951 C   0  0  0  0  0  0  0  0  0  0  0  0
   -4.7439    0.7400   -0.4047 C   0  0  0  0  0  0  0  0  0  0  0  0
   -2.2173   -0.2198   -2.6283 C   0  0  0  0  0  0  0  0  0  0  0  0
   -5.3060   -0.3932    2.2445 C   0  0  0  0  0  0  0  0  0  0  0  0
   -6.1150    0.7531    0.1880 C   0  0  0  0  0  0  0  0  0  0  0  0
    0.5372   -0.0693   -0.7337 C   0  0  0  0  0  0  0  0  0  0  0  0
   -6.1257    0.7485    1.7132 C   0  0  1  0  0  0  0  0  0  0  0  0
   -2.7727    1.6647   -4.0372 C   0  0  0  0  0  0  0  0  0  0  0  0
   -1.6396   -0.3710   -4.9736 C   0  0  0  0  0  0  0  0  0  0  0  0
    1.1726   -1.0785    0.1416 C   0  0  0  0  0  0  0  0  0  0  0  0
   -7.6118    0.5862    2.0685 C   0  0  2  0  0  0  0  0  0  0  0  0
    1.3101   -0.7042    1.5941 C   0  0  0  0  0  0  0  0  0  0  0  0
    1.3054    1.6085    0.9431 C   0  0  0  0  0  0  0  0  0  0  0  0
   -8.0956   -0.5645    1.5122 O   0  0  0  0  0  0  0  0  0  0  0  0
   -8.2615    1.6739    1.4312 O   0  0  0  0  0  0  0  0  0  0  0  0
    2.1230    0.5880    1.6772 C   0  0  0  0  0  0  0  0  0  0  0  0
    4.1777   -0.4876    2.0643 C   0  0  1  0  0  0  0  0  0  0  0  0
    4.1231    1.5294    0.7154 C   0  0  0  0  0  0  0  0  0  0  0  0
    5.5679   -0.1944    2.4405 C   0  0  0  0  0  0  0  0  0  0  0  0
    6.7986   -1.0999    0.5551 C   0  0  0  0  0  0  0  0  0  0  0  0
    7.6234    0.7940    1.7165 C   0  0  0  0  0  0  0  0  0  0  0  0
    7.2614   -0.5140   -0.7823 C   0  0  0  0  0  0  0  0  0  0  0  0
    8.7634    0.5095    0.7754 C   0  0  0  0  0  0  0  0  0  0  0  0
    9.2934    0.4615   -1.5662 C   0  0  0  0  0  0  0  0  0  0  0  0
    3.4844   -0.6121    3.3007 O   0  0  0  0  0  0  0  0  0  0  0  0
    6.4869    0.0000    1.3863 N   0  0  0  0  0  0  0  0  0  0  0  0
    8.2438    0.5344   -0.5778 N   0  0  0  0  0  0  0  0  0  0  0  0
    3.4549    0.4083    1.2616 N   0  0  0  0  0  0  0  0  0  0  0  0
    1.2188    1.3150   -0.5322 C   0  0  0  0  0  0  0  0  0  0  0  0
   -0.8129    0.1581   -0.7644 N   0  0  0  0  0  0  0  0  0  0  0  0
   -0.9688   -0.3613   -3.5913 C   0  0  0  0  0  0  0  0  0  0  0  0
   -2.8640    0.5104   -4.9786 C   0  0  0  0  0  0  0  0  0  0  0  0
   -2.3271    1.2900   -2.6365 C   0  0  0  0  0  0  0  0  0  0  0  0
   -8.7552   -1.4121    2.3499 C   0  0  0  0  0  0  0  0  0  0  0  0
   -3.8038   -2.1534    1.4992 N   0  0  0  0  0  0  0  0  0  0  0  0
   -1.5449   -2.0981    1.3410 O   0  0  0  0  0  0  0  0  0  0  0  0
   -3.7105   -1.5986   -1.0897 H   0  0  0  0  0  0  0  0  0  0  0  0
   -3.3401    0.4450    1.1965 H   0  0  0  0  0  0  0  0  0  0  0  0
   -1.2471   -1.7282   -1.4899 H   0  0  0  0  0  0  0  0  0  0  0  0
   -2.7034   -3.1706    0.0186 H   0  0  0  0  0  0  0  0  0  0  0  0
   -5.5046   -1.5022    0.4218 H   0  0  0  0  0  0  0  0  0  0  0  0
   -4.3629    1.7985   -0.2570 H   0  0  0  0  0  0  0  0  0  0  0  0
   -4.8323    0.5116   -1.4572 H   0  0  0  0  0  0  0  0  0  0  0  0
   -3.0395   -0.6719   -3.1116 H   0  0  0  0  0  0  0  0  0  0  0  0
   -5.9136   -1.1348    2.8152 H   0  0  0  0  0  0  0  0  0  0  0  0
   -4.5201   -0.0454    2.9499 H   0  0  0  0  0  0  0  0  0  0  0  0
   -6.5767    1.7586   -0.0736 H   0  0  0  0  0  0  0  0  0  0  0  0
   -6.7927    0.0124   -0.2351 H   0  0  0  0  0  0  0  0  0  0  0  0
    0.9640   -0.3383   -1.7871 H   0  0  0  0  0  0  0  0  0  0  0  0
   -5.7818    1.7009    2.1194 H   0  0  0  0  0  0  0  0  0  0  0  0
   -2.0696    2.4094   -4.5196 H   0  0  0  0  0  0  0  0  0  0  0  0
   -3.7544    2.1760   -4.0050 H   0  0  0  0  0  0  0  0  0  0  0  0
   -0.9442   -0.1127   -5.7873 H   0  0  0  0  0  0  0  0  0  0  0  0
   -1.9803   -1.4407   -5.1168 H   0  0  0  0  0  0  0  0  0  0  0  0
    2.2578   -1.1626   -0.2148 H   0  0  0  0  0  0  0  0  0  0  0  0
    0.7623   -2.0663   -0.0500 H   0  0  0  0  0  0  0  0  0  0  0  0
   -7.7858    0.7035    3.1566 H   0  0  0  0  0  0  0  0  0  0  0  0
    0.3551   -0.4776    2.0795 H   0  0  0  0  0  0  0  0  0  0  0  0
    1.8034   -1.5601    2.0883 H   0  0  0  0  0  0  0  0  0  0  0  0
    1.5494    2.6487    1.1124 H   0  0  0  0  0  0  0  0  0  0  0  0
    0.2464    1.4715    1.3180 H   0  0  0  0  0  0  0  0  0  0  0  0
   -8.3596    2.4439    2.0270 H   0  0  0  0  0  0  0  0  0  0  0  0
    2.1064    0.8819    2.7582 H   0  0  0  0  0  0  0  0  0  0  0  0
    4.0628   -1.5207    1.6193 H   0  0  0  0  0  0  0  0  0  0  0  0
    4.4728    1.2759   -0.3094 H   0  0  0  0  0  0  0  0  0  0  0  0
    3.4910    2.4568    0.6149 H   0  0  0  0  0  0  0  0  0  0  0  0
    5.0134    1.8858    1.2718 H   0  0  0  0  0  0  0  0  0  0  0  0
    5.5872    0.6899    3.1111 H   0  0  0  0  0  0  0  0  0  0  0  0
    5.9415   -1.0398    3.0624 H   0  0  0  0  0  0  0  0  0  0  0  0
    5.9749   -1.7834    0.3214 H   0  0  0  0  0  0  0  0  0  0  0  0
    7.6353   -1.6754    0.9590 H   0  0  0  0  0  0  0  0  0  0  0  0
    7.9434    0.5085    2.7499 H   0  0  0  0  0  0  0  0  0  0  0  0
    7.4163    1.8680    1.7511 H   0  0  0  0  0  0  0  0  0  0  0  0
    6.3715   -0.0397   -1.2770 H   0  0  0  0  0  0  0  0  0  0  0  0
    7.5980   -1.3180   -1.4624 H   0  0  0  0  0  0  0  0  0  0  0  0
    9.2653   -0.4661    1.0118 H   0  0  0  0  0  0  0  0  0  0  0  0
    9.5562    1.2734    0.8512 H   0  0  0  0  0  0  0  0  0  0  0  0
    9.9316    1.3441   -1.4850 H   0  0  0  0  0  0  0  0  0  0  0  0
    8.7691    0.4459   -2.5634 H   0  0  0  0  0  0  0  0  0  0  0  0
    9.8564   -0.4906   -1.4898 H   0  0  0  0  0  0  0  0  0  0  0  0
    4.0625   -1.2096    3.8406 H   0  0  0  0  0  0  0  0  0  0  0  0
    2.1730    1.3362   -1.0453 H   0  0  0  0  0  0  0  0  0  0  0  0
    0.5491    2.0638   -0.9905 H   0  0  0  0  0  0  0  0  0  0  0  0
   -1.1427    0.5652    0.1377 H   0  0  0  0  0  0  0  0  0  0  0  0
   -0.5061   -1.3225   -3.3559 H   0  0  0  0  0  0  0  0  0  0  0  0
   -0.3394    0.5216   -3.5520 H   0  0  0  0  0  0  0  0  0  0  0  0
   -2.9176    0.9511   -6.0201 H   0  0  0  0  0  0  0  0  0  0  0  0
   -3.8183   -0.0564   -4.8842 H   0  0  0  0  0  0  0  0  0  0  0  0
   -1.2847    1.7453   -2.5649 H   0  0  0  0  0  0  0  0  0  0  0  0
   -2.8931    1.7748   -1.9033 H   0  0  0  0  0  0  0  0  0  0  0  0
   -9.6595   -0.9611    2.8433 H   0  0  0  0  0  0  0  0  0  0  0  0
   -8.1144   -1.8796    3.1087 H   0  0  0  0  0  0  0  0  0  0  0  0
   -9.1865   -2.2368    1.7181 H   0  0  0  0  0  0  0  0  0  0  0  0
   -4.2145   -3.0762    1.6841 H   0  0  0  0  0  0  0  0  0  0  0  0
   -1.5697   -2.3735    2.2734 H   0  0  0  0  0  0  0  0  0  0  0  0
  1  2  1  0
  1  3  1  0
  1  4  1  0
  2  5  1  0
  2  6  1  0
  3  7  1  0
  5  8  1  0
  6  9  1  0
  8 11  1  0
  9 11  1  0
 10 14  1  0
 11 15  1  0
 14 16  1  0
 15 18  1  0
 15 19  1  0
 16 20  1  0
 17 20  1  0
 21 23  1  0
 24 26  1  0
 25 27  1  0
 21 29  1  0
 23 30  1  0
 24 30  1  0
 25 30  1  0
 26 31  1  0
 27 31  1  0
 28 31  1  0
 20 32  1  0
 21 32  1  0
 22 32  1  0
 10 33  1  0
 17 33  1  0
  3 34  1  0
 10 34  1  0
  7 35  1  0
 13 35  1  0
 12 36  1  0
 13 36  1  0
  7 37  1  0
 12 37  1  0
 18 38  1  0
  4 39  1  0
  5 39  1  0
  4 40  1  0
  1 41  1  0
  2 42  1  0
  3 43  1  0
  4 44  1  0
  5 45  1  0
  6 46  1  0
  6 47  1  0
  7 48  1  0
  8 49  1  0
  8 50  1  0
  9 51  1  0
  9 52  1  0
 10 53  1  0
 11 54  1  1
 12 55  1  0
 12 56  1  0
 13 57  1  0
 13 58  1  0
 14 59  1  0
 14 60  1  0
 15 61  1  1
 16 62  1  0
 16 63  1  0
 17 64  1  0
 17 65  1  0
 19 66  1  0
 20 67  1  0
 21 68  1  6
 22 69  1  0
 22 70  1  0
 22 71  1  0
 23 72  1  0
 23 73  1  0
 24 74  1  0
 24 75  1  0
 25 76  1  0
 25 77  1  0
 26 78  1  0
 26 79  1  0
 27 80  1  0
 27 81  1  0
 28 82  1  0
 28 83  1  0
 28 84  1  0
 29 85  1  0
 33 86  1  0
 33 87  1  0
 34 88  1  0
 35 89  1  0
 35 90  1  0
 36 91  1  0
 36 92  1  0
 37 93  1  0
 37 94  1  0
 38 95  1  0
 38 96  1  0
 38 97  1  0
 39 98  1  0
 40 99  1  0
M  END
>  <PDBID>  (1) 
3C7Q

>  <PDB ID>  (1) 
3C7Q

>  <Generic Name>  (1) 
Nintedanib

>  <Brand Name>  (1) 
Ofev#Vargatef

>  <DrugBank ID>  (1) 
DB09079

>  <ATC Codes>  (1) 
L01XE31

>  <Ligand ID>  (1) 
XIN

>  <Target Name>  (1) 
Vascular endothelial growth factor receptor 3

>  <UniProt ID>  (1) 
P35916

>  <PDB ID.1>  (1) 
3C7Q

>  <Seq. Identity>  (1) 
67%

$$$$
