PDB_DB01117_01
     RDKit          3D

 63 66  0  0  0  0  0  0  0  0999 V2000
   -1.6090    1.5401   -1.9214 O   0  0  0  0  0  0  0  0  0  0  0  0
   -2.7836    0.9986    2.3670 O   0  0  0  0  0  0  0  0  0  0  0  0
   -2.2202    1.1297   -0.7661 C   0  0  0  0  0  0  0  0  0  0  0  0
   -1.6469   -0.2043   -0.3384 C   0  0  0  0  0  0  0  0  0  0  0  0
   -2.3381   -0.7283    0.8583 C   0  0  0  0  0  0  0  0  0  0  0  0
   -3.3998    0.1349    1.4309 C   0  0  0  0  0  0  0  0  0  0  0  0
   -5.7121    0.3233    0.4857 C   0  0  0  0  0  0  0  0  0  0  0  0
   -5.9616   -0.8230   -0.4042 C   0  0  0  0  0  0  0  0  0  0  0  0
   -4.9763   -1.0812   -1.4684 C   0  0  0  0  0  0  0  0  0  0  0  0
   -4.1849    0.0881   -1.9398 C   0  0  0  0  0  0  0  0  0  0  0  0
   -3.7445    1.0527   -0.9015 C   0  0  0  0  0  0  0  0  0  0  0  0
   -4.2832    0.8587    0.4687 C   0  0  0  0  0  0  0  0  0  0  0  0
   -1.4493   -0.9951    1.9310 O   0  0  0  0  0  0  0  0  0  0  0  0
    0.3540    0.9349    0.6806 C   0  0  0  0  0  0  0  0  0  0  0  0
    1.8433    1.1013    0.4987 C   0  0  0  0  0  0  0  0  0  0  0  0
    2.6141   -0.1414    0.3612 C   0  0  0  0  0  0  0  0  0  0  0  0
    1.9815   -1.1997   -0.5044 C   0  0  0  0  0  0  0  0  0  0  0  0
    0.5535   -1.3803    0.0127 C   0  0  0  0  0  0  0  0  0  0  0  0
   -0.1694   -0.1058   -0.2832 C   0  0  0  0  0  0  0  0  0  0  0  0
    7.8154    1.2594    0.3610 Cl  0  0  0  0  0  0  0  0  0  0  0  0
    3.9676    0.1691   -0.2447 C   0  0  0  0  0  0  0  0  0  0  0  0
    4.7738    1.1162    0.5865 C   0  0  0  0  0  0  0  0  0  0  0  0
    5.6384    0.2946    1.5308 C   0  0  0  0  0  0  0  0  0  0  0  0
    6.8174   -0.2000    0.6841 C   0  0  0  0  0  0  0  0  0  0  0  0
    6.2442   -0.7623   -0.5845 C   0  0  0  0  0  0  0  0  0  0  0  0
    4.7668   -1.0846   -0.4681 C   0  0  0  0  0  0  0  0  0  0  0  0
   -1.7979    2.4584   -2.1897 H   0  0  0  0  0  0  0  0  0  0  0  0
   -3.4992    1.2840    2.9895 H   0  0  0  0  0  0  0  0  0  0  0  0
   -2.0767    1.8498    0.0931 H   0  0  0  0  0  0  0  0  0  0  0  0
   -1.8860   -0.9079   -1.1916 H   0  0  0  0  0  0  0  0  0  0  0  0
   -2.8039   -1.7467    0.6818 H   0  0  0  0  0  0  0  0  0  0  0  0
   -4.0764   -0.5092    2.0669 H   0  0  0  0  0  0  0  0  0  0  0  0
   -5.9427    0.1341    1.5653 H   0  0  0  0  0  0  0  0  0  0  0  0
   -6.4130    1.1611    0.1972 H   0  0  0  0  0  0  0  0  0  0  0  0
   -6.9966   -0.7515   -0.8530 H   0  0  0  0  0  0  0  0  0  0  0  0
   -6.0373   -1.7464    0.2445 H   0  0  0  0  0  0  0  0  0  0  0  0
   -4.3008   -1.9374   -1.1730 H   0  0  0  0  0  0  0  0  0  0  0  0
   -5.5198   -1.5045   -2.3654 H   0  0  0  0  0  0  0  0  0  0  0  0
   -4.8009    0.5907   -2.7468 H   0  0  0  0  0  0  0  0  0  0  0  0
   -3.3150   -0.3351   -2.5295 H   0  0  0  0  0  0  0  0  0  0  0  0
   -4.0253    2.0856   -1.2704 H   0  0  0  0  0  0  0  0  0  0  0  0
   -4.4034    1.8978    0.9147 H   0  0  0  0  0  0  0  0  0  0  0  0
   -1.8505   -1.6159    2.5600 H   0  0  0  0  0  0  0  0  0  0  0  0
    0.0671    0.7657    1.7188 H   0  0  0  0  0  0  0  0  0  0  0  0
   -0.0668    1.9493    0.4092 H   0  0  0  0  0  0  0  0  0  0  0  0
    2.0713    1.7960   -0.3462 H   0  0  0  0  0  0  0  0  0  0  0  0
    2.2053    1.6409    1.4228 H   0  0  0  0  0  0  0  0  0  0  0  0
    2.8312   -0.6022    1.3642 H   0  0  0  0  0  0  0  0  0  0  0  0
    1.9845   -0.9301   -1.5738 H   0  0  0  0  0  0  0  0  0  0  0  0
    2.4960   -2.1601   -0.2891 H   0  0  0  0  0  0  0  0  0  0  0  0
    0.1476   -2.2689   -0.4777 H   0  0  0  0  0  0  0  0  0  0  0  0
    0.7114   -1.5370    1.1206 H   0  0  0  0  0  0  0  0  0  0  0  0
    0.1794    0.2421   -1.2891 H   0  0  0  0  0  0  0  0  0  0  0  0
    3.7676    0.6390   -1.2403 H   0  0  0  0  0  0  0  0  0  0  0  0
    4.2045    1.8875    1.1002 H   0  0  0  0  0  0  0  0  0  0  0  0
    5.4808    1.6556   -0.1074 H   0  0  0  0  0  0  0  0  0  0  0  0
    5.0691   -0.6079    1.8512 H   0  0  0  0  0  0  0  0  0  0  0  0
    5.9946    0.8856    2.3804 H   0  0  0  0  0  0  0  0  0  0  0  0
    7.4257   -0.9092    1.2574 H   0  0  0  0  0  0  0  0  0  0  0  0
    6.7580   -1.7198   -0.8084 H   0  0  0  0  0  0  0  0  0  0  0  0
    6.4342   -0.0757   -1.4180 H   0  0  0  0  0  0  0  0  0  0  0  0
    4.4618   -1.5012   -1.4563 H   0  0  0  0  0  0  0  0  0  0  0  0
    4.6309   -1.8522    0.2937 H   0  0  0  0  0  0  0  0  0  0  0  0
  1  3  1  0
  3  4  1  0
  4  5  1  0
  2  6  1  0
  5  6  1  0
  7  8  1  0
  8  9  1  0
  9 10  1  0
  3 11  1  0
 10 11  1  0
  6 12  1  0
  7 12  1  0
 11 12  1  0
  5 13  1  0
 14 15  1  0
 15 16  1  0
 16 17  1  0
 17 18  1  0
  4 19  1  0
 14 19  1  0
 18 19  1  0
 16 21  1  0
 21 22  1  0
 22 23  1  0
 20 24  1  0
 23 24  1  0
 24 25  1  0
 21 26  1  0
 25 26  1  0
  1 27  1  0
  2 28  1  0
  3 29  1  0
  4 30  1  0
  5 31  1  0
  6 32  1  0
  7 33  1  0
  7 34  1  0
  8 35  1  0
  8 36  1  0
  9 37  1  0
  9 38  1  0
 10 39  1  0
 10 40  1  0
 11 41  1  0
 12 42  1  0
 13 43  1  0
 14 44  1  0
 14 45  1  0
 15 46  1  0
 15 47  1  0
 16 48  1  0
 17 49  1  0
 17 50  1  0
 18 51  1  0
 18 52  1  0
 19 53  1  0
 21 54  1  0
 22 55  1  0
 22 56  1  0
 23 57  1  0
 23 58  1  0
 24 59  1  0
 25 60  1  0
 25 61  1  0
 26 62  1  0
 26 63  1  0
M  END
>  <PDBID>  (1) 
4PD4

>  <PDB ID>  (1) 
4PD4

>  <Generic Name>  (1) 
Atovaquone

>  <Brand Name>  (1) 
Atovaquone#Atovaquone Proguanil#Atovaquone and Proguanil HCl#Atovaquone and Proguanil Hydrochloride#Atovaquone and Proguanil Hydrochloride Pediatric#Malarone#Malarone Pediatric#Mepron#Mepron Tab 250mg#Mylan-atovaquone/proguanil#Teva-atovaquone Proguanil

>  <DrugBank ID>  (1) 
DB01117

>  <ATC Codes>  (1) 
P01AX06

>  <Ligand ID>  (1) 
AOQ

>  <Target Name>  (1) 
Cytochrome b

>  <UniProt ID>  (1) 
Q02768

>  <PDB ID.1>  (1) 
4PD4

>  <Seq. Identity>  (1) 
42%

$$$$
