PDB_DB00278_01
     RDKit          3D

170174  0  0  0  0  0  0  0  0999 V2000
    1.0688    1.6832   -0.2474 S   0  0  0  0  0  0  0  0  0  0  0  0
    0.3881    2.4598    1.0915 O   0  0  0  0  0  0  0  0  0  0  0  0
    1.3303    2.5797   -1.4081 O   0  0  0  0  0  0  0  0  0  0  0  0
    5.8676    0.7172   -1.2566 C   0  0  0  0  0  0  0  0  0  0  0  0
    6.2074   -0.7244   -0.9670 C   0  0  2  0  0  0  0  0  0  0  0  0
    5.1684   -1.1885    0.0415 C   0  0  0  0  0  0  0  0  0  0  0  0
    3.8266   -0.9350   -0.6209 C   0  0  0  0  0  0  0  0  0  0  0  0
    2.8277   -1.7853    0.1117 C   0  0  0  0  0  0  0  0  0  0  0  0
    2.7279   -1.2733    1.5216 C   0  0  0  0  0  0  0  0  0  0  0  0
    2.3583    0.1592    1.6075 C   0  0  0  0  0  0  0  0  0  0  0  0
    2.5887    0.9942    0.4247 C   0  0  0  0  0  0  0  0  0  0  0  0
    3.5195    0.5162   -0.6296 C   0  0  0  0  0  0  0  0  0  0  0  0
    7.6073   -0.9158   -0.4388 C   0  0  0  0  0  0  0  0  0  0  0  0
    4.7758    1.2415   -0.5165 N   0  0  0  0  0  0  0  0  0  0  0  0
    0.0143    0.3926   -0.5436 N   0  0  0  0  0  0  0  0  0  0  0  0
   -1.2014    0.6056    0.2173 C   0  0  2  0  0  0  0  0  0  0  0  0
   -2.2176   -0.5001    0.1394 C   0  0  0  0  0  0  0  0  0  0  0  0
   -3.2328   -0.1214    1.0318 O   0  0  0  0  0  0  0  0  0  0  0  0
   -1.7912    1.9026   -0.4102 C   0  0  0  0  0  0  0  0  0  0  0  0
   -3.0395    2.3433    0.2504 C   0  0  0  0  0  0  0  0  0  0  0  0
   -3.5999    3.6755   -0.2398 C   0  0  0  0  0  0  0  0  0  0  0  0
   -2.6608    4.7398   -0.1174 N   0  0  0  0  0  0  0  0  0  0  0  0
   -3.2259    6.0630   -0.2862 C   0  0  0  0  0  0  0  0  0  0  0  0
   -4.3841    6.1264   -1.1203 N   0  0  0  0  0  0  0  0  0  0  0  0
   -2.1876    6.8936   -0.9562 N   0  0  0  0  0  0  0  0  0  0  0  0
   -1.8079   -1.8227    0.2142 N   0  0  0  0  0  0  0  0  0  0  0  0
   -2.4187   -2.7707    1.0423 C   0  0  2  0  0  0  0  0  0  0  0  0
   -3.7591   -3.2180    0.5402 C   0  0  0  0  0  0  0  0  0  0  0  0
   -3.5321   -3.8802   -0.8234 C   0  0  1  0  0  0  0  0  0  0  0  0
   -2.1277   -3.7461   -1.3043 C   0  0  0  0  0  0  0  0  0  0  0  0
   -1.5110   -2.3798   -1.0733 C   0  0  0  0  0  0  0  0  0  0  0  0
   -2.3466   -2.5802    2.5342 C   0  0  0  0  0  0  0  0  0  0  0  0
   -1.0199   -2.5868    3.0022 O   0  0  0  0  0  0  0  0  0  0  0  0
   -2.9139   -3.7387    3.1105 O   0  0  0  0  0  0  0  0  0  0  0  0
   -3.8361   -5.3584   -0.6323 C   0  0  0  0  0  0  0  0  0  0  0  0
    1.0688    1.6832   -0.2474 S   0  0  0  0  0  0  0  0  0  0  0  0
    0.3881    2.4598    1.0915 O   0  0  0  0  0  0  0  0  0  0  0  0
    1.3303    2.5797   -1.4081 O   0  0  0  0  0  0  0  0  0  0  0  0
    5.8676    0.7172   -1.2566 C   0  0  0  0  0  0  0  0  0  0  0  0
    6.2074   -0.7244   -0.9670 C   0  0  2  0  0  0  0  0  0  0  0  0
    5.1684   -1.1885    0.0415 C   0  0  0  0  0  0  0  0  0  0  0  0
    3.8266   -0.9350   -0.6209 C   0  0  0  0  0  0  0  0  0  0  0  0
    2.8277   -1.7853    0.1117 C   0  0  0  0  0  0  0  0  0  0  0  0
    2.7279   -1.2733    1.5216 C   0  0  0  0  0  0  0  0  0  0  0  0
    2.3583    0.1592    1.6075 C   0  0  0  0  0  0  0  0  0  0  0  0
    2.5887    0.9942    0.4247 C   0  0  0  0  0  0  0  0  0  0  0  0
    3.5195    0.5162   -0.6296 C   0  0  0  0  0  0  0  0  0  0  0  0
    7.6073   -0.9158   -0.4388 C   0  0  0  0  0  0  0  0  0  0  0  0
    4.7758    1.2415   -0.5165 N   0  0  0  0  0  0  0  0  0  0  0  0
    0.0143    0.3926   -0.5436 N   0  0  0  0  0  0  0  0  0  0  0  0
   -1.2014    0.6056    0.2173 C   0  0  2  0  0  0  0  0  0  0  0  0
   -2.2176   -0.5001    0.1394 C   0  0  0  0  0  0  0  0  0  0  0  0
   -3.2328   -0.1214    1.0318 O   0  0  0  0  0  0  0  0  0  0  0  0
   -1.7912    1.9026   -0.4102 C   0  0  0  0  0  0  0  0  0  0  0  0
   -3.0395    2.3433    0.2504 C   0  0  0  0  0  0  0  0  0  0  0  0
   -3.5999    3.6755   -0.2398 C   0  0  0  0  0  0  0  0  0  0  0  0
   -2.6608    4.7398   -0.1174 N   0  0  0  0  0  0  0  0  0  0  0  0
   -3.2259    6.0630   -0.2862 C   0  0  0  0  0  0  0  0  0  0  0  0
   -4.3841    6.1264   -1.1203 N   0  0  0  0  0  0  0  0  0  0  0  0
   -2.1876    6.8936   -0.9562 N   0  0  0  0  0  0  0  0  0  0  0  0
   -1.8079   -1.8227    0.2142 N   0  0  0  0  0  0  0  0  0  0  0  0
   -2.4187   -2.7707    1.0423 C   0  0  2  0  0  0  0  0  0  0  0  0
   -3.7591   -3.2180    0.5402 C   0  0  0  0  0  0  0  0  0  0  0  0
   -3.5321   -3.8802   -0.8234 C   0  0  1  0  0  0  0  0  0  0  0  0
   -2.1277   -3.7461   -1.3043 C   0  0  0  0  0  0  0  0  0  0  0  0
   -1.5110   -2.3798   -1.0733 C   0  0  0  0  0  0  0  0  0  0  0  0
   -2.3466   -2.5802    2.5342 C   0  0  0  0  0  0  0  0  0  0  0  0
   -1.0199   -2.5868    3.0022 O   0  0  0  0  0  0  0  0  0  0  0  0
   -2.9139   -3.7387    3.1105 O   0  0  0  0  0  0  0  0  0  0  0  0
   -3.8361   -5.3584   -0.6323 C   0  0  0  0  0  0  0  0  0  0  0  0
    0.9993    2.3779    1.8432 H   0  0  0  0  0  0  0  0  0  0  0  0
    1.2170    2.3324   -2.3551 H   0  0  0  0  0  0  0  0  0  0  0  0
    6.7781    1.2955   -0.8980 H   0  0  0  0  0  0  0  0  0  0  0  0
    5.8005    0.9569   -2.3230 H   0  0  0  0  0  0  0  0  0  0  0  0
    6.0741   -1.2957   -1.9085 H   0  0  0  0  0  0  0  0  0  0  0  0
    5.2864   -0.5496    0.9529 H   0  0  0  0  0  0  0  0  0  0  0  0
    5.3199   -2.2645    0.2740 H   0  0  0  0  0  0  0  0  0  0  0  0
    3.9188   -1.3409   -1.6534 H   0  0  0  0  0  0  0  0  0  0  0  0
    3.2825   -2.8156    0.1936 H   0  0  0  0  0  0  0  0  0  0  0  0
    1.8652   -1.9150   -0.3907 H   0  0  0  0  0  0  0  0  0  0  0  0
    3.7228   -1.4116    1.9833 H   0  0  0  0  0  0  0  0  0  0  0  0
    2.0329   -1.8900    2.1589 H   0  0  0  0  0  0  0  0  0  0  0  0
    1.2601    0.2138    1.8739 H   0  0  0  0  0  0  0  0  0  0  0  0
    2.8464    0.5751    2.5433 H   0  0  0  0  0  0  0  0  0  0  0  0
    3.0727    1.9602    0.8203 H   0  0  0  0  0  0  0  0  0  0  0  0
    3.0969    0.7852   -1.6173 H   0  0  0  0  0  0  0  0  0  0  0  0
    7.7642   -2.0056   -0.3430 H   0  0  0  0  0  0  0  0  0  0  0  0
    7.7463   -0.3649    0.5074 H   0  0  0  0  0  0  0  0  0  0  0  0
    8.3054   -0.5609   -1.2049 H   0  0  0  0  0  0  0  0  0  0  0  0
    5.0080    1.5033    0.4679 H   0  0  0  0  0  0  0  0  0  0  0  0
   -0.2581    0.4884   -1.5701 H   0  0  0  0  0  0  0  0  0  0  0  0
   -0.9416    0.9004    1.2368 H   0  0  0  0  0  0  0  0  0  0  0  0
   -2.7125   -0.3548   -0.8798 H   0  0  0  0  0  0  0  0  0  0  0  0
   -4.1059   -0.3984    0.7213 H   0  0  0  0  0  0  0  0  0  0  0  0
   -2.0751    1.6114   -1.4902 H   0  0  0  0  0  0  0  0  0  0  0  0
   -1.0240    2.6568   -0.5449 H   0  0  0  0  0  0  0  0  0  0  0  0
   -2.9638    2.2673    1.3329 H   0  0  0  0  0  0  0  0  0  0  0  0
   -3.8599    1.6270   -0.1472 H   0  0  0  0  0  0  0  0  0  0  0  0
   -3.9127    3.5257   -1.3163 H   0  0  0  0  0  0  0  0  0  0  0  0
   -4.5551    3.8510    0.3012 H   0  0  0  0  0  0  0  0  0  0  0  0
   -1.8773    4.5560   -0.7857 H   0  0  0  0  0  0  0  0  0  0  0  0
   -3.4537    6.4656    0.7175 H   0  0  0  0  0  0  0  0  0  0  0  0
   -5.1582    6.6102   -0.5560 H   0  0  0  0  0  0  0  0  0  0  0  0
   -4.2258    6.7385   -1.9491 H   0  0  0  0  0  0  0  0  0  0  0  0
   -1.6001    7.3793   -0.2617 H   0  0  0  0  0  0  0  0  0  0  0  0
   -1.6608    6.2900   -1.6376 H   0  0  0  0  0  0  0  0  0  0  0  0
   -1.7678   -3.7339    0.8962 H   0  0  0  0  0  0  0  0  0  0  0  0
   -4.1942   -3.9788    1.2604 H   0  0  0  0  0  0  0  0  0  0  0  0
   -4.5354   -2.4864    0.4044 H   0  0  0  0  0  0  0  0  0  0  0  0
   -4.2809   -3.5071   -1.5722 H   0  0  0  0  0  0  0  0  0  0  0  0
   -1.4464   -4.5865   -0.9754 H   0  0  0  0  0  0  0  0  0  0  0  0
   -2.1485   -3.8863   -2.4261 H   0  0  0  0  0  0  0  0  0  0  0  0
   -0.3957   -2.5719   -1.1130 H   0  0  0  0  0  0  0  0  0  0  0  0
   -1.8435   -1.7339   -1.9072 H   0  0  0  0  0  0  0  0  0  0  0  0
   -2.7928   -1.6509    2.9096 H   0  0  0  0  0  0  0  0  0  0  0  0
   -0.6610   -3.5085    3.1056 H   0  0  0  0  0  0  0  0  0  0  0  0
   -2.6888   -4.5034    2.4934 H   0  0  0  0  0  0  0  0  0  0  0  0
   -4.9122   -5.4987   -0.3468 H   0  0  0  0  0  0  0  0  0  0  0  0
   -3.2006   -5.7684    0.2060 H   0  0  0  0  0  0  0  0  0  0  0  0
   -3.6082   -5.9535   -1.5288 H   0  0  0  0  0  0  0  0  0  0  0  0
    0.9993    2.3779    1.8432 H   0  0  0  0  0  0  0  0  0  0  0  0
    1.2170    2.3324   -2.3551 H   0  0  0  0  0  0  0  0  0  0  0  0
    6.7781    1.2955   -0.8980 H   0  0  0  0  0  0  0  0  0  0  0  0
    5.8005    0.9569   -2.3230 H   0  0  0  0  0  0  0  0  0  0  0  0
    6.0741   -1.2957   -1.9085 H   0  0  0  0  0  0  0  0  0  0  0  0
    5.2864   -0.5496    0.9529 H   0  0  0  0  0  0  0  0  0  0  0  0
    5.3199   -2.2645    0.2740 H   0  0  0  0  0  0  0  0  0  0  0  0
    3.9188   -1.3409   -1.6534 H   0  0  0  0  0  0  0  0  0  0  0  0
    3.2825   -2.8156    0.1936 H   0  0  0  0  0  0  0  0  0  0  0  0
    1.8652   -1.9150   -0.3907 H   0  0  0  0  0  0  0  0  0  0  0  0
    3.7228   -1.4116    1.9833 H   0  0  0  0  0  0  0  0  0  0  0  0
    2.0329   -1.8900    2.1589 H   0  0  0  0  0  0  0  0  0  0  0  0
    1.2601    0.2138    1.8739 H   0  0  0  0  0  0  0  0  0  0  0  0
    2.8464    0.5751    2.5433 H   0  0  0  0  0  0  0  0  0  0  0  0
    3.0727    1.9602    0.8203 H   0  0  0  0  0  0  0  0  0  0  0  0
    3.0969    0.7852   -1.6173 H   0  0  0  0  0  0  0  0  0  0  0  0
    7.7642   -2.0056   -0.3430 H   0  0  0  0  0  0  0  0  0  0  0  0
    7.7463   -0.3649    0.5074 H   0  0  0  0  0  0  0  0  0  0  0  0
    8.3054   -0.5609   -1.2049 H   0  0  0  0  0  0  0  0  0  0  0  0
    5.0080    1.5033    0.4679 H   0  0  0  0  0  0  0  0  0  0  0  0
   -0.2581    0.4884   -1.5701 H   0  0  0  0  0  0  0  0  0  0  0  0
   -0.9416    0.9004    1.2368 H   0  0  0  0  0  0  0  0  0  0  0  0
   -2.7125   -0.3548   -0.8798 H   0  0  0  0  0  0  0  0  0  0  0  0
   -4.1059   -0.3984    0.7213 H   0  0  0  0  0  0  0  0  0  0  0  0
   -2.0751    1.6114   -1.4902 H   0  0  0  0  0  0  0  0  0  0  0  0
   -1.0240    2.6568   -0.5449 H   0  0  0  0  0  0  0  0  0  0  0  0
   -2.9638    2.2673    1.3329 H   0  0  0  0  0  0  0  0  0  0  0  0
   -3.8599    1.6270   -0.1472 H   0  0  0  0  0  0  0  0  0  0  0  0
   -3.9127    3.5257   -1.3163 H   0  0  0  0  0  0  0  0  0  0  0  0
   -4.5551    3.8510    0.3012 H   0  0  0  0  0  0  0  0  0  0  0  0
   -1.8773    4.5560   -0.7857 H   0  0  0  0  0  0  0  0  0  0  0  0
   -3.4537    6.4656    0.7175 H   0  0  0  0  0  0  0  0  0  0  0  0
   -5.1582    6.6102   -0.5560 H   0  0  0  0  0  0  0  0  0  0  0  0
   -4.2258    6.7385   -1.9491 H   0  0  0  0  0  0  0  0  0  0  0  0
   -1.6001    7.3793   -0.2617 H   0  0  0  0  0  0  0  0  0  0  0  0
   -1.6608    6.2900   -1.6376 H   0  0  0  0  0  0  0  0  0  0  0  0
   -1.7678   -3.7339    0.8962 H   0  0  0  0  0  0  0  0  0  0  0  0
   -4.1942   -3.9788    1.2604 H   0  0  0  0  0  0  0  0  0  0  0  0
   -4.5354   -2.4864    0.4044 H   0  0  0  0  0  0  0  0  0  0  0  0
   -4.2809   -3.5071   -1.5722 H   0  0  0  0  0  0  0  0  0  0  0  0
   -1.4464   -4.5865   -0.9754 H   0  0  0  0  0  0  0  0  0  0  0  0
   -2.1485   -3.8863   -2.4261 H   0  0  0  0  0  0  0  0  0  0  0  0
   -0.3957   -2.5719   -1.1130 H   0  0  0  0  0  0  0  0  0  0  0  0
   -1.8435   -1.7339   -1.9072 H   0  0  0  0  0  0  0  0  0  0  0  0
   -2.7928   -1.6509    2.9096 H   0  0  0  0  0  0  0  0  0  0  0  0
   -0.6610   -3.5085    3.1056 H   0  0  0  0  0  0  0  0  0  0  0  0
   -2.6888   -4.5034    2.4934 H   0  0  0  0  0  0  0  0  0  0  0  0
   -4.9122   -5.4987   -0.3468 H   0  0  0  0  0  0  0  0  0  0  0  0
   -3.2006   -5.7684    0.2060 H   0  0  0  0  0  0  0  0  0  0  0  0
   -3.6082   -5.9535   -1.5288 H   0  0  0  0  0  0  0  0  0  0  0  0
  1  2  1  0
  1  3  1  0
  4  5  1  0
  5  6  1  0
  6  7  1  0
  7  8  1  0
  8  9  1  0
  9 10  1  0
  1 11  1  0
 10 11  1  0
  7 12  1  0
 11 12  1  0
  5 13  1  0
  4 14  1  0
 12 14  1  0
  1 15  1  0
 15 16  1  0
 16 17  1  0
 17 18  1  0
 16 19  1  0
 19 20  1  0
 20 21  1  0
 21 22  1  0
 22 23  1  0
 23 24  1  0
 23 25  1  0
 17 26  1  0
 26 27  1  0
 27 28  1  0
 28 29  1  0
 29 30  1  0
 26 31  1  0
 30 31  1  0
 27 32  1  0
 32 33  1  0
 32 34  1  0
 29 35  1  0
 36 37  1  0
 36 38  1  0
 39 40  1  0
 40 41  1  0
 41 42  1  0
 42 43  1  0
 43 44  1  0
 44 45  1  0
 36 46  1  0
 45 46  1  0
 42 47  1  0
 46 47  1  0
 40 48  1  0
 39 49  1  0
 47 49  1  0
 36 50  1  0
 50 51  1  0
 51 52  1  0
 52 53  1  0
 51 54  1  0
 54 55  1  0
 55 56  1  0
 56 57  1  0
 57 58  1  0
 58 59  1  0
 58 60  1  0
 52 61  1  0
 61 62  1  0
 62 63  1  0
 63 64  1  0
 64 65  1  0
 61 66  1  0
 65 66  1  0
 62 67  1  0
 67 68  1  0
 67 69  1  0
 64 70  1  0
  2 71  1  0
  3 72  1  0
  4 73  1  0
  4 74  1  0
  5 75  1  6
  6 76  1  0
  6 77  1  0
  7 78  1  0
  8 79  1  0
  8 80  1  0
  9 81  1  0
  9 82  1  0
 10 83  1  0
 10 84  1  0
 11 85  1  0
 12 86  1  0
 13 87  1  0
 13 88  1  0
 13 89  1  0
 14 90  1  0
 15 91  1  0
 16 92  1  1
 17 93  1  0
 18 94  1  0
 19 95  1  0
 19 96  1  0
 20 97  1  0
 20 98  1  0
 21 99  1  0
 21100  1  0
 22101  1  0
 23102  1  0
 24103  1  0
 24104  1  0
 25105  1  0
 25106  1  0
 27107  1  1
 28108  1  0
 28109  1  0
 29110  1  6
 30111  1  0
 30112  1  0
 31113  1  0
 31114  1  0
 32115  1  0
 33116  1  0
 34117  1  0
 35118  1  0
 35119  1  0
 35120  1  0
 37121  1  0
 38122  1  0
 39123  1  0
 39124  1  0
 40125  1  6
 41126  1  0
 41127  1  0
 42128  1  0
 43129  1  0
 43130  1  0
 44131  1  0
 44132  1  0
 45133  1  0
 45134  1  0
 46135  1  0
 47136  1  0
 48137  1  0
 48138  1  0
 48139  1  0
 49140  1  0
 50141  1  0
 51142  1  1
 52143  1  0
 53144  1  0
 54145  1  0
 54146  1  0
 55147  1  0
 55148  1  0
 56149  1  0
 56150  1  0
 57151  1  0
 58152  1  0
 59153  1  0
 59154  1  0
 60155  1  0
 60156  1  0
 62157  1  1
 63158  1  0
 63159  1  0
 64160  1  6
 65161  1  0
 65162  1  0
 66163  1  0
 66164  1  0
 67165  1  0
 68166  1  0
 69167  1  0
 70168  1  0
 70169  1  0
 70170  1  0
M  END
>  <PDBID>  (1) 
4HFP

>  <PDB ID>  (1) 
4HFP

>  <Generic Name>  (1) 
Argatroban

>  <Brand Name>  (1) 
Argatroban

>  <DrugBank ID>  (1) 
DB00278

>  <ATC Codes>  (1) 
B01AE03

>  <Ligand ID>  (1) 
15U,MIT

>  <Target Name>  (1) 
Prothrombin

>  <UniProt ID>  (1) 
P00734

>  <PDB ID.1>  (1) 
4HFP

>  <Seq. Identity>  (1) 
100%

$$$$
