PDB_DB01199_06
     RDKit          3D

550580  0  0  0  0  0  0  0  0999 V2000
   -5.1212   -2.5406   -0.7247 N   0  0  0  0  0  0  0  0  0  0  0  0
   -6.2456   -1.7493   -1.1060 C   0  0  0  0  0  0  0  0  0  0  0  0
   -5.7769   -0.6000   -1.9349 C   0  0  0  0  0  0  0  0  0  0  0  0
   -5.0284    0.3480   -1.0316 C   0  0  0  0  0  0  0  0  0  0  0  0
   -4.3186   -0.3856    0.0514 C   0  0  0  0  0  0  0  0  0  0  0  0
   -3.9589   -1.8153   -0.3085 C   0  0  2  0  0  0  0  0  0  0  0  0
   -4.1362    1.2417   -1.8496 C   0  0  0  0  0  0  0  0  0  0  0  0
   -3.3875    2.2202   -1.0117 C   0  0  0  0  0  0  0  0  0  0  0  0
   -3.2457    1.8228    0.4421 C   0  0  1  0  0  0  0  0  0  0  0  0
   -3.1638    0.3536    0.6469 C   0  0  0  0  0  0  0  0  0  0  0  0
   -2.2111    2.5519    0.9547 O   0  0  0  0  0  0  0  0  0  0  0  0
   -1.2289    1.9430    1.6429 C   0  0  2  0  0  0  0  0  0  0  0  0
   -1.1570    2.3758    3.1104 C   0  0  0  0  0  0  0  0  0  0  0  0
   -0.2561    1.4212    3.8188 C   0  0  0  0  0  0  0  0  0  0  0  0
    0.7698    0.8117    2.8872 C   0  0  0  0  0  0  0  0  0  0  0  0
    1.2304    1.8938    1.8868 C   0  0  2  0  0  0  0  0  0  0  0  0
    0.1184    2.3716    1.0429 C   0  0  0  0  0  0  0  0  0  0  0  0
    2.5304    1.5727    1.2693 C   0  0  0  0  0  0  0  0  0  0  0  0
    2.5954    1.2393   -0.1753 C   0  0  1  0  0  0  0  0  0  0  0  0
    3.1463    2.3048   -0.9923 N   0  0  0  0  0  0  0  0  0  0  0  0
    4.3973    2.0172   -1.6180 C   0  0  0  0  0  0  0  0  0  0  0  0
    5.4432    1.4341   -0.7002 C   0  0  0  0  0  0  0  0  0  0  0  0
    4.8510    0.2940    0.1465 C   0  0  0  0  0  0  0  0  0  0  0  0
    3.5281    0.0286   -0.4086 C   0  0  1  0  0  0  0  0  0  0  0  0
    5.7588   -0.8861    0.0277 C   0  0  0  0  0  0  0  0  0  0  0  0
    5.0281   -2.0554    0.6489 C   0  0  0  0  0  0  0  0  0  0  0  0
    3.8072   -2.3755   -0.1958 C   0  0  2  0  0  0  0  0  0  0  0  0
    2.8281   -1.2623   -0.0144 C   0  0  2  0  0  0  0  0  0  0  0  0
    1.7398   -1.2289   -0.7433 O   0  0  0  0  0  0  0  0  0  0  0  0
    0.5933   -1.7900   -0.6812 C   0  0  0  0  0  0  0  0  0  0  0  0
    0.1230   -2.1286   -2.1131 C   0  0  0  0  0  0  0  0  0  0  0  0
   -0.9125   -3.2023   -2.1192 C   0  0  0  0  0  0  0  0  0  0  0  0
   -1.8824   -3.1034   -0.9488 C   0  0  0  0  0  0  0  0  0  0  0  0
   -1.2160   -3.0509    0.3650 C   0  0  0  0  0  0  0  0  0  0  0  0
    0.3093   -2.9932    0.1371 C   0  0  0  0  0  0  0  0  0  0  0  0
   -2.8370   -1.9720   -1.2635 C   0  0  0  0  0  0  0  0  0  0  0  0
   -3.9627    3.4911   -1.0531 O   0  0  0  0  0  0  0  0  0  0  0  0
   -3.1021    4.4542   -1.5700 C   0  0  0  0  0  0  0  0  0  0  0  0
   -0.6327    3.6579    3.1336 O   0  0  0  0  0  0  0  0  0  0  0  0
    5.8338   -3.1391    0.8749 O   0  0  0  0  0  0  0  0  0  0  0  0
    5.8908   -3.4147    2.2372 C   0  0  0  0  0  0  0  0  0  0  0  0
    3.3753   -3.6091    0.2315 O   0  0  0  0  0  0  0  0  0  0  0  0
   -5.5272   -3.5646    0.2196 C   0  0  0  0  0  0  0  0  0  0  0  0
    3.3316    3.5489   -0.2563 C   0  0  0  0  0  0  0  0  0  0  0  0
    2.2112    2.6344   -2.0788 C   0  0  0  0  0  0  0  0  0  0  0  0
   -5.0609   -2.6388   -0.9375 N   0  0  0  0  0  0  0  0  0  0  0  0
   -6.3292   -2.1607   -0.4932 C   0  0  0  0  0  0  0  0  0  0  0  0
   -6.5017   -0.6687   -0.6780 C   0  0  0  0  0  0  0  0  0  0  0  0
   -5.4136   -0.0230    0.1504 C   0  0  0  0  0  0  0  0  0  0  0  0
   -4.0786   -0.4742   -0.2883 C   0  0  2  0  0  0  0  0  0  0  0  0
   -3.9107   -1.9601   -0.4442 C   0  0  2  0  0  0  0  0  0  0  0  0
   -5.4767    1.4940   -0.0800 C   0  0  0  0  0  0  0  0  0  0  0  0
   -4.4106    2.1960    0.7328 C   0  0  0  0  0  0  0  0  0  0  0  0
   -3.0658    1.6109    0.3772 C   0  0  0  0  0  0  0  0  0  0  0  0
   -3.0451    0.1029    0.6542 C   0  0  0  0  0  0  0  0  0  0  0  0
   -1.9965    2.1818    0.9935 O   0  0  0  0  0  0  0  0  0  0  0  0
   -1.2091    2.9532    0.1392 C   0  0  0  0  0  0  0  0  0  0  0  0
   -1.0055    4.3083    0.7572 C   0  0  0  0  0  0  0  0  0  0  0  0
    0.1005    4.3291    1.7805 C   0  0  0  0  0  0  0  0  0  0  0  0
    1.3770    3.7000    1.2148 C   0  0  0  0  0  0  0  0  0  0  0  0
    1.0472    2.2647    0.8914 C   0  0  0  0  0  0  0  0  0  0  0  0
    0.0788    2.2753   -0.2543 C   0  0  0  0  0  0  0  0  0  0  0  0
    2.1649    1.3195    0.8185 C   0  0  0  0  0  0  0  0  0  0  0  0
    2.9029    1.0876   -0.4295 C   0  0  1  0  0  0  0  0  0  0  0  0
    3.7915    2.0877   -0.9254 N   0  0  0  0  0  0  0  0  0  0  0  0
    5.0042    1.5202   -1.5620 C   0  0  0  0  0  0  0  0  0  0  0  0
    5.8524    0.7906   -0.5887 C   0  0  0  0  0  0  0  0  0  0  0  0
    4.9351   -0.0179    0.3499 C   0  0  0  0  0  0  0  0  0  0  0  0
    3.6697   -0.2187   -0.3846 C   0  0  1  0  0  0  0  0  0  0  0  0
    5.7195   -1.2335    0.6993 C   0  0  0  0  0  0  0  0  0  0  0  0
    4.8260   -2.3995    1.0636 C   0  0  0  0  0  0  0  0  0  0  0  0
    3.9238   -2.5817   -0.1357 C   0  0  0  0  0  0  0  0  0  0  0  0
    2.8790   -1.4416   -0.0286 C   0  0  2  0  0  0  0  0  0  0  0  0
    2.0129   -1.6972   -1.0386 O   0  0  0  0  0  0  0  0  0  0  0  0
    0.7300   -1.9963   -0.8290 C   0  0  0  0  0  0  0  0  0  0  0  0
    0.0799   -2.1689   -2.2127 C   0  0  0  0  0  0  0  0  0  0  0  0
   -0.8483   -3.3392   -2.2554 C   0  0  0  0  0  0  0  0  0  0  0  0
   -1.8783   -3.3028   -1.1195 C   0  0  0  0  0  0  0  0  0  0  0  0
   -1.1271   -3.2634    0.1593 C   0  0  0  0  0  0  0  0  0  0  0  0
    0.3958   -3.2007   -0.0356 C   0  0  0  0  0  0  0  0  0  0  0  0
   -2.7607   -2.1494   -1.4016 C   0  0  0  0  0  0  0  0  0  0  0  0
   -4.6726    2.0852    2.0884 O   0  0  0  0  0  0  0  0  0  0  0  0
   -4.8582    3.3649    2.6021 C   0  0  0  0  0  0  0  0  0  0  0  0
   -0.7587    5.2899   -0.1992 O   0  0  0  0  0  0  0  0  0  0  0  0
    5.6175   -3.5472    1.1669 O   0  0  0  0  0  0  0  0  0  0  0  0
    5.4896   -4.1452    2.4102 C   0  0  0  0  0  0  0  0  0  0  0  0
    3.3571   -3.8169   -0.0728 O   0  0  0  0  0  0  0  0  0  0  0  0
   -4.9957   -4.0599   -0.6149 C   0  0  0  0  0  0  0  0  0  0  0  0
    4.2899    3.0519   -0.0056 C   0  0  0  0  0  0  0  0  0  0  0  0
    3.1866    2.8110   -2.0621 C   0  0  0  0  0  0  0  0  0  0  0  0
   -4.8045   -2.5384   -0.9871 N   0  0  0  0  0  0  0  0  0  0  0  0
   -5.9873   -1.8080   -1.3097 C   0  0  0  0  0  0  0  0  0  0  0  0
   -5.5322   -0.4518   -1.8339 C   0  0  0  0  0  0  0  0  0  0  0  0
   -5.0963    0.3219   -0.5804 C   0  0  0  0  0  0  0  0  0  0  0  0
   -4.3207   -0.5303    0.3643 C   0  0  0  0  0  0  0  0  0  0  0  0
   -3.8428   -1.8356   -0.2163 C   0  0  2  0  0  0  0  0  0  0  0  0
   -4.4128    1.5528   -1.0580 C   0  0  0  0  0  0  0  0  0  0  0  0
   -3.6176    2.2609    0.0505 C   0  0  0  0  0  0  0  0  0  0  0  0
   -2.5267    1.2798    0.3748 C   0  0  0  0  0  0  0  0  0  0  0  0
   -3.2495    0.1538    1.1183 C   0  0  0  0  0  0  0  0  0  0  0  0
   -1.5465    1.6741    1.1815 O   0  0  0  0  0  0  0  0  0  0  0  0
   -1.0015    2.8924    1.1226 C   0  0  0  0  0  0  0  0  0  0  0  0
   -0.7911    3.3640    2.5670 C   0  0  0  0  0  0  0  0  0  0  0  0
   -0.2770    2.1652    3.3225 C   0  0  0  0  0  0  0  0  0  0  0  0
    0.6363    1.3098    2.4976 C   0  0  0  0  0  0  0  0  0  0  0  0
    1.3661    2.1481    1.4293 C   0  0  2  0  0  0  0  0  0  0  0  0
    0.3903    2.7464    0.4910 C   0  0  0  0  0  0  0  0  0  0  0  0
    2.5329    1.4464    0.8979 C   0  0  0  0  0  0  0  0  0  0  0  0
    2.6130    1.1305   -0.5475 C   0  0  1  0  0  0  0  0  0  0  0  0
    3.2948    2.1358   -1.3297 N   0  0  0  0  0  0  0  0  0  0  0  0
    4.3947    1.6415   -2.1154 C   0  0  0  0  0  0  0  0  0  0  0  0
    5.4182    0.8734   -1.3233 C   0  0  0  0  0  0  0  0  0  0  0  0
    4.7348    0.0049   -0.3166 C   0  0  0  0  0  0  0  0  0  0  0  0
    3.3367   -0.2225   -0.7410 C   0  0  1  0  0  0  0  0  0  0  0  0
    5.4316   -1.3307   -0.2081 C   0  0  0  0  0  0  0  0  0  0  0  0
    4.7716   -1.9875    0.9956 C   0  0  0  0  0  0  0  0  0  0  0  0
    3.3165   -2.2480    0.7811 C   0  0  0  0  0  0  0  0  0  0  0  0
    2.6101   -1.3627   -0.1704 C   0  0  2  0  0  0  0  0  0  0  0  0
    2.0712   -2.1972   -1.1822 O   0  0  0  0  0  0  0  0  0  0  0  0
    0.6766   -2.1883   -1.1789 C   0  0  0  0  0  0  0  0  0  0  0  0
    0.2035   -2.6210   -2.5244 C   0  0  0  0  0  0  0  0  0  0  0  0
   -1.2152   -3.0390   -2.6066 C   0  0  0  0  0  0  0  0  0  0  0  0
   -1.9679   -3.0612   -1.3252 C   0  0  0  0  0  0  0  0  0  0  0  0
   -1.1258   -3.6934   -0.2670 C   0  0  0  0  0  0  0  0  0  0  0  0
    0.1950   -3.0306   -0.0458 C   0  0  0  0  0  0  0  0  0  0  0  0
   -2.4896   -1.6958   -0.9114 C   0  0  0  0  0  0  0  0  0  0  0  0
   -4.4323    2.5168    1.1482 O   0  0  0  0  0  0  0  0  0  0  0  0
   -4.5570    3.8782    1.3288 C   0  0  0  0  0  0  0  0  0  0  0  0
    0.0192    4.4697    2.6457 O   0  0  0  0  0  0  0  0  0  0  0  0
    5.4823   -3.1396    1.2669 O   0  0  0  0  0  0  0  0  0  0  0  0
    6.1388   -3.0310    2.5150 C   0  0  0  0  0  0  0  0  0  0  0  0
    2.7189   -2.2196    2.0673 O   0  0  0  0  0  0  0  0  0  0  0  0
   -5.1744   -3.8232   -0.4617 C   0  0  0  0  0  0  0  0  0  0  0  0
    3.8215    3.2279   -0.5309 C   0  0  0  0  0  0  0  0  0  0  0  0
    2.3829    2.7680   -2.3017 C   0  0  0  0  0  0  0  0  0  0  0  0
   -4.4554   -2.7241   -0.5053 N   0  0  0  0  0  0  0  0  0  0  0  0
   -5.6987   -2.2300   -1.0164 C   0  0  0  0  0  0  0  0  0  0  0  0
   -5.6170   -0.8288   -1.5420 C   0  0  0  0  0  0  0  0  0  0  0  0
   -5.2981    0.0977   -0.3739 C   0  0  0  0  0  0  0  0  0  0  0  0
   -4.4421   -0.5454    0.6459 C   0  0  0  0  0  0  0  0  0  0  0  0
   -3.6195   -1.7208    0.0914 C   0  0  2  0  0  0  0  0  0  0  0  0
   -4.8149    1.4386   -0.8800 C   0  0  0  0  0  0  0  0  0  0  0  0
   -4.6564    2.3029    0.3206 C   0  0  1  0  0  0  0  0  0  0  0  0
   -3.4661    1.7502    1.1206 C   0  0  1  0  0  0  0  0  0  0  0  0
   -3.6293    0.3373    1.5066 C   0  0  0  0  0  0  0  0  0  0  0  0
   -2.3444    2.0609    0.4091 O   0  0  0  0  0  0  0  0  0  0  0  0
   -1.1469    2.0097    1.0716 C   0  0  2  0  0  0  0  0  0  0  0  0
   -1.0102    2.9318    2.2333 C   0  0  0  0  0  0  0  0  0  0  0  0
    0.3256    2.5573    2.8930 C   0  0  0  0  0  0  0  0  0  0  0  0
    1.4318    2.9237    1.9956 C   0  0  0  0  0  0  0  0  0  0  0  0
    1.2978    2.4508    0.5710 C   0  0  0  0  0  0  0  0  0  0  0  0
   -0.0899    2.4223    0.0515 C   0  0  0  0  0  0  0  0  0  0  0  0
    2.0514    1.1761    0.3772 C   0  0  0  0  0  0  0  0  0  0  0  0
    2.7624    0.9746   -0.8869 C   0  0  1  0  0  0  0  0  0  0  0  0
    3.5854    2.0296   -1.3817 N   0  0  0  0  0  0  0  0  0  0  0  0
    4.6402    1.4445   -2.2188 C   0  0  0  0  0  0  0  0  0  0  0  0
    5.6673    0.6863   -1.4896 C   0  0  0  0  0  0  0  0  0  0  0  0
    4.9662   -0.0941   -0.3666 C   0  0  0  0  0  0  0  0  0  0  0  0
    3.5664   -0.3006   -0.8178 C   0  0  1  0  0  0  0  0  0  0  0  0
    5.6861   -1.4081   -0.2822 C   0  0  0  0  0  0  0  0  0  0  0  0
    5.0079   -2.2705    0.7109 C   0  0  0  0  0  0  0  0  0  0  0  0
    3.6275   -2.6163    0.1387 C   0  0  0  0  0  0  0  0  0  0  0  0
    2.8080   -1.3809   -0.0380 C   0  0  2  0  0  0  0  0  0  0  0  0
    1.6692   -1.5732   -0.7604 O   0  0  0  0  0  0  0  0  0  0  0  0
    1.1076   -2.8049   -0.8020 C   0  0  0  0  0  0  0  0  0  0  0  0
    0.4523   -2.9461   -2.1868 C   0  0  0  0  0  0  0  0  0  0  0  0
   -0.7695   -2.0808   -2.3036 C   0  0  0  0  0  0  0  0  0  0  0  0
   -1.8517   -2.5393   -1.3381 C   0  0  0  0  0  0  0  0  0  0  0  0
   -1.2148   -3.4523   -0.3481 C   0  0  0  0  0  0  0  0  0  0  0  0
    0.0304   -2.8853    0.2521 C   0  0  0  0  0  0  0  0  0  0  0  0
   -2.4678   -1.3062   -0.7347 C   0  0  0  0  0  0  0  0  0  0  0  0
   -4.4048    3.6309    0.0445 O   0  0  0  0  0  0  0  0  0  0  0  0
   -5.3744    4.4265    0.6771 C   0  0  0  0  0  0  0  0  0  0  0  0
   -0.9824    4.2759    1.8314 O   0  0  0  0  0  0  0  0  0  0  0  0
    4.8810   -1.6156    1.9195 O   0  0  0  0  0  0  0  0  0  0  0  0
    5.4533   -2.3955    2.9349 C   0  0  0  0  0  0  0  0  0  0  0  0
    3.0565   -3.3703    1.1949 O   0  0  0  0  0  0  0  0  0  0  0  0
   -4.7906   -3.7900    0.4538 C   0  0  0  0  0  0  0  0  0  0  0  0
    4.2351    2.8429   -0.4074 C   0  0  0  0  0  0  0  0  0  0  0  0
    2.8499    2.9213   -2.2887 C   0  0  0  0  0  0  0  0  0  0  0  0
   -4.4538   -3.0005    0.3331 N   0  0  0  0  0  0  0  0  0  0  0  0
   -5.6792   -2.4096    0.7606 C   0  0  0  0  0  0  0  0  0  0  0  0
   -5.9847   -1.0922    0.0814 C   0  0  0  0  0  0  0  0  0  0  0  0
   -4.8847   -0.1644    0.4689 C   0  0  0  0  0  0  0  0  0  0  0  0
   -3.6054   -0.8510    0.8536 C   0  0  0  0  0  0  0  0  0  0  0  0
   -3.3525   -2.1524    0.1087 C   0  0  2  0  0  0  0  0  0  0  0  0
   -4.6846    0.9056   -0.5701 C   0  0  0  0  0  0  0  0  0  0  0  0
   -3.7811    2.0199   -0.0364 C   0  0  0  0  0  0  0  0  0  0  0  0
   -2.9369    1.5361    1.0755 C   0  0  1  0  0  0  0  0  0  0  0  0
   -2.4657    0.0889    0.8739 C   0  0  0  0  0  0  0  0  0  0  0  0
   -1.8924    2.2718    1.4837 O   0  0  0  0  0  0  0  0  0  0  0  0
   -1.2335    3.1171    0.6838 C   0  0  0  0  0  0  0  0  0  0  0  0
   -0.8651    4.3646    1.5016 C   0  0  0  0  0  0  0  0  0  0  0  0
    0.2606    4.1612    2.4443 C   0  0  0  0  0  0  0  0  0  0  0  0
    1.4787    3.4928    1.7861 C   0  0  0  0  0  0  0  0  0  0  0  0
    1.0018    2.1974    1.1703 C   0  0  0  0  0  0  0  0  0  0  0  0
    0.0620    2.5522    0.0690 C   0  0  0  0  0  0  0  0  0  0  0  0
    1.9746    1.1458    0.9461 C   0  0  0  0  0  0  0  0  0  0  0  0
    2.7005    0.9472   -0.3222 C   0  0  1  0  0  0  0  0  0  0  0  0
    3.6181    1.9863   -0.7225 N   0  0  0  0  0  0  0  0  0  0  0  0
    4.7227    1.4541   -1.5417 C   0  0  0  0  0  0  0  0  0  0  0  0
    5.6439    0.5700   -0.8176 C   0  0  0  0  0  0  0  0  0  0  0  0
    4.7875   -0.3090    0.1068 C   0  0  0  0  0  0  0  0  0  0  0  0
    3.3824   -0.3792   -0.4528 C   0  0  0  0  0  0  0  0  0  0  0  0
    5.5172   -1.6303    0.0695 C   0  0  0  0  0  0  0  0  0  0  0  0
    4.6947   -2.5645    0.8869 C   0  0  0  0  0  0  0  0  0  0  0  0
    3.4809   -2.8390    0.0345 C   0  0  0  0  0  0  0  0  0  0  0  0
    2.5953   -1.5945   -0.1293 C   0  0  2  0  0  0  0  0  0  0  0  0
    1.8048   -1.9143   -1.2039 O   0  0  0  0  0  0  0  0  0  0  0  0
    0.4608   -2.0295   -1.0783 C   0  0  0  0  0  0  0  0  0  0  0  0
   -0.1468   -1.5471   -2.3898 C   0  0  0  0  0  0  0  0  0  0  0  0
   -1.1751   -2.4411   -2.9699 C   0  0  0  0  0  0  0  0  0  0  0  0
   -2.1245   -3.0377   -1.9166 C   0  0  0  0  0  0  0  0  0  0  0  0
   -1.2751   -3.9087   -1.0798 C   0  0  0  0  0  0  0  0  0  0  0  0
    0.0763   -3.4317   -0.7339 C   0  0  0  0  0  0  0  0  0  0  0  0
   -2.9305   -1.9850   -1.3041 C   0  0  0  0  0  0  0  0  0  0  0  0
   -4.6512    3.0235    0.3621 O   0  0  0  0  0  0  0  0  0  0  0  0
   -4.6170    4.1781   -0.3595 C   0  0  0  0  0  0  0  0  0  0  0  0
   -0.5284    5.3823    0.6083 O   0  0  0  0  0  0  0  0  0  0  0  0
    4.3906   -2.1027    2.1417 O   0  0  0  0  0  0  0  0  0  0  0  0
    4.8774   -2.9977    3.0906 C   0  0  0  0  0  0  0  0  0  0  0  0
    2.8340   -3.8541    0.7417 O   0  0  0  0  0  0  0  0  0  0  0  0
   -4.7574   -3.9949   -0.6482 C   0  0  0  0  0  0  0  0  0  0  0  0
    4.2572    2.7005    0.3428 C   0  0  0  0  0  0  0  0  0  0  0  0
    3.0169    2.9310   -1.6769 C   0  0  0  0  0  0  0  0  0  0  0  0
   -6.8943   -2.3878   -1.7613 H   0  0  0  0  0  0  0  0  0  0  0  0
   -6.8926   -1.4474   -0.2614 H   0  0  0  0  0  0  0  0  0  0  0  0
   -5.2183   -0.9480   -2.8009 H   0  0  0  0  0  0  0  0  0  0  0  0
   -6.7042   -0.1010   -2.3461 H   0  0  0  0  0  0  0  0  0  0  0  0
   -5.7917    1.0127   -0.5712 H   0  0  0  0  0  0  0  0  0  0  0  0
   -5.0682   -0.5062    0.8937 H   0  0  0  0  0  0  0  0  0  0  0  0
   -3.6471   -2.2799    0.6754 H   0  0  0  0  0  0  0  0  0  0  0  0
   -4.8345    1.8436   -2.5051 H   0  0  0  0  0  0  0  0  0  0  0  0
   -3.5030    0.6873   -2.5773 H   0  0  0  0  0  0  0  0  0  0  0  0
   -2.3553    2.3417   -1.4252 H   0  0  0  0  0  0  0  0  0  0  0  0
   -4.1851    2.1841    0.9521 H   0  0  0  0  0  0  0  0  0  0  0  0
   -2.2553   -0.1100    0.2556 H   0  0  0  0  0  0  0  0  0  0  0  0
   -3.1146    0.1969    1.7673 H   0  0  0  0  0  0  0  0  0  0  0  0
   -1.1917    0.8516    1.6635 H   0  0  0  0  0  0  0  0  0  0  0  0
   -2.1725    2.4369    3.5518 H   0  0  0  0  0  0  0  0  0  0  0  0
    0.2496    1.9034    4.6682 H   0  0  0  0  0  0  0  0  0  0  0  0
   -0.8913    0.5592    4.1707 H   0  0  0  0  0  0  0  0  0  0  0  0
    0.4506   -0.1013    2.3968 H   0  0  0  0  0  0  0  0  0  0  0  0
    1.6646    0.5644    3.5038 H   0  0  0  0  0  0  0  0  0  0  0  0
    1.4384    2.7534    2.6081 H   0  0  0  0  0  0  0  0  0  0  0  0
    0.0463    3.5005    1.0053 H   0  0  0  0  0  0  0  0  0  0  0  0
    0.0912    2.0473    0.0048 H   0  0  0  0  0  0  0  0  0  0  0  0
    2.9339    0.6759    1.8349 H   0  0  0  0  0  0  0  0  0  0  0  0
    3.3254    2.3476    1.5010 H   0  0  0  0  0  0  0  0  0  0  0  0
    1.6409    0.9041   -0.6294 H   0  0  0  0  0  0  0  0  0  0  0  0
    4.8293    3.0191   -1.9313 H   0  0  0  0  0  0  0  0  0  0  0  0
    4.3210    1.4901   -2.6009 H   0  0  0  0  0  0  0  0  0  0  0  0
    5.8961    2.2122   -0.0877 H   0  0  0  0  0  0  0  0  0  0  0  0
    6.2506    1.0328   -1.3621 H   0  0  0  0  0  0  0  0  0  0  0  0
    4.8850    0.6527    1.1888 H   0  0  0  0  0  0  0  0  0  0  0  0
    3.6383   -0.0778   -1.5300 H   0  0  0  0  0  0  0  0  0  0  0  0
    6.6745   -0.7169    0.6158 H   0  0  0  0  0  0  0  0  0  0  0  0
    6.0266   -1.1379   -1.0202 H   0  0  0  0  0  0  0  0  0  0  0  0
    4.6228   -1.6735    1.6243 H   0  0  0  0  0  0  0  0  0  0  0  0
    4.1324   -2.4093   -1.2463 H   0  0  0  0  0  0  0  0  0  0  0  0
    2.6087   -1.1820    1.0698 H   0  0  0  0  0  0  0  0  0  0  0  0
   -0.1668   -1.0052   -0.3644 H   0  0  0  0  0  0  0  0  0  0  0  0
   -0.2595   -1.2165   -2.6179 H   0  0  0  0  0  0  0  0  0  0  0  0
    1.0363   -2.4339   -2.6505 H   0  0  0  0  0  0  0  0  0  0  0  0
   -0.4798   -4.2263   -2.1926 H   0  0  0  0  0  0  0  0  0  0  0  0
   -1.5340   -3.0798   -3.0362 H   0  0  0  0  0  0  0  0  0  0  0  0
   -2.5067   -4.0434   -1.0182 H   0  0  0  0  0  0  0  0  0  0  0  0
   -1.4397   -3.9800    0.9608 H   0  0  0  0  0  0  0  0  0  0  0  0
   -1.4426   -2.2152    1.0237 H   0  0  0  0  0  0  0  0  0  0  0  0
    0.7379   -2.9709    1.1544 H   0  0  0  0  0  0  0  0  0  0  0  0
    0.5127   -3.9378   -0.4095 H   0  0  0  0  0  0  0  0  0  0  0  0
   -3.3054   -2.2800   -2.2512 H   0  0  0  0  0  0  0  0  0  0  0  0
   -2.2681   -1.0698   -1.5209 H   0  0  0  0  0  0  0  0  0  0  0  0
   -3.6706    5.4136   -1.5510 H   0  0  0  0  0  0  0  0  0  0  0  0
   -2.8331    4.2714   -2.6309 H   0  0  0  0  0  0  0  0  0  0  0  0
   -2.2193    4.6198   -0.9184 H   0  0  0  0  0  0  0  0  0  0  0  0
   -1.2709    4.2444    2.6860 H   0  0  0  0  0  0  0  0  0  0  0  0
    6.5312   -4.2822    2.4699 H   0  0  0  0  0  0  0  0  0  0  0  0
    6.2936   -2.5535    2.8264 H   0  0  0  0  0  0  0  0  0  0  0  0
    4.8816   -3.6126    2.6687 H   0  0  0  0  0  0  0  0  0  0  0  0
    3.0368   -3.6460    1.1353 H   0  0  0  0  0  0  0  0  0  0  0  0
   -6.4849   -3.2094    0.6927 H   0  0  0  0  0  0  0  0  0  0  0  0
   -5.6718   -4.5481   -0.2560 H   0  0  0  0  0  0  0  0  0  0  0  0
   -4.7785   -3.6167    1.0162 H   0  0  0  0  0  0  0  0  0  0  0  0
    4.3347    3.5867    0.2421 H   0  0  0  0  0  0  0  0  0  0  0  0
    2.5037    3.8382    0.3782 H   0  0  0  0  0  0  0  0  0  0  0  0
    3.4066    4.3477   -1.0550 H   0  0  0  0  0  0  0  0  0  0  0  0
    2.7458    3.2356   -2.8423 H   0  0  0  0  0  0  0  0  0  0  0  0
    1.4440    3.3272   -1.6266 H   0  0  0  0  0  0  0  0  0  0  0  0
    1.7282    1.7389   -2.4843 H   0  0  0  0  0  0  0  0  0  0  0  0
   -7.1082   -2.7028   -1.0812 H   0  0  0  0  0  0  0  0  0  0  0  0
   -6.5398   -2.4065    0.5882 H   0  0  0  0  0  0  0  0  0  0  0  0
   -6.3909   -0.4562   -1.7606 H   0  0  0  0  0  0  0  0  0  0  0  0
   -7.4811   -0.3641   -0.3037 H   0  0  0  0  0  0  0  0  0  0  0  0
   -5.6408   -0.2451    1.2119 H   0  0  0  0  0  0  0  0  0  0  0  0
   -3.8685    0.0019   -1.2914 H   0  0  0  0  0  0  0  0  0  0  0  0
   -3.6177   -2.4574    0.5206 H   0  0  0  0  0  0  0  0  0  0  0  0
   -5.2572    1.6501   -1.1571 H   0  0  0  0  0  0  0  0  0  0  0  0
   -6.4761    1.8851    0.1205 H   0  0  0  0  0  0  0  0  0  0  0  0
   -4.4072    3.2528    0.4001 H   0  0  0  0  0  0  0  0  0  0  0  0
   -2.9295    1.7098   -0.7245 H   0  0  0  0  0  0  0  0  0  0  0  0
   -2.0168   -0.2257    0.3777 H   0  0  0  0  0  0  0  0  0  0  0  0
   -3.3046   -0.1151    1.7050 H   0  0  0  0  0  0  0  0  0  0  0  0
   -1.7991    3.1033   -0.7876 H   0  0  0  0  0  0  0  0  0  0  0  0
   -1.9380    4.5980    1.2834 H   0  0  0  0  0  0  0  0  0  0  0  0
    0.3489    5.3948    1.9662 H   0  0  0  0  0  0  0  0  0  0  0  0
   -0.1490    3.8540    2.7268 H   0  0  0  0  0  0  0  0  0  0  0  0
    1.5959    4.3155    0.3137 H   0  0  0  0  0  0  0  0  0  0  0  0
    2.1444    3.8069    2.0080 H   0  0  0  0  0  0  0  0  0  0  0  0
    0.4081    1.9528    1.7842 H   0  0  0  0  0  0  0  0  0  0  0  0
    0.4362    2.7454   -1.1657 H   0  0  0  0  0  0  0  0  0  0  0  0
   -0.1760    1.2240   -0.4962 H   0  0  0  0  0  0  0  0  0  0  0  0
    2.8041    1.4781    1.7232 H   0  0  0  0  0  0  0  0  0  0  0  0
    1.6881    0.3079    1.0480 H   0  0  0  0  0  0  0  0  0  0  0  0
    2.1235    0.9218   -1.2370 H   0  0  0  0  0  0  0  0  0  0  0  0
    5.5925    2.4568   -1.8305 H   0  0  0  0  0  0  0  0  0  0  0  0
    4.8107    1.0630   -2.5226 H   0  0  0  0  0  0  0  0  0  0  0  0
    6.5451    1.4306   -0.0149 H   0  0  0  0  0  0  0  0  0  0  0  0
    6.5031    0.0801   -1.1755 H   0  0  0  0  0  0  0  0  0  0  0  0
    4.7945    0.5625    1.3097 H   0  0  0  0  0  0  0  0  0  0  0  0
    3.9534   -0.4199   -1.4660 H   0  0  0  0  0  0  0  0  0  0  0  0
    6.4607   -0.9913    1.4608 H   0  0  0  0  0  0  0  0  0  0  0  0
    6.3002   -1.5684   -0.2069 H   0  0  0  0  0  0  0  0  0  0  0  0
    4.2682   -2.2322    1.9849 H   0  0  0  0  0  0  0  0  0  0  0  0
    4.4793   -2.3900   -1.0770 H   0  0  0  0  0  0  0  0  0  0  0  0
    2.5212   -1.5225    0.9858 H   0  0  0  0  0  0  0  0  0  0  0  0
    0.1759   -1.1341   -0.3657 H   0  0  0  0  0  0  0  0  0  0  0  0
   -0.3914   -1.2410   -2.5552 H   0  0  0  0  0  0  0  0  0  0  0  0
    0.8763   -2.3900   -2.9843 H   0  0  0  0  0  0  0  0  0  0  0  0
   -0.3446   -4.3106   -2.3133 H   0  0  0  0  0  0  0  0  0  0  0  0
   -1.4516   -3.2410   -3.1880 H   0  0  0  0  0  0  0  0  0  0  0  0
   -2.4261   -4.2831   -1.2342 H   0  0  0  0  0  0  0  0  0  0  0  0
   -1.2833   -4.2413    0.7049 H   0  0  0  0  0  0  0  0  0  0  0  0
   -1.3996   -2.4862    0.8651 H   0  0  0  0  0  0  0  0  0  0  0  0
    0.8108   -3.1465    0.9958 H   0  0  0  0  0  0  0  0  0  0  0  0
    0.6631   -4.1649   -0.4956 H   0  0  0  0  0  0  0  0  0  0  0  0
   -3.1776   -2.2633   -2.4199 H   0  0  0  0  0  0  0  0  0  0  0  0
   -2.1057   -1.2306   -1.4596 H   0  0  0  0  0  0  0  0  0  0  0  0
   -3.9290    3.9338    2.4257 H   0  0  0  0  0  0  0  0  0  0  0  0
   -5.1794    3.3509    3.6616 H   0  0  0  0  0  0  0  0  0  0  0  0
   -5.6395    3.8446    1.9436 H   0  0  0  0  0  0  0  0  0  0  0  0
   -1.0067    6.1979    0.1066 H   0  0  0  0  0  0  0  0  0  0  0  0
    6.1591   -5.0480    2.3880 H   0  0  0  0  0  0  0  0  0  0  0  0
    5.8615   -3.4424    3.2090 H   0  0  0  0  0  0  0  0  0  0  0  0
    4.4947   -4.5071    2.6592 H   0  0  0  0  0  0  0  0  0  0  0  0
    3.0413   -3.9929    0.8416 H   0  0  0  0  0  0  0  0  0  0  0  0
   -5.9909   -4.4398   -0.2493 H   0  0  0  0  0  0  0  0  0  0  0  0
   -4.7721   -4.6689   -1.5045 H   0  0  0  0  0  0  0  0  0  0  0  0
   -4.3058   -4.2559    0.2466 H   0  0  0  0  0  0  0  0  0  0  0  0
    4.1335    2.8537    1.0550 H   0  0  0  0  0  0  0  0  0  0  0  0
    3.8999    4.0864   -0.2527 H   0  0  0  0  0  0  0  0  0  0  0  0
    5.4111    3.2284   -0.0761 H   0  0  0  0  0  0  0  0  0  0  0  0
    3.9766    3.2292   -2.7403 H   0  0  0  0  0  0  0  0  0  0  0  0
    2.5748    3.6562   -1.7584 H   0  0  0  0  0  0  0  0  0  0  0  0
    2.6187    2.0896   -2.6980 H   0  0  0  0  0  0  0  0  0  0  0  0
   -6.5671   -2.3688   -2.0640 H   0  0  0  0  0  0  0  0  0  0  0  0
   -6.5793   -1.6223   -0.3735 H   0  0  0  0  0  0  0  0  0  0  0  0
   -4.7252   -0.5292   -2.5705 H   0  0  0  0  0  0  0  0  0  0  0  0
   -6.4393    0.0361   -2.2740 H   0  0  0  0  0  0  0  0  0  0  0  0
   -6.0812    0.6758   -0.1442 H   0  0  0  0  0  0  0  0  0  0  0  0
   -5.0828   -0.8644    1.1456 H   0  0  0  0  0  0  0  0  0  0  0  0
   -3.6026   -2.4945    0.6743 H   0  0  0  0  0  0  0  0  0  0  0  0
   -3.6552    1.2610   -1.8154 H   0  0  0  0  0  0  0  0  0  0  0  0
   -5.1507    2.2229   -1.5093 H   0  0  0  0  0  0  0  0  0  0  0  0
   -3.2613    3.1977   -0.4198 H   0  0  0  0  0  0  0  0  0  0  0  0
   -2.1185    0.9504   -0.5965 H   0  0  0  0  0  0  0  0  0  0  0  0
   -2.5450   -0.5462    1.5818 H   0  0  0  0  0  0  0  0  0  0  0  0
   -3.7249    0.7030    1.9886 H   0  0  0  0  0  0  0  0  0  0  0  0
   -1.5229    3.6552    0.5259 H   0  0  0  0  0  0  0  0  0  0  0  0
   -1.8374    3.5841    2.9334 H   0  0  0  0  0  0  0  0  0  0  0  0
   -1.1668    1.5336    3.5774 H   0  0  0  0  0  0  0  0  0  0  0  0
    0.1731    2.4407    4.2990 H   0  0  0  0  0  0  0  0  0  0  0  0
    1.4679    0.9692    3.1842 H   0  0  0  0  0  0  0  0  0  0  0  0
    0.1941    0.4076    2.0863 H   0  0  0  0  0  0  0  0  0  0  0  0
    1.7463    3.0167    2.0583 H   0  0  0  0  0  0  0  0  0  0  0  0
    0.2160    2.2461   -0.4508 H   0  0  0  0  0  0  0  0  0  0  0  0
    0.6975    3.8029    0.2301 H   0  0  0  0  0  0  0  0  0  0  0  0
    3.5090    1.9651    1.1579 H   0  0  0  0  0  0  0  0  0  0  0  0
    2.6483    0.4715    1.4667 H   0  0  0  0  0  0  0  0  0  0  0  0
    1.6416    0.9466   -1.0547 H   0  0  0  0  0  0  0  0  0  0  0  0
    4.9354    2.5699   -2.4767 H   0  0  0  0  0  0  0  0  0  0  0  0
    4.0857    1.1355   -3.0535 H   0  0  0  0  0  0  0  0  0  0  0  0
    6.1813    1.5511   -0.8476 H   0  0  0  0  0  0  0  0  0  0  0  0
    5.9830    0.2403   -2.0384 H   0  0  0  0  0  0  0  0  0  0  0  0
    4.8386    0.4963    0.6750 H   0  0  0  0  0  0  0  0  0  0  0  0
    3.3505   -0.3420   -1.8656 H   0  0  0  0  0  0  0  0  0  0  0  0
    6.5010   -1.1720    0.0507 H   0  0  0  0  0  0  0  0  0  0  0  0
    5.3478   -1.9328   -1.1197 H   0  0  0  0  0  0  0  0  0  0  0  0
    4.9092   -1.2773    1.8410 H   0  0  0  0  0  0  0  0  0  0  0  0
    3.2562   -3.3445    0.4995 H   0  0  0  0  0  0  0  0  0  0  0  0
    1.7020   -0.9489    0.3643 H   0  0  0  0  0  0  0  0  0  0  0  0
    0.4067   -1.1067   -1.0309 H   0  0  0  0  0  0  0  0  0  0  0  0
    0.3934   -1.7595   -3.2308 H   0  0  0  0  0  0  0  0  0  0  0  0
    0.8468   -3.4437   -2.9187 H   0  0  0  0  0  0  0  0  0  0  0  0
   -1.3163   -4.0594   -3.0811 H   0  0  0  0  0  0  0  0  0  0  0  0
   -1.7781   -2.3647   -3.3151 H   0  0  0  0  0  0  0  0  0  0  0  0
   -2.8584   -3.7280   -1.4716 H   0  0  0  0  0  0  0  0  0  0  0  0
   -1.0120   -4.7683   -0.5210 H   0  0  0  0  0  0  0  0  0  0  0  0
   -1.7301   -3.6789    0.6853 H   0  0  0  0  0  0  0  0  0  0  0  0
    0.1145   -2.3932    0.8590 H   0  0  0  0  0  0  0  0  0  0  0  0
    0.9379   -3.8483    0.1540 H   0  0  0  0  0  0  0  0  0  0  0  0
   -2.5217   -1.0803   -1.8017 H   0  0  0  0  0  0  0  0  0  0  0  0
   -1.7917   -1.3734   -0.1203 H   0  0  0  0  0  0  0  0  0  0  0  0
   -3.6140    4.4032    1.5089 H   0  0  0  0  0  0  0  0  0  0  0  0
   -5.2184    4.0511    2.2029 H   0  0  0  0  0  0  0  0  0  0  0  0
   -5.0627    4.3599    0.4648 H   0  0  0  0  0  0  0  0  0  0  0  0
   -0.5010    5.2473    2.3238 H   0  0  0  0  0  0  0  0  0  0  0  0
    6.8415   -2.1991    2.5459 H   0  0  0  0  0  0  0  0  0  0  0  0
    6.6586   -3.9631    2.7681 H   0  0  0  0  0  0  0  0  0  0  0  0
    5.3932   -2.8617    3.3377 H   0  0  0  0  0  0  0  0  0  0  0  0
    3.1263   -2.9761    2.5592 H   0  0  0  0  0  0  0  0  0  0  0  0
   -6.1620   -3.7969    0.0627 H   0  0  0  0  0  0  0  0  0  0  0  0
   -5.1499   -4.6140   -1.2339 H   0  0  0  0  0  0  0  0  0  0  0  0
   -4.4360   -4.1042    0.3199 H   0  0  0  0  0  0  0  0  0  0  0  0
    4.8041    2.9636   -0.0564 H   0  0  0  0  0  0  0  0  0  0  0  0
    3.1078    3.6857    0.1435 H   0  0  0  0  0  0  0  0  0  0  0  0
    4.0993    4.0289   -1.2805 H   0  0  0  0  0  0  0  0  0  0  0  0
    2.9640    3.1311   -3.1935 H   0  0  0  0  0  0  0  0  0  0  0  0
    1.9252    3.6691   -1.8500 H   0  0  0  0  0  0  0  0  0  0  0  0
    1.6200    2.0369   -2.5885 H   0  0  0  0  0  0  0  0  0  0  0  0
   -6.1093   -2.9457   -1.7413 H   0  0  0  0  0  0  0  0  0  0  0  0
   -6.4250   -2.2038   -0.1532 H   0  0  0  0  0  0  0  0  0  0  0  0
   -4.9334   -0.7039   -2.3861 H   0  0  0  0  0  0  0  0  0  0  0  0
   -6.6438   -0.5881   -1.9510 H   0  0  0  0  0  0  0  0  0  0  0  0
   -6.3115    0.3322    0.0781 H   0  0  0  0  0  0  0  0  0  0  0  0
   -5.1512   -1.1077    1.3394 H   0  0  0  0  0  0  0  0  0  0  0  0
   -3.1982   -2.1935    1.0305 H   0  0  0  0  0  0  0  0  0  0  0  0
   -5.6769    1.8572   -1.4796 H   0  0  0  0  0  0  0  0  0  0  0  0
   -3.9699    1.4004   -1.5527 H   0  0  0  0  0  0  0  0  0  0  0  0
   -5.5529    2.1717    0.9686 H   0  0  0  0  0  0  0  0  0  0  0  0
   -3.4719    2.4265    2.0291 H   0  0  0  0  0  0  0  0  0  0  0  0
   -3.9533    0.3104    2.5934 H   0  0  0  0  0  0  0  0  0  0  0  0
   -2.5904   -0.1123    1.5642 H   0  0  0  0  0  0  0  0  0  0  0  0
   -0.8595    0.9919    1.4054 H   0  0  0  0  0  0  0  0  0  0  0  0
   -1.7534    2.8485    3.0184 H   0  0  0  0  0  0  0  0  0  0  0  0
    0.2563    1.4979    3.1644 H   0  0  0  0  0  0  0  0  0  0  0  0
    0.3786    3.1671    3.8102 H   0  0  0  0  0  0  0  0  0  0  0  0
    2.3776    2.4703    2.3990 H   0  0  0  0  0  0  0  0  0  0  0  0
    1.5988    4.0301    2.0667 H   0  0  0  0  0  0  0  0  0  0  0  0
    1.8305    3.2441   -0.0335 H   0  0  0  0  0  0  0  0  0  0  0  0
   -0.4167    3.4307   -0.3147 H   0  0  0  0  0  0  0  0  0  0  0  0
   -0.1247    1.7542   -0.8392 H   0  0  0  0  0  0  0  0  0  0  0  0
    2.7363    1.0289    1.2440 H   0  0  0  0  0  0  0  0  0  0  0  0
    1.2492    0.3768    0.4434 H   0  0  0  0  0  0  0  0  0  0  0  0
    1.9807    0.7918   -1.6875 H   0  0  0  0  0  0  0  0  0  0  0  0
    5.1384    2.3281   -2.7150 H   0  0  0  0  0  0  0  0  0  0  0  0
    4.1898    0.8592   -3.0540 H   0  0  0  0  0  0  0  0  0  0  0  0
    6.5326    1.2537   -1.1095 H   0  0  0  0  0  0  0  0  0  0  0  0
    6.1202   -0.0461   -2.2272 H   0  0  0  0  0  0  0  0  0  0  0  0
    5.0719    0.4065    0.6053 H   0  0  0  0  0  0  0  0  0  0  0  0
    3.6307   -0.7249   -1.8654 H   0  0  0  0  0  0  0  0  0  0  0  0
    6.7364   -1.2103    0.0732 H   0  0  0  0  0  0  0  0  0  0  0  0
    5.7862   -1.8511   -1.2782 H   0  0  0  0  0  0  0  0  0  0  0  0
    5.5246   -3.2430    0.8317 H   0  0  0  0  0  0  0  0  0  0  0  0
    3.7953   -3.2083   -0.7591 H   0  0  0  0  0  0  0  0  0  0  0  0
    2.6261   -0.9999    1.0117 H   0  0  0  0  0  0  0  0  0  0  0  0
    1.8098   -3.6624   -0.7532 H   0  0  0  0  0  0  0  0  0  0  0  0
    1.2120   -2.5237   -2.8972 H   0  0  0  0  0  0  0  0  0  0  0  0
    0.3085   -3.9889   -2.4728 H   0  0  0  0  0  0  0  0  0  0  0  0
   -1.0948   -2.0890   -3.3452 H   0  0  0  0  0  0  0  0  0  0  0  0
   -0.4479   -1.0358   -2.0757 H   0  0  0  0  0  0  0  0  0  0  0  0
   -2.6172   -3.1122   -1.9294 H   0  0  0  0  0  0  0  0  0  0  0  0
   -0.9227   -4.3814   -0.8963 H   0  0  0  0  0  0  0  0  0  0  0  0
   -1.8921   -3.7898    0.4585 H   0  0  0  0  0  0  0  0  0  0  0  0
   -0.1524   -1.8750    0.7148 H   0  0  0  0  0  0  0  0  0  0  0  0
    0.3155   -3.5362    1.1027 H   0  0  0  0  0  0  0  0  0  0  0  0
   -2.6842   -0.6179   -1.5628 H   0  0  0  0  0  0  0  0  0  0  0  0
   -1.6861   -0.8227   -0.1178 H   0  0  0  0  0  0  0  0  0  0  0  0
   -5.3325    4.2585    1.7864 H   0  0  0  0  0  0  0  0  0  0  0  0
   -6.3947    4.1858    0.3699 H   0  0  0  0  0  0  0  0  0  0  0  0
   -5.1919    5.4979    0.4936 H   0  0  0  0  0  0  0  0  0  0  0  0
   -1.7737    4.4070    1.2689 H   0  0  0  0  0  0  0  0  0  0  0  0
    5.3786   -1.9199    3.9150 H   0  0  0  0  0  0  0  0  0  0  0  0
    6.5174   -2.6310    2.7181 H   0  0  0  0  0  0  0  0  0  0  0  0
    4.9036   -3.3475    2.9408 H   0  0  0  0  0  0  0  0  0  0  0  0
    3.4094   -4.2859    1.2202 H   0  0  0  0  0  0  0  0  0  0  0  0
   -5.8580   -3.8228    0.6797 H   0  0  0  0  0  0  0  0  0  0  0  0
   -4.2018   -3.5807    1.3773 H   0  0  0  0  0  0  0  0  0  0  0  0
   -4.4268   -4.7607    0.0651 H   0  0  0  0  0  0  0  0  0  0  0  0
    4.0171    2.5583    0.6518 H   0  0  0  0  0  0  0  0  0  0  0  0
    4.0502    3.9472   -0.5763 H   0  0  0  0  0  0  0  0  0  0  0  0
    5.3648    2.7852   -0.4621 H   0  0  0  0  0  0  0  0  0  0  0  0
    3.2079    2.8679   -3.3376 H   0  0  0  0  0  0  0  0  0  0  0  0
    2.9805    3.9924   -1.9958 H   0  0  0  0  0  0  0  0  0  0  0  0
    1.7688    2.6312   -2.3460 H   0  0  0  0  0  0  0  0  0  0  0  0
   -6.5358   -3.0801    0.5396 H   0  0  0  0  0  0  0  0  0  0  0  0
   -5.6897   -2.2318    1.8554 H   0  0  0  0  0  0  0  0  0  0  0  0
   -6.1147   -1.2112   -1.0167 H   0  0  0  0  0  0  0  0  0  0  0  0
   -6.9788   -0.7732    0.4624 H   0  0  0  0  0  0  0  0  0  0  0  0
   -5.2504    0.3792    1.3906 H   0  0  0  0  0  0  0  0  0  0  0  0
   -3.7596   -1.2001    1.9241 H   0  0  0  0  0  0  0  0  0  0  0  0
   -2.4855   -2.5908    0.6980 H   0  0  0  0  0  0  0  0  0  0  0  0
   -5.6980    1.2877   -0.8264 H   0  0  0  0  0  0  0  0  0  0  0  0
   -4.2997    0.4816   -1.5324 H   0  0  0  0  0  0  0  0  0  0  0  0
   -3.1466    2.2916   -0.9012 H   0  0  0  0  0  0  0  0  0  0  0  0
   -3.6263    1.4396    1.9767 H   0  0  0  0  0  0  0  0  0  0  0  0
   -1.8129   -0.0921    1.7840 H   0  0  0  0  0  0  0  0  0  0  0  0
   -1.7774    0.0967    0.0409 H   0  0  0  0  0  0  0  0  0  0  0  0
   -1.7742    3.5449   -0.1873 H   0  0  0  0  0  0  0  0  0  0  0  0
   -1.7471    4.6778    2.0788 H   0  0  0  0  0  0  0  0  0  0  0  0
    0.5941    5.1490    2.7940 H   0  0  0  0  0  0  0  0  0  0  0  0
   -0.0188    3.5320    3.3027 H   0  0  0  0  0  0  0  0  0  0  0  0
    1.7902    4.2440    1.0171 H   0  0  0  0  0  0  0  0  0  0  0  0
    2.2279    3.3703    2.5638 H   0  0  0  0  0  0  0  0  0  0  0  0
    0.3070    1.8232    2.0004 H   0  0  0  0  0  0  0  0  0  0  0  0
    0.4151    3.3952   -0.5641 H   0  0  0  0  0  0  0  0  0  0  0  0
   -0.1564    1.7297   -0.6059 H   0  0  0  0  0  0  0  0  0  0  0  0
    2.6124    1.0559    1.8670 H   0  0  0  0  0  0  0  0  0  0  0  0
    1.3377    0.2013    1.0177 H   0  0  0  0  0  0  0  0  0  0  0  0
    1.9023    0.9603   -1.1301 H   0  0  0  0  0  0  0  0  0  0  0  0
    5.3120    2.3953   -1.7903 H   0  0  0  0  0  0  0  0  0  0  0  0
    4.3802    1.1085   -2.5333 H   0  0  0  0  0  0  0  0  0  0  0  0
    6.4527    1.0748   -0.2521 H   0  0  0  0  0  0  0  0  0  0  0  0
    6.1821   -0.0429   -1.5906 H   0  0  0  0  0  0  0  0  0  0  0  0
    4.8214    0.0467    1.1491 H   0  0  0  0  0  0  0  0  0  0  0  0
    3.5967   -0.4669   -1.5720 H   0  0  0  0  0  0  0  0  0  0  0  0
    6.5271   -1.4560    0.4475 H   0  0  0  0  0  0  0  0  0  0  0  0
    5.5246   -1.9919   -0.9793 H   0  0  0  0  0  0  0  0  0  0  0  0
    5.2451   -3.5255    0.9498 H   0  0  0  0  0  0  0  0  0  0  0  0
    3.8070   -3.2469   -0.9201 H   0  0  0  0  0  0  0  0  0  0  0  0
    2.0709   -1.6112    0.8427 H   0  0  0  0  0  0  0  0  0  0  0  0
    0.1110   -1.3496   -0.2723 H   0  0  0  0  0  0  0  0  0  0  0  0
   -0.5482   -0.5057   -2.2466 H   0  0  0  0  0  0  0  0  0  0  0  0
    0.6421   -1.4140   -3.1871 H   0  0  0  0  0  0  0  0  0  0  0  0
   -0.6992   -3.3203   -3.4570 H   0  0  0  0  0  0  0  0  0  0  0  0
   -1.8220   -1.8666   -3.6520 H   0  0  0  0  0  0  0  0  0  0  0  0
   -2.8015   -3.6985   -2.5446 H   0  0  0  0  0  0  0  0  0  0  0  0
   -1.1406   -4.8809   -1.6595 H   0  0  0  0  0  0  0  0  0  0  0  0
   -1.8419   -4.2953   -0.1787 H   0  0  0  0  0  0  0  0  0  0  0  0
    0.1620   -3.4984    0.3942 H   0  0  0  0  0  0  0  0  0  0  0  0
    0.8875   -4.0905   -1.1615 H   0  0  0  0  0  0  0  0  0  0  0  0
   -3.8805   -1.8574   -1.9100 H   0  0  0  0  0  0  0  0  0  0  0  0
   -2.4197   -1.0020   -1.4964 H   0  0  0  0  0  0  0  0  0  0  0  0
   -4.8514    4.0425   -1.4415 H   0  0  0  0  0  0  0  0  0  0  0  0
   -3.7558    4.8490   -0.1785 H   0  0  0  0  0  0  0  0  0  0  0  0
   -5.5010    4.7880    0.0094 H   0  0  0  0  0  0  0  0  0  0  0  0
   -1.2737    6.0616    0.5458 H   0  0  0  0  0  0  0  0  0  0  0  0
    5.9986   -3.1067    3.0001 H   0  0  0  0  0  0  0  0  0  0  0  0
    4.4606   -4.0053    2.9497 H   0  0  0  0  0  0  0  0  0  0  0  0
    4.7269   -2.6204    4.1305 H   0  0  0  0  0  0  0  0  0  0  0  0
    2.5300   -3.4765    1.6068 H   0  0  0  0  0  0  0  0  0  0  0  0
   -5.7473   -4.4498   -0.3308 H   0  0  0  0  0  0  0  0  0  0  0  0
   -5.0078   -3.5190   -1.6248 H   0  0  0  0  0  0  0  0  0  0  0  0
   -4.0864   -4.8458   -0.7155 H   0  0  0  0  0  0  0  0  0  0  0  0
    4.0914    2.3272    1.3507 H   0  0  0  0  0  0  0  0  0  0  0  0
    3.9989    3.7977    0.2386 H   0  0  0  0  0  0  0  0  0  0  0  0
    5.3869    2.7366    0.2508 H   0  0  0  0  0  0  0  0  0  0  0  0
    3.7136    3.2853   -2.4500 H   0  0  0  0  0  0  0  0  0  0  0  0
    2.6846    3.8546   -1.1621 H   0  0  0  0  0  0  0  0  0  0  0  0
    2.1356    2.4995   -2.1798 H   0  0  0  0  0  0  0  0  0  0  0  0
  1  2  1  0
  2  3  1  0
  3  4  1  0
  4  5  1  0
  1  6  1  0
  5  6  1  0
  4  7  1  0
  7  8  1  0
  8  9  1  0
  5 10  1  0
  9 10  1  0
  9 11  1  0
 11 12  1  0
 12 13  1  0
 13 14  1  0
 14 15  1  0
 15 16  1  0
 12 17  1  0
 16 17  1  0
 16 18  1  0
 18 19  1  0
 19 20  1  0
 20 21  1  0
 21 22  1  0
 22 23  1  0
 19 24  1  0
 23 24  1  0
 23 25  1  0
 25 26  1  0
 26 27  1  0
 24 28  1  0
 27 28  1  0
 28 29  1  0
 29 30  1  0
 30 31  1  0
 31 32  1  0
 32 33  1  0
 33 34  1  0
 30 35  1  0
 34 35  1  0
  6 36  1  0
 33 36  1  0
  8 37  1  0
 37 38  1  0
 13 39  1  0
 26 40  1  0
 40 41  1  0
 27 42  1  0
  1 43  1  0
 20 44  1  0
 20 45  1  0
 46 47  1  0
 47 48  1  0
 48 49  1  0
 49 50  1  0
 46 51  1  0
 50 51  1  0
 49 52  1  0
 52 53  1  0
 53 54  1  0
 50 55  1  0
 54 55  1  0
 54 56  1  0
 56 57  1  0
 57 58  1  0
 58 59  1  0
 59 60  1  0
 60 61  1  0
 57 62  1  0
 61 62  1  0
 61 63  1  0
 63 64  1  0
 64 65  1  0
 65 66  1  0
 66 67  1  0
 67 68  1  0
 64 69  1  0
 68 69  1  0
 68 70  1  0
 70 71  1  0
 71 72  1  0
 69 73  1  0
 72 73  1  0
 73 74  1  0
 74 75  1  0
 75 76  1  0
 76 77  1  0
 77 78  1  0
 78 79  1  0
 75 80  1  0
 79 80  1  0
 51 81  1  0
 78 81  1  0
 53 82  1  0
 82 83  1  0
 58 84  1  0
 71 85  1  0
 85 86  1  0
 72 87  1  0
 46 88  1  0
 65 89  1  0
 65 90  1  0
 91 92  1  0
 92 93  1  0
 93 94  1  0
 94 95  1  0
 91 96  1  0
 95 96  1  0
 94 97  1  0
 97 98  1  0
 98 99  1  0
 95100  1  0
 99100  1  0
 99101  1  0
101102  1  0
102103  1  0
103104  1  0
104105  1  0
105106  1  0
102107  1  0
106107  1  0
106108  1  0
108109  1  0
109110  1  0
110111  1  0
111112  1  0
112113  1  0
109114  1  0
113114  1  0
113115  1  0
115116  1  0
116117  1  0
114118  1  0
117118  1  0
118119  1  0
119120  1  0
120121  1  0
121122  1  0
122123  1  0
123124  1  0
120125  1  0
124125  1  0
 96126  1  0
123126  1  0
 98127  1  0
127128  1  0
103129  1  0
116130  1  0
130131  1  0
117132  1  0
 91133  1  0
110134  1  0
110135  1  0
136137  1  0
137138  1  0
138139  1  0
139140  1  0
136141  1  0
140141  1  0
139142  1  0
142143  1  0
143144  1  0
140145  1  0
144145  1  0
144146  1  0
146147  1  0
147148  1  0
148149  1  0
149150  1  0
150151  1  0
147152  1  0
151152  1  0
151153  1  0
153154  1  0
154155  1  0
155156  1  0
156157  1  0
157158  1  0
154159  1  0
158159  1  0
158160  1  0
160161  1  0
161162  1  0
159163  1  0
162163  1  0
163164  1  0
164165  1  0
165166  1  0
166167  1  0
167168  1  0
168169  1  0
165170  1  0
169170  1  0
141171  1  0
168171  1  0
143172  1  0
172173  1  0
148174  1  0
161175  1  0
175176  1  0
162177  1  0
136178  1  0
155179  1  0
155180  1  0
181182  1  0
182183  1  0
183184  1  0
184185  1  0
181186  1  0
185186  1  0
184187  1  0
187188  1  0
188189  1  0
185190  1  0
189190  1  0
189191  1  0
191192  1  0
192193  1  0
193194  1  0
194195  1  0
195196  1  0
192197  1  0
196197  1  0
196198  1  0
198199  1  0
199200  1  0
200201  1  0
201202  1  0
202203  1  0
199204  1  0
203204  1  0
203205  1  0
205206  1  0
206207  1  0
204208  1  0
207208  1  0
208209  1  0
209210  1  0
210211  1  0
211212  1  0
212213  1  0
213214  1  0
210215  1  0
214215  1  0
186216  1  0
213216  1  0
188217  1  0
217218  1  0
193219  1  0
206220  1  0
220221  1  0
207222  1  0
181223  1  0
200224  1  0
200225  1  0
  2226  1  0
  2227  1  0
  3228  1  0
  3229  1  0
  4230  1  0
  5231  1  0
  6232  1  1
  7233  1  0
  7234  1  0
  8235  1  0
  9236  1  1
 10237  1  0
 10238  1  0
 12239  1  1
 13240  1  0
 14241  1  0
 14242  1  0
 15243  1  0
 15244  1  0
 16245  1  1
 17246  1  0
 17247  1  0
 18248  1  0
 18249  1  0
 19250  1  6
 21251  1  0
 21252  1  0
 22253  1  0
 22254  1  0
 23255  1  0
 24256  1  6
 25257  1  0
 25258  1  0
 26259  1  0
 27260  1  6
 28261  1  1
 30262  1  0
 31263  1  0
 31264  1  0
 32265  1  0
 32266  1  0
 33267  1  0
 34268  1  0
 34269  1  0
 35270  1  0
 35271  1  0
 36272  1  0
 36273  1  0
 38274  1  0
 38275  1  0
 38276  1  0
 39277  1  0
 41278  1  0
 41279  1  0
 41280  1  0
 42281  1  0
 43282  1  0
 43283  1  0
 43284  1  0
 44285  1  0
 44286  1  0
 44287  1  0
 45288  1  0
 45289  1  0
 45290  1  0
 47291  1  0
 47292  1  0
 48293  1  0
 48294  1  0
 49295  1  0
 50296  1  6
 51297  1  1
 52298  1  0
 52299  1  0
 53300  1  0
 54301  1  0
 55302  1  0
 55303  1  0
 57304  1  0
 58305  1  0
 59306  1  0
 59307  1  0
 60308  1  0
 60309  1  0
 61310  1  0
 62311  1  0
 62312  1  0
 63313  1  0
 63314  1  0
 64315  1  6
 66316  1  0
 66317  1  0
 67318  1  0
 67319  1  0
 68320  1  0
 69321  1  6
 70322  1  0
 70323  1  0
 71324  1  0
 72325  1  0
 73326  1  1
 75327  1  0
 76328  1  0
 76329  1  0
 77330  1  0
 77331  1  0
 78332  1  0
 79333  1  0
 79334  1  0
 80335  1  0
 80336  1  0
 81337  1  0
 81338  1  0
 83339  1  0
 83340  1  0
 83341  1  0
 84342  1  0
 86343  1  0
 86344  1  0
 86345  1  0
 87346  1  0
 88347  1  0
 88348  1  0
 88349  1  0
 89350  1  0
 89351  1  0
 89352  1  0
 90353  1  0
 90354  1  0
 90355  1  0
 92356  1  0
 92357  1  0
 93358  1  0
 93359  1  0
 94360  1  0
 95361  1  0
 96362  1  1
 97363  1  0
 97364  1  0
 98365  1  0
 99366  1  0
100367  1  0
100368  1  0
102369  1  0
103370  1  0
104371  1  0
104372  1  0
105373  1  0
105374  1  0
106375  1  1
107376  1  0
107377  1  0
108378  1  0
108379  1  0
109380  1  6
111381  1  0
111382  1  0
112383  1  0
112384  1  0
113385  1  0
114386  1  6
115387  1  0
115388  1  0
116389  1  0
117390  1  0
118391  1  1
120392  1  0
121393  1  0
121394  1  0
122395  1  0
122396  1  0
123397  1  0
124398  1  0
124399  1  0
125400  1  0
125401  1  0
126402  1  0
126403  1  0
128404  1  0
128405  1  0
128406  1  0
129407  1  0
131408  1  0
131409  1  0
131410  1  0
132411  1  0
133412  1  0
133413  1  0
133414  1  0
134415  1  0
134416  1  0
134417  1  0
135418  1  0
135419  1  0
135420  1  0
137421  1  0
137422  1  0
138423  1  0
138424  1  0
139425  1  0
140426  1  0
141427  1  1
142428  1  0
142429  1  0
143430  1  1
144431  1  1
145432  1  0
145433  1  0
147434  1  1
148435  1  0
149436  1  0
149437  1  0
150438  1  0
150439  1  0
151440  1  0
152441  1  0
152442  1  0
153443  1  0
153444  1  0
154445  1  6
156446  1  0
156447  1  0
157448  1  0
157449  1  0
158450  1  0
159451  1  6
160452  1  0
160453  1  0
161454  1  0
162455  1  0
163456  1  1
165457  1  0
166458  1  0
166459  1  0
167460  1  0
167461  1  0
168462  1  0
169463  1  0
169464  1  0
170465  1  0
170466  1  0
171467  1  0
171468  1  0
173469  1  0
173470  1  0
173471  1  0
174472  1  0
176473  1  0
176474  1  0
176475  1  0
177476  1  0
178477  1  0
178478  1  0
178479  1  0
179480  1  0
179481  1  0
179482  1  0
180483  1  0
180484  1  0
180485  1  0
182486  1  0
182487  1  0
183488  1  0
183489  1  0
184490  1  0
185491  1  0
186492  1  1
187493  1  0
187494  1  0
188495  1  0
189496  1  1
190497  1  0
190498  1  0
192499  1  0
193500  1  0
194501  1  0
194502  1  0
195503  1  0
195504  1  0
196505  1  0
197506  1  0
197507  1  0
198508  1  0
198509  1  0
199510  1  6
201511  1  0
201512  1  0
202513  1  0
202514  1  0
203515  1  0
204516  1  0
205517  1  0
205518  1  0
206519  1  0
207520  1  0
208521  1  1
210522  1  0
211523  1  0
211524  1  0
212525  1  0
212526  1  0
213527  1  0
214528  1  0
214529  1  0
215530  1  0
215531  1  0
216532  1  0
216533  1  0
218534  1  0
218535  1  0
218536  1  0
219537  1  0
221538  1  0
221539  1  0
221540  1  0
222541  1  0
223542  1  0
223543  1  0
223544  1  0
224545  1  0
224546  1  0
224547  1  0
225548  1  0
225549  1  0
225550  1  0
M  CHG  5  20   1  65   1 110   1 155   1 200   1
M  END
>  <PDBID>  (1) 
2XYT

>  <PDB ID>  (1) 
2XYT

>  <Generic Name>  (1) 
Tubocurarine

>  <Brand Name>  (1) 
Tubocurarine Chloride Inj 3mg/ml#Tubocurarine Chloride Inj 3mg/ml USP#Tubarine

>  <DrugBank ID>  (1) 
DB01199

>  <ATC Codes>  (1) 
M03AA02

>  <Ligand ID>  (1) 
TC9,TUB

>  <Target Name>  (1) 
Neuronal acetylcholine receptor subunit alpha-2

>  <UniProt ID>  (1) 
Q15822

>  <PDB ID.1>  (1) 
2XYT

>  <Seq. Identity>  (1) 
31%

$$$$
