PDB_DB00480_02
     RDKit          3D

 88 92  0  0  0  0  0  0  0  0999 V2000
    1.6088    0.4271    0.5572 C   0  0  1  0  0  0  0  0  0  0  0  0
    2.5495   -0.3538    1.4173 C   0  0  0  0  0  0  0  0  0  0  0  0
    3.1227   -1.4476    0.5048 C   0  0  0  0  0  0  0  0  0  0  0  0
    4.0575   -0.7409   -0.4462 C   0  0  0  0  0  0  0  0  0  0  0  0
    3.7979    0.6539   -0.5310 N   0  0  0  0  0  0  0  0  0  0  0  0
    2.4071    1.0363   -0.5782 C   0  0  0  0  0  0  0  0  0  0  0  0
   -1.6249    0.0509   -0.8211 C   0  0  0  0  0  0  0  0  0  0  0  0
   -1.5915   -0.0698    0.7122 C   0  0  0  0  0  0  0  0  0  0  0  0
   -0.3841   -0.9406    0.7977 C   0  0  0  0  0  0  0  0  0  0  0  0
    0.5560   -0.3101   -0.0371 N   0  0  0  0  0  0  0  0  0  0  0  0
   -0.1832    0.4541   -1.0244 C   0  0  0  0  0  0  0  0  0  0  0  0
   -3.9961    0.5333   -0.7761 C   0  0  0  0  0  0  0  0  0  0  0  0
   -3.9852    0.2548    0.6984 C   0  0  0  0  0  0  0  0  0  0  0  0
   -2.8771   -0.6887    1.1230 C   0  0  0  0  0  0  0  0  0  0  0  0
   -2.6477    0.9938   -1.2959 C   0  0  0  0  0  0  0  0  0  0  0  0
   -0.1089    1.8192   -0.8544 O   0  0  0  0  0  0  0  0  0  0  0  0
   -3.1235   -1.9724    0.5543 N   0  0  0  0  0  0  0  0  0  0  0  0
    2.3969    2.4378   -0.4359 O   0  0  0  0  0  0  0  0  0  0  0  0
    5.3549   -0.8669    0.1099 O   0  0  0  0  0  0  0  0  0  0  0  0
    1.6088    0.4271    0.5572 C   0  0  1  0  0  0  0  0  0  0  0  0
    2.5495   -0.3538    1.4173 C   0  0  0  0  0  0  0  0  0  0  0  0
    3.1227   -1.4476    0.5048 C   0  0  0  0  0  0  0  0  0  0  0  0
    4.0575   -0.7409   -0.4462 C   0  0  0  0  0  0  0  0  0  0  0  0
    3.7979    0.6539   -0.5310 N   0  0  0  0  0  0  0  0  0  0  0  0
    2.4071    1.0363   -0.5782 C   0  0  0  0  0  0  0  0  0  0  0  0
   -1.6249    0.0509   -0.8211 C   0  0  0  0  0  0  0  0  0  0  0  0
   -1.5915   -0.0698    0.7122 C   0  0  0  0  0  0  0  0  0  0  0  0
   -0.3841   -0.9406    0.7977 C   0  0  0  0  0  0  0  0  0  0  0  0
    0.5560   -0.3101   -0.0371 N   0  0  0  0  0  0  0  0  0  0  0  0
   -0.1832    0.4541   -1.0244 C   0  0  0  0  0  0  0  0  0  0  0  0
   -3.9961    0.5333   -0.7761 C   0  0  0  0  0  0  0  0  0  0  0  0
   -3.9852    0.2548    0.6984 C   0  0  0  0  0  0  0  0  0  0  0  0
   -2.8771   -0.6887    1.1230 C   0  0  0  0  0  0  0  0  0  0  0  0
   -2.6477    0.9938   -1.2959 C   0  0  0  0  0  0  0  0  0  0  0  0
   -0.1089    1.8192   -0.8544 O   0  0  0  0  0  0  0  0  0  0  0  0
   -3.1235   -1.9724    0.5543 N   0  0  0  0  0  0  0  0  0  0  0  0
    2.3969    2.4378   -0.4359 O   0  0  0  0  0  0  0  0  0  0  0  0
    5.3549   -0.8669    0.1099 O   0  0  0  0  0  0  0  0  0  0  0  0
    1.2039    1.2603    1.1588 H   0  0  0  0  0  0  0  0  0  0  0  0
    2.1478   -0.7390    2.3442 H   0  0  0  0  0  0  0  0  0  0  0  0
    3.4098    0.2966    1.6821 H   0  0  0  0  0  0  0  0  0  0  0  0
    3.6951   -2.1972    1.0681 H   0  0  0  0  0  0  0  0  0  0  0  0
    2.2883   -1.9260   -0.0676 H   0  0  0  0  0  0  0  0  0  0  0  0
    4.1239   -1.2512   -1.4291 H   0  0  0  0  0  0  0  0  0  0  0  0
    4.2309    1.0165   -1.4102 H   0  0  0  0  0  0  0  0  0  0  0  0
    1.9825    0.8331   -1.5726 H   0  0  0  0  0  0  0  0  0  0  0  0
   -1.8105   -0.9472   -1.2178 H   0  0  0  0  0  0  0  0  0  0  0  0
   -1.4819    0.9075    1.1947 H   0  0  0  0  0  0  0  0  0  0  0  0
   -0.0677   -1.2019    1.8068 H   0  0  0  0  0  0  0  0  0  0  0  0
   -0.6628   -1.9221    0.3054 H   0  0  0  0  0  0  0  0  0  0  0  0
    0.0850    0.1741   -2.0639 H   0  0  0  0  0  0  0  0  0  0  0  0
   -4.7026    1.3719   -0.9456 H   0  0  0  0  0  0  0  0  0  0  0  0
   -4.3604   -0.3196   -1.3762 H   0  0  0  0  0  0  0  0  0  0  0  0
   -3.8736    1.2107    1.2254 H   0  0  0  0  0  0  0  0  0  0  0  0
   -4.9774   -0.1673    0.9586 H   0  0  0  0  0  0  0  0  0  0  0  0
   -2.9477   -0.7678    2.2305 H   0  0  0  0  0  0  0  0  0  0  0  0
   -2.7032    0.9287   -2.4025 H   0  0  0  0  0  0  0  0  0  0  0  0
   -2.5009    2.0452   -1.0452 H   0  0  0  0  0  0  0  0  0  0  0  0
   -0.6744    2.1973   -0.1557 H   0  0  0  0  0  0  0  0  0  0  0  0
   -2.4956   -2.7206    0.8800 H   0  0  0  0  0  0  0  0  0  0  0  0
   -3.3831   -1.9866   -0.4345 H   0  0  0  0  0  0  0  0  0  0  0  0
    2.6624    2.8820   -1.2738 H   0  0  0  0  0  0  0  0  0  0  0  0
    5.4827   -0.2478    0.8655 H   0  0  0  0  0  0  0  0  0  0  0  0
    1.2039    1.2603    1.1588 H   0  0  0  0  0  0  0  0  0  0  0  0
    2.1478   -0.7390    2.3442 H   0  0  0  0  0  0  0  0  0  0  0  0
    3.4098    0.2966    1.6821 H   0  0  0  0  0  0  0  0  0  0  0  0
    3.6951   -2.1972    1.0681 H   0  0  0  0  0  0  0  0  0  0  0  0
    2.2883   -1.9260   -0.0676 H   0  0  0  0  0  0  0  0  0  0  0  0
    4.1239   -1.2512   -1.4291 H   0  0  0  0  0  0  0  0  0  0  0  0
    4.2309    1.0165   -1.4102 H   0  0  0  0  0  0  0  0  0  0  0  0
    1.9825    0.8331   -1.5726 H   0  0  0  0  0  0  0  0  0  0  0  0
   -1.8105   -0.9472   -1.2178 H   0  0  0  0  0  0  0  0  0  0  0  0
   -1.4819    0.9075    1.1947 H   0  0  0  0  0  0  0  0  0  0  0  0
   -0.0677   -1.2019    1.8068 H   0  0  0  0  0  0  0  0  0  0  0  0
   -0.6628   -1.9221    0.3054 H   0  0  0  0  0  0  0  0  0  0  0  0
    0.0850    0.1741   -2.0639 H   0  0  0  0  0  0  0  0  0  0  0  0
   -4.7026    1.3719   -0.9456 H   0  0  0  0  0  0  0  0  0  0  0  0
   -4.3604   -0.3196   -1.3762 H   0  0  0  0  0  0  0  0  0  0  0  0
   -3.8736    1.2107    1.2254 H   0  0  0  0  0  0  0  0  0  0  0  0
   -4.9774   -0.1673    0.9586 H   0  0  0  0  0  0  0  0  0  0  0  0
   -2.9477   -0.7678    2.2305 H   0  0  0  0  0  0  0  0  0  0  0  0
   -2.7032    0.9287   -2.4025 H   0  0  0  0  0  0  0  0  0  0  0  0
   -2.5009    2.0452   -1.0452 H   0  0  0  0  0  0  0  0  0  0  0  0
   -0.6744    2.1973   -0.1557 H   0  0  0  0  0  0  0  0  0  0  0  0
   -2.4956   -2.7206    0.8800 H   0  0  0  0  0  0  0  0  0  0  0  0
   -3.3831   -1.9866   -0.4345 H   0  0  0  0  0  0  0  0  0  0  0  0
    2.6624    2.8820   -1.2738 H   0  0  0  0  0  0  0  0  0  0  0  0
    5.4827   -0.2478    0.8655 H   0  0  0  0  0  0  0  0  0  0  0  0
  1  2  1  0
  2  3  1  0
  3  4  1  0
  4  5  1  0
  1  6  1  0
  5  6  1  0
  7  8  1  0
  8  9  1  0
  1 10  1  0
  9 10  1  0
  7 11  1  0
 10 11  1  0
 12 13  1  0
  8 14  1  0
 13 14  1  0
  7 15  1  0
 12 15  1  0
 11 16  1  0
 14 17  1  0
  6 18  1  0
  4 19  1  0
 20 21  1  0
 21 22  1  0
 22 23  1  0
 23 24  1  0
 20 25  1  0
 24 25  1  0
 26 27  1  0
 27 28  1  0
 20 29  1  0
 28 29  1  0
 26 30  1  0
 29 30  1  0
 31 32  1  0
 27 33  1  0
 32 33  1  0
 26 34  1  0
 31 34  1  0
 30 35  1  0
 33 36  1  0
 25 37  1  0
 23 38  1  0
  1 39  1  1
  2 40  1  0
  2 41  1  0
  3 42  1  0
  3 43  1  0
  4 44  1  0
  5 45  1  0
  6 46  1  0
  7 47  1  0
  8 48  1  0
  9 49  1  0
  9 50  1  0
 11 51  1  0
 12 52  1  0
 12 53  1  0
 13 54  1  0
 13 55  1  0
 14 56  1  0
 15 57  1  0
 15 58  1  0
 16 59  1  0
 17 60  1  0
 17 61  1  0
 18 62  1  0
 19 63  1  0
 20 64  1  1
 21 65  1  0
 21 66  1  0
 22 67  1  0
 22 68  1  0
 23 69  1  0
 24 70  1  0
 25 71  1  0
 26 72  1  0
 27 73  1  0
 28 74  1  0
 28 75  1  0
 30 76  1  0
 31 77  1  0
 31 78  1  0
 32 79  1  0
 32 80  1  0
 33 81  1  0
 34 82  1  0
 34 83  1  0
 35 84  1  0
 36 85  1  0
 36 86  1  0
 37 87  1  0
 38 88  1  0
M  END
>  <PDBID>  (1) 
5FQD

>  <PDB ID>  (1) 
5FQD

>  <Generic Name>  (1) 
Lenalidomide

>  <Brand Name>  (1) 
Revlimid#Ladevina#Lenangio

>  <DrugBank ID>  (1) 
DB00480

>  <ATC Codes>  (1) 
L04AX04

>  <Ligand ID>  (1) 
LVY

>  <Target Name>  (1) 
Protein cereblon

>  <UniProt ID>  (1) 
Q96SW2

>  <PDB ID.1>  (1) 
5FQD

>  <Seq. Identity>  (1) 
100%

$$$$
