PDB_DB00703_02
     RDKit          3D

 30 30  0  0  0  0  0  0  0  0999 V2000
   -3.0069    0.0458    1.7612 N   0  0  0  0  0  0  0  0  0  0  0  0
   -3.2168    0.1751    0.2265 S   0  0  0  0  0  0  0  0  0  0  0  0
   -4.2683    1.4783   -0.0855 O   0  0  0  0  0  0  0  0  0  0  0  0
   -4.0909   -1.0951   -0.3561 O   0  0  0  0  0  0  0  0  0  0  0  0
   -1.8811    0.3187   -0.7131 C   0  0  1  0  0  0  0  0  0  0  0  0
   -0.4972    1.3321   -0.2117 S   0  0  0  0  0  0  0  0  0  0  0  0
    0.7540    0.0809   -0.7114 C   0  0  2  0  0  0  0  0  0  0  0  0
   -0.0426   -1.0765   -0.5266 N   0  0  0  0  0  0  0  0  0  0  0  0
    0.2147   -1.6794    0.7253 C   0  0  0  0  0  0  0  0  0  0  0  0
   -1.2608   -0.9850   -1.0201 N   0  0  0  0  0  0  0  0  0  0  0  0
    1.8822    0.0007    0.1589 N   0  0  0  0  0  0  0  0  0  0  0  0
    2.7693    1.1137    0.1693 C   0  0  0  0  0  0  0  0  0  0  0  0
    2.4412    2.0078   -0.8567 O   0  0  0  0  0  0  0  0  0  0  0  0
    4.1772    0.6173   -0.1572 C   0  0  0  0  0  0  0  0  0  0  0  0
   -2.9761    0.8738    2.3700 H   0  0  0  0  0  0  0  0  0  0  0  0
   -2.5293   -0.7857    2.1255 H   0  0  0  0  0  0  0  0  0  0  0  0
   -3.9869    2.2787    0.3755 H   0  0  0  0  0  0  0  0  0  0  0  0
   -3.8887   -1.9613    0.0993 H   0  0  0  0  0  0  0  0  0  0  0  0
   -2.1624    0.6507   -1.7669 H   0  0  0  0  0  0  0  0  0  0  0  0
    1.0326    0.2784   -1.7796 H   0  0  0  0  0  0  0  0  0  0  0  0
    0.8758   -2.5768    0.5534 H   0  0  0  0  0  0  0  0  0  0  0  0
    0.7762   -1.0569    1.4511 H   0  0  0  0  0  0  0  0  0  0  0  0
   -0.7085   -1.9970    1.2691 H   0  0  0  0  0  0  0  0  0  0  0  0
   -1.8980   -1.6932   -0.5691 H   0  0  0  0  0  0  0  0  0  0  0  0
    2.3976   -0.8883   -0.1542 H   0  0  0  0  0  0  0  0  0  0  0  0
    2.7925    1.5864    1.1470 H   0  0  0  0  0  0  0  0  0  0  0  0
    2.7146    1.5268   -1.6959 H   0  0  0  0  0  0  0  0  0  0  0  0
    4.1540    0.1486   -1.1378 H   0  0  0  0  0  0  0  0  0  0  0  0
    4.4972   -0.1532    0.5900 H   0  0  0  0  0  0  0  0  0  0  0  0
    4.9354    1.4343   -0.0454 H   0  0  0  0  0  0  0  0  0  0  0  0
  1  2  1  0
  2  3  1  0
  2  4  1  0
  2  5  1  0
  5  6  1  0
  6  7  1  0
  7  8  1  0
  8  9  1  0
  5 10  1  0
  8 10  1  0
  7 11  1  0
 11 12  1  0
 12 13  1  0
 12 14  1  0
  1 15  1  0
  1 16  1  0
  3 17  1  0
  4 18  1  0
  5 19  1  6
  7 20  1  6
  9 21  1  0
  9 22  1  0
  9 23  1  0
 10 24  1  0
 11 25  1  0
 12 26  1  0
 13 27  1  0
 14 28  1  0
 14 29  1  0
 14 30  1  0
M  END
>  <PDBID>  (1) 
1BZM

>  <PDB ID>  (1) 
1BZM

>  <Generic Name>  (1) 
Methazolamide

>  <Brand Name>  (1) 
Methazolamide#Neptazane#Neptazane Tablets 25mg#Neptazane Tablets 25mg USP#Neptazane Tablets 50mg#Naptazane

>  <DrugBank ID>  (1) 
DB00703

>  <ATC Codes>  (1) 
S01EC05

>  <Ligand ID>  (1) 
MZM

>  <Target Name>  (1) 
Carbonic anhydrase 1

>  <UniProt ID>  (1) 
P00915

>  <PDB ID.1>  (1) 
1BZM

>  <Seq. Identity>  (1) 
100%

$$$$
