PDB_DB00696_04
     RDKit          3D

100107  0  0  0  0  0  0  0  0999 V2000
    7.6511    1.3982    0.8695 C   0  0  0  0  0  0  0  0  0  0  0  0
    7.7082    2.3920   -0.2194 N   0  0  0  0  0  0  0  0  0  0  0  0
    2.5154   -3.0558    0.4146 O   0  0  0  0  0  0  0  0  0  0  0  0
    4.0782    1.5402   -2.0721 C   0  0  0  0  0  0  0  0  0  0  0  0
    4.5345    2.9814   -2.1301 C   0  0  0  0  0  0  0  0  0  0  0  0
    6.0371    3.1274   -1.8926 C   0  0  0  0  0  0  0  0  0  0  0  0
    6.3455    2.4608   -0.5916 C   0  0  0  0  0  0  0  0  0  0  0  0
    6.0469    0.9691   -0.8243 C   0  0  0  0  0  0  0  0  0  0  0  0
    4.7690   -2.2450    2.6284 C   0  0  0  0  0  0  0  0  0  0  0  0
    1.3769   -2.2658    0.7480 C   0  0  0  0  0  0  0  0  0  0  0  0
   -1.0016   -2.2585    0.0562 C   0  0  2  0  0  0  0  0  0  0  0  0
   -1.3719   -0.8286   -0.1594 C   0  0  0  0  0  0  0  0  0  0  0  0
   -3.7187   -0.1867   -0.2931 C   0  0  2  0  0  0  0  0  0  0  0  0
    3.9361   -1.7627    1.5652 N   0  0  0  0  0  0  0  0  0  0  0  0
    6.7157    0.3567    0.3490 C   0  0  0  0  0  0  0  0  0  0  0  0
   -1.7992   -3.0377   -0.8022 O   0  0  0  0  0  0  0  0  0  0  0  0
   -5.0668   -0.6541   -0.7039 C   0  0  0  0  0  0  0  0  0  0  0  0
   -6.3267   -2.4544   -1.6828 C   0  0  0  0  0  0  0  0  0  0  0  0
   -5.9999   -3.8926   -2.1006 C   0  0  0  0  0  0  0  0  0  0  0  0
   -4.4800   -3.9524   -2.0189 C   0  0  0  0  0  0  0  0  0  0  0  0
   -4.2003   -2.7928   -1.0805 C   0  0  1  0  0  0  0  0  0  0  0  0
   -2.8111   -2.2328   -1.2881 C   0  0  1  0  0  0  0  0  0  0  0  0
   -1.5914   -2.6063    1.4491 C   0  0  0  0  0  0  0  0  0  0  0  0
   -3.3839    1.2355   -0.5238 C   0  0  0  0  0  0  0  0  0  0  0  0
   -4.1616    2.3199    0.0850 C   0  0  0  0  0  0  0  0  0  0  0  0
   -5.6064    2.4391   -0.2591 C   0  0  0  0  0  0  0  0  0  0  0  0
    5.6508   -0.0539    1.3337 C   0  0  0  0  0  0  0  0  0  0  0  0
    0.3208   -2.6007   -0.0505 N   0  0  0  0  0  0  0  0  0  0  0  0
   -0.4816   -0.1863   -1.0621 O   0  0  0  0  0  0  0  0  0  0  0  0
   -6.0161    3.9008    0.0421 C   0  0  0  0  0  0  0  0  0  0  0  0
   -5.8825    4.0698    1.5343 C   0  0  0  0  0  0  0  0  0  0  0  0
   -4.4561    3.8073    1.9860 C   0  0  0  0  0  0  0  0  0  0  0  0
   -4.0097    2.4141    1.5907 C   0  0  0  0  0  0  0  0  0  0  0  0
    4.7622   -1.0506    0.6081 C   0  0  2  0  0  0  0  0  0  0  0  0
   -2.6405   -0.9243   -0.8684 N   0  0  0  0  0  0  0  0  0  0  0  0
   -5.7512   -1.2030    0.4066 O   0  0  0  0  0  0  0  0  0  0  0  0
    2.9170   -0.8274    1.9947 C   0  0  0  0  0  0  0  0  0  0  0  0
   -5.0616   -1.7679   -1.6691 N   0  0  0  0  0  0  0  0  0  0  0  0
   -2.6386   -2.2552   -2.7014 O   0  0  0  0  0  0  0  0  0  0  0  0
    1.8836   -0.8589    0.8544 C   0  0  1  0  0  0  0  0  0  0  0  0
    2.5318   -0.3925   -0.4221 C   0  0  0  0  0  0  0  0  0  0  0  0
    4.0011   -0.4556   -0.5161 C   0  0  1  0  0  0  0  0  0  0  0  0
    4.5402    0.9286   -0.7715 C   0  0  0  0  0  0  0  0  0  0  0  0
    7.2834    1.8554    1.7919 H   0  0  0  0  0  0  0  0  0  0  0  0
    8.6834    1.0361    1.0300 H   0  0  0  0  0  0  0  0  0  0  0  0
    8.3155    1.9822   -0.9658 H   0  0  0  0  0  0  0  0  0  0  0  0
    2.4452   -3.3929   -0.4975 H   0  0  0  0  0  0  0  0  0  0  0  0
    2.9979    1.5554   -2.1993 H   0  0  0  0  0  0  0  0  0  0  0  0
    4.6106    0.9826   -2.8855 H   0  0  0  0  0  0  0  0  0  0  0  0
    4.3082    3.3616   -3.1473 H   0  0  0  0  0  0  0  0  0  0  0  0
    4.0121    3.6018   -1.3856 H   0  0  0  0  0  0  0  0  0  0  0  0
    6.6182    2.6749   -2.7101 H   0  0  0  0  0  0  0  0  0  0  0  0
    6.2101    4.2160   -1.7831 H   0  0  0  0  0  0  0  0  0  0  0  0
    5.7380    2.8657    0.2322 H   0  0  0  0  0  0  0  0  0  0  0  0
    6.4477    0.7055   -1.8084 H   0  0  0  0  0  0  0  0  0  0  0  0
    4.8087   -1.5355    3.4900 H   0  0  0  0  0  0  0  0  0  0  0  0
    4.3421   -3.2011    3.0467 H   0  0  0  0  0  0  0  0  0  0  0  0
    5.7878   -2.5236    2.2824 H   0  0  0  0  0  0  0  0  0  0  0  0
    1.2173   -2.6504    1.8442 H   0  0  0  0  0  0  0  0  0  0  0  0
   -1.4650   -0.2265    0.7701 H   0  0  0  0  0  0  0  0  0  0  0  0
   -3.6381   -0.3434    0.8300 H   0  0  0  0  0  0  0  0  0  0  0  0
    7.2954   -0.5332    0.0507 H   0  0  0  0  0  0  0  0  0  0  0  0
   -5.6881    0.1084   -1.2093 H   0  0  0  0  0  0  0  0  0  0  0  0
   -7.0365   -1.9911   -2.4074 H   0  0  0  0  0  0  0  0  0  0  0  0
   -6.8195   -2.5068   -0.7069 H   0  0  0  0  0  0  0  0  0  0  0  0
   -6.3294   -4.0245   -3.1379 H   0  0  0  0  0  0  0  0  0  0  0  0
   -6.4309   -4.6352   -1.4259 H   0  0  0  0  0  0  0  0  0  0  0  0
   -4.0959   -4.8774   -1.5966 H   0  0  0  0  0  0  0  0  0  0  0  0
   -4.0623   -3.6755   -3.0050 H   0  0  0  0  0  0  0  0  0  0  0  0
   -4.4644   -3.0096   -0.0477 H   0  0  0  0  0  0  0  0  0  0  0  0
   -1.4645   -3.6666    1.6828 H   0  0  0  0  0  0  0  0  0  0  0  0
   -2.6695   -2.4128    1.3550 H   0  0  0  0  0  0  0  0  0  0  0  0
   -1.1997   -1.9078    2.2122 H   0  0  0  0  0  0  0  0  0  0  0  0
   -3.2947    1.4149   -1.6156 H   0  0  0  0  0  0  0  0  0  0  0  0
   -2.3268    1.3718   -0.1393 H   0  0  0  0  0  0  0  0  0  0  0  0
   -3.6806    3.2793   -0.2849 H   0  0  0  0  0  0  0  0  0  0  0  0
   -5.7636    2.3919   -1.3813 H   0  0  0  0  0  0  0  0  0  0  0  0
   -6.3027    1.8292    0.3116 H   0  0  0  0  0  0  0  0  0  0  0  0
    6.0794   -0.5003    2.2539 H   0  0  0  0  0  0  0  0  0  0  0  0
    5.1151    0.8537    1.6584 H   0  0  0  0  0  0  0  0  0  0  0  0
    0.6595   -2.9707   -0.9748 H   0  0  0  0  0  0  0  0  0  0  0  0
   -0.1724    0.6724   -0.7371 H   0  0  0  0  0  0  0  0  0  0  0  0
   -7.0842    3.9866   -0.2271 H   0  0  0  0  0  0  0  0  0  0  0  0
   -5.3423    4.5225   -0.5534 H   0  0  0  0  0  0  0  0  0  0  0  0
   -6.0996    5.1341    1.7703 H   0  0  0  0  0  0  0  0  0  0  0  0
   -6.6192    3.3992    2.0015 H   0  0  0  0  0  0  0  0  0  0  0  0
   -4.4029    4.0160    3.0533 H   0  0  0  0  0  0  0  0  0  0  0  0
   -3.8210    4.5556    1.4341 H   0  0  0  0  0  0  0  0  0  0  0  0
   -4.6144    1.7034    2.1476 H   0  0  0  0  0  0  0  0  0  0  0  0
   -2.9413    2.3213    1.8914 H   0  0  0  0  0  0  0  0  0  0  0  0
    5.4912   -1.8343    0.2393 H   0  0  0  0  0  0  0  0  0  0  0  0
   -6.5979   -0.7157    0.5721 H   0  0  0  0  0  0  0  0  0  0  0  0
    2.4446   -1.2551    2.8854 H   0  0  0  0  0  0  0  0  0  0  0  0
    3.2653    0.1816    2.1942 H   0  0  0  0  0  0  0  0  0  0  0  0
   -3.3891   -1.7133   -3.0838 H   0  0  0  0  0  0  0  0  0  0  0  0
    1.0765   -0.1986    1.1623 H   0  0  0  0  0  0  0  0  0  0  0  0
    2.0886   -1.0145   -1.2396 H   0  0  0  0  0  0  0  0  0  0  0  0
    2.1632    0.6442   -0.6198 H   0  0  0  0  0  0  0  0  0  0  0  0
    4.2958   -1.0359   -1.4498 H   0  0  0  0  0  0  0  0  0  0  0  0
    4.1512    1.5907    0.0304 H   0  0  0  0  0  0  0  0  0  0  0  0
  1  2  1  0
  4  5  1  0
  5  6  1  0
  2  7  1  0
  6  7  1  0
  7  8  1  0
  3 10  1  0
 11 12  1  0
  9 14  1  0
  1 15  1  0
  8 15  1  0
 11 16  1  0
 13 17  1  0
 18 19  1  0
 19 20  1  0
 20 21  1  0
 16 22  1  0
 21 22  1  0
 11 23  1  0
 13 24  1  0
 24 25  1  0
 25 26  1  0
 15 27  1  0
 10 28  1  0
 11 28  1  1
 12 29  1  0
 26 30  1  0
 30 31  1  0
 31 32  1  0
 25 33  1  0
 32 33  1  0
 14 34  1  0
 27 34  1  0
 12 35  1  0
 13 35  1  0
 22 35  1  0
 17 36  1  0
 14 37  1  0
 17 38  1  0
 18 38  1  0
 21 38  1  0
 22 39  1  6
 10 40  1  0
 37 40  1  0
 40 41  1  0
 34 42  1  0
 41 42  1  0
  4 43  1  0
  8 43  1  0
 42 43  1  0
  1 44  1  0
  1 45  1  0
  2 46  1  0
  3 47  1  0
  4 48  1  0
  4 49  1  0
  5 50  1  0
  5 51  1  0
  6 52  1  0
  6 53  1  0
  7 54  1  0
  8 55  1  0
  9 56  1  0
  9 57  1  0
  9 58  1  0
 10 59  1  0
 12 60  1  0
 13 61  1  1
 15 62  1  0
 17 63  1  0
 18 64  1  0
 18 65  1  0
 19 66  1  0
 19 67  1  0
 20 68  1  0
 20 69  1  0
 21 70  1  1
 23 71  1  0
 23 72  1  0
 23 73  1  0
 24 74  1  0
 24 75  1  0
 25 76  1  0
 26 77  1  0
 26 78  1  0
 27 79  1  0
 27 80  1  0
 28 81  1  0
 29 82  1  0
 30 83  1  0
 30 84  1  0
 31 85  1  0
 31 86  1  0
 32 87  1  0
 32 88  1  0
 33 89  1  0
 33 90  1  0
 34 91  1  6
 36 92  1  0
 37 93  1  0
 37 94  1  0
 39 95  1  0
 40 96  1  1
 41 97  1  0
 41 98  1  0
 42 99  1  6
 43100  1  0
M  END
>  <PDBID>  (1) 
4IB4

>  <PDB ID>  (1) 
4IB4

>  <Generic Name>  (1) 
Ergotamine

>  <Brand Name>  (1) 
Cafergot#Cafergot Sup#Cafergot Tab#Ergodryl Cap#Ergomar#Ergomar Slt 2mg#Ergomar Sublingual#Ergotamine#Ergotamine Tartrate and Caffeine#Gravergol Capsules#Megral Tabs#Migergot#Anervan#Antimigraine#Enxak#Ergam#Ergo-Kranit#Gynaemine#Wigrettes

>  <DrugBank ID>  (1) 
DB00696

>  <ATC Codes>  (1) 
N02CA52#N02CA72#N02CA02

>  <Ligand ID>  (1) 
ERM

>  <Target Name>  (1) 
5-hydroxytryptamine receptor 2A

>  <UniProt ID>  (1) 
P28223

>  <PDB ID.1>  (1) 
4IB4

>  <Seq. Identity>  (1) 
58%

$$$$
