PDB_DB00537_04
     RDKit          3D

108114  0  0  0  0  0  0  0  0999 V2000
    3.5675   -1.4377   -2.8721 O   0  0  0  0  0  0  0  0  0  0  0  0
    3.3289   -0.2497   -2.1667 C   0  0  0  0  0  0  0  0  0  0  0  0
    4.3924    0.6474   -2.3436 O   0  0  0  0  0  0  0  0  0  0  0  0
    3.2528   -0.6195   -0.6770 C   0  0  0  0  0  0  0  0  0  0  0  0
    3.0014    0.5826    0.1262 C   0  0  0  0  0  0  0  0  0  0  0  0
    1.7415    0.6728    0.7875 N   0  0  0  0  0  0  0  0  0  0  0  0
    0.7100   -0.1621    0.2500 C   0  0  0  0  0  0  0  0  0  0  0  0
   -0.4970   -0.0381    1.1585 C   0  0  0  0  0  0  0  0  0  0  0  0
   -1.6466   -0.7923    0.4647 C   0  0  0  0  0  0  0  0  0  0  0  0
   -2.5110    0.1516   -0.0578 N   0  0  0  0  0  0  0  0  0  0  0  0
   -3.1922    1.0445    0.7947 C   0  0  0  0  0  0  0  0  0  0  0  0
   -4.6790    0.7749    0.6649 C   0  0  0  0  0  0  0  0  0  0  0  0
   -5.0538    1.0808   -0.6988 N   0  0  0  0  0  0  0  0  0  0  0  0
   -4.4045    0.1570   -1.5970 C   0  0  0  0  0  0  0  0  0  0  0  0
   -2.8781    0.2290   -1.3997 C   0  0  0  0  0  0  0  0  0  0  0  0
   -1.1441   -1.8710   -0.4170 C   0  0  0  0  0  0  0  0  0  0  0  0
   -2.1002   -2.8599   -0.5600 F   0  0  0  0  0  0  0  0  0  0  0  0
    0.0889   -2.5678    0.1732 C   0  0  0  0  0  0  0  0  0  0  0  0
    1.1999   -1.5960    0.4295 C   0  0  0  0  0  0  0  0  0  0  0  0
    2.3637   -1.7945   -0.4714 C   0  0  0  0  0  0  0  0  0  0  0  0
    3.0506   -2.9412   -0.0381 O   0  0  0  0  0  0  0  0  0  0  0  0
    1.3400    2.0088    1.1120 C   0  0  0  0  0  0  0  0  0  0  0  0
    2.1882    2.7766    2.0449 C   0  0  0  0  0  0  0  0  0  0  0  0
    0.9575    2.1557    2.6156 C   0  0  0  0  0  0  0  0  0  0  0  0
    3.7872    0.7230    0.9287 H   0  0  0  0  0  0  0  0  0  0  0  0
   -0.7786    1.0112    1.3271 H   0  0  0  0  0  0  0  0  0  0  0  0
   -2.9810    2.0888    0.4582 H   0  0  0  0  0  0  0  0  0  0  0  0
   -2.8334    0.8834    1.8461 H   0  0  0  0  0  0  0  0  0  0  0  0
   -4.8266   -0.3275    0.7846 H   0  0  0  0  0  0  0  0  0  0  0  0
   -5.2709    1.3119    1.4081 H   0  0  0  0  0  0  0  0  0  0  0  0
   -4.7837    2.0505   -0.8966 H   0  0  0  0  0  0  0  0  0  0  0  0
   -4.7766   -0.8622   -1.4859 H   0  0  0  0  0  0  0  0  0  0  0  0
   -4.5740    0.5568   -2.6397 H   0  0  0  0  0  0  0  0  0  0  0  0
   -2.3836   -0.4342   -2.1024 H   0  0  0  0  0  0  0  0  0  0  0  0
   -2.6268    1.2756   -1.7629 H   0  0  0  0  0  0  0  0  0  0  0  0
    0.4339   -3.3074   -0.5796 H   0  0  0  0  0  0  0  0  0  0  0  0
    0.6908    2.5950    0.4281 H   0  0  0  0  0  0  0  0  0  0  0  0
    3.1529    2.3423    2.3563 H   0  0  0  0  0  0  0  0  0  0  0  0
    2.1701    3.8871    2.0446 H   0  0  0  0  0  0  0  0  0  0  0  0
    0.0562    2.7691    2.8322 H   0  0  0  0  0  0  0  0  0  0  0  0
    1.0677    1.2930    3.2681 H   0  0  0  0  0  0  0  0  0  0  0  0
    3.5675   -1.4377   -2.8721 O   0  0  0  0  0  0  0  0  0  0  0  0
    3.3289   -0.2497   -2.1667 C   0  0  0  0  0  0  0  0  0  0  0  0
    4.3924    0.6474   -2.3436 O   0  0  0  0  0  0  0  0  0  0  0  0
    3.2528   -0.6195   -0.6770 C   0  0  0  0  0  0  0  0  0  0  0  0
    3.0014    0.5826    0.1262 C   0  0  0  0  0  0  0  0  0  0  0  0
    1.7415    0.6728    0.7875 N   0  0  0  0  0  0  0  0  0  0  0  0
    0.7100   -0.1621    0.2500 C   0  0  0  0  0  0  0  0  0  0  0  0
   -0.4970   -0.0381    1.1585 C   0  0  0  0  0  0  0  0  0  0  0  0
   -1.6466   -0.7923    0.4647 C   0  0  0  0  0  0  0  0  0  0  0  0
   -2.5110    0.1516   -0.0578 N   0  0  0  0  0  0  0  0  0  0  0  0
   -3.1922    1.0445    0.7947 C   0  0  0  0  0  0  0  0  0  0  0  0
   -4.6790    0.7749    0.6649 C   0  0  0  0  0  0  0  0  0  0  0  0
   -5.0538    1.0808   -0.6988 N   0  0  0  0  0  0  0  0  0  0  0  0
   -4.4045    0.1570   -1.5970 C   0  0  0  0  0  0  0  0  0  0  0  0
   -2.8781    0.2290   -1.3997 C   0  0  0  0  0  0  0  0  0  0  0  0
   -1.1441   -1.8710   -0.4170 C   0  0  0  0  0  0  0  0  0  0  0  0
   -2.1002   -2.8599   -0.5600 F   0  0  0  0  0  0  0  0  0  0  0  0
    0.0889   -2.5678    0.1732 C   0  0  0  0  0  0  0  0  0  0  0  0
    1.1999   -1.5960    0.4295 C   0  0  0  0  0  0  0  0  0  0  0  0
    2.3637   -1.7945   -0.4714 C   0  0  0  0  0  0  0  0  0  0  0  0
    3.0506   -2.9412   -0.0381 O   0  0  0  0  0  0  0  0  0  0  0  0
    1.3400    2.0088    1.1120 C   0  0  0  0  0  0  0  0  0  0  0  0
    2.1882    2.7766    2.0449 C   0  0  0  0  0  0  0  0  0  0  0  0
    0.9575    2.1557    2.6156 C   0  0  0  0  0  0  0  0  0  0  0  0
    3.7872    0.7230    0.9287 H   0  0  0  0  0  0  0  0  0  0  0  0
   -0.7786    1.0112    1.3271 H   0  0  0  0  0  0  0  0  0  0  0  0
   -2.9810    2.0888    0.4582 H   0  0  0  0  0  0  0  0  0  0  0  0
   -2.8334    0.8834    1.8461 H   0  0  0  0  0  0  0  0  0  0  0  0
   -4.8266   -0.3275    0.7846 H   0  0  0  0  0  0  0  0  0  0  0  0
   -5.2709    1.3119    1.4081 H   0  0  0  0  0  0  0  0  0  0  0  0
   -4.7837    2.0505   -0.8966 H   0  0  0  0  0  0  0  0  0  0  0  0
   -4.7766   -0.8622   -1.4859 H   0  0  0  0  0  0  0  0  0  0  0  0
   -4.5740    0.5568   -2.6397 H   0  0  0  0  0  0  0  0  0  0  0  0
   -2.3836   -0.4342   -2.1024 H   0  0  0  0  0  0  0  0  0  0  0  0
   -2.6268    1.2756   -1.7629 H   0  0  0  0  0  0  0  0  0  0  0  0
    0.4339   -3.3074   -0.5796 H   0  0  0  0  0  0  0  0  0  0  0  0
    0.6908    2.5950    0.4281 H   0  0  0  0  0  0  0  0  0  0  0  0
    3.1529    2.3423    2.3563 H   0  0  0  0  0  0  0  0  0  0  0  0
    2.1701    3.8871    2.0446 H   0  0  0  0  0  0  0  0  0  0  0  0
    0.0562    2.7691    2.8322 H   0  0  0  0  0  0  0  0  0  0  0  0
    1.0677    1.2930    3.2681 H   0  0  0  0  0  0  0  0  0  0  0  0
    4.3461   -1.9286   -2.4992 H   0  0  0  0  0  0  0  0  0  0  0  0
    2.3705    0.1506   -2.5177 H   0  0  0  0  0  0  0  0  0  0  0  0
    4.0137    1.4949   -2.7378 H   0  0  0  0  0  0  0  0  0  0  0  0
    4.3021   -0.9787   -0.4482 H   0  0  0  0  0  0  0  0  0  0  0  0
    3.1098    1.4947   -0.5119 H   0  0  0  0  0  0  0  0  0  0  0  0
    0.4660    0.0615   -0.8007 H   0  0  0  0  0  0  0  0  0  0  0  0
   -0.2453   -0.4913    2.1197 H   0  0  0  0  0  0  0  0  0  0  0  0
   -2.1724   -1.3138    1.3262 H   0  0  0  0  0  0  0  0  0  0  0  0
   -0.8451   -1.5689   -1.4254 H   0  0  0  0  0  0  0  0  0  0  0  0
   -0.1743   -3.1314    1.0869 H   0  0  0  0  0  0  0  0  0  0  0  0
    1.5416   -1.6953    1.4792 H   0  0  0  0  0  0  0  0  0  0  0  0
    1.9403   -2.0998   -1.4741 H   0  0  0  0  0  0  0  0  0  0  0  0
    2.7464   -3.2019    0.8654 H   0  0  0  0  0  0  0  0  0  0  0  0
    4.3461   -1.9286   -2.4992 H   0  0  0  0  0  0  0  0  0  0  0  0
    2.3705    0.1506   -2.5177 H   0  0  0  0  0  0  0  0  0  0  0  0
    4.0137    1.4949   -2.7378 H   0  0  0  0  0  0  0  0  0  0  0  0
    4.3021   -0.9787   -0.4482 H   0  0  0  0  0  0  0  0  0  0  0  0
    3.1098    1.4947   -0.5119 H   0  0  0  0  0  0  0  0  0  0  0  0
    0.4660    0.0615   -0.8007 H   0  0  0  0  0  0  0  0  0  0  0  0
   -0.2453   -0.4913    2.1197 H   0  0  0  0  0  0  0  0  0  0  0  0
   -2.1724   -1.3138    1.3262 H   0  0  0  0  0  0  0  0  0  0  0  0
   -0.8451   -1.5689   -1.4254 H   0  0  0  0  0  0  0  0  0  0  0  0
   -0.1743   -3.1314    1.0869 H   0  0  0  0  0  0  0  0  0  0  0  0
    1.5416   -1.6953    1.4792 H   0  0  0  0  0  0  0  0  0  0  0  0
    1.9403   -2.0998   -1.4741 H   0  0  0  0  0  0  0  0  0  0  0  0
    2.7464   -3.2019    0.8654 H   0  0  0  0  0  0  0  0  0  0  0  0
  1  2  1  0
  2  3  1  0
  2  4  1  0
  4  5  1  0
  5  6  1  0
  6  7  1  0
  7  8  1  0
  8  9  1  0
  9 10  1  0
 10 11  1  0
 11 12  1  0
 12 13  1  0
 13 14  1  0
 10 15  1  0
 14 15  1  0
  9 16  1  0
 16 17  1  0
 16 18  1  0
  7 19  1  0
 18 19  1  0
  4 20  1  0
 19 20  1  0
 20 21  1  0
  6 22  1  0
 22 23  1  0
 22 24  1  0
 23 24  1  0
  5 25  1  0
  8 26  1  0
 11 27  1  0
 11 28  1  0
 12 29  1  0
 12 30  1  0
 13 31  1  0
 14 32  1  0
 14 33  1  0
 15 34  1  0
 15 35  1  0
 18 36  1  0
 22 37  1  0
 23 38  1  0
 23 39  1  0
 24 40  1  0
 24 41  1  0
 43 42  1  0
 43 44  1  0
 43 45  1  0
 45 46  1  0
 46 47  1  0
 47 48  1  0
 48 49  1  0
 49 50  1  0
 50 51  1  0
 51 52  1  0
 52 53  1  0
 53 54  1  0
 54 55  1  0
 51 56  1  0
 55 56  1  0
 50 57  1  0
 57 58  1  0
 57 59  1  0
 48 60  1  0
 59 60  1  0
 45 61  1  0
 60 61  1  0
 61 62  1  0
 47 63  1  0
 63 64  1  0
 63 65  1  0
 64 65  1  0
 46 66  1  0
 49 67  1  0
 52 68  1  0
 52 69  1  0
 53 70  1  0
 53 71  1  0
 54 72  1  0
 55 73  1  0
 55 74  1  0
 56 75  1  0
 56 76  1  0
 59 77  1  0
 63 78  1  0
 64 79  1  0
 64 80  1  0
 65 81  1  0
 65 82  1  0
  1 83  1  0
  2 84  1  0
  3 85  1  0
  4 86  1  0
  5 87  1  0
  7 88  1  0
  8 89  1  0
  9 90  1  0
 16 91  1  0
 18 92  1  0
 19 93  1  0
 20 94  1  0
 21 95  1  0
 42 96  1  0
 43 97  1  0
 44 98  1  0
 45 99  1  0
 46100  1  0
 48101  1  0
 49102  1  0
 50103  1  0
 57104  1  0
 59105  1  0
 60106  1  0
 61107  1  0
 62108  1  0
M  END
>  <PDBID>  (1) 
5BTC

>  <PDB ID>  (1) 
5BTC

>  <Generic Name>  (1) 
Ciprofloxacin

>  <Brand Name>  (1) 
Act Ciprofloxacin#Apo-ciproflox#Auro-ciprofloxacin#Bio-ciprofloxacin#Ciloxan#Cipro#Cipro 100 - Tab 100mg#Cipro 250 - Tab 250mg#Cipro 500 - Tab 500mg#Cipro 750 - Tab 750mg#Cipro HC#Cipro HC Otic Suspension#Cipro I.V. - Liq 10mg/ml#Cipro I.V. Minibags 2mg/ml#Cipro IV 10mg/ml#Cipro Oral Suspension 10%#Cipro Tab 100mg#Cipro Tab 250mg#Cipro Tab 500mg#Cipro Tab 750mg#Cipro XL#Ciprodex#Ciprofloxacin#Ciprofloxacin Extended-release#Ciprofloxacin Hydrochloride#Ciprofloxacin Injection#Ciprofloxacin Injection USP#Ciprofloxacin Injection, USP#Ciprofloxacin Intravenous Infusion#Ciprofloxacin Intravenous Infusion BP#Ciprofloxacin Intravenous Infusion, BP#Ciprofloxacin Omega#Ciprofloxacin Otic#Ciprofloxacin Tablets#Ciprofloxacin Tablets USP - 100 mg#Ciprofloxacin Tablets USP - 250 mg#Ciprofloxacin Tablets USP - 500 mg#Ciprofloxacin Tablets USP - 750 mg#Ciprofloxacin-250#Ciprofloxacin-500#Ciprofloxacin-750#Dom-ciprofloxacin#Ipg-ciprofloxacin#Jamp-ciprofloxacin#Mar-ciprofloxacin#Mint-ciproflox#Mint-ciprofloxacin#Mylan-ciprofloxacin#Mylan-ciprofloxacin XL#Nu-ciproflox#Nu-ciprofloxacin Tablets#Otiprio#Otixal#Otovel#PHL-ciprofloxacin#PMS-ciprofloxacin#PMS-ciprofloxacin 0.3%#PMS-ciprofloxacin XL#Priva-ciprofloxacin#Pro-ciprofloxacin#Proquin XR#Q-ciprofloxacin#Ran-ciproflox#Ran-ciprofloxacin#Ratio-ciprofloxacin#Riva-ciprofloxacin#Sandoz Ciprofloxacin#Septa-ciprofloxacin#Taro-ciprofloxacin#Teva-ciprofloxacin#Van-ciprofloxacin#Bacquinor#Baycip#Ciflox#Cifloxin#Ciprinol#Ciprobay#Ciprocinol#Ciprodar#Ciproxan#Ciproxin#Flociprin#Proquin

>  <DrugBank ID>  (1) 
DB00537

>  <ATC Codes>  (1) 
J01MA02#J01RA11#J01RA12#S02AA15#S03AA07#S01AE03#J01RA10

>  <Ligand ID>  (1) 
CPF

>  <Target Name>  (1) 
DNA gyrase subunit A

>  <UniProt ID>  (1) 
P43700

>  <PDB ID.1>  (1) 
5BTC

>  <Seq. Identity>  (1) 
48%

$$$$
