PDB_DB00317_03
     RDKit          3D

 71 74  0  0  0  0  0  0  0  0999 V2000
    6.6164    1.5245   -1.5421 C   0  0  0  0  0  0  0  0  0  0  0  0
    7.9760    1.1928   -0.9759 C   0  0  0  0  0  0  0  0  0  0  0  0
    8.2666    2.0980    0.0203 O   0  0  0  0  0  0  0  0  0  0  0  0
    7.3703    2.0739    1.0618 C   0  0  0  0  0  0  0  0  0  0  0  0
    6.1453    1.2640    0.7939 C   0  0  0  0  0  0  0  0  0  0  0  0
    5.5927    1.5651   -0.5140 N   0  0  0  0  0  0  0  0  0  0  0  0
    4.5616    0.6452   -0.8834 C   0  0  0  0  0  0  0  0  0  0  0  0
    3.4273    0.5922    0.1136 C   0  0  0  0  0  0  0  0  0  0  0  0
    2.4240   -0.4141   -0.4080 C   0  0  0  0  0  0  0  0  0  0  0  0
    1.3364   -0.5294    0.4554 O   0  0  0  0  0  0  0  0  0  0  0  0
    0.4209   -1.4546   -0.0325 C   0  0  0  0  0  0  0  0  0  0  0  0
    0.2561   -2.5997    0.9398 C   0  0  0  0  0  0  0  0  0  0  0  0
   -0.7683   -3.5425    0.2922 C   0  0  0  0  0  0  0  0  0  0  0  0
    1.4806   -3.1969    1.1075 O   0  0  0  0  0  0  0  0  0  0  0  0
    1.8623   -3.1146    2.4625 C   0  0  0  0  0  0  0  0  0  0  0  0
   -0.8582   -0.7326   -0.3062 C   0  0  0  0  0  0  0  0  0  0  0  0
   -1.9930   -1.6328   -0.6654 C   0  0  0  0  0  0  0  0  0  0  0  0
   -2.0888   -2.7600    0.3406 C   0  0  0  0  0  0  0  0  0  0  0  0
   -3.1771   -3.6561   -0.0005 N   0  0  0  0  0  0  0  0  0  0  0  0
   -4.3758   -2.8872   -0.2224 C   0  0  0  0  0  0  0  0  0  0  0  0
   -4.2106   -1.5010    0.2130 N   0  0  0  0  0  0  0  0  0  0  0  0
   -3.2963   -0.8777   -0.6890 C   0  0  0  0  0  0  0  0  0  0  0  0
   -3.0518    0.5081   -0.4437 N   0  0  0  0  0  0  0  0  0  0  0  0
   -4.2235    1.3337   -0.4262 C   0  0  0  0  0  0  0  0  0  0  0  0
   -3.7399    2.7690   -0.1770 C   0  0  0  0  0  0  0  0  0  0  0  0
   -4.7970    3.7760   -0.4969 C   0  0  0  0  0  0  0  0  0  0  0  0
   -4.5891    5.2651    0.4688 Cl  0  0  0  0  0  0  0  0  0  0  0  0
   -6.1533    3.1736   -0.2033 C   0  0  0  0  0  0  0  0  0  0  0  0
   -7.0040    4.1966    0.1699 F   0  0  0  0  0  0  0  0  0  0  0  0
   -6.0823    2.2148    0.9645 C   0  0  0  0  0  0  0  0  0  0  0  0
   -5.1984    1.0168    0.6556 C   0  0  0  0  0  0  0  0  0  0  0  0
    6.6800    2.4783   -2.0871 H   0  0  0  0  0  0  0  0  0  0  0  0
    6.3933    0.7436   -2.3175 H   0  0  0  0  0  0  0  0  0  0  0  0
    8.7093    1.3684   -1.8050 H   0  0  0  0  0  0  0  0  0  0  0  0
    8.0772    0.1414   -0.6756 H   0  0  0  0  0  0  0  0  0  0  0  0
    7.9057    1.6245    1.9477 H   0  0  0  0  0  0  0  0  0  0  0  0
    7.1148    3.1266    1.3419 H   0  0  0  0  0  0  0  0  0  0  0  0
    5.3721    1.5628    1.5401 H   0  0  0  0  0  0  0  0  0  0  0  0
    6.3919    0.1737    0.8880 H   0  0  0  0  0  0  0  0  0  0  0  0
    4.1096    1.0340   -1.8420 H   0  0  0  0  0  0  0  0  0  0  0  0
    4.9230   -0.3745   -1.1236 H   0  0  0  0  0  0  0  0  0  0  0  0
    3.7256    0.3046    1.1192 H   0  0  0  0  0  0  0  0  0  0  0  0
    2.8851    1.5804    0.1159 H   0  0  0  0  0  0  0  0  0  0  0  0
    2.0345   -0.0391   -1.3825 H   0  0  0  0  0  0  0  0  0  0  0  0
    2.9337   -1.3954   -0.5012 H   0  0  0  0  0  0  0  0  0  0  0  0
    0.8142   -1.8533   -0.9932 H   0  0  0  0  0  0  0  0  0  0  0  0
   -0.1631   -2.1936    1.8623 H   0  0  0  0  0  0  0  0  0  0  0  0
   -0.5474   -3.7113   -0.7682 H   0  0  0  0  0  0  0  0  0  0  0  0
   -0.8680   -4.4716    0.8846 H   0  0  0  0  0  0  0  0  0  0  0  0
    1.9045   -2.0117    2.6902 H   0  0  0  0  0  0  0  0  0  0  0  0
    2.9017   -3.5113    2.4965 H   0  0  0  0  0  0  0  0  0  0  0  0
    1.1638   -3.6489    3.1239 H   0  0  0  0  0  0  0  0  0  0  0  0
   -1.1109   -0.0786    0.5607 H   0  0  0  0  0  0  0  0  0  0  0  0
   -0.6355   -0.0178   -1.1522 H   0  0  0  0  0  0  0  0  0  0  0  0
   -1.7498   -2.1001   -1.6509 H   0  0  0  0  0  0  0  0  0  0  0  0
   -2.1557   -2.3837    1.3855 H   0  0  0  0  0  0  0  0  0  0  0  0
   -3.2881   -4.3249    0.7689 H   0  0  0  0  0  0  0  0  0  0  0  0
   -5.2130   -3.3441    0.3322 H   0  0  0  0  0  0  0  0  0  0  0  0
   -4.6642   -2.8784   -1.2963 H   0  0  0  0  0  0  0  0  0  0  0  0
   -3.9631   -1.4592    1.2056 H   0  0  0  0  0  0  0  0  0  0  0  0
   -3.7243   -1.0157   -1.7254 H   0  0  0  0  0  0  0  0  0  0  0  0
   -2.4689    0.8585   -1.2630 H   0  0  0  0  0  0  0  0  0  0  0  0
   -4.7128    1.3243   -1.4300 H   0  0  0  0  0  0  0  0  0  0  0  0
   -2.8238    2.9421   -0.7793 H   0  0  0  0  0  0  0  0  0  0  0  0
   -3.4094    2.8361    0.8955 H   0  0  0  0  0  0  0  0  0  0  0  0
   -4.7554    4.0736   -1.5619 H   0  0  0  0  0  0  0  0  0  0  0  0
   -6.5848    2.6465   -1.0755 H   0  0  0  0  0  0  0  0  0  0  0  0
   -5.7207    2.7670    1.8610 H   0  0  0  0  0  0  0  0  0  0  0  0
   -7.1167    1.8973    1.1978 H   0  0  0  0  0  0  0  0  0  0  0  0
   -4.6352    0.8095    1.5926 H   0  0  0  0  0  0  0  0  0  0  0  0
   -5.8579    0.2097    0.3357 H   0  0  0  0  0  0  0  0  0  0  0  0
  1  2  1  0
  2  3  1  0
  3  4  1  0
  4  5  1  0
  1  6  1  0
  5  6  1  0
  6  7  1  0
  7  8  1  0
  8  9  1  0
  9 10  1  0
 10 11  1  0
 11 12  1  0
 12 13  1  0
 12 14  1  0
 14 15  1  0
 11 16  1  0
 16 17  1  0
 13 18  1  0
 17 18  1  0
 18 19  1  0
 19 20  1  0
 20 21  1  0
 17 22  1  0
 21 22  1  0
 22 23  1  0
 23 24  1  0
 24 25  1  0
 25 26  1  0
 26 27  1  0
 26 28  1  0
 28 29  1  0
 28 30  1  0
 24 31  1  0
 30 31  1  0
  1 32  1  0
  1 33  1  0
  2 34  1  0
  2 35  1  0
  4 36  1  0
  4 37  1  0
  5 38  1  0
  5 39  1  0
  7 40  1  0
  7 41  1  0
  8 42  1  0
  8 43  1  0
  9 44  1  0
  9 45  1  0
 11 46  1  0
 12 47  1  0
 13 48  1  0
 13 49  1  0
 15 50  1  0
 15 51  1  0
 15 52  1  0
 16 53  1  0
 16 54  1  0
 17 55  1  0
 18 56  1  0
 19 57  1  0
 20 58  1  0
 20 59  1  0
 21 60  1  0
 22 61  1  0
 23 62  1  0
 24 63  1  0
 25 64  1  0
 25 65  1  0
 26 66  1  0
 28 67  1  0
 30 68  1  0
 30 69  1  0
 31 70  1  0
 31 71  1  0
M  END
>  <PDBID>  (1) 
4WKQ

>  <PDB ID>  (1) 
4WKQ

>  <Generic Name>  (1) 
Gefitinib

>  <Brand Name>  (1) 
Iressa

>  <DrugBank ID>  (1) 
DB00317

>  <ATC Codes>  (1) 
L01XE02

>  <Ligand ID>  (1) 
IRE

>  <Target Name>  (1) 
Epidermal growth factor receptor

>  <UniProt ID>  (1) 
P00533

>  <PDB ID.1>  (1) 
4WKQ

>  <Seq. Identity>  (1) 
96%

$$$$
