PDB_DB00509_03
     RDKit          3D

 49 50  0  0  0  0  0  0  0  0999 V2000
    2.3796    0.3757    0.5692 C   0  0  2  0  0  0  0  0  0  0  0  0
    1.4222   -0.3256    1.5104 C   0  0  0  0  0  0  0  0  0  0  0  0
    0.4841   -1.1816    0.6810 C   0  0  2  0  0  0  0  0  0  0  0  0
   -0.5234   -0.3374   -0.0159 C   0  0  0  0  0  0  0  0  0  0  0  0
    0.2035    0.9008   -0.5204 C   0  0  0  0  0  0  0  0  0  0  0  0
    1.6715    0.5958   -0.7268 C   0  0  0  0  0  0  0  0  0  0  0  0
    3.6076   -0.4737    0.4577 C   0  0  0  0  0  0  0  0  0  0  0  0
    4.6565    0.0852   -0.4423 C   0  0  1  0  0  0  0  0  0  0  0  0
    5.1593    1.4380   -0.0042 C   0  0  0  0  0  0  0  0  0  0  0  0
   -2.8511   -0.4092    0.0387 C   0  0  0  0  0  0  0  0  0  0  0  0
   -3.5716    0.9272   -0.1884 C   0  0  0  0  0  0  0  0  0  0  0  0
   -4.9827    0.7601   -0.6411 C   0  0  0  0  0  0  0  0  0  0  0  0
   -5.7170    0.0214    0.4658 C   0  0  0  0  0  0  0  0  0  0  0  0
   -5.1139   -1.3266    0.6925 C   0  0  0  0  0  0  0  0  0  0  0  0
   -3.6357   -1.3442    0.8889 C   0  0  0  0  0  0  0  0  0  0  0  0
    5.8016   -0.8223   -0.3984 N   0  0  0  0  0  0  0  0  0  0  0  0
   -1.6545   -0.0284    0.6902 O   0  0  0  0  0  0  0  0  0  0  0  0
   -7.0341   -0.1564    0.0379 O   0  0  0  0  0  0  0  0  0  0  0  0
    5.6826    1.4410    1.2631 O   0  0  0  0  0  0  0  0  0  0  0  0
    6.1429    1.8676   -0.8839 O   0  0  0  0  0  0  0  0  0  0  0  0
   -0.3101   -2.7059    1.8990 I   0  0  0  0  0  0  0  0  0  0  0  0
   -5.8486    2.6677   -0.9049 I   0  0  0  0  0  0  0  0  0  0  0  0
    0.0008    2.5605    0.7651 I   0  0  0  0  0  0  0  0  0  0  0  0
   -5.7310   -2.6750   -0.8483 I   0  0  0  0  0  0  0  0  0  0  0  0
    2.5887    1.3732    1.0140 H   0  0  0  0  0  0  0  0  0  0  0  0
    1.9882   -1.0610    2.1568 H   0  0  0  0  0  0  0  0  0  0  0  0
    0.9126    0.3393    2.2057 H   0  0  0  0  0  0  0  0  0  0  0  0
    1.1329   -1.6663   -0.0913 H   0  0  0  0  0  0  0  0  0  0  0  0
   -0.8554   -0.8628   -0.9589 H   0  0  0  0  0  0  0  0  0  0  0  0
   -0.1962    1.2132   -1.5296 H   0  0  0  0  0  0  0  0  0  0  0  0
    1.8187   -0.2235   -1.4596 H   0  0  0  0  0  0  0  0  0  0  0  0
    2.1140    1.5084   -1.2111 H   0  0  0  0  0  0  0  0  0  0  0  0
    3.9947   -0.6444    1.4782 H   0  0  0  0  0  0  0  0  0  0  0  0
    3.3039   -1.4586    0.0640 H   0  0  0  0  0  0  0  0  0  0  0  0
    4.3182    0.1324   -1.4796 H   0  0  0  0  0  0  0  0  0  0  0  0
    4.3019    2.1532   -0.1261 H   0  0  0  0  0  0  0  0  0  0  0  0
   -2.6383   -0.9004   -0.9365 H   0  0  0  0  0  0  0  0  0  0  0  0
   -3.0130    1.4504   -0.9856 H   0  0  0  0  0  0  0  0  0  0  0  0
   -3.5226    1.4596    0.7865 H   0  0  0  0  0  0  0  0  0  0  0  0
   -4.9883    0.1526   -1.5692 H   0  0  0  0  0  0  0  0  0  0  0  0
   -5.7077    0.6607    1.3697 H   0  0  0  0  0  0  0  0  0  0  0  0
   -5.5844   -1.7285    1.6386 H   0  0  0  0  0  0  0  0  0  0  0  0
   -3.4358   -1.1750    1.9842 H   0  0  0  0  0  0  0  0  0  0  0  0
   -3.3030   -2.3897    0.6118 H   0  0  0  0  0  0  0  0  0  0  0  0
    5.4012   -1.8006   -0.4257 H   0  0  0  0  0  0  0  0  0  0  0  0
    6.2752   -0.7162    0.5317 H   0  0  0  0  0  0  0  0  0  0  0  0
   -7.3246   -1.0954    0.1062 H   0  0  0  0  0  0  0  0  0  0  0  0
    5.4584    2.3132    1.6919 H   0  0  0  0  0  0  0  0  0  0  0  0
    6.7218    1.1120   -1.1941 H   0  0  0  0  0  0  0  0  0  0  0  0
  1  2  1  0
  2  3  1  0
  3  4  1  0
  4  5  1  0
  1  6  1  0
  5  6  1  0
  1  7  1  0
  7  8  1  0
  8  9  1  0
 10 11  1  0
 11 12  1  0
 12 13  1  0
 13 14  1  0
 10 15  1  0
 14 15  1  0
  8 16  1  0
  4 17  1  0
 10 17  1  0
 13 18  1  0
  9 19  1  0
  9 20  1  0
  3 21  1  0
 12 22  1  0
  5 23  1  0
 14 24  1  0
  1 25  1  1
  2 26  1  0
  2 27  1  0
  3 28  1  6
  4 29  1  0
  5 30  1  0
  6 31  1  0
  6 32  1  0
  7 33  1  0
  7 34  1  0
  8 35  1  6
  9 36  1  0
 10 37  1  0
 11 38  1  0
 11 39  1  0
 12 40  1  0
 13 41  1  0
 14 42  1  0
 15 43  1  0
 15 44  1  0
 16 45  1  0
 16 46  1  0
 18 47  1  0
 19 48  1  0
 20 49  1  0
M  END
>  <PDBID>  (1) 
1Y0X

>  <PDB ID>  (1) 
1Y0X

>  <Generic Name>  (1) 
Dextrothyroxine

>  <Brand Name>  (1) 
Choloxin - Tab 4mg#Choloxin Tab 2mg#Choloxin Tablet 4mg#Choloxin#Dynothel#Eulipos#Lisolipin

>  <DrugBank ID>  (1) 
DB00509

>  <ATC Codes>  (1) 
C10AX01

>  <Ligand ID>  (1) 
T44

>  <Target Name>  (1) 
Thyroid hormone receptor beta

>  <UniProt ID>  (1) 
P10828

>  <PDB ID.1>  (1) 
1Y0X

>  <Seq. Identity>  (1) 
100%

$$$$
