PDB_DB00317_08
     RDKit          3D

 71 74  0  0  0  0  0  0  0  0999 V2000
    6.6506    1.1379    1.5080 C   0  0  0  0  0  0  0  0  0  0  0  0
    6.9720    2.3657    0.7053 C   0  0  0  0  0  0  0  0  0  0  0  0
    7.4822    2.0088   -0.4999 O   0  0  0  0  0  0  0  0  0  0  0  0
    6.9031    1.0317   -1.2248 C   0  0  0  0  0  0  0  0  0  0  0  0
    6.2650   -0.1008   -0.4733 C   0  0  0  0  0  0  0  0  0  0  0  0
    5.6425    0.3695    0.7700 N   0  0  0  0  0  0  0  0  0  0  0  0
    4.4859    1.1941    0.4800 C   0  0  0  0  0  0  0  0  0  0  0  0
    3.3595    0.2656    0.0145 C   0  0  0  0  0  0  0  0  0  0  0  0
    2.1570    1.1417   -0.2924 C   0  0  0  0  0  0  0  0  0  0  0  0
    1.1045    0.3813   -0.6990 O   0  0  0  0  0  0  0  0  0  0  0  0
    0.5948   -0.5119    0.2420 C   0  0  0  0  0  0  0  0  0  0  0  0
    0.8351   -1.9016   -0.2519 C   0  0  0  0  0  0  0  0  0  0  0  0
   -0.0538   -2.2480   -1.4261 C   0  0  0  0  0  0  0  0  0  0  0  0
    0.7915   -2.8853    0.7307 O   0  0  0  0  0  0  0  0  0  0  0  0
    2.0318   -3.5358    0.8794 C   0  0  0  0  0  0  0  0  0  0  0  0
   -0.8581   -0.2143    0.5372 C   0  0  0  0  0  0  0  0  0  0  0  0
   -1.7739   -1.3041    0.0926 C   0  0  0  0  0  0  0  0  0  0  0  0
   -1.4530   -1.7031   -1.2993 C   0  0  0  0  0  0  0  0  0  0  0  0
   -2.3141   -2.7432   -1.8312 N   0  0  0  0  0  0  0  0  0  0  0  0
   -3.6016   -2.7727   -1.2032 C   0  0  0  0  0  0  0  0  0  0  0  0
   -3.9536   -1.4232   -0.8900 N   0  0  0  0  0  0  0  0  0  0  0  0
   -3.2282   -0.9571    0.3039 C   0  0  0  0  0  0  0  0  0  0  0  0
   -3.5157    0.4258    0.4323 N   0  0  0  0  0  0  0  0  0  0  0  0
   -4.7491    0.7736    1.0835 C   0  0  0  0  0  0  0  0  0  0  0  0
   -6.0024    0.3383    0.4311 C   0  0  0  0  0  0  0  0  0  0  0  0
   -6.7171    1.4320   -0.3459 C   0  0  0  0  0  0  0  0  0  0  0  0
   -7.8367    2.3530    0.6755 Cl  0  0  0  0  0  0  0  0  0  0  0  0
   -5.7473    2.3018   -1.0904 C   0  0  0  0  0  0  0  0  0  0  0  0
   -5.2765    1.5327   -2.1647 F   0  0  0  0  0  0  0  0  0  0  0  0
   -4.6162    2.8170   -0.2460 C   0  0  0  0  0  0  0  0  0  0  0  0
   -4.7102    2.3125    1.1808 C   0  0  0  0  0  0  0  0  0  0  0  0
    6.2051    1.3460    2.4971 H   0  0  0  0  0  0  0  0  0  0  0  0
    7.5676    0.5178    1.5735 H   0  0  0  0  0  0  0  0  0  0  0  0
    6.0390    2.9588    0.5878 H   0  0  0  0  0  0  0  0  0  0  0  0
    7.7567    2.9880    1.2280 H   0  0  0  0  0  0  0  0  0  0  0  0
    6.1925    1.4971   -1.9633 H   0  0  0  0  0  0  0  0  0  0  0  0
    7.7073    0.5698   -1.8730 H   0  0  0  0  0  0  0  0  0  0  0  0
    5.4834   -0.5454   -1.0886 H   0  0  0  0  0  0  0  0  0  0  0  0
    6.9800   -0.9009   -0.1928 H   0  0  0  0  0  0  0  0  0  0  0  0
    4.2067    1.8225    1.3173 H   0  0  0  0  0  0  0  0  0  0  0  0
    4.7326    1.8686   -0.3966 H   0  0  0  0  0  0  0  0  0  0  0  0
    3.5987   -0.2428   -0.9343 H   0  0  0  0  0  0  0  0  0  0  0  0
    3.1586   -0.5114    0.7541 H   0  0  0  0  0  0  0  0  0  0  0  0
    2.4768    1.7499   -1.1894 H   0  0  0  0  0  0  0  0  0  0  0  0
    1.9363    1.7850    0.5638 H   0  0  0  0  0  0  0  0  0  0  0  0
    1.2180   -0.3759    1.1713 H   0  0  0  0  0  0  0  0  0  0  0  0
    1.8840   -1.9226   -0.6599 H   0  0  0  0  0  0  0  0  0  0  0  0
   -0.0339   -3.3699   -1.5012 H   0  0  0  0  0  0  0  0  0  0  0  0
    0.4194   -1.8925   -2.3635 H   0  0  0  0  0  0  0  0  0  0  0  0
    1.9499   -4.3279    1.6501 H   0  0  0  0  0  0  0  0  0  0  0  0
    2.7649   -2.7962    1.3199 H   0  0  0  0  0  0  0  0  0  0  0  0
    2.4796   -3.8414   -0.0663 H   0  0  0  0  0  0  0  0  0  0  0  0
   -0.9398   -0.0699    1.6483 H   0  0  0  0  0  0  0  0  0  0  0  0
   -1.0666    0.7524    0.0069 H   0  0  0  0  0  0  0  0  0  0  0  0
   -1.5744   -2.1914    0.7590 H   0  0  0  0  0  0  0  0  0  0  0  0
   -1.4984   -0.7796   -1.9442 H   0  0  0  0  0  0  0  0  0  0  0  0
   -1.8965   -3.6903   -1.7877 H   0  0  0  0  0  0  0  0  0  0  0  0
   -4.3306   -3.1292   -1.9773 H   0  0  0  0  0  0  0  0  0  0  0  0
   -3.5708   -3.4438   -0.3348 H   0  0  0  0  0  0  0  0  0  0  0  0
   -3.6899   -0.7991   -1.6577 H   0  0  0  0  0  0  0  0  0  0  0  0
   -3.6795   -1.4951    1.1617 H   0  0  0  0  0  0  0  0  0  0  0  0
   -2.7749    0.9572    0.9915 H   0  0  0  0  0  0  0  0  0  0  0  0
   -4.7148    0.4550    2.1699 H   0  0  0  0  0  0  0  0  0  0  0  0
   -5.9798   -0.5542   -0.1853 H   0  0  0  0  0  0  0  0  0  0  0  0
   -6.7310    0.0846    1.2670 H   0  0  0  0  0  0  0  0  0  0  0  0
   -7.3594    0.9330   -1.1219 H   0  0  0  0  0  0  0  0  0  0  0  0
   -6.2995    3.1455   -1.5507 H   0  0  0  0  0  0  0  0  0  0  0  0
   -4.4982    3.8989   -0.3314 H   0  0  0  0  0  0  0  0  0  0  0  0
   -3.6675    2.3725   -0.6590 H   0  0  0  0  0  0  0  0  0  0  0  0
   -5.5504    2.7156    1.7378 H   0  0  0  0  0  0  0  0  0  0  0  0
   -3.7694    2.5796    1.6904 H   0  0  0  0  0  0  0  0  0  0  0  0
  1  2  1  0
  2  3  1  0
  3  4  1  0
  4  5  1  0
  1  6  1  0
  5  6  1  0
  6  7  1  0
  7  8  1  0
  8  9  1  0
  9 10  1  0
 10 11  1  0
 11 12  1  0
 12 13  1  0
 12 14  1  0
 14 15  1  0
 11 16  1  0
 16 17  1  0
 13 18  1  0
 17 18  1  0
 18 19  1  0
 19 20  1  0
 20 21  1  0
 17 22  1  0
 21 22  1  0
 22 23  1  0
 23 24  1  0
 24 25  1  0
 25 26  1  0
 26 27  1  0
 26 28  1  0
 28 29  1  0
 28 30  1  0
 24 31  1  0
 30 31  1  0
  1 32  1  0
  1 33  1  0
  2 34  1  0
  2 35  1  0
  4 36  1  0
  4 37  1  0
  5 38  1  0
  5 39  1  0
  7 40  1  0
  7 41  1  0
  8 42  1  0
  8 43  1  0
  9 44  1  0
  9 45  1  0
 11 46  1  0
 12 47  1  0
 13 48  1  0
 13 49  1  0
 15 50  1  0
 15 51  1  0
 15 52  1  0
 16 53  1  0
 16 54  1  0
 17 55  1  0
 18 56  1  0
 19 57  1  0
 20 58  1  0
 20 59  1  0
 21 60  1  0
 22 61  1  0
 23 62  1  0
 24 63  1  0
 25 64  1  0
 25 65  1  0
 26 66  1  0
 28 67  1  0
 30 68  1  0
 30 69  1  0
 31 70  1  0
 31 71  1  0
M  END
>  <PDBID>  (1) 
4WKQ

>  <PDB ID>  (1) 
4WKQ

>  <Generic Name>  (1) 
Gefitinib

>  <Brand Name>  (1) 
Iressa

>  <DrugBank ID>  (1) 
DB00317

>  <ATC Codes>  (1) 
L01XE02

>  <Ligand ID>  (1) 
IRE

>  <Target Name>  (1) 
Epidermal growth factor receptor

>  <UniProt ID>  (1) 
P00533

>  <PDB ID.1>  (1) 
4WKQ

>  <Seq. Identity>  (1) 
96%

$$$$
