PDB_DB00148_00
     RDKit          3D

 22 21  0  0  0  0  0  0  0  0999 V2000
    2.2138   -0.9929    1.3595 O   0  0  0  0  0  0  0  0  0  0  0  0
    1.7210   -1.1435    0.0430 C   0  0  0  0  0  0  0  0  0  0  0  0
    2.7025   -1.4420   -0.8730 O   0  0  0  0  0  0  0  0  0  0  0  0
    1.0717    0.1686   -0.3960 C   0  0  0  0  0  0  0  0  0  0  0  0
   -0.0461    0.5503    0.4595 N   0  0  0  0  0  0  0  0  0  0  0  0
   -0.4009    1.9732    0.1551 C   0  0  0  0  0  0  0  0  0  0  0  0
   -1.2704   -0.1296    0.0076 C   0  0  0  0  0  0  0  0  0  0  0  0
   -2.3037    0.3577    0.9209 N   0  0  0  0  0  0  0  0  0  0  0  0
   -1.2241   -1.5509    0.0645 N   0  0  0  0  0  0  0  0  0  0  0  0
    2.6519   -0.0840    1.3667 H   0  0  0  0  0  0  0  0  0  0  0  0
    1.0152   -1.9718    0.0663 H   0  0  0  0  0  0  0  0  0  0  0  0
    3.3925   -0.7619   -1.0058 H   0  0  0  0  0  0  0  0  0  0  0  0
    0.6546   -0.0652   -1.4038 H   0  0  0  0  0  0  0  0  0  0  0  0
    1.8257    0.9685   -0.4150 H   0  0  0  0  0  0  0  0  0  0  0  0
   -0.8334    2.3768    1.0771 H   0  0  0  0  0  0  0  0  0  0  0  0
    0.5600    2.4310   -0.1451 H   0  0  0  0  0  0  0  0  0  0  0  0
   -1.1162    2.0358   -0.6666 H   0  0  0  0  0  0  0  0  0  0  0  0
   -1.4436    0.2616   -1.0309 H   0  0  0  0  0  0  0  0  0  0  0  0
   -2.9938   -0.4139    1.1201 H   0  0  0  0  0  0  0  0  0  0  0  0
   -2.7671    1.2080    0.5436 H   0  0  0  0  0  0  0  0  0  0  0  0
   -1.4563   -1.8559    1.0351 H   0  0  0  0  0  0  0  0  0  0  0  0
   -1.9532   -1.9199   -0.5829 H   0  0  0  0  0  0  0  0  0  0  0  0
  1  2  1  0
  2  3  1  0
  2  4  1  0
  4  5  1  0
  5  6  1  0
  5  7  1  0
  7  8  1  0
  7  9  1  0
  1 10  1  0
  2 11  1  0
  3 12  1  0
  4 13  1  0
  4 14  1  0
  6 15  1  0
  6 16  1  0
  6 17  1  0
  7 18  1  0
  8 19  1  0
  8 20  1  0
  9 21  1  0
  9 22  1  0
M  END
>  <PDBID>  (1) 
3B6R

>  <PDB ID>  (1) 
3B6R

>  <Generic Name>  (1) 
Creatine

>  <Brand Name>  (1) 
nan

>  <DrugBank ID>  (1) 
DB00148

>  <ATC Codes>  (1) 
nan

>  <Ligand ID>  (1) 
CRN

>  <Target Name>  (1) 
Creatine kinase B-type

>  <UniProt ID>  (1) 
P12277

>  <PDB ID.1>  (1) 
3B6R

>  <Seq. Identity>  (1) 
96%

$$$$
