PDB_DB00480_01
     RDKit          3D

 88 92  0  0  0  0  0  0  0  0999 V2000
    1.5574   -1.1663    0.1118 C   0  0  1  0  0  0  0  0  0  0  0  0
    2.6923   -1.0316   -0.8418 C   0  0  0  0  0  0  0  0  0  0  0  0
    3.9555   -0.6680   -0.1001 C   0  0  0  0  0  0  0  0  0  0  0  0
    3.7026    0.6825    0.5469 C   0  0  0  0  0  0  0  0  0  0  0  0
    2.5333    0.6805    1.3844 N   0  0  0  0  0  0  0  0  0  0  0  0
    1.9166   -0.6136    1.5032 C   0  0  0  0  0  0  0  0  0  0  0  0
   -1.3664    0.5296   -1.2282 C   0  0  0  0  0  0  0  0  0  0  0  0
   -1.8892   -0.6536   -0.4729 C   0  0  0  0  0  0  0  0  0  0  0  0
   -0.7593   -0.8563    0.5491 C   0  0  0  0  0  0  0  0  0  0  0  0
    0.3581   -0.6040   -0.2536 N   0  0  0  0  0  0  0  0  0  0  0  0
    0.1266    0.1701   -1.3488 C   0  0  0  0  0  0  0  0  0  0  0  0
   -2.9491    2.0047   -0.1397 C   0  0  0  0  0  0  0  0  0  0  0  0
   -3.4897    0.9017    0.6907 C   0  0  0  0  0  0  0  0  0  0  0  0
   -3.1406   -0.4741    0.2666 C   0  0  0  0  0  0  0  0  0  0  0  0
   -1.4744    1.8180   -0.4479 C   0  0  0  0  0  0  0  0  0  0  0  0
    0.2401   -0.4954   -2.5817 O   0  0  0  0  0  0  0  0  0  0  0  0
   -4.2220   -1.1248   -0.4934 N   0  0  0  0  0  0  0  0  0  0  0  0
    2.6345   -1.5187    2.2461 O   0  0  0  0  0  0  0  0  0  0  0  0
    4.7981    1.0966    1.2810 O   0  0  0  0  0  0  0  0  0  0  0  0
    1.5574   -1.1663    0.1118 C   0  0  1  0  0  0  0  0  0  0  0  0
    2.6923   -1.0316   -0.8418 C   0  0  0  0  0  0  0  0  0  0  0  0
    3.9555   -0.6680   -0.1001 C   0  0  0  0  0  0  0  0  0  0  0  0
    3.7026    0.6825    0.5469 C   0  0  0  0  0  0  0  0  0  0  0  0
    2.5333    0.6805    1.3844 N   0  0  0  0  0  0  0  0  0  0  0  0
    1.9166   -0.6136    1.5032 C   0  0  0  0  0  0  0  0  0  0  0  0
   -1.3664    0.5296   -1.2282 C   0  0  0  0  0  0  0  0  0  0  0  0
   -1.8892   -0.6536   -0.4729 C   0  0  0  0  0  0  0  0  0  0  0  0
   -0.7593   -0.8563    0.5491 C   0  0  0  0  0  0  0  0  0  0  0  0
    0.3581   -0.6040   -0.2536 N   0  0  0  0  0  0  0  0  0  0  0  0
    0.1266    0.1701   -1.3488 C   0  0  0  0  0  0  0  0  0  0  0  0
   -2.9491    2.0047   -0.1397 C   0  0  0  0  0  0  0  0  0  0  0  0
   -3.4897    0.9017    0.6907 C   0  0  0  0  0  0  0  0  0  0  0  0
   -3.1406   -0.4741    0.2666 C   0  0  0  0  0  0  0  0  0  0  0  0
   -1.4744    1.8180   -0.4479 C   0  0  0  0  0  0  0  0  0  0  0  0
    0.2401   -0.4954   -2.5817 O   0  0  0  0  0  0  0  0  0  0  0  0
   -4.2220   -1.1248   -0.4934 N   0  0  0  0  0  0  0  0  0  0  0  0
    2.6345   -1.5187    2.2461 O   0  0  0  0  0  0  0  0  0  0  0  0
    4.7981    1.0966    1.2810 O   0  0  0  0  0  0  0  0  0  0  0  0
    1.4050   -2.2714    0.2973 H   0  0  0  0  0  0  0  0  0  0  0  0
    2.5509   -0.2867   -1.6376 H   0  0  0  0  0  0  0  0  0  0  0  0
    2.9155   -2.0155   -1.3532 H   0  0  0  0  0  0  0  0  0  0  0  0
    4.2906   -1.4337    0.6011 H   0  0  0  0  0  0  0  0  0  0  0  0
    4.7930   -0.5107   -0.8246 H   0  0  0  0  0  0  0  0  0  0  0  0
    3.5638    1.3992   -0.3084 H   0  0  0  0  0  0  0  0  0  0  0  0
    1.8093    1.3273    0.9678 H   0  0  0  0  0  0  0  0  0  0  0  0
    0.9459   -0.4457    2.0572 H   0  0  0  0  0  0  0  0  0  0  0  0
   -1.8322    0.6836   -2.1986 H   0  0  0  0  0  0  0  0  0  0  0  0
   -1.9165   -1.5097   -1.1913 H   0  0  0  0  0  0  0  0  0  0  0  0
   -0.7596   -1.8864    0.9488 H   0  0  0  0  0  0  0  0  0  0  0  0
   -0.9325   -0.1015    1.3367 H   0  0  0  0  0  0  0  0  0  0  0  0
    0.6892    1.1186   -1.4620 H   0  0  0  0  0  0  0  0  0  0  0  0
   -3.5167    2.0644   -1.0827 H   0  0  0  0  0  0  0  0  0  0  0  0
   -3.0381    2.9510    0.4407 H   0  0  0  0  0  0  0  0  0  0  0  0
   -3.2309    1.1091    1.7664 H   0  0  0  0  0  0  0  0  0  0  0  0
   -4.6164    0.9859    0.6629 H   0  0  0  0  0  0  0  0  0  0  0  0
   -3.0743   -1.0988    1.2105 H   0  0  0  0  0  0  0  0  0  0  0  0
   -1.1823    2.6472   -1.1315 H   0  0  0  0  0  0  0  0  0  0  0  0
   -0.8839    1.8227    0.4818 H   0  0  0  0  0  0  0  0  0  0  0  0
   -0.5901   -1.0008   -2.7577 H   0  0  0  0  0  0  0  0  0  0  0  0
   -4.4893   -0.5755   -1.3185 H   0  0  0  0  0  0  0  0  0  0  0  0
   -4.9978   -1.2640    0.2032 H   0  0  0  0  0  0  0  0  0  0  0  0
    2.2318   -2.4171    2.0795 H   0  0  0  0  0  0  0  0  0  0  0  0
    4.6413    2.0312    1.5404 H   0  0  0  0  0  0  0  0  0  0  0  0
    1.4050   -2.2714    0.2973 H   0  0  0  0  0  0  0  0  0  0  0  0
    2.5509   -0.2867   -1.6376 H   0  0  0  0  0  0  0  0  0  0  0  0
    2.9155   -2.0155   -1.3532 H   0  0  0  0  0  0  0  0  0  0  0  0
    4.2906   -1.4337    0.6011 H   0  0  0  0  0  0  0  0  0  0  0  0
    4.7930   -0.5107   -0.8246 H   0  0  0  0  0  0  0  0  0  0  0  0
    3.5638    1.3992   -0.3084 H   0  0  0  0  0  0  0  0  0  0  0  0
    1.8093    1.3273    0.9678 H   0  0  0  0  0  0  0  0  0  0  0  0
    0.9459   -0.4457    2.0572 H   0  0  0  0  0  0  0  0  0  0  0  0
   -1.8322    0.6836   -2.1986 H   0  0  0  0  0  0  0  0  0  0  0  0
   -1.9165   -1.5097   -1.1913 H   0  0  0  0  0  0  0  0  0  0  0  0
   -0.7596   -1.8864    0.9488 H   0  0  0  0  0  0  0  0  0  0  0  0
   -0.9325   -0.1015    1.3367 H   0  0  0  0  0  0  0  0  0  0  0  0
    0.6892    1.1186   -1.4620 H   0  0  0  0  0  0  0  0  0  0  0  0
   -3.5167    2.0644   -1.0827 H   0  0  0  0  0  0  0  0  0  0  0  0
   -3.0381    2.9510    0.4407 H   0  0  0  0  0  0  0  0  0  0  0  0
   -3.2309    1.1091    1.7664 H   0  0  0  0  0  0  0  0  0  0  0  0
   -4.6164    0.9859    0.6629 H   0  0  0  0  0  0  0  0  0  0  0  0
   -3.0743   -1.0988    1.2105 H   0  0  0  0  0  0  0  0  0  0  0  0
   -1.1823    2.6472   -1.1315 H   0  0  0  0  0  0  0  0  0  0  0  0
   -0.8839    1.8227    0.4818 H   0  0  0  0  0  0  0  0  0  0  0  0
   -0.5901   -1.0008   -2.7577 H   0  0  0  0  0  0  0  0  0  0  0  0
   -4.4893   -0.5755   -1.3185 H   0  0  0  0  0  0  0  0  0  0  0  0
   -4.9978   -1.2640    0.2032 H   0  0  0  0  0  0  0  0  0  0  0  0
    2.2318   -2.4171    2.0795 H   0  0  0  0  0  0  0  0  0  0  0  0
    4.6413    2.0312    1.5404 H   0  0  0  0  0  0  0  0  0  0  0  0
  1  2  1  0
  2  3  1  0
  3  4  1  0
  4  5  1  0
  1  6  1  0
  5  6  1  0
  7  8  1  0
  8  9  1  0
  1 10  1  0
  9 10  1  0
  7 11  1  0
 10 11  1  0
 12 13  1  0
  8 14  1  0
 13 14  1  0
  7 15  1  0
 12 15  1  0
 11 16  1  0
 14 17  1  0
  6 18  1  0
  4 19  1  0
 20 21  1  0
 21 22  1  0
 22 23  1  0
 23 24  1  0
 20 25  1  0
 24 25  1  0
 26 27  1  0
 27 28  1  0
 20 29  1  0
 28 29  1  0
 26 30  1  0
 29 30  1  0
 31 32  1  0
 27 33  1  0
 32 33  1  0
 26 34  1  0
 31 34  1  0
 30 35  1  0
 33 36  1  0
 25 37  1  0
 23 38  1  0
  1 39  1  1
  2 40  1  0
  2 41  1  0
  3 42  1  0
  3 43  1  0
  4 44  1  0
  5 45  1  0
  6 46  1  0
  7 47  1  0
  8 48  1  0
  9 49  1  0
  9 50  1  0
 11 51  1  0
 12 52  1  0
 12 53  1  0
 13 54  1  0
 13 55  1  0
 14 56  1  0
 15 57  1  0
 15 58  1  0
 16 59  1  0
 17 60  1  0
 17 61  1  0
 18 62  1  0
 19 63  1  0
 20 64  1  1
 21 65  1  0
 21 66  1  0
 22 67  1  0
 22 68  1  0
 23 69  1  0
 24 70  1  0
 25 71  1  0
 26 72  1  0
 27 73  1  0
 28 74  1  0
 28 75  1  0
 30 76  1  0
 31 77  1  0
 31 78  1  0
 32 79  1  0
 32 80  1  0
 33 81  1  0
 34 82  1  0
 34 83  1  0
 35 84  1  0
 36 85  1  0
 36 86  1  0
 37 87  1  0
 38 88  1  0
M  END
>  <PDBID>  (1) 
5FQD

>  <PDB ID>  (1) 
5FQD

>  <Generic Name>  (1) 
Lenalidomide

>  <Brand Name>  (1) 
Revlimid#Ladevina#Lenangio

>  <DrugBank ID>  (1) 
DB00480

>  <ATC Codes>  (1) 
L04AX04

>  <Ligand ID>  (1) 
LVY

>  <Target Name>  (1) 
Protein cereblon

>  <UniProt ID>  (1) 
Q96SW2

>  <PDB ID.1>  (1) 
5FQD

>  <Seq. Identity>  (1) 
100%

$$$$
