PDB_DB01597_07
     RDKit          3D

 82 82  0  0  0  0  0  0  0  0999 V2000
   -3.8642   -0.9465   -0.4395 C   0  0  0  0  0  0  0  0  0  0  0  0
   -2.4831   -0.4304   -0.7140 C   0  0  1  0  0  0  0  0  0  0  0  0
   -3.4810    0.4527   -0.0924 C   0  0  0  0  0  0  0  0  0  0  0  0
   -3.5041    0.7762    1.3731 C   0  0  0  0  0  0  0  0  0  0  0  0
   -4.0234    1.5937   -0.9634 C   0  0  0  0  0  0  0  0  0  0  0  0
   -1.3216   -1.0261    0.0922 C   0  0  0  0  0  0  0  0  0  0  0  0
   -0.1470   -0.3665   -0.3633 N   0  0  0  0  0  0  0  0  0  0  0  0
    1.0943   -0.7974    0.2434 C   0  0  0  0  0  0  0  0  0  0  0  0
    2.1070    0.2565   -0.1740 C   0  0  0  0  0  0  0  0  0  0  0  0
   -1.6041   -0.8054    1.4315 O   0  0  0  0  0  0  0  0  0  0  0  0
    1.4206   -2.1453   -0.3341 C   0  0  0  0  0  0  0  0  0  0  0  0
    2.5969   -2.7011    0.1546 O   0  0  0  0  0  0  0  0  0  0  0  0
    1.4386   -2.0130   -1.7202 O   0  0  0  0  0  0  0  0  0  0  0  0
    3.4840    0.0387    0.3316 C   0  0  0  0  0  0  0  0  0  0  0  0
    4.3182    1.2155   -0.2008 C   0  0  0  0  0  0  0  0  0  0  0  0
    3.7523    2.5130    0.3117 C   0  0  0  0  0  0  0  0  0  0  0  0
   -3.8642   -0.9465   -0.4395 C   0  0  0  0  0  0  0  0  0  0  0  0
   -2.4831   -0.4304   -0.7140 C   0  0  1  0  0  0  0  0  0  0  0  0
   -3.4810    0.4527   -0.0924 C   0  0  0  0  0  0  0  0  0  0  0  0
   -3.5041    0.7762    1.3731 C   0  0  0  0  0  0  0  0  0  0  0  0
   -4.0234    1.5937   -0.9634 C   0  0  0  0  0  0  0  0  0  0  0  0
   -1.3216   -1.0261    0.0922 C   0  0  0  0  0  0  0  0  0  0  0  0
   -0.1470   -0.3665   -0.3633 N   0  0  0  0  0  0  0  0  0  0  0  0
    1.0943   -0.7974    0.2434 C   0  0  0  0  0  0  0  0  0  0  0  0
    2.1070    0.2565   -0.1740 C   0  0  0  0  0  0  0  0  0  0  0  0
   -1.6041   -0.8054    1.4315 O   0  0  0  0  0  0  0  0  0  0  0  0
    1.4206   -2.1453   -0.3341 C   0  0  0  0  0  0  0  0  0  0  0  0
    2.5969   -2.7011    0.1546 O   0  0  0  0  0  0  0  0  0  0  0  0
    1.4386   -2.0130   -1.7202 O   0  0  0  0  0  0  0  0  0  0  0  0
    3.4840    0.0387    0.3316 C   0  0  0  0  0  0  0  0  0  0  0  0
    4.3182    1.2155   -0.2008 C   0  0  0  0  0  0  0  0  0  0  0  0
    3.7523    2.5130    0.3117 C   0  0  0  0  0  0  0  0  0  0  0  0
   -4.0164   -1.6744    0.3973 H   0  0  0  0  0  0  0  0  0  0  0  0
   -4.5828   -1.0916   -1.2609 H   0  0  0  0  0  0  0  0  0  0  0  0
   -2.2931   -0.2684   -1.8095 H   0  0  0  0  0  0  0  0  0  0  0  0
   -4.3974    1.4450    1.5500 H   0  0  0  0  0  0  0  0  0  0  0  0
   -2.6107    1.2929    1.7281 H   0  0  0  0  0  0  0  0  0  0  0  0
   -3.7599   -0.1374    1.9871 H   0  0  0  0  0  0  0  0  0  0  0  0
   -3.6485    2.5255   -0.5176 H   0  0  0  0  0  0  0  0  0  0  0  0
   -3.5810    1.5096   -1.9763 H   0  0  0  0  0  0  0  0  0  0  0  0
   -5.1219    1.5360   -1.0496 H   0  0  0  0  0  0  0  0  0  0  0  0
   -1.2789   -2.1248   -0.0511 H   0  0  0  0  0  0  0  0  0  0  0  0
   -0.1004   -0.2729   -1.3789 H   0  0  0  0  0  0  0  0  0  0  0  0
    1.0306   -0.8532    1.3344 H   0  0  0  0  0  0  0  0  0  0  0  0
    2.1105    0.2469   -1.3008 H   0  0  0  0  0  0  0  0  0  0  0  0
    1.6966    1.2284    0.1149 H   0  0  0  0  0  0  0  0  0  0  0  0
   -0.8646   -0.3424    1.8597 H   0  0  0  0  0  0  0  0  0  0  0  0
    0.5998   -2.8422   -0.0634 H   0  0  0  0  0  0  0  0  0  0  0  0
    2.6179   -3.6363   -0.1846 H   0  0  0  0  0  0  0  0  0  0  0  0
    0.4984   -2.1115   -2.0251 H   0  0  0  0  0  0  0  0  0  0  0  0
    3.9582   -0.8510   -0.1318 H   0  0  0  0  0  0  0  0  0  0  0  0
    3.5288    0.0653    1.4194 H   0  0  0  0  0  0  0  0  0  0  0  0
    5.3880    1.0781    0.0179 H   0  0  0  0  0  0  0  0  0  0  0  0
    4.1983    1.2270   -1.3192 H   0  0  0  0  0  0  0  0  0  0  0  0
    4.5510    3.2823    0.3431 H   0  0  0  0  0  0  0  0  0  0  0  0
    2.8877    2.8343   -0.2841 H   0  0  0  0  0  0  0  0  0  0  0  0
    3.4064    2.3202    1.3560 H   0  0  0  0  0  0  0  0  0  0  0  0
   -4.0164   -1.6744    0.3973 H   0  0  0  0  0  0  0  0  0  0  0  0
   -4.5828   -1.0916   -1.2609 H   0  0  0  0  0  0  0  0  0  0  0  0
   -2.2931   -0.2684   -1.8095 H   0  0  0  0  0  0  0  0  0  0  0  0
   -4.3974    1.4450    1.5500 H   0  0  0  0  0  0  0  0  0  0  0  0
   -2.6107    1.2929    1.7281 H   0  0  0  0  0  0  0  0  0  0  0  0
   -3.7599   -0.1374    1.9871 H   0  0  0  0  0  0  0  0  0  0  0  0
   -3.6485    2.5255   -0.5176 H   0  0  0  0  0  0  0  0  0  0  0  0
   -3.5810    1.5096   -1.9763 H   0  0  0  0  0  0  0  0  0  0  0  0
   -5.1219    1.5360   -1.0496 H   0  0  0  0  0  0  0  0  0  0  0  0
   -1.2789   -2.1248   -0.0511 H   0  0  0  0  0  0  0  0  0  0  0  0
   -0.1004   -0.2729   -1.3789 H   0  0  0  0  0  0  0  0  0  0  0  0
    1.0306   -0.8532    1.3344 H   0  0  0  0  0  0  0  0  0  0  0  0
    2.1105    0.2469   -1.3008 H   0  0  0  0  0  0  0  0  0  0  0  0
    1.6966    1.2284    0.1149 H   0  0  0  0  0  0  0  0  0  0  0  0
   -0.8646   -0.3424    1.8597 H   0  0  0  0  0  0  0  0  0  0  0  0
    0.5998   -2.8422   -0.0634 H   0  0  0  0  0  0  0  0  0  0  0  0
    2.6179   -3.6363   -0.1846 H   0  0  0  0  0  0  0  0  0  0  0  0
    0.4984   -2.1115   -2.0251 H   0  0  0  0  0  0  0  0  0  0  0  0
    3.9582   -0.8510   -0.1318 H   0  0  0  0  0  0  0  0  0  0  0  0
    3.5288    0.0653    1.4194 H   0  0  0  0  0  0  0  0  0  0  0  0
    5.3880    1.0781    0.0179 H   0  0  0  0  0  0  0  0  0  0  0  0
    4.1983    1.2270   -1.3192 H   0  0  0  0  0  0  0  0  0  0  0  0
    4.5510    3.2823    0.3431 H   0  0  0  0  0  0  0  0  0  0  0  0
    2.8877    2.8343   -0.2841 H   0  0  0  0  0  0  0  0  0  0  0  0
    3.4064    2.3202    1.3560 H   0  0  0  0  0  0  0  0  0  0  0  0
  1  2  1  0
  1  3  1  0
  2  3  1  0
  3  4  1  0
  3  5  1  0
  2  6  1  0
  6  7  1  0
  7  8  1  0
  8  9  1  0
  6 10  1  0
  8 11  1  0
 11 12  1  0
 11 13  1  0
  9 14  1  0
 14 15  1  0
 15 16  1  0
 17 18  1  0
 17 19  1  0
 18 19  1  0
 19 20  1  0
 19 21  1  0
 18 22  1  0
 22 23  1  0
 23 24  1  0
 24 25  1  0
 22 26  1  0
 24 27  1  0
 27 28  1  0
 27 29  1  0
 25 30  1  0
 30 31  1  0
 31 32  1  0
  1 33  1  0
  1 34  1  0
  2 35  1  6
  4 36  1  0
  4 37  1  0
  4 38  1  0
  5 39  1  0
  5 40  1  0
  5 41  1  0
  6 42  1  0
  7 43  1  0
  8 44  1  0
  9 45  1  0
  9 46  1  0
 10 47  1  0
 11 48  1  0
 12 49  1  0
 13 50  1  0
 14 51  1  0
 14 52  1  0
 15 53  1  0
 15 54  1  0
 16 55  1  0
 16 56  1  0
 16 57  1  0
 17 58  1  0
 17 59  1  0
 18 60  1  6
 20 61  1  0
 20 62  1  0
 20 63  1  0
 21 64  1  0
 21 65  1  0
 21 66  1  0
 22 67  1  0
 23 68  1  0
 24 69  1  0
 25 70  1  0
 25 71  1  0
 26 72  1  0
 27 73  1  0
 28 74  1  0
 29 75  1  0
 30 76  1  0
 30 77  1  0
 31 78  1  0
 31 79  1  0
 32 80  1  0
 32 81  1  0
 32 82  1  0
M  END
>  <PDBID>  (1) 
1ITU

>  <PDB ID>  (1) 
1ITU

>  <Generic Name>  (1) 
Cilastatin

>  <Brand Name>  (1) 
Imipenem and Cilastatin#Imipenem and Cilastatin for Injection#Imipenem and Cilastatin for Injection USP#Imipenem and Cilastatin for Injection, USP#Primaxin 250#Primaxin 500#Primaxin IV#Primaxin IV 250/250 Add-vantage Vial#Primaxin IV 500#Ran-imipenem-cilastatin

>  <DrugBank ID>  (1) 
DB01597

>  <ATC Codes>  (1) 
nan

>  <Ligand ID>  (1) 
CIL

>  <Target Name>  (1) 
Dipeptidase 1

>  <UniProt ID>  (1) 
P16444

>  <PDB ID.1>  (1) 
1ITU

>  <Seq. Identity>  (1) 
100%

$$$$
