PDB_DB00866_01
     RDKit          3D

 49 49  0  0  0  0  0  0  0  0999 V2000
    5.8325   -0.0233    1.1656 C   0  0  0  0  0  0  0  0  0  0  0  0
    3.9811    0.0191   -0.3640 N   0  0  0  0  0  0  0  0  0  0  0  0
    1.9666    1.7666    0.0542 O   0  0  0  0  0  0  0  0  0  0  0  0
    5.2612   -0.5438   -0.1339 C   0  0  0  0  0  0  0  0  0  0  0  0
   -0.6507    0.7173    0.7181 O   0  0  0  0  0  0  0  0  0  0  0  0
    5.2666   -2.0576   -0.1611 C   0  0  0  0  0  0  0  0  0  0  0  0
    2.9453   -0.2887    0.5567 C   0  0  0  0  0  0  0  0  0  0  0  0
    1.6756    0.4270    0.0696 C   0  0  1  0  0  0  0  0  0  0  0  0
    0.5424    0.1249    0.9923 C   0  0  0  0  0  0  0  0  0  0  0  0
   -1.2377    0.4401   -0.4863 C   0  0  0  0  0  0  0  0  0  0  0  0
   -1.3034    1.7114   -1.3037 C   0  0  0  0  0  0  0  0  0  0  0  0
   -2.4523    2.5992   -0.8833 C   0  0  0  0  0  0  0  0  0  0  0  0
   -3.7721    1.8804   -1.0561 C   0  0  0  0  0  0  0  0  0  0  0  0
   -3.5350    0.4119   -1.3204 C   0  0  0  0  0  0  0  0  0  0  0  0
   -2.5801   -0.2293   -0.3652 C   0  0  0  0  0  0  0  0  0  0  0  0
   -3.0778   -0.2742    1.0567 C   0  0  0  0  0  0  0  0  0  0  0  0
   -4.4155   -0.9481    1.1137 C   0  0  0  0  0  0  0  0  0  0  0  0
   -4.4053   -2.3614    0.6104 C   0  0  0  0  0  0  0  0  0  0  0  0
    5.9729    1.0856    1.0029 H   0  0  0  0  0  0  0  0  0  0  0  0
    6.8160   -0.4877    1.3973 H   0  0  0  0  0  0  0  0  0  0  0  0
    5.0998   -0.1583    1.9720 H   0  0  0  0  0  0  0  0  0  0  0  0
    3.6267    0.0060   -1.3270 H   0  0  0  0  0  0  0  0  0  0  0  0
    2.8169    1.9934    0.5194 H   0  0  0  0  0  0  0  0  0  0  0  0
    5.9358   -0.1494   -0.9518 H   0  0  0  0  0  0  0  0  0  0  0  0
    6.0485   -2.3758   -0.8766 H   0  0  0  0  0  0  0  0  0  0  0  0
    5.5240   -2.4055    0.8698 H   0  0  0  0  0  0  0  0  0  0  0  0
    4.2887   -2.4384   -0.4911 H   0  0  0  0  0  0  0  0  0  0  0  0
    3.1331   -0.0933    1.6096 H   0  0  0  0  0  0  0  0  0  0  0  0
    2.6984   -1.3902    0.4915 H   0  0  0  0  0  0  0  0  0  0  0  0
    1.4683    0.0065   -0.9409 H   0  0  0  0  0  0  0  0  0  0  0  0
    0.4855   -0.9764    1.1328 H   0  0  0  0  0  0  0  0  0  0  0  0
    0.8563    0.5119    2.0090 H   0  0  0  0  0  0  0  0  0  0  0  0
   -0.5684   -0.2462   -1.0418 H   0  0  0  0  0  0  0  0  0  0  0  0
   -0.3889    2.3240   -1.2013 H   0  0  0  0  0  0  0  0  0  0  0  0
   -1.4286    1.5202   -2.3926 H   0  0  0  0  0  0  0  0  0  0  0  0
   -2.4560    3.4657   -1.5749 H   0  0  0  0  0  0  0  0  0  0  0  0
   -2.3288    3.0117    0.1381 H   0  0  0  0  0  0  0  0  0  0  0  0
   -4.3302    2.2699   -1.9374 H   0  0  0  0  0  0  0  0  0  0  0  0
   -4.3807    2.0694   -0.1724 H   0  0  0  0  0  0  0  0  0  0  0  0
   -4.5139   -0.1141   -1.3761 H   0  0  0  0  0  0  0  0  0  0  0  0
   -3.0860    0.3405   -2.3328 H   0  0  0  0  0  0  0  0  0  0  0  0
   -2.4851   -1.2912   -0.6742 H   0  0  0  0  0  0  0  0  0  0  0  0
   -2.3662   -0.9266    1.6264 H   0  0  0  0  0  0  0  0  0  0  0  0
   -3.1084    0.6830    1.5670 H   0  0  0  0  0  0  0  0  0  0  0  0
   -5.2155   -0.3936    0.6001 H   0  0  0  0  0  0  0  0  0  0  0  0
   -4.7484   -1.0109    2.1915 H   0  0  0  0  0  0  0  0  0  0  0  0
   -3.6831   -2.9930    1.1267 H   0  0  0  0  0  0  0  0  0  0  0  0
   -5.4275   -2.7755    0.8224 H   0  0  0  0  0  0  0  0  0  0  0  0
   -4.2967   -2.4329   -0.4908 H   0  0  0  0  0  0  0  0  0  0  0  0
  1  4  1  0
  2  4  1  0
  4  6  1  0
  2  7  1  0
  3  8  1  0
  7  8  1  0
  5  9  1  0
  8  9  1  0
  5 10  1  0
 10 11  1  0
 11 12  1  0
 12 13  1  0
 13 14  1  0
 10 15  1  0
 14 15  1  0
 15 16  1  0
 16 17  1  0
 17 18  1  0
  1 19  1  0
  1 20  1  0
  1 21  1  0
  2 22  1  0
  3 23  1  0
  4 24  1  0
  6 25  1  0
  6 26  1  0
  6 27  1  0
  7 28  1  0
  7 29  1  0
  8 30  1  6
  9 31  1  0
  9 32  1  0
 10 33  1  0
 11 34  1  0
 11 35  1  0
 12 36  1  0
 12 37  1  0
 13 38  1  0
 13 39  1  0
 14 40  1  0
 14 41  1  0
 15 42  1  0
 16 43  1  0
 16 44  1  0
 17 45  1  0
 17 46  1  0
 18 47  1  0
 18 48  1  0
 18 49  1  0
M  END
>  <PDBID>  (1) 
3NYA

>  <PDB ID>  (1) 
3NYA

>  <Generic Name>  (1) 
Alprenolol

>  <Brand Name>  (1) 
Apllobal#Aptin#Aptine#Aptol Duriles#Atenenol#Elp#Gubernal#Regletin#Skajilol#Yobir

>  <DrugBank ID>  (1) 
DB00866

>  <ATC Codes>  (1) 
C07AA01

>  <Ligand ID>  (1) 
JTZ

>  <Target Name>  (1) 
Beta-1 adrenergic receptor

>  <UniProt ID>  (1) 
P08588

>  <PDB ID.1>  (1) 
3NYA

>  <Seq. Identity>  (1) 
67%

$$$$
