PDB_DB00730_06
     RDKit          3D

 33 35  0  0  0  0  0  0  0  0999 V2000
   -1.1199    0.7028    0.8803 C   0  0  0  0  0  0  0  0  0  0  0  0
    0.2999    0.9072    0.5520 N   0  0  0  0  0  0  0  0  0  0  0  0
    0.7421   -0.2872   -0.0875 C   0  0  0  0  0  0  0  0  0  0  0  0
    2.2175   -0.4791   -0.0353 C   0  0  0  0  0  0  0  0  0  0  0  0
    2.7690   -0.5595    1.3755 C   0  0  0  0  0  0  0  0  0  0  0  0
    4.5571   -0.4735    0.9244 S   0  0  0  0  0  0  0  0  0  0  0  0
    4.3106    0.2051   -0.7693 C   0  0  0  0  0  0  0  0  0  0  0  0
    2.9129    0.6205   -0.6551 N   0  0  0  0  0  0  0  0  0  0  0  0
    0.0825   -1.3246    0.7028 N   0  0  0  0  0  0  0  0  0  0  0  0
   -1.2498   -0.7641    0.8373 C   0  0  0  0  0  0  0  0  0  0  0  0
   -2.1111   -1.2781   -0.2953 C   0  0  0  0  0  0  0  0  0  0  0  0
   -3.4444   -0.5690   -0.1293 C   0  0  0  0  0  0  0  0  0  0  0  0
   -3.2451    0.8658   -0.4790 C   0  0  0  0  0  0  0  0  0  0  0  0
   -1.9875    1.4827   -0.0363 C   0  0  0  0  0  0  0  0  0  0  0  0
   -1.2284    1.0525    1.9284 H   0  0  0  0  0  0  0  0  0  0  0  0
    0.4500    1.7776    0.0125 H   0  0  0  0  0  0  0  0  0  0  0  0
    0.4313   -0.3404   -1.1493 H   0  0  0  0  0  0  0  0  0  0  0  0
    2.5256   -1.4143   -0.5443 H   0  0  0  0  0  0  0  0  0  0  0  0
    2.5414   -1.5041    1.8679 H   0  0  0  0  0  0  0  0  0  0  0  0
    2.5732    0.3396    1.9671 H   0  0  0  0  0  0  0  0  0  0  0  0
    4.4151   -0.5731   -1.5238 H   0  0  0  0  0  0  0  0  0  0  0  0
    4.9551    1.0756   -0.8767 H   0  0  0  0  0  0  0  0  0  0  0  0
    2.8020    1.5055   -0.1477 H   0  0  0  0  0  0  0  0  0  0  0  0
    0.5199   -1.2689    1.6540 H   0  0  0  0  0  0  0  0  0  0  0  0
   -1.7418   -1.1379    1.7829 H   0  0  0  0  0  0  0  0  0  0  0  0
   -1.7087   -1.0495   -1.2877 H   0  0  0  0  0  0  0  0  0  0  0  0
   -2.1978   -2.3692   -0.1631 H   0  0  0  0  0  0  0  0  0  0  0  0
   -3.8384   -0.7366    0.8835 H   0  0  0  0  0  0  0  0  0  0  0  0
   -4.1454   -1.0277   -0.8544 H   0  0  0  0  0  0  0  0  0  0  0  0
   -3.3555    0.9477   -1.6011 H   0  0  0  0  0  0  0  0  0  0  0  0
   -4.1469    1.4272   -0.0902 H   0  0  0  0  0  0  0  0  0  0  0  0
   -1.3658    1.7702   -0.9293 H   0  0  0  0  0  0  0  0  0  0  0  0
   -2.2186    2.4771    0.4478 H   0  0  0  0  0  0  0  0  0  0  0  0
  1  2  1  0
  2  3  1  0
  3  4  1  0
  4  5  1  0
  5  6  1  0
  6  7  1  0
  4  8  1  0
  7  8  1  0
  3  9  1  0
  1 10  1  0
  9 10  1  0
 10 11  1  0
 11 12  1  0
 12 13  1  0
  1 14  1  0
 13 14  1  0
  1 15  1  0
  2 16  1  0
  3 17  1  0
  4 18  1  0
  5 19  1  0
  5 20  1  0
  7 21  1  0
  7 22  1  0
  8 23  1  0
  9 24  1  0
 10 25  1  0
 11 26  1  0
 11 27  1  0
 12 28  1  0
 12 29  1  0
 13 30  1  0
 13 31  1  0
 14 32  1  0
 14 33  1  0
M  END
>  <PDBID>  (1) 
3SFE

>  <PDB ID>  (1) 
3SFE

>  <Generic Name>  (1) 
Thiabendazole

>  <Brand Name>  (1) 
Mintezol Chewable Tab 500mg#Mintezol

>  <DrugBank ID>  (1) 
DB00730

>  <ATC Codes>  (1) 
D01AC06#P02CA02

>  <Ligand ID>  (1) 
TMG

>  <Target Name>  (1) 
Fumarate reductase flavoprotein subunit

>  <UniProt ID>  (1) 
P00363

>  <PDB ID.1>  (1) 
3SFE

>  <Seq. Identity>  (1) 
38%

$$$$
