PDB_DB04787_03
     RDKit          3D

104108  0  0  0  0  0  0  0  0999 V2000
   -2.8618   -2.0929   -1.2808 C   0  0  0  0  0  0  0  0  0  0  0  0
   -3.0780   -0.9259   -0.3282 C   0  0  0  0  0  0  0  0  0  0  0  0
   -2.0069    0.1003   -0.5245 C   0  0  2  0  0  0  0  0  0  0  0  0
   -0.6122   -0.4671   -0.2545 C   0  0  0  0  0  0  0  0  0  0  0  0
    0.3472    0.6491   -0.4494 C   0  0  1  0  0  0  0  0  0  0  0  0
    0.0873    1.6801    0.6439 C   0  0  0  0  0  0  0  0  0  0  0  0
   -1.2376    2.3488    0.2793 C   0  0  0  0  0  0  0  0  0  0  0  0
   -2.3230    1.2998    0.2980 C   0  0  0  0  0  0  0  0  0  0  0  0
   -3.5634    1.8499   -0.2179 N   0  0  0  0  0  0  0  0  0  0  0  0
   -4.5781    0.8139   -0.0268 C   0  0  0  0  0  0  0  0  0  0  0  0
   -6.1230    1.4766   -0.7159 S   0  0  0  0  0  0  0  0  0  0  0  0
   -4.2891   -0.3525   -0.6793 O   0  0  0  0  0  0  0  0  0  0  0  0
    1.7767    0.3127   -0.6009 C   0  0  2  0  0  0  0  0  0  0  0  0
    2.0508   -0.5553   -1.8038 C   0  0  0  0  0  0  0  0  0  0  0  0
    3.4063   -1.1458   -1.4837 C   0  0  0  0  0  0  0  0  0  0  0  0
    3.3203   -1.3270    0.0220 C   0  0  0  0  0  0  0  0  0  0  0  0
    2.3794   -0.3730    0.5074 N   0  0  0  0  0  0  0  0  0  0  0  0
    2.9653    0.5855    1.4197 C   0  0  0  0  0  0  0  0  0  0  0  0
    4.7097   -1.2094    0.5635 C   0  0  0  0  0  0  0  0  0  0  0  0
    5.2991    0.0822    0.2677 N   0  0  0  0  0  0  0  0  0  0  0  0
   -3.1276   -1.4871    1.0646 C   0  0  0  0  0  0  0  0  0  0  0  0
   -2.7203   -2.2579    0.5989 C   0  0  0  0  0  0  0  0  0  0  0  0
   -3.0338   -0.7556    0.6020 C   0  0  0  0  0  0  0  0  0  0  0  0
   -1.9835   -0.0724   -0.2313 C   0  0  0  0  0  0  0  0  0  0  0  0
   -0.5932   -0.1962    0.4025 C   0  0  0  0  0  0  0  0  0  0  0  0
    0.3537    0.4889   -0.5211 C   0  0  1  0  0  0  0  0  0  0  0  0
   -0.0055    1.9805   -0.5032 C   0  0  0  0  0  0  0  0  0  0  0  0
   -1.3215    2.1064   -1.2409 C   0  0  0  0  0  0  0  0  0  0  0  0
   -2.3708    1.3715   -0.4356 C   0  0  0  0  0  0  0  0  0  0  0  0
   -3.6240    1.3721   -1.1682 N   0  0  0  0  0  0  0  0  0  0  0  0
   -4.5964    0.7008   -0.2931 C   0  0  0  0  0  0  0  0  0  0  0  0
   -6.1678    0.6696   -1.2183 S   0  0  0  0  0  0  0  0  0  0  0  0
   -4.2485   -0.5970   -0.0191 O   0  0  0  0  0  0  0  0  0  0  0  0
    1.7996    0.3423   -0.1711 C   0  0  2  0  0  0  0  0  0  0  0  0
    2.6275    1.0799   -1.1942 C   0  0  0  0  0  0  0  0  0  0  0  0
    3.5737    0.0456   -1.7516 C   0  0  0  0  0  0  0  0  0  0  0  0
    3.4175   -1.1773   -0.8872 C   0  0  0  0  0  0  0  0  0  0  0  0
    2.2614   -0.9980   -0.0777 N   0  0  0  0  0  0  0  0  0  0  0  0
    2.4951   -1.4257    1.2775 C   0  0  0  0  0  0  0  0  0  0  0  0
    4.7017   -1.4086   -0.1688 C   0  0  0  0  0  0  0  0  0  0  0  0
    5.0866   -0.2958    0.6801 N   0  0  0  0  0  0  0  0  0  0  0  0
   -3.0587   -0.3017    2.0275 C   0  0  0  0  0  0  0  0  0  0  0  0
   -2.1014   -2.7894   -0.9244 H   0  0  0  0  0  0  0  0  0  0  0  0
   -2.6431   -1.6923   -2.3015 H   0  0  0  0  0  0  0  0  0  0  0  0
   -3.8475   -2.6215   -1.3666 H   0  0  0  0  0  0  0  0  0  0  0  0
   -2.0096    0.3950   -1.5877 H   0  0  0  0  0  0  0  0  0  0  0  0
   -0.6583   -0.8434    0.7924 H   0  0  0  0  0  0  0  0  0  0  0  0
   -0.4599   -1.2788   -0.9616 H   0  0  0  0  0  0  0  0  0  0  0  0
    0.0263    1.1708   -1.4024 H   0  0  0  0  0  0  0  0  0  0  0  0
   -0.1249    1.1200    1.5969 H   0  0  0  0  0  0  0  0  0  0  0  0
    0.8784    2.4225    0.7341 H   0  0  0  0  0  0  0  0  0  0  0  0
   -1.1207    2.7416   -0.7446 H   0  0  0  0  0  0  0  0  0  0  0  0
   -1.5075    3.1218    1.0211 H   0  0  0  0  0  0  0  0  0  0  0  0
   -2.5141    1.0640    1.3714 H   0  0  0  0  0  0  0  0  0  0  0  0
   -3.8865    2.6858    0.2839 H   0  0  0  0  0  0  0  0  0  0  0  0
   -4.7063    0.6939    1.0689 H   0  0  0  0  0  0  0  0  0  0  0  0
   -6.1123    2.8798   -0.7102 H   0  0  0  0  0  0  0  0  0  0  0  0
    2.3606    1.2691   -0.7484 H   0  0  0  0  0  0  0  0  0  0  0  0
    1.3299   -1.3804   -1.8543 H   0  0  0  0  0  0  0  0  0  0  0  0
    2.0656    0.0799   -2.7133 H   0  0  0  0  0  0  0  0  0  0  0  0
    3.5926   -2.0775   -2.0183 H   0  0  0  0  0  0  0  0  0  0  0  0
    4.1673   -0.4066   -1.7808 H   0  0  0  0  0  0  0  0  0  0  0  0
    2.9744   -2.3808    0.1766 H   0  0  0  0  0  0  0  0  0  0  0  0
    2.2069    0.9912    2.1241 H   0  0  0  0  0  0  0  0  0  0  0  0
    3.3591    1.4863    0.8678 H   0  0  0  0  0  0  0  0  0  0  0  0
    3.7492    0.1413    2.0693 H   0  0  0  0  0  0  0  0  0  0  0  0
    5.3302   -1.9494   -0.0260 H   0  0  0  0  0  0  0  0  0  0  0  0
    4.8299   -1.5178    1.6095 H   0  0  0  0  0  0  0  0  0  0  0  0
    6.0126    0.3305    0.9917 H   0  0  0  0  0  0  0  0  0  0  0  0
    5.8094    0.0780   -0.6605 H   0  0  0  0  0  0  0  0  0  0  0  0
   -2.2238   -2.0433    1.3123 H   0  0  0  0  0  0  0  0  0  0  0  0
   -3.9733   -2.2146    1.0893 H   0  0  0  0  0  0  0  0  0  0  0  0
   -3.3449   -0.7387    1.8417 H   0  0  0  0  0  0  0  0  0  0  0  0
   -1.9807   -2.5242    1.3592 H   0  0  0  0  0  0  0  0  0  0  0  0
   -2.4660   -2.5681   -0.4260 H   0  0  0  0  0  0  0  0  0  0  0  0
   -3.6783   -2.7666    0.8531 H   0  0  0  0  0  0  0  0  0  0  0  0
   -1.9442   -0.5507   -1.2089 H   0  0  0  0  0  0  0  0  0  0  0  0
   -0.6886    0.2862    1.3968 H   0  0  0  0  0  0  0  0  0  0  0  0
   -0.3958   -1.2864    0.4731 H   0  0  0  0  0  0  0  0  0  0  0  0
    0.1455    0.1439   -1.5543 H   0  0  0  0  0  0  0  0  0  0  0  0
   -0.2405    2.2353    0.5713 H   0  0  0  0  0  0  0  0  0  0  0  0
    0.7905    2.6058   -0.9070 H   0  0  0  0  0  0  0  0  0  0  0  0
   -1.2189    1.5990   -2.2143 H   0  0  0  0  0  0  0  0  0  0  0  0
   -1.6515    3.1557   -1.3297 H   0  0  0  0  0  0  0  0  0  0  0  0
   -2.5032    1.9236    0.5102 H   0  0  0  0  0  0  0  0  0  0  0  0
   -3.4847    0.7158   -1.9903 H   0  0  0  0  0  0  0  0  0  0  0  0
   -4.7646    1.3283    0.6085 H   0  0  0  0  0  0  0  0  0  0  0  0
   -6.7934    1.9159   -1.1668 H   0  0  0  0  0  0  0  0  0  0  0  0
    1.9987    0.8524    0.8088 H   0  0  0  0  0  0  0  0  0  0  0  0
    1.9611    1.3714   -2.0295 H   0  0  0  0  0  0  0  0  0  0  0  0
    3.1677    1.9499   -0.7667 H   0  0  0  0  0  0  0  0  0  0  0  0
    3.3973   -0.1635   -2.8249 H   0  0  0  0  0  0  0  0  0  0  0  0
    4.6026    0.4763   -1.6860 H   0  0  0  0  0  0  0  0  0  0  0  0
    3.2634   -2.0393   -1.5814 H   0  0  0  0  0  0  0  0  0  0  0  0
    1.5430   -1.5515    1.8538 H   0  0  0  0  0  0  0  0  0  0  0  0
    3.0676   -0.6605    1.8774 H   0  0  0  0  0  0  0  0  0  0  0  0
    2.9770   -2.4174    1.2944 H   0  0  0  0  0  0  0  0  0  0  0  0
    5.5014   -1.4527   -0.9672 H   0  0  0  0  0  0  0  0  0  0  0  0
    4.7772   -2.3877    0.3451 H   0  0  0  0  0  0  0  0  0  0  0  0
    5.6955   -0.6691    1.4532 H   0  0  0  0  0  0  0  0  0  0  0  0
    5.6722    0.4074    0.1736 H   0  0  0  0  0  0  0  0  0  0  0  0
   -2.2440   -0.7626    2.6209 H   0  0  0  0  0  0  0  0  0  0  0  0
   -4.0497   -0.6346    2.4535 H   0  0  0  0  0  0  0  0  0  0  0  0
   -3.0494    0.7967    2.1439 H   0  0  0  0  0  0  0  0  0  0  0  0
  2  1  1  0
  2  3  1  0
  3  4  1  0
  4  5  1  0
  5  6  1  0
  6  7  1  0
  3  8  1  0
  7  8  1  0
  8  9  1  0
  9 10  1  0
 10 11  1  0
  2 12  1  0
 10 12  1  0
  5 13  1  0
 13 14  1  0
 14 15  1  0
 15 16  1  0
 13 17  1  0
 16 17  1  0
 17 18  1  0
 16 19  1  0
 19 20  1  0
  2 21  1  0
 23 22  1  0
 23 24  1  0
 24 25  1  0
 25 26  1  0
 26 27  1  0
 27 28  1  0
 24 29  1  0
 28 29  1  0
 29 30  1  0
 30 31  1  0
 31 32  1  0
 23 33  1  0
 31 33  1  0
 26 34  1  0
 34 35  1  0
 35 36  1  0
 36 37  1  0
 34 38  1  0
 37 38  1  0
 38 39  1  0
 37 40  1  0
 40 41  1  0
 23 42  1  0
  1 43  1  0
  1 44  1  0
  1 45  1  0
  3 46  1  6
  4 47  1  0
  4 48  1  0
  5 49  1  6
  6 50  1  0
  6 51  1  0
  7 52  1  0
  7 53  1  0
  8 54  1  0
  9 55  1  0
 10 56  1  0
 11 57  1  0
 13 58  1  6
 14 59  1  0
 14 60  1  0
 15 61  1  0
 15 62  1  0
 16 63  1  0
 18 64  1  0
 18 65  1  0
 18 66  1  0
 19 67  1  0
 19 68  1  0
 20 69  1  0
 20 70  1  0
 21 71  1  0
 21 72  1  0
 21 73  1  0
 22 74  1  0
 22 75  1  0
 22 76  1  0
 24 77  1  0
 25 78  1  0
 25 79  1  0
 26 80  1  6
 27 81  1  0
 27 82  1  0
 28 83  1  0
 28 84  1  0
 29 85  1  0
 30 86  1  0
 31 87  1  0
 32 88  1  0
 34 89  1  1
 35 90  1  0
 35 91  1  0
 36 92  1  0
 36 93  1  0
 37 94  1  0
 39 95  1  0
 39 96  1  0
 39 97  1  0
 40 98  1  0
 40 99  1  0
 41100  1  0
 41101  1  0
 42102  1  0
 42103  1  0
 42104  1  0
M  END
>  <PDBID>  (1) 
1ZUC

>  <PDB ID>  (1) 
1ZUC

>  <Generic Name>  (1) 
Tanaproget

>  <Brand Name>  (1) 
nan

>  <DrugBank ID>  (1) 
DB04787

>  <ATC Codes>  (1) 
nan

>  <Ligand ID>  (1) 
T98

>  <Target Name>  (1) 
Progesterone receptor

>  <UniProt ID>  (1) 
P06401

>  <PDB ID.1>  (1) 
1ZUC

>  <Seq. Identity>  (1) 
97%

$$$$
