PDB_DB09324_07
     RDKit          3D

 32 33  0  0  0  0  0  0  0  0999 V2000
   -1.7630   -0.1335   -1.5278 C   0  0  0  0  0  0  0  0  0  0  0  0
   -0.9881   -0.5078   -0.2919 C   0  0  0  0  0  0  0  0  0  0  0  0
   -1.9775   -1.1340    0.6698 C   0  0  0  0  0  0  0  0  0  0  0  0
    0.2958   -1.6300   -0.6155 S   0  0  0  0  0  0  0  0  0  0  0  0
    0.3090   -2.2453   -2.3969 O   0  0  0  0  0  0  0  0  0  0  0  0
    0.3623   -3.1239    0.3390 O   0  0  0  0  0  0  0  0  0  0  0  0
    1.6495   -0.5720   -0.2900 C   0  0  2  0  0  0  0  0  0  0  0  0
    2.2560   -0.7095    1.0665 C   0  0  0  0  0  0  0  0  0  0  0  0
    1.9383    0.7571    1.2520 C   0  0  0  0  0  0  0  0  0  0  0  0
    2.9826    1.6187    0.9926 O   0  0  0  0  0  0  0  0  0  0  0  0
    1.0790    0.6604    0.0604 N   0  0  0  0  0  0  0  0  0  0  0  0
   -0.2733    0.6289    0.3480 C   0  0  1  0  0  0  0  0  0  0  0  0
   -0.8935    1.9792   -0.0428 C   0  0  0  0  0  0  0  0  0  0  0  0
   -0.3005    3.0180    0.6654 O   0  0  0  0  0  0  0  0  0  0  0  0
   -0.6610    2.2425   -1.4001 O   0  0  0  0  0  0  0  0  0  0  0  0
   -2.4339    0.7224   -1.3231 H   0  0  0  0  0  0  0  0  0  0  0  0
   -2.4104   -1.0119   -1.7796 H   0  0  0  0  0  0  0  0  0  0  0  0
   -1.1144    0.0336   -2.4097 H   0  0  0  0  0  0  0  0  0  0  0  0
   -2.3549   -0.3804    1.4006 H   0  0  0  0  0  0  0  0  0  0  0  0
   -2.7980   -1.6498    0.1392 H   0  0  0  0  0  0  0  0  0  0  0  0
   -1.4302   -1.8999    1.2544 H   0  0  0  0  0  0  0  0  0  0  0  0
    0.3130   -1.3805   -2.8534 H   0  0  0  0  0  0  0  0  0  0  0  0
   -0.5254   -3.5432    0.2379 H   0  0  0  0  0  0  0  0  0  0  0  0
    2.4314   -0.5378   -1.0711 H   0  0  0  0  0  0  0  0  0  0  0  0
    1.6866   -1.4014    1.7344 H   0  0  0  0  0  0  0  0  0  0  0  0
    3.3422   -0.8842    1.0952 H   0  0  0  0  0  0  0  0  0  0  0  0
    1.3518    0.9293    2.1554 H   0  0  0  0  0  0  0  0  0  0  0  0
    3.8790    1.1847    1.0329 H   0  0  0  0  0  0  0  0  0  0  0  0
   -0.4342    0.5563    1.4543 H   0  0  0  0  0  0  0  0  0  0  0  0
   -1.9722    2.0101    0.1886 H   0  0  0  0  0  0  0  0  0  0  0  0
   -0.8292    3.2056    1.4851 H   0  0  0  0  0  0  0  0  0  0  0  0
   -0.7165    3.1985   -1.5697 H   0  0  0  0  0  0  0  0  0  0  0  0
  2  1  1  0
  2  3  1  0
  2  4  1  0
  4  5  1  0
  4  6  1  0
  4  7  1  0
  7  8  1  0
  8  9  1  0
  9 10  1  0
  7 11  1  0
  9 11  1  0
  2 12  1  0
 11 12  1  0
 12 13  1  0
 13 14  1  0
 13 15  1  0
  1 16  1  0
  1 17  1  0
  1 18  1  0
  3 19  1  0
  3 20  1  0
  3 21  1  0
  5 22  1  0
  6 23  1  0
  7 24  1  6
  8 25  1  0
  8 26  1  0
  9 27  1  0
 10 28  1  0
 12 29  1  1
 13 30  1  0
 14 31  1  0
 15 32  1  0
M  END
>  <PDBID>  (1) 
4FH2

>  <PDB ID>  (1) 
4FH2

>  <Generic Name>  (1) 
Sulbactam

>  <Brand Name>  (1) 
Ampicillin Sodium and Sulbactam Sodium#Ampicillin and Sulbactam#Unasyn

>  <DrugBank ID>  (1) 
DB09324

>  <ATC Codes>  (1) 
J01CG01

>  <Ligand ID>  (1) 
0RN

>  <Target Name>  (1) 
Beta-lactamase

>  <UniProt ID>  (1) 
P00807

>  <PDB ID.1>  (1) 
4FH2

>  <Seq. Identity>  (1) 
31%

$$$$
