PDB_DB00685_09
     RDKit          3D

124132  0  0  0  0  0  0  0  0999 V2000
   -1.2501    2.2689   -0.3147 C   0  0  0  0  0  0  0  0  0  0  0  0
   -2.0586    3.5569   -0.3563 C   0  0  0  0  0  0  0  0  0  0  0  0
   -3.4427    3.2734   -0.8609 C   0  0  0  0  0  0  0  0  0  0  0  0
   -4.1449    4.4804   -0.9123 F   0  0  0  0  0  0  0  0  0  0  0  0
   -4.1114    2.2610    0.0058 C   0  0  0  0  0  0  0  0  0  0  0  0
   -3.2197    1.6242    1.0144 C   0  0  0  0  0  0  0  0  0  0  0  0
   -3.0166    2.5801    2.0193 F   0  0  0  0  0  0  0  0  0  0  0  0
   -1.8753    1.1976    0.5301 C   0  0  0  0  0  0  0  0  0  0  0  0
   -1.7603   -0.0730   -0.0204 N   0  0  0  0  0  0  0  0  0  0  0  0
   -0.4631   -0.6633   -0.1746 C   0  0  0  0  0  0  0  0  0  0  0  0
    0.5629    0.2649   -0.0382 N   0  0  0  0  0  0  0  0  0  0  0  0
    1.7716   -0.0748    0.6428 C   0  0  0  0  0  0  0  0  0  0  0  0
    2.8448   -0.4646   -0.2737 N   0  0  0  0  0  0  0  0  0  0  0  0
    3.0775    0.5066   -1.2966 C   0  0  0  0  0  0  0  0  0  0  0  0
    4.5726    0.5586   -1.5307 C   0  0  1  0  0  0  0  0  0  0  0  0
    5.3143    1.3541   -0.4815 C   0  0  0  0  0  0  0  0  0  0  0  0
    6.5870    1.9410   -0.8458 N   0  0  0  0  0  0  0  0  0  0  0  0
    5.1907   -0.1455   -0.3903 C   0  0  1  0  0  0  0  0  0  0  0  0
    4.0425   -0.6033    0.4980 C   0  0  0  0  0  0  0  0  0  0  0  0
    1.5689   -1.0961    1.6863 C   0  0  0  0  0  0  0  0  0  0  0  0
    0.9548   -2.3225    1.0019 C   0  0  0  0  0  0  0  0  0  0  0  0
   -0.4505   -1.8924    0.6917 C   0  0  0  0  0  0  0  0  0  0  0  0
   -1.2749   -2.9556   -0.0019 C   0  0  0  0  0  0  0  0  0  0  0  0
   -2.3974   -2.2624   -0.7405 C   0  0  0  0  0  0  0  0  0  0  0  0
   -2.8380   -0.9723   -0.0467 C   0  0  0  0  0  0  0  0  0  0  0  0
   -3.6043   -3.2059   -0.6710 C   0  0  0  0  0  0  0  0  0  0  0  0
   -3.8784   -3.3752    0.6850 O   0  0  0  0  0  0  0  0  0  0  0  0
   -4.6875   -2.6610   -1.3610 O   0  0  0  0  0  0  0  0  0  0  0  0
   -0.4824   -3.5752   -0.9645 O   0  0  0  0  0  0  0  0  0  0  0  0
    2.6713   -1.4276    2.4115 F   0  0  0  0  0  0  0  0  0  0  0  0
   -0.2419    2.5816    0.0147 H   0  0  0  0  0  0  0  0  0  0  0  0
   -1.9956    4.1570    0.5489 H   0  0  0  0  0  0  0  0  0  0  0  0
   -4.9005    2.8229    0.5923 H   0  0  0  0  0  0  0  0  0  0  0  0
    2.6272    0.1105   -2.2466 H   0  0  0  0  0  0  0  0  0  0  0  0
    2.7599    1.5284   -1.0614 H   0  0  0  0  0  0  0  0  0  0  0  0
    4.9847    0.5564   -2.5407 H   0  0  0  0  0  0  0  0  0  0  0  0
    4.7275    1.9948    0.2330 H   0  0  0  0  0  0  0  0  0  0  0  0
    6.3906    2.9220   -1.1317 H   0  0  0  0  0  0  0  0  0  0  0  0
    7.2559    1.9755   -0.0562 H   0  0  0  0  0  0  0  0  0  0  0  0
    6.0790   -0.7784   -0.4897 H   0  0  0  0  0  0  0  0  0  0  0  0
    4.2753   -1.6617    0.7654 H   0  0  0  0  0  0  0  0  0  0  0  0
    4.0520    0.0811    1.3701 H   0  0  0  0  0  0  0  0  0  0  0  0
    1.5315   -2.5163    0.0704 H   0  0  0  0  0  0  0  0  0  0  0  0
   -3.2504   -1.2797    0.9207 H   0  0  0  0  0  0  0  0  0  0  0  0
   -1.2196    2.2416   -0.2680 C   0  0  0  0  0  0  0  0  0  0  0  0
   -1.9988    3.5536   -0.3012 C   0  0  0  0  0  0  0  0  0  0  0  0
   -3.3368    3.3375   -0.9408 C   0  0  0  0  0  0  0  0  0  0  0  0
   -4.0436    4.5467   -0.8840 F   0  0  0  0  0  0  0  0  0  0  0  0
   -4.0767    2.2256   -0.2422 C   0  0  0  0  0  0  0  0  0  0  0  0
   -3.3073    1.6088    0.8732 C   0  0  0  0  0  0  0  0  0  0  0  0
   -3.1988    2.5662    1.8784 F   0  0  0  0  0  0  0  0  0  0  0  0
   -1.9217    1.1743    0.5212 C   0  0  0  0  0  0  0  0  0  0  0  0
   -1.7722   -0.0870   -0.0447 N   0  0  0  0  0  0  0  0  0  0  0  0
   -0.4586   -0.6686   -0.1138 C   0  0  0  0  0  0  0  0  0  0  0  0
    0.5450    0.2918    0.0321 N   0  0  0  0  0  0  0  0  0  0  0  0
    1.7578   -0.0440    0.7085 C   0  0  0  0  0  0  0  0  0  0  0  0
    2.8113   -0.4711   -0.2261 N   0  0  0  0  0  0  0  0  0  0  0  0
    3.0107    0.4762   -1.2746 C   0  0  0  0  0  0  0  0  0  0  0  0
    4.5084    0.5166   -1.5533 C   0  0  1  0  0  0  0  0  0  0  0  0
    5.2727    1.3516   -0.5371 C   0  0  0  0  0  0  0  0  0  0  0  0
    6.5476    1.9107   -0.9334 N   0  0  0  0  0  0  0  0  0  0  0  0
    5.1506   -0.1490   -0.4109 C   0  0  1  0  0  0  0  0  0  0  0  0
    4.0215   -0.5759    0.5322 C   0  0  0  0  0  0  0  0  0  0  0  0
    1.5812   -1.0414    1.7888 C   0  0  0  0  0  0  0  0  0  0  0  0
    0.9559   -2.2791    1.1452 C   0  0  0  0  0  0  0  0  0  0  0  0
   -0.4559   -1.8392    0.8319 C   0  0  0  0  0  0  0  0  0  0  0  0
   -1.2511   -2.9528    0.1857 C   0  0  0  0  0  0  0  0  0  0  0  0
   -2.3229   -2.3189   -0.6581 C   0  0  0  0  0  0  0  0  0  0  0  0
   -2.7976   -1.0460    0.0373 C   0  0  0  0  0  0  0  0  0  0  0  0
   -3.5175   -3.2702   -0.6504 C   0  0  0  0  0  0  0  0  0  0  0  0
   -3.1737   -4.5129   -1.1760 O   0  0  0  0  0  0  0  0  0  0  0  0
   -4.5728   -2.7176   -1.3937 O   0  0  0  0  0  0  0  0  0  0  0  0
   -0.4048   -3.7648   -0.5574 O   0  0  0  0  0  0  0  0  0  0  0  0
    2.7042   -1.3391    2.4902 F   0  0  0  0  0  0  0  0  0  0  0  0
   -0.2261    2.5235    0.1351 H   0  0  0  0  0  0  0  0  0  0  0  0
   -2.0111    4.0855    0.6470 H   0  0  0  0  0  0  0  0  0  0  0  0
   -4.9973    2.6878    0.2082 H   0  0  0  0  0  0  0  0  0  0  0  0
    2.5151    0.1377   -2.2055 H   0  0  0  0  0  0  0  0  0  0  0  0
    2.7371    1.5208   -1.0050 H   0  0  0  0  0  0  0  0  0  0  0  0
    4.8748    0.4613   -2.5809 H   0  0  0  0  0  0  0  0  0  0  0  0
    4.7070    2.0058    0.1516 H   0  0  0  0  0  0  0  0  0  0  0  0
    6.3599    2.9128   -1.1855 H   0  0  0  0  0  0  0  0  0  0  0  0
    7.2080    1.9469   -0.1235 H   0  0  0  0  0  0  0  0  0  0  0  0
    6.0510   -0.7590   -0.4676 H   0  0  0  0  0  0  0  0  0  0  0  0
    4.2595   -1.6253    0.8257 H   0  0  0  0  0  0  0  0  0  0  0  0
    4.0825    0.1304    1.3869 H   0  0  0  0  0  0  0  0  0  0  0  0
    1.5097   -2.4733    0.2023 H   0  0  0  0  0  0  0  0  0  0  0  0
   -3.0842   -1.3697    1.0621 H   0  0  0  0  0  0  0  0  0  0  0  0
   -1.1989    1.9197   -1.3671 H   0  0  0  0  0  0  0  0  0  0  0  0
   -1.5640    4.1740   -1.1669 H   0  0  0  0  0  0  0  0  0  0  0  0
   -3.3511    2.9215   -1.9122 H   0  0  0  0  0  0  0  0  0  0  0  0
   -4.6901    1.5762   -0.6305 H   0  0  0  0  0  0  0  0  0  0  0  0
   -3.7900    0.8148    1.5182 H   0  0  0  0  0  0  0  0  0  0  0  0
   -1.2226    1.1880    1.4759 H   0  0  0  0  0  0  0  0  0  0  0  0
   -0.4435   -1.0586   -1.2394 H   0  0  0  0  0  0  0  0  0  0  0  0
    0.7543    0.6811   -0.9899 H   0  0  0  0  0  0  0  0  0  0  0  0
    2.1449    0.8594    1.1364 H   0  0  0  0  0  0  0  0  0  0  0  0
    0.7986   -0.7328    2.4048 H   0  0  0  0  0  0  0  0  0  0  0  0
    0.9820   -3.1337    1.7347 H   0  0  0  0  0  0  0  0  0  0  0  0
   -0.9522   -1.7176    1.6743 H   0  0  0  0  0  0  0  0  0  0  0  0
   -1.6255   -3.7171    0.7102 H   0  0  0  0  0  0  0  0  0  0  0  0
   -2.1369   -2.0334   -1.7852 H   0  0  0  0  0  0  0  0  0  0  0  0
   -3.6264   -0.5611   -0.7390 H   0  0  0  0  0  0  0  0  0  0  0  0
   -3.3498   -4.1988   -1.0825 H   0  0  0  0  0  0  0  0  0  0  0  0
   -4.7713   -3.0189    0.8852 H   0  0  0  0  0  0  0  0  0  0  0  0
   -0.4553   -4.5536   -0.8614 H   0  0  0  0  0  0  0  0  0  0  0  0
   -1.1584    1.9185   -1.3274 H   0  0  0  0  0  0  0  0  0  0  0  0
   -1.4158    4.2077   -1.0154 H   0  0  0  0  0  0  0  0  0  0  0  0
   -3.1816    3.1412   -2.0202 H   0  0  0  0  0  0  0  0  0  0  0  0
   -4.4396    1.5258   -1.0076 H   0  0  0  0  0  0  0  0  0  0  0  0
   -3.9261    0.7984    1.3080 H   0  0  0  0  0  0  0  0  0  0  0  0
   -1.3596    1.1489    1.5128 H   0  0  0  0  0  0  0  0  0  0  0  0
   -0.3531   -1.1288   -1.1452 H   0  0  0  0  0  0  0  0  0  0  0  0
    0.7947    0.6601   -0.9416 H   0  0  0  0  0  0  0  0  0  0  0  0
    2.1516    0.8930    1.1678 H   0  0  0  0  0  0  0  0  0  0  0  0
    0.8309   -0.6575    2.5107 H   0  0  0  0  0  0  0  0  0  0  0  0
    0.9927   -3.1018    1.8557 H   0  0  0  0  0  0  0  0  0  0  0  0
   -0.9472   -1.5766    1.8042 H   0  0  0  0  0  0  0  0  0  0  0  0
   -1.7400   -3.5315    1.0104 H   0  0  0  0  0  0  0  0  0  0  0  0
   -2.0234   -2.1397   -1.7004 H   0  0  0  0  0  0  0  0  0  0  0  0
   -3.7031   -0.7276   -0.5600 H   0  0  0  0  0  0  0  0  0  0  0  0
   -3.8791   -3.4426    0.3861 H   0  0  0  0  0  0  0  0  0  0  0  0
   -5.1176   -2.1855   -0.7420 H   0  0  0  0  0  0  0  0  0  0  0  0
   -0.5477   -4.7114   -0.3459 H   0  0  0  0  0  0  0  0  0  0  0  0
  1  2  1  0
  2  3  1  0
  3  4  1  0
  3  5  1  0
  5  6  1  0
  6  7  1  0
  1  8  1  0
  6  8  1  0
  8  9  1  0
  9 10  1  0
 10 11  1  0
 11 12  1  0
 12 13  1  0
 13 14  1  0
 14 15  1  0
 15 16  1  0
 16 17  1  0
 15 18  1  0
 16 18  1  0
 13 19  1  0
 18 19  1  0
 12 20  1  0
 20 21  1  0
 10 22  1  0
 21 22  1  0
 22 23  1  0
 23 24  1  0
  9 25  1  0
 24 25  1  0
 24 26  1  0
 26 27  1  0
 26 28  1  0
 23 29  1  0
 20 30  1  0
  1 31  1  0
  2 32  1  0
  5 33  1  0
 14 34  1  0
 14 35  1  0
 15 36  1  6
 16 37  1  0
 17 38  1  0
 17 39  1  0
 18 40  1  6
 19 41  1  0
 19 42  1  0
 21 43  1  0
 25 44  1  0
 45 46  1  0
 46 47  1  0
 47 48  1  0
 47 49  1  0
 49 50  1  0
 50 51  1  0
 45 52  1  0
 50 52  1  0
 52 53  1  0
 53 54  1  0
 54 55  1  0
 55 56  1  0
 56 57  1  0
 57 58  1  0
 58 59  1  0
 59 60  1  0
 60 61  1  0
 59 62  1  0
 60 62  1  0
 57 63  1  0
 62 63  1  0
 56 64  1  0
 64 65  1  0
 54 66  1  0
 65 66  1  0
 66 67  1  0
 67 68  1  0
 53 69  1  0
 68 69  1  0
 68 70  1  0
 70 71  1  0
 70 72  1  0
 67 73  1  0
 64 74  1  0
 45 75  1  0
 46 76  1  0
 49 77  1  0
 58 78  1  0
 58 79  1  0
 59 80  1  6
 60 81  1  0
 61 82  1  0
 61 83  1  0
 62 84  1  6
 63 85  1  0
 63 86  1  0
 65 87  1  0
 69 88  1  0
  1 89  1  0
  2 90  1  0
  3 91  1  0
  5 92  1  0
  6 93  1  0
  8 94  1  0
 10 95  1  0
 11 96  1  0
 12 97  1  0
 20 98  1  0
 21 99  1  0
 22100  1  0
 23101  1  0
 24102  1  0
 25103  1  0
 26104  1  0
 27105  1  0
 29106  1  0
 45107  1  0
 46108  1  0
 47109  1  0
 49110  1  0
 50111  1  0
 52112  1  0
 54113  1  0
 55114  1  0
 56115  1  0
 64116  1  0
 65117  1  0
 66118  1  0
 67119  1  0
 68120  1  0
 69121  1  0
 70122  1  0
 72123  1  0
 73124  1  0
M  CHG  2  28  -1  71  -1
M  END
>  <PDBID>  (1) 
4Z2E

>  <PDB ID>  (1) 
4Z2E

>  <Generic Name>  (1) 
Trovafloxacin

>  <Brand Name>  (1) 
Trovan I.V.#Trovan Tablets 100mg#Trovan Tablets 200mg#Trovan

>  <DrugBank ID>  (1) 
DB00685

>  <ATC Codes>  (1) 
J01MA13

>  <Ligand ID>  (1) 
TR6

>  <Target Name>  (1) 
DNA gyrase subunit A

>  <UniProt ID>  (1) 
P43700

>  <PDB ID.1>  (1) 
4Z2E

>  <Seq. Identity>  (1) 
50%

$$$$
