PDB_DB00382_04
     RDKit          3D

 39 41  0  0  0  0  0  0  0  0999 V2000
   -3.3873    0.8532    0.5833 C   0  0  0  0  0  0  0  0  0  0  0  0
   -2.4382    1.4094   -0.4848 C   0  0  0  0  0  0  0  0  0  0  0  0
   -1.1166    0.6927   -0.2738 C   0  0  0  0  0  0  0  0  0  0  0  0
   -1.2218   -0.7717   -0.5794 C   0  0  0  0  0  0  0  0  0  0  0  0
   -2.2722   -1.3812    0.3107 C   0  0  0  0  0  0  0  0  0  0  0  0
   -3.5501   -0.6085    0.2962 C   0  0  0  0  0  0  0  0  0  0  0  0
   -0.0617    1.2500   -1.0687 N   0  0  0  0  0  0  0  0  0  0  0  0
    1.1903    0.8258   -0.5713 C   0  0  2  0  0  0  0  0  0  0  0  0
    1.1046   -0.4898    0.1527 C   0  0  1  0  0  0  0  0  0  0  0  0
    0.0999   -1.4324   -0.4249 C   0  0  0  0  0  0  0  0  0  0  0  0
    1.8273    1.7928    0.4137 C   0  0  0  0  0  0  0  0  0  0  0  0
    3.2748    1.3205    0.5443 C   0  0  0  0  0  0  0  0  0  0  0  0
    3.3351   -0.0902    1.0363 C   0  0  0  0  0  0  0  0  0  0  0  0
    2.4980   -1.0411    0.2056 C   0  0  0  0  0  0  0  0  0  0  0  0
    0.5644   -2.0192   -1.6655 N   0  0  0  0  0  0  0  0  0  0  0  0
   -4.3546    1.3496    0.4750 H   0  0  0  0  0  0  0  0  0  0  0  0
   -2.8851    1.0473    1.5509 H   0  0  0  0  0  0  0  0  0  0  0  0
   -2.2458    2.4800   -0.3435 H   0  0  0  0  0  0  0  0  0  0  0  0
   -2.7925    1.1794   -1.5018 H   0  0  0  0  0  0  0  0  0  0  0  0
   -0.8798    0.7979    0.8080 H   0  0  0  0  0  0  0  0  0  0  0  0
   -1.5451   -0.8819   -1.6345 H   0  0  0  0  0  0  0  0  0  0  0  0
   -2.4892   -2.3955   -0.0987 H   0  0  0  0  0  0  0  0  0  0  0  0
   -1.9170   -1.5359    1.3461 H   0  0  0  0  0  0  0  0  0  0  0  0
   -4.0250   -0.6895   -0.7169 H   0  0  0  0  0  0  0  0  0  0  0  0
   -4.2287   -1.0254    1.0701 H   0  0  0  0  0  0  0  0  0  0  0  0
   -0.1506    2.2389   -1.2983 H   0  0  0  0  0  0  0  0  0  0  0  0
    1.9326    0.7064   -1.4115 H   0  0  0  0  0  0  0  0  0  0  0  0
    0.7967   -0.2910    1.2152 H   0  0  0  0  0  0  0  0  0  0  0  0
   -0.0186   -2.2758    0.2938 H   0  0  0  0  0  0  0  0  0  0  0  0
    1.3379    1.6049    1.4041 H   0  0  0  0  0  0  0  0  0  0  0  0
    1.7823    2.8306    0.0972 H   0  0  0  0  0  0  0  0  0  0  0  0
    3.8441    1.9525    1.2337 H   0  0  0  0  0  0  0  0  0  0  0  0
    3.6951    1.3830   -0.4897 H   0  0  0  0  0  0  0  0  0  0  0  0
    2.9459   -0.1039    2.0835 H   0  0  0  0  0  0  0  0  0  0  0  0
    4.3970   -0.4146    1.0013 H   0  0  0  0  0  0  0  0  0  0  0  0
    2.5802   -2.0402    0.6308 H   0  0  0  0  0  0  0  0  0  0  0  0
    2.9254   -0.9996   -0.8386 H   0  0  0  0  0  0  0  0  0  0  0  0
   -0.0675   -2.8309   -1.8638 H   0  0  0  0  0  0  0  0  0  0  0  0
    1.5157   -2.3966   -1.4867 H   0  0  0  0  0  0  0  0  0  0  0  0
  1  2  1  0
  2  3  1  0
  3  4  1  0
  4  5  1  0
  1  6  1  0
  5  6  1  0
  3  7  1  0
  7  8  1  0
  8  9  1  0
  4 10  1  0
  9 10  1  0
  8 11  1  0
 11 12  1  0
 12 13  1  0
  9 14  1  0
 13 14  1  0
 10 15  1  0
  1 16  1  0
  1 17  1  0
  2 18  1  0
  2 19  1  0
  3 20  1  0
  4 21  1  0
  5 22  1  0
  5 23  1  0
  6 24  1  0
  6 25  1  0
  7 26  1  0
  8 27  1  6
  9 28  1  1
 10 29  1  0
 11 30  1  0
 11 31  1  0
 12 32  1  0
 12 33  1  0
 13 34  1  0
 13 35  1  0
 14 36  1  0
 14 37  1  0
 15 38  1  0
 15 39  1  0
M  END
>  <PDBID>  (1) 
1ACJ

>  <PDB ID>  (1) 
1ACJ

>  <Generic Name>  (1) 
Tacrine

>  <Brand Name>  (1) 
Cognex#Talem

>  <DrugBank ID>  (1) 
DB00382

>  <ATC Codes>  (1) 
N06DA01

>  <Ligand ID>  (1) 
THA

>  <Target Name>  (1) 
Acetylcholinesterase

>  <UniProt ID>  (1) 
P22303

>  <PDB ID.1>  (1) 
1ACJ

>  <Seq. Identity>  (1) 
57%

$$$$
