PDB_DB00203_00
     RDKit          3D

 79 82  0  0  0  0  0  0  0  0999 V2000
    6.6311   -1.3336    2.3852 C   0  0  0  0  0  0  0  0  0  0  0  0
    6.1320    0.0473    2.0189 C   0  0  0  0  0  0  0  0  0  0  0  0
    4.5971   -0.0003    2.0143 C   0  0  0  0  0  0  0  0  0  0  0  0
    4.2094   -1.0176    0.9953 C   0  0  0  0  0  0  0  0  0  0  0  0
    4.6697   -0.7091   -0.3253 N   0  0  0  0  0  0  0  0  0  0  0  0
    3.8060   -1.2944   -1.2521 N   0  0  0  0  0  0  0  0  0  0  0  0
    4.5936   -2.1606   -2.0982 C   0  0  0  0  0  0  0  0  0  0  0  0
    2.7657   -1.9586   -0.5399 C   0  0  0  0  0  0  0  0  0  0  0  0
    1.4032   -1.8674   -1.1325 C   0  0  0  0  0  0  0  0  0  0  0  0
    1.4583   -1.1254   -2.3064 O   0  0  0  0  0  0  0  0  0  0  0  0
    0.4012   -1.4243   -0.2114 N   0  0  0  0  0  0  0  0  0  0  0  0
    0.6501   -0.1356    0.3834 C   0  0  0  0  0  0  0  0  0  0  0  0
    2.0596    0.0566    0.5226 N   0  0  0  0  0  0  0  0  0  0  0  0
    2.7387   -1.2135    0.8028 C   0  0  0  0  0  0  0  0  0  0  0  0
   -0.0242    0.9183   -0.4833 C   0  0  0  0  0  0  0  0  0  0  0  0
   -1.5025    0.6671   -0.5568 C   0  0  0  0  0  0  0  0  0  0  0  0
   -2.2966    1.3496    0.5106 C   0  0  0  0  0  0  0  0  0  0  0  0
   -1.9015    2.7595    0.7855 C   0  0  0  0  0  0  0  0  0  0  0  0
   -0.4221    2.7304    1.1956 C   0  0  0  0  0  0  0  0  0  0  0  0
    0.3112    2.3248   -0.0710 C   0  0  0  0  0  0  0  0  0  0  0  0
    1.6466    2.5347    0.1091 O   0  0  0  0  0  0  0  0  0  0  0  0
    2.1108    3.5081   -0.7439 C   0  0  0  0  0  0  0  0  0  0  0  0
    1.9282    3.1791   -2.1972 C   0  0  0  0  0  0  0  0  0  0  0  0
   -4.0107    1.4029   -0.0677 S   0  0  0  0  0  0  0  0  0  0  0  0
   -4.0546    2.1959   -1.4371 O   0  0  0  0  0  0  0  0  0  0  0  0
   -4.7941    2.3733    1.0662 O   0  0  0  0  0  0  0  0  0  0  0  0
   -4.6573    0.0045   -0.0842 N   0  0  0  0  0  0  0  0  0  0  0  0
   -4.5759   -0.9115   -1.1766 C   0  0  0  0  0  0  0  0  0  0  0  0
   -5.8902   -1.6160   -1.4480 C   0  0  0  0  0  0  0  0  0  0  0  0
   -6.5242   -2.1117   -0.2661 N   0  0  0  0  0  0  0  0  0  0  0  0
   -6.2791   -3.4916    0.0166 C   0  0  0  0  0  0  0  0  0  0  0  0
   -6.4416   -1.2530    0.8724 C   0  0  0  0  0  0  0  0  0  0  0  0
   -5.0325   -0.7129    1.1058 C   0  0  0  0  0  0  0  0  0  0  0  0
    7.5146   -1.2271    3.0444 H   0  0  0  0  0  0  0  0  0  0  0  0
    5.8602   -1.9378    2.9152 H   0  0  0  0  0  0  0  0  0  0  0  0
    6.9262   -1.8679    1.4382 H   0  0  0  0  0  0  0  0  0  0  0  0
    6.4185    0.3230    0.9781 H   0  0  0  0  0  0  0  0  0  0  0  0
    6.5009    0.7603    2.7676 H   0  0  0  0  0  0  0  0  0  0  0  0
    4.2829   -0.2221    3.0298 H   0  0  0  0  0  0  0  0  0  0  0  0
    4.2937    1.0040    1.6365 H   0  0  0  0  0  0  0  0  0  0  0  0
    4.6311   -2.0309    1.2448 H   0  0  0  0  0  0  0  0  0  0  0  0
    4.6822    0.3486   -0.4333 H   0  0  0  0  0  0  0  0  0  0  0  0
    5.4800   -1.5509   -2.4386 H   0  0  0  0  0  0  0  0  0  0  0  0
    5.0109   -3.0141   -1.5414 H   0  0  0  0  0  0  0  0  0  0  0  0
    4.0209   -2.4436   -2.9878 H   0  0  0  0  0  0  0  0  0  0  0  0
    3.0744   -3.0162   -0.3256 H   0  0  0  0  0  0  0  0  0  0  0  0
    1.1102   -2.8978   -1.4449 H   0  0  0  0  0  0  0  0  0  0  0  0
    2.2848   -0.5604   -2.2907 H   0  0  0  0  0  0  0  0  0  0  0  0
    0.2789   -2.1471    0.5191 H   0  0  0  0  0  0  0  0  0  0  0  0
    0.1410   -0.1539    1.3901 H   0  0  0  0  0  0  0  0  0  0  0  0
    2.3172    0.6741    1.3267 H   0  0  0  0  0  0  0  0  0  0  0  0
    2.2458   -1.7893    1.5846 H   0  0  0  0  0  0  0  0  0  0  0  0
    0.3838    0.7766   -1.5049 H   0  0  0  0  0  0  0  0  0  0  0  0
   -1.6509   -0.4332   -0.4411 H   0  0  0  0  0  0  0  0  0  0  0  0
   -1.9160    0.9328   -1.5509 H   0  0  0  0  0  0  0  0  0  0  0  0
   -2.3424    0.7864    1.4602 H   0  0  0  0  0  0  0  0  0  0  0  0
   -2.5128    3.1798    1.5774 H   0  0  0  0  0  0  0  0  0  0  0  0
   -1.9192    3.3546   -0.1616 H   0  0  0  0  0  0  0  0  0  0  0  0
   -0.2743    1.9902    2.0157 H   0  0  0  0  0  0  0  0  0  0  0  0
   -0.1136    3.7398    1.4722 H   0  0  0  0  0  0  0  0  0  0  0  0
   -0.0872    2.9911   -0.8689 H   0  0  0  0  0  0  0  0  0  0  0  0
    1.5702    4.4611   -0.5250 H   0  0  0  0  0  0  0  0  0  0  0  0
    3.1877    3.7116   -0.5310 H   0  0  0  0  0  0  0  0  0  0  0  0
    2.1521    2.1100   -2.4226 H   0  0  0  0  0  0  0  0  0  0  0  0
    2.6466    3.7545   -2.8414 H   0  0  0  0  0  0  0  0  0  0  0  0
    0.9221    3.4491   -2.5782 H   0  0  0  0  0  0  0  0  0  0  0  0
   -3.4283    2.9590   -1.5510 H   0  0  0  0  0  0  0  0  0  0  0  0
   -5.1104    3.2206    0.6280 H   0  0  0  0  0  0  0  0  0  0  0  0
   -4.3021   -0.3532   -2.0947 H   0  0  0  0  0  0  0  0  0  0  0  0
   -3.7830   -1.6647   -0.9362 H   0  0  0  0  0  0  0  0  0  0  0  0
   -5.6618   -2.5090   -2.0999 H   0  0  0  0  0  0  0  0  0  0  0  0
   -6.5339   -0.9424   -2.0430 H   0  0  0  0  0  0  0  0  0  0  0  0
   -6.5378   -3.6686    1.0873 H   0  0  0  0  0  0  0  0  0  0  0  0
   -6.9910   -4.0960   -0.5840 H   0  0  0  0  0  0  0  0  0  0  0  0
   -5.2327   -3.8089   -0.1167 H   0  0  0  0  0  0  0  0  0  0  0  0
   -7.1119   -0.3812    0.8252 H   0  0  0  0  0  0  0  0  0  0  0  0
   -6.7404   -1.8484    1.7663 H   0  0  0  0  0  0  0  0  0  0  0  0
   -5.0776   -0.0992    2.0131 H   0  0  0  0  0  0  0  0  0  0  0  0
   -4.3153   -1.5783    1.2064 H   0  0  0  0  0  0  0  0  0  0  0  0
  1  2  1  0
  2  3  1  0
  3  4  1  0
  4  5  1  0
  5  6  1  0
  6  7  1  0
  6  8  1  0
  8  9  1  0
  9 10  1  0
  9 11  1  0
 11 12  1  0
 12 13  1  0
  4 14  1  0
  8 14  1  0
 13 14  1  0
 12 15  1  0
 15 16  1  0
 16 17  1  0
 17 18  1  0
 18 19  1  0
 15 20  1  0
 19 20  1  0
 20 21  1  0
 21 22  1  0
 22 23  1  0
 17 24  1  0
 24 25  1  0
 24 26  1  0
 24 27  1  0
 27 28  1  0
 28 29  1  0
 29 30  1  0
 30 31  1  0
 30 32  1  0
 27 33  1  0
 32 33  1  0
  1 34  1  0
  1 35  1  0
  1 36  1  0
  2 37  1  0
  2 38  1  0
  3 39  1  0
  3 40  1  0
  4 41  1  0
  5 42  1  0
  7 43  1  0
  7 44  1  0
  7 45  1  0
  8 46  1  0
  9 47  1  0
 10 48  1  0
 11 49  1  0
 12 50  1  0
 13 51  1  0
 14 52  1  0
 15 53  1  0
 16 54  1  0
 16 55  1  0
 17 56  1  0
 18 57  1  0
 18 58  1  0
 19 59  1  0
 19 60  1  0
 20 61  1  0
 22 62  1  0
 22 63  1  0
 23 64  1  0
 23 65  1  0
 23 66  1  0
 25 67  1  0
 26 68  1  0
 28 69  1  0
 28 70  1  0
 29 71  1  0
 29 72  1  0
 31 73  1  0
 31 74  1  0
 31 75  1  0
 32 76  1  0
 32 77  1  0
 33 78  1  0
 33 79  1  0
M  END
>  <PDBID>  (1) 
1UDT

>  <PDB ID>  (1) 
1UDT

>  <Generic Name>  (1) 
Sildenafil

>  <Brand Name>  (1) 
Act Sildenafil#Apo-sildenafil#Apo-sildenafil R#Auro-sildenafil#Dom-sildenafil#Gd-sildenafil#Ipg-sildenafil#Jamp-sildenafil#M-sildenafil#Mar-sildenafil#Mint-sildenafil#Myl-sildenafil#Mylan-sildenafil#PMS-sildenafil#PMS-sildenafil R#Pb-sildenafil#Priva-sildenafil#Ran-sildenafil#Ratio-sildenafil#Ratio-sildenafil R#Revatio#Riva-sildenafil#Sandoz Sildenafil#Sildenafil#Sildenafil Citrate#Sildenafil R#Sildenafil Tablets#Teva-sildenafil#Van-sildenafil#Viagra

>  <DrugBank ID>  (1) 
DB00203

>  <ATC Codes>  (1) 
G04BE03

>  <Ligand ID>  (1) 
VIA

>  <Target Name>  (1) 
cGMP-specific 3',5'-cyclic phosphodiesterase

>  <UniProt ID>  (1) 
O76074

>  <PDB ID.1>  (1) 
1UDT

>  <Seq. Identity>  (1) 
94%

$$$$
