PDB_DB00205_00
     RDKit          3D

 84 86  0  0  0  0  0  0  0  0999 V2000
   -1.5224    1.8229    0.5018 N   0  0  0  0  0  0  0  0  0  0  0  0
   -2.2356    0.7413    1.1291 C   0  0  0  0  0  0  0  0  0  0  0  0
   -1.1070    1.4495   -0.7988 C   0  0  0  0  0  0  0  0  0  0  0  0
   -0.3231    0.1539   -0.8226 C   0  0  0  0  0  0  0  0  0  0  0  0
   -1.1188   -0.9150   -0.2096 C   0  0  0  0  0  0  0  0  0  0  0  0
   -2.4165   -0.4049    0.2691 N   0  0  0  0  0  0  0  0  0  0  0  0
    1.0859    0.3298   -0.4008 C   0  0  0  0  0  0  0  0  0  0  0  0
    1.3937    0.8247    0.9408 C   0  0  0  0  0  0  0  0  0  0  0  0
    2.7404    0.2499    1.4175 C   0  0  0  0  0  0  0  0  0  0  0  0
    3.7645    0.3336    0.3130 C   0  0  0  0  0  0  0  0  0  0  0  0
    3.3240   -0.5292   -0.8274 C   0  0  0  0  0  0  0  0  0  0  0  0
    1.8809   -0.9404   -0.6588 C   0  0  0  0  0  0  0  0  0  0  0  0
   -0.4309    2.5006   -1.5268 N   0  0  0  0  0  0  0  0  0  0  0  0
   -3.5919    1.2466    1.4035 N   0  0  0  0  0  0  0  0  0  0  0  0
   -1.4789   -2.0083   -1.1980 C   0  0  0  0  0  0  0  0  0  0  0  0
   -2.2958   -3.0437   -0.4401 C   0  0  0  0  0  0  0  0  0  0  0  0
    4.0134    2.0239   -0.1602 Cl  0  0  0  0  0  0  0  0  0  0  0  0
   -1.5224    1.8229    0.5018 N   0  0  0  0  0  0  0  0  0  0  0  0
   -2.2356    0.7413    1.1291 C   0  0  0  0  0  0  0  0  0  0  0  0
   -1.1070    1.4495   -0.7988 C   0  0  0  0  0  0  0  0  0  0  0  0
   -0.3231    0.1539   -0.8226 C   0  0  0  0  0  0  0  0  0  0  0  0
   -1.1188   -0.9150   -0.2096 C   0  0  0  0  0  0  0  0  0  0  0  0
   -2.4165   -0.4049    0.2691 N   0  0  0  0  0  0  0  0  0  0  0  0
    1.0859    0.3298   -0.4008 C   0  0  0  0  0  0  0  0  0  0  0  0
    1.3937    0.8247    0.9408 C   0  0  0  0  0  0  0  0  0  0  0  0
    2.7404    0.2499    1.4175 C   0  0  0  0  0  0  0  0  0  0  0  0
    3.7645    0.3336    0.3130 C   0  0  0  0  0  0  0  0  0  0  0  0
    3.3240   -0.5292   -0.8274 C   0  0  0  0  0  0  0  0  0  0  0  0
    1.8809   -0.9404   -0.6588 C   0  0  0  0  0  0  0  0  0  0  0  0
   -0.4309    2.5006   -1.5268 N   0  0  0  0  0  0  0  0  0  0  0  0
   -3.5919    1.2466    1.4035 N   0  0  0  0  0  0  0  0  0  0  0  0
   -1.4789   -2.0083   -1.1980 C   0  0  0  0  0  0  0  0  0  0  0  0
   -2.2958   -3.0437   -0.4401 C   0  0  0  0  0  0  0  0  0  0  0  0
    4.0134    2.0239   -0.1602 Cl  0  0  0  0  0  0  0  0  0  0  0  0
   -0.8236    2.2965    1.0848 H   0  0  0  0  0  0  0  0  0  0  0  0
   -1.8034    0.5018    2.0980 H   0  0  0  0  0  0  0  0  0  0  0  0
   -2.0541    1.2611   -1.3925 H   0  0  0  0  0  0  0  0  0  0  0  0
   -0.2614   -0.0816   -1.9350 H   0  0  0  0  0  0  0  0  0  0  0  0
   -0.6850   -1.4232    0.6656 H   0  0  0  0  0  0  0  0  0  0  0  0
   -3.0850   -0.2503   -0.4906 H   0  0  0  0  0  0  0  0  0  0  0  0
    1.5372    1.0618   -1.1435 H   0  0  0  0  0  0  0  0  0  0  0  0
    0.6924    0.5777    1.7462 H   0  0  0  0  0  0  0  0  0  0  0  0
    1.5360    1.9261    0.9897 H   0  0  0  0  0  0  0  0  0  0  0  0
    3.0841    0.8969    2.2492 H   0  0  0  0  0  0  0  0  0  0  0  0
    2.6143   -0.7554    1.8169 H   0  0  0  0  0  0  0  0  0  0  0  0
    4.7150   -0.0477    0.7012 H   0  0  0  0  0  0  0  0  0  0  0  0
    3.9343   -1.4685   -0.8866 H   0  0  0  0  0  0  0  0  0  0  0  0
    3.4172    0.0326   -1.7743 H   0  0  0  0  0  0  0  0  0  0  0  0
    1.7409   -1.6980    0.1263 H   0  0  0  0  0  0  0  0  0  0  0  0
    1.5404   -1.3212   -1.6636 H   0  0  0  0  0  0  0  0  0  0  0  0
    0.1552    3.1112   -0.9282 H   0  0  0  0  0  0  0  0  0  0  0  0
    0.0552    2.0705   -2.3264 H   0  0  0  0  0  0  0  0  0  0  0  0
   -4.2325    1.0250    0.5951 H   0  0  0  0  0  0  0  0  0  0  0  0
   -3.5913    2.2875    1.5012 H   0  0  0  0  0  0  0  0  0  0  0  0
   -2.1599   -1.6089   -1.9892 H   0  0  0  0  0  0  0  0  0  0  0  0
   -0.5879   -2.4282   -1.6577 H   0  0  0  0  0  0  0  0  0  0  0  0
   -1.6588   -3.4766    0.3383 H   0  0  0  0  0  0  0  0  0  0  0  0
   -2.5962   -3.8226   -1.1519 H   0  0  0  0  0  0  0  0  0  0  0  0
   -3.1649   -2.5014    0.0057 H   0  0  0  0  0  0  0  0  0  0  0  0
   -0.8236    2.2965    1.0848 H   0  0  0  0  0  0  0  0  0  0  0  0
   -1.8034    0.5018    2.0980 H   0  0  0  0  0  0  0  0  0  0  0  0
   -2.0541    1.2611   -1.3925 H   0  0  0  0  0  0  0  0  0  0  0  0
   -0.2614   -0.0816   -1.9350 H   0  0  0  0  0  0  0  0  0  0  0  0
   -0.6850   -1.4232    0.6656 H   0  0  0  0  0  0  0  0  0  0  0  0
   -3.0850   -0.2503   -0.4906 H   0  0  0  0  0  0  0  0  0  0  0  0
    1.5372    1.0618   -1.1435 H   0  0  0  0  0  0  0  0  0  0  0  0
    0.6924    0.5777    1.7462 H   0  0  0  0  0  0  0  0  0  0  0  0
    1.5360    1.9261    0.9897 H   0  0  0  0  0  0  0  0  0  0  0  0
    3.0841    0.8969    2.2492 H   0  0  0  0  0  0  0  0  0  0  0  0
    2.6143   -0.7554    1.8169 H   0  0  0  0  0  0  0  0  0  0  0  0
    4.7150   -0.0477    0.7012 H   0  0  0  0  0  0  0  0  0  0  0  0
    3.9343   -1.4685   -0.8866 H   0  0  0  0  0  0  0  0  0  0  0  0
    3.4172    0.0326   -1.7743 H   0  0  0  0  0  0  0  0  0  0  0  0
    1.7409   -1.6980    0.1263 H   0  0  0  0  0  0  0  0  0  0  0  0
    1.5404   -1.3212   -1.6636 H   0  0  0  0  0  0  0  0  0  0  0  0
    0.1552    3.1112   -0.9282 H   0  0  0  0  0  0  0  0  0  0  0  0
    0.0552    2.0705   -2.3264 H   0  0  0  0  0  0  0  0  0  0  0  0
   -4.2325    1.0250    0.5951 H   0  0  0  0  0  0  0  0  0  0  0  0
   -3.5913    2.2875    1.5012 H   0  0  0  0  0  0  0  0  0  0  0  0
   -2.1599   -1.6089   -1.9892 H   0  0  0  0  0  0  0  0  0  0  0  0
   -0.5879   -2.4282   -1.6577 H   0  0  0  0  0  0  0  0  0  0  0  0
   -1.6588   -3.4766    0.3383 H   0  0  0  0  0  0  0  0  0  0  0  0
   -2.5962   -3.8226   -1.1519 H   0  0  0  0  0  0  0  0  0  0  0  0
   -3.1649   -2.5014    0.0057 H   0  0  0  0  0  0  0  0  0  0  0  0
  1  2  1  0
  1  3  1  0
  3  4  1  0
  4  5  1  0
  2  6  1  0
  5  6  1  0
  4  7  1  0
  7  8  1  0
  8  9  1  0
  9 10  1  0
 10 11  1  0
  7 12  1  0
 11 12  1  0
  3 13  1  0
  2 14  1  0
  5 15  1  0
 15 16  1  0
 10 17  1  0
 18 19  1  0
 18 20  1  0
 20 21  1  0
 21 22  1  0
 19 23  1  0
 22 23  1  0
 21 24  1  0
 24 25  1  0
 25 26  1  0
 26 27  1  0
 27 28  1  0
 24 29  1  0
 28 29  1  0
 20 30  1  0
 19 31  1  0
 22 32  1  0
 32 33  1  0
 27 34  1  0
  1 35  1  0
  2 36  1  0
  3 37  1  0
  4 38  1  0
  5 39  1  0
  6 40  1  0
  7 41  1  0
  8 42  1  0
  8 43  1  0
  9 44  1  0
  9 45  1  0
 10 46  1  0
 11 47  1  0
 11 48  1  0
 12 49  1  0
 12 50  1  0
 13 51  1  0
 13 52  1  0
 14 53  1  0
 14 54  1  0
 15 55  1  0
 15 56  1  0
 16 57  1  0
 16 58  1  0
 16 59  1  0
 18 60  1  0
 19 61  1  0
 20 62  1  0
 21 63  1  0
 22 64  1  0
 23 65  1  0
 24 66  1  0
 25 67  1  0
 25 68  1  0
 26 69  1  0
 26 70  1  0
 27 71  1  0
 28 72  1  0
 28 73  1  0
 29 74  1  0
 29 75  1  0
 30 76  1  0
 30 77  1  0
 31 78  1  0
 31 79  1  0
 32 80  1  0
 32 81  1  0
 33 82  1  0
 33 83  1  0
 33 84  1  0
M  END
>  <PDBID>  (1) 
3QFX

>  <PDB ID>  (1) 
3QFX

>  <Generic Name>  (1) 
Pyrimethamine

>  <Brand Name>  (1) 
Daraprim#Fansidar Tablets#Pyrimethamine Leucovorin

>  <DrugBank ID>  (1) 
DB00205

>  <ATC Codes>  (1) 
P01BF04#P01BD01#P01BD51

>  <Ligand ID>  (1) 
CP6

>  <Target Name>  (1) 
Dihydrofolate reductase

>  <UniProt ID>  (1) 
P00374

>  <PDB ID.1>  (1) 
3QFX

>  <Seq. Identity>  (1) 
32%

$$$$
