PDB_DB04787_04
     RDKit          3D

104108  0  0  0  0  0  0  0  0999 V2000
   -3.3431   -1.8119   -1.5564 C   0  0  0  0  0  0  0  0  0  0  0  0
   -3.2821   -0.7235   -0.4919 C   0  0  0  0  0  0  0  0  0  0  0  0
   -2.1454    0.2282   -0.8927 C   0  0  2  0  0  0  0  0  0  0  0  0
   -0.8866   -0.5504   -0.8452 C   0  0  0  0  0  0  0  0  0  0  0  0
    0.3269    0.2964   -0.5903 C   0  0  1  0  0  0  0  0  0  0  0  0
    0.0796    0.9409    0.7539 C   0  0  0  0  0  0  0  0  0  0  0  0
   -0.9998    1.9513    0.5610 C   0  0  0  0  0  0  0  0  0  0  0  0
   -2.2308    1.4621   -0.1110 C   0  0  0  0  0  0  0  0  0  0  0  0
   -3.2786    1.3986    0.9234 N   0  0  0  0  0  0  0  0  0  0  0  0
   -4.5466    0.9976    0.3824 C   0  0  0  0  0  0  0  0  0  0  0  0
   -5.5557    0.3867    1.7639 S   0  0  0  0  0  0  0  0  0  0  0  0
   -4.4512    0.0145   -0.5873 O   0  0  0  0  0  0  0  0  0  0  0  0
    1.5978   -0.4896   -0.6487 C   0  0  2  0  0  0  0  0  0  0  0  0
    1.7001   -1.6040    0.3350 C   0  0  0  0  0  0  0  0  0  0  0  0
    3.1165   -1.5547    0.8916 C   0  0  0  0  0  0  0  0  0  0  0  0
    3.4721   -0.0917    0.6908 C   0  0  0  0  0  0  0  0  0  0  0  0
    2.7648    0.3455   -0.4895 N   0  0  0  0  0  0  0  0  0  0  0  0
    3.6271    0.2809   -1.6387 C   0  0  0  0  0  0  0  0  0  0  0  0
    4.9565    0.1133    0.6082 C   0  0  0  0  0  0  0  0  0  0  0  0
    5.2069    1.5299    0.4184 N   0  0  0  0  0  0  0  0  0  0  0  0
   -3.0568   -1.3656    0.8231 C   0  0  0  0  0  0  0  0  0  0  0  0
   -3.8028    1.9075    0.0152 C   0  0  0  0  0  0  0  0  0  0  0  0
   -2.5017    1.1533    0.3276 C   0  0  0  0  0  0  0  0  0  0  0  0
   -1.8758    0.6735   -0.9483 C   0  0  0  0  0  0  0  0  0  0  0  0
   -0.3776    0.5669   -0.8828 C   0  0  0  0  0  0  0  0  0  0  0  0
    0.1260   -0.6081   -0.1108 C   0  0  1  0  0  0  0  0  0  0  0  0
   -0.6963   -1.8362   -0.2079 C   0  0  0  0  0  0  0  0  0  0  0  0
   -1.5692   -1.7700   -1.4318 C   0  0  0  0  0  0  0  0  0  0  0  0
   -2.5250   -0.5977   -1.4263 C   0  0  0  0  0  0  0  0  0  0  0  0
   -3.7024   -0.9749   -0.7220 N   0  0  0  0  0  0  0  0  0  0  0  0
   -3.7475   -0.7655    0.6648 C   0  0  0  0  0  0  0  0  0  0  0  0
   -5.4538   -0.2561    1.1068 S   0  0  0  0  0  0  0  0  0  0  0  0
   -2.8483    0.1305    1.1888 O   0  0  0  0  0  0  0  0  0  0  0  0
    1.5591   -0.9295   -0.5448 C   0  0  2  0  0  0  0  0  0  0  0  0
    2.1429   -2.0869    0.1928 C   0  0  0  0  0  0  0  0  0  0  0  0
    3.4254   -1.5497    0.8425 C   0  0  0  0  0  0  0  0  0  0  0  0
    3.0830   -0.0785    0.9203 C   0  0  0  0  0  0  0  0  0  0  0  0
    2.4534    0.1635   -0.3399 N   0  0  0  0  0  0  0  0  0  0  0  0
    3.4315    0.1700   -1.4117 C   0  0  0  0  0  0  0  0  0  0  0  0
    4.3199    0.7621    1.1512 C   0  0  0  0  0  0  0  0  0  0  0  0
    4.0178    2.1591    1.2280 N   0  0  0  0  0  0  0  0  0  0  0  0
   -1.6289    2.1212    1.0938 C   0  0  0  0  0  0  0  0  0  0  0  0
   -2.4599   -2.4905   -1.4716 H   0  0  0  0  0  0  0  0  0  0  0  0
   -4.2422   -2.4351   -1.3838 H   0  0  0  0  0  0  0  0  0  0  0  0
   -3.3153   -1.3958   -2.5795 H   0  0  0  0  0  0  0  0  0  0  0  0
   -2.3568    0.4222   -1.9888 H   0  0  0  0  0  0  0  0  0  0  0  0
   -0.6850   -1.1017   -1.8104 H   0  0  0  0  0  0  0  0  0  0  0  0
   -0.8897   -1.3550   -0.0655 H   0  0  0  0  0  0  0  0  0  0  0  0
    0.3875    1.0871   -1.3633 H   0  0  0  0  0  0  0  0  0  0  0  0
   -0.2138    0.1802    1.5051 H   0  0  0  0  0  0  0  0  0  0  0  0
    0.9670    1.4719    1.1500 H   0  0  0  0  0  0  0  0  0  0  0  0
   -1.2082    2.4000    1.5775 H   0  0  0  0  0  0  0  0  0  0  0  0
   -0.5274    2.8098   -0.0043 H   0  0  0  0  0  0  0  0  0  0  0  0
   -2.5873    2.3038   -0.7805 H   0  0  0  0  0  0  0  0  0  0  0  0
   -3.4062    2.3882    1.2882 H   0  0  0  0  0  0  0  0  0  0  0  0
   -5.0872    1.8581   -0.0571 H   0  0  0  0  0  0  0  0  0  0  0  0
   -6.1405    1.5295    2.3754 H   0  0  0  0  0  0  0  0  0  0  0  0
    1.6567   -0.9441   -1.6747 H   0  0  0  0  0  0  0  0  0  0  0  0
    0.9959   -1.5641    1.1644 H   0  0  0  0  0  0  0  0  0  0  0  0
    1.6031   -2.6106   -0.1432 H   0  0  0  0  0  0  0  0  0  0  0  0
    3.1194   -1.8535    1.9516 H   0  0  0  0  0  0  0  0  0  0  0  0
    3.8178   -2.1398    0.2617 H   0  0  0  0  0  0  0  0  0  0  0  0
    3.1246    0.5215    1.5671 H   0  0  0  0  0  0  0  0  0  0  0  0
    4.2470    1.1805   -1.7244 H   0  0  0  0  0  0  0  0  0  0  0  0
    2.9952    0.2689   -2.5720 H   0  0  0  0  0  0  0  0  0  0  0  0
    4.1947   -0.6722   -1.6817 H   0  0  0  0  0  0  0  0  0  0  0  0
    5.3687   -0.1703    1.6212 H   0  0  0  0  0  0  0  0  0  0  0  0
    5.4755   -0.5256   -0.1069 H   0  0  0  0  0  0  0  0  0  0  0  0
    6.0294    1.7256   -0.1755 H   0  0  0  0  0  0  0  0  0  0  0  0
    5.1625    2.0723    1.2867 H   0  0  0  0  0  0  0  0  0  0  0  0
   -2.5084   -0.7623    1.5568 H   0  0  0  0  0  0  0  0  0  0  0  0
   -4.0482   -1.6111    1.2760 H   0  0  0  0  0  0  0  0  0  0  0  0
   -2.5401   -2.3422    0.7014 H   0  0  0  0  0  0  0  0  0  0  0  0
   -4.4466    1.3585   -0.6698 H   0  0  0  0  0  0  0  0  0  0  0  0
   -4.2737    2.2725    0.9266 H   0  0  0  0  0  0  0  0  0  0  0  0
   -3.4592    2.8246   -0.5470 H   0  0  0  0  0  0  0  0  0  0  0  0
   -2.0866    1.4595   -1.7066 H   0  0  0  0  0  0  0  0  0  0  0  0
    0.0084    1.5227   -0.4730 H   0  0  0  0  0  0  0  0  0  0  0  0
    0.0138    0.4934   -1.9192 H   0  0  0  0  0  0  0  0  0  0  0  0
    0.2090   -0.3298    0.9672 H   0  0  0  0  0  0  0  0  0  0  0  0
   -0.0324   -2.7141   -0.3604 H   0  0  0  0  0  0  0  0  0  0  0  0
   -1.2718   -2.0712    0.7139 H   0  0  0  0  0  0  0  0  0  0  0  0
   -0.8962   -1.7648   -2.3146 H   0  0  0  0  0  0  0  0  0  0  0  0
   -2.1513   -2.7135   -1.4838 H   0  0  0  0  0  0  0  0  0  0  0  0
   -2.8312   -0.4845   -2.5114 H   0  0  0  0  0  0  0  0  0  0  0  0
   -4.5766   -0.9674   -1.2458 H   0  0  0  0  0  0  0  0  0  0  0  0
   -3.5986   -1.7437    1.1930 H   0  0  0  0  0  0  0  0  0  0  0  0
   -5.4459    0.6172    2.2097 H   0  0  0  0  0  0  0  0  0  0  0  0
    1.5344   -1.1433   -1.6522 H   0  0  0  0  0  0  0  0  0  0  0  0
    1.4812   -2.5151    0.9757 H   0  0  0  0  0  0  0  0  0  0  0  0
    2.4256   -2.8905   -0.5090 H   0  0  0  0  0  0  0  0  0  0  0  0
    3.5738   -1.9802    1.8511 H   0  0  0  0  0  0  0  0  0  0  0  0
    4.3107   -1.7676    0.2392 H   0  0  0  0  0  0  0  0  0  0  0  0
    2.4045    0.0821    1.7575 H   0  0  0  0  0  0  0  0  0  0  0  0
    4.1573    0.9998   -1.3295 H   0  0  0  0  0  0  0  0  0  0  0  0
    2.8542    0.2887   -2.3739 H   0  0  0  0  0  0  0  0  0  0  0  0
    3.9884   -0.7666   -1.5078 H   0  0  0  0  0  0  0  0  0  0  0  0
    4.7262    0.4486    2.1459 H   0  0  0  0  0  0  0  0  0  0  0  0
    5.1158    0.5851    0.4224 H   0  0  0  0  0  0  0  0  0  0  0  0
    4.4443    2.7115    0.4345 H   0  0  0  0  0  0  0  0  0  0  0  0
    4.4199    2.6008    2.0973 H   0  0  0  0  0  0  0  0  0  0  0  0
   -1.1868    2.9014    0.4379 H   0  0  0  0  0  0  0  0  0  0  0  0
   -2.3334    2.6898    1.7708 H   0  0  0  0  0  0  0  0  0  0  0  0
   -0.9066    1.6416    1.7557 H   0  0  0  0  0  0  0  0  0  0  0  0
  2  1  1  0
  2  3  1  0
  3  4  1  0
  4  5  1  0
  5  6  1  0
  6  7  1  0
  3  8  1  0
  7  8  1  0
  8  9  1  0
  9 10  1  0
 10 11  1  0
  2 12  1  0
 10 12  1  0
  5 13  1  0
 13 14  1  0
 14 15  1  0
 15 16  1  0
 13 17  1  0
 16 17  1  0
 17 18  1  0
 16 19  1  0
 19 20  1  0
  2 21  1  0
 23 22  1  0
 23 24  1  0
 24 25  1  0
 25 26  1  0
 26 27  1  0
 27 28  1  0
 24 29  1  0
 28 29  1  0
 29 30  1  0
 30 31  1  0
 31 32  1  0
 23 33  1  0
 31 33  1  0
 26 34  1  0
 34 35  1  0
 35 36  1  0
 36 37  1  0
 34 38  1  0
 37 38  1  0
 38 39  1  0
 37 40  1  0
 40 41  1  0
 23 42  1  0
  1 43  1  0
  1 44  1  0
  1 45  1  0
  3 46  1  6
  4 47  1  0
  4 48  1  0
  5 49  1  6
  6 50  1  0
  6 51  1  0
  7 52  1  0
  7 53  1  0
  8 54  1  0
  9 55  1  0
 10 56  1  0
 11 57  1  0
 13 58  1  6
 14 59  1  0
 14 60  1  0
 15 61  1  0
 15 62  1  0
 16 63  1  0
 18 64  1  0
 18 65  1  0
 18 66  1  0
 19 67  1  0
 19 68  1  0
 20 69  1  0
 20 70  1  0
 21 71  1  0
 21 72  1  0
 21 73  1  0
 22 74  1  0
 22 75  1  0
 22 76  1  0
 24 77  1  0
 25 78  1  0
 25 79  1  0
 26 80  1  1
 27 81  1  0
 27 82  1  0
 28 83  1  0
 28 84  1  0
 29 85  1  0
 30 86  1  0
 31 87  1  0
 32 88  1  0
 34 89  1  6
 35 90  1  0
 35 91  1  0
 36 92  1  0
 36 93  1  0
 37 94  1  0
 39 95  1  0
 39 96  1  0
 39 97  1  0
 40 98  1  0
 40 99  1  0
 41100  1  0
 41101  1  0
 42102  1  0
 42103  1  0
 42104  1  0
M  END
>  <PDBID>  (1) 
1ZUC

>  <PDB ID>  (1) 
1ZUC

>  <Generic Name>  (1) 
Tanaproget

>  <Brand Name>  (1) 
nan

>  <DrugBank ID>  (1) 
DB04787

>  <ATC Codes>  (1) 
nan

>  <Ligand ID>  (1) 
T98

>  <Target Name>  (1) 
Progesterone receptor

>  <UniProt ID>  (1) 
P06401

>  <PDB ID.1>  (1) 
1ZUC

>  <Seq. Identity>  (1) 
97%

$$$$
