PDB_DB00877_08
     RDKit          3D

162165  0  0  0  0  0  0  0  0999 V2000
    2.2849    0.8899    0.5938 C   0  0  0  0  0  0  0  0  0  0  0  0
    2.8381    0.4664   -0.5773 O   0  0  0  0  0  0  0  0  0  0  0  0
    2.9377    0.3758    1.7189 O   0  0  0  0  0  0  0  0  0  0  0  0
    2.3482    2.4263    0.6115 C   0  0  2  0  0  0  0  0  0  0  0  0
    3.2118    2.9400    1.6950 C   0  0  0  0  0  0  0  0  0  0  0  0
    2.5906    3.6236    2.8393 C   0  0  0  0  0  0  0  0  0  0  0  0
    1.1326    3.4321    3.0466 C   0  0  0  0  0  0  0  0  0  0  0  0
    0.4022    2.8507    1.8797 C   0  0  0  0  0  0  0  0  0  0  0  0
    1.0420    3.0043    0.6312 N   0  0  0  0  0  0  0  0  0  0  0  0
    1.0227    4.2908    0.0293 C   0  0  2  0  0  0  0  0  0  0  0  0
    0.8211    5.3437    0.8956 O   0  0  0  0  0  0  0  0  0  0  0  0
    0.0259    4.3308   -1.1366 C   0  0  0  0  0  0  0  0  0  0  0  0
    0.5716    4.9728   -2.2476 O   0  0  0  0  0  0  0  0  0  0  0  0
   -1.2816    4.9311   -0.7482 C   0  0  1  0  0  0  0  0  0  0  0  0
   -2.2206    3.8833   -0.6292 O   0  0  0  0  0  0  0  0  0  0  0  0
   -1.2845    5.6007    0.4504 O   0  0  0  0  0  0  0  0  0  0  0  0
   -1.7084    5.9071   -1.8235 C   0  0  1  0  0  0  0  0  0  0  0  0
   -3.1604    6.3026   -1.6753 C   0  0  0  0  0  0  0  0  0  0  0  0
   -4.0540    5.1714   -1.2866 C   0  0  0  0  0  0  0  0  0  0  0  0
   -3.4304    4.4143   -0.1435 C   0  0  1  0  0  0  0  0  0  0  0  0
   -4.3053    3.2160    0.1739 C   0  0  0  0  0  0  0  0  0  0  0  0
   -5.4073    3.5322    1.1371 C   0  0  2  0  0  0  0  0  0  0  0  0
   -4.9239    3.8063    2.4158 O   0  0  0  0  0  0  0  0  0  0  0  0
   -6.3463    2.3655    1.2421 C   0  0  0  0  0  0  0  0  0  0  0  0
   -6.1744    1.4519    0.0481 C   0  0  0  0  0  0  0  0  0  0  0  0
   -7.0449    0.2259    0.3405 C   0  0  0  0  0  0  0  0  0  0  0  0
   -7.1180   -0.7114   -0.8220 C   0  0  0  0  0  0  0  0  0  0  0  0
   -5.8001   -1.3919   -1.1137 C   0  0  0  0  0  0  0  0  0  0  0  0
   -5.3341   -2.2944   -0.0238 C   0  0  0  0  0  0  0  0  0  0  0  0
   -5.6172   -3.7518   -0.2743 C   0  0  2  0  0  0  0  0  0  0  0  0
   -4.5695   -4.4145   -1.1378 C   0  0  0  0  0  0  0  0  0  0  0  0
   -4.1923   -5.7957   -0.5930 C   0  0  2  0  0  0  0  0  0  0  0  0
   -2.9816   -5.7515    0.2697 C   0  0  0  0  0  0  0  0  0  0  0  0
   -2.7738   -4.3861    0.5791 O   0  0  0  0  0  0  0  0  0  0  0  0
   -1.7556   -6.3854   -0.3078 C   0  0  2  0  0  0  0  0  0  0  0  0
   -1.2102   -7.3668    0.5180 O   0  0  0  0  0  0  0  0  0  0  0  0
   -0.7301   -5.3920   -0.7725 C   0  0  2  0  0  0  0  0  0  0  0  0
    0.1287   -6.0967   -1.6514 O   0  0  0  0  0  0  0  0  0  0  0  0
    0.0223   -4.6741    0.2705 C   0  0  0  0  0  0  0  0  0  0  0  0
    1.3595   -4.2857   -0.2973 C   0  0  0  0  0  0  0  0  0  0  0  0
    2.3888   -3.9201    0.7072 C   0  0  2  0  0  0  0  0  0  0  0  0
    3.4531   -3.0255    0.0830 C   0  0  0  0  0  0  0  0  0  0  0  0
    4.2414   -2.5752    1.1360 O   0  0  0  0  0  0  0  0  0  0  0  0
    2.9022   -1.8600   -0.6529 C   0  0  0  0  0  0  0  0  0  0  0  0
    3.7365   -0.6168   -0.4440 C   0  0  1  0  0  0  0  0  0  0  0  0
    4.7371   -0.3992   -1.5559 C   0  0  1  0  0  0  0  0  0  0  0  0
    5.4661    0.9045   -1.4491 C   0  0  0  0  0  0  0  0  0  0  0  0
    6.2445    1.1836   -0.2347 C   0  0  1  0  0  0  0  0  0  0  0  0
    7.3634    0.3119    0.1611 C   0  0  0  0  0  0  0  0  0  0  0  0
    8.7084    0.7546   -0.3867 C   0  0  1  0  0  0  0  0  0  0  0  0
    9.5743   -0.3155   -0.3044 O   0  0  0  0  0  0  0  0  0  0  0  0
    8.6285    1.3613   -1.7597 C   0  0  2  0  0  0  0  0  0  0  0  0
    9.9510    1.7763   -2.0563 O   0  0  0  0  0  0  0  0  0  0  0  0
    7.7328    2.5539   -1.7015 C   0  0  0  0  0  0  0  0  0  0  0  0
    6.8645    2.5876   -0.4502 C   0  0  0  0  0  0  0  0  0  0  0  0
   -0.8869    7.1637   -1.7072 C   0  0  0  0  0  0  0  0  0  0  0  0
   -7.7977    2.8295    1.2211 C   0  0  0  0  0  0  0  0  0  0  0  0
   -7.0064   -3.9601   -0.7754 C   0  0  0  0  0  0  0  0  0  0  0  0
   -4.1536   -6.7879   -1.7041 C   0  0  0  0  0  0  0  0  0  0  0  0
    0.1292   -5.3533    1.6006 C   0  0  0  0  0  0  0  0  0  0  0  0
    3.1327   -5.1804    1.1275 C   0  0  0  0  0  0  0  0  0  0  0  0
    5.6539   -1.5015   -1.8790 C   0  0  0  0  0  0  0  0  0  0  0  0
   -5.3399    5.0472    2.8684 C   0  0  0  0  0  0  0  0  0  0  0  0
   -1.2457   -8.6278   -0.0336 C   0  0  0  0  0  0  0  0  0  0  0  0
   10.6364   -0.0784    0.5663 C   0  0  0  0  0  0  0  0  0  0  0  0
   -1.1254    6.5699    0.3861 H   0  0  0  0  0  0  0  0  0  0  0  0
    0.6025   -6.7453   -1.1077 H   0  0  0  0  0  0  0  0  0  0  0  0
   10.4635    0.9111   -2.1409 H   0  0  0  0  0  0  0  0  0  0  0  0
    1.2161    0.6254    0.7119 H   0  0  0  0  0  0  0  0  0  0  0  0
    2.4049    0.4472    2.5302 H   0  0  0  0  0  0  0  0  0  0  0  0
    2.7869    2.7769   -0.3747 H   0  0  0  0  0  0  0  0  0  0  0  0
    4.0202    3.5906    1.2491 H   0  0  0  0  0  0  0  0  0  0  0  0
    3.8053    2.0538    2.0796 H   0  0  0  0  0  0  0  0  0  0  0  0
    2.7680    4.7358    2.7329 H   0  0  0  0  0  0  0  0  0  0  0  0
    3.1564    3.3716    3.7859 H   0  0  0  0  0  0  0  0  0  0  0  0
    0.6214    4.3951    3.3276 H   0  0  0  0  0  0  0  0  0  0  0  0
    0.9730    2.7656    3.9194 H   0  0  0  0  0  0  0  0  0  0  0  0
    0.2143    1.7679    2.0615 H   0  0  0  0  0  0  0  0  0  0  0  0
   -0.6256    3.2997    1.8205 H   0  0  0  0  0  0  0  0  0  0  0  0
    2.0275    4.4663   -0.4573 H   0  0  0  0  0  0  0  0  0  0  0  0
    1.3359    6.1361    0.6016 H   0  0  0  0  0  0  0  0  0  0  0  0
   -0.0955    3.2535   -1.4520 H   0  0  0  0  0  0  0  0  0  0  0  0
    1.5425    5.0384   -2.1716 H   0  0  0  0  0  0  0  0  0  0  0  0
   -1.5306    5.4292   -2.8000 H   0  0  0  0  0  0  0  0  0  0  0  0
   -3.4889    6.6492   -2.6975 H   0  0  0  0  0  0  0  0  0  0  0  0
   -3.3106    7.1492   -1.0064 H   0  0  0  0  0  0  0  0  0  0  0  0
   -5.0105    5.6273   -0.9055 H   0  0  0  0  0  0  0  0  0  0  0  0
   -4.2988    4.4809   -2.1199 H   0  0  0  0  0  0  0  0  0  0  0  0
   -3.2535    5.0705    0.7079 H   0  0  0  0  0  0  0  0  0  0  0  0
   -4.7580    2.9103   -0.7914 H   0  0  0  0  0  0  0  0  0  0  0  0
   -3.7005    2.3616    0.5424 H   0  0  0  0  0  0  0  0  0  0  0  0
   -6.0007    4.3974    0.8167 H   0  0  0  0  0  0  0  0  0  0  0  0
   -6.1355    1.7608    2.1486 H   0  0  0  0  0  0  0  0  0  0  0  0
   -5.1448    1.0544   -0.0482 H   0  0  0  0  0  0  0  0  0  0  0  0
   -6.5343    1.9216   -0.8911 H   0  0  0  0  0  0  0  0  0  0  0  0
   -8.0970    0.5615    0.5488 H   0  0  0  0  0  0  0  0  0  0  0  0
   -6.6700   -0.2019    1.2690 H   0  0  0  0  0  0  0  0  0  0  0  0
   -7.9311   -1.4270   -0.6334 H   0  0  0  0  0  0  0  0  0  0  0  0
   -7.3371   -0.0782   -1.7314 H   0  0  0  0  0  0  0  0  0  0  0  0
   -5.0553   -0.5600   -1.2881 H   0  0  0  0  0  0  0  0  0  0  0  0
   -5.8749   -1.8994   -2.1043 H   0  0  0  0  0  0  0  0  0  0  0  0
   -4.2539   -2.1112    0.1371 H   0  0  0  0  0  0  0  0  0  0  0  0
   -5.8359   -2.0294    0.9295 H   0  0  0  0  0  0  0  0  0  0  0  0
   -5.5534   -4.2571    0.7323 H   0  0  0  0  0  0  0  0  0  0  0  0
   -5.0359   -4.5783   -2.1309 H   0  0  0  0  0  0  0  0  0  0  0  0
   -3.6578   -3.7745   -1.2185 H   0  0  0  0  0  0  0  0  0  0  0  0
   -5.0666   -6.0818    0.0638 H   0  0  0  0  0  0  0  0  0  0  0  0
   -3.1669   -6.2590    1.2618 H   0  0  0  0  0  0  0  0  0  0  0  0
   -3.1866   -4.1689    1.4471 H   0  0  0  0  0  0  0  0  0  0  0  0
   -2.0837   -6.9240   -1.2299 H   0  0  0  0  0  0  0  0  0  0  0  0
   -1.2629   -4.6710   -1.4360 H   0  0  0  0  0  0  0  0  0  0  0  0
   -0.5184   -3.6989    0.4707 H   0  0  0  0  0  0  0  0  0  0  0  0
    1.7990   -5.1025   -0.9415 H   0  0  0  0  0  0  0  0  0  0  0  0
    1.2675   -3.4155   -1.0123 H   0  0  0  0  0  0  0  0  0  0  0  0
    2.0024   -3.3540    1.5820 H   0  0  0  0  0  0  0  0  0  0  0  0
    3.9877   -3.6750   -0.6324 H   0  0  0  0  0  0  0  0  0  0  0  0
    3.6715   -2.4572    1.9112 H   0  0  0  0  0  0  0  0  0  0  0  0
    2.8346   -2.0102   -1.7607 H   0  0  0  0  0  0  0  0  0  0  0  0
    1.8916   -1.6449   -0.2184 H   0  0  0  0  0  0  0  0  0  0  0  0
    4.2591   -0.6046    0.5091 H   0  0  0  0  0  0  0  0  0  0  0  0
    4.0571   -0.2531   -2.4855 H   0  0  0  0  0  0  0  0  0  0  0  0
    6.0486    1.0047   -2.3979 H   0  0  0  0  0  0  0  0  0  0  0  0
    4.6596    1.7014   -1.5746 H   0  0  0  0  0  0  0  0  0  0  0  0
    5.5904    1.3122    0.6627 H   0  0  0  0  0  0  0  0  0  0  0  0
    7.2838   -0.7565    0.0051 H   0  0  0  0  0  0  0  0  0  0  0  0
    7.5149    0.3921    1.2960 H   0  0  0  0  0  0  0  0  0  0  0  0
    9.0974    1.5472    0.2822 H   0  0  0  0  0  0  0  0  0  0  0  0
    8.3941    0.6293   -2.5525 H   0  0  0  0  0  0  0  0  0  0  0  0
    7.1494    2.7027   -2.6270 H   0  0  0  0  0  0  0  0  0  0  0  0
    8.3794    3.4767   -1.6185 H   0  0  0  0  0  0  0  0  0  0  0  0
    7.5192    2.8622    0.3904 H   0  0  0  0  0  0  0  0  0  0  0  0
    6.0843    3.3433   -0.6197 H   0  0  0  0  0  0  0  0  0  0  0  0
    0.0899    7.0272   -1.2448 H   0  0  0  0  0  0  0  0  0  0  0  0
   -0.7322    7.5372   -2.7548 H   0  0  0  0  0  0  0  0  0  0  0  0
   -1.4650    7.9951   -1.2068 H   0  0  0  0  0  0  0  0  0  0  0  0
   -8.2289    2.7226    0.1827 H   0  0  0  0  0  0  0  0  0  0  0  0
   -7.8952    3.9091    1.4554 H   0  0  0  0  0  0  0  0  0  0  0  0
   -8.3706    2.2168    1.9498 H   0  0  0  0  0  0  0  0  0  0  0  0
   -7.2416   -3.4590   -1.7123 H   0  0  0  0  0  0  0  0  0  0  0  0
   -7.7269   -3.7340    0.0438 H   0  0  0  0  0  0  0  0  0  0  0  0
   -7.1275   -5.0655   -0.9620 H   0  0  0  0  0  0  0  0  0  0  0  0
   -3.9253   -7.7881   -1.3429 H   0  0  0  0  0  0  0  0  0  0  0  0
   -3.5387   -6.4605   -2.5790 H   0  0  0  0  0  0  0  0  0  0  0  0
   -5.2040   -6.8442   -2.1204 H   0  0  0  0  0  0  0  0  0  0  0  0
    0.7654   -6.2685    1.5752 H   0  0  0  0  0  0  0  0  0  0  0  0
   -0.8175   -5.6415    2.0426 H   0  0  0  0  0  0  0  0  0  0  0  0
    0.6311   -4.6695    2.3186 H   0  0  0  0  0  0  0  0  0  0  0  0
    2.9103   -5.4056    2.2121 H   0  0  0  0  0  0  0  0  0  0  0  0
    2.8819   -6.0403    0.4713 H   0  0  0  0  0  0  0  0  0  0  0  0
    4.2307   -5.0754    1.0848 H   0  0  0  0  0  0  0  0  0  0  0  0
    5.3399   -2.0693   -2.8261 H   0  0  0  0  0  0  0  0  0  0  0  0
    5.8365   -2.2219   -1.0674 H   0  0  0  0  0  0  0  0  0  0  0  0
    6.6383   -1.1078   -2.2115 H   0  0  0  0  0  0  0  0  0  0  0  0
   -4.9534    5.2519    3.8721 H   0  0  0  0  0  0  0  0  0  0  0  0
   -6.4519    5.1169    2.9417 H   0  0  0  0  0  0  0  0  0  0  0  0
   -5.0080    5.8195    2.1548 H   0  0  0  0  0  0  0  0  0  0  0  0
   -0.7102   -8.7486   -0.9729 H   0  0  0  0  0  0  0  0  0  0  0  0
   -2.2623   -9.0449   -0.1551 H   0  0  0  0  0  0  0  0  0  0  0  0
   -0.7380   -9.3063    0.7065 H   0  0  0  0  0  0  0  0  0  0  0  0
   10.2948    0.1251    1.6023 H   0  0  0  0  0  0  0  0  0  0  0  0
   11.4360   -0.8137    0.4801 H   0  0  0  0  0  0  0  0  0  0  0  0
   11.0825    0.9017    0.2233 H   0  0  0  0  0  0  0  0  0  0  0  0
  1  2  1  0
  1  3  1  0
  1  4  1  0
  4  5  1  0
  5  6  1  0
  6  7  1  0
  7  8  1  0
  4  9  1  0
  8  9  1  0
  9 10  1  0
 10 11  1  0
 10 12  1  0
 12 13  1  0
 12 14  1  0
 14 15  1  0
 14 16  1  1
 14 17  1  0
 17 18  1  0
 18 19  1  0
 15 20  1  0
 19 20  1  0
 20 21  1  0
 21 22  1  0
 22 23  1  0
 22 24  1  0
 24 25  1  0
 25 26  1  0
 26 27  1  0
 27 28  1  0
 28 29  1  0
 29 30  1  0
 30 31  1  0
 31 32  1  0
 32 33  1  0
 33 34  1  0
 33 35  1  0
 35 36  1  0
 35 37  1  0
 37 38  1  0
 37 39  1  0
 39 40  1  0
 40 41  1  0
 41 42  1  0
 42 43  1  0
 42 44  1  0
  2 45  1  0
 44 45  1  0
 45 46  1  0
 46 47  1  0
 47 48  1  0
 48 49  1  0
 49 50  1  0
 50 51  1  0
 50 52  1  0
 52 53  1  0
 52 54  1  0
 48 55  1  0
 54 55  1  0
 17 56  1  0
 24 57  1  0
 30 58  1  0
 32 59  1  0
 39 60  1  0
 41 61  1  0
 46 62  1  0
 23 63  1  0
 36 64  1  0
 51 65  1  0
 16 66  1  0
 38 67  1  0
 53 68  1  0
  1 69  1  0
  3 70  1  0
  4 71  1  6
  5 72  1  0
  5 73  1  0
  6 74  1  0
  6 75  1  0
  7 76  1  0
  7 77  1  0
  8 78  1  0
  8 79  1  0
 10 80  1  6
 11 81  1  0
 12 82  1  0
 13 83  1  0
 17 84  1  6
 18 85  1  0
 18 86  1  0
 19 87  1  0
 19 88  1  0
 20 89  1  1
 21 90  1  0
 21 91  1  0
 22 92  1  6
 24 93  1  0
 25 94  1  0
 25 95  1  0
 26 96  1  0
 26 97  1  0
 27 98  1  0
 27 99  1  0
 28100  1  0
 28101  1  0
 29102  1  0
 29103  1  0
 30104  1  1
 31105  1  0
 31106  1  0
 32107  1  1
 33108  1  0
 34109  1  0
 35110  1  6
 37111  1  6
 39112  1  0
 40113  1  0
 40114  1  0
 41115  1  1
 42116  1  0
 43117  1  0
 44118  1  0
 44119  1  0
 45120  1  1
 46121  1  6
 47122  1  0
 47123  1  0
 48124  1  1
 49125  1  0
 49126  1  0
 50127  1  1
 52128  1  6
 54129  1  0
 54130  1  0
 55131  1  0
 55132  1  0
 56133  1  0
 56134  1  0
 56135  1  0
 57136  1  0
 57137  1  0
 57138  1  0
 58139  1  0
 58140  1  0
 58141  1  0
 59142  1  0
 59143  1  0
 59144  1  0
 60145  1  0
 60146  1  0
 60147  1  0
 61148  1  0
 61149  1  0
 61150  1  0
 62151  1  0
 62152  1  0
 62153  1  0
 63154  1  0
 63155  1  0
 63156  1  0
 64157  1  0
 64158  1  0
 64159  1  0
 65160  1  0
 65161  1  0
 65162  1  0
M  END
>  <PDBID>  (1) 
1FKB

>  <PDB ID>  (1) 
1FKB

>  <Generic Name>  (1) 
Sirolimus

>  <Brand Name>  (1) 
Gd-sirolimus#Rapamune#Rapamune Oral Solution#Sirolimus

>  <DrugBank ID>  (1) 
DB00877

>  <ATC Codes>  (1) 
S01XA23#L04AA10

>  <Ligand ID>  (1) 
RAP

>  <Target Name>  (1) 
Peptidyl-prolyl cis-trans isomerase FKBP1A

>  <UniProt ID>  (1) 
P62942

>  <PDB ID.1>  (1) 
1FKB

>  <Seq. Identity>  (1) 
100%

$$$$
