PDB_DB00864_01
     RDKit          3D

140143  0  0  0  0  0  0  0  0999 V2000
    1.9577   -1.9435   -0.1186 C   0  0  0  0  0  0  0  0  0  0  0  0
    1.3419   -3.0481   -0.9192 C   0  0  2  0  0  0  0  0  0  0  0  0
    1.5409   -2.9894   -2.3955 C   0  0  0  0  0  0  0  0  0  0  0  0
    1.2859   -4.4139   -2.9228 C   0  0  0  0  0  0  0  0  0  0  0  0
   -0.0706   -4.8479   -2.4799 C   0  0  0  0  0  0  0  0  0  0  0  0
   -0.2854   -4.7090   -0.9910 C   0  0  0  0  0  0  0  0  0  0  0  0
   -1.0337   -2.4749   -0.8923 C   0  0  0  0  0  0  0  0  0  0  0  0
   -1.8705   -2.1706    0.3598 C   0  0  0  0  0  0  0  0  0  0  0  0
   -3.3558   -2.3820    0.0989 C   0  0  1  0  0  0  0  0  0  0  0  0
   -3.9386   -3.2742    1.1726 C   0  0  1  0  0  0  0  0  0  0  0  0
   -5.4255   -3.2889    1.1269 C   0  0  0  0  0  0  0  0  0  0  0  0
   -6.0321   -2.3940    0.0742 C   0  0  1  0  0  0  0  0  0  0  0  0
   -5.2970   -1.1355   -0.1542 C   0  0  1  0  0  0  0  0  0  0  0  0
   -5.9550    0.0990    0.4103 C   0  0  2  0  0  0  0  0  0  0  0  0
   -4.8665    1.1657    0.4604 C   0  0  0  0  0  0  0  0  0  0  0  0
   -4.8530    1.9551    1.7293 C   0  0  2  0  0  0  0  0  0  0  0  0
   -4.6083    3.4219    1.3482 C   0  0  0  0  0  0  0  0  0  0  0  0
   -3.6019    3.5507    0.2565 C   0  0  0  0  0  0  0  0  0  0  0  0
   -2.3602    4.3194    0.7352 C   0  0  0  0  0  0  0  0  0  0  0  0
   -1.1789    3.9795   -0.1695 C   0  0  2  0  0  0  0  0  0  0  0  0
   -0.0755    3.4753    0.7443 C   0  0  0  0  0  0  0  0  0  0  0  0
    1.2158    3.2000    0.0100 C   0  0  0  0  0  0  0  0  0  0  0  0
    1.5064    1.7328   -0.0667 C   0  0  1  0  0  0  0  0  0  0  0  0
    2.2829    1.3970   -1.3582 C   0  0  2  0  0  0  0  0  0  0  0  0
    2.6775   -0.0436   -1.3574 C   0  0  1  0  0  0  0  0  0  0  0  0
    4.1101   -0.4040   -1.3034 C   0  0  0  0  0  0  0  0  0  0  0  0
    4.9046    0.0352   -0.1356 C   0  0  0  0  0  0  0  0  0  0  0  0
    6.3631   -0.3790   -0.1636 C   0  0  1  0  0  0  0  0  0  0  0  0
    6.9460    0.2015    1.1424 C   0  0  0  0  0  0  0  0  0  0  0  0
    8.1384   -0.5658    1.6098 C   0  0  2  0  0  0  0  0  0  0  0  0
    7.6653   -1.8772    2.1946 C   0  0  1  0  0  0  0  0  0  0  0  0
    6.4489   -2.3164    1.4187 C   0  0  0  0  0  0  0  0  0  0  0  0
    6.5259   -1.8563   -0.0377 C   0  0  0  0  0  0  0  0  0  0  0  0
   -3.3854   -4.6591    1.1780 C   0  0  0  0  0  0  0  0  0  0  0  0
   -3.7567    1.5452    2.6943 C   0  0  0  0  0  0  0  0  0  0  0  0
   -4.2354    4.3231   -0.9089 C   0  0  0  0  0  0  0  0  0  0  0  0
   -0.7841    5.2130   -0.9083 C   0  0  0  0  0  0  0  0  0  0  0  0
   -0.3633    6.3557   -0.0441 C   0  0  0  0  0  0  0  0  0  0  0  0
   -0.0018    7.5066   -0.9939 C   0  0  0  0  0  0  0  0  0  0  0  0
    3.2942    2.4451   -1.4905 C   0  0  0  0  0  0  0  0  0  0  0  0
    4.7455   -0.1712   -2.6478 C   0  0  0  0  0  0  0  0  0  0  0  0
   -7.5376   -3.2656   -1.4714 C   0  0  0  0  0  0  0  0  0  0  0  0
   -7.7918    0.1671    1.8234 C   0  0  0  0  0  0  0  0  0  0  0  0
   10.1199    0.4164    2.2742 C   0  0  0  0  0  0  0  0  0  0  0  0
   -0.0147   -3.3601   -0.5290 N   0  0  0  0  0  0  0  0  0  0  0  0
    1.8200   -0.6922   -0.5147 O   0  0  0  0  0  0  0  0  0  0  0  0
    1.2391   -2.0157    1.1236 O   0  0  0  0  0  0  0  0  0  0  0  0
   -0.6360   -1.2651   -1.4300 O   0  0  0  0  0  0  0  0  0  0  0  0
   -1.6098   -0.8639    0.7737 O   0  0  0  0  0  0  0  0  0  0  0  0
   -3.9769   -1.1465    0.2596 O   0  0  0  0  0  0  0  0  0  0  0  0
   -3.5992   -2.8338   -1.1752 O   0  0  0  0  0  0  0  0  0  0  0  0
   -6.2069   -3.0993   -1.1395 O   0  0  0  0  0  0  0  0  0  0  0  0
   -6.4466   -0.1219    1.6878 O   0  0  0  0  0  0  0  0  0  0  0  0
   -0.5051    2.3114    1.3557 O   0  0  0  0  0  0  0  0  0  0  0  0
    2.2600    1.2523    0.9981 O   0  0  0  0  0  0  0  0  0  0  0  0
    8.7981    0.1761    2.5682 O   0  0  0  0  0  0  0  0  0  0  0  0
    8.6740   -2.8317    2.1940 O   0  0  0  0  0  0  0  0  0  0  0  0
    2.9710   -2.2723    0.2330 H   0  0  0  0  0  0  0  0  0  0  0  0
    1.8971   -3.9864   -0.5927 H   0  0  0  0  0  0  0  0  0  0  0  0
    2.6139   -2.7866   -2.5890 H   0  0  0  0  0  0  0  0  0  0  0  0
    0.8459   -2.3598   -2.9451 H   0  0  0  0  0  0  0  0  0  0  0  0
    2.0862   -5.1026   -2.5937 H   0  0  0  0  0  0  0  0  0  0  0  0
    1.2964   -4.3692   -4.0213 H   0  0  0  0  0  0  0  0  0  0  0  0
   -0.8422   -4.2673   -3.0109 H   0  0  0  0  0  0  0  0  0  0  0  0
   -0.1777   -5.9295   -2.7163 H   0  0  0  0  0  0  0  0  0  0  0  0
   -1.2892   -5.0679   -0.7714 H   0  0  0  0  0  0  0  0  0  0  0  0
    0.4861   -5.3667   -0.5067 H   0  0  0  0  0  0  0  0  0  0  0  0
   -1.7179   -2.9591   -1.6374 H   0  0  0  0  0  0  0  0  0  0  0  0
   -1.5607   -2.8248    1.2127 H   0  0  0  0  0  0  0  0  0  0  0  0
   -3.6404   -2.7996    2.1486 H   0  0  0  0  0  0  0  0  0  0  0  0
   -5.8767   -3.0782    2.1243 H   0  0  0  0  0  0  0  0  0  0  0  0
   -5.7769   -4.3346    0.8795 H   0  0  0  0  0  0  0  0  0  0  0  0
   -7.0593   -2.1738    0.4155 H   0  0  0  0  0  0  0  0  0  0  0  0
   -5.2525   -0.9484   -1.2721 H   0  0  0  0  0  0  0  0  0  0  0  0
   -6.8097    0.4477   -0.2142 H   0  0  0  0  0  0  0  0  0  0  0  0
   -5.0678    1.8325   -0.4270 H   0  0  0  0  0  0  0  0  0  0  0  0
   -3.8520    0.7549    0.3171 H   0  0  0  0  0  0  0  0  0  0  0  0
   -5.7980    1.8949    2.2795 H   0  0  0  0  0  0  0  0  0  0  0  0
   -5.6199    3.8019    1.0247 H   0  0  0  0  0  0  0  0  0  0  0  0
   -4.2608    3.9883    2.2301 H   0  0  0  0  0  0  0  0  0  0  0  0
   -3.2185    2.6242   -0.1680 H   0  0  0  0  0  0  0  0  0  0  0  0
   -2.1874    4.0458    1.7837 H   0  0  0  0  0  0  0  0  0  0  0  0
   -2.6478    5.3756    0.6948 H   0  0  0  0  0  0  0  0  0  0  0  0
   -1.4501    3.1993   -0.8824 H   0  0  0  0  0  0  0  0  0  0  0  0
    0.0308    4.2492    1.5389 H   0  0  0  0  0  0  0  0  0  0  0  0
    1.1985    3.5920   -1.0225 H   0  0  0  0  0  0  0  0  0  0  0  0
    2.0132    3.6927    0.6385 H   0  0  0  0  0  0  0  0  0  0  0  0
    0.5885    1.1091   -0.1013 H   0  0  0  0  0  0  0  0  0  0  0  0
    1.4747    1.5823   -2.1411 H   0  0  0  0  0  0  0  0  0  0  0  0
    2.3601   -0.4271   -2.3885 H   0  0  0  0  0  0  0  0  0  0  0  0
    4.1059   -1.5403   -1.2158 H   0  0  0  0  0  0  0  0  0  0  0  0
    4.7972    1.1261    0.0061 H   0  0  0  0  0  0  0  0  0  0  0  0
    4.5511   -0.4090    0.8316 H   0  0  0  0  0  0  0  0  0  0  0  0
    6.9379    0.0957   -0.9599 H   0  0  0  0  0  0  0  0  0  0  0  0
    6.1944    0.2146    1.9415 H   0  0  0  0  0  0  0  0  0  0  0  0
    7.2602    1.2576    0.9685 H   0  0  0  0  0  0  0  0  0  0  0  0
    8.8327   -0.8280    0.7647 H   0  0  0  0  0  0  0  0  0  0  0  0
    7.3389   -1.7540    3.2516 H   0  0  0  0  0  0  0  0  0  0  0  0
    6.4552   -3.4259    1.3895 H   0  0  0  0  0  0  0  0  0  0  0  0
    5.5074   -2.0022    1.8767 H   0  0  0  0  0  0  0  0  0  0  0  0
    5.7783   -2.4697   -0.5747 H   0  0  0  0  0  0  0  0  0  0  0  0
    7.5150   -2.1713   -0.4314 H   0  0  0  0  0  0  0  0  0  0  0  0
   -2.3166   -4.7080    1.4701 H   0  0  0  0  0  0  0  0  0  0  0  0
   -3.9404   -5.2360    1.9456 H   0  0  0  0  0  0  0  0  0  0  0  0
   -3.5317   -5.1940    0.2225 H   0  0  0  0  0  0  0  0  0  0  0  0
   -4.1946    0.8913    3.4891 H   0  0  0  0  0  0  0  0  0  0  0  0
   -2.9096    1.0457    2.2296 H   0  0  0  0  0  0  0  0  0  0  0  0
   -3.4192    2.4740    3.2209 H   0  0  0  0  0  0  0  0  0  0  0  0
   -3.9902    5.3802   -0.7482 H   0  0  0  0  0  0  0  0  0  0  0  0
   -5.3494    4.1639   -0.8962 H   0  0  0  0  0  0  0  0  0  0  0  0
   -3.8082    3.9824   -1.8741 H   0  0  0  0  0  0  0  0  0  0  0  0
   -0.0321    5.0578   -1.6983 H   0  0  0  0  0  0  0  0  0  0  0  0
   -1.7083    5.5484   -1.4667 H   0  0  0  0  0  0  0  0  0  0  0  0
   -1.1456    6.7378    0.6106 H   0  0  0  0  0  0  0  0  0  0  0  0
    0.5305    6.1214    0.5623 H   0  0  0  0  0  0  0  0  0  0  0  0
    0.3607    8.3700   -0.3971 H   0  0  0  0  0  0  0  0  0  0  0  0
   -0.8863    7.7791   -1.5904 H   0  0  0  0  0  0  0  0  0  0  0  0
    0.7765    7.1402   -1.7108 H   0  0  0  0  0  0  0  0  0  0  0  0
    3.5112    3.0356   -0.5472 H   0  0  0  0  0  0  0  0  0  0  0  0
    4.2279    2.2209   -2.0212 H   0  0  0  0  0  0  0  0  0  0  0  0
    2.8564    3.2735   -2.1371 H   0  0  0  0  0  0  0  0  0  0  0  0
    5.6596    0.4262   -2.6378 H   0  0  0  0  0  0  0  0  0  0  0  0
    4.0306    0.2722   -3.3739 H   0  0  0  0  0  0  0  0  0  0  0  0
    5.0614   -1.1295   -3.1650 H   0  0  0  0  0  0  0  0  0  0  0  0
   -8.0168   -3.8378   -0.6495 H   0  0  0  0  0  0  0  0  0  0  0  0
   -8.0744   -2.3013   -1.5972 H   0  0  0  0  0  0  0  0  0  0  0  0
   -7.5949   -3.8221   -2.4054 H   0  0  0  0  0  0  0  0  0  0  0  0
   -7.9571    1.2420    1.5765 H   0  0  0  0  0  0  0  0  0  0  0  0
   -8.4538   -0.4773    1.2207 H   0  0  0  0  0  0  0  0  0  0  0  0
   -8.0613   -0.0281    2.8855 H   0  0  0  0  0  0  0  0  0  0  0  0
   10.5372    1.0182    3.1169 H   0  0  0  0  0  0  0  0  0  0  0  0
   10.2527    1.0729    1.3705 H   0  0  0  0  0  0  0  0  0  0  0  0
   10.7448   -0.4977    2.2209 H   0  0  0  0  0  0  0  0  0  0  0  0
    1.4755   -2.8582    1.5946 H   0  0  0  0  0  0  0  0  0  0  0  0
   -1.2038   -0.9531   -2.1842 H   0  0  0  0  0  0  0  0  0  0  0  0
   -1.6784   -0.3175   -0.0728 H   0  0  0  0  0  0  0  0  0  0  0  0
   -3.5403   -3.8046   -1.2785 H   0  0  0  0  0  0  0  0  0  0  0  0
   -1.1651    1.8479    0.7954 H   0  0  0  0  0  0  0  0  0  0  0  0
    2.2845    1.8705    1.7657 H   0  0  0  0  0  0  0  0  0  0  0  0
    9.4355   -2.4416    1.6834 H   0  0  0  0  0  0  0  0  0  0  0  0
  1  2  1  0
  2  3  1  0
  3  4  1  0
  4  5  1  0
  5  6  1  0
  7  8  1  0
  8  9  1  0
  9 10  1  0
 10 11  1  0
 11 12  1  0
 12 13  1  0
 13 14  1  0
 14 15  1  0
 15 16  1  0
 16 17  1  0
 17 18  1  0
 18 19  1  0
 19 20  1  0
 20 21  1  0
 21 22  1  0
 22 23  1  0
 23 24  1  0
 24 25  1  0
 25 26  1  0
 26 27  1  0
 27 28  1  0
 28 29  1  0
 29 30  1  0
 30 31  1  0
 31 32  1  0
 28 33  1  0
 32 33  1  0
 10 34  1  0
 16 35  1  0
 18 36  1  0
 20 37  1  0
 37 38  1  0
 38 39  1  0
 24 40  1  0
 26 41  1  0
  2 45  1  0
  6 45  1  0
  7 45  1  0
  1 46  1  0
 25 46  1  0
  1 47  1  0
  7 48  1  0
  8 49  1  0
  9 50  1  0
 13 50  1  0
  9 51  1  6
 12 52  1  0
 42 52  1  0
 14 53  1  0
 43 53  1  0
 21 54  1  0
 23 55  1  0
 30 56  1  0
 44 56  1  0
 31 57  1  0
  1 58  1  0
  2 59  1  1
  3 60  1  0
  3 61  1  0
  4 62  1  0
  4 63  1  0
  5 64  1  0
  5 65  1  0
  6 66  1  0
  6 67  1  0
  7 68  1  0
  8 69  1  0
 10 70  1  1
 11 71  1  0
 11 72  1  0
 12 73  1  1
 13 74  1  6
 14 75  1  6
 15 76  1  0
 15 77  1  0
 16 78  1  1
 17 79  1  0
 17 80  1  0
 18 81  1  0
 19 82  1  0
 19 83  1  0
 20 84  1  6
 21 85  1  0
 22 86  1  0
 22 87  1  0
 23 88  1  6
 24 89  1  6
 25 90  1  6
 26 91  1  0
 27 92  1  0
 27 93  1  0
 28 94  1  6
 29 95  1  0
 29 96  1  0
 30 97  1  6
 31 98  1  1
 32 99  1  0
 32100  1  0
 33101  1  0
 33102  1  0
 34103  1  0
 34104  1  0
 34105  1  0
 35106  1  0
 35107  1  0
 35108  1  0
 36109  1  0
 36110  1  0
 36111  1  0
 37112  1  0
 37113  1  0
 38114  1  0
 38115  1  0
 39116  1  0
 39117  1  0
 39118  1  0
 40119  1  0
 40120  1  0
 40121  1  0
 41122  1  0
 41123  1  0
 41124  1  0
 42125  1  0
 42126  1  0
 42127  1  0
 43128  1  0
 43129  1  0
 43130  1  0
 44131  1  0
 44132  1  0
 44133  1  0
 47134  1  0
 48135  1  0
 49136  1  0
 51137  1  0
 54138  1  0
 55139  1  0
 57140  1  0
M  END
>  <PDBID>  (1) 
1FKF

>  <PDB ID>  (1) 
1FKF

>  <Generic Name>  (1) 
Tacrolimus

>  <Brand Name>  (1) 
Ach-tacrolimus#Advagraf#Astagraf XL#Envarsus XR#Hecoria#Prograf#Protopic#Ran-tacrolimus#Sandoz Tacrolimus#Tacrolimus

>  <DrugBank ID>  (1) 
DB00864

>  <ATC Codes>  (1) 
D11AH01#L04AD02

>  <Ligand ID>  (1) 
FK5

>  <Target Name>  (1) 
Peptidyl-prolyl cis-trans isomerase FKBP1A

>  <UniProt ID>  (1) 
P62942

>  <PDB ID.1>  (1) 
1FKF

>  <Seq. Identity>  (1) 
100%

$$$$
