PDB_DB00398_07
     RDKit          3D

 70 72  0  0  0  0  0  0  0  0999 V2000
    5.1648   -0.6193   -0.8026 C   0  0  0  0  0  0  0  0  0  0  0  0
    5.2760    0.7724   -0.3129 C   0  0  2  0  0  0  0  0  0  0  0  0
    6.7024    1.2789   -0.1585 C   0  0  0  0  0  0  0  0  0  0  0  0
    7.6628    0.4995   -1.0296 C   0  0  0  0  0  0  0  0  0  0  0  0
    3.0953    1.0668    0.7630 C   0  0  0  0  0  0  0  0  0  0  0  0
    1.0213   -0.1946    0.4984 C   0  0  0  0  0  0  0  0  0  0  0  0
    0.5072   -1.2334   -0.4972 C   0  0  0  0  0  0  0  0  0  0  0  0
   -1.0036   -1.2176   -0.4693 C   0  0  0  0  0  0  0  0  0  0  0  0
   -1.6193    0.0437   -0.9824 C   0  0  0  0  0  0  0  0  0  0  0  0
   -0.5035    1.0808   -0.9997 C   0  0  0  0  0  0  0  0  0  0  0  0
    0.2999    1.0816    0.2918 C   0  0  0  0  0  0  0  0  0  0  0  0
   -2.6569    0.4024   -0.1695 O   0  0  0  0  0  0  0  0  0  0  0  0
   -4.0912    2.1751   -0.5383 C   0  0  0  0  0  0  0  0  0  0  0  0
   -5.3768    2.4510    0.2009 C   0  0  0  0  0  0  0  0  0  0  0  0
   -6.3346    0.2593   -0.2927 C   0  0  0  0  0  0  0  0  0  0  0  0
   -4.9344   -0.1917   -0.3529 C   0  0  0  0  0  0  0  0  0  0  0  0
   -7.1558   -1.8739    0.5136 N   0  0  0  0  0  0  0  0  0  0  0  0
   -7.7115   -2.3423   -0.7129 C   0  0  0  0  0  0  0  0  0  0  0  0
    7.6661   -0.9685   -0.6758 C   0  0  0  0  0  0  0  0  0  0  0  0
    6.3158   -1.5314   -0.3729 C   0  0  0  0  0  0  0  0  0  0  0  0
    6.1696   -2.0112    1.0469 C   0  0  0  0  0  0  0  0  0  0  0  0
    5.0003   -2.7299    1.2243 F   0  0  0  0  0  0  0  0  0  0  0  0
    6.2498   -1.0185    1.9743 F   0  0  0  0  0  0  0  0  0  0  0  0
    7.1934   -2.9240    1.3307 F   0  0  0  0  0  0  0  0  0  0  0  0
    8.7425   -1.2313    0.7497 Cl  0  0  0  0  0  0  0  0  0  0  0  0
    4.5080    1.0753    0.8422 N   0  0  0  0  0  0  0  0  0  0  0  0
    2.4349   -0.1709    0.5549 N   0  0  0  0  0  0  0  0  0  0  0  0
    2.5707    1.7519    1.8844 O   0  0  0  0  0  0  0  0  0  0  0  0
   -3.8671    0.7032   -0.7817 C   0  0  0  0  0  0  0  0  0  0  0  0
   -6.4518    1.6486   -0.1985 N   0  0  0  0  0  0  0  0  0  0  0  0
   -7.1688   -0.4786    0.7406 C   0  0  0  0  0  0  0  0  0  0  0  0
   -6.8273   -0.1812    2.0341 O   0  0  0  0  0  0  0  0  0  0  0  0
    4.2497   -1.1036   -0.4862 H   0  0  0  0  0  0  0  0  0  0  0  0
    5.2117   -0.6475   -1.9290 H   0  0  0  0  0  0  0  0  0  0  0  0
    4.7906    1.4090   -1.1485 H   0  0  0  0  0  0  0  0  0  0  0  0
    6.7182    2.3251   -0.5320 H   0  0  0  0  0  0  0  0  0  0  0  0
    6.9868    1.3147    0.8922 H   0  0  0  0  0  0  0  0  0  0  0  0
    8.6865    0.8943   -0.8106 H   0  0  0  0  0  0  0  0  0  0  0  0
    7.4579    0.7167   -2.0812 H   0  0  0  0  0  0  0  0  0  0  0  0
    2.8574    1.7103   -0.1587 H   0  0  0  0  0  0  0  0  0  0  0  0
    0.6727   -0.5874    1.5111 H   0  0  0  0  0  0  0  0  0  0  0  0
    0.9612   -1.1914   -1.4769 H   0  0  0  0  0  0  0  0  0  0  0  0
    0.7900   -2.2150   -0.0289 H   0  0  0  0  0  0  0  0  0  0  0  0
   -1.2966   -1.3647    0.6127 H   0  0  0  0  0  0  0  0  0  0  0  0
   -1.3923   -2.1270   -0.9847 H   0  0  0  0  0  0  0  0  0  0  0  0
   -1.8929   -0.0835   -2.0463 H   0  0  0  0  0  0  0  0  0  0  0  0
    0.1965    0.7614   -1.7962 H   0  0  0  0  0  0  0  0  0  0  0  0
   -0.8546    2.0739   -1.2428 H   0  0  0  0  0  0  0  0  0  0  0  0
   -0.3458    1.3598    1.1626 H   0  0  0  0  0  0  0  0  0  0  0  0
    1.0100    1.9206    0.1965 H   0  0  0  0  0  0  0  0  0  0  0  0
   -4.1274    2.7453   -1.4837 H   0  0  0  0  0  0  0  0  0  0  0  0
   -3.2681    2.6207    0.0476 H   0  0  0  0  0  0  0  0  0  0  0  0
   -5.2152    2.3184    1.2971 H   0  0  0  0  0  0  0  0  0  0  0  0
   -5.6560    3.5209    0.0990 H   0  0  0  0  0  0  0  0  0  0  0  0
   -6.8404   -0.0387   -1.2734 H   0  0  0  0  0  0  0  0  0  0  0  0
   -4.6973   -0.6756    0.6516 H   0  0  0  0  0  0  0  0  0  0  0  0
   -4.9550   -1.1285   -1.0187 H   0  0  0  0  0  0  0  0  0  0  0  0
   -6.3978   -2.4268    0.9048 H   0  0  0  0  0  0  0  0  0  0  0  0
   -8.5476   -1.7346   -1.0631 H   0  0  0  0  0  0  0  0  0  0  0  0
   -6.9056   -2.5054   -1.4726 H   0  0  0  0  0  0  0  0  0  0  0  0
   -8.1179   -3.3765   -0.5024 H   0  0  0  0  0  0  0  0  0  0  0  0
    8.1771   -1.4919   -1.5100 H   0  0  0  0  0  0  0  0  0  0  0  0
    6.1795   -2.4586   -1.0098 H   0  0  0  0  0  0  0  0  0  0  0  0
    4.8562    1.9483    1.2849 H   0  0  0  0  0  0  0  0  0  0  0  0
    2.7470   -0.8624    1.2839 H   0  0  0  0  0  0  0  0  0  0  0  0
    3.1717    1.4985    2.6532 H   0  0  0  0  0  0  0  0  0  0  0  0
   -3.6937    0.5814   -1.8826 H   0  0  0  0  0  0  0  0  0  0  0  0
   -7.2949    2.0627   -0.5767 H   0  0  0  0  0  0  0  0  0  0  0  0
   -8.2233   -0.1202    0.5616 H   0  0  0  0  0  0  0  0  0  0  0  0
   -6.8767   -1.0148    2.5639 H   0  0  0  0  0  0  0  0  0  0  0  0
  1  2  1  0
  2  3  1  0
  3  4  1  0
  6  7  1  0
  7  8  1  0
  8  9  1  0
  9 10  1  0
  6 11  1  0
 10 11  1  0
  9 12  1  0
 13 14  1  0
 15 16  1  0
 17 18  1  0
  4 19  1  0
  1 20  1  0
 19 20  1  0
 20 21  1  0
 21 22  1  0
 21 23  1  0
 21 24  1  0
 19 25  1  0
  2 26  1  0
  5 26  1  0
  5 27  1  0
  6 27  1  0
  5 28  1  0
 12 29  1  0
 13 29  1  0
 16 29  1  0
 14 30  1  0
 15 30  1  0
 15 31  1  0
 17 31  1  0
 31 32  1  0
  1 33  1  0
  1 34  1  0
  2 35  1  6
  3 36  1  0
  3 37  1  0
  4 38  1  0
  4 39  1  0
  5 40  1  0
  6 41  1  0
  7 42  1  0
  7 43  1  0
  8 44  1  0
  8 45  1  0
  9 46  1  0
 10 47  1  0
 10 48  1  0
 11 49  1  0
 11 50  1  0
 13 51  1  0
 13 52  1  0
 14 53  1  0
 14 54  1  0
 15 55  1  0
 16 56  1  0
 16 57  1  0
 17 58  1  0
 18 59  1  0
 18 60  1  0
 18 61  1  0
 19 62  1  0
 20 63  1  0
 26 64  1  0
 27 65  1  0
 28 66  1  0
 29 67  1  0
 30 68  1  0
 31 69  1  0
 32 70  1  0
M  END
>  <PDBID>  (1) 
3WZE

>  <PDB ID>  (1) 
3WZE

>  <Generic Name>  (1) 
Sorafenib

>  <Brand Name>  (1) 
Nexavar

>  <DrugBank ID>  (1) 
DB00398

>  <ATC Codes>  (1) 
L01XE05

>  <Ligand ID>  (1) 
BAX

>  <Target Name>  (1) 
Vascular endothelial growth factor receptor 3

>  <UniProt ID>  (1) 
P35916

>  <PDB ID.1>  (1) 
3WZE

>  <Seq. Identity>  (1) 
67%

$$$$
