PDB_DB00412_06
     RDKit          3D

 60 62  0  0  0  0  0  0  0  0999 V2000
    5.6988   -1.5193   -0.7225 S   0  0  0  0  0  0  0  0  0  0  0  0
    8.1631   -1.4380   -1.7086 O   0  0  0  0  0  0  0  0  0  0  0  0
    6.8222    2.0053    0.0756 O   0  0  0  0  0  0  0  0  0  0  0  0
   -0.8255   -0.2953    1.0557 O   0  0  0  0  0  0  0  0  0  0  0  0
    7.6018   -0.1319    0.1568 N   0  0  0  0  0  0  0  0  0  0  0  0
   -3.6648    0.1743    0.4311 N   0  0  0  0  0  0  0  0  0  0  0  0
   -5.5551    1.3581   -0.3919 N   0  0  0  0  0  0  0  0  0  0  0  0
    7.5226   -1.4310   -0.4887 C   0  0  0  0  0  0  0  0  0  0  0  0
    6.8153    0.7949   -0.6065 C   0  0  0  0  0  0  0  0  0  0  0  0
    5.3910    0.2915   -0.6235 C   0  0  2  0  0  0  0  0  0  0  0  0
    4.6391    0.6439    0.6199 C   0  0  0  0  0  0  0  0  0  0  0  0
    3.3030   -0.0720    0.6309 C   0  0  0  0  0  0  0  0  0  0  0  0
    2.5443    0.2905    1.8978 C   0  0  0  0  0  0  0  0  0  0  0  0
    1.3452   -0.6234    2.0142 C   0  0  0  0  0  0  0  0  0  0  0  0
    0.4990   -0.6048    0.7396 C   0  0  0  0  0  0  0  0  0  0  0  0
    0.9839    0.4260   -0.2278 C   0  0  0  0  0  0  0  0  0  0  0  0
    2.4480    0.3814   -0.5277 C   0  0  0  0  0  0  0  0  0  0  0  0
   -1.7012   -1.2989    0.7327 C   0  0  0  0  0  0  0  0  0  0  0  0
   -3.1207   -0.9672    1.0691 C   0  0  0  0  0  0  0  0  0  0  0  0
   -3.1565    1.4441    0.7981 C   0  0  0  0  0  0  0  0  0  0  0  0
   -5.0326    0.0896    0.0707 C   0  0  0  0  0  0  0  0  0  0  0  0
   -6.7024    1.1802   -1.2633 C   0  0  0  0  0  0  0  0  0  0  0  0
   -7.5872    0.1130   -0.6334 C   0  0  0  0  0  0  0  0  0  0  0  0
   -6.8981   -1.2278   -0.7535 C   0  0  0  0  0  0  0  0  0  0  0  0
   -5.3956   -0.9599   -0.9256 C   0  0  0  0  0  0  0  0  0  0  0  0
    7.5934   -1.0115   -2.3940 H   0  0  0  0  0  0  0  0  0  0  0  0
    6.8134    2.7889   -0.5179 H   0  0  0  0  0  0  0  0  0  0  0  0
    8.5709    0.2110    0.1646 H   0  0  0  0  0  0  0  0  0  0  0  0
   -5.7577    2.0308    0.3798 H   0  0  0  0  0  0  0  0  0  0  0  0
    7.8657   -2.2028    0.2057 H   0  0  0  0  0  0  0  0  0  0  0  0
    7.2453    0.9206   -1.6064 H   0  0  0  0  0  0  0  0  0  0  0  0
    4.8216    0.5662   -1.5079 H   0  0  0  0  0  0  0  0  0  0  0  0
    5.1908    0.4088    1.5475 H   0  0  0  0  0  0  0  0  0  0  0  0
    4.4192    1.7264    0.5723 H   0  0  0  0  0  0  0  0  0  0  0  0
    3.4441   -1.1637    0.5786 H   0  0  0  0  0  0  0  0  0  0  0  0
    2.2066    1.3346    1.7728 H   0  0  0  0  0  0  0  0  0  0  0  0
    3.1547    0.1328    2.8015 H   0  0  0  0  0  0  0  0  0  0  0  0
    0.7349   -0.2318    2.8798 H   0  0  0  0  0  0  0  0  0  0  0  0
    1.7308   -1.6518    2.2237 H   0  0  0  0  0  0  0  0  0  0  0  0
    0.4979   -1.6249    0.2817 H   0  0  0  0  0  0  0  0  0  0  0  0
    0.6418    1.4167    0.1380 H   0  0  0  0  0  0  0  0  0  0  0  0
    0.4436    0.2624   -1.1880 H   0  0  0  0  0  0  0  0  0  0  0  0
    2.6435   -0.1746   -1.4625 H   0  0  0  0  0  0  0  0  0  0  0  0
    2.7716    1.4403   -0.7520 H   0  0  0  0  0  0  0  0  0  0  0  0
   -1.4569   -2.2614    1.2376 H   0  0  0  0  0  0  0  0  0  0  0  0
   -1.6578   -1.5139   -0.3645 H   0  0  0  0  0  0  0  0  0  0  0  0
   -3.1232   -0.7536    2.1819 H   0  0  0  0  0  0  0  0  0  0  0  0
   -3.8071   -1.8305    0.9286 H   0  0  0  0  0  0  0  0  0  0  0  0
   -2.3879    1.3254    1.5937 H   0  0  0  0  0  0  0  0  0  0  0  0
   -3.9594    2.0619    1.2989 H   0  0  0  0  0  0  0  0  0  0  0  0
   -2.7452    2.0335   -0.0492 H   0  0  0  0  0  0  0  0  0  0  0  0
   -5.6112   -0.1514    1.0093 H   0  0  0  0  0  0  0  0  0  0  0  0
   -7.2702    2.1393   -1.2432 H   0  0  0  0  0  0  0  0  0  0  0  0
   -6.4495    0.8766   -2.2772 H   0  0  0  0  0  0  0  0  0  0  0  0
   -7.7322    0.3899    0.4481 H   0  0  0  0  0  0  0  0  0  0  0  0
   -8.5966    0.0864   -1.0863 H   0  0  0  0  0  0  0  0  0  0  0  0
   -7.0096   -1.7369    0.2378 H   0  0  0  0  0  0  0  0  0  0  0  0
   -7.2966   -1.8540   -1.5529 H   0  0  0  0  0  0  0  0  0  0  0  0
   -5.1647   -0.6750   -1.9752 H   0  0  0  0  0  0  0  0  0  0  0  0
   -4.9016   -1.9380   -0.7662 H   0  0  0  0  0  0  0  0  0  0  0  0
  1  8  1  0
  2  8  1  0
  5  8  1  0
  3  9  1  0
  5  9  1  0
  1 10  1  0
  9 10  1  0
 10 11  1  0
 11 12  1  0
 12 13  1  0
 13 14  1  0
  4 15  1  0
 14 15  1  0
 15 16  1  0
 12 17  1  0
 16 17  1  0
  4 18  1  0
  6 19  1  0
 18 19  1  0
  6 20  1  0
  6 21  1  0
  7 21  1  0
  7 22  1  0
 22 23  1  0
 23 24  1  0
 21 25  1  0
 24 25  1  0
  2 26  1  0
  3 27  1  0
  5 28  1  0
  7 29  1  0
  8 30  1  0
  9 31  1  0
 10 32  1  6
 11 33  1  0
 11 34  1  0
 12 35  1  0
 13 36  1  0
 13 37  1  0
 14 38  1  0
 14 39  1  0
 15 40  1  0
 16 41  1  0
 16 42  1  0
 17 43  1  0
 17 44  1  0
 18 45  1  0
 18 46  1  0
 19 47  1  0
 19 48  1  0
 20 49  1  0
 20 50  1  0
 20 51  1  0
 21 52  1  0
 22 53  1  0
 22 54  1  0
 23 55  1  0
 23 56  1  0
 24 57  1  0
 24 58  1  0
 25 59  1  0
 25 60  1  0
M  END
>  <PDBID>  (1) 
3DZY

>  <PDB ID>  (1) 
3DZY

>  <Generic Name>  (1) 
Rosiglitazone

>  <Brand Name>  (1) 
Apo-rosiglitazone#Avandamet#Avandaryl#Avandia#Avandia 2mg#Avandia 4mg#Avandia 8mg#Dom-rosiglitazone#Mylan-rosiglitazone#PHL-rosiglitazone#PMS-rosiglitazone#PMS-rosiglitazone-metformin#Teva-rosiglitazone#Blutab#DH-Rosidia#Diaben#Diaglinex#Gaudil#Gliximina#Naidi#Rogelin#Roglit#Romerol#Rosit#Rosix#Rossini#Sensulin#Sheng Ao#Sheng Min

>  <DrugBank ID>  (1) 
DB00412

>  <ATC Codes>  (1) 
A10BD03#A10BG02#A10BD04

>  <Ligand ID>  (1) 
BRL,RGZ

>  <Target Name>  (1) 
Peroxisome proliferator-activated receptor gamma

>  <UniProt ID>  (1) 
P37231

>  <PDB ID.1>  (1) 
3DZY

>  <Seq. Identity>  (1) 
97%

$$$$
