PDB_DB00328_02
     RDKit          3D

236244  0  0  0  0  0  0  0  0999 V2000
   -0.3389    0.4384    0.2260 C   0  0  0  0  0  0  0  0  0  0  0  0
   -1.7929   -0.1006    0.1819 C   0  0  0  0  0  0  0  0  0  0  0  0
   -2.5298    0.8012   -0.7652 C   0  0  0  0  0  0  0  0  0  0  0  0
   -2.5460    2.1891   -0.1368 C   0  0  0  0  0  0  0  0  0  0  0  0
   -1.1550    2.7030    0.1085 C   0  0  0  0  0  0  0  0  0  0  0  0
   -0.4526    1.6922    1.0346 C   0  0  0  0  0  0  0  0  0  0  0  0
   -4.3857    2.9298    1.0313 C   0  0  0  0  0  0  0  0  0  0  0  0
   -1.5526   -1.4742   -0.3551 C   0  0  1  0  0  0  0  0  0  0  0  0
   -0.2377   -1.8316    0.3573 C   0  0  0  0  0  0  0  0  0  0  0  0
    1.7449   -0.6419    1.0070 C   0  0  0  0  0  0  0  0  0  0  0  0
    2.7868   -0.3901   -0.0476 C   0  0  0  0  0  0  0  0  0  0  0  0
    4.1400   -0.5101    0.6218 C   0  0  0  0  0  0  0  0  0  0  0  0
    5.2842   -0.1738   -0.3100 C   0  0  0  0  0  0  0  0  0  0  0  0
    5.0901    1.3217   -0.6039 C   0  0  0  0  0  0  0  0  0  0  0  0
    3.8662    1.4289   -1.4283 C   0  0  0  0  0  0  0  0  0  0  0  0
    2.6149    0.8346   -0.8490 C   0  0  0  0  0  0  0  0  0  0  0  0
    0.5362   -2.8310   -0.4325 C   0  0  0  0  0  0  0  0  0  0  0  0
   -2.5647   -2.4911    0.0815 C   0  0  0  0  0  0  0  0  0  0  0  0
   -3.9726   -2.1932   -0.3138 C   0  0  0  0  0  0  0  0  0  0  0  0
    0.4191   -0.6032    0.6646 N   0  0  0  0  0  0  0  0  0  0  0  0
   -3.2285    2.1442    1.0568 O   0  0  0  0  0  0  0  0  0  0  0  0
    2.1175    0.1539    2.1048 O   0  0  0  0  0  0  0  0  0  0  0  0
   -4.1224   -2.1022   -1.6865 O   0  0  0  0  0  0  0  0  0  0  0  0
   -4.7379   -3.3223    0.0695 O   0  0  0  0  0  0  0  0  0  0  0  0
    5.0442    2.2050    0.9108 Cl  0  0  0  0  0  0  0  0  0  0  0  0
   -0.3389    0.4384    0.2260 C   0  0  0  0  0  0  0  0  0  0  0  0
   -1.7929   -0.1006    0.1819 C   0  0  0  0  0  0  0  0  0  0  0  0
   -2.5298    0.8012   -0.7652 C   0  0  0  0  0  0  0  0  0  0  0  0
   -2.5460    2.1891   -0.1368 C   0  0  0  0  0  0  0  0  0  0  0  0
   -1.1550    2.7030    0.1085 C   0  0  0  0  0  0  0  0  0  0  0  0
   -0.4526    1.6922    1.0346 C   0  0  0  0  0  0  0  0  0  0  0  0
   -4.3857    2.9298    1.0313 C   0  0  0  0  0  0  0  0  0  0  0  0
   -1.5526   -1.4742   -0.3551 C   0  0  1  0  0  0  0  0  0  0  0  0
   -0.2377   -1.8316    0.3573 C   0  0  0  0  0  0  0  0  0  0  0  0
    1.7449   -0.6419    1.0070 C   0  0  0  0  0  0  0  0  0  0  0  0
    2.7868   -0.3901   -0.0476 C   0  0  0  0  0  0  0  0  0  0  0  0
    4.1400   -0.5101    0.6218 C   0  0  0  0  0  0  0  0  0  0  0  0
    5.2842   -0.1738   -0.3100 C   0  0  0  0  0  0  0  0  0  0  0  0
    5.0901    1.3217   -0.6039 C   0  0  0  0  0  0  0  0  0  0  0  0
    3.8662    1.4289   -1.4283 C   0  0  0  0  0  0  0  0  0  0  0  0
    2.6149    0.8346   -0.8490 C   0  0  0  0  0  0  0  0  0  0  0  0
    0.5362   -2.8310   -0.4325 C   0  0  0  0  0  0  0  0  0  0  0  0
   -2.5647   -2.4911    0.0815 C   0  0  0  0  0  0  0  0  0  0  0  0
   -3.9726   -2.1932   -0.3138 C   0  0  0  0  0  0  0  0  0  0  0  0
    0.4191   -0.6032    0.6646 N   0  0  0  0  0  0  0  0  0  0  0  0
   -3.2285    2.1442    1.0568 O   0  0  0  0  0  0  0  0  0  0  0  0
    2.1175    0.1539    2.1048 O   0  0  0  0  0  0  0  0  0  0  0  0
   -4.1224   -2.1022   -1.6865 O   0  0  0  0  0  0  0  0  0  0  0  0
   -4.7379   -3.3223    0.0695 O   0  0  0  0  0  0  0  0  0  0  0  0
    5.0442    2.2050    0.9108 Cl  0  0  0  0  0  0  0  0  0  0  0  0
   -0.4749    0.6270    0.0451 C   0  0  0  0  0  0  0  0  0  0  0  0
   -1.9723    0.2805    0.2728 C   0  0  0  0  0  0  0  0  0  0  0  0
   -2.7050    0.8386   -0.8918 C   0  0  0  0  0  0  0  0  0  0  0  0
   -2.5931    2.3683   -0.7387 C   0  0  0  0  0  0  0  0  0  0  0  0
   -1.1365    2.7673   -0.8304 C   0  0  0  0  0  0  0  0  0  0  0  0
   -0.3963    2.0702    0.3332 C   0  0  0  0  0  0  0  0  0  0  0  0
   -4.0582    3.6744    0.4706 C   0  0  0  0  0  0  0  0  0  0  0  0
   -1.9923   -1.1568    0.5251 C   0  0  0  0  0  0  0  0  0  0  0  0
   -0.5595   -1.5903    0.3358 C   0  0  0  0  0  0  0  0  0  0  0  0
    1.4294   -0.5216    1.2012 C   0  0  0  0  0  0  0  0  0  0  0  0
    2.6308   -0.4919    0.2843 C   0  0  0  0  0  0  0  0  0  0  0  0
    3.8894   -0.7349    1.1480 C   0  0  0  0  0  0  0  0  0  0  0  0
    5.1224   -0.6158    0.2991 C   0  0  0  0  0  0  0  0  0  0  0  0
    5.1869    0.7693   -0.2812 C   0  0  0  0  0  0  0  0  0  0  0  0
    4.0255    0.9220   -1.2345 C   0  0  0  0  0  0  0  0  0  0  0  0
    2.7441    0.8087   -0.4309 C   0  0  0  0  0  0  0  0  0  0  0  0
   -0.1967   -2.0736   -1.0128 C   0  0  0  0  0  0  0  0  0  0  0  0
   -2.9836   -1.9493   -0.2561 C   0  0  0  0  0  0  0  0  0  0  0  0
   -3.0065   -3.4207    0.0577 C   0  0  0  0  0  0  0  0  0  0  0  0
    0.1986   -0.3469    0.6755 N   0  0  0  0  0  0  0  0  0  0  0  0
   -3.0087    2.7337    0.5609 O   0  0  0  0  0  0  0  0  0  0  0  0
    1.7757    0.2983    2.2904 O   0  0  0  0  0  0  0  0  0  0  0  0
   -3.9726   -4.0681   -0.7494 O   0  0  0  0  0  0  0  0  0  0  0  0
   -1.7889   -4.0544    0.0473 O   0  0  0  0  0  0  0  0  0  0  0  0
    4.9706    1.9625    1.0191 Cl  0  0  0  0  0  0  0  0  0  0  0  0
   -0.3389    0.4384    0.2260 C   0  0  0  0  0  0  0  0  0  0  0  0
   -1.7929   -0.1006    0.1819 C   0  0  0  0  0  0  0  0  0  0  0  0
   -2.5298    0.8012   -0.7652 C   0  0  0  0  0  0  0  0  0  0  0  0
   -2.5460    2.1891   -0.1368 C   0  0  0  0  0  0  0  0  0  0  0  0
   -1.1550    2.7030    0.1085 C   0  0  0  0  0  0  0  0  0  0  0  0
   -0.4526    1.6922    1.0346 C   0  0  0  0  0  0  0  0  0  0  0  0
   -4.3857    2.9298    1.0313 C   0  0  0  0  0  0  0  0  0  0  0  0
   -1.5526   -1.4742   -0.3551 C   0  0  1  0  0  0  0  0  0  0  0  0
   -0.2377   -1.8316    0.3573 C   0  0  0  0  0  0  0  0  0  0  0  0
    1.7449   -0.6419    1.0070 C   0  0  0  0  0  0  0  0  0  0  0  0
    2.7868   -0.3901   -0.0476 C   0  0  0  0  0  0  0  0  0  0  0  0
    4.1400   -0.5101    0.6218 C   0  0  0  0  0  0  0  0  0  0  0  0
    5.2842   -0.1738   -0.3100 C   0  0  0  0  0  0  0  0  0  0  0  0
    5.0901    1.3217   -0.6039 C   0  0  0  0  0  0  0  0  0  0  0  0
    3.8662    1.4289   -1.4283 C   0  0  0  0  0  0  0  0  0  0  0  0
    2.6149    0.8346   -0.8490 C   0  0  0  0  0  0  0  0  0  0  0  0
    0.5362   -2.8310   -0.4325 C   0  0  0  0  0  0  0  0  0  0  0  0
   -2.5647   -2.4911    0.0815 C   0  0  0  0  0  0  0  0  0  0  0  0
   -3.9726   -2.1932   -0.3138 C   0  0  0  0  0  0  0  0  0  0  0  0
    0.4191   -0.6032    0.6646 N   0  0  0  0  0  0  0  0  0  0  0  0
   -3.2285    2.1442    1.0568 O   0  0  0  0  0  0  0  0  0  0  0  0
    2.1175    0.1539    2.1048 O   0  0  0  0  0  0  0  0  0  0  0  0
   -4.1224   -2.1022   -1.6865 O   0  0  0  0  0  0  0  0  0  0  0  0
   -4.7379   -3.3223    0.0695 O   0  0  0  0  0  0  0  0  0  0  0  0
    5.0442    2.2050    0.9108 Cl  0  0  0  0  0  0  0  0  0  0  0  0
   -0.1356    0.7188   -0.8236 H   0  0  0  0  0  0  0  0  0  0  0  0
   -2.2150   -0.1373    1.1874 H   0  0  0  0  0  0  0  0  0  0  0  0
   -3.5609    0.5185   -0.9729 H   0  0  0  0  0  0  0  0  0  0  0  0
   -1.9464    0.8316   -1.7074 H   0  0  0  0  0  0  0  0  0  0  0  0
   -3.1061    2.8528   -0.8231 H   0  0  0  0  0  0  0  0  0  0  0  0
   -0.6061    2.7982   -0.8416 H   0  0  0  0  0  0  0  0  0  0  0  0
   -1.2301    3.6282    0.6918 H   0  0  0  0  0  0  0  0  0  0  0  0
    0.4654    2.1770    1.3316 H   0  0  0  0  0  0  0  0  0  0  0  0
   -1.1930    1.5504    1.8695 H   0  0  0  0  0  0  0  0  0  0  0  0
   -4.9067    2.8774    1.9861 H   0  0  0  0  0  0  0  0  0  0  0  0
   -4.1063    3.9690    0.7793 H   0  0  0  0  0  0  0  0  0  0  0  0
   -5.0673    2.5757    0.2286 H   0  0  0  0  0  0  0  0  0  0  0  0
   -1.3975   -1.4837   -1.4565 H   0  0  0  0  0  0  0  0  0  0  0  0
   -0.5233   -2.3129    1.3177 H   0  0  0  0  0  0  0  0  0  0  0  0
    1.9736   -1.6929    1.3946 H   0  0  0  0  0  0  0  0  0  0  0  0
    2.7411   -1.2968   -0.7293 H   0  0  0  0  0  0  0  0  0  0  0  0
    4.2230    0.1748    1.4718 H   0  0  0  0  0  0  0  0  0  0  0  0
    4.2218   -1.5400    1.0207 H   0  0  0  0  0  0  0  0  0  0  0  0
    5.2152   -0.7765   -1.2156 H   0  0  0  0  0  0  0  0  0  0  0  0
    6.2162   -0.3544    0.2573 H   0  0  0  0  0  0  0  0  0  0  0  0
    5.9560    1.5985   -1.2439 H   0  0  0  0  0  0  0  0  0  0  0  0
    3.6688    2.4974   -1.6477 H   0  0  0  0  0  0  0  0  0  0  0  0
    4.1079    0.9784   -2.4345 H   0  0  0  0  0  0  0  0  0  0  0  0
    2.0305    1.6494   -0.3800 H   0  0  0  0  0  0  0  0  0  0  0  0
    2.0054    0.5429   -1.7632 H   0  0  0  0  0  0  0  0  0  0  0  0
   -0.0942   -3.7556   -0.4677 H   0  0  0  0  0  0  0  0  0  0  0  0
    1.4388   -3.1143    0.1225 H   0  0  0  0  0  0  0  0  0  0  0  0
    0.8313   -2.5021   -1.4406 H   0  0  0  0  0  0  0  0  0  0  0  0
   -2.3013   -3.4936   -0.3101 H   0  0  0  0  0  0  0  0  0  0  0  0
   -2.5043   -2.5839    1.1939 H   0  0  0  0  0  0  0  0  0  0  0  0
   -4.4353   -1.3466    0.2309 H   0  0  0  0  0  0  0  0  0  0  0  0
    2.4504    1.0165    1.8263 H   0  0  0  0  0  0  0  0  0  0  0  0
   -3.9198   -2.9990   -2.0586 H   0  0  0  0  0  0  0  0  0  0  0  0
   -4.3231   -3.7426    0.8790 H   0  0  0  0  0  0  0  0  0  0  0  0
   -0.1356    0.7188   -0.8236 H   0  0  0  0  0  0  0  0  0  0  0  0
   -2.2150   -0.1373    1.1874 H   0  0  0  0  0  0  0  0  0  0  0  0
   -3.5609    0.5185   -0.9729 H   0  0  0  0  0  0  0  0  0  0  0  0
   -1.9464    0.8316   -1.7074 H   0  0  0  0  0  0  0  0  0  0  0  0
   -3.1061    2.8528   -0.8231 H   0  0  0  0  0  0  0  0  0  0  0  0
   -0.6061    2.7982   -0.8416 H   0  0  0  0  0  0  0  0  0  0  0  0
   -1.2301    3.6282    0.6918 H   0  0  0  0  0  0  0  0  0  0  0  0
    0.4654    2.1770    1.3316 H   0  0  0  0  0  0  0  0  0  0  0  0
   -1.1930    1.5504    1.8695 H   0  0  0  0  0  0  0  0  0  0  0  0
   -4.9067    2.8774    1.9861 H   0  0  0  0  0  0  0  0  0  0  0  0
   -4.1063    3.9690    0.7793 H   0  0  0  0  0  0  0  0  0  0  0  0
   -5.0673    2.5757    0.2286 H   0  0  0  0  0  0  0  0  0  0  0  0
   -1.3975   -1.4837   -1.4565 H   0  0  0  0  0  0  0  0  0  0  0  0
   -0.5233   -2.3129    1.3177 H   0  0  0  0  0  0  0  0  0  0  0  0
    1.9736   -1.6929    1.3946 H   0  0  0  0  0  0  0  0  0  0  0  0
    2.7411   -1.2968   -0.7293 H   0  0  0  0  0  0  0  0  0  0  0  0
    4.2230    0.1748    1.4718 H   0  0  0  0  0  0  0  0  0  0  0  0
    4.2218   -1.5400    1.0207 H   0  0  0  0  0  0  0  0  0  0  0  0
    5.2152   -0.7765   -1.2156 H   0  0  0  0  0  0  0  0  0  0  0  0
    6.2162   -0.3544    0.2573 H   0  0  0  0  0  0  0  0  0  0  0  0
    5.9560    1.5985   -1.2439 H   0  0  0  0  0  0  0  0  0  0  0  0
    3.6688    2.4974   -1.6477 H   0  0  0  0  0  0  0  0  0  0  0  0
    4.1079    0.9784   -2.4345 H   0  0  0  0  0  0  0  0  0  0  0  0
    2.0305    1.6494   -0.3800 H   0  0  0  0  0  0  0  0  0  0  0  0
    2.0054    0.5429   -1.7632 H   0  0  0  0  0  0  0  0  0  0  0  0
   -0.0942   -3.7556   -0.4677 H   0  0  0  0  0  0  0  0  0  0  0  0
    1.4388   -3.1143    0.1225 H   0  0  0  0  0  0  0  0  0  0  0  0
    0.8313   -2.5021   -1.4406 H   0  0  0  0  0  0  0  0  0  0  0  0
   -2.3013   -3.4936   -0.3101 H   0  0  0  0  0  0  0  0  0  0  0  0
   -2.5043   -2.5839    1.1939 H   0  0  0  0  0  0  0  0  0  0  0  0
   -4.4353   -1.3466    0.2309 H   0  0  0  0  0  0  0  0  0  0  0  0
    2.4504    1.0165    1.8263 H   0  0  0  0  0  0  0  0  0  0  0  0
   -3.9198   -2.9990   -2.0586 H   0  0  0  0  0  0  0  0  0  0  0  0
   -4.3231   -3.7426    0.8790 H   0  0  0  0  0  0  0  0  0  0  0  0
   -0.3819    0.5137   -1.0844 H   0  0  0  0  0  0  0  0  0  0  0  0
   -2.2546    0.8151    1.2160 H   0  0  0  0  0  0  0  0  0  0  0  0
   -3.7537    0.5420   -0.9384 H   0  0  0  0  0  0  0  0  0  0  0  0
   -2.1315    0.6217   -1.8317 H   0  0  0  0  0  0  0  0  0  0  0  0
   -3.1740    2.8888   -1.5050 H   0  0  0  0  0  0  0  0  0  0  0  0
   -0.7073    2.4448   -1.8075 H   0  0  0  0  0  0  0  0  0  0  0  0
   -1.0480    3.8474   -0.6438 H   0  0  0  0  0  0  0  0  0  0  0  0
    0.5882    2.5191    0.3498 H   0  0  0  0  0  0  0  0  0  0  0  0
   -1.0237    2.3781    1.2261 H   0  0  0  0  0  0  0  0  0  0  0  0
   -3.6913    4.5601   -0.0680 H   0  0  0  0  0  0  0  0  0  0  0  0
   -4.4358    3.8835    1.4856 H   0  0  0  0  0  0  0  0  0  0  0  0
   -4.9236    3.2370   -0.0927 H   0  0  0  0  0  0  0  0  0  0  0  0
   -2.2492   -1.3464    1.6122 H   0  0  0  0  0  0  0  0  0  0  0  0
   -0.2863   -2.3172    1.1008 H   0  0  0  0  0  0  0  0  0  0  0  0
    1.4542   -1.5758    1.6716 H   0  0  0  0  0  0  0  0  0  0  0  0
    2.5583   -1.3587   -0.4043 H   0  0  0  0  0  0  0  0  0  0  0  0
    3.9034    0.0279    1.9319 H   0  0  0  0  0  0  0  0  0  0  0  0
    3.8046   -1.7564    1.5614 H   0  0  0  0  0  0  0  0  0  0  0  0
    5.1864   -1.4014   -0.4563 H   0  0  0  0  0  0  0  0  0  0  0  0
    5.9924   -0.7242    0.9839 H   0  0  0  0  0  0  0  0  0  0  0  0
    6.1620    0.9856   -0.7626 H   0  0  0  0  0  0  0  0  0  0  0  0
    4.0515    1.9435   -1.6593 H   0  0  0  0  0  0  0  0  0  0  0  0
    4.0312    0.1374   -2.0222 H   0  0  0  0  0  0  0  0  0  0  0  0
    2.7784    1.6180    0.3431 H   0  0  0  0  0  0  0  0  0  0  0  0
    1.9032    0.9229   -1.1276 H   0  0  0  0  0  0  0  0  0  0  0  0
    0.4524   -1.2759   -1.4978 H   0  0  0  0  0  0  0  0  0  0  0  0
    0.4804   -2.9419   -0.9466 H   0  0  0  0  0  0  0  0  0  0  0  0
   -1.0285   -2.1850   -1.7378 H   0  0  0  0  0  0  0  0  0  0  0  0
   -2.9761   -1.7532   -1.3501 H   0  0  0  0  0  0  0  0  0  0  0  0
   -3.9999   -1.5674    0.0686 H   0  0  0  0  0  0  0  0  0  0  0  0
   -3.4138   -3.5975    1.1070 H   0  0  0  0  0  0  0  0  0  0  0  0
    2.1981   -0.2416    2.9964 H   0  0  0  0  0  0  0  0  0  0  0  0
   -3.5207   -4.2252   -1.6302 H   0  0  0  0  0  0  0  0  0  0  0  0
   -1.6727   -4.7152    0.7714 H   0  0  0  0  0  0  0  0  0  0  0  0
   -0.1356    0.7188   -0.8236 H   0  0  0  0  0  0  0  0  0  0  0  0
   -2.2150   -0.1373    1.1874 H   0  0  0  0  0  0  0  0  0  0  0  0
   -3.5609    0.5185   -0.9729 H   0  0  0  0  0  0  0  0  0  0  0  0
   -1.9464    0.8316   -1.7074 H   0  0  0  0  0  0  0  0  0  0  0  0
   -3.1061    2.8528   -0.8231 H   0  0  0  0  0  0  0  0  0  0  0  0
   -0.6061    2.7982   -0.8416 H   0  0  0  0  0  0  0  0  0  0  0  0
   -1.2301    3.6282    0.6918 H   0  0  0  0  0  0  0  0  0  0  0  0
    0.4654    2.1770    1.3316 H   0  0  0  0  0  0  0  0  0  0  0  0
   -1.1930    1.5504    1.8695 H   0  0  0  0  0  0  0  0  0  0  0  0
   -4.9067    2.8774    1.9861 H   0  0  0  0  0  0  0  0  0  0  0  0
   -4.1063    3.9690    0.7793 H   0  0  0  0  0  0  0  0  0  0  0  0
   -5.0673    2.5757    0.2286 H   0  0  0  0  0  0  0  0  0  0  0  0
   -1.3975   -1.4837   -1.4565 H   0  0  0  0  0  0  0  0  0  0  0  0
   -0.5233   -2.3129    1.3177 H   0  0  0  0  0  0  0  0  0  0  0  0
    1.9736   -1.6929    1.3946 H   0  0  0  0  0  0  0  0  0  0  0  0
    2.7411   -1.2968   -0.7293 H   0  0  0  0  0  0  0  0  0  0  0  0
    4.2230    0.1748    1.4718 H   0  0  0  0  0  0  0  0  0  0  0  0
    4.2218   -1.5400    1.0207 H   0  0  0  0  0  0  0  0  0  0  0  0
    5.2152   -0.7765   -1.2156 H   0  0  0  0  0  0  0  0  0  0  0  0
    6.2162   -0.3544    0.2573 H   0  0  0  0  0  0  0  0  0  0  0  0
    5.9560    1.5985   -1.2439 H   0  0  0  0  0  0  0  0  0  0  0  0
    3.6688    2.4974   -1.6477 H   0  0  0  0  0  0  0  0  0  0  0  0
    4.1079    0.9784   -2.4345 H   0  0  0  0  0  0  0  0  0  0  0  0
    2.0305    1.6494   -0.3800 H   0  0  0  0  0  0  0  0  0  0  0  0
    2.0054    0.5429   -1.7632 H   0  0  0  0  0  0  0  0  0  0  0  0
   -0.0942   -3.7556   -0.4677 H   0  0  0  0  0  0  0  0  0  0  0  0
    1.4388   -3.1143    0.1225 H   0  0  0  0  0  0  0  0  0  0  0  0
    0.8313   -2.5021   -1.4406 H   0  0  0  0  0  0  0  0  0  0  0  0
   -2.3013   -3.4936   -0.3101 H   0  0  0  0  0  0  0  0  0  0  0  0
   -2.5043   -2.5839    1.1939 H   0  0  0  0  0  0  0  0  0  0  0  0
   -4.4353   -1.3466    0.2309 H   0  0  0  0  0  0  0  0  0  0  0  0
    2.4504    1.0165    1.8263 H   0  0  0  0  0  0  0  0  0  0  0  0
   -3.9198   -2.9990   -2.0586 H   0  0  0  0  0  0  0  0  0  0  0  0
   -4.3231   -3.7426    0.8790 H   0  0  0  0  0  0  0  0  0  0  0  0
  1  2  1  0
  2  3  1  0
  3  4  1  0
  4  5  1  0
  1  6  1  0
  5  6  1  0
  2  8  1  0
  8  9  1  0
 10 11  1  0
 11 12  1  0
 12 13  1  0
 13 14  1  0
 14 15  1  0
 11 16  1  0
 15 16  1  0
  9 17  1  0
  8 18  1  0
 18 19  1  0
  1 20  1  0
  9 20  1  0
 10 20  1  0
  4 21  1  0
  7 21  1  0
 10 22  1  0
 19 23  1  0
 19 24  1  0
 14 25  1  0
 26 27  1  0
 27 28  1  0
 28 29  1  0
 29 30  1  0
 26 31  1  0
 30 31  1  0
 27 33  1  0
 33 34  1  0
 35 36  1  0
 36 37  1  0
 37 38  1  0
 38 39  1  0
 39 40  1  0
 36 41  1  0
 40 41  1  0
 34 42  1  0
 33 43  1  0
 43 44  1  0
 26 45  1  0
 34 45  1  0
 35 45  1  0
 29 46  1  0
 32 46  1  0
 35 47  1  0
 44 48  1  0
 44 49  1  0
 39 50  1  0
 51 52  1  0
 52 53  1  0
 53 54  1  0
 54 55  1  0
 51 56  1  0
 55 56  1  0
 52 58  1  0
 58 59  1  0
 60 61  1  0
 61 62  1  0
 62 63  1  0
 63 64  1  0
 64 65  1  0
 61 66  1  0
 65 66  1  0
 59 67  1  0
 58 68  1  0
 68 69  1  0
 51 70  1  0
 59 70  1  0
 60 70  1  0
 54 71  1  0
 57 71  1  0
 60 72  1  0
 69 73  1  0
 69 74  1  0
 64 75  1  0
 76 77  1  0
 77 78  1  0
 78 79  1  0
 79 80  1  0
 76 81  1  0
 80 81  1  0
 77 83  1  0
 83 84  1  0
 85 86  1  0
 86 87  1  0
 87 88  1  0
 88 89  1  0
 89 90  1  0
 86 91  1  0
 90 91  1  0
 84 92  1  0
 83 93  1  0
 93 94  1  0
 76 95  1  0
 84 95  1  0
 85 95  1  0
 79 96  1  0
 82 96  1  0
 85 97  1  0
 94 98  1  0
 94 99  1  0
 89100  1  0
  1101  1  0
  2102  1  0
  3103  1  0
  3104  1  0
  4105  1  0
  5106  1  0
  5107  1  0
  6108  1  0
  6109  1  0
  7110  1  0
  7111  1  0
  7112  1  0
  8113  1  6
  9114  1  0
 10115  1  0
 11116  1  0
 12117  1  0
 12118  1  0
 13119  1  0
 13120  1  0
 14121  1  0
 15122  1  0
 15123  1  0
 16124  1  0
 16125  1  0
 17126  1  0
 17127  1  0
 17128  1  0
 18129  1  0
 18130  1  0
 19131  1  0
 22132  1  0
 23133  1  0
 24134  1  0
 26135  1  0
 27136  1  0
 28137  1  0
 28138  1  0
 29139  1  0
 30140  1  0
 30141  1  0
 31142  1  0
 31143  1  0
 32144  1  0
 32145  1  0
 32146  1  0
 33147  1  6
 34148  1  0
 35149  1  0
 36150  1  0
 37151  1  0
 37152  1  0
 38153  1  0
 38154  1  0
 39155  1  0
 40156  1  0
 40157  1  0
 41158  1  0
 41159  1  0
 42160  1  0
 42161  1  0
 42162  1  0
 43163  1  0
 43164  1  0
 44165  1  0
 47166  1  0
 48167  1  0
 49168  1  0
 51169  1  0
 52170  1  0
 53171  1  0
 53172  1  0
 54173  1  0
 55174  1  0
 55175  1  0
 56176  1  0
 56177  1  0
 57178  1  0
 57179  1  0
 57180  1  0
 58181  1  0
 59182  1  0
 60183  1  0
 61184  1  0
 62185  1  0
 62186  1  0
 63187  1  0
 63188  1  0
 64189  1  0
 65190  1  0
 65191  1  0
 66192  1  0
 66193  1  0
 67194  1  0
 67195  1  0
 67196  1  0
 68197  1  0
 68198  1  0
 69199  1  0
 72200  1  0
 73201  1  0
 74202  1  0
 76203  1  0
 77204  1  0
 78205  1  0
 78206  1  0
 79207  1  0
 80208  1  0
 80209  1  0
 81210  1  0
 81211  1  0
 82212  1  0
 82213  1  0
 82214  1  0
 83215  1  6
 84216  1  0
 85217  1  0
 86218  1  0
 87219  1  0
 87220  1  0
 88221  1  0
 88222  1  0
 89223  1  0
 90224  1  0
 90225  1  0
 91226  1  0
 91227  1  0
 92228  1  0
 92229  1  0
 92230  1  0
 93231  1  0
 93232  1  0
 94233  1  0
 97234  1  0
 98235  1  0
 99236  1  0
M  END
>  <PDBID>  (1) 
4COX

>  <PDB ID>  (1) 
4COX

>  <Generic Name>  (1) 
Indomethacin

>  <Brand Name>  (1) 
Apo Indomethacin Cap 25mg#Apo Indomethacin Cap 50mg#Ftp-indomethacin#Indocid Cap 25mg#Indocid Cap 50mg#Indocid SR 75mg#Indocid Sterile Oph Susp 1%#Indocid Sup 100mg#Indocid Sup 50mg#Indocin#Indocollyre#Indomethacin#Indomethacin ER#Indomethacin Extended-release#Mint-indomethacin#Novo-methacin - 100mg Sup#Novo-methacin - Sup 50mg#Ntp-indomethacin#Nu-indo Cap 25mg#Nu-indo Cap 50mg#Pro-indo 25 Cap 25mg#Pro-indo 50 Cap 50mg#Ratio-indomethacin#Rhodacine - Cap 25mg#Rhodacine - Cap 50mg#Rhodacine - Sup 100mg#Rhodacine - Sup 50mg#Sandoz Indomethacin#Teva-indomethacin#Tivorbex#Arthrexin#Elmetacin#Indaflex#Indocid#Indolar SR#Indomed#Indoxen#Metindol#Mikametan#Nu-Indo#Reumacide

>  <DrugBank ID>  (1) 
DB00328

>  <ATC Codes>  (1) 
S01CC02#M02AA23#M01AB01#M01AB51#S01BC01#C01EB03

>  <Ligand ID>  (1) 
IMN

>  <Target Name>  (1) 
Prostaglandin G/H synthase 2

>  <UniProt ID>  (1) 
P35354

>  <PDB ID.1>  (1) 
4COX

>  <Seq. Identity>  (1) 
84%

$$$$
