PDB_DB00775_05
     RDKit          3D

 76 77  0  0  0  0  0  0  0  0999 V2000
    8.0598   -3.2062   -0.1073 C   0  0  0  0  0  0  0  0  0  0  0  0
    7.0869   -2.0502    0.1436 C   0  0  0  0  0  0  0  0  0  0  0  0
    7.8109   -0.7766   -0.1732 C   0  0  0  0  0  0  0  0  0  0  0  0
    6.9669    0.4412    0.0600 C   0  0  0  0  0  0  0  0  0  0  0  0
    5.4927    0.3937   -0.9353 S   0  0  0  0  0  0  0  0  0  0  0  0
    6.0462    0.2927   -2.4386 O   0  0  0  0  0  0  0  0  0  0  0  0
    4.9573    2.0543   -0.8772 O   0  0  0  0  0  0  0  0  0  0  0  0
    4.4626   -0.5088   -0.3620 N   0  0  0  0  0  0  0  0  0  0  0  0
    3.0118   -0.2310   -0.3369 C   0  0  1  0  0  0  0  0  0  0  0  0
    2.6993    0.8498    0.6184 C   0  0  0  0  0  0  0  0  0  0  0  0
    1.2337    1.1886    0.6907 C   0  0  0  0  0  0  0  0  0  0  0  0
    0.9936    2.3011    1.6942 C   0  0  0  0  0  0  0  0  0  0  0  0
   -0.3791    2.1968    2.3195 C   0  0  0  0  0  0  0  0  0  0  0  0
   -1.3716    1.7795    1.2742 C   0  0  0  0  0  0  0  0  0  0  0  0
   -2.6700    1.8214    1.6446 O   0  0  0  0  0  0  0  0  0  0  0  0
   -1.0652    0.4163    0.7064 C   0  0  0  0  0  0  0  0  0  0  0  0
    0.3604    0.0289    1.0929 C   0  0  0  0  0  0  0  0  0  0  0  0
    2.6193   -0.0110   -1.7600 C   0  0  0  0  0  0  0  0  0  0  0  0
    2.9566   -1.2105   -2.4432 O   0  0  0  0  0  0  0  0  0  0  0  0
    1.2316    0.0890   -1.9567 O   0  0  0  0  0  0  0  0  0  0  0  0
   -3.4811    2.6959    0.9492 C   0  0  0  0  0  0  0  0  0  0  0  0
   -4.9072    2.6790    1.4203 C   0  0  0  0  0  0  0  0  0  0  0  0
   -5.5567    1.3295    1.2830 C   0  0  0  0  0  0  0  0  0  0  0  0
   -5.5951    0.8327   -0.1360 C   0  0  0  0  0  0  0  0  0  0  0  0
   -6.2699   -0.5281   -0.1231 C   0  0  0  0  0  0  0  0  0  0  0  0
   -5.5440   -1.5267    0.7196 C   0  0  0  0  0  0  0  0  0  0  0  0
   -6.1242   -2.8959    0.4396 C   0  0  0  0  0  0  0  0  0  0  0  0
   -7.3460   -2.8298   -0.3433 N   0  0  0  0  0  0  0  0  0  0  0  0
   -7.0890   -2.2796   -1.6678 C   0  0  0  0  0  0  0  0  0  0  0  0
   -6.2655   -1.0145   -1.5593 C   0  0  0  0  0  0  0  0  0  0  0  0
    9.0398   -2.9547    0.3537 H   0  0  0  0  0  0  0  0  0  0  0  0
    7.6092   -4.0993    0.3511 H   0  0  0  0  0  0  0  0  0  0  0  0
    8.1175   -3.3414   -1.1956 H   0  0  0  0  0  0  0  0  0  0  0  0
    6.7695   -2.0395    1.1880 H   0  0  0  0  0  0  0  0  0  0  0  0
    6.2102   -2.2149   -0.5271 H   0  0  0  0  0  0  0  0  0  0  0  0
    8.1504   -0.8256   -1.2513 H   0  0  0  0  0  0  0  0  0  0  0  0
    8.7491   -0.7630    0.4197 H   0  0  0  0  0  0  0  0  0  0  0  0
    7.5430    1.3488   -0.2058 H   0  0  0  0  0  0  0  0  0  0  0  0
    6.6898    0.4707    1.1363 H   0  0  0  0  0  0  0  0  0  0  0  0
    6.6231   -0.4881   -2.6229 H   0  0  0  0  0  0  0  0  0  0  0  0
    5.6731    2.5817   -1.3139 H   0  0  0  0  0  0  0  0  0  0  0  0
    4.6052   -0.9581    0.6105 H   0  0  0  0  0  0  0  0  0  0  0  0
    2.5257   -1.1745    0.0124 H   0  0  0  0  0  0  0  0  0  0  0  0
    3.2696    1.7736    0.5580 H   0  0  0  0  0  0  0  0  0  0  0  0
    2.9476    0.4328    1.6522 H   0  0  0  0  0  0  0  0  0  0  0  0
    0.9355    1.6410   -0.2960 H   0  0  0  0  0  0  0  0  0  0  0  0
    1.8025    2.2610    2.4658 H   0  0  0  0  0  0  0  0  0  0  0  0
    1.1294    3.3084    1.2024 H   0  0  0  0  0  0  0  0  0  0  0  0
   -0.3082    1.5481    3.1877 H   0  0  0  0  0  0  0  0  0  0  0  0
   -0.6407    3.2290    2.6341 H   0  0  0  0  0  0  0  0  0  0  0  0
   -1.2370    2.5130    0.4223 H   0  0  0  0  0  0  0  0  0  0  0  0
   -1.8023   -0.3500    0.9961 H   0  0  0  0  0  0  0  0  0  0  0  0
   -1.0731    0.4301   -0.4214 H   0  0  0  0  0  0  0  0  0  0  0  0
    0.3999   -0.0779    2.2055 H   0  0  0  0  0  0  0  0  0  0  0  0
    0.6470   -0.9367    0.6515 H   0  0  0  0  0  0  0  0  0  0  0  0
    3.1381    0.8579   -2.1630 H   0  0  0  0  0  0  0  0  0  0  0  0
    2.6316   -1.1389   -3.3726 H   0  0  0  0  0  0  0  0  0  0  0  0
    0.8018   -0.7703   -1.8009 H   0  0  0  0  0  0  0  0  0  0  0  0
   -3.4803    2.3481   -0.1061 H   0  0  0  0  0  0  0  0  0  0  0  0
   -3.0887    3.7326    0.9175 H   0  0  0  0  0  0  0  0  0  0  0  0
   -5.4785    3.3931    0.7946 H   0  0  0  0  0  0  0  0  0  0  0  0
   -5.0255    2.9968    2.4684 H   0  0  0  0  0  0  0  0  0  0  0  0
   -5.0217    0.5943    1.8951 H   0  0  0  0  0  0  0  0  0  0  0  0
   -6.5998    1.3803    1.6558 H   0  0  0  0  0  0  0  0  0  0  0  0
   -6.2183    1.4731   -0.7999 H   0  0  0  0  0  0  0  0  0  0  0  0
   -4.5745    0.6713   -0.5261 H   0  0  0  0  0  0  0  0  0  0  0  0
   -7.3025   -0.4366    0.2807 H   0  0  0  0  0  0  0  0  0  0  0  0
   -5.6484   -1.3419    1.8071 H   0  0  0  0  0  0  0  0  0  0  0  0
   -4.4509   -1.5900    0.4409 H   0  0  0  0  0  0  0  0  0  0  0  0
   -6.3861   -3.4170    1.3816 H   0  0  0  0  0  0  0  0  0  0  0  0
   -5.4116   -3.5507   -0.1031 H   0  0  0  0  0  0  0  0  0  0  0  0
   -8.1003   -2.3005    0.1149 H   0  0  0  0  0  0  0  0  0  0  0  0
   -6.5412   -3.0487   -2.2694 H   0  0  0  0  0  0  0  0  0  0  0  0
   -8.0462   -2.0663   -2.1415 H   0  0  0  0  0  0  0  0  0  0  0  0
   -6.6795   -0.1894   -2.1722 H   0  0  0  0  0  0  0  0  0  0  0  0
   -5.2182   -1.2331   -1.8185 H   0  0  0  0  0  0  0  0  0  0  0  0
  1  2  1  0
  2  3  1  0
  3  4  1  0
  4  5  1  0
  5  6  1  0
  5  7  1  0
  5  8  1  0
  8  9  1  0
  9 10  1  0
 10 11  1  0
 11 12  1  0
 12 13  1  0
 13 14  1  0
 14 15  1  0
 14 16  1  0
 11 17  1  0
 16 17  1  0
  9 18  1  0
 18 19  1  0
 18 20  1  0
 15 21  1  0
 21 22  1  0
 22 23  1  0
 23 24  1  0
 24 25  1  0
 25 26  1  0
 26 27  1  0
 27 28  1  0
 28 29  1  0
 25 30  1  0
 29 30  1  0
  1 31  1  0
  1 32  1  0
  1 33  1  0
  2 34  1  0
  2 35  1  0
  3 36  1  0
  3 37  1  0
  4 38  1  0
  4 39  1  0
  6 40  1  0
  7 41  1  0
  8 42  1  0
  9 43  1  1
 10 44  1  0
 10 45  1  0
 11 46  1  0
 12 47  1  0
 12 48  1  0
 13 49  1  0
 13 50  1  0
 14 51  1  0
 16 52  1  0
 16 53  1  0
 17 54  1  0
 17 55  1  0
 18 56  1  0
 19 57  1  0
 20 58  1  0
 21 59  1  0
 21 60  1  0
 22 61  1  0
 22 62  1  0
 23 63  1  0
 23 64  1  0
 24 65  1  0
 24 66  1  0
 25 67  1  0
 26 68  1  0
 26 69  1  0
 27 70  1  0
 27 71  1  0
 28 72  1  0
 29 73  1  0
 29 74  1  0
 30 75  1  0
 30 76  1  0
M  END
>  <PDBID>  (1) 
2VDM

>  <PDB ID>  (1) 
2VDM

>  <Generic Name>  (1) 
Tirofiban

>  <Brand Name>  (1) 
Aggrastat#Aggribloc#Agrastat

>  <DrugBank ID>  (1) 
DB00775

>  <ATC Codes>  (1) 
B01AC17

>  <Ligand ID>  (1) 
AGG

>  <Target Name>  (1) 
Integrin alpha-IIb

>  <UniProt ID>  (1) 
P08514

>  <PDB ID.1>  (1) 
2VDM

>  <Seq. Identity>  (1) 
100%

$$$$
