PDB_DB00367_08
     RDKit          3D

118124  0  0  0  0  0  0  0  0999 V2000
    2.9544    0.2096   -1.9292 C   0  0  0  0  0  0  0  0  0  0  0  0
    4.1210    1.0404   -1.5463 C   0  0  0  0  0  0  0  0  0  0  0  0
    4.9412    0.5427   -0.4044 C   0  0  1  0  0  0  0  0  0  0  0  0
    4.3685   -0.6773    0.2680 C   0  0  0  0  0  0  0  0  0  0  0  0
    2.9127   -0.4543    0.4949 C   0  0  1  0  0  0  0  0  0  0  0  0
    2.5999    0.7746    1.2931 C   0  0  0  0  0  0  0  0  0  0  0  0
    1.1513    0.7564    1.6592 C   0  0  0  0  0  0  0  0  0  0  0  0
    0.3078   -0.1076    0.7443 C   0  0  2  0  0  0  0  0  0  0  0  0
    0.8260    0.0545   -0.6911 C   0  0  1  0  0  0  0  0  0  0  0  0
    2.2284   -0.4766   -0.8406 C   0  0  1  0  0  0  0  0  0  0  0  0
   -0.0571   -0.5390   -1.7173 C   0  0  0  0  0  0  0  0  0  0  0  0
   -1.5179   -0.5125   -1.4919 C   0  0  0  0  0  0  0  0  0  0  0  0
   -2.0132   -0.5535   -0.0895 C   0  0  1  0  0  0  0  0  0  0  0  0
   -1.0780    0.3236    0.6869 C   0  0  1  0  0  0  0  0  0  0  0  0
   -1.8240    0.5581    1.9458 C   0  0  0  0  0  0  0  0  0  0  0  0
   -3.1065    1.0925    1.3514 C   0  0  0  0  0  0  0  0  0  0  0  0
   -3.3038    0.2342    0.1185 C   0  0  1  0  0  0  0  0  0  0  0  0
   -2.2886   -1.8982    0.4625 C   0  0  0  0  0  0  0  0  0  0  0  0
   -1.2127   -2.9021    0.5517 C   0  0  0  0  0  0  0  0  0  0  0  0
   -3.7862    1.0153   -1.0494 C   0  0  0  0  0  0  0  0  0  0  0  0
   -5.0924    1.7063   -0.6134 C   0  0  0  0  0  0  0  0  0  0  0  0
    6.2462    0.2129   -0.7869 O   0  0  0  0  0  0  0  0  0  0  0  0
   -4.3786   -0.6008    0.4508 O   0  0  0  0  0  0  0  0  0  0  0  0
    2.9544    0.2096   -1.9292 C   0  0  0  0  0  0  0  0  0  0  0  0
    4.1210    1.0404   -1.5463 C   0  0  0  0  0  0  0  0  0  0  0  0
    4.9412    0.5427   -0.4044 C   0  0  1  0  0  0  0  0  0  0  0  0
    4.3685   -0.6773    0.2680 C   0  0  0  0  0  0  0  0  0  0  0  0
    2.9127   -0.4543    0.4949 C   0  0  1  0  0  0  0  0  0  0  0  0
    2.5999    0.7746    1.2931 C   0  0  0  0  0  0  0  0  0  0  0  0
    1.1513    0.7564    1.6592 C   0  0  0  0  0  0  0  0  0  0  0  0
    0.3078   -0.1076    0.7443 C   0  0  2  0  0  0  0  0  0  0  0  0
    0.8260    0.0545   -0.6911 C   0  0  1  0  0  0  0  0  0  0  0  0
    2.2284   -0.4766   -0.8406 C   0  0  1  0  0  0  0  0  0  0  0  0
   -0.0571   -0.5390   -1.7173 C   0  0  0  0  0  0  0  0  0  0  0  0
   -1.5179   -0.5125   -1.4919 C   0  0  0  0  0  0  0  0  0  0  0  0
   -2.0132   -0.5535   -0.0895 C   0  0  1  0  0  0  0  0  0  0  0  0
   -1.0780    0.3236    0.6869 C   0  0  1  0  0  0  0  0  0  0  0  0
   -1.8240    0.5581    1.9458 C   0  0  0  0  0  0  0  0  0  0  0  0
   -3.1065    1.0925    1.3514 C   0  0  0  0  0  0  0  0  0  0  0  0
   -3.3038    0.2342    0.1185 C   0  0  1  0  0  0  0  0  0  0  0  0
   -2.2886   -1.8982    0.4625 C   0  0  0  0  0  0  0  0  0  0  0  0
   -1.2127   -2.9021    0.5517 C   0  0  0  0  0  0  0  0  0  0  0  0
   -3.7862    1.0153   -1.0494 C   0  0  0  0  0  0  0  0  0  0  0  0
   -5.0924    1.7063   -0.6134 C   0  0  0  0  0  0  0  0  0  0  0  0
    6.2462    0.2129   -0.7869 O   0  0  0  0  0  0  0  0  0  0  0  0
   -4.3786   -0.6008    0.4508 O   0  0  0  0  0  0  0  0  0  0  0  0
    3.2648   -0.5326   -2.7227 H   0  0  0  0  0  0  0  0  0  0  0  0
    2.2315    0.8802   -2.4748 H   0  0  0  0  0  0  0  0  0  0  0  0
    3.8481    2.0990   -1.3494 H   0  0  0  0  0  0  0  0  0  0  0  0
    4.8073    1.0938   -2.4437 H   0  0  0  0  0  0  0  0  0  0  0  0
    5.0528    1.3183    0.3939 H   0  0  0  0  0  0  0  0  0  0  0  0
    4.9408   -0.8947    1.1760 H   0  0  0  0  0  0  0  0  0  0  0  0
    4.4628   -1.5168   -0.4726 H   0  0  0  0  0  0  0  0  0  0  0  0
    2.5439   -1.3288    1.0984 H   0  0  0  0  0  0  0  0  0  0  0  0
    3.2671    0.7465    2.1993 H   0  0  0  0  0  0  0  0  0  0  0  0
    2.8206    1.7149    0.7844 H   0  0  0  0  0  0  0  0  0  0  0  0
    1.0674    0.3092    2.6773 H   0  0  0  0  0  0  0  0  0  0  0  0
    0.7385    1.7943    1.7532 H   0  0  0  0  0  0  0  0  0  0  0  0
    0.5094   -1.1343    1.0256 H   0  0  0  0  0  0  0  0  0  0  0  0
    0.8824    1.1563   -0.8493 H   0  0  0  0  0  0  0  0  0  0  0  0
    2.1081   -1.5722   -1.0978 H   0  0  0  0  0  0  0  0  0  0  0  0
    0.1611    0.0472   -2.6708 H   0  0  0  0  0  0  0  0  0  0  0  0
    0.3602   -1.5332   -1.9909 H   0  0  0  0  0  0  0  0  0  0  0  0
   -1.9662   -1.3085   -2.1344 H   0  0  0  0  0  0  0  0  0  0  0  0
   -1.8602    0.4674   -1.9149 H   0  0  0  0  0  0  0  0  0  0  0  0
   -1.0947    1.3377    0.1559 H   0  0  0  0  0  0  0  0  0  0  0  0
   -1.3508    1.3870    2.5339 H   0  0  0  0  0  0  0  0  0  0  0  0
   -2.0486   -0.3047    2.5678 H   0  0  0  0  0  0  0  0  0  0  0  0
   -2.9763    2.1314    0.9762 H   0  0  0  0  0  0  0  0  0  0  0  0
   -3.9455    1.0430    2.0716 H   0  0  0  0  0  0  0  0  0  0  0  0
   -2.7558   -1.8173    1.4882 H   0  0  0  0  0  0  0  0  0  0  0  0
   -3.1434   -2.4028   -0.1036 H   0  0  0  0  0  0  0  0  0  0  0  0
   -0.7901   -3.0088    1.5988 H   0  0  0  0  0  0  0  0  0  0  0  0
   -0.4461   -2.8895   -0.2318 H   0  0  0  0  0  0  0  0  0  0  0  0
   -1.6611   -3.9476    0.4288 H   0  0  0  0  0  0  0  0  0  0  0  0
   -4.0535    0.3794   -1.9072 H   0  0  0  0  0  0  0  0  0  0  0  0
   -3.1715    1.8451   -1.4081 H   0  0  0  0  0  0  0  0  0  0  0  0
   -5.6482    2.0205   -1.5334 H   0  0  0  0  0  0  0  0  0  0  0  0
   -5.7447    1.0368   -0.0556 H   0  0  0  0  0  0  0  0  0  0  0  0
   -4.8494    2.6373   -0.0655 H   0  0  0  0  0  0  0  0  0  0  0  0
    6.3368   -0.7414   -0.9920 H   0  0  0  0  0  0  0  0  0  0  0  0
   -4.8958   -0.3113    1.2168 H   0  0  0  0  0  0  0  0  0  0  0  0
    3.2648   -0.5326   -2.7227 H   0  0  0  0  0  0  0  0  0  0  0  0
    2.2315    0.8802   -2.4748 H   0  0  0  0  0  0  0  0  0  0  0  0
    3.8481    2.0990   -1.3494 H   0  0  0  0  0  0  0  0  0  0  0  0
    4.8073    1.0938   -2.4437 H   0  0  0  0  0  0  0  0  0  0  0  0
    5.0528    1.3183    0.3939 H   0  0  0  0  0  0  0  0  0  0  0  0
    4.9408   -0.8947    1.1760 H   0  0  0  0  0  0  0  0  0  0  0  0
    4.4628   -1.5168   -0.4726 H   0  0  0  0  0  0  0  0  0  0  0  0
    2.5439   -1.3288    1.0984 H   0  0  0  0  0  0  0  0  0  0  0  0
    3.2671    0.7465    2.1993 H   0  0  0  0  0  0  0  0  0  0  0  0
    2.8206    1.7149    0.7844 H   0  0  0  0  0  0  0  0  0  0  0  0
    1.0674    0.3092    2.6773 H   0  0  0  0  0  0  0  0  0  0  0  0
    0.7385    1.7943    1.7532 H   0  0  0  0  0  0  0  0  0  0  0  0
    0.5094   -1.1343    1.0256 H   0  0  0  0  0  0  0  0  0  0  0  0
    0.8824    1.1563   -0.8493 H   0  0  0  0  0  0  0  0  0  0  0  0
    2.1081   -1.5722   -1.0978 H   0  0  0  0  0  0  0  0  0  0  0  0
    0.1611    0.0472   -2.6708 H   0  0  0  0  0  0  0  0  0  0  0  0
    0.3602   -1.5332   -1.9909 H   0  0  0  0  0  0  0  0  0  0  0  0
   -1.9662   -1.3085   -2.1344 H   0  0  0  0  0  0  0  0  0  0  0  0
   -1.8602    0.4674   -1.9149 H   0  0  0  0  0  0  0  0  0  0  0  0
   -1.0947    1.3377    0.1559 H   0  0  0  0  0  0  0  0  0  0  0  0
   -1.3508    1.3870    2.5339 H   0  0  0  0  0  0  0  0  0  0  0  0
   -2.0486   -0.3047    2.5678 H   0  0  0  0  0  0  0  0  0  0  0  0
   -2.9763    2.1314    0.9762 H   0  0  0  0  0  0  0  0  0  0  0  0
   -3.9455    1.0430    2.0716 H   0  0  0  0  0  0  0  0  0  0  0  0
   -2.7558   -1.8173    1.4882 H   0  0  0  0  0  0  0  0  0  0  0  0
   -3.1434   -2.4028   -0.1036 H   0  0  0  0  0  0  0  0  0  0  0  0
   -0.7901   -3.0088    1.5988 H   0  0  0  0  0  0  0  0  0  0  0  0
   -0.4461   -2.8895   -0.2318 H   0  0  0  0  0  0  0  0  0  0  0  0
   -1.6611   -3.9476    0.4288 H   0  0  0  0  0  0  0  0  0  0  0  0
   -4.0535    0.3794   -1.9072 H   0  0  0  0  0  0  0  0  0  0  0  0
   -3.1715    1.8451   -1.4081 H   0  0  0  0  0  0  0  0  0  0  0  0
   -5.6482    2.0205   -1.5334 H   0  0  0  0  0  0  0  0  0  0  0  0
   -5.7447    1.0368   -0.0556 H   0  0  0  0  0  0  0  0  0  0  0  0
   -4.8494    2.6373   -0.0655 H   0  0  0  0  0  0  0  0  0  0  0  0
    6.3368   -0.7414   -0.9920 H   0  0  0  0  0  0  0  0  0  0  0  0
   -4.8958   -0.3113    1.2168 H   0  0  0  0  0  0  0  0  0  0  0  0
  1  2  1  0
  2  3  1  0
  3  4  1  0
  4  5  1  0
  5  6  1  0
  6  7  1  0
  7  8  1  0
  8  9  1  0
  1 10  1  0
  5 10  1  0
  9 10  1  0
  9 11  1  0
 11 12  1  0
 12 13  1  0
  8 14  1  0
 13 14  1  0
 14 15  1  0
 15 16  1  0
 13 17  1  0
 16 17  1  0
 13 18  1  1
 18 19  1  0
 17 20  1  0
 20 21  1  0
  3 22  1  0
 17 23  1  1
 24 25  1  0
 25 26  1  0
 26 27  1  0
 27 28  1  0
 28 29  1  0
 29 30  1  0
 30 31  1  0
 31 32  1  0
 24 33  1  0
 28 33  1  0
 32 33  1  0
 32 34  1  0
 34 35  1  0
 35 36  1  0
 31 37  1  0
 36 37  1  0
 37 38  1  0
 38 39  1  0
 36 40  1  0
 39 40  1  0
 36 41  1  1
 41 42  1  0
 40 43  1  0
 43 44  1  0
 26 45  1  0
 40 46  1  1
  1 47  1  0
  1 48  1  0
  2 49  1  0
  2 50  1  0
  3 51  1  1
  4 52  1  0
  4 53  1  0
  5 54  1  1
  6 55  1  0
  6 56  1  0
  7 57  1  0
  7 58  1  0
  8 59  1  1
  9 60  1  6
 10 61  1  6
 11 62  1  0
 11 63  1  0
 12 64  1  0
 12 65  1  0
 14 66  1  6
 15 67  1  0
 15 68  1  0
 16 69  1  0
 16 70  1  0
 18 71  1  0
 18 72  1  0
 19 73  1  0
 19 74  1  0
 19 75  1  0
 20 76  1  0
 20 77  1  0
 21 78  1  0
 21 79  1  0
 21 80  1  0
 22 81  1  0
 23 82  1  0
 24 83  1  0
 24 84  1  0
 25 85  1  0
 25 86  1  0
 26 87  1  1
 27 88  1  0
 27 89  1  0
 28 90  1  1
 29 91  1  0
 29 92  1  0
 30 93  1  0
 30 94  1  0
 31 95  1  1
 32 96  1  6
 33 97  1  6
 34 98  1  0
 34 99  1  0
 35100  1  0
 35101  1  0
 37102  1  6
 38103  1  0
 38104  1  0
 39105  1  0
 39106  1  0
 41107  1  0
 41108  1  0
 42109  1  0
 42110  1  0
 42111  1  0
 43112  1  0
 43113  1  0
 44114  1  0
 44115  1  0
 44116  1  0
 45117  1  0
 46118  1  0
M  END
>  <PDBID>  (1) 
3D90

>  <PDB ID>  (1) 
3D90

>  <Generic Name>  (1) 
Levonorgestrel

>  <Brand Name>  (1) 
Afirmelle#Aftera#Afterpill#Alesse 21#Alesse 28#Altavera#Alysena 21#Alysena 28#Amethia#Amethyst#Athentia Next#Aubra#Aviane#Aviane 21#Aviane 28#Aviane 28 Day#Ayuna#Backup Plan#Backup Plan Onestep#Camrese#Camrese Lo#Chateal#Climara Pro#Contingency#Contingency One#Daysee#Delyla#Econtra Ez#Enpresse#Esme 21#Esme 28#Falessa#Fallback Solo#Falmina#Her Style#Indayo#Introvale#Jaydess#Jolessa#Kurvelo#Kyleena#Larissia#Lessina#Levonest#Levonorgestrel#Levonorgestrel Emergency Contraceptive#Levonorgestrel Tablets, 0.75mg#Levonorgestrel and Ethinyl Estradiol#Levonorgestrel and Ethinyl Estradiol Tablets, 0.1 Mg/0.02 mg#Levonorgestrel and Ethinyl Estradiol and Ethinyl Estradiol#Levora#Liletta#Lillow#Lutera#Lutera 21#Lutera 28#Marlissa#Min-ovral 21#Min-ovral 21 Tab#Min-ovral 28#Min-ovral 28 Tab#Mirena#Morning After#My Way#Myzilra#Next Choice#Next Choice One Dose#Norlevo#Norplant System Kit 36mg/implant#Opcicon One-step#Option 2#Orsythia#Ovima 21#Ovima 28#Plan B#Plan B One-step#Portia#Portia 21#Portia 28#Preven Emergency Contraceptive#Preven Tablets#Quasense#React#Seasonale#Seasonique#Setlakin#Skyla#Sronyx#Take Action#Teva-levonorgestrel#Triphasil 21#Triphasil 21 Tab#Triphasil 28#Triphasil 28 Tab#Triquilar 21#Triquilar 28#Trivora#Vienva Tm#Jadelle#Levonelle#Medonor#Microlut#Microval#Neogest#Norgeston#Norplant#Postinor

>  <DrugBank ID>  (1) 
DB00367

>  <ATC Codes>  (1) 
G03FA11#G03FB09#G03AC03#G03AB03#G03AA07#G03AD01

>  <Ligand ID>  (1) 
NOG

>  <Target Name>  (1) 
Estrogen receptor

>  <UniProt ID>  (1) 
P03372

>  <PDB ID.1>  (1) 
3D90

>  <Seq. Identity>  (1) 
31%

$$$$
