PDB_DB06626_00
     RDKit          3D

 70 73  0  0  0  0  0  0  0  0999 V2000
   -4.3494    1.5202    1.1479 O   0  0  0  0  0  0  0  0  0  0  0  0
   -5.4267    0.9925    0.4514 C   0  0  0  0  0  0  0  0  0  0  0  0
   -6.0218    2.0799   -0.3365 N   0  0  0  0  0  0  0  0  0  0  0  0
   -5.0544    2.6862   -1.2142 C   0  0  0  0  0  0  0  0  0  0  0  0
   -4.9780   -0.0507   -0.5512 C   0  0  0  0  0  0  0  0  0  0  0  0
   -6.1234   -0.6298   -1.3104 C   0  0  0  0  0  0  0  0  0  0  0  0
   -6.9822   -1.5662   -0.5064 C   0  0  0  0  0  0  0  0  0  0  0  0
   -6.1905   -2.5235    0.3270 C   0  0  0  0  0  0  0  0  0  0  0  0
   -4.1848   -1.1658    0.0955 C   0  0  0  0  0  0  0  0  0  0  0  0
   -5.0968   -1.8143    1.1210 C   0  0  0  0  0  0  0  0  0  0  0  0
   -2.7160   -0.6208    0.9319 S   0  0  0  0  0  0  0  0  0  0  0  0
   -1.4312    0.0477   -0.1429 C   0  0  0  0  0  0  0  0  0  0  0  0
   -0.2907    0.4557    0.7200 C   0  0  0  0  0  0  0  0  0  0  0  0
    1.0464    0.5600    0.1023 C   0  0  0  0  0  0  0  0  0  0  0  0
   -0.9527   -0.9487   -1.1664 C   0  0  0  0  0  0  0  0  0  0  0  0
    0.3526   -1.5740   -0.8068 C   0  0  0  0  0  0  0  0  0  0  0  0
    0.4599   -2.0898    0.5107 N   0  0  0  0  0  0  0  0  0  0  0  0
    1.7674   -1.8199    1.0041 N   0  0  0  0  0  0  0  0  0  0  0  0
    2.5093   -1.4789   -0.1746 C   0  0  0  0  0  0  0  0  0  0  0  0
    1.4884   -0.5281   -0.8066 C   0  0  0  0  0  0  0  0  0  0  0  0
    3.8705   -1.0362   -0.0761 C   0  0  0  0  0  0  0  0  0  0  0  0
    4.2460    0.1745    0.6757 C   0  0  0  0  0  0  0  0  0  0  0  0
    5.7785    0.3119    0.5765 C   0  0  0  0  0  0  0  0  0  0  0  0
    6.1483    0.4319   -0.8197 N   0  0  0  0  0  0  0  0  0  0  0  0
    7.5995    0.4463   -0.9115 C   0  0  0  0  0  0  0  0  0  0  0  0
    8.1444    1.7136   -0.2904 C   0  0  0  0  0  0  0  0  0  0  0  0
    7.0129    2.4744    0.3518 C   0  0  0  0  0  0  0  0  0  0  0  0
    6.2567    1.5502    1.2741 C   0  0  0  0  0  0  0  0  0  0  0  0
   -4.6230    1.9416    1.9899 H   0  0  0  0  0  0  0  0  0  0  0  0
   -6.2126    0.6390    1.1326 H   0  0  0  0  0  0  0  0  0  0  0  0
   -6.3722    2.8451    0.2948 H   0  0  0  0  0  0  0  0  0  0  0  0
   -5.0709    2.1240   -2.1916 H   0  0  0  0  0  0  0  0  0  0  0  0
   -5.2867    3.7252   -1.4631 H   0  0  0  0  0  0  0  0  0  0  0  0
   -4.0259    2.6370   -0.8180 H   0  0  0  0  0  0  0  0  0  0  0  0
   -4.3124    0.4601   -1.2779 H   0  0  0  0  0  0  0  0  0  0  0  0
   -6.7912    0.1858   -1.6786 H   0  0  0  0  0  0  0  0  0  0  0  0
   -5.7267   -1.1505   -2.1965 H   0  0  0  0  0  0  0  0  0  0  0  0
   -7.5770   -2.1775   -1.2316 H   0  0  0  0  0  0  0  0  0  0  0  0
   -7.7313   -1.0494    0.1280 H   0  0  0  0  0  0  0  0  0  0  0  0
   -6.8718   -3.0843    0.9815 H   0  0  0  0  0  0  0  0  0  0  0  0
   -5.6556   -3.2509   -0.3306 H   0  0  0  0  0  0  0  0  0  0  0  0
   -4.0161   -1.9385   -0.6819 H   0  0  0  0  0  0  0  0  0  0  0  0
   -4.4928   -2.6383    1.5842 H   0  0  0  0  0  0  0  0  0  0  0  0
   -5.4890   -1.1173    1.8612 H   0  0  0  0  0  0  0  0  0  0  0  0
   -1.8492    0.9559   -0.6248 H   0  0  0  0  0  0  0  0  0  0  0  0
   -0.2978   -0.1620    1.6684 H   0  0  0  0  0  0  0  0  0  0  0  0
   -0.5373    1.4895    1.1153 H   0  0  0  0  0  0  0  0  0  0  0  0
    1.7720    0.5555    0.9730 H   0  0  0  0  0  0  0  0  0  0  0  0
    1.1478    1.5465   -0.4096 H   0  0  0  0  0  0  0  0  0  0  0  0
   -1.6681   -1.7322   -1.4026 H   0  0  0  0  0  0  0  0  0  0  0  0
   -0.7834   -0.3728   -2.1145 H   0  0  0  0  0  0  0  0  0  0  0  0
    0.6128   -2.3136   -1.5640 H   0  0  0  0  0  0  0  0  0  0  0  0
    0.3599   -3.1426    0.4542 H   0  0  0  0  0  0  0  0  0  0  0  0
    2.1421   -2.6105    1.5454 H   0  0  0  0  0  0  0  0  0  0  0  0
    2.4725   -2.4004   -0.8335 H   0  0  0  0  0  0  0  0  0  0  0  0
    1.7602   -0.2345   -1.8177 H   0  0  0  0  0  0  0  0  0  0  0  0
    4.4937   -1.8873    0.3350 H   0  0  0  0  0  0  0  0  0  0  0  0
    4.2898   -0.9194   -1.1203 H   0  0  0  0  0  0  0  0  0  0  0  0
    3.9055    1.0948    0.1109 H   0  0  0  0  0  0  0  0  0  0  0  0
    4.0130    0.2000    1.7376 H   0  0  0  0  0  0  0  0  0  0  0  0
    6.2743   -0.5941    0.9778 H   0  0  0  0  0  0  0  0  0  0  0  0
    5.7917    1.2723   -1.2841 H   0  0  0  0  0  0  0  0  0  0  0  0
    8.0001   -0.4410   -0.3770 H   0  0  0  0  0  0  0  0  0  0  0  0
    7.8663    0.4438   -1.9872 H   0  0  0  0  0  0  0  0  0  0  0  0
    8.6905    2.3277   -1.0338 H   0  0  0  0  0  0  0  0  0  0  0  0
    8.8417    1.4344    0.5440 H   0  0  0  0  0  0  0  0  0  0  0  0
    6.3678    3.0008   -0.3751 H   0  0  0  0  0  0  0  0  0  0  0  0
    7.4320    3.2918    1.0087 H   0  0  0  0  0  0  0  0  0  0  0  0
    5.3482    2.1092    1.6192 H   0  0  0  0  0  0  0  0  0  0  0  0
    6.9272    1.3389    2.1359 H   0  0  0  0  0  0  0  0  0  0  0  0
  1  2  1  0
  2  3  1  0
  3  4  1  0
  2  5  1  0
  5  6  1  0
  6  7  1  0
  7  8  1  0
  5  9  1  0
  8 10  1  0
  9 10  1  0
  9 11  1  0
 11 12  1  0
 12 13  1  0
 13 14  1  0
 12 15  1  0
 15 16  1  0
 16 17  1  0
 17 18  1  0
 18 19  1  0
 14 20  1  0
 16 20  1  0
 19 20  1  0
 19 21  1  0
 21 22  1  0
 22 23  1  0
 23 24  1  0
 24 25  1  0
 25 26  1  0
 26 27  1  0
 23 28  1  0
 27 28  1  0
  1 29  1  0
  2 30  1  0
  3 31  1  0
  4 32  1  0
  4 33  1  0
  4 34  1  0
  5 35  1  0
  6 36  1  0
  6 37  1  0
  7 38  1  0
  7 39  1  0
  8 40  1  0
  8 41  1  0
  9 42  1  0
 10 43  1  0
 10 44  1  0
 12 45  1  0
 13 46  1  0
 13 47  1  0
 14 48  1  0
 14 49  1  0
 15 50  1  0
 15 51  1  0
 16 52  1  0
 17 53  1  0
 18 54  1  0
 19 55  1  0
 20 56  1  0
 21 57  1  0
 21 58  1  0
 22 59  1  0
 22 60  1  0
 23 61  1  0
 24 62  1  0
 25 63  1  0
 25 64  1  0
 26 65  1  0
 26 66  1  0
 27 67  1  0
 27 68  1  0
 28 69  1  0
 28 70  1  0
M  END
>  <PDBID>  (1) 
4AG8

>  <PDB ID>  (1) 
4AG8

>  <Generic Name>  (1) 
Axitinib

>  <Brand Name>  (1) 
Inlyta

>  <DrugBank ID>  (1) 
DB06626

>  <ATC Codes>  (1) 
L01XE17

>  <Ligand ID>  (1) 
AXI

>  <Target Name>  (1) 
Vascular endothelial growth factor receptor 3

>  <UniProt ID>  (1) 
P35916

>  <PDB ID.1>  (1) 
4AG8

>  <Seq. Identity>  (1) 
67%

$$$$
