PDB_DB00196_06
     RDKit          3D

 48 50  0  0  0  0  0  0  0  0999 V2000
    1.2013   -0.0259    1.6535 O   0  0  0  0  0  0  0  0  0  0  0  0
    0.3442   -0.0367    0.4734 C   0  0  0  0  0  0  0  0  0  0  0  0
    1.1224   -0.8893   -0.5052 C   0  0  0  0  0  0  0  0  0  0  0  0
   -0.9031   -0.6612    0.9437 C   0  0  0  0  0  0  0  0  0  0  0  0
    0.3952    1.3577    0.0180 C   0  0  0  0  0  0  0  0  0  0  0  0
    1.3663   -2.2334   -0.0342 N   0  0  0  0  0  0  0  0  0  0  0  0
    2.1163   -2.9732   -1.0299 C   0  0  0  0  0  0  0  0  0  0  0  0
    2.0734   -2.2341    1.1400 N   0  0  0  0  0  0  0  0  0  0  0  0
    3.3336   -3.4201   -0.4252 N   0  0  0  0  0  0  0  0  0  0  0  0
    3.2869   -2.9993    0.9406 C   0  0  0  0  0  0  0  0  0  0  0  0
   -1.9722   -0.9334    0.1306 N   0  0  0  0  0  0  0  0  0  0  0  0
   -2.8511   -0.0268   -0.4476 C   0  0  0  0  0  0  0  0  0  0  0  0
   -2.5391   -2.1800    0.1261 N   0  0  0  0  0  0  0  0  0  0  0  0
   -4.1907   -0.6031   -0.3761 N   0  0  0  0  0  0  0  0  0  0  0  0
   -3.9377   -2.0014   -0.2121 C   0  0  0  0  0  0  0  0  0  0  0  0
   -0.3555    1.7864   -1.1811 C   0  0  0  0  0  0  0  0  0  0  0  0
    0.1289    2.3991    1.1105 C   0  0  0  0  0  0  0  0  0  0  0  0
    0.4422    2.9899   -1.7654 C   0  0  0  0  0  0  0  0  0  0  0  0
    0.2746    4.0949   -0.7441 C   0  0  0  0  0  0  0  0  0  0  0  0
   -1.0623    4.4155   -0.6770 F   0  0  0  0  0  0  0  0  0  0  0  0
    0.7539    3.6893    0.6118 C   0  0  0  0  0  0  0  0  0  0  0  0
   -1.1950    2.5172    1.3587 F   0  0  0  0  0  0  0  0  0  0  0  0
    0.6432    0.1048    2.4439 H   0  0  0  0  0  0  0  0  0  0  0  0
    0.7488   -0.8510   -1.5323 H   0  0  0  0  0  0  0  0  0  0  0  0
    2.1450   -0.4095   -0.5483 H   0  0  0  0  0  0  0  0  0  0  0  0
   -1.3057   -0.0676    1.8490 H   0  0  0  0  0  0  0  0  0  0  0  0
   -0.6483   -1.6475    1.4975 H   0  0  0  0  0  0  0  0  0  0  0  0
    1.5097    1.5904   -0.2482 H   0  0  0  0  0  0  0  0  0  0  0  0
    1.5376   -3.8666   -1.3739 H   0  0  0  0  0  0  0  0  0  0  0  0
    2.3354   -2.3478   -1.8962 H   0  0  0  0  0  0  0  0  0  0  0  0
    1.4863   -2.6427    1.9166 H   0  0  0  0  0  0  0  0  0  0  0  0
    4.2019   -3.1343   -0.9193 H   0  0  0  0  0  0  0  0  0  0  0  0
    4.1951   -2.4963    1.2783 H   0  0  0  0  0  0  0  0  0  0  0  0
    3.1964   -3.9382    1.5623 H   0  0  0  0  0  0  0  0  0  0  0  0
   -2.9339    0.9402    0.1105 H   0  0  0  0  0  0  0  0  0  0  0  0
   -2.6766    0.1559   -1.5305 H   0  0  0  0  0  0  0  0  0  0  0  0
   -2.4947   -2.6135    1.0637 H   0  0  0  0  0  0  0  0  0  0  0  0
   -4.7323   -0.2212    0.4414 H   0  0  0  0  0  0  0  0  0  0  0  0
   -4.1568   -2.5784   -1.1156 H   0  0  0  0  0  0  0  0  0  0  0  0
   -4.6007   -2.4015    0.6038 H   0  0  0  0  0  0  0  0  0  0  0  0
   -1.3398    2.2883   -0.9410 H   0  0  0  0  0  0  0  0  0  0  0  0
   -0.4062    1.0633   -1.9851 H   0  0  0  0  0  0  0  0  0  0  0  0
    0.6916    2.1220    2.0376 H   0  0  0  0  0  0  0  0  0  0  0  0
   -0.0475    3.3139   -2.7021 H   0  0  0  0  0  0  0  0  0  0  0  0
    1.4757    2.6678   -1.8789 H   0  0  0  0  0  0  0  0  0  0  0  0
    0.8906    4.9412   -1.0987 H   0  0  0  0  0  0  0  0  0  0  0  0
    0.5983    4.5216    1.3193 H   0  0  0  0  0  0  0  0  0  0  0  0
    1.8544    3.4746    0.5372 H   0  0  0  0  0  0  0  0  0  0  0  0
  2  1  1  0
  2  3  1  0
  2  4  1  0
  2  5  1  0
  3  6  1  0
  6  7  1  0
  6  8  1  0
  7  9  1  0
  8 10  1  0
  9 10  1  0
  4 11  1  0
 11 12  1  0
 11 13  1  0
 12 14  1  0
 13 15  1  0
 15 14  1  0
  5 16  1  0
  5 17  1  0
 16 18  1  0
 18 19  1  0
 19 20  1  0
 17 21  1  0
 19 21  1  0
 17 22  1  0
  1 23  1  0
  3 24  1  0
  3 25  1  0
  4 26  1  0
  4 27  1  0
  5 28  1  0
  7 29  1  0
  7 30  1  0
  8 31  1  0
  9 32  1  0
 10 33  1  0
 10 34  1  0
 12 35  1  0
 12 36  1  0
 13 37  1  0
 14 38  1  0
 15 39  1  0
 15 40  1  0
 16 41  1  0
 16 42  1  0
 17 43  1  0
 18 44  1  0
 18 45  1  0
 19 46  1  0
 21 47  1  0
 21 48  1  0
M  END
>  <PDBID>  (1) 
5ESM

>  <PDB ID>  (1) 
5ESM

>  <Generic Name>  (1) 
Fluconazole

>  <Brand Name>  (1) 
Act Fluconazole#Apo-fluconazole#Apo-fluconazole-150#Canesoral#Canesoral Combi-pak#Clotrimaderm-fluconazole Combi-pack#Clotrimazole-fluconazole Combi-pack#Co Fluconazole-150#Diflucan#Diflucan Inj 2mg/ml#Diflucan One#Diflucan Pws 50mg/5ml#Diflucan Tab 100mg#Diflucan Tab 50mg#Dom-fluconazole#Fluconazole#Fluconazole 150#Fluconazole In Sodium Chloride Injection USP#Fluconazole Injection#Fluconazole Injection Sdz#Fluconazole Omega#Fluconazole-150#Jamp-fluconazole#Mar-fluconazole-150#Monicure#Monicure Combo#Mylan-fluconazole#Novo-fluconazole#Novo-fluconazole-150#Nu-fluconazole-150#PHL-fluconazole#PMS-fluconazole#PMS-fluconazole-150#Priva-fluconazole#Pro-fluconazole#Riva-fluconazole#Taro-fluconazole#Teva-fluconazole#Elazor#Flucazol#Flucostat#Flunizol#Pritenzol#Trican#Triflucan

>  <DrugBank ID>  (1) 
DB00196

>  <ATC Codes>  (1) 
D01AC15#J02AC01#J01RA07

>  <Ligand ID>  (1) 
TPF

>  <Target Name>  (1) 
Lanosterol 14-alpha demethylase

>  <UniProt ID>  (1) 
P10613

>  <PDB ID.1>  (1) 
5ESM

>  <Seq. Identity>  (1) 
65%

$$$$
