PDB_DB00182_08
     RDKit          3D

 29 29  0  0  0  0  0  0  0  0999 V2000
    3.5007    0.2546    0.8515 N   0  0  0  0  0  0  0  0  0  0  0  0
    2.2395    0.5653    0.2005 C   0  0  1  0  0  0  0  0  0  0  0  0
    2.4649    0.6379   -1.2613 C   0  0  0  0  0  0  0  0  0  0  0  0
    1.2290   -0.4281    0.6515 C   0  0  0  0  0  0  0  0  0  0  0  0
   -0.1362   -0.2640    0.0815 C   0  0  0  0  0  0  0  0  0  0  0  0
   -0.9868   -1.3721    0.6741 C   0  0  0  0  0  0  0  0  0  0  0  0
   -0.7853    1.0407    0.4380 C   0  0  0  0  0  0  0  0  0  0  0  0
   -2.4269   -1.2837    0.3098 C   0  0  0  0  0  0  0  0  0  0  0  0
   -2.1031    1.1002   -0.3410 C   0  0  0  0  0  0  0  0  0  0  0  0
   -3.0055    0.0852    0.3317 C   0  0  0  0  0  0  0  0  0  0  0  0
    3.4446   -0.6506    1.3970 H   0  0  0  0  0  0  0  0  0  0  0  0
    4.2769    0.1002    0.1623 H   0  0  0  0  0  0  0  0  0  0  0  0
    1.9393    1.5900    0.5604 H   0  0  0  0  0  0  0  0  0  0  0  0
    2.3440   -0.3277   -1.7897 H   0  0  0  0  0  0  0  0  0  0  0  0
    1.8403    1.3743   -1.7994 H   0  0  0  0  0  0  0  0  0  0  0  0
    3.5218    0.9486   -1.4371 H   0  0  0  0  0  0  0  0  0  0  0  0
    1.1507   -0.3822    1.7562 H   0  0  0  0  0  0  0  0  0  0  0  0
    1.5753   -1.4602    0.4147 H   0  0  0  0  0  0  0  0  0  0  0  0
   -0.1691   -0.3947   -1.0218 H   0  0  0  0  0  0  0  0  0  0  0  0
   -0.5888   -2.3508    0.3219 H   0  0  0  0  0  0  0  0  0  0  0  0
   -0.8094   -1.3603    1.7832 H   0  0  0  0  0  0  0  0  0  0  0  0
   -1.0610    1.0116    1.5203 H   0  0  0  0  0  0  0  0  0  0  0  0
   -0.1701    1.9219    0.2740 H   0  0  0  0  0  0  0  0  0  0  0  0
   -2.6207   -1.7802   -0.6662 H   0  0  0  0  0  0  0  0  0  0  0  0
   -2.9976   -1.8993    1.0637 H   0  0  0  0  0  0  0  0  0  0  0  0
   -1.9180    0.7258   -1.3874 H   0  0  0  0  0  0  0  0  0  0  0  0
   -2.5457    2.0943   -0.3241 H   0  0  0  0  0  0  0  0  0  0  0  0
   -3.1948    0.4603    1.3604 H   0  0  0  0  0  0  0  0  0  0  0  0
   -4.0079    0.0432   -0.1582 H   0  0  0  0  0  0  0  0  0  0  0  0
  1  2  1  0
  2  3  1  0
  2  4  1  0
  4  5  1  0
  5  6  1  0
  5  7  1  0
  6  8  1  0
  7  9  1  0
  8 10  1  0
  9 10  1  0
  1 11  1  0
  1 12  1  0
  2 13  1  1
  3 14  1  0
  3 15  1  0
  3 16  1  0
  4 17  1  0
  4 18  1  0
  5 19  1  0
  6 20  1  0
  6 21  1  0
  7 22  1  0
  7 23  1  0
  8 24  1  0
  8 25  1  0
  9 26  1  0
  9 27  1  0
 10 28  1  0
 10 29  1  0
M  END
>  <PDBID>  (1) 
4XP9

>  <PDB ID>  (1) 
4XP9

>  <Generic Name>  (1) 
Amphetamine

>  <Brand Name>  (1) 
Act Amphetamine XR#Adderall#Adderall XR#Adzenys XR-odt#Apo-amphetamine XR#Dextroamphetamine Saccharate and Amphetamine Aspartate and Dextroamphetamine Sulfate and Amphetamine Sulfate#Dextroamphetamine Saccharate, Amphetamine Aspartate (monohydrate), Dextroamphetamine Sulfate, Amphetamine Sulfate#Dextroamphetamine Saccharate, Amphetamine Aspartate Monohydrate, Dextroamphetamine Sulfate and Amphetamine Sulfate#Dextroamphetamine Saccharate, Amphetamine Aspartate Monohydrate, Dextroamphetamine Sulfate, Amphetamine Sulfate#Dextroamphetamine Saccharate, Amphetamine Aspartate, Dextroamphetamine Sulfate and Amphetamine Suflate#Dextroamphetamine Saccharate, Amphetamine Aspartate, Dextroamphetamine Sulfate and Amphetamine Sulfate#Dextroamphetamine Saccharate, Amphetamine Aspartate, Dextroamphetamine Sulfate, and Amphetamine Sulfate#Dyanavel XR#Evekeo#PMS-amphetamines XR#Sandoz Amphetamine XR

>  <DrugBank ID>  (1) 
DB00182

>  <ATC Codes>  (1) 
N06BA01

>  <Ligand ID>  (1) 
1WE,FRD

>  <Target Name>  (1) 
Sodium-dependent dopamine transporter

>  <UniProt ID>  (1) 
Q01959

>  <PDB ID.1>  (1) 
4XP9

>  <Seq. Identity>  (1) 
52%

$$$$
