PDB_DB06401_02
     RDKit          3D

348367  0  0  0  0  0  0  0  0999 V2000
    6.9063   -0.9484   -1.8517 C   0  0  1  0  0  0  0  0  0  0  0  0
    8.2344   -0.6847   -2.5284 C   0  0  0  0  0  0  0  0  0  0  0  0
    9.2225   -0.0426   -1.5792 C   0  0  0  0  0  0  0  0  0  0  0  0
    9.3951   -1.0168   -0.4161 C   0  0  0  0  0  0  0  0  0  0  0  0
    8.1079   -0.9994    0.3569 C   0  0  0  0  0  0  0  0  0  0  0  0
    6.8882   -1.1719   -0.4727 C   0  0  1  0  0  0  0  0  0  0  0  0
    6.3302    0.0934   -1.0391 N   0  0  0  0  0  0  0  0  0  0  0  0
    4.8907    0.2058   -0.9242 C   0  0  0  0  0  0  0  0  0  0  0  0
    4.6104    1.3978   -0.0419 C   0  0  0  0  0  0  0  0  0  0  0  0
    3.2745    1.6358    0.1719 O   0  0  0  0  0  0  0  0  0  0  0  0
    2.5848    0.6264    0.8023 C   0  0  0  0  0  0  0  0  0  0  0  0
    2.0224    1.0918    2.1459 C   0  0  0  0  0  0  0  0  0  0  0  0
    0.7388    0.3555    2.4642 C   0  0  0  0  0  0  0  0  0  0  0  0
    1.3933    0.2503   -0.0477 C   0  0  0  0  0  0  0  0  0  0  0  0
    0.2804    1.2388    0.2643 C   0  0  0  0  0  0  0  0  0  0  0  0
   -0.3920    0.9341    1.5806 C   0  0  0  0  0  0  0  0  0  0  0  0
   -1.4450   -0.1260    1.3839 C   0  0  0  0  0  0  0  0  0  0  0  0
   -2.5162    0.1823    0.6315 N   0  0  0  0  0  0  0  0  0  0  0  0
   -3.5956    1.0268    0.8819 C   0  0  0  0  0  0  0  0  0  0  0  0
   -3.2049    2.3855    1.3508 C   0  0  0  0  0  0  0  0  0  0  0  0
   -4.3886    3.3565    1.3641 C   0  0  0  0  0  0  0  0  0  0  0  0
   -5.1489    3.3788    0.0813 C   0  0  0  0  0  0  0  0  0  0  0  0
   -5.3697    4.6780   -0.3963 O   0  0  0  0  0  0  0  0  0  0  0  0
   -4.3959    2.5663   -0.9228 C   0  0  0  0  0  0  0  0  0  0  0  0
   -4.3669    1.1352   -0.4705 C   0  0  0  0  0  0  0  0  0  0  0  0
   -3.4225    0.3761   -1.3631 C   0  0  0  0  0  0  0  0  0  0  0  0
   -3.9143   -0.0051   -2.6817 C   0  0  0  0  0  0  0  0  0  0  0  0
   -2.9857   -0.7141   -0.4128 C   0  0  2  0  0  0  0  0  0  0  0  0
   -3.9853   -1.6525    0.0231 C   0  0  0  0  0  0  0  0  0  0  0  0
   -3.4989   -2.6129    1.0634 C   0  0  0  0  0  0  0  0  0  0  0  0
   -4.6810   -2.9570    1.9606 C   0  0  0  0  0  0  0  0  0  0  0  0
   -5.8025   -3.4083    1.0752 C   0  0  0  0  0  0  0  0  0  0  0  0
   -6.9381   -2.5861    1.1901 O   0  0  0  0  0  0  0  0  0  0  0  0
   -5.4359   -3.6492   -0.3460 C   0  0  0  0  0  0  0  0  0  0  0  0
   -4.7112   -2.4761   -0.9965 C   0  0  0  0  0  0  0  0  0  0  0  0
    7.4582   -1.6046   -0.2034 C   0  0  1  0  0  0  0  0  0  0  0  0
    8.6794   -1.4077   -1.0188 C   0  0  0  0  0  0  0  0  0  0  0  0
    9.4774   -0.1725   -0.6892 C   0  0  0  0  0  0  0  0  0  0  0  0
    8.5624    1.0004   -0.3160 C   0  0  0  0  0  0  0  0  0  0  0  0
    7.9195    0.5700    0.9997 C   0  0  0  0  0  0  0  0  0  0  0  0
    7.1041   -0.6558    0.7845 C   0  0  1  0  0  0  0  0  0  0  0  0
    6.3177   -0.7690   -0.4220 N   0  0  0  0  0  0  0  0  0  0  0  0
    4.9700   -1.2929   -0.3624 C   0  0  0  0  0  0  0  0  0  0  0  0
    4.5577   -1.7093    1.0011 C   0  0  0  0  0  0  0  0  0  0  0  0
    3.2604   -2.1811    0.9925 O   0  0  0  0  0  0  0  0  0  0  0  0
    2.3378   -1.2016    0.6399 C   0  0  0  0  0  0  0  0  0  0  0  0
    1.4791   -1.6654   -0.4872 C   0  0  0  0  0  0  0  0  0  0  0  0
    0.1372   -0.9444   -0.5864 C   0  0  0  0  0  0  0  0  0  0  0  0
    1.5212   -0.9604    1.9049 C   0  0  0  0  0  0  0  0  0  0  0  0
    0.3323   -0.1146    1.7020 C   0  0  0  0  0  0  0  0  0  0  0  0
    0.1777    0.2772    0.2275 C   0  0  0  0  0  0  0  0  0  0  0  0
   -0.8743    1.3077    0.0807 C   0  0  0  0  0  0  0  0  0  0  0  0
   -2.2292    0.9605    0.3719 N   0  0  0  0  0  0  0  0  0  0  0  0
   -2.9348    2.2600    0.5185 C   0  0  0  0  0  0  0  0  0  0  0  0
   -3.9667    2.2360    1.5890 C   0  0  0  0  0  0  0  0  0  0  0  0
   -5.3131    2.7607    1.1767 C   0  0  0  0  0  0  0  0  0  0  0  0
   -5.0443    4.0053    0.3393 C   0  0  0  0  0  0  0  0  0  0  0  0
   -4.0934    4.8145    0.9227 O   0  0  0  0  0  0  0  0  0  0  0  0
   -4.5211    3.5100   -0.9811 C   0  0  0  0  0  0  0  0  0  0  0  0
   -3.3422    2.5911   -0.8444 C   0  0  0  0  0  0  0  0  0  0  0  0
   -3.5748    1.2933   -1.5868 C   0  0  1  0  0  0  0  0  0  0  0  0
   -2.9937    1.3149   -2.9647 C   0  0  0  0  0  0  0  0  0  0  0  0
   -2.8646    0.2923   -0.6951 C   0  0  2  0  0  0  0  0  0  0  0  0
   -3.9288   -0.7009   -0.2674 C   0  0  0  0  0  0  0  0  0  0  0  0
   -3.4119   -1.8156    0.5898 C   0  0  0  0  0  0  0  0  0  0  0  0
   -4.6346   -2.5458    1.1632 C   0  0  0  0  0  0  0  0  0  0  0  0
   -5.7430   -2.5505    0.1441 C   0  0  0  0  0  0  0  0  0  0  0  0
   -6.6391   -3.5901    0.3352 O   0  0  0  0  0  0  0  0  0  0  0  0
   -5.0542   -2.6639   -1.2204 C   0  0  0  0  0  0  0  0  0  0  0  0
   -4.5261   -1.2768   -1.5402 C   0  0  0  0  0  0  0  0  0  0  0  0
    6.0992    1.3026    0.6944 C   0  0  0  0  0  0  0  0  0  0  0  0
    7.1914    1.8596    1.5626 C   0  0  0  0  0  0  0  0  0  0  0  0
    8.5276    1.2460    1.1738 C   0  0  0  0  0  0  0  0  0  0  0  0
    8.5939   -0.1349    1.7811 C   0  0  0  0  0  0  0  0  0  0  0  0
    8.2346   -1.1511    0.7351 C   0  0  0  0  0  0  0  0  0  0  0  0
    6.9703   -0.7863   -0.0033 C   0  0  0  0  0  0  0  0  0  0  0  0
    5.9804   -0.1434    0.8029 N   0  0  0  0  0  0  0  0  0  0  0  0
    4.6315   -0.5837    0.4872 C   0  0  0  0  0  0  0  0  0  0  0  0
    4.3347   -0.3670   -0.9762 C   0  0  0  0  0  0  0  0  0  0  0  0
    3.0782   -0.7552   -1.3668 O   0  0  0  0  0  0  0  0  0  0  0  0
    2.0314   -0.1144   -0.7570 C   0  0  0  0  0  0  0  0  0  0  0  0
    1.1650    0.6486   -1.7490 C   0  0  0  0  0  0  0  0  0  0  0  0
    0.4043   -0.2530   -2.6473 C   0  0  0  0  0  0  0  0  0  0  0  0
    1.0997   -1.0337    0.0055 C   0  0  0  0  0  0  0  0  0  0  0  0
    0.3110   -1.8870   -0.9264 C   0  0  0  0  0  0  0  0  0  0  0  0
   -0.6079   -1.1437   -1.8660 C   0  0  0  0  0  0  0  0  0  0  0  0
   -1.6290   -0.2599   -1.2558 C   0  0  0  0  0  0  0  0  0  0  0  0
   -2.7425   -0.7713   -0.5686 N   0  0  0  0  0  0  0  0  0  0  0  0
   -2.5757   -1.5334    0.6119 C   0  0  0  0  0  0  0  0  0  0  0  0
   -2.9789   -2.9703    0.4391 C   0  0  0  0  0  0  0  0  0  0  0  0
   -3.2661   -3.7416    1.6672 C   0  0  0  0  0  0  0  0  0  0  0  0
   -3.7009   -3.0285    2.8750 C   0  0  0  0  0  0  0  0  0  0  0  0
   -4.9719   -3.5029    3.3105 O   0  0  0  0  0  0  0  0  0  0  0  0
   -3.7259   -1.5597    2.8753 C   0  0  0  0  0  0  0  0  0  0  0  0
   -3.3888   -0.8326    1.6527 C   0  0  0  0  0  0  0  0  0  0  0  0
   -4.5439   -0.3296    0.8388 C   0  0  0  0  0  0  0  0  0  0  0  0
   -5.5673   -1.3113    0.4149 C   0  0  0  0  0  0  0  0  0  0  0  0
   -3.7997    0.1904   -0.3562 C   0  0  1  0  0  0  0  0  0  0  0  0
   -3.5050    1.6237   -0.3359 C   0  0  0  0  0  0  0  0  0  0  0  0
   -3.2277    2.2601   -1.6710 C   0  0  0  0  0  0  0  0  0  0  0  0
   -3.8714    3.6483   -1.7964 C   0  0  0  0  0  0  0  0  0  0  0  0
   -5.3425    3.6478   -1.5843 C   0  0  0  0  0  0  0  0  0  0  0  0
   -5.6941    4.9241   -1.0897 O   0  0  0  0  0  0  0  0  0  0  0  0
   -5.7074    2.6595   -0.4660 C   0  0  0  0  0  0  0  0  0  0  0  0
   -4.4813    2.5226    0.3759 C   0  0  0  0  0  0  0  0  0  0  0  0
    6.8029   -1.0359   -0.2931 C   0  0  2  0  0  0  0  0  0  0  0  0
    7.8767   -1.5935   -1.1703 C   0  0  0  0  0  0  0  0  0  0  0  0
    8.9967   -2.2403   -0.3960 C   0  0  0  0  0  0  0  0  0  0  0  0
    8.3709   -3.3015    0.4774 C   0  0  0  0  0  0  0  0  0  0  0  0
    7.5537   -2.6097    1.5286 C   0  0  0  0  0  0  0  0  0  0  0  0
    6.6500   -1.5370    1.0224 C   0  0  2  0  0  0  0  0  0  0  0  0
    5.6816   -1.9452    0.0532 N   0  0  0  0  0  0  0  0  0  0  0  0
    4.3718   -1.3961   -0.0310 C   0  0  0  0  0  0  0  0  0  0  0  0
    4.0762   -0.3275    1.0156 C   0  0  0  0  0  0  0  0  0  0  0  0
    2.7634    0.0710    0.7652 O   0  0  0  0  0  0  0  0  0  0  0  0
    2.3035    1.0522    1.6339 C   0  0  0  0  0  0  0  0  0  0  0  0
    1.9727    2.3336    0.9562 C   0  0  0  0  0  0  0  0  0  0  0  0
    0.5323    2.6853    1.1973 C   0  0  0  0  0  0  0  0  0  0  0  0
    1.1618    0.5985    2.4786 C   0  0  0  0  0  0  0  0  0  0  0  0
   -0.0934    0.3443    1.6488 C   0  0  0  0  0  0  0  0  0  0  0  0
   -0.3733    1.5412    0.7499 C   0  0  0  0  0  0  0  0  0  0  0  0
   -1.8241    1.9356    0.8585 C   0  0  0  0  0  0  0  0  0  0  0  0
   -2.6803    0.9009    0.4719 N   0  0  0  0  0  0  0  0  0  0  0  0
   -4.0861    1.1668    0.6622 C   0  0  0  0  0  0  0  0  0  0  0  0
   -4.2077    2.4009    1.5513 C   0  0  0  0  0  0  0  0  0  0  0  0
   -5.6474    2.8582    1.6470 C   0  0  0  0  0  0  0  0  0  0  0  0
   -6.2858    3.0002    0.2827 C   0  0  0  0  0  0  0  0  0  0  0  0
   -7.0194    4.1652    0.1565 O   0  0  0  0  0  0  0  0  0  0  0  0
   -5.1946    2.8954   -0.7548 C   0  0  0  0  0  0  0  0  0  0  0  0
   -4.6813    1.4443   -0.6969 C   0  0  0  0  0  0  0  0  0  0  0  0
   -3.5012    1.3012   -1.5760 C   0  0  0  0  0  0  0  0  0  0  0  0
   -3.7753    1.1320   -3.0270 C   0  0  0  0  0  0  0  0  0  0  0  0
   -2.5944    0.3959   -0.8805 C   0  0  2  0  0  0  0  0  0  0  0  0
   -2.7354   -1.0600   -0.8856 C   0  0  0  0  0  0  0  0  0  0  0  0
   -2.5833   -1.5852   -2.3015 C   0  0  0  0  0  0  0  0  0  0  0  0
   -1.9105   -2.9498   -2.2273 C   0  0  0  0  0  0  0  0  0  0  0  0
   -2.6194   -3.7353   -1.1659 C   0  0  0  0  0  0  0  0  0  0  0  0
   -1.8374   -3.9879   -0.0411 O   0  0  0  0  0  0  0  0  0  0  0  0
   -3.9665   -3.2028   -0.7868 C   0  0  0  0  0  0  0  0  0  0  0  0
   -3.8777   -1.7470   -0.2842 C   0  0  0  0  0  0  0  0  0  0  0  0
    6.2005   -1.5108   -2.5240 H   0  0  0  0  0  0  0  0  0  0  0  0
    8.1350   -0.0483   -3.4223 H   0  0  0  0  0  0  0  0  0  0  0  0
    8.6475   -1.6662   -2.8319 H   0  0  0  0  0  0  0  0  0  0  0  0
    8.8062    0.9143   -1.2102 H   0  0  0  0  0  0  0  0  0  0  0  0
   10.1861    0.0473   -2.0939 H   0  0  0  0  0  0  0  0  0  0  0  0
   10.1853   -0.6077    0.2590 H   0  0  0  0  0  0  0  0  0  0  0  0
    9.6294   -2.0161   -0.7928 H   0  0  0  0  0  0  0  0  0  0  0  0
    8.0381   -0.0459    0.9026 H   0  0  0  0  0  0  0  0  0  0  0  0
    8.1945   -1.7961    1.1472 H   0  0  0  0  0  0  0  0  0  0  0  0
    6.1279   -1.8802   -0.0353 H   0  0  0  0  0  0  0  0  0  0  0  0
    4.4966   -0.6963   -0.4417 H   0  0  0  0  0  0  0  0  0  0  0  0
    4.5078    0.3548   -1.9553 H   0  0  0  0  0  0  0  0  0  0  0  0
    5.0057    2.3047   -0.5857 H   0  0  0  0  0  0  0  0  0  0  0  0
    5.1107    1.3043    0.9367 H   0  0  0  0  0  0  0  0  0  0  0  0
    3.2122   -0.2570    1.0555 H   0  0  0  0  0  0  0  0  0  0  0  0
    1.8978    2.1803    2.1306 H   0  0  0  0  0  0  0  0  0  0  0  0
    2.7319    0.8460    2.9608 H   0  0  0  0  0  0  0  0  0  0  0  0
    0.8710   -0.7133    2.2980 H   0  0  0  0  0  0  0  0  0  0  0  0
    0.4640    0.5596    3.5059 H   0  0  0  0  0  0  0  0  0  0  0  0
    1.1091   -0.7913    0.1333 H   0  0  0  0  0  0  0  0  0  0  0  0
    1.6786    0.4110   -1.1218 H   0  0  0  0  0  0  0  0  0  0  0  0
   -0.3906    1.3844   -0.5761 H   0  0  0  0  0  0  0  0  0  0  0  0
    0.8075    2.2287    0.4061 H   0  0  0  0  0  0  0  0  0  0  0  0
   -0.7420    1.8580    2.0097 H   0  0  0  0  0  0  0  0  0  0  0  0
   -0.8271   -1.0192    1.0238 H   0  0  0  0  0  0  0  0  0  0  0  0
   -1.7768   -0.3659    2.4506 H   0  0  0  0  0  0  0  0  0  0  0  0
   -4.3543    0.5658    1.6163 H   0  0  0  0  0  0  0  0  0  0  0  0
   -2.3962    2.8086    0.7734 H   0  0  0  0  0  0  0  0  0  0  0  0
   -2.9024    2.2868    2.4155 H   0  0  0  0  0  0  0  0  0  0  0  0
   -5.0153    3.2307    2.2705 H   0  0  0  0  0  0  0  0  0  0  0  0
   -3.9110    4.3739    1.4771 H   0  0  0  0  0  0  0  0  0  0  0  0
   -6.1658    2.9378    0.2174 H   0  0  0  0  0  0  0  0  0  0  0  0
   -4.8106    5.3490    0.0378 H   0  0  0  0  0  0  0  0  0  0  0  0
   -3.3553    2.9340   -1.0050 H   0  0  0  0  0  0  0  0  0  0  0  0
   -4.8496    2.6039   -1.9383 H   0  0  0  0  0  0  0  0  0  0  0  0
   -5.3709    0.7535   -0.3972 H   0  0  0  0  0  0  0  0  0  0  0  0
   -2.5359    1.0302   -1.4708 H   0  0  0  0  0  0  0  0  0  0  0  0
   -3.5564    0.7124   -3.4874 H   0  0  0  0  0  0  0  0  0  0  0  0
   -5.0387    0.0879   -2.7848 H   0  0  0  0  0  0  0  0  0  0  0  0
   -3.5505   -0.9882   -3.0564 H   0  0  0  0  0  0  0  0  0  0  0  0
   -2.0773   -1.1711   -0.8584 H   0  0  0  0  0  0  0  0  0  0  0  0
   -4.8268   -1.0657    0.5212 H   0  0  0  0  0  0  0  0  0  0  0  0
   -3.2401   -3.6146    0.5811 H   0  0  0  0  0  0  0  0  0  0  0  0
   -2.6163   -2.3486    1.6206 H   0  0  0  0  0  0  0  0  0  0  0  0
   -5.0412   -2.0261    2.4830 H   0  0  0  0  0  0  0  0  0  0  0  0
   -4.4083   -3.6601    2.7478 H   0  0  0  0  0  0  0  0  0  0  0  0
   -6.1357   -4.4075    1.4863 H   0  0  0  0  0  0  0  0  0  0  0  0
   -6.3946   -3.8408   -0.8961 H   0  0  0  0  0  0  0  0  0  0  0  0
   -4.8522   -4.5958   -0.4676 H   0  0  0  0  0  0  0  0  0  0  0  0
   -5.4967   -1.8830   -1.5060 H   0  0  0  0  0  0  0  0  0  0  0  0
   -4.0854   -2.9163   -1.7682 H   0  0  0  0  0  0  0  0  0  0  0  0
    7.2059   -2.6909   -0.0210 H   0  0  0  0  0  0  0  0  0  0  0  0
    9.3792   -2.2815   -0.8648 H   0  0  0  0  0  0  0  0  0  0  0  0
    8.4913   -1.3667   -2.1225 H   0  0  0  0  0  0  0  0  0  0  0  0
   10.0669   -0.3896    0.2410 H   0  0  0  0  0  0  0  0  0  0  0  0
   10.1466    0.0773   -1.5169 H   0  0  0  0  0  0  0  0  0  0  0  0
    7.8331    1.2096   -1.1029 H   0  0  0  0  0  0  0  0  0  0  0  0
    9.2327    1.8668   -0.1379 H   0  0  0  0  0  0  0  0  0  0  0  0
    8.7725    0.3070    1.6854 H   0  0  0  0  0  0  0  0  0  0  0  0
    7.3506    1.3926    1.4767 H   0  0  0  0  0  0  0  0  0  0  0  0
    6.5998   -1.0072    1.7228 H   0  0  0  0  0  0  0  0  0  0  0  0
    4.3209   -0.5521   -0.8279 H   0  0  0  0  0  0  0  0  0  0  0  0
    4.8845   -2.2111   -1.0131 H   0  0  0  0  0  0  0  0  0  0  0  0
    4.5521   -0.8415    1.7257 H   0  0  0  0  0  0  0  0  0  0  0  0
    5.2756   -2.4927    1.3584 H   0  0  0  0  0  0  0  0  0  0  0  0
    2.8562   -0.2406    0.4489 H   0  0  0  0  0  0  0  0  0  0  0  0
    2.0711   -1.5813   -1.4200 H   0  0  0  0  0  0  0  0  0  0  0  0
    1.3092   -2.7715   -0.3625 H   0  0  0  0  0  0  0  0  0  0  0  0
    0.0105   -0.7574   -1.6848 H   0  0  0  0  0  0  0  0  0  0  0  0
   -0.6151   -1.6657   -0.2398 H   0  0  0  0  0  0  0  0  0  0  0  0
    1.3098   -1.9590    2.3564 H   0  0  0  0  0  0  0  0  0  0  0  0
    2.2315   -0.4704    2.6148 H   0  0  0  0  0  0  0  0  0  0  0  0
    0.3289    0.8254    2.2982 H   0  0  0  0  0  0  0  0  0  0  0  0
   -0.5976   -0.6469    1.9845 H   0  0  0  0  0  0  0  0  0  0  0  0
    1.1600    0.7968   -0.0019 H   0  0  0  0  0  0  0  0  0  0  0  0
   -0.7648    1.7310   -0.9607 H   0  0  0  0  0  0  0  0  0  0  0  0
   -0.5289    2.1891    0.7189 H   0  0  0  0  0  0  0  0  0  0  0  0
   -2.1463    2.9996    0.8522 H   0  0  0  0  0  0  0  0  0  0  0  0
   -3.6636    2.8570    2.4853 H   0  0  0  0  0  0  0  0  0  0  0  0
   -4.0101    1.1961    2.0272 H   0  0  0  0  0  0  0  0  0  0  0  0
   -5.8384    2.0215    0.5407 H   0  0  0  0  0  0  0  0  0  0  0  0
   -5.8648    3.0539    2.0696 H   0  0  0  0  0  0  0  0  0  0  0  0
   -6.0190    4.5083    0.1539 H   0  0  0  0  0  0  0  0  0  0  0  0
   -3.4061    5.1296    0.2621 H   0  0  0  0  0  0  0  0  0  0  0  0
   -4.3466    4.3873   -1.6296 H   0  0  0  0  0  0  0  0  0  0  0  0
   -5.3511    2.9246   -1.4417 H   0  0  0  0  0  0  0  0  0  0  0  0
   -2.4841    3.0934   -1.3765 H   0  0  0  0  0  0  0  0  0  0  0  0
   -4.6619    1.1377   -1.6538 H   0  0  0  0  0  0  0  0  0  0  0  0
   -2.3742    0.4482   -3.1967 H   0  0  0  0  0  0  0  0  0  0  0  0
   -2.4083    2.2679   -3.0513 H   0  0  0  0  0  0  0  0  0  0  0  0
   -3.7927    1.4285   -3.7557 H   0  0  0  0  0  0  0  0  0  0  0  0
   -2.1500   -0.2912   -1.2977 H   0  0  0  0  0  0  0  0  0  0  0  0
   -4.7795   -0.2273    0.2688 H   0  0  0  0  0  0  0  0  0  0  0  0
   -2.8297   -1.4401    1.4346 H   0  0  0  0  0  0  0  0  0  0  0  0
   -2.8025   -2.5483    0.0076 H   0  0  0  0  0  0  0  0  0  0  0  0
   -4.9994   -2.0132    2.0611 H   0  0  0  0  0  0  0  0  0  0  0  0
   -4.3804   -3.6114    1.3912 H   0  0  0  0  0  0  0  0  0  0  0  0
   -6.2916   -1.5878    0.1280 H   0  0  0  0  0  0  0  0  0  0  0  0
   -7.5357   -3.2590    0.0668 H   0  0  0  0  0  0  0  0  0  0  0  0
   -5.8236   -2.9033   -1.9877 H   0  0  0  0  0  0  0  0  0  0  0  0
   -4.2744   -3.4371   -1.2114 H   0  0  0  0  0  0  0  0  0  0  0  0
   -3.8250   -1.2737   -2.3734 H   0  0  0  0  0  0  0  0  0  0  0  0
   -5.4256   -0.7013   -1.8818 H   0  0  0  0  0  0  0  0  0  0  0  0
    6.3399    1.5245   -0.3811 H   0  0  0  0  0  0  0  0  0  0  0  0
    5.1460    1.7994    0.9768 H   0  0  0  0  0  0  0  0  0  0  0  0
    7.2482    2.9388    1.4132 H   0  0  0  0  0  0  0  0  0  0  0  0
    6.9753    1.5676    2.6260 H   0  0  0  0  0  0  0  0  0  0  0  0
    9.3238    1.8699    1.6220 H   0  0  0  0  0  0  0  0  0  0  0  0
    8.5620    1.2340    0.0634 H   0  0  0  0  0  0  0  0  0  0  0  0
    7.9179   -0.2457    2.6495 H   0  0  0  0  0  0  0  0  0  0  0  0
    9.6376   -0.3385    2.1200 H   0  0  0  0  0  0  0  0  0  0  0  0
    8.1372   -2.1477    1.2479 H   0  0  0  0  0  0  0  0  0  0  0  0
    9.0929   -1.2324    0.0319 H   0  0  0  0  0  0  0  0  0  0  0  0
    7.2522   -0.0735   -0.8174 H   0  0  0  0  0  0  0  0  0  0  0  0
    6.5510   -1.7296   -0.4273 H   0  0  0  0  0  0  0  0  0  0  0  0
    4.6049   -1.6791    0.7437 H   0  0  0  0  0  0  0  0  0  0  0  0
    3.9462   -0.0147    1.1330 H   0  0  0  0  0  0  0  0  0  0  0  0
    5.0607   -0.9650   -1.5631 H   0  0  0  0  0  0  0  0  0  0  0  0
    4.5414    0.7011   -1.2066 H   0  0  0  0  0  0  0  0  0  0  0  0
    2.4112    0.6311   -0.0303 H   0  0  0  0  0  0  0  0  0  0  0  0
    0.5710    1.3693   -1.1851 H   0  0  0  0  0  0  0  0  0  0  0  0
    1.8532    1.2610   -2.3870 H   0  0  0  0  0  0  0  0  0  0  0  0
    1.1000   -0.9172   -3.1922 H   0  0  0  0  0  0  0  0  0  0  0  0
   -0.1639    0.3633   -3.3639 H   0  0  0  0  0  0  0  0  0  0  0  0
    1.7571   -1.7265    0.5901 H   0  0  0  0  0  0  0  0  0  0  0  0
    0.5388   -0.4550    0.7335 H   0  0  0  0  0  0  0  0  0  0  0  0
   -0.0861   -2.7699   -0.4498 H   0  0  0  0  0  0  0  0  0  0  0  0
    1.1047   -2.3232   -1.6443 H   0  0  0  0  0  0  0  0  0  0  0  0
   -1.0084   -1.8298   -2.6069 H   0  0  0  0  0  0  0  0  0  0  0  0
   -2.0980    0.2092   -2.2030 H   0  0  0  0  0  0  0  0  0  0  0  0
   -1.2045    0.6121   -0.7155 H   0  0  0  0  0  0  0  0  0  0  0  0
   -1.5296   -1.5262    0.9401 H   0  0  0  0  0  0  0  0  0  0  0  0
   -3.8136   -2.9884   -0.3204 H   0  0  0  0  0  0  0  0  0  0  0  0
   -2.1724   -3.4939   -0.1076 H   0  0  0  0  0  0  0  0  0  0  0  0
   -4.0758   -4.4845    1.3749 H   0  0  0  0  0  0  0  0  0  0  0  0
   -2.4024   -4.4453    1.8895 H   0  0  0  0  0  0  0  0  0  0  0  0
   -3.0457   -3.3780    3.7372 H   0  0  0  0  0  0  0  0  0  0  0  0
   -5.5906   -2.7391    3.4621 H   0  0  0  0  0  0  0  0  0  0  0  0
   -3.0732   -1.1561    3.7139 H   0  0  0  0  0  0  0  0  0  0  0  0
   -4.7442   -1.1729    3.2030 H   0  0  0  0  0  0  0  0  0  0  0  0
   -2.7986    0.1088    1.8937 H   0  0  0  0  0  0  0  0  0  0  0  0
   -5.0914    0.4799    1.3868 H   0  0  0  0  0  0  0  0  0  0  0  0
   -5.5772   -1.5052   -0.7007 H   0  0  0  0  0  0  0  0  0  0  0  0
   -5.6306   -2.2481    0.9612 H   0  0  0  0  0  0  0  0  0  0  0  0
   -6.6133   -0.8635    0.5470 H   0  0  0  0  0  0  0  0  0  0  0  0
   -4.5164    0.0264   -1.2401 H   0  0  0  0  0  0  0  0  0  0  0  0
   -2.5420    1.7397    0.2956 H   0  0  0  0  0  0  0  0  0  0  0  0
   -3.7298    1.7057   -2.5215 H   0  0  0  0  0  0  0  0  0  0  0  0
   -2.1588    2.4727   -1.8495 H   0  0  0  0  0  0  0  0  0  0  0  0
   -3.2980    4.4332   -1.2815 H   0  0  0  0  0  0  0  0  0  0  0  0
   -3.7292    3.9004   -2.8954 H   0  0  0  0  0  0  0  0  0  0  0  0
   -5.9389    3.4696   -2.4829 H   0  0  0  0  0  0  0  0  0  0  0  0
   -5.2182    5.0718   -0.2127 H   0  0  0  0  0  0  0  0  0  0  0  0
   -6.5869    3.0203    0.1095 H   0  0  0  0  0  0  0  0  0  0  0  0
   -5.9633    1.7090   -1.0127 H   0  0  0  0  0  0  0  0  0  0  0  0
   -3.9704    3.5450    0.3677 H   0  0  0  0  0  0  0  0  0  0  0  0
   -4.6272    2.3464    1.4356 H   0  0  0  0  0  0  0  0  0  0  0  0
    6.5366    0.0295   -0.5010 H   0  0  0  0  0  0  0  0  0  0  0  0
    8.3183   -0.8080   -1.8238 H   0  0  0  0  0  0  0  0  0  0  0  0
    7.4598   -2.3744   -1.8459 H   0  0  0  0  0  0  0  0  0  0  0  0
    9.4421   -1.4914    0.3130 H   0  0  0  0  0  0  0  0  0  0  0  0
    9.7404   -2.6145   -1.1010 H   0  0  0  0  0  0  0  0  0  0  0  0
    9.1949   -3.8522    0.9790 H   0  0  0  0  0  0  0  0  0  0  0  0
    7.7887   -4.0431   -0.1025 H   0  0  0  0  0  0  0  0  0  0  0  0
    8.2465   -2.1903    2.2825 H   0  0  0  0  0  0  0  0  0  0  0  0
    6.9437   -3.4136    2.0329 H   0  0  0  0  0  0  0  0  0  0  0  0
    6.3152   -0.8269    1.8301 H   0  0  0  0  0  0  0  0  0  0  0  0
    4.1501   -0.9881   -1.0555 H   0  0  0  0  0  0  0  0  0  0  0  0
    3.6254   -2.1970    0.1503 H   0  0  0  0  0  0  0  0  0  0  0  0
    4.8063    0.4909    0.8567 H   0  0  0  0  0  0  0  0  0  0  0  0
    4.1846   -0.7699    2.0047 H   0  0  0  0  0  0  0  0  0  0  0  0
    3.1591    1.2585    2.3382 H   0  0  0  0  0  0  0  0  0  0  0  0
    2.1979    2.2714   -0.1348 H   0  0  0  0  0  0  0  0  0  0  0  0
    2.5869    3.1847    1.3282 H   0  0  0  0  0  0  0  0  0  0  0  0
    0.3837    2.9621    2.2601 H   0  0  0  0  0  0  0  0  0  0  0  0
    0.3121    3.5599    0.5411 H   0  0  0  0  0  0  0  0  0  0  0  0
    0.9262    1.2882    3.2898 H   0  0  0  0  0  0  0  0  0  0  0  0
    1.4194   -0.3864    2.9210 H   0  0  0  0  0  0  0  0  0  0  0  0
   -0.9316    0.2535    2.3641 H   0  0  0  0  0  0  0  0  0  0  0  0
   -0.0088   -0.5797    1.0428 H   0  0  0  0  0  0  0  0  0  0  0  0
   -0.0312    1.2574   -0.2474 H   0  0  0  0  0  0  0  0  0  0  0  0
   -1.9533    2.2806    1.9134 H   0  0  0  0  0  0  0  0  0  0  0  0
   -1.9502    2.7965    0.1481 H   0  0  0  0  0  0  0  0  0  0  0  0
   -4.5944    0.3331    1.1860 H   0  0  0  0  0  0  0  0  0  0  0  0
   -3.6137    3.2479    1.1957 H   0  0  0  0  0  0  0  0  0  0  0  0
   -3.8961    2.1154    2.5687 H   0  0  0  0  0  0  0  0  0  0  0  0
   -6.2480    2.1943    2.3133 H   0  0  0  0  0  0  0  0  0  0  0  0
   -5.6506    3.8608    2.1148 H   0  0  0  0  0  0  0  0  0  0  0  0
   -6.9371    2.0908    0.1631 H   0  0  0  0  0  0  0  0  0  0  0  0
   -7.0617    4.6468    1.0231 H   0  0  0  0  0  0  0  0  0  0  0  0
   -4.3935    3.6243   -0.6437 H   0  0  0  0  0  0  0  0  0  0  0  0
   -5.6949    2.9632   -1.7587 H   0  0  0  0  0  0  0  0  0  0  0  0
   -5.5596    0.8347   -0.9479 H   0  0  0  0  0  0  0  0  0  0  0  0
   -2.9931    2.3258   -1.5115 H   0  0  0  0  0  0  0  0  0  0  0  0
   -4.2921    2.0682   -3.4217 H   0  0  0  0  0  0  0  0  0  0  0  0
   -4.5182    0.3460   -3.2586 H   0  0  0  0  0  0  0  0  0  0  0  0
   -2.8618    1.1115   -3.6512 H   0  0  0  0  0  0  0  0  0  0  0  0
   -1.5487    0.6636   -1.2390 H   0  0  0  0  0  0  0  0  0  0  0  0
   -1.8199   -1.4712   -0.3440 H   0  0  0  0  0  0  0  0  0  0  0  0
   -3.5357   -1.7518   -2.8182 H   0  0  0  0  0  0  0  0  0  0  0  0
   -1.9431   -0.9457   -2.9249 H   0  0  0  0  0  0  0  0  0  0  0  0
   -0.8470   -2.8296   -1.8835 H   0  0  0  0  0  0  0  0  0  0  0  0
   -1.9696   -3.3896   -3.2336 H   0  0  0  0  0  0  0  0  0  0  0  0
   -2.8254   -4.7534   -1.6175 H   0  0  0  0  0  0  0  0  0  0  0  0
   -4.3603   -3.8323    0.0304 H   0  0  0  0  0  0  0  0  0  0  0  0
   -4.6919   -3.2895   -1.6178 H   0  0  0  0  0  0  0  0  0  0  0  0
   -3.7456   -1.8562    0.8359 H   0  0  0  0  0  0  0  0  0  0  0  0
   -4.8803   -1.3727   -0.4408 H   0  0  0  0  0  0  0  0  0  0  0  0
  1  2  1  0
  2  3  1  0
  3  4  1  0
  4  5  1  0
  5  6  1  0
  6  1  1  0
  1  7  1  0
  6  7  1  0
  7  8  1  0
  8  9  1  0
  9 10  1  0
 10 11  1  0
 11 12  1  0
 12 13  1  0
 11 14  1  0
 14 15  1  0
 13 16  1  0
 15 16  1  0
 16 17  1  0
 17 18  1  0
 18 19  1  0
 19 20  1  0
 20 21  1  0
 21 22  1  0
 22 23  1  0
 22 24  1  0
 19 25  1  0
 24 25  1  0
 25 26  1  0
 26 27  1  0
 18 28  1  0
 26 28  1  0
 28 29  1  0
 29 30  1  0
 30 31  1  0
 31 32  1  0
 32 33  1  0
 32 34  1  0
 29 35  1  0
 34 35  1  0
 36 37  1  0
 37 38  1  0
 38 39  1  0
 39 40  1  0
 40 41  1  0
 41 36  1  0
 36 42  1  0
 41 42  1  0
 42 43  1  0
 43 44  1  0
 44 45  1  0
 45 46  1  0
 46 47  1  0
 47 48  1  0
 46 49  1  0
 49 50  1  0
 48 51  1  0
 50 51  1  0
 51 52  1  0
 52 53  1  0
 53 54  1  0
 54 55  1  0
 55 56  1  0
 56 57  1  0
 57 58  1  0
 57 59  1  0
 54 60  1  0
 59 60  1  0
 60 61  1  0
 61 62  1  0
 53 63  1  0
 61 63  1  0
 63 64  1  0
 64 65  1  0
 65 66  1  0
 66 67  1  0
 67 68  1  0
 67 69  1  0
 64 70  1  0
 69 70  1  0
 71 72  1  0
 72 73  1  0
 73 74  1  0
 74 75  1  0
 75 76  1  0
 71 77  1  0
 76 77  1  0
 77 78  1  0
 78 79  1  0
 79 80  1  0
 80 81  1  0
 81 82  1  0
 82 83  1  0
 81 84  1  0
 84 85  1  0
 83 86  1  0
 85 86  1  0
 86 87  1  0
 87 88  1  0
 88 89  1  0
 89 90  1  0
 90 91  1  0
 91 92  1  0
 92 93  1  0
 92 94  1  0
 89 95  1  0
 94 95  1  0
 95 96  1  0
 96 97  1  0
 88 98  1  0
 96 98  1  0
 98 99  1  0
 99100  1  0
100101  1  0
101102  1  0
102103  1  0
102104  1  0
 99105  1  0
104105  1  0
106107  1  0
107108  1  0
108109  1  0
109110  1  0
110111  1  0
111106  1  0
106112  1  0
111112  1  0
112113  1  0
113114  1  0
114115  1  0
115116  1  0
116117  1  0
117118  1  0
116119  1  0
119120  1  0
118121  1  0
120121  1  0
121122  1  0
122123  1  0
123124  1  0
124125  1  0
125126  1  0
126127  1  0
127128  1  0
127129  1  0
124130  1  0
129130  1  0
130131  1  0
131132  1  0
123133  1  0
131133  1  0
133134  1  0
134135  1  0
135136  1  0
136137  1  0
137138  1  0
137139  1  0
134140  1  0
139140  1  0
  1141  1  6
  2142  1  0
  2143  1  0
  3144  1  0
  3145  1  0
  4146  1  0
  4147  1  0
  5148  1  0
  5149  1  0
  6150  1  6
  8151  1  0
  8152  1  0
  9153  1  0
  9154  1  0
 11155  1  0
 12156  1  0
 12157  1  0
 13158  1  0
 13159  1  0
 14160  1  0
 14161  1  0
 15162  1  0
 15163  1  0
 16164  1  0
 17165  1  0
 17166  1  0
 19167  1  0
 20168  1  0
 20169  1  0
 21170  1  0
 21171  1  0
 22172  1  0
 23173  1  0
 24174  1  0
 24175  1  0
 25176  1  0
 26177  1  0
 27178  1  0
 27179  1  0
 27180  1  0
 28181  1  6
 29182  1  0
 30183  1  0
 30184  1  0
 31185  1  0
 31186  1  0
 32187  1  0
 34188  1  0
 34189  1  0
 35190  1  0
 35191  1  0
 36192  1  1
 37193  1  0
 37194  1  0
 38195  1  0
 38196  1  0
 39197  1  0
 39198  1  0
 40199  1  0
 40200  1  0
 41201  1  1
 43202  1  0
 43203  1  0
 44204  1  0
 44205  1  0
 46206  1  0
 47207  1  0
 47208  1  0
 48209  1  0
 48210  1  0
 49211  1  0
 49212  1  0
 50213  1  0
 50214  1  0
 51215  1  0
 52216  1  0
 52217  1  0
 54218  1  0
 55219  1  0
 55220  1  0
 56221  1  0
 56222  1  0
 57223  1  0
 58224  1  0
 59225  1  0
 59226  1  0
 60227  1  0
 61228  1  6
 62229  1  0
 62230  1  0
 62231  1  0
 63232  1  6
 64233  1  0
 65234  1  0
 65235  1  0
 66236  1  0
 66237  1  0
 67238  1  0
 68239  1  0
 69240  1  0
 69241  1  0
 70242  1  0
 70243  1  0
 71244  1  0
 71245  1  0
 72246  1  0
 72247  1  0
 73248  1  0
 73249  1  0
 74250  1  0
 74251  1  0
 75252  1  0
 75253  1  0
 76254  1  0
 76255  1  0
 78256  1  0
 78257  1  0
 79258  1  0
 79259  1  0
 81260  1  0
 82261  1  0
 82262  1  0
 83263  1  0
 83264  1  0
 84265  1  0
 84266  1  0
 85267  1  0
 85268  1  0
 86269  1  0
 87270  1  0
 87271  1  0
 89272  1  0
 90273  1  0
 90274  1  0
 91275  1  0
 91276  1  0
 92277  1  0
 93278  1  0
 94279  1  0
 94280  1  0
 95281  1  0
 96282  1  0
 97283  1  0
 97284  1  0
 97285  1  0
 98286  1  6
 99287  1  0
100288  1  0
100289  1  0
101290  1  0
101291  1  0
102292  1  0
103293  1  0
104294  1  0
104295  1  0
105296  1  0
105297  1  0
106298  1  1
107299  1  0
107300  1  0
108301  1  0
108302  1  0
109303  1  0
109304  1  0
110305  1  0
110306  1  0
111307  1  1
113308  1  0
113309  1  0
114310  1  0
114311  1  0
116312  1  0
117313  1  0
117314  1  0
118315  1  0
118316  1  0
119317  1  0
119318  1  0
120319  1  0
120320  1  0
121321  1  0
122322  1  0
122323  1  0
124324  1  0
125325  1  0
125326  1  0
126327  1  0
126328  1  0
127329  1  0
128330  1  0
129331  1  0
129332  1  0
130333  1  0
131334  1  0
132335  1  0
132336  1  0
132337  1  0
133338  1  6
134339  1  0
135340  1  0
135341  1  0
136342  1  0
136343  1  0
137344  1  0
139345  1  0
139346  1  0
140347  1  0
140348  1  0
M  END
>  <PDBID>  (1) 
4XI3

>  <PDB ID>  (1) 
4XI3

>  <Generic Name>  (1) 
Bazedoxifene

>  <Brand Name>  (1) 
Duavee#Duavive#Aprela#Viviant

>  <DrugBank ID>  (1) 
DB06401

>  <ATC Codes>  (1) 
G03CC07#G03XC02

>  <Ligand ID>  (1) 
29S

>  <Target Name>  (1) 
Estrogen receptor

>  <UniProt ID>  (1) 
P03372

>  <PDB ID.1>  (1) 
4XI3

>  <Seq. Identity>  (1) 
92%

$$$$
