PDB_DB00674_05
     RDKit          3D

100106  0  0  0  0  0  0  0  0999 V2000
    1.7520    0.4002   -1.2617 C   0  0  0  0  0  0  0  0  0  0  0  0
    3.2208    0.2506   -1.0640 C   0  0  0  0  0  0  0  0  0  0  0  0
    3.6040   -0.8209   -0.0892 C   0  0  1  0  0  0  0  0  0  0  0  0
    2.4170   -1.7387    0.0826 C   0  0  0  0  0  0  0  0  0  0  0  0
    1.3182   -0.9366    0.7664 C   0  0  1  0  0  0  0  0  0  0  0  0
    0.9791    0.3217    0.0450 C   0  0  1  0  0  0  0  0  0  0  0  0
    0.1914   -1.7567    0.7711 O   0  0  0  0  0  0  0  0  0  0  0  0
   -1.8606   -2.0295   -0.4566 C   0  0  0  0  0  0  0  0  0  0  0  0
   -2.9409   -1.0951    0.0412 C   0  0  0  0  0  0  0  0  0  0  0  0
   -2.4067   -0.4096    1.2729 C   0  0  0  0  0  0  0  0  0  0  0  0
   -1.8145    1.9324    0.6447 C   0  0  0  0  0  0  0  0  0  0  0  0
   -0.8301    2.8761    1.1405 N   0  0  0  0  0  0  0  0  0  0  0  0
    0.3520    2.7238    0.3230 C   0  0  0  0  0  0  0  0  0  0  0  0
    1.2238    1.5763    0.8016 C   0  0  0  0  0  0  0  0  0  0  0  0
   -0.4939   -1.4219   -0.3965 C   0  0  0  0  0  0  0  0  0  0  0  0
   -0.5048    0.0948   -0.2782 C   0  0  0  0  0  0  0  0  0  0  0  0
   -1.2689    0.5321    0.9480 C   0  0  0  0  0  0  0  0  0  0  0  0
   -2.4358   -3.7899   -1.7360 C   0  0  0  0  0  0  0  0  0  0  0  0
   -2.2280   -2.4160   -1.7374 O   0  0  0  0  0  0  0  0  0  0  0  0
    4.6702   -1.5843   -0.5602 O   0  0  0  0  0  0  0  0  0  0  0  0
   -1.3435    4.2340    1.0151 C   0  0  0  0  0  0  0  0  0  0  0  0
    1.7520    0.4002   -1.2617 C   0  0  0  0  0  0  0  0  0  0  0  0
    3.2208    0.2506   -1.0640 C   0  0  0  0  0  0  0  0  0  0  0  0
    3.6040   -0.8209   -0.0892 C   0  0  1  0  0  0  0  0  0  0  0  0
    2.4170   -1.7387    0.0826 C   0  0  0  0  0  0  0  0  0  0  0  0
    1.3182   -0.9366    0.7664 C   0  0  1  0  0  0  0  0  0  0  0  0
    0.9791    0.3217    0.0450 C   0  0  1  0  0  0  0  0  0  0  0  0
    0.1914   -1.7567    0.7711 O   0  0  0  0  0  0  0  0  0  0  0  0
   -1.8606   -2.0295   -0.4566 C   0  0  0  0  0  0  0  0  0  0  0  0
   -2.9409   -1.0951    0.0412 C   0  0  0  0  0  0  0  0  0  0  0  0
   -2.4067   -0.4096    1.2729 C   0  0  0  0  0  0  0  0  0  0  0  0
   -1.8145    1.9324    0.6447 C   0  0  0  0  0  0  0  0  0  0  0  0
   -0.8301    2.8761    1.1405 N   0  0  0  0  0  0  0  0  0  0  0  0
    0.3520    2.7238    0.3230 C   0  0  0  0  0  0  0  0  0  0  0  0
    1.2238    1.5763    0.8016 C   0  0  0  0  0  0  0  0  0  0  0  0
   -0.4939   -1.4219   -0.3965 C   0  0  0  0  0  0  0  0  0  0  0  0
   -0.5048    0.0948   -0.2782 C   0  0  0  0  0  0  0  0  0  0  0  0
   -1.2689    0.5321    0.9480 C   0  0  0  0  0  0  0  0  0  0  0  0
   -2.4358   -3.7899   -1.7360 C   0  0  0  0  0  0  0  0  0  0  0  0
   -2.2280   -2.4160   -1.7374 O   0  0  0  0  0  0  0  0  0  0  0  0
    4.6702   -1.5843   -0.5602 O   0  0  0  0  0  0  0  0  0  0  0  0
   -1.3435    4.2340    1.0151 C   0  0  0  0  0  0  0  0  0  0  0  0
    1.5765    1.4399   -1.6598 H   0  0  0  0  0  0  0  0  0  0  0  0
    1.4021   -0.3300   -2.0077 H   0  0  0  0  0  0  0  0  0  0  0  0
    3.7369    1.1827   -0.7611 H   0  0  0  0  0  0  0  0  0  0  0  0
    3.6657   -0.0243   -2.0642 H   0  0  0  0  0  0  0  0  0  0  0  0
    3.8440   -0.4204    0.9242 H   0  0  0  0  0  0  0  0  0  0  0  0
    2.6401   -2.6032    0.7291 H   0  0  0  0  0  0  0  0  0  0  0  0
    2.1249   -2.1124   -0.9027 H   0  0  0  0  0  0  0  0  0  0  0  0
    1.6604   -0.7674    1.8129 H   0  0  0  0  0  0  0  0  0  0  0  0
   -1.8428   -2.9313    0.1834 H   0  0  0  0  0  0  0  0  0  0  0  0
   -3.2646   -0.3702   -0.7046 H   0  0  0  0  0  0  0  0  0  0  0  0
   -3.7831   -1.7431    0.3777 H   0  0  0  0  0  0  0  0  0  0  0  0
   -2.0676   -1.1955    1.9931 H   0  0  0  0  0  0  0  0  0  0  0  0
   -3.2439    0.1302    1.7601 H   0  0  0  0  0  0  0  0  0  0  0  0
   -2.7965    2.0519    1.1463 H   0  0  0  0  0  0  0  0  0  0  0  0
   -1.9622    2.0743   -0.4449 H   0  0  0  0  0  0  0  0  0  0  0  0
    0.0861    2.4973   -0.7399 H   0  0  0  0  0  0  0  0  0  0  0  0
    0.9003    3.6873    0.2988 H   0  0  0  0  0  0  0  0  0  0  0  0
    1.2025    1.4639    1.9067 H   0  0  0  0  0  0  0  0  0  0  0  0
    2.2827    1.9014    0.5743 H   0  0  0  0  0  0  0  0  0  0  0  0
    0.0533   -1.7038   -1.3053 H   0  0  0  0  0  0  0  0  0  0  0  0
   -0.8070    0.5972   -1.1959 H   0  0  0  0  0  0  0  0  0  0  0  0
   -0.6272    0.5664    1.8527 H   0  0  0  0  0  0  0  0  0  0  0  0
   -2.7341   -4.1740   -2.7309 H   0  0  0  0  0  0  0  0  0  0  0  0
   -1.4484   -4.2452   -1.4299 H   0  0  0  0  0  0  0  0  0  0  0  0
   -3.1662   -4.1309   -0.9954 H   0  0  0  0  0  0  0  0  0  0  0  0
    5.4365   -1.5658    0.0667 H   0  0  0  0  0  0  0  0  0  0  0  0
   -2.4043    4.2340    0.6654 H   0  0  0  0  0  0  0  0  0  0  0  0
   -1.3326    4.6853    2.0282 H   0  0  0  0  0  0  0  0  0  0  0  0
   -0.7324    4.8630    0.3508 H   0  0  0  0  0  0  0  0  0  0  0  0
    1.5765    1.4399   -1.6598 H   0  0  0  0  0  0  0  0  0  0  0  0
    1.4021   -0.3300   -2.0077 H   0  0  0  0  0  0  0  0  0  0  0  0
    3.7369    1.1827   -0.7611 H   0  0  0  0  0  0  0  0  0  0  0  0
    3.6657   -0.0243   -2.0642 H   0  0  0  0  0  0  0  0  0  0  0  0
    3.8440   -0.4204    0.9242 H   0  0  0  0  0  0  0  0  0  0  0  0
    2.6401   -2.6032    0.7291 H   0  0  0  0  0  0  0  0  0  0  0  0
    2.1249   -2.1124   -0.9027 H   0  0  0  0  0  0  0  0  0  0  0  0
    1.6604   -0.7674    1.8129 H   0  0  0  0  0  0  0  0  0  0  0  0
   -1.8428   -2.9313    0.1834 H   0  0  0  0  0  0  0  0  0  0  0  0
   -3.2646   -0.3702   -0.7046 H   0  0  0  0  0  0  0  0  0  0  0  0
   -3.7831   -1.7431    0.3777 H   0  0  0  0  0  0  0  0  0  0  0  0
   -2.0676   -1.1955    1.9931 H   0  0  0  0  0  0  0  0  0  0  0  0
   -3.2439    0.1302    1.7601 H   0  0  0  0  0  0  0  0  0  0  0  0
   -2.7965    2.0519    1.1463 H   0  0  0  0  0  0  0  0  0  0  0  0
   -1.9622    2.0743   -0.4449 H   0  0  0  0  0  0  0  0  0  0  0  0
    0.0861    2.4973   -0.7399 H   0  0  0  0  0  0  0  0  0  0  0  0
    0.9003    3.6873    0.2988 H   0  0  0  0  0  0  0  0  0  0  0  0
    1.2025    1.4639    1.9067 H   0  0  0  0  0  0  0  0  0  0  0  0
    2.2827    1.9014    0.5743 H   0  0  0  0  0  0  0  0  0  0  0  0
    0.0533   -1.7038   -1.3053 H   0  0  0  0  0  0  0  0  0  0  0  0
   -0.8070    0.5972   -1.1959 H   0  0  0  0  0  0  0  0  0  0  0  0
   -0.6272    0.5664    1.8527 H   0  0  0  0  0  0  0  0  0  0  0  0
   -2.7341   -4.1740   -2.7309 H   0  0  0  0  0  0  0  0  0  0  0  0
   -1.4484   -4.2452   -1.4299 H   0  0  0  0  0  0  0  0  0  0  0  0
   -3.1662   -4.1309   -0.9954 H   0  0  0  0  0  0  0  0  0  0  0  0
    5.4365   -1.5658    0.0667 H   0  0  0  0  0  0  0  0  0  0  0  0
   -2.4043    4.2340    0.6654 H   0  0  0  0  0  0  0  0  0  0  0  0
   -1.3326    4.6853    2.0282 H   0  0  0  0  0  0  0  0  0  0  0  0
   -0.7324    4.8630    0.3508 H   0  0  0  0  0  0  0  0  0  0  0  0
  1  2  1  0
  2  3  1  0
  3  4  1  0
  4  5  1  0
  6  1  1  6
  5  6  1  0
  5  7  1  0
  8  9  1  0
  9 10  1  0
 11 12  1  0
 12 13  1  0
  6 14  1  0
 13 14  1  0
  7 15  1  0
  8 15  1  0
  6 16  1  0
 15 16  1  0
 10 17  1  0
 11 17  1  0
 16 17  1  0
  8 19  1  0
 18 19  1  0
  3 20  1  0
 12 21  1  0
 22 23  1  0
 23 24  1  0
 24 25  1  0
 25 26  1  0
 27 22  1  6
 26 27  1  0
 26 28  1  0
 29 30  1  0
 30 31  1  0
 32 33  1  0
 33 34  1  0
 27 35  1  0
 34 35  1  0
 28 36  1  0
 29 36  1  0
 27 37  1  0
 36 37  1  0
 31 38  1  0
 32 38  1  0
 37 38  1  0
 29 40  1  0
 39 40  1  0
 24 41  1  0
 33 42  1  0
  1 43  1  0
  1 44  1  0
  2 45  1  0
  2 46  1  0
  3 47  1  1
  4 48  1  0
  4 49  1  0
  5 50  1  1
  8 51  1  0
  9 52  1  0
  9 53  1  0
 10 54  1  0
 10 55  1  0
 11 56  1  0
 11 57  1  0
 13 58  1  0
 13 59  1  0
 14 60  1  0
 14 61  1  0
 15 62  1  0
 16 63  1  0
 17 64  1  0
 18 65  1  0
 18 66  1  0
 18 67  1  0
 20 68  1  0
 21 69  1  0
 21 70  1  0
 21 71  1  0
 22 72  1  0
 22 73  1  0
 23 74  1  0
 23 75  1  0
 24 76  1  1
 25 77  1  0
 25 78  1  0
 26 79  1  1
 29 80  1  0
 30 81  1  0
 30 82  1  0
 31 83  1  0
 31 84  1  0
 32 85  1  0
 32 86  1  0
 34 87  1  0
 34 88  1  0
 35 89  1  0
 35 90  1  0
 36 91  1  0
 37 92  1  0
 38 93  1  0
 39 94  1  0
 39 95  1  0
 39 96  1  0
 41 97  1  0
 42 98  1  0
 42 99  1  0
 42100  1  0
M  END
>  <PDBID>  (1) 
4EY6

>  <PDB ID>  (1) 
4EY6

>  <Generic Name>  (1) 
Galantamine

>  <Brand Name>  (1) 
Apo-galantamine#Auro-galantamine ER#Galantamine#Galantamine ER#Galantamine Hydrobromide#Ipg-galantamine ER#Mar-galantamine ER#Mylan-galantamine ER#PMS-galantamine#PMS-galantamine ER#Pat-galantamine ER#Pendo-galantamine ER#Ratio-galantamine#Razadyne#Reminyl   -(12mg)#Reminyl   -(4mg)#Reminyl   -(8mg)#Reminyl ER#Sandoz Galantamine ER#Teva-galantamine ER#Lycoremine#Nivalin#Reminyl

>  <DrugBank ID>  (1) 
DB00674

>  <ATC Codes>  (1) 
N06DA04

>  <Ligand ID>  (1) 
GNT

>  <Target Name>  (1) 
Acetylcholinesterase

>  <UniProt ID>  (1) 
P22303

>  <PDB ID.1>  (1) 
4EY6

>  <Seq. Identity>  (1) 
97%

$$$$
