PDB_DB00220_07
     RDKit          3D

101104  0  0  0  0  0  0  0  0999 V2000
    2.5320   -1.6942   -1.7624 C   0  0  2  0  0  0  0  0  0  0  0  0
    3.6375   -2.4230   -1.0762 C   0  0  1  0  0  0  0  0  0  0  0  0
    4.9316   -2.5123   -1.8375 C   0  0  0  0  0  0  0  0  0  0  0  0
    5.0820   -1.6115   -3.0041 C   0  0  0  0  0  0  0  0  0  0  0  0
    3.8506   -1.3083   -3.7848 C   0  0  0  0  0  0  0  0  0  0  0  0
    2.6335   -1.9837   -3.2432 C   0  0  0  0  0  0  0  0  0  0  0  0
    2.4249   -0.0092   -0.0533 N   0  0  0  0  0  0  0  0  0  0  0  0
    3.5714   -0.5667    0.6595 C   0  0  1  0  0  0  0  0  0  0  0  0
    3.8046   -2.0254    0.3710 C   0  0  0  0  0  0  0  0  0  0  0  0
    2.4855   -0.2283   -1.4499 C   0  0  0  0  0  0  0  0  0  0  0  0
    4.8306    0.2499    0.4986 C   0  0  1  0  0  0  0  0  0  0  0  0
    4.7501    1.6196    0.6443 N   0  0  0  0  0  0  0  0  0  0  0  0
    4.4148    2.3194    1.7935 C   0  0  0  0  0  0  0  0  0  0  0  0
    3.0325    2.1751    2.3642 C   0  0  0  0  0  0  0  0  0  0  0  0
    4.5090    3.8145    1.3852 C   0  0  0  0  0  0  0  0  0  0  0  0
    5.4583    2.2071    2.9091 C   0  0  0  0  0  0  0  0  0  0  0  0
    5.8924   -0.3563    1.1984 O   0  0  0  0  0  0  0  0  0  0  0  0
    1.2698   -0.4224    0.6542 C   0  0  0  0  0  0  0  0  0  0  0  0
   -0.0597    0.0730    0.1674 C   0  0  2  0  0  0  0  0  0  0  0  0
   -1.1592   -0.3176    1.1234 C   0  0  1  0  0  0  0  0  0  0  0  0
   -0.3983   -0.3109   -1.1034 O   0  0  0  0  0  0  0  0  0  0  0  0
   -2.4137    0.2654    0.7855 N   0  0  0  0  0  0  0  0  0  0  0  0
   -1.2470   -1.7915    1.4008 C   0  0  0  0  0  0  0  0  0  0  0  0
   -2.4901    1.7002    0.8392 C   0  0  0  0  0  0  0  0  0  0  0  0
   -1.9778    2.2976   -0.2986 O   0  0  0  0  0  0  0  0  0  0  0  0
   -3.9374    2.1536    0.9727 C   0  0  0  0  0  0  0  0  0  0  0  0
   -4.7016    1.6482   -0.2304 C   0  0  0  0  0  0  0  0  0  0  0  0
   -5.9744    2.4687   -0.3186 C   0  0  0  0  0  0  0  0  0  0  0  0
   -5.5955    3.8634   -0.7803 C   0  0  0  0  0  0  0  0  0  0  0  0
   -4.3919    4.4027   -0.0552 C   0  0  1  0  0  0  0  0  0  0  0  0
   -4.0967    3.6151    1.2125 C   0  0  2  0  0  0  0  0  0  0  0  0
   -3.2799    4.5660   -0.8534 O   0  0  0  0  0  0  0  0  0  0  0  0
   -2.9327    4.2732    1.9054 C   0  0  0  0  0  0  0  0  0  0  0  0
   -1.5709   -2.8132   -0.0252 S   0  0  0  0  0  0  0  0  0  0  0  0
   -3.2168   -2.5924   -0.7136 C   0  0  0  0  0  0  0  0  0  0  0  0
   -4.3070   -3.0448    0.2313 C   0  0  0  0  0  0  0  0  0  0  0  0
   -3.9343   -4.3705    0.8807 C   0  0  0  0  0  0  0  0  0  0  0  0
   -3.3220   -5.2544   -0.1911 C   0  0  0  0  0  0  0  0  0  0  0  0
   -3.8800   -4.8203   -1.5408 C   0  0  0  0  0  0  0  0  0  0  0  0
   -3.3374   -3.4666   -1.9436 C   0  0  0  0  0  0  0  0  0  0  0  0
    4.2904    2.0824   -0.1952 H   0  0  0  0  0  0  0  0  0  0  0  0
   -1.3470   -0.4398   -1.2892 H   0  0  0  0  0  0  0  0  0  0  0  0
   -3.2259   -0.1985    1.2373 H   0  0  0  0  0  0  0  0  0  0  0  0
   -2.7862    5.3864   -0.6079 H   0  0  0  0  0  0  0  0  0  0  0  0
    1.5482   -2.1334   -1.4515 H   0  0  0  0  0  0  0  0  0  0  0  0
    3.2636   -3.4962   -1.0153 H   0  0  0  0  0  0  0  0  0  0  0  0
    5.8145   -2.3224   -1.1677 H   0  0  0  0  0  0  0  0  0  0  0  0
    5.1287   -3.5697   -2.1983 H   0  0  0  0  0  0  0  0  0  0  0  0
    5.7805   -2.1289   -3.7367 H   0  0  0  0  0  0  0  0  0  0  0  0
    5.6737   -0.6767   -2.7614 H   0  0  0  0  0  0  0  0  0  0  0  0
    3.9139   -1.6204   -4.8706 H   0  0  0  0  0  0  0  0  0  0  0  0
    3.6277   -0.2142   -3.8315 H   0  0  0  0  0  0  0  0  0  0  0  0
    1.7350   -1.6087   -3.7900 H   0  0  0  0  0  0  0  0  0  0  0  0
    2.7046   -3.0744   -3.3683 H   0  0  0  0  0  0  0  0  0  0  0  0
    3.3016   -0.5108    1.7364 H   0  0  0  0  0  0  0  0  0  0  0  0
    3.1811   -2.6434    1.0511 H   0  0  0  0  0  0  0  0  0  0  0  0
    4.8601   -2.2626    0.6415 H   0  0  0  0  0  0  0  0  0  0  0  0
    1.6377    0.2246   -1.9539 H   0  0  0  0  0  0  0  0  0  0  0  0
    3.3869    0.3109   -1.8331 H   0  0  0  0  0  0  0  0  0  0  0  0
    5.1354    0.0562   -0.5804 H   0  0  0  0  0  0  0  0  0  0  0  0
    2.9215    1.3651    3.1123 H   0  0  0  0  0  0  0  0  0  0  0  0
    2.2438    2.1860    1.5826 H   0  0  0  0  0  0  0  0  0  0  0  0
    2.7610    3.1029    2.9789 H   0  0  0  0  0  0  0  0  0  0  0  0
    3.5688    4.0600    0.8491 H   0  0  0  0  0  0  0  0  0  0  0  0
    4.5904    4.4016    2.3125 H   0  0  0  0  0  0  0  0  0  0  0  0
    5.4064    3.9780    0.7554 H   0  0  0  0  0  0  0  0  0  0  0  0
    5.3092    1.2427    3.4365 H   0  0  0  0  0  0  0  0  0  0  0  0
    6.4790    2.3324    2.5161 H   0  0  0  0  0  0  0  0  0  0  0  0
    5.3214    3.0007    3.6748 H   0  0  0  0  0  0  0  0  0  0  0  0
    5.5650   -0.8841    1.9637 H   0  0  0  0  0  0  0  0  0  0  0  0
    1.3647   -0.0672    1.7062 H   0  0  0  0  0  0  0  0  0  0  0  0
    1.2664   -1.5510    0.7653 H   0  0  0  0  0  0  0  0  0  0  0  0
   -0.0229    1.1949    0.2068 H   0  0  0  0  0  0  0  0  0  0  0  0
   -0.8624    0.1440    2.1193 H   0  0  0  0  0  0  0  0  0  0  0  0
   -2.0136   -1.9033    2.2047 H   0  0  0  0  0  0  0  0  0  0  0  0
   -0.2968   -2.1115    1.8728 H   0  0  0  0  0  0  0  0  0  0  0  0
   -1.8884    2.0249    1.7131 H   0  0  0  0  0  0  0  0  0  0  0  0
   -2.1400    1.8057   -1.1234 H   0  0  0  0  0  0  0  0  0  0  0  0
   -4.3811    1.6282    1.8698 H   0  0  0  0  0  0  0  0  0  0  0  0
   -4.1642    1.7388   -1.1742 H   0  0  0  0  0  0  0  0  0  0  0  0
   -5.0084    0.5878   -0.0157 H   0  0  0  0  0  0  0  0  0  0  0  0
   -6.6970    2.0370   -1.0196 H   0  0  0  0  0  0  0  0  0  0  0  0
   -6.4393    2.5785    0.6810 H   0  0  0  0  0  0  0  0  0  0  0  0
   -5.2974    3.7462   -1.8584 H   0  0  0  0  0  0  0  0  0  0  0  0
   -6.4568    4.5520   -0.7843 H   0  0  0  0  0  0  0  0  0  0  0  0
   -4.6710    5.4328    0.3063 H   0  0  0  0  0  0  0  0  0  0  0  0
   -4.9925    3.8193    1.8758 H   0  0  0  0  0  0  0  0  0  0  0  0
   -2.6709    3.7590    2.8565 H   0  0  0  0  0  0  0  0  0  0  0  0
   -3.3011    5.2924    2.2244 H   0  0  0  0  0  0  0  0  0  0  0  0
   -2.0772    4.4418    1.2507 H   0  0  0  0  0  0  0  0  0  0  0  0
   -3.4189   -1.5501   -1.0088 H   0  0  0  0  0  0  0  0  0  0  0  0
   -5.2114   -3.2356   -0.3783 H   0  0  0  0  0  0  0  0  0  0  0  0
   -4.5692   -2.2690    0.9721 H   0  0  0  0  0  0  0  0  0  0  0  0
   -4.8718   -4.8628    1.2137 H   0  0  0  0  0  0  0  0  0  0  0  0
   -3.2217   -4.2326    1.7221 H   0  0  0  0  0  0  0  0  0  0  0  0
   -3.6370   -6.3224   -0.0506 H   0  0  0  0  0  0  0  0  0  0  0  0
   -2.2264   -5.2550   -0.1919 H   0  0  0  0  0  0  0  0  0  0  0  0
   -4.9706   -4.8740   -1.5469 H   0  0  0  0  0  0  0  0  0  0  0  0
   -3.5224   -5.5876   -2.2791 H   0  0  0  0  0  0  0  0  0  0  0  0
   -2.3003   -3.6648   -2.3428 H   0  0  0  0  0  0  0  0  0  0  0  0
   -3.9783   -3.0313   -2.7144 H   0  0  0  0  0  0  0  0  0  0  0  0
  1  2  1  0
  2  3  1  0
  3  4  1  0
  4  5  1  0
  1  6  1  0
  5  6  1  0
  7  8  1  0
  2  9  1  0
  8  9  1  0
  1 10  1  0
  7 10  1  0
  8 11  1  0
 11 12  1  0
 13 12  1  0
 13 14  1  0
 13 15  1  0
 13 16  1  0
 11 17  1  0
  7 18  1  0
 18 19  1  0
 19 20  1  0
 19 21  1  0
 20 22  1  0
 20 23  1  0
 22 24  1  0
 24 25  1  0
 24 26  1  0
 26 27  1  0
 27 28  1  0
 28 29  1  0
 29 30  1  0
 26 31  1  0
 30 31  1  0
 30 32  1  0
 31 33  1  0
 23 34  1  0
 34 35  1  0
 35 36  1  0
 36 37  1  0
 37 38  1  0
 38 39  1  0
 35 40  1  0
 39 40  1  0
 12 41  1  0
 21 42  1  0
 22 43  1  0
 32 44  1  0
  1 45  1  1
  2 46  1  1
  3 47  1  0
  3 48  1  0
  4 49  1  0
  4 50  1  0
  5 51  1  0
  5 52  1  0
  6 53  1  0
  6 54  1  0
  8 55  1  1
  9 56  1  0
  9 57  1  0
 10 58  1  0
 10 59  1  0
 11 60  1  6
 14 61  1  0
 14 62  1  0
 14 63  1  0
 15 64  1  0
 15 65  1  0
 15 66  1  0
 16 67  1  0
 16 68  1  0
 16 69  1  0
 17 70  1  0
 18 71  1  0
 18 72  1  0
 19 73  1  6
 20 74  1  1
 23 75  1  0
 23 76  1  0
 24 77  1  0
 25 78  1  0
 26 79  1  0
 27 80  1  0
 27 81  1  0
 28 82  1  0
 28 83  1  0
 29 84  1  0
 29 85  1  0
 30 86  1  1
 31 87  1  1
 33 88  1  0
 33 89  1  0
 33 90  1  0
 35 91  1  0
 36 92  1  0
 36 93  1  0
 37 94  1  0
 37 95  1  0
 38 96  1  0
 38 97  1  0
 39 98  1  0
 39 99  1  0
 40100  1  0
 40101  1  0
M  END
>  <PDBID>  (1) 
1OHR

>  <PDB ID>  (1) 
1OHR

>  <Generic Name>  (1) 
Nelfinavir

>  <Brand Name>  (1) 
Viracept#Viracept -250mg#Viracept -50mg

>  <DrugBank ID>  (1) 
DB00220

>  <ATC Codes>  (1) 
J05AE04

>  <Ligand ID>  (1) 
1UN

>  <Target Name>  (1) 
HIV-1 protease

>  <UniProt ID>  (1) 
O90777

>  <PDB ID.1>  (1) 
1OHR

>  <Seq. Identity>  (1) 
93%

$$$$
