PDB_DB00380_05
     RDKit          3D

 43 44  0  0  0  0  0  0  0  0999 V2000
    4.0919   -0.3594   -1.6363 O   0  0  0  0  0  0  0  0  0  0  0  0
    3.9741   -0.7562   -0.3221 C   0  0  0  0  0  0  0  0  0  0  0  0
    4.5027    0.2611    0.5832 N   0  0  0  0  0  0  0  0  0  0  0  0
    3.8178    1.4825    0.2980 C   0  0  0  0  0  0  0  0  0  0  0  0
    3.8602    2.3765    1.3914 O   0  0  0  0  0  0  0  0  0  0  0  0
    2.4303    1.2838   -0.1950 C   0  0  0  0  0  0  0  0  0  0  0  0
    2.5192   -1.0850    0.0493 C   0  0  0  0  0  0  0  0  0  0  0  0
    1.7950    0.0873    0.4047 N   0  0  0  0  0  0  0  0  0  0  0  0
    0.4364    0.1733   -0.0016 C   0  0  0  0  0  0  0  0  0  0  0  0
   -0.5188   -0.8499    0.4498 C   0  0  2  0  0  0  0  0  0  0  0  0
   -0.2157   -2.2696    0.0320 C   0  0  0  0  0  0  0  0  0  0  0  0
   -1.8328   -0.5341    0.0179 N   0  0  0  0  0  0  0  0  0  0  0  0
   -2.8700   -1.4020    0.4134 C   0  0  0  0  0  0  0  0  0  0  0  0
   -4.1147   -0.5770    0.7516 C   0  0  0  0  0  0  0  0  0  0  0  0
   -3.8510    0.3033    1.7985 O   0  0  0  0  0  0  0  0  0  0  0  0
   -4.4805    0.1111   -0.4649 N   0  0  0  0  0  0  0  0  0  0  0  0
   -3.4961    1.1134   -0.7160 C   0  0  0  0  0  0  0  0  0  0  0  0
   -2.1328    0.8179   -0.2096 C   0  0  0  0  0  0  0  0  0  0  0  0
   -3.9889    2.3197   -0.1634 O   0  0  0  0  0  0  0  0  0  0  0  0
    5.0343   -0.5235   -1.9193 H   0  0  0  0  0  0  0  0  0  0  0  0
    4.6230   -1.6524   -0.1747 H   0  0  0  0  0  0  0  0  0  0  0  0
    5.5030    0.3747    0.3764 H   0  0  0  0  0  0  0  0  0  0  0  0
    4.3901    2.0090   -0.5176 H   0  0  0  0  0  0  0  0  0  0  0  0
    3.8743    3.3001    1.0725 H   0  0  0  0  0  0  0  0  0  0  0  0
    2.3370    1.1451   -1.2863 H   0  0  0  0  0  0  0  0  0  0  0  0
    1.7781    2.1242    0.0982 H   0  0  0  0  0  0  0  0  0  0  0  0
    2.6417   -1.6937    0.9937 H   0  0  0  0  0  0  0  0  0  0  0  0
    2.1380   -1.6538   -0.7994 H   0  0  0  0  0  0  0  0  0  0  0  0
    0.0731    1.1692    0.3994 H   0  0  0  0  0  0  0  0  0  0  0  0
    0.4027    0.3209   -1.1180 H   0  0  0  0  0  0  0  0  0  0  0  0
   -0.5307   -0.8726    1.5721 H   0  0  0  0  0  0  0  0  0  0  0  0
   -0.1065   -2.3699   -1.0795 H   0  0  0  0  0  0  0  0  0  0  0  0
    0.5603   -2.7700    0.6063 H   0  0  0  0  0  0  0  0  0  0  0  0
   -1.1488   -2.8845    0.2387 H   0  0  0  0  0  0  0  0  0  0  0  0
   -3.2060   -2.1245   -0.3597 H   0  0  0  0  0  0  0  0  0  0  0  0
   -2.6325   -2.0162    1.3249 H   0  0  0  0  0  0  0  0  0  0  0  0
   -4.9448   -1.2756    0.9977 H   0  0  0  0  0  0  0  0  0  0  0  0
   -4.6206    0.8891    1.8913 H   0  0  0  0  0  0  0  0  0  0  0  0
   -4.4477   -0.5864   -1.2445 H   0  0  0  0  0  0  0  0  0  0  0  0
   -3.5044    1.3045   -1.8297 H   0  0  0  0  0  0  0  0  0  0  0  0
   -1.4153    1.2159   -0.9880 H   0  0  0  0  0  0  0  0  0  0  0  0
   -1.9923    1.3926    0.7491 H   0  0  0  0  0  0  0  0  0  0  0  0
   -4.7322    2.6812   -0.7079 H   0  0  0  0  0  0  0  0  0  0  0  0
  1  2  1  0
  2  3  1  0
  3  4  1  0
  4  5  1  0
  4  6  1  0
  2  7  1  0
  6  8  1  0
  7  8  1  0
  8  9  1  0
  9 10  1  0
 10 11  1  0
 10 12  1  0
 12 13  1  0
 13 14  1  0
 14 15  1  0
 14 16  1  0
 16 17  1  0
 12 18  1  0
 17 18  1  0
 17 19  1  0
  1 20  1  0
  2 21  1  0
  3 22  1  0
  4 23  1  0
  5 24  1  0
  6 25  1  0
  6 26  1  0
  7 27  1  0
  7 28  1  0
  9 29  1  0
  9 30  1  0
 10 31  1  1
 11 32  1  0
 11 33  1  0
 11 34  1  0
 13 35  1  0
 13 36  1  0
 14 37  1  0
 15 38  1  0
 16 39  1  0
 17 40  1  0
 18 41  1  0
 18 42  1  0
 19 43  1  0
M  END
>  <PDBID>  (1) 
1QZR

>  <PDB ID>  (1) 
1QZR

>  <Generic Name>  (1) 
Dexrazoxane

>  <Brand Name>  (1) 
Dexrazoxane#Dexrazoxane Hydrochloride#Zinecard#Ao Nuo Xian#Cardioxane#Dexrazoxane#Savene#Totect

>  <DrugBank ID>  (1) 
DB00380

>  <ATC Codes>  (1) 
V03AF02

>  <Ligand ID>  (1) 
CDX

>  <Target Name>  (1) 
DNA topoisomerase 2-alpha

>  <UniProt ID>  (1) 
P11388

>  <PDB ID.1>  (1) 
1QZR

>  <Seq. Identity>  (1) 
51%

$$$$
