PDB_DB00551_00
     RDKit          3D

 12 11  0  0  0  0  0  0  0  0999 V2000
    1.4222   -0.1666   -0.1785 C   0  0  0  0  0  0  0  0  0  0  0  0
    0.0279    0.2719    0.2042 C   0  0  0  0  0  0  0  0  0  0  0  0
   -0.2063    1.6065   -0.1014 O   0  0  0  0  0  0  0  0  0  0  0  0
   -0.8893   -0.5139   -0.6026 N   0  0  0  0  0  0  0  0  0  0  0  0
   -2.1829   -0.2096   -0.3486 O   0  0  0  0  0  0  0  0  0  0  0  0
    1.4569   -0.5879   -1.2226 H   0  0  0  0  0  0  0  0  0  0  0  0
    1.6621   -1.0393    0.4831 H   0  0  0  0  0  0  0  0  0  0  0  0
    2.1692    0.6259   -0.1152 H   0  0  0  0  0  0  0  0  0  0  0  0
   -0.1902    0.0988    1.2703 H   0  0  0  0  0  0  0  0  0  0  0  0
   -0.1386    2.1490    0.7188 H   0  0  0  0  0  0  0  0  0  0  0  0
   -0.6921   -1.5349   -0.5631 H   0  0  0  0  0  0  0  0  0  0  0  0
   -2.4389   -0.6999    0.4557 H   0  0  0  0  0  0  0  0  0  0  0  0
  1  2  1  0
  2  3  1  0
  2  4  1  0
  5  4  1  0
  1  6  1  0
  1  7  1  0
  1  8  1  0
  2  9  1  0
  3 10  1  0
  4 11  1  0
  5 12  1  0
M  END
>  <PDBID>  (1) 
1FWE

>  <PDB ID>  (1) 
1FWE

>  <Generic Name>  (1) 
Acetohydroxamic Acid

>  <Brand Name>  (1) 
Lithostat

>  <DrugBank ID>  (1) 
DB00551

>  <ATC Codes>  (1) 
G04BX03

>  <Ligand ID>  (1) 
HAE

>  <Target Name>  (1) 
Urease subunit alpha

>  <UniProt ID>  (1) 
P18314

>  <PDB ID.1>  (1) 
1FWE

>  <Seq. Identity>  (1) 
95%

$$$$
