PDB_DB01201_08
     RDKit          3D

302312  0  0  0  0  0  0  0  0999 V2000
    1.0916    0.3929    1.7691 C   0  0  0  0  0  0  0  0  0  0  0  0
    2.2673   -0.1699    1.0168 C   0  0  0  0  0  0  0  0  0  0  0  0
    3.3032    0.8856    0.8255 C   0  0  2  0  0  0  0  0  0  0  0  0
    2.7195    1.9475   -0.0744 C   0  0  0  0  0  0  0  0  0  0  0  0
    1.0095    3.7795    0.0183 C   0  0  0  0  0  0  0  0  0  0  0  0
   -0.0962    4.3531    0.8355 C   0  0  0  0  0  0  0  0  0  0  0  0
   -0.1455    3.8899    2.2505 C   0  0  0  0  0  0  0  0  0  0  0  0
   -0.0747    2.4116    2.4266 C   0  0  0  0  0  0  0  0  0  0  0  0
    0.5895    1.6961    1.2450 C   0  0  0  0  0  0  0  0  0  0  0  0
    1.6326    2.6173    0.7185 C   0  0  1  0  0  0  0  0  0  0  0  0
    0.3875    3.5022   -1.2894 C   0  0  2  0  0  0  0  0  0  0  0  0
   -1.0239    4.0861   -1.1634 C   0  0  2  0  0  0  0  0  0  0  0  0
   -1.0380    5.5349   -1.5504 C   0  0  0  0  0  0  0  0  0  0  0  0
    0.8888    4.6217    3.0974 C   0  0  0  0  0  0  0  0  0  0  0  0
    2.3088   -2.2367   -0.2313 C   0  0  0  0  0  0  0  0  0  0  0  0
    1.2358   -3.2084    0.2461 C   0  0  0  0  0  0  0  0  0  0  0  0
   -0.1466   -2.6796    0.0126 C   0  0  0  0  0  0  0  0  0  0  0  0
   -0.9507   -3.5211   -0.9519 C   0  0  0  0  0  0  0  0  0  0  0  0
   -1.8542   -4.4487   -0.1704 C   0  0  0  0  0  0  0  0  0  0  0  0
   -3.1275   -3.7747    0.2793 C   0  0  1  0  0  0  0  0  0  0  0  0
   -4.2225   -4.0359   -0.7318 C   0  0  1  0  0  0  0  0  0  0  0  0
   -4.7659   -2.7316   -1.3015 C   0  0  2  0  0  0  0  0  0  0  0  0
   -5.9199   -2.3008   -0.4131 C   0  0  2  0  0  0  0  0  0  0  0  0
   -6.7472   -1.1937   -1.0338 C   0  0  2  0  0  0  0  0  0  0  0  0
   -6.6864   -0.0007   -0.1260 C   0  0  1  0  0  0  0  0  0  0  0  0
   -5.3678    0.6886   -0.0959 C   0  0  1  0  0  0  0  0  0  0  0  0
   -5.0928    1.5637   -1.2901 C   0  0  2  0  0  0  0  0  0  0  0  0
   -3.5889    1.5716   -1.6064 C   0  0  0  0  0  0  0  0  0  0  0  0
   -2.9119    2.7806   -1.0077 C   0  0  0  0  0  0  0  0  0  0  0  0
    1.4841   -3.4925    1.7311 C   0  0  0  0  0  0  0  0  0  0  0  0
   -3.5266   -4.4425    1.5982 C   0  0  0  0  0  0  0  0  0  0  0  0
   -5.3333   -3.0605   -2.6661 C   0  0  0  0  0  0  0  0  0  0  0  0
   -8.2022   -1.6742   -0.9951 C   0  0  0  0  0  0  0  0  0  0  0  0
   -5.3035    1.4778    1.1900 C   0  0  0  0  0  0  0  0  0  0  0  0
   -8.5690    1.0635    0.7685 C   0  0  0  0  0  0  0  0  0  0  0  0
   -8.4630    2.4845    1.2647 C   0  0  0  0  0  0  0  0  0  0  0  0
   -6.2534    3.5002   -1.8227 C   0  0  0  0  0  0  0  0  0  0  0  0
    9.9686   -1.2892   -0.9711 C   0  0  0  0  0  0  0  0  0  0  0  0
    8.0997   -0.0262   -1.8060 C   0  0  0  0  0  0  0  0  0  0  0  0
    6.6500    0.0491   -2.0933 C   0  0  0  0  0  0  0  0  0  0  0  0
    6.3032   -2.0178   -0.9499 C   0  0  0  0  0  0  0  0  0  0  0  0
    7.7305   -2.0254   -0.4603 C   0  0  0  0  0  0  0  0  0  0  0  0
    4.6474    0.4112    0.4064 C   0  0  0  0  0  0  0  0  0  0  0  0
   10.4367   -0.1166   -0.0970 C   0  0  0  0  0  0  0  0  0  0  0  0
   10.4204   -2.4930   -0.2228 C   0  0  0  0  0  0  0  0  0  0  0  0
   11.8015   -0.5663    0.3101 C   0  0  0  0  0  0  0  0  0  0  0  0
   11.7006   -2.0444    0.4944 C   0  0  0  0  0  0  0  0  0  0  0  0
    1.8821   -0.8718   -0.1680 N   0  0  0  0  0  0  0  0  0  0  0  0
    4.6404   -0.2898   -0.8473 N   0  0  0  0  0  0  0  0  0  0  0  0
    5.8100   -0.7503   -1.2991 N   0  0  0  0  0  0  0  0  0  0  0  0
    8.5733   -1.1563   -1.1473 N   0  0  0  0  0  0  0  0  0  0  0  0
    1.4181    0.4570    3.1275 O   0  0  0  0  0  0  0  0  0  0  0  0
   -1.3264    1.8234    2.6081 O   0  0  0  0  0  0  0  0  0  0  0  0
   -1.2947    4.0171    0.2129 O   0  0  0  0  0  0  0  0  0  0  0  0
    0.2538    2.1945   -1.6502 O   0  0  0  0  0  0  0  0  0  0  0  0
   -1.9518    3.3214   -1.8636 O   0  0  0  0  0  0  0  0  0  0  0  0
   -5.3951    2.8749   -0.9490 O   0  0  0  0  0  0  0  0  0  0  0  0
   -7.6915    0.8949   -0.2494 O   0  0  0  0  0  0  0  0  0  0  0  0
   -9.8967    0.8342    0.4590 O   0  0  0  0  0  0  0  0  0  0  0  0
   -5.4723   -1.9485    0.8634 O   0  0  0  0  0  0  0  0  0  0  0  0
   -3.7911   -4.9025   -1.7376 O   0  0  0  0  0  0  0  0  0  0  0  0
    2.5324   -2.5674   -1.5874 O   0  0  0  0  0  0  0  0  0  0  0  0
    3.7404    2.9053   -0.2623 O   0  0  0  0  0  0  0  0  0  0  0  0
    1.1212    0.2870    1.6979 C   0  0  0  0  0  0  0  0  0  0  0  0
    2.2956   -0.2565    0.9329 C   0  0  0  0  0  0  0  0  0  0  0  0
    3.3147    0.8127    0.7101 C   0  0  2  0  0  0  0  0  0  0  0  0
    2.6963    1.8740   -0.1672 C   0  0  0  0  0  0  0  0  0  0  0  0
    0.9822    3.6995    0.0041 C   0  0  0  0  0  0  0  0  0  0  0  0
   -0.0990    4.2592    0.8546 C   0  0  0  0  0  0  0  0  0  0  0  0
   -0.1310    3.7486    2.2625 C   0  0  0  0  0  0  0  0  0  0  0  0
   -0.0888    2.2654    2.3863 C   0  0  0  0  0  0  0  0  0  0  0  0
    0.5977    1.5849    1.1944 C   0  0  0  0  0  0  0  0  0  0  0  0
    1.6189    2.5250    0.6687 C   0  0  0  0  0  0  0  0  0  0  0  0
    0.3318    3.4484   -1.2935 C   0  0  2  0  0  0  0  0  0  0  0  0
   -1.0828    4.0215   -1.1270 C   0  0  2  0  0  0  0  0  0  0  0  0
   -1.1173    5.4816   -1.5186 C   0  0  0  0  0  0  0  0  0  0  0  0
    0.9160    4.4358    3.1354 C   0  0  0  0  0  0  0  0  0  0  0  0
    2.3245   -2.3445   -0.2754 C   0  0  0  0  0  0  0  0  0  0  0  0
    1.3185   -3.3025    0.2871 C   0  0  0  0  0  0  0  0  0  0  0  0
   -0.1072   -2.9228    0.0019 C   0  0  0  0  0  0  0  0  0  0  0  0
   -0.7188   -3.7452   -1.1109 C   0  0  0  0  0  0  0  0  0  0  0  0
   -1.7863   -4.6967   -0.5934 C   0  0  0  0  0  0  0  0  0  0  0  0
   -2.9740   -3.9916   -0.0247 C   0  0  1  0  0  0  0  0  0  0  0  0
   -4.1551   -3.9026   -0.9656 C   0  0  1  0  0  0  0  0  0  0  0  0
   -4.6224   -2.4445   -1.0914 C   0  0  2  0  0  0  0  0  0  0  0  0
   -5.7069   -2.1737   -0.0841 C   0  0  2  0  0  0  0  0  0  0  0  0
   -6.7548   -1.2079   -0.5842 C   0  0  2  0  0  0  0  0  0  0  0  0
   -6.7110    0.0904    0.1846 C   0  0  1  0  0  0  0  0  0  0  0  0
   -5.3912    0.7979    0.0828 C   0  0  1  0  0  0  0  0  0  0  0  0
   -5.2194    1.6322   -1.1608 C   0  0  2  0  0  0  0  0  0  0  0  0
   -3.7297    1.6185   -1.5580 C   0  0  0  0  0  0  0  0  0  0  0  0
   -3.0068    2.8143   -0.9906 C   0  0  0  0  0  0  0  0  0  0  0  0
    1.5326   -3.5329    1.7835 C   0  0  0  0  0  0  0  0  0  0  0  0
   -3.3463   -4.7402    1.2625 C   0  0  0  0  0  0  0  0  0  0  0  0
   -5.0796   -2.2154   -2.4904 C   0  0  0  0  0  0  0  0  0  0  0  0
   -8.1150   -1.8352   -0.2356 C   0  0  0  0  0  0  0  0  0  0  0  0
   -5.2589    1.6613    1.3171 C   0  0  0  0  0  0  0  0  0  0  0  0
   -8.6251    1.3564    0.7824 C   0  0  0  0  0  0  0  0  0  0  0  0
   -8.5797    2.8615    0.9103 C   0  0  0  0  0  0  0  0  0  0  0  0
   -6.3662    3.5691   -1.7218 C   0  0  0  0  0  0  0  0  0  0  0  0
    9.9727   -1.1230   -1.1326 C   0  0  0  0  0  0  0  0  0  0  0  0
    8.0203    0.0884   -1.8219 C   0  0  0  0  0  0  0  0  0  0  0  0
    6.5947    0.0501   -2.2149 C   0  0  0  0  0  0  0  0  0  0  0  0
    6.3242   -1.9938   -0.9434 C   0  0  0  0  0  0  0  0  0  0  0  0
    7.7671   -1.9657   -0.5793 C   0  0  0  0  0  0  0  0  0  0  0  0
    4.6422    0.3417    0.2485 C   0  0  0  0  0  0  0  0  0  0  0  0
   10.2244   -0.1681    0.0283 C   0  0  0  0  0  0  0  0  0  0  0  0
   10.6234   -2.4083   -0.7855 C   0  0  0  0  0  0  0  0  0  0  0  0
   11.3852   -0.7724    0.7426 C   0  0  0  0  0  0  0  0  0  0  0  0
   11.0702   -2.2726    0.6729 C   0  0  0  0  0  0  0  0  0  0  0  0
    1.8829   -0.9638   -0.2358 N   0  0  0  0  0  0  0  0  0  0  0  0
    4.5776   -0.3632   -1.0106 N   0  0  0  0  0  0  0  0  0  0  0  0
    5.7654   -0.8159   -1.4754 N   0  0  0  0  0  0  0  0  0  0  0  0
    8.5816   -1.1460   -1.4011 N   0  0  0  0  0  0  0  0  0  0  0  0
    1.4535    0.3415    3.0548 O   0  0  0  0  0  0  0  0  0  0  0  0
   -1.3783    1.7194    2.5196 O   0  0  0  0  0  0  0  0  0  0  0  0
   -1.3024    3.9477    0.2445 O   0  0  0  0  0  0  0  0  0  0  0  0
    0.1892    2.1475   -1.6783 O   0  0  0  0  0  0  0  0  0  0  0  0
   -2.0038    3.2685   -1.8452 O   0  0  0  0  0  0  0  0  0  0  0  0
   -5.5058    2.9420   -0.8572 O   0  0  0  0  0  0  0  0  0  0  0  0
   -7.6988    0.9582   -0.0743 O   0  0  0  0  0  0  0  0  0  0  0  0
   -9.9549    1.0959    0.4108 O   0  0  0  0  0  0  0  0  0  0  0  0
   -5.2087   -1.8283    1.1826 O   0  0  0  0  0  0  0  0  0  0  0  0
   -3.9197   -4.4963   -2.1806 O   0  0  0  0  0  0  0  0  0  0  0  0
    2.5757   -2.7406   -1.5986 O   0  0  0  0  0  0  0  0  0  0  0  0
    3.6498    2.8829   -0.4294 O   0  0  0  0  0  0  0  0  0  0  0  0
    0.2671   -0.3500    1.6927 H   0  0  0  0  0  0  0  0  0  0  0  0
    2.7245   -0.9436    1.7054 H   0  0  0  0  0  0  0  0  0  0  0  0
    3.4299    1.3848    1.8318 H   0  0  0  0  0  0  0  0  0  0  0  0
    2.4335    1.6017   -1.0609 H   0  0  0  0  0  0  0  0  0  0  0  0
    1.8300    4.5394   -0.1432 H   0  0  0  0  0  0  0  0  0  0  0  0
   -0.0161    5.4452    0.8216 H   0  0  0  0  0  0  0  0  0  0  0  0
   -1.1500    4.2137    2.6591 H   0  0  0  0  0  0  0  0  0  0  0  0
    0.5554    2.1958    3.3167 H   0  0  0  0  0  0  0  0  0  0  0  0
   -0.2425    1.5094    0.5263 H   0  0  0  0  0  0  0  0  0  0  0  0
    2.1640    3.0505    1.6209 H   0  0  0  0  0  0  0  0  0  0  0  0
    0.8657    4.0518   -2.1438 H   0  0  0  0  0  0  0  0  0  0  0  0
   -1.5232    5.7149   -2.5186 H   0  0  0  0  0  0  0  0  0  0  0  0
   -1.5881    6.1504   -0.7896 H   0  0  0  0  0  0  0  0  0  0  0  0
    0.0100    5.9555   -1.5306 H   0  0  0  0  0  0  0  0  0  0  0  0
    1.4421    3.9080    3.7472 H   0  0  0  0  0  0  0  0  0  0  0  0
    0.4263    5.3572    3.7863 H   0  0  0  0  0  0  0  0  0  0  0  0
    1.5840    5.2248    2.4551 H   0  0  0  0  0  0  0  0  0  0  0  0
    3.2166   -2.4552    0.3680 H   0  0  0  0  0  0  0  0  0  0  0  0
    1.3562   -4.1754   -0.2798 H   0  0  0  0  0  0  0  0  0  0  0  0
   -0.6502   -2.6041    1.0073 H   0  0  0  0  0  0  0  0  0  0  0  0
   -0.0722   -1.6515   -0.4063 H   0  0  0  0  0  0  0  0  0  0  0  0
   -1.4818   -2.8825   -1.6647 H   0  0  0  0  0  0  0  0  0  0  0  0
   -0.2662   -4.1772   -1.5399 H   0  0  0  0  0  0  0  0  0  0  0  0
   -2.0552   -5.3784   -0.7250 H   0  0  0  0  0  0  0  0  0  0  0  0
   -1.2596   -4.7698    0.7351 H   0  0  0  0  0  0  0  0  0  0  0  0
   -3.0266   -2.6832    0.3820 H   0  0  0  0  0  0  0  0  0  0  0  0
   -5.0851   -4.5558   -0.2471 H   0  0  0  0  0  0  0  0  0  0  0  0
   -3.9688   -1.9626   -1.3605 H   0  0  0  0  0  0  0  0  0  0  0  0
   -6.5248   -3.2429   -0.2579 H   0  0  0  0  0  0  0  0  0  0  0  0
   -6.3931   -1.0366   -2.0447 H   0  0  0  0  0  0  0  0  0  0  0  0
   -6.8056   -0.4488    0.9112 H   0  0  0  0  0  0  0  0  0  0  0  0
   -4.5019   -0.0277   -0.0477 H   0  0  0  0  0  0  0  0  0  0  0  0
   -5.5840    1.2172   -2.1984 H   0  0  0  0  0  0  0  0  0  0  0  0
   -3.1283    0.6294   -1.2522 H   0  0  0  0  0  0  0  0  0  0  0  0
   -3.4422    1.6150   -2.6981 H   0  0  0  0  0  0  0  0  0  0  0  0
   -3.6229    3.6019   -0.7826 H   0  0  0  0  0  0  0  0  0  0  0  0
   -2.3667    2.4371   -0.1032 H   0  0  0  0  0  0  0  0  0  0  0  0
    0.8189   -2.8334    2.3616 H   0  0  0  0  0  0  0  0  0  0  0  0
    2.5427   -3.4003    1.9878 H   0  0  0  0  0  0  0  0  0  0  0  0
    1.1813   -4.5365    1.9541 H   0  0  0  0  0  0  0  0  0  0  0  0
   -4.6210   -4.4492    1.7302 H   0  0  0  0  0  0  0  0  0  0  0  0
   -2.9937   -3.9393    2.4280 H   0  0  0  0  0  0  0  0  0  0  0  0
   -3.1920   -5.5006    1.6067 H   0  0  0  0  0  0  0  0  0  0  0  0
   -6.4252   -3.2436   -2.6342 H   0  0  0  0  0  0  0  0  0  0  0  0
   -5.0520   -2.3068   -3.4293 H   0  0  0  0  0  0  0  0  0  0  0  0
   -4.8942   -4.0270   -3.0538 H   0  0  0  0  0  0  0  0  0  0  0  0
   -8.6036   -1.5548    0.0506 H   0  0  0  0  0  0  0  0  0  0  0  0
   -8.2814   -2.7624   -1.2005 H   0  0  0  0  0  0  0  0  0  0  0  0
   -8.8261   -1.1658   -1.7403 H   0  0  0  0  0  0  0  0  0  0  0  0
   -5.5866    2.5338    1.0059 H   0  0  0  0  0  0  0  0  0  0  0  0
   -4.3209    1.3870    1.6928 H   0  0  0  0  0  0  0  0  0  0  0  0
   -6.0349    1.0418    1.8953 H   0  0  0  0  0  0  0  0  0  0  0  0
   -8.3446    0.4106    1.6431 H   0  0  0  0  0  0  0  0  0  0  0  0
   -7.9777    2.5218    2.2645 H   0  0  0  0  0  0  0  0  0  0  0  0
   -7.8801    3.1120    0.5400 H   0  0  0  0  0  0  0  0  0  0  0  0
   -9.4770    2.8958    1.3961 H   0  0  0  0  0  0  0  0  0  0  0  0
   -5.8607    3.5590   -2.8582 H   0  0  0  0  0  0  0  0  0  0  0  0
   -6.3359    4.5638   -1.4797 H   0  0  0  0  0  0  0  0  0  0  0  0
   -7.2781    3.1047   -1.8240 H   0  0  0  0  0  0  0  0  0  0  0  0
   10.4793   -1.2586   -1.9415 H   0  0  0  0  0  0  0  0  0  0  0  0
    8.3974    0.8951   -1.2262 H   0  0  0  0  0  0  0  0  0  0  0  0
    8.6622    0.0934   -2.7790 H   0  0  0  0  0  0  0  0  0  0  0  0
    6.3212    1.1276   -2.0624 H   0  0  0  0  0  0  0  0  0  0  0  0
    6.4719   -0.2364   -3.1731 H   0  0  0  0  0  0  0  0  0  0  0  0
    6.3063   -2.6462   -1.8934 H   0  0  0  0  0  0  0  0  0  0  0  0
    5.6236   -2.5683   -0.2690 H   0  0  0  0  0  0  0  0  0  0  0  0
    8.0803   -3.0927   -0.5907 H   0  0  0  0  0  0  0  0  0  0  0  0
    7.8035   -1.8446    0.6317 H   0  0  0  0  0  0  0  0  0  0  0  0
    5.3042    1.2933    0.2947 H   0  0  0  0  0  0  0  0  0  0  0  0
    5.0674   -0.1866    1.2401 H   0  0  0  0  0  0  0  0  0  0  0  0
    9.7347   -0.0508    0.7726 H   0  0  0  0  0  0  0  0  0  0  0  0
   10.4119    0.8265   -0.6486 H   0  0  0  0  0  0  0  0  0  0  0  0
    9.7271   -2.8441    0.5669 H   0  0  0  0  0  0  0  0  0  0  0  0
   10.6672   -3.3596   -0.8580 H   0  0  0  0  0  0  0  0  0  0  0  0
   12.0457   -0.0304    1.2720 H   0  0  0  0  0  0  0  0  0  0  0  0
   12.5374   -0.2746   -0.4725 H   0  0  0  0  0  0  0  0  0  0  0  0
   11.6575   -2.2653    1.5731 H   0  0  0  0  0  0  0  0  0  0  0  0
   12.5997   -2.5020    0.0001 H   0  0  0  0  0  0  0  0  0  0  0  0
    2.0404   -0.3983   -1.0590 H   0  0  0  0  0  0  0  0  0  0  0  0
    4.2449    0.3964   -1.5583 H   0  0  0  0  0  0  0  0  0  0  0  0
    1.3561   -0.4546    3.5225 H   0  0  0  0  0  0  0  0  0  0  0  0
   -1.4455    1.4430    3.4932 H   0  0  0  0  0  0  0  0  0  0  0  0
    0.4433    1.9886   -2.5874 H   0  0  0  0  0  0  0  0  0  0  0  0
  -10.1872    1.2825   -0.3730 H   0  0  0  0  0  0  0  0  0  0  0  0
   -6.1099   -2.2666    1.5490 H   0  0  0  0  0  0  0  0  0  0  0  0
   -3.0766   -4.5555   -2.2938 H   0  0  0  0  0  0  0  0  0  0  0  0
    1.6698   -2.4970   -2.0322 H   0  0  0  0  0  0  0  0  0  0  0  0
    3.7621    3.5227    0.5290 H   0  0  0  0  0  0  0  0  0  0  0  0
    0.3105   -0.4968    1.6238 H   0  0  0  0  0  0  0  0  0  0  0  0
    2.7824   -1.0194    1.6129 H   0  0  0  0  0  0  0  0  0  0  0  0
    3.4698    1.3089    1.7142 H   0  0  0  0  0  0  0  0  0  0  0  0
    2.3629    1.4996   -1.1293 H   0  0  0  0  0  0  0  0  0  0  0  0
    1.7796    4.4946   -0.0801 H   0  0  0  0  0  0  0  0  0  0  0  0
   -0.0480    5.3746    0.9146 H   0  0  0  0  0  0  0  0  0  0  0  0
   -1.1290    4.0746    2.6864 H   0  0  0  0  0  0  0  0  0  0  0  0
    0.4455    2.0086    3.3330 H   0  0  0  0  0  0  0  0  0  0  0  0
   -0.2358    1.3655    0.4806 H   0  0  0  0  0  0  0  0  0  0  0  0
    2.1729    2.9371    1.5672 H   0  0  0  0  0  0  0  0  0  0  0  0
    0.8188    4.0678   -2.0735 H   0  0  0  0  0  0  0  0  0  0  0  0
   -1.5400    5.6347   -2.5294 H   0  0  0  0  0  0  0  0  0  0  0  0
   -1.7647    6.0379   -0.8057 H   0  0  0  0  0  0  0  0  0  0  0  0
   -0.1000    5.8943   -1.3935 H   0  0  0  0  0  0  0  0  0  0  0  0
    1.4943    3.7166    3.7346 H   0  0  0  0  0  0  0  0  0  0  0  0
    0.4637    5.1534    3.8510 H   0  0  0  0  0  0  0  0  0  0  0  0
    1.5907    5.0715    2.4899 H   0  0  0  0  0  0  0  0  0  0  0  0
    3.2672   -2.4848    0.3308 H   0  0  0  0  0  0  0  0  0  0  0  0
    1.4899   -4.3057   -0.1891 H   0  0  0  0  0  0  0  0  0  0  0  0
   -0.6711   -3.0033    0.9410 H   0  0  0  0  0  0  0  0  0  0  0  0
   -0.0917   -1.8530   -0.3545 H   0  0  0  0  0  0  0  0  0  0  0  0
   -1.0669   -3.1184   -1.9433 H   0  0  0  0  0  0  0  0  0  0  0  0
    0.0913   -4.3923   -1.5213 H   0  0  0  0  0  0  0  0  0  0  0  0
   -2.0043   -5.4148   -1.3941 H   0  0  0  0  0  0  0  0  0  0  0  0
   -1.2502   -5.3084    0.1940 H   0  0  0  0  0  0  0  0  0  0  0  0
   -2.7308   -2.9557    0.3189 H   0  0  0  0  0  0  0  0  0  0  0  0
   -4.9940   -4.4865   -0.4812 H   0  0  0  0  0  0  0  0  0  0  0  0
   -3.6925   -1.8642   -0.9391 H   0  0  0  0  0  0  0  0  0  0  0  0
   -6.1730   -3.1929    0.1059 H   0  0  0  0  0  0  0  0  0  0  0  0
   -6.6698   -1.0039   -1.6489 H   0  0  0  0  0  0  0  0  0  0  0  0
   -6.8012   -0.2213    1.2538 H   0  0  0  0  0  0  0  0  0  0  0  0
   -4.5264    0.1023    0.0945 H   0  0  0  0  0  0  0  0  0  0  0  0
   -5.7375    1.2490   -2.0491 H   0  0  0  0  0  0  0  0  0  0  0  0
   -3.6492    1.6915   -2.6602 H   0  0  0  0  0  0  0  0  0  0  0  0
   -3.3135    0.6623   -1.2455 H   0  0  0  0  0  0  0  0  0  0  0  0
   -3.7141    3.6542   -0.8540 H   0  0  0  0  0  0  0  0  0  0  0  0
   -2.5240    2.4940   -0.0564 H   0  0  0  0  0  0  0  0  0  0  0  0
    0.8245   -2.8893    2.3278 H   0  0  0  0  0  0  0  0  0  0  0  0
    2.5818   -3.4143    2.0765 H   0  0  0  0  0  0  0  0  0  0  0  0
    1.2548   -4.5945    2.0414 H   0  0  0  0  0  0  0  0  0  0  0  0
   -4.4132   -4.6635    1.4867 H   0  0  0  0  0  0  0  0  0  0  0  0
   -2.7039   -4.3941    2.0989 H   0  0  0  0  0  0  0  0  0  0  0  0
   -3.0912   -5.8235    1.1163 H   0  0  0  0  0  0  0  0  0  0  0  0
   -6.0590   -2.6671   -2.6481 H   0  0  0  0  0  0  0  0  0  0  0  0
   -5.0002   -1.1506   -2.7939 H   0  0  0  0  0  0  0  0  0  0  0  0
   -4.3719   -2.7495   -3.1800 H   0  0  0  0  0  0  0  0  0  0  0  0
   -8.3475   -1.6708    0.8391 H   0  0  0  0  0  0  0  0  0  0  0  0
   -8.0541   -2.9588   -0.3386 H   0  0  0  0  0  0  0  0  0  0  0  0
   -8.9050   -1.5262   -0.9194 H   0  0  0  0  0  0  0  0  0  0  0  0
   -6.1701    1.6482    1.9522 H   0  0  0  0  0  0  0  0  0  0  0  0
   -4.9202    2.6893    1.0705 H   0  0  0  0  0  0  0  0  0  0  0  0
   -4.4610    1.2290    1.9514 H   0  0  0  0  0  0  0  0  0  0  0  0
   -8.5552    0.9610    1.8215 H   0  0  0  0  0  0  0  0  0  0  0  0
   -9.0241    3.1342    1.9136 H   0  0  0  0  0  0  0  0  0  0  0  0
   -7.5744    3.2863    0.9093 H   0  0  0  0  0  0  0  0  0  0  0  0
   -9.2619    3.3576    0.1828 H   0  0  0  0  0  0  0  0  0  0  0  0
   -5.9189    3.5666   -2.7389 H   0  0  0  0  0  0  0  0  0  0  0  0
   -6.4951    4.6247   -1.3916 H   0  0  0  0  0  0  0  0  0  0  0  0
   -7.3773    3.1258   -1.7060 H   0  0  0  0  0  0  0  0  0  0  0  0
   10.4807   -0.6918   -2.0275 H   0  0  0  0  0  0  0  0  0  0  0  0
    8.1932    0.8532   -1.0379 H   0  0  0  0  0  0  0  0  0  0  0  0
    8.6131    0.4345   -2.7178 H   0  0  0  0  0  0  0  0  0  0  0  0
    6.1515    1.0745   -2.2018 H   0  0  0  0  0  0  0  0  0  0  0  0
    6.5454   -0.2626   -3.2984 H   0  0  0  0  0  0  0  0  0  0  0  0
    6.1884   -2.8022   -1.7234 H   0  0  0  0  0  0  0  0  0  0  0  0
    5.7122   -2.3447   -0.0874 H   0  0  0  0  0  0  0  0  0  0  0  0
    7.9367   -1.6581    0.4923 H   0  0  0  0  0  0  0  0  0  0  0  0
    8.1337   -3.0113   -0.6264 H   0  0  0  0  0  0  0  0  0  0  0  0
    5.2948    1.2182    0.1030 H   0  0  0  0  0  0  0  0  0  0  0  0
    5.0706   -0.2985    1.0597 H   0  0  0  0  0  0  0  0  0  0  0  0
    9.3333   -0.1981    0.6721 H   0  0  0  0  0  0  0  0  0  0  0  0
   10.4308    0.8454   -0.3755 H   0  0  0  0  0  0  0  0  0  0  0  0
   10.0814   -3.3248   -0.9949 H   0  0  0  0  0  0  0  0  0  0  0  0
   11.6018   -2.5096   -1.3486 H   0  0  0  0  0  0  0  0  0  0  0  0
   11.5292   -0.4396    1.7762 H   0  0  0  0  0  0  0  0  0  0  0  0
   12.3061   -0.5462    0.1456 H   0  0  0  0  0  0  0  0  0  0  0  0
   10.2707   -2.4776    1.3833 H   0  0  0  0  0  0  0  0  0  0  0  0
   12.0205   -2.7954    0.8601 H   0  0  0  0  0  0  0  0  0  0  0  0
    2.0416   -0.5148   -1.1385 H   0  0  0  0  0  0  0  0  0  0  0  0
    4.2055    0.3413   -1.7072 H   0  0  0  0  0  0  0  0  0  0  0  0
    1.1871   -0.4833    3.5292 H   0  0  0  0  0  0  0  0  0  0  0  0
   -1.5139    1.2508    3.3582 H   0  0  0  0  0  0  0  0  0  0  0  0
    0.4534    2.0174   -2.6233 H   0  0  0  0  0  0  0  0  0  0  0  0
  -10.0236    1.1410   -0.5773 H   0  0  0  0  0  0  0  0  0  0  0  0
   -5.8994   -2.0667    1.8654 H   0  0  0  0  0  0  0  0  0  0  0  0
   -3.0907   -4.2040   -2.6017 H   0  0  0  0  0  0  0  0  0  0  0  0
    1.8572   -2.3479   -2.1722 H   0  0  0  0  0  0  0  0  0  0  0  0
    4.2156    3.0497    0.3656 H   0  0  0  0  0  0  0  0  0  0  0  0
  1  2  1  0
  2  3  1  0
  3  4  1  0
  5  6  1  0
  6  7  1  0
  7  8  1  0
  1  9  1  0
  8  9  1  0
  4 10  1  0
  5 10  1  0
  9 10  1  0
  5 11  1  0
 11 12  1  0
 12 13  1  6
  7 14  1  0
 15 16  1  0
 16 17  1  0
 17 18  1  0
 18 19  1  0
 19 20  1  0
 20 21  1  0
 21 22  1  0
 22 23  1  0
 23 24  1  0
 24 25  1  0
 25 26  1  0
 26 27  1  0
 27 28  1  0
 28 29  1  0
 16 30  1  0
 20 31  1  0
 22 32  1  0
 24 33  1  0
 26 34  1  0
 35 36  1  0
 39 40  1  0
 41 42  1  0
  3 43  1  0
 38 44  1  0
 38 45  1  0
 44 46  1  0
 45 47  1  0
 46 47  1  0
  2 48  1  0
 15 48  1  0
 43 49  1  0
 40 50  1  0
 41 50  1  0
 49 50  1  0
 38 51  1  0
 39 51  1  0
 42 51  1  0
  1 52  1  0
  8 53  1  0
  6 54  1  0
 12 54  1  0
 11 55  1  0
 12 56  1  0
 29 56  1  0
 27 57  1  0
 37 57  1  0
 25 58  1  0
 35 58  1  0
 35 59  1  0
 23 60  1  0
 21 61  1  0
 15 62  1  0
  4 63  1  0
 64 65  1  0
 65 66  1  0
 66 67  1  0
 68 69  1  0
 69 70  1  0
 70 71  1  0
 64 72  1  0
 71 72  1  0
 67 73  1  0
 68 73  1  0
 72 73  1  0
 68 74  1  0
 74 75  1  0
 75 76  1  6
 70 77  1  0
 78 79  1  0
 79 80  1  0
 80 81  1  0
 81 82  1  0
 82 83  1  0
 83 84  1  0
 84 85  1  0
 85 86  1  0
 86 87  1  0
 87 88  1  0
 88 89  1  0
 89 90  1  0
 90 91  1  0
 91 92  1  0
 79 93  1  0
 83 94  1  0
 85 95  1  0
 87 96  1  0
 89 97  1  0
 98 99  1  0
102103  1  0
104105  1  0
 66106  1  0
101107  1  0
101108  1  0
107109  1  0
108110  1  0
109110  1  0
 65111  1  0
 78111  1  0
106112  1  0
103113  1  0
104113  1  0
112113  1  0
101114  1  0
102114  1  0
105114  1  0
 64115  1  0
 71116  1  0
 69117  1  0
 75117  1  0
 74118  1  0
 75119  1  0
 92119  1  0
 90120  1  0
100120  1  0
 88121  1  0
 98121  1  0
 98122  1  0
 86123  1  0
 84124  1  0
 78125  1  0
 67126  1  0
  1127  1  0
  2128  1  0
  3129  1  1
  4130  1  0
  5131  1  0
  6132  1  0
  7133  1  0
  8134  1  0
  9135  1  0
 10136  1  1
 11137  1  6
 13138  1  0
 13139  1  0
 13140  1  0
 14141  1  0
 14142  1  0
 14143  1  0
 15144  1  0
 16145  1  0
 17146  1  0
 17147  1  0
 18148  1  0
 18149  1  0
 19150  1  0
 19151  1  0
 20152  1  1
 21153  1  1
 22154  1  6
 23155  1  1
 24156  1  6
 25157  1  1
 26158  1  1
 27159  1  6
 28160  1  0
 28161  1  0
 29162  1  0
 29163  1  0
 30164  1  0
 30165  1  0
 30166  1  0
 31167  1  0
 31168  1  0
 31169  1  0
 32170  1  0
 32171  1  0
 32172  1  0
 33173  1  0
 33174  1  0
 33175  1  0
 34176  1  0
 34177  1  0
 34178  1  0
 35179  1  0
 36180  1  0
 36181  1  0
 36182  1  0
 37183  1  0
 37184  1  0
 37185  1  0
 38186  1  0
 39187  1  0
 39188  1  0
 40189  1  0
 40190  1  0
 41191  1  0
 41192  1  0
 42193  1  0
 42194  1  0
 43195  1  0
 43196  1  0
 44197  1  0
 44198  1  0
 45199  1  0
 45200  1  0
 46201  1  0
 46202  1  0
 47203  1  0
 47204  1  0
 48205  1  0
 49206  1  0
 52207  1  0
 53208  1  0
 55209  1  0
 59210  1  0
 60211  1  0
 61212  1  0
 62213  1  0
 63214  1  0
 64215  1  0
 65216  1  0
 66217  1  1
 67218  1  0
 68219  1  0
 69220  1  0
 70221  1  0
 71222  1  0
 72223  1  0
 73224  1  0
 74225  1  6
 76226  1  0
 76227  1  0
 76228  1  0
 77229  1  0
 77230  1  0
 77231  1  0
 78232  1  0
 79233  1  0
 80234  1  0
 80235  1  0
 81236  1  0
 81237  1  0
 82238  1  0
 82239  1  0
 83240  1  1
 84241  1  1
 85242  1  1
 86243  1  1
 87244  1  6
 88245  1  1
 89246  1  1
 90247  1  6
 91248  1  0
 91249  1  0
 92250  1  0
 92251  1  0
 93252  1  0
 93253  1  0
 93254  1  0
 94255  1  0
 94256  1  0
 94257  1  0
 95258  1  0
 95259  1  0
 95260  1  0
 96261  1  0
 96262  1  0
 96263  1  0
 97264  1  0
 97265  1  0
 97266  1  0
 98267  1  0
 99268  1  0
 99269  1  0
 99270  1  0
100271  1  0
100272  1  0
100273  1  0
101274  1  0
102275  1  0
102276  1  0
103277  1  0
103278  1  0
104279  1  0
104280  1  0
105281  1  0
105282  1  0
106283  1  0
106284  1  0
107285  1  0
107286  1  0
108287  1  0
108288  1  0
109289  1  0
109290  1  0
110291  1  0
110292  1  0
111293  1  0
112294  1  0
115295  1  0
116296  1  0
118297  1  0
122298  1  0
123299  1  0
124300  1  0
125301  1  0
126302  1  0
M  END
>  <PDBID>  (1) 
2A69

>  <PDB ID>  (1) 
2A69

>  <Generic Name>  (1) 
Rifapentine

>  <Brand Name>  (1) 
Priftin

>  <DrugBank ID>  (1) 
DB01201

>  <ATC Codes>  (1) 
J04AB05

>  <Ligand ID>  (1) 
RPT

>  <Target Name>  (1) 
DNA-directed RNA polymerase subunit beta'

>  <UniProt ID>  (1) 
P0A674

>  <PDB ID.1>  (1) 
2A69

>  <Seq. Identity>  (1) 
50%

$$$$
