PDB_DB00278_07
     RDKit          3D

170174  0  0  0  0  0  0  0  0999 V2000
    0.8357    0.5690   -0.3435 S   0  0  0  0  0  0  0  0  0  0  0  0
    0.5918    0.5089   -1.9782 O   0  0  0  0  0  0  0  0  0  0  0  0
    1.8518    2.1334   -0.3741 O   0  0  0  0  0  0  0  0  0  0  0  0
    5.2956    1.2019    0.0159 C   0  0  0  0  0  0  0  0  0  0  0  0
    6.1867    0.2971   -0.7185 C   0  0  2  0  0  0  0  0  0  0  0  0
    5.5693   -0.9687   -1.2287 C   0  0  0  0  0  0  0  0  0  0  0  0
    4.2865   -1.3453   -0.5152 C   0  0  0  0  0  0  0  0  0  0  0  0
    4.5151   -1.7536    0.8971 C   0  0  0  0  0  0  0  0  0  0  0  0
    3.2151   -2.0247    1.5822 C   0  0  0  0  0  0  0  0  0  0  0  0
    2.2325   -0.8804    1.4795 C   0  0  0  0  0  0  0  0  0  0  0  0
    2.0375   -0.5525   -0.0062 C   0  0  0  0  0  0  0  0  0  0  0  0
    3.3715   -0.1618   -0.6300 C   0  0  0  0  0  0  0  0  0  0  0  0
    7.3952   -0.0840    0.1112 C   0  0  0  0  0  0  0  0  0  0  0  0
    3.9234    0.9633    0.0349 N   0  0  0  0  0  0  0  0  0  0  0  0
   -0.2758    0.8581    0.5568 N   0  0  0  0  0  0  0  0  0  0  0  0
   -1.6756    0.9015    0.3786 C   0  0  2  0  0  0  0  0  0  0  0  0
   -2.4766   -0.3530    0.4631 C   0  0  0  0  0  0  0  0  0  0  0  0
   -3.8461   -0.0278    0.3364 O   0  0  0  0  0  0  0  0  0  0  0  0
   -2.0278    1.6394   -0.9227 C   0  0  0  0  0  0  0  0  0  0  0  0
   -1.6436    3.0886   -0.9406 C   0  0  0  0  0  0  0  0  0  0  0  0
   -2.4722    3.8678    0.0627 C   0  0  0  0  0  0  0  0  0  0  0  0
   -2.1110    5.2754   -0.0241 N   0  0  0  0  0  0  0  0  0  0  0  0
   -3.0792    6.0586    0.7878 C   0  0  0  0  0  0  0  0  0  0  0  0
   -4.4042    5.7645    0.2012 N   0  0  0  0  0  0  0  0  0  0  0  0
   -2.8293    7.4530    0.4822 N   0  0  0  0  0  0  0  0  0  0  0  0
   -2.1124   -1.4830   -0.2536 N   0  0  0  0  0  0  0  0  0  0  0  0
   -1.7259   -2.6793    0.3668 C   0  0  2  0  0  0  0  0  0  0  0  0
   -2.1217   -3.9377   -0.4183 C   0  0  0  0  0  0  0  0  0  0  0  0
   -3.5746   -3.9333   -0.6988 C   0  0  1  0  0  0  0  0  0  0  0  0
   -3.9989   -2.6095   -1.3025 C   0  0  0  0  0  0  0  0  0  0  0  0
   -2.8028   -1.7017   -1.5004 C   0  0  0  0  0  0  0  0  0  0  0  0
   -2.1361   -2.8723    1.8024 C   0  0  0  0  0  0  0  0  0  0  0  0
   -3.5099   -2.8225    2.0108 O   0  0  0  0  0  0  0  0  0  0  0  0
   -1.7773   -4.2023    2.1471 O   0  0  0  0  0  0  0  0  0  0  0  0
   -3.9917   -5.0745   -1.6409 C   0  0  0  0  0  0  0  0  0  0  0  0
    0.8357    0.5690   -0.3435 S   0  0  0  0  0  0  0  0  0  0  0  0
    0.5918    0.5089   -1.9782 O   0  0  0  0  0  0  0  0  0  0  0  0
    1.8518    2.1334   -0.3741 O   0  0  0  0  0  0  0  0  0  0  0  0
    5.2956    1.2019    0.0159 C   0  0  0  0  0  0  0  0  0  0  0  0
    6.1867    0.2971   -0.7185 C   0  0  2  0  0  0  0  0  0  0  0  0
    5.5693   -0.9687   -1.2287 C   0  0  0  0  0  0  0  0  0  0  0  0
    4.2865   -1.3453   -0.5152 C   0  0  0  0  0  0  0  0  0  0  0  0
    4.5151   -1.7536    0.8971 C   0  0  0  0  0  0  0  0  0  0  0  0
    3.2151   -2.0247    1.5822 C   0  0  0  0  0  0  0  0  0  0  0  0
    2.2325   -0.8804    1.4795 C   0  0  0  0  0  0  0  0  0  0  0  0
    2.0375   -0.5525   -0.0062 C   0  0  0  0  0  0  0  0  0  0  0  0
    3.3715   -0.1618   -0.6300 C   0  0  0  0  0  0  0  0  0  0  0  0
    7.3952   -0.0840    0.1112 C   0  0  0  0  0  0  0  0  0  0  0  0
    3.9234    0.9633    0.0349 N   0  0  0  0  0  0  0  0  0  0  0  0
   -0.2758    0.8581    0.5568 N   0  0  0  0  0  0  0  0  0  0  0  0
   -1.6756    0.9015    0.3786 C   0  0  2  0  0  0  0  0  0  0  0  0
   -2.4766   -0.3530    0.4631 C   0  0  0  0  0  0  0  0  0  0  0  0
   -3.8461   -0.0278    0.3364 O   0  0  0  0  0  0  0  0  0  0  0  0
   -2.0278    1.6394   -0.9227 C   0  0  0  0  0  0  0  0  0  0  0  0
   -1.6436    3.0886   -0.9406 C   0  0  0  0  0  0  0  0  0  0  0  0
   -2.4722    3.8678    0.0627 C   0  0  0  0  0  0  0  0  0  0  0  0
   -2.1110    5.2754   -0.0241 N   0  0  0  0  0  0  0  0  0  0  0  0
   -3.0792    6.0586    0.7878 C   0  0  0  0  0  0  0  0  0  0  0  0
   -4.4042    5.7645    0.2012 N   0  0  0  0  0  0  0  0  0  0  0  0
   -2.8293    7.4530    0.4822 N   0  0  0  0  0  0  0  0  0  0  0  0
   -2.1124   -1.4830   -0.2536 N   0  0  0  0  0  0  0  0  0  0  0  0
   -1.7259   -2.6793    0.3668 C   0  0  2  0  0  0  0  0  0  0  0  0
   -2.1217   -3.9377   -0.4183 C   0  0  0  0  0  0  0  0  0  0  0  0
   -3.5746   -3.9333   -0.6988 C   0  0  1  0  0  0  0  0  0  0  0  0
   -3.9989   -2.6095   -1.3025 C   0  0  0  0  0  0  0  0  0  0  0  0
   -2.8028   -1.7017   -1.5004 C   0  0  0  0  0  0  0  0  0  0  0  0
   -2.1361   -2.8723    1.8024 C   0  0  0  0  0  0  0  0  0  0  0  0
   -3.5099   -2.8225    2.0108 O   0  0  0  0  0  0  0  0  0  0  0  0
   -1.7773   -4.2023    2.1471 O   0  0  0  0  0  0  0  0  0  0  0  0
   -3.9917   -5.0745   -1.6409 C   0  0  0  0  0  0  0  0  0  0  0  0
    0.3634   -0.4401   -2.2157 H   0  0  0  0  0  0  0  0  0  0  0  0
    1.5845    2.5492    0.4605 H   0  0  0  0  0  0  0  0  0  0  0  0
    5.6456    1.2389    1.0952 H   0  0  0  0  0  0  0  0  0  0  0  0
    5.4726    2.2643   -0.3305 H   0  0  0  0  0  0  0  0  0  0  0  0
    6.6063    0.8172   -1.6311 H   0  0  0  0  0  0  0  0  0  0  0  0
    5.3053   -0.8887   -2.3202 H   0  0  0  0  0  0  0  0  0  0  0  0
    6.2541   -1.8381   -1.1558 H   0  0  0  0  0  0  0  0  0  0  0  0
    3.8890   -2.2305   -1.0602 H   0  0  0  0  0  0  0  0  0  0  0  0
    5.1081   -1.0603    1.5093 H   0  0  0  0  0  0  0  0  0  0  0  0
    5.0546   -2.7466    0.8564 H   0  0  0  0  0  0  0  0  0  0  0  0
    3.4089   -2.2501    2.6477 H   0  0  0  0  0  0  0  0  0  0  0  0
    2.7735   -2.9307    1.0986 H   0  0  0  0  0  0  0  0  0  0  0  0
    1.2395   -1.3209    1.7903 H   0  0  0  0  0  0  0  0  0  0  0  0
    2.4231   -0.0293    2.1111 H   0  0  0  0  0  0  0  0  0  0  0  0
    1.7683   -1.5496   -0.4280 H   0  0  0  0  0  0  0  0  0  0  0  0
    3.1448    0.0642   -1.6959 H   0  0  0  0  0  0  0  0  0  0  0  0
    7.5725    0.6526    0.9341 H   0  0  0  0  0  0  0  0  0  0  0  0
    8.3494   -0.0484   -0.4909 H   0  0  0  0  0  0  0  0  0  0  0  0
    7.3204   -1.1173    0.5023 H   0  0  0  0  0  0  0  0  0  0  0  0
    3.4885    1.2060    0.9511 H   0  0  0  0  0  0  0  0  0  0  0  0
   -0.1015    0.9426    1.6093 H   0  0  0  0  0  0  0  0  0  0  0  0
   -2.0975    1.5725    1.1929 H   0  0  0  0  0  0  0  0  0  0  0  0
   -2.4152   -0.6361    1.5712 H   0  0  0  0  0  0  0  0  0  0  0  0
   -4.1770    0.0528   -0.5515 H   0  0  0  0  0  0  0  0  0  0  0  0
   -3.1376    1.6319   -0.9783 H   0  0  0  0  0  0  0  0  0  0  0  0
   -1.6741    1.0897   -1.7980 H   0  0  0  0  0  0  0  0  0  0  0  0
   -0.5671    3.2723   -0.7954 H   0  0  0  0  0  0  0  0  0  0  0  0
   -1.9004    3.4948   -1.9382 H   0  0  0  0  0  0  0  0  0  0  0  0
   -2.2793    3.5807    1.1135 H   0  0  0  0  0  0  0  0  0  0  0  0
   -3.5369    3.7102   -0.2212 H   0  0  0  0  0  0  0  0  0  0  0  0
   -2.2456    5.6177   -1.0205 H   0  0  0  0  0  0  0  0  0  0  0  0
   -3.0249    5.8177    1.8441 H   0  0  0  0  0  0  0  0  0  0  0  0
   -5.0497    6.5220    0.5702 H   0  0  0  0  0  0  0  0  0  0  0  0
   -4.2906    5.8564   -0.8513 H   0  0  0  0  0  0  0  0  0  0  0  0
   -2.1127    7.5869   -0.2543 H   0  0  0  0  0  0  0  0  0  0  0  0
   -3.7073    7.9569    0.2256 H   0  0  0  0  0  0  0  0  0  0  0  0
   -0.5946   -2.7264    0.3882 H   0  0  0  0  0  0  0  0  0  0  0  0
   -1.5410   -4.0015   -1.3418 H   0  0  0  0  0  0  0  0  0  0  0  0
   -1.8858   -4.7891    0.2664 H   0  0  0  0  0  0  0  0  0  0  0  0
   -4.1820   -4.1133    0.2122 H   0  0  0  0  0  0  0  0  0  0  0  0
   -4.8164   -2.1763   -0.7221 H   0  0  0  0  0  0  0  0  0  0  0  0
   -4.3855   -2.8187   -2.3163 H   0  0  0  0  0  0  0  0  0  0  0  0
   -2.1012   -2.2405   -2.1744 H   0  0  0  0  0  0  0  0  0  0  0  0
   -3.1054   -0.8028   -2.0161 H   0  0  0  0  0  0  0  0  0  0  0  0
   -1.5679   -2.2303    2.4838 H   0  0  0  0  0  0  0  0  0  0  0  0
   -3.7992   -3.2734    2.8178 H   0  0  0  0  0  0  0  0  0  0  0  0
   -0.8031   -4.3306    2.1292 H   0  0  0  0  0  0  0  0  0  0  0  0
   -3.3308   -5.1829   -2.4945 H   0  0  0  0  0  0  0  0  0  0  0  0
   -4.0114   -5.9960   -1.0368 H   0  0  0  0  0  0  0  0  0  0  0  0
   -5.0455   -4.8415   -1.9215 H   0  0  0  0  0  0  0  0  0  0  0  0
    0.3634   -0.4401   -2.2157 H   0  0  0  0  0  0  0  0  0  0  0  0
    1.5845    2.5492    0.4605 H   0  0  0  0  0  0  0  0  0  0  0  0
    5.6456    1.2389    1.0952 H   0  0  0  0  0  0  0  0  0  0  0  0
    5.4726    2.2643   -0.3305 H   0  0  0  0  0  0  0  0  0  0  0  0
    6.6063    0.8172   -1.6311 H   0  0  0  0  0  0  0  0  0  0  0  0
    5.3053   -0.8887   -2.3202 H   0  0  0  0  0  0  0  0  0  0  0  0
    6.2541   -1.8381   -1.1558 H   0  0  0  0  0  0  0  0  0  0  0  0
    3.8890   -2.2305   -1.0602 H   0  0  0  0  0  0  0  0  0  0  0  0
    5.1081   -1.0603    1.5093 H   0  0  0  0  0  0  0  0  0  0  0  0
    5.0546   -2.7466    0.8564 H   0  0  0  0  0  0  0  0  0  0  0  0
    3.4089   -2.2501    2.6477 H   0  0  0  0  0  0  0  0  0  0  0  0
    2.7735   -2.9307    1.0986 H   0  0  0  0  0  0  0  0  0  0  0  0
    1.2395   -1.3209    1.7903 H   0  0  0  0  0  0  0  0  0  0  0  0
    2.4231   -0.0293    2.1111 H   0  0  0  0  0  0  0  0  0  0  0  0
    1.7683   -1.5496   -0.4280 H   0  0  0  0  0  0  0  0  0  0  0  0
    3.1448    0.0642   -1.6959 H   0  0  0  0  0  0  0  0  0  0  0  0
    7.5725    0.6526    0.9341 H   0  0  0  0  0  0  0  0  0  0  0  0
    8.3494   -0.0484   -0.4909 H   0  0  0  0  0  0  0  0  0  0  0  0
    7.3204   -1.1173    0.5023 H   0  0  0  0  0  0  0  0  0  0  0  0
    3.4885    1.2060    0.9511 H   0  0  0  0  0  0  0  0  0  0  0  0
   -0.1015    0.9426    1.6093 H   0  0  0  0  0  0  0  0  0  0  0  0
   -2.0975    1.5725    1.1929 H   0  0  0  0  0  0  0  0  0  0  0  0
   -2.4152   -0.6361    1.5712 H   0  0  0  0  0  0  0  0  0  0  0  0
   -4.1770    0.0528   -0.5515 H   0  0  0  0  0  0  0  0  0  0  0  0
   -3.1376    1.6319   -0.9783 H   0  0  0  0  0  0  0  0  0  0  0  0
   -1.6741    1.0897   -1.7980 H   0  0  0  0  0  0  0  0  0  0  0  0
   -0.5671    3.2723   -0.7954 H   0  0  0  0  0  0  0  0  0  0  0  0
   -1.9004    3.4948   -1.9382 H   0  0  0  0  0  0  0  0  0  0  0  0
   -2.2793    3.5807    1.1135 H   0  0  0  0  0  0  0  0  0  0  0  0
   -3.5369    3.7102   -0.2212 H   0  0  0  0  0  0  0  0  0  0  0  0
   -2.2456    5.6177   -1.0205 H   0  0  0  0  0  0  0  0  0  0  0  0
   -3.0249    5.8177    1.8441 H   0  0  0  0  0  0  0  0  0  0  0  0
   -5.0497    6.5220    0.5702 H   0  0  0  0  0  0  0  0  0  0  0  0
   -4.2906    5.8564   -0.8513 H   0  0  0  0  0  0  0  0  0  0  0  0
   -2.1127    7.5869   -0.2543 H   0  0  0  0  0  0  0  0  0  0  0  0
   -3.7073    7.9569    0.2256 H   0  0  0  0  0  0  0  0  0  0  0  0
   -0.5946   -2.7264    0.3882 H   0  0  0  0  0  0  0  0  0  0  0  0
   -1.5410   -4.0015   -1.3418 H   0  0  0  0  0  0  0  0  0  0  0  0
   -1.8858   -4.7891    0.2664 H   0  0  0  0  0  0  0  0  0  0  0  0
   -4.1820   -4.1133    0.2122 H   0  0  0  0  0  0  0  0  0  0  0  0
   -4.8164   -2.1763   -0.7221 H   0  0  0  0  0  0  0  0  0  0  0  0
   -4.3855   -2.8187   -2.3163 H   0  0  0  0  0  0  0  0  0  0  0  0
   -2.1012   -2.2405   -2.1744 H   0  0  0  0  0  0  0  0  0  0  0  0
   -3.1054   -0.8028   -2.0161 H   0  0  0  0  0  0  0  0  0  0  0  0
   -1.5679   -2.2303    2.4838 H   0  0  0  0  0  0  0  0  0  0  0  0
   -3.7992   -3.2734    2.8178 H   0  0  0  0  0  0  0  0  0  0  0  0
   -0.8031   -4.3306    2.1292 H   0  0  0  0  0  0  0  0  0  0  0  0
   -3.3308   -5.1829   -2.4945 H   0  0  0  0  0  0  0  0  0  0  0  0
   -4.0114   -5.9960   -1.0368 H   0  0  0  0  0  0  0  0  0  0  0  0
   -5.0455   -4.8415   -1.9215 H   0  0  0  0  0  0  0  0  0  0  0  0
  1  2  1  0
  1  3  1  0
  4  5  1  0
  5  6  1  0
  6  7  1  0
  7  8  1  0
  8  9  1  0
  9 10  1  0
  1 11  1  0
 10 11  1  0
  7 12  1  0
 11 12  1  0
  5 13  1  0
  4 14  1  0
 12 14  1  0
  1 15  1  0
 15 16  1  0
 16 17  1  0
 17 18  1  0
 16 19  1  0
 19 20  1  0
 20 21  1  0
 21 22  1  0
 22 23  1  0
 23 24  1  0
 23 25  1  0
 17 26  1  0
 26 27  1  0
 27 28  1  0
 28 29  1  0
 29 30  1  0
 26 31  1  0
 30 31  1  0
 27 32  1  0
 32 33  1  0
 32 34  1  0
 29 35  1  0
 36 37  1  0
 36 38  1  0
 39 40  1  0
 40 41  1  0
 41 42  1  0
 42 43  1  0
 43 44  1  0
 44 45  1  0
 36 46  1  0
 45 46  1  0
 42 47  1  0
 46 47  1  0
 40 48  1  0
 39 49  1  0
 47 49  1  0
 36 50  1  0
 50 51  1  0
 51 52  1  0
 52 53  1  0
 51 54  1  0
 54 55  1  0
 55 56  1  0
 56 57  1  0
 57 58  1  0
 58 59  1  0
 58 60  1  0
 52 61  1  0
 61 62  1  0
 62 63  1  0
 63 64  1  0
 64 65  1  0
 61 66  1  0
 65 66  1  0
 62 67  1  0
 67 68  1  0
 67 69  1  0
 64 70  1  0
  2 71  1  0
  3 72  1  0
  4 73  1  0
  4 74  1  0
  5 75  1  6
  6 76  1  0
  6 77  1  0
  7 78  1  0
  8 79  1  0
  8 80  1  0
  9 81  1  0
  9 82  1  0
 10 83  1  0
 10 84  1  0
 11 85  1  0
 12 86  1  0
 13 87  1  0
 13 88  1  0
 13 89  1  0
 14 90  1  0
 15 91  1  0
 16 92  1  1
 17 93  1  0
 18 94  1  0
 19 95  1  0
 19 96  1  0
 20 97  1  0
 20 98  1  0
 21 99  1  0
 21100  1  0
 22101  1  0
 23102  1  0
 24103  1  0
 24104  1  0
 25105  1  0
 25106  1  0
 27107  1  1
 28108  1  0
 28109  1  0
 29110  1  1
 30111  1  0
 30112  1  0
 31113  1  0
 31114  1  0
 32115  1  0
 33116  1  0
 34117  1  0
 35118  1  0
 35119  1  0
 35120  1  0
 37121  1  0
 38122  1  0
 39123  1  0
 39124  1  0
 40125  1  6
 41126  1  0
 41127  1  0
 42128  1  0
 43129  1  0
 43130  1  0
 44131  1  0
 44132  1  0
 45133  1  0
 45134  1  0
 46135  1  0
 47136  1  0
 48137  1  0
 48138  1  0
 48139  1  0
 49140  1  0
 50141  1  0
 51142  1  1
 52143  1  0
 53144  1  0
 54145  1  0
 54146  1  0
 55147  1  0
 55148  1  0
 56149  1  0
 56150  1  0
 57151  1  0
 58152  1  0
 59153  1  0
 59154  1  0
 60155  1  0
 60156  1  0
 62157  1  1
 63158  1  0
 63159  1  0
 64160  1  1
 65161  1  0
 65162  1  0
 66163  1  0
 66164  1  0
 67165  1  0
 68166  1  0
 69167  1  0
 70168  1  0
 70169  1  0
 70170  1  0
M  END
>  <PDBID>  (1) 
4HFP

>  <PDB ID>  (1) 
4HFP

>  <Generic Name>  (1) 
Argatroban

>  <Brand Name>  (1) 
Argatroban

>  <DrugBank ID>  (1) 
DB00278

>  <ATC Codes>  (1) 
B01AE03

>  <Ligand ID>  (1) 
15U,MIT

>  <Target Name>  (1) 
Prothrombin

>  <UniProt ID>  (1) 
P00734

>  <PDB ID.1>  (1) 
4HFP

>  <Seq. Identity>  (1) 
100%

$$$$
