PDB_DB01064_04
     RDKit          3D

 76 76  0  0  0  0  0  0  0  0999 V2000
    3.5977    0.8255    1.5471 C   0  0  0  0  0  0  0  0  0  0  0  0
    3.5988   -0.1540    0.4195 C   0  0  0  0  0  0  0  0  0  0  0  0
    3.8763    0.5755   -0.8778 C   0  0  0  0  0  0  0  0  0  0  0  0
    2.4796   -1.0013    0.3211 N   0  0  0  0  0  0  0  0  0  0  0  0
    1.2138   -0.3975    0.0933 C   0  0  0  0  0  0  0  0  0  0  0  0
    0.1715   -1.4654    0.0272 C   0  0  2  0  0  0  0  0  0  0  0  0
    0.5190   -2.3122   -1.0376 O   0  0  0  0  0  0  0  0  0  0  0  0
   -1.2253   -0.9949   -0.0869 C   0  0  0  0  0  0  0  0  0  0  0  0
   -1.5105   -0.1698   -1.2985 C   0  0  0  0  0  0  0  0  0  0  0  0
   -1.5491   -0.2448    1.2099 C   0  0  0  0  0  0  0  0  0  0  0  0
   -3.0521    0.0143    1.1451 C   0  0  0  0  0  0  0  0  0  0  0  0
   -3.1992    1.0932    0.0786 C   0  0  0  0  0  0  0  0  0  0  0  0
   -2.4750    2.2187    0.4323 O   0  0  0  0  0  0  0  0  0  0  0  0
   -2.8189    0.5529   -1.2564 C   0  0  0  0  0  0  0  0  0  0  0  0
   -3.8954   -0.2543   -1.6937 O   0  0  0  0  0  0  0  0  0  0  0  0
    3.5977    0.8255    1.5471 C   0  0  0  0  0  0  0  0  0  0  0  0
    3.5988   -0.1540    0.4195 C   0  0  0  0  0  0  0  0  0  0  0  0
    3.8763    0.5755   -0.8778 C   0  0  0  0  0  0  0  0  0  0  0  0
    2.4796   -1.0013    0.3211 N   0  0  0  0  0  0  0  0  0  0  0  0
    1.2138   -0.3975    0.0933 C   0  0  0  0  0  0  0  0  0  0  0  0
    0.1715   -1.4654    0.0272 C   0  0  2  0  0  0  0  0  0  0  0  0
    0.5190   -2.3122   -1.0376 O   0  0  0  0  0  0  0  0  0  0  0  0
   -1.2253   -0.9949   -0.0869 C   0  0  0  0  0  0  0  0  0  0  0  0
   -1.5105   -0.1698   -1.2985 C   0  0  0  0  0  0  0  0  0  0  0  0
   -1.5491   -0.2448    1.2099 C   0  0  0  0  0  0  0  0  0  0  0  0
   -3.0521    0.0143    1.1451 C   0  0  0  0  0  0  0  0  0  0  0  0
   -3.1992    1.0932    0.0786 C   0  0  0  0  0  0  0  0  0  0  0  0
   -2.4750    2.2187    0.4323 O   0  0  0  0  0  0  0  0  0  0  0  0
   -2.8189    0.5529   -1.2564 C   0  0  0  0  0  0  0  0  0  0  0  0
   -3.8954   -0.2543   -1.6937 O   0  0  0  0  0  0  0  0  0  0  0  0
    2.7923    1.5739    1.4992 H   0  0  0  0  0  0  0  0  0  0  0  0
    4.5528    1.3941    1.4978 H   0  0  0  0  0  0  0  0  0  0  0  0
    3.6000    0.2917    2.5200 H   0  0  0  0  0  0  0  0  0  0  0  0
    4.4994   -0.8186    0.5871 H   0  0  0  0  0  0  0  0  0  0  0  0
    4.6902    1.3186   -0.6315 H   0  0  0  0  0  0  0  0  0  0  0  0
    2.9946    1.0840   -1.2887 H   0  0  0  0  0  0  0  0  0  0  0  0
    4.3542   -0.1287   -1.6109 H   0  0  0  0  0  0  0  0  0  0  0  0
    2.5940   -1.8630   -0.2124 H   0  0  0  0  0  0  0  0  0  0  0  0
    1.2557    0.0697   -0.9369 H   0  0  0  0  0  0  0  0  0  0  0  0
    0.9798    0.4332    0.7754 H   0  0  0  0  0  0  0  0  0  0  0  0
    0.2912   -2.1158    0.9419 H   0  0  0  0  0  0  0  0  0  0  0  0
   -0.2272   -2.3313   -1.6644 H   0  0  0  0  0  0  0  0  0  0  0  0
   -1.9055   -1.8714   -0.0942 H   0  0  0  0  0  0  0  0  0  0  0  0
   -1.5823   -0.8935   -2.1650 H   0  0  0  0  0  0  0  0  0  0  0  0
   -0.6897    0.5212   -1.5817 H   0  0  0  0  0  0  0  0  0  0  0  0
   -1.2722   -0.9015    2.0423 H   0  0  0  0  0  0  0  0  0  0  0  0
   -1.0056    0.7243    1.1978 H   0  0  0  0  0  0  0  0  0  0  0  0
   -3.4700    0.3358    2.1150 H   0  0  0  0  0  0  0  0  0  0  0  0
   -3.5378   -0.9078    0.7520 H   0  0  0  0  0  0  0  0  0  0  0  0
   -4.2789    1.3560    0.0694 H   0  0  0  0  0  0  0  0  0  0  0  0
   -2.9361    2.7336    1.1492 H   0  0  0  0  0  0  0  0  0  0  0  0
   -2.7851    1.4014   -1.9717 H   0  0  0  0  0  0  0  0  0  0  0  0
   -4.6450    0.3081   -2.0129 H   0  0  0  0  0  0  0  0  0  0  0  0
    2.7923    1.5739    1.4992 H   0  0  0  0  0  0  0  0  0  0  0  0
    4.5528    1.3941    1.4978 H   0  0  0  0  0  0  0  0  0  0  0  0
    3.6000    0.2917    2.5200 H   0  0  0  0  0  0  0  0  0  0  0  0
    4.4994   -0.8186    0.5871 H   0  0  0  0  0  0  0  0  0  0  0  0
    4.6902    1.3186   -0.6315 H   0  0  0  0  0  0  0  0  0  0  0  0
    2.9946    1.0840   -1.2887 H   0  0  0  0  0  0  0  0  0  0  0  0
    4.3542   -0.1287   -1.6109 H   0  0  0  0  0  0  0  0  0  0  0  0
    2.5940   -1.8630   -0.2124 H   0  0  0  0  0  0  0  0  0  0  0  0
    1.2557    0.0697   -0.9369 H   0  0  0  0  0  0  0  0  0  0  0  0
    0.9798    0.4332    0.7754 H   0  0  0  0  0  0  0  0  0  0  0  0
    0.2912   -2.1158    0.9419 H   0  0  0  0  0  0  0  0  0  0  0  0
   -0.2272   -2.3313   -1.6644 H   0  0  0  0  0  0  0  0  0  0  0  0
   -1.9055   -1.8714   -0.0942 H   0  0  0  0  0  0  0  0  0  0  0  0
   -1.5823   -0.8935   -2.1650 H   0  0  0  0  0  0  0  0  0  0  0  0
   -0.6897    0.5212   -1.5817 H   0  0  0  0  0  0  0  0  0  0  0  0
   -1.2722   -0.9015    2.0423 H   0  0  0  0  0  0  0  0  0  0  0  0
   -1.0056    0.7243    1.1978 H   0  0  0  0  0  0  0  0  0  0  0  0
   -3.4700    0.3358    2.1150 H   0  0  0  0  0  0  0  0  0  0  0  0
   -3.5378   -0.9078    0.7520 H   0  0  0  0  0  0  0  0  0  0  0  0
   -4.2789    1.3560    0.0694 H   0  0  0  0  0  0  0  0  0  0  0  0
   -2.9361    2.7336    1.1492 H   0  0  0  0  0  0  0  0  0  0  0  0
   -2.7851    1.4014   -1.9717 H   0  0  0  0  0  0  0  0  0  0  0  0
   -4.6450    0.3081   -2.0129 H   0  0  0  0  0  0  0  0  0  0  0  0
  1  2  1  0
  2  3  1  0
  2  4  1  0
  4  5  1  0
  5  6  1  0
  6  7  1  0
  6  8  1  0
  8  9  1  0
  8 10  1  0
 10 11  1  0
 11 12  1  0
 12 13  1  0
  9 14  1  0
 12 14  1  0
 14 15  1  0
 16 17  1  0
 17 18  1  0
 17 19  1  0
 19 20  1  0
 20 21  1  0
 21 22  1  0
 21 23  1  0
 23 24  1  0
 23 25  1  0
 25 26  1  0
 26 27  1  0
 27 28  1  0
 24 29  1  0
 27 29  1  0
 29 30  1  0
  1 31  1  0
  1 32  1  0
  1 33  1  0
  2 34  1  0
  3 35  1  0
  3 36  1  0
  3 37  1  0
  4 38  1  0
  5 39  1  0
  5 40  1  0
  6 41  1  1
  7 42  1  0
  8 43  1  0
  9 44  1  0
  9 45  1  0
 10 46  1  0
 10 47  1  0
 11 48  1  0
 11 49  1  0
 12 50  1  0
 13 51  1  0
 14 52  1  0
 15 53  1  0
 16 54  1  0
 16 55  1  0
 16 56  1  0
 17 57  1  0
 18 58  1  0
 18 59  1  0
 18 60  1  0
 19 61  1  0
 20 62  1  0
 20 63  1  0
 21 64  1  1
 22 65  1  0
 23 66  1  0
 24 67  1  0
 24 68  1  0
 25 69  1  0
 25 70  1  0
 26 71  1  0
 26 72  1  0
 27 73  1  0
 28 74  1  0
 29 75  1  0
 30 76  1  0
M  END
>  <PDBID>  (1) 
2Y03

>  <PDB ID>  (1) 
2Y03

>  <Generic Name>  (1) 
Isoprenaline

>  <Brand Name>  (1) 
Isoproterenol HCl Inj 1:5000#Isoproterenol Hydrochloride Injection USP#Isuprel#Isuprel Inj 0.2mg/ml#Isuprel Liq 0.2mg/ml#Isuprel Liq 0.5%#Isuprel Liq Inh 0.5%#Isuprel Mistometer 125mcg/aem#Isuprel Mistometer Aem 0.25%#Medihaler-Iso#Proternol L#Saventrine

>  <DrugBank ID>  (1) 
DB01064

>  <ATC Codes>  (1) 
R03AK02#R03CB01#R03CB51#R03AB02#C01CA02

>  <Ligand ID>  (1) 
5FW

>  <Target Name>  (1) 
Beta-1 adrenergic receptor

>  <UniProt ID>  (1) 
P08588

>  <PDB ID.1>  (1) 
2Y03

>  <Seq. Identity>  (1) 
63%

$$$$
