PDB_DB09073_03
     RDKit          3D

 80 84  0  0  0  0  0  0  0  0999 V2000
   -5.4179    3.1390   -1.5938 O   0  0  0  0  0  0  0  0  0  0  0  0
   -5.4382    2.3002   -0.4768 C   0  0  0  0  0  0  0  0  0  0  0  0
   -5.2471    3.0835    0.7934 C   0  0  0  0  0  0  0  0  0  0  0  0
   -4.4359    1.1802   -0.6268 C   0  0  0  0  0  0  0  0  0  0  0  0
   -3.0254    1.6625   -0.7750 C   0  0  2  0  0  0  0  0  0  0  0  0
   -2.8628    2.6487   -1.9060 C   0  0  0  0  0  0  0  0  0  0  0  0
   -2.2119    0.4332   -1.1332 C   0  0  1  0  0  0  0  0  0  0  0  0
   -0.7738    0.7993   -1.4427 C   0  0  0  0  0  0  0  0  0  0  0  0
    0.0538   -0.3042   -1.0560 N   0  0  0  0  0  0  0  0  0  0  0  0
    0.1132   -0.5054    0.3505 C   0  0  0  0  0  0  0  0  0  0  0  0
   -1.1632   -0.1773    0.9487 N   0  0  0  0  0  0  0  0  0  0  0  0
   -2.2660   -0.4982    0.0243 C   0  0  1  0  0  0  0  0  0  0  0  0
   -3.4419   -0.6070    0.7599 N   0  0  0  0  0  0  0  0  0  0  0  0
   -3.6687   -1.9532    1.1575 C   0  0  0  0  0  0  0  0  0  0  0  0
   -4.8717   -2.2152    1.9840 C   0  0  0  0  0  0  0  0  0  0  0  0
   -4.8915   -3.7529    2.0017 C   0  0  0  0  0  0  0  0  0  0  0  0
   -4.7002   -4.0392    0.5208 C   0  0  0  0  0  0  0  0  0  0  0  0
   -3.8510   -2.9026   -0.0081 C   0  0  0  0  0  0  0  0  0  0  0  0
   -4.5716    0.1549    0.4275 C   0  0  0  0  0  0  0  0  0  0  0  0
   -5.0549    0.7732    1.5881 O   0  0  0  0  0  0  0  0  0  0  0  0
    1.1382    0.2405    0.9802 N   0  0  0  0  0  0  0  0  0  0  0  0
    2.4789   -0.0426    0.6566 C   0  0  0  0  0  0  0  0  0  0  0  0
    2.9330   -1.3880    0.9662 N   0  0  0  0  0  0  0  0  0  0  0  0
    4.3787   -1.3058    1.0213 C   0  0  0  0  0  0  0  0  0  0  0  0
    5.0248   -0.9292   -0.2831 C   0  0  1  0  0  0  0  0  0  0  0  0
    4.3105    0.1473   -1.0347 C   0  0  0  0  0  0  0  0  0  0  0  0
    2.8298    0.2061   -0.7658 C   0  0  0  0  0  0  0  0  0  0  0  0
    6.3829   -0.4707   -0.0364 N   0  0  0  0  0  0  0  0  0  0  0  0
    7.0798   -0.3674   -1.2447 C   0  0  0  0  0  0  0  0  0  0  0  0
    8.1255    0.6781   -1.3561 C   0  0  0  0  0  0  0  0  0  0  0  0
    8.5924    1.0864   -0.0657 N   0  0  0  0  0  0  0  0  0  0  0  0
    7.4494    1.6543    0.6231 C   0  0  0  0  0  0  0  0  0  0  0  0
    6.4593    0.5645    0.9045 C   0  0  0  0  0  0  0  0  0  0  0  0
   -4.2728    2.9494    1.2669 H   0  0  0  0  0  0  0  0  0  0  0  0
   -6.0329    2.8885    1.5491 H   0  0  0  0  0  0  0  0  0  0  0  0
   -5.3751    4.1730    0.5264 H   0  0  0  0  0  0  0  0  0  0  0  0
   -1.8304    2.5777   -2.3081 H   0  0  0  0  0  0  0  0  0  0  0  0
   -3.5332    2.3888   -2.7489 H   0  0  0  0  0  0  0  0  0  0  0  0
   -3.0256    3.6885   -1.5958 H   0  0  0  0  0  0  0  0  0  0  0  0
   -0.4871    1.7172   -0.9181 H   0  0  0  0  0  0  0  0  0  0  0  0
   -2.7784   -2.3083    1.7175 H   0  0  0  0  0  0  0  0  0  0  0  0
   -5.8281   -1.9171    1.5586 H   0  0  0  0  0  0  0  0  0  0  0  0
   -4.7645   -1.9179    3.0475 H   0  0  0  0  0  0  0  0  0  0  0  0
   -5.8621   -4.1483    2.3260 H   0  0  0  0  0  0  0  0  0  0  0  0
   -4.0252   -4.1573    2.5446 H   0  0  0  0  0  0  0  0  0  0  0  0
   -5.6940   -4.0793    0.0121 H   0  0  0  0  0  0  0  0  0  0  0  0
   -4.2361   -5.0279    0.3538 H   0  0  0  0  0  0  0  0  0  0  0  0
   -2.8910   -3.3439   -0.3514 H   0  0  0  0  0  0  0  0  0  0  0  0
   -4.4221   -2.4162   -0.8282 H   0  0  0  0  0  0  0  0  0  0  0  0
    0.9838    1.2551    1.0314 H   0  0  0  0  0  0  0  0  0  0  0  0
    4.6274   -0.6229    1.8529 H   0  0  0  0  0  0  0  0  0  0  0  0
    4.4153   -0.0512   -2.1199 H   0  0  0  0  0  0  0  0  0  0  0  0
    2.3834    1.1649   -1.0794 H   0  0  0  0  0  0  0  0  0  0  0  0
    6.4229   -0.2638   -2.1469 H   0  0  0  0  0  0  0  0  0  0  0  0
    7.5894   -1.3640   -1.4240 H   0  0  0  0  0  0  0  0  0  0  0  0
    7.7642    1.5663   -1.9264 H   0  0  0  0  0  0  0  0  0  0  0  0
    8.9990    0.2986   -1.9568 H   0  0  0  0  0  0  0  0  0  0  0  0
    9.2881    1.8397   -0.1695 H   0  0  0  0  0  0  0  0  0  0  0  0
    6.9619    2.3643   -0.0829 H   0  0  0  0  0  0  0  0  0  0  0  0
    7.7031    2.1979    1.5359 H   0  0  0  0  0  0  0  0  0  0  0  0
    5.4807    1.0665    1.0954 H   0  0  0  0  0  0  0  0  0  0  0  0
    6.7512    0.1237    1.9034 H   0  0  0  0  0  0  0  0  0  0  0  0
   -6.3204    3.2489   -1.9871 H   0  0  0  0  0  0  0  0  0  0  0  0
   -6.4460    1.8392   -0.4388 H   0  0  0  0  0  0  0  0  0  0  0  0
   -4.6915    0.6950   -1.6177 H   0  0  0  0  0  0  0  0  0  0  0  0
   -2.5912    2.0459    0.1770 H   0  0  0  0  0  0  0  0  0  0  0  0
   -2.6966   -0.0736   -2.0054 H   0  0  0  0  0  0  0  0  0  0  0  0
   -0.6880    0.9067   -2.5440 H   0  0  0  0  0  0  0  0  0  0  0  0
   -0.0569   -1.1466   -1.6241 H   0  0  0  0  0  0  0  0  0  0  0  0
    0.2435   -1.6098    0.5395 H   0  0  0  0  0  0  0  0  0  0  0  0
   -1.2205    0.8041    1.2673 H   0  0  0  0  0  0  0  0  0  0  0  0
   -1.9844   -1.5172   -0.3773 H   0  0  0  0  0  0  0  0  0  0  0  0
   -5.4076   -0.5408    0.1177 H   0  0  0  0  0  0  0  0  0  0  0  0
   -4.6556    0.4141    2.4011 H   0  0  0  0  0  0  0  0  0  0  0  0
    3.1315    0.6278    1.2751 H   0  0  0  0  0  0  0  0  0  0  0  0
    2.7176   -2.0226    0.1404 H   0  0  0  0  0  0  0  0  0  0  0  0
    4.7296   -2.3147    1.3456 H   0  0  0  0  0  0  0  0  0  0  0  0
    5.1215   -1.8656   -0.8729 H   0  0  0  0  0  0  0  0  0  0  0  0
    4.7226    1.1602   -0.8629 H   0  0  0  0  0  0  0  0  0  0  0  0
    2.3241   -0.5865   -1.3903 H   0  0  0  0  0  0  0  0  0  0  0  0
  1  2  1  0
  2  3  1  0
  2  4  1  0
  4  5  1  0
  5  6  1  0
  5  7  1  0
  7  8  1  0
  8  9  1  0
  9 10  1  0
 10 11  1  0
  7 12  1  0
 11 12  1  0
 12 13  1  0
 13 14  1  0
 14 15  1  0
 15 16  1  0
 16 17  1  0
 14 18  1  0
 17 18  1  0
  4 19  1  0
 13 19  1  0
 19 20  1  0
 10 21  1  0
 21 22  1  0
 22 23  1  0
 23 24  1  0
 24 25  1  0
 25 26  1  0
 22 27  1  0
 26 27  1  0
 25 28  1  0
 28 29  1  0
 29 30  1  0
 30 31  1  0
 31 32  1  0
 28 33  1  0
 32 33  1  0
  3 34  1  0
  3 35  1  0
  3 36  1  0
  6 37  1  0
  6 38  1  0
  6 39  1  0
  8 40  1  0
 14 41  1  0
 15 42  1  0
 15 43  1  0
 16 44  1  0
 16 45  1  0
 17 46  1  0
 17 47  1  0
 18 48  1  0
 18 49  1  0
 21 50  1  0
 24 51  1  0
 26 52  1  0
 27 53  1  0
 29 54  1  0
 29 55  1  0
 30 56  1  0
 30 57  1  0
 31 58  1  0
 32 59  1  0
 32 60  1  0
 33 61  1  0
 33 62  1  0
  1 63  1  0
  2 64  1  0
  4 65  1  0
  5 66  1  1
  7 67  1  6
  8 68  1  0
  9 69  1  0
 10 70  1  0
 11 71  1  0
 12 72  1  6
 19 73  1  0
 20 74  1  0
 22 75  1  0
 23 76  1  0
 24 77  1  0
 25 78  1  6
 26 79  1  0
 27 80  1  0
M  END
>  <PDBID>  (1) 
5L2I

>  <PDB ID>  (1) 
5L2I

>  <Generic Name>  (1) 
Palbociclib

>  <Brand Name>  (1) 
Ibrance

>  <DrugBank ID>  (1) 
DB09073

>  <ATC Codes>  (1) 
L01XE33

>  <Ligand ID>  (1) 
LQQ

>  <Target Name>  (1) 
Cyclin-dependent kinase 6

>  <UniProt ID>  (1) 
Q00534

>  <PDB ID.1>  (1) 
5L2I

>  <Seq. Identity>  (1) 
100%

$$$$
