PDB_DB00705_09
     RDKit          3D

 78 81  0  0  0  0  0  0  0  0999 V2000
   -3.7479    0.8939   -0.5351 C   0  0  0  0  0  0  0  0  0  0  0  0
   -5.1249    0.5442    0.0387 C   0  0  0  0  0  0  0  0  0  0  0  0
   -5.4977    1.5991    1.0351 C   0  0  0  0  0  0  0  0  0  0  0  0
   -5.6780    2.9100    0.3354 C   0  0  0  0  0  0  0  0  0  0  0  0
   -4.6977    3.0806   -0.8096 C   0  0  0  0  0  0  0  0  0  0  0  0
   -2.8094   -1.3169   -0.2169 C   0  0  0  0  0  0  0  0  0  0  0  0
   -1.3422   -1.7423   -0.3703 C   0  0  0  0  0  0  0  0  0  0  0  0
   -0.7544   -0.1018    1.3129 C   0  0  0  0  0  0  0  0  0  0  0  0
   -2.1662    0.4396    1.2697 C   0  0  0  0  0  0  0  0  0  0  0  0
    0.5925   -2.0450    0.9148 C   0  0  0  0  0  0  0  0  0  0  0  0
    1.5712   -1.5490   -0.0955 C   0  0  0  0  0  0  0  0  0  0  0  0
    2.8558   -2.3723    0.0958 C   0  0  0  0  0  0  0  0  0  0  0  0
    5.2344   -1.5587    0.4542 C   0  0  0  0  0  0  0  0  0  0  0  0
    6.1365   -0.5105   -0.2226 C   0  0  0  0  0  0  0  0  0  0  0  0
    5.3945    0.7242   -0.5838 C   0  0  0  0  0  0  0  0  0  0  0  0
    4.1437    1.0242    0.1578 C   0  0  0  0  0  0  0  0  0  0  0  0
    3.3114   -0.1311    0.5555 C   0  0  0  0  0  0  0  0  0  0  0  0
    3.8981   -1.3537   -0.1708 C   0  0  0  0  0  0  0  0  0  0  0  0
   -7.1545   -0.4334   -0.8767 C   0  0  0  0  0  0  0  0  0  0  0  0
   -6.8408   -1.8819   -0.5760 C   0  0  0  0  0  0  0  0  0  0  0  0
   -8.1891    0.0759    0.0753 C   0  0  0  0  0  0  0  0  0  0  0  0
    9.1029    1.8351    0.6443 C   0  0  0  0  0  0  0  0  0  0  0  0
   -6.0285    0.4064   -1.0439 N   0  0  0  0  0  0  0  0  0  0  0  0
   -3.5112    2.2900   -0.6143 N   0  0  0  0  0  0  0  0  0  0  0  0
   -2.7457    0.1006    0.0325 N   0  0  0  0  0  0  0  0  0  0  0  0
   -0.7052   -1.4552    0.8796 N   0  0  0  0  0  0  0  0  0  0  0  0
    1.9707   -0.1678    0.0895 N   0  0  0  0  0  0  0  0  0  0  0  0
    7.3561   -0.3239    0.5000 N   0  0  0  0  0  0  0  0  0  0  0  0
    1.1947   -1.9350    2.1828 O   0  0  0  0  0  0  0  0  0  0  0  0
    9.7412   -0.4192   -0.7760 O   0  0  0  0  0  0  0  0  0  0  0  0
    7.9276    1.2113   -1.6870 O   0  0  0  0  0  0  0  0  0  0  0  0
    8.3070    0.7940   -0.5379 S   0  0  0  0  0  0  0  0  0  0  0  0
   -3.8149    0.5588   -1.6268 H   0  0  0  0  0  0  0  0  0  0  0  0
   -4.9744   -0.3989    0.6193 H   0  0  0  0  0  0  0  0  0  0  0  0
   -6.4086    1.3482    1.5903 H   0  0  0  0  0  0  0  0  0  0  0  0
   -4.6943    1.6454    1.8111 H   0  0  0  0  0  0  0  0  0  0  0  0
   -6.7090    3.0468   -0.0334 H   0  0  0  0  0  0  0  0  0  0  0  0
   -5.4961    3.7294    1.0874 H   0  0  0  0  0  0  0  0  0  0  0  0
   -5.2234    2.8175   -1.7505 H   0  0  0  0  0  0  0  0  0  0  0  0
   -4.4211    4.1420   -0.8698 H   0  0  0  0  0  0  0  0  0  0  0  0
   -3.4192   -1.6025   -1.0742 H   0  0  0  0  0  0  0  0  0  0  0  0
   -3.1948   -1.8179    0.6791 H   0  0  0  0  0  0  0  0  0  0  0  0
   -1.3501   -2.8325   -0.5383 H   0  0  0  0  0  0  0  0  0  0  0  0
   -0.8819   -1.2479   -1.2342 H   0  0  0  0  0  0  0  0  0  0  0  0
   -0.1453    0.6180    0.7285 H   0  0  0  0  0  0  0  0  0  0  0  0
   -0.4422   -0.0855    2.3924 H   0  0  0  0  0  0  0  0  0  0  0  0
   -2.1101    1.4931    1.5180 H   0  0  0  0  0  0  0  0  0  0  0  0
   -2.7202   -0.0758    2.1030 H   0  0  0  0  0  0  0  0  0  0  0  0
    0.5137   -3.1608    0.7412 H   0  0  0  0  0  0  0  0  0  0  0  0
    1.2476   -1.7504   -1.1404 H   0  0  0  0  0  0  0  0  0  0  0  0
    2.8985   -3.1969   -0.6708 H   0  0  0  0  0  0  0  0  0  0  0  0
    2.8907   -2.7767    1.1056 H   0  0  0  0  0  0  0  0  0  0  0  0
    5.1543   -1.3465    1.5437 H   0  0  0  0  0  0  0  0  0  0  0  0
    5.6405   -2.5689    0.3626 H   0  0  0  0  0  0  0  0  0  0  0  0
    6.4283   -1.0235   -1.1876 H   0  0  0  0  0  0  0  0  0  0  0  0
    5.2438    0.7983   -1.7046 H   0  0  0  0  0  0  0  0  0  0  0  0
    6.0939    1.5913   -0.3732 H   0  0  0  0  0  0  0  0  0  0  0  0
    4.4304    1.5635    1.1154 H   0  0  0  0  0  0  0  0  0  0  0  0
    3.5348    1.7174   -0.4785 H   0  0  0  0  0  0  0  0  0  0  0  0
    3.4005   -0.3823    1.6386 H   0  0  0  0  0  0  0  0  0  0  0  0
    4.0020   -1.1361   -1.2546 H   0  0  0  0  0  0  0  0  0  0  0  0
   -7.6954   -0.4820   -1.8886 H   0  0  0  0  0  0  0  0  0  0  0  0
   -7.8407   -2.3960   -0.4546 H   0  0  0  0  0  0  0  0  0  0  0  0
   -6.3366   -2.3953   -1.4097 H   0  0  0  0  0  0  0  0  0  0  0  0
   -6.3425   -2.0041    0.4040 H   0  0  0  0  0  0  0  0  0  0  0  0
   -8.0547   -0.2921    1.1044 H   0  0  0  0  0  0  0  0  0  0  0  0
   -9.1989   -0.3171   -0.2491 H   0  0  0  0  0  0  0  0  0  0  0  0
   -8.1947    1.1845    0.0421 H   0  0  0  0  0  0  0  0  0  0  0  0
    8.7771    2.8807    0.4008 H   0  0  0  0  0  0  0  0  0  0  0  0
    8.8164    1.5952    1.6721 H   0  0  0  0  0  0  0  0  0  0  0  0
   10.2061    1.8371    0.4888 H   0  0  0  0  0  0  0  0  0  0  0  0
   -5.5714    0.2872   -1.9771 H   0  0  0  0  0  0  0  0  0  0  0  0
   -2.8072    2.6972   -0.0139 H   0  0  0  0  0  0  0  0  0  0  0  0
    1.8952    0.3280   -0.8211 H   0  0  0  0  0  0  0  0  0  0  0  0
    7.2368    0.1709    1.3964 H   0  0  0  0  0  0  0  0  0  0  0  0
    0.5738   -2.3444    2.8417 H   0  0  0  0  0  0  0  0  0  0  0  0
    9.9076   -0.6249    0.1664 H   0  0  0  0  0  0  0  0  0  0  0  0
    7.4107    1.5772   -2.4320 H   0  0  0  0  0  0  0  0  0  0  0  0
  1  2  1  0
  2  3  1  0
  3  4  1  0
  4  5  1  0
  6  7  1  0
  8  9  1  0
 10 11  1  0
 11 12  1  0
 13 14  1  0
 14 15  1  0
 15 16  1  0
 16 17  1  0
 12 18  1  0
 13 18  1  0
 17 18  1  0
 19 20  1  0
 19 21  1  0
  2 23  1  0
 19 23  1  0
  1 24  1  0
  5 24  1  0
  1 25  1  0
  6 25  1  0
  9 25  1  0
  7 26  1  0
  8 26  1  0
 10 26  1  0
 11 27  1  0
 17 27  1  0
 14 28  1  0
 10 29  1  0
 22 32  1  0
 28 32  1  0
 32 30  1  0
 31 32  1  0
  1 33  1  0
  2 34  1  0
  3 35  1  0
  3 36  1  0
  4 37  1  0
  4 38  1  0
  5 39  1  0
  5 40  1  0
  6 41  1  0
  6 42  1  0
  7 43  1  0
  7 44  1  0
  8 45  1  0
  8 46  1  0
  9 47  1  0
  9 48  1  0
 10 49  1  0
 11 50  1  0
 12 51  1  0
 12 52  1  0
 13 53  1  0
 13 54  1  0
 14 55  1  0
 15 56  1  0
 15 57  1  0
 16 58  1  0
 16 59  1  0
 17 60  1  0
 18 61  1  0
 19 62  1  0
 20 63  1  0
 20 64  1  0
 20 65  1  0
 21 66  1  0
 21 67  1  0
 21 68  1  0
 22 69  1  0
 22 70  1  0
 22 71  1  0
 23 72  1  0
 24 73  1  0
 27 74  1  0
 28 75  1  0
 29 76  1  0
 30 77  1  0
 31 78  1  0
M  END
>  <PDBID>  (1) 
1KLM

>  <PDB ID>  (1) 
1KLM

>  <Generic Name>  (1) 
Delavirdine

>  <Brand Name>  (1) 
Rescriptor

>  <DrugBank ID>  (1) 
DB00705

>  <ATC Codes>  (1) 
J05AG02

>  <Ligand ID>  (1) 
SPP

>  <Target Name>  (1) 
Reverse transcriptase/RNaseH

>  <UniProt ID>  (1) 
Q72547

>  <PDB ID.1>  (1) 
1KLM

>  <Seq. Identity>  (1) 
95%

$$$$
