PDB_DB01764_09
     RDKit          3D

354360  0  0  0  0  0  0  0  0999 V2000
    1.5586    3.4308    0.3855 O   0  0  0  0  0  0  0  0  0  0  0  0
    0.6664    2.3575    0.3001 C   0  0  0  0  0  0  0  0  0  0  0  0
    0.9100    1.4766    1.4015 N   0  0  0  0  0  0  0  0  0  0  0  0
    1.6621    2.1440    2.4478 C   0  0  0  0  0  0  0  0  0  0  0  0
    3.1122    2.0444    2.0077 C   0  0  0  0  0  0  0  0  0  0  0  0
    3.1202    0.9014    0.9719 C   0  0  1  0  0  0  0  0  0  0  0  0
    4.4094   -0.2225    1.3846 S   0  0  0  0  0  0  0  0  0  0  0  0
    4.4266   -1.2607   -0.0679 O   0  0  0  0  0  0  0  0  0  0  0  0
    4.1706   -1.0914    2.5430 O   0  0  0  0  0  0  0  0  0  0  0  0
    5.8832    0.6620    1.2867 C   0  0  0  0  0  0  0  0  0  0  0  0
    6.2223    1.2110   -0.0550 C   0  0  0  0  0  0  0  0  0  0  0  0
    6.4609    0.2732   -1.0926 N   0  0  0  0  0  0  0  0  0  0  0  0
    7.6711   -0.4699   -1.0381 C   0  0  0  0  0  0  0  0  0  0  0  0
    7.8506   -1.4601    0.0478 C   0  0  0  0  0  0  0  0  0  0  0  0
    6.2685    0.8482   -2.3885 C   0  0  0  0  0  0  0  0  0  0  0  0
    7.2863    1.8938   -2.7651 C   0  0  0  0  0  0  0  0  0  0  0  0
    1.7619    0.3396    1.1145 C   0  0  2  0  0  0  0  0  0  0  0  0
   -0.7396    2.7618    0.1371 C   0  0  2  0  0  0  0  0  0  0  0  0
   -1.2349    2.8509   -1.2929 C   0  0  0  0  0  0  0  0  0  0  0  0
   -2.1671    3.9191   -1.2988 O   0  0  0  0  0  0  0  0  0  0  0  0
   -1.0646    4.1309    0.5809 N   0  0  0  0  0  0  0  0  0  0  0  0
   -2.4401    4.0965    0.0368 C   0  0  0  0  0  0  0  0  0  0  0  0
   -3.2956    5.2177    0.4237 C   0  0  0  0  0  0  0  0  0  0  0  0
   -4.7110    4.6679    0.6627 C   0  0  1  0  0  0  0  0  0  0  0  0
   -5.5314    5.6431    1.1847 O   0  0  0  0  0  0  0  0  0  0  0  0
   -5.2606    3.9911   -0.5536 C   0  0  0  0  0  0  0  0  0  0  0  0
   -5.3595    2.5066   -0.4725 C   0  0  2  0  0  0  0  0  0  0  0  0
   -4.5518    1.9483   -1.4884 O   0  0  0  0  0  0  0  0  0  0  0  0
   -6.7667    1.9858   -0.7649 C   0  0  0  0  0  0  0  0  0  0  0  0
   -6.8441    0.5290   -0.3224 C   0  0  2  0  0  0  0  0  0  0  0  0
   -6.9406    0.5223    1.1760 C   0  0  0  0  0  0  0  0  0  0  0  0
   -5.6984   -0.2797   -0.8472 C   0  0  0  0  0  0  0  0  0  0  0  0
   -5.9580   -1.7507   -0.6619 C   0  0  0  0  0  0  0  0  0  0  0  0
   -5.0249   -2.6332   -1.4181 C   0  0  0  0  0  0  0  0  0  0  0  0
   -3.9299   -3.1037   -0.6004 N   0  0  0  0  0  0  0  0  0  0  0  0
   -3.0215   -3.9554   -1.3229 C   0  0  2  0  0  0  0  0  0  0  0  0
   -2.8005   -5.1673   -0.6996 O   0  0  0  0  0  0  0  0  0  0  0  0
   -1.7362   -3.3179   -1.7108 C   0  0  0  0  0  0  0  0  0  0  0  0
   -0.5274   -3.8300   -0.9144 C   0  0  0  0  0  0  0  0  0  0  0  0
   -0.3930   -3.1719    0.4115 C   0  0  1  0  0  0  0  0  0  0  0  0
   -1.1008   -3.9209    1.5339 C   0  0  0  0  0  0  0  0  0  0  0  0
    0.9661   -2.6877    0.7980 C   0  0  1  0  0  0  0  0  0  0  0  0
    1.9958   -3.7499    1.0098 C   0  0  0  0  0  0  0  0  0  0  0  0
    1.7519   -4.7644    2.0512 C   0  0  0  0  0  0  0  0  0  0  0  0
    2.4071   -4.4659   -0.2707 C   0  0  0  0  0  0  0  0  0  0  0  0
    1.5159   -1.7939   -0.0614 O   0  0  0  0  0  0  0  0  0  0  0  0
    1.2441   -0.4888   -0.0176 C   0  0  0  0  0  0  0  0  0  0  0  0
   -0.1178   -0.1758   -0.1472 O   0  0  0  0  0  0  0  0  0  0  0  0
    1.5586    3.4308    0.3855 O   0  0  0  0  0  0  0  0  0  0  0  0
    0.6664    2.3575    0.3001 C   0  0  0  0  0  0  0  0  0  0  0  0
    0.9100    1.4766    1.4015 N   0  0  0  0  0  0  0  0  0  0  0  0
    1.6621    2.1440    2.4478 C   0  0  0  0  0  0  0  0  0  0  0  0
    3.1122    2.0444    2.0077 C   0  0  0  0  0  0  0  0  0  0  0  0
    3.1202    0.9014    0.9719 C   0  0  1  0  0  0  0  0  0  0  0  0
    4.4094   -0.2225    1.3846 S   0  0  0  0  0  0  0  0  0  0  0  0
    4.4266   -1.2607   -0.0679 O   0  0  0  0  0  0  0  0  0  0  0  0
    4.1706   -1.0914    2.5430 O   0  0  0  0  0  0  0  0  0  0  0  0
    5.8832    0.6620    1.2867 C   0  0  0  0  0  0  0  0  0  0  0  0
    6.2223    1.2110   -0.0550 C   0  0  0  0  0  0  0  0  0  0  0  0
    6.4609    0.2732   -1.0926 N   0  0  0  0  0  0  0  0  0  0  0  0
    7.6711   -0.4699   -1.0381 C   0  0  0  0  0  0  0  0  0  0  0  0
    7.8506   -1.4601    0.0478 C   0  0  0  0  0  0  0  0  0  0  0  0
    6.2685    0.8482   -2.3885 C   0  0  0  0  0  0  0  0  0  0  0  0
    7.2863    1.8938   -2.7651 C   0  0  0  0  0  0  0  0  0  0  0  0
    1.7619    0.3396    1.1145 C   0  0  2  0  0  0  0  0  0  0  0  0
   -0.7396    2.7618    0.1371 C   0  0  2  0  0  0  0  0  0  0  0  0
   -1.2349    2.8509   -1.2929 C   0  0  0  0  0  0  0  0  0  0  0  0
   -2.1671    3.9191   -1.2988 O   0  0  0  0  0  0  0  0  0  0  0  0
   -1.0646    4.1309    0.5809 N   0  0  0  0  0  0  0  0  0  0  0  0
   -2.4401    4.0965    0.0368 C   0  0  0  0  0  0  0  0  0  0  0  0
   -3.2956    5.2177    0.4237 C   0  0  0  0  0  0  0  0  0  0  0  0
   -4.7110    4.6679    0.6627 C   0  0  1  0  0  0  0  0  0  0  0  0
   -5.5314    5.6431    1.1847 O   0  0  0  0  0  0  0  0  0  0  0  0
   -5.2606    3.9911   -0.5536 C   0  0  0  0  0  0  0  0  0  0  0  0
   -5.3595    2.5066   -0.4725 C   0  0  2  0  0  0  0  0  0  0  0  0
   -4.5518    1.9483   -1.4884 O   0  0  0  0  0  0  0  0  0  0  0  0
   -6.7667    1.9858   -0.7649 C   0  0  0  0  0  0  0  0  0  0  0  0
   -6.8441    0.5290   -0.3224 C   0  0  2  0  0  0  0  0  0  0  0  0
   -6.9406    0.5223    1.1760 C   0  0  0  0  0  0  0  0  0  0  0  0
   -5.6984   -0.2797   -0.8472 C   0  0  0  0  0  0  0  0  0  0  0  0
   -5.9580   -1.7507   -0.6619 C   0  0  0  0  0  0  0  0  0  0  0  0
   -5.0249   -2.6332   -1.4181 C   0  0  0  0  0  0  0  0  0  0  0  0
   -3.9299   -3.1037   -0.6004 N   0  0  0  0  0  0  0  0  0  0  0  0
   -3.0215   -3.9554   -1.3229 C   0  0  2  0  0  0  0  0  0  0  0  0
   -2.8005   -5.1673   -0.6996 O   0  0  0  0  0  0  0  0  0  0  0  0
   -1.7362   -3.3179   -1.7108 C   0  0  0  0  0  0  0  0  0  0  0  0
   -0.5274   -3.8300   -0.9144 C   0  0  0  0  0  0  0  0  0  0  0  0
   -0.3930   -3.1719    0.4115 C   0  0  1  0  0  0  0  0  0  0  0  0
   -1.1008   -3.9209    1.5339 C   0  0  0  0  0  0  0  0  0  0  0  0
    0.9661   -2.6877    0.7980 C   0  0  1  0  0  0  0  0  0  0  0  0
    1.9958   -3.7499    1.0098 C   0  0  0  0  0  0  0  0  0  0  0  0
    1.7519   -4.7644    2.0512 C   0  0  0  0  0  0  0  0  0  0  0  0
    2.4071   -4.4659   -0.2707 C   0  0  0  0  0  0  0  0  0  0  0  0
    1.5159   -1.7939   -0.0614 O   0  0  0  0  0  0  0  0  0  0  0  0
    1.2441   -0.4888   -0.0176 C   0  0  0  0  0  0  0  0  0  0  0  0
   -0.1178   -0.1758   -0.1472 O   0  0  0  0  0  0  0  0  0  0  0  0
    1.5276    3.3543    0.9123 O   0  0  0  0  0  0  0  0  0  0  0  0
    0.7310    2.2540    0.5873 C   0  0  1  0  0  0  0  0  0  0  0  0
    0.8725    1.2760    1.6408 N   0  0  0  0  0  0  0  0  0  0  0  0
    1.5878    1.8387    2.7865 C   0  0  0  0  0  0  0  0  0  0  0  0
    3.0459    1.7820    2.3906 C   0  0  0  0  0  0  0  0  0  0  0  0
    3.0983    0.7589    1.2524 C   0  0  1  0  0  0  0  0  0  0  0  0
    4.4058   -0.3205    1.5676 S   0  0  0  0  0  0  0  0  0  0  0  0
    4.4108   -1.2971   -0.0206 O   0  0  0  0  0  0  0  0  0  0  0  0
    4.1787   -1.3318    2.5948 O   0  0  0  0  0  0  0  0  0  0  0  0
    5.8721    0.5049    1.4544 C   0  0  0  0  0  0  0  0  0  0  0  0
    6.1949    1.1401    0.1226 C   0  0  0  0  0  0  0  0  0  0  0  0
    6.2793    0.2292   -0.9656 N   0  0  0  0  0  0  0  0  0  0  0  0
    7.3769   -0.6767   -0.9125 C   0  0  0  0  0  0  0  0  0  0  0  0
    8.7342   -0.0864   -1.0761 C   0  0  0  0  0  0  0  0  0  0  0  0
    6.0134    0.8041   -2.2500 C   0  0  0  0  0  0  0  0  0  0  0  0
    7.0197    1.7790   -2.7486 C   0  0  0  0  0  0  0  0  0  0  0  0
    1.7468    0.1607    1.3048 C   0  0  2  0  0  0  0  0  0  0  0  0
   -0.6495    2.6901    0.3411 C   0  0  2  0  0  0  0  0  0  0  0  0
   -1.0353    2.8446   -1.1234 C   0  0  0  0  0  0  0  0  0  0  0  0
   -2.1527    3.6744   -1.0342 O   0  0  0  0  0  0  0  0  0  0  0  0
   -0.9815    4.0602    0.7827 N   0  0  0  0  0  0  0  0  0  0  0  0
   -2.3721    3.9727    0.2930 C   0  0  1  0  0  0  0  0  0  0  0  0
   -3.1843    5.1827    0.4351 C   0  0  0  0  0  0  0  0  0  0  0  0
   -4.6481    4.7090    0.4984 C   0  0  1  0  0  0  0  0  0  0  0  0
   -5.4770    5.7242    0.9502 O   0  0  0  0  0  0  0  0  0  0  0  0
   -5.1054    4.0932   -0.7777 C   0  0  0  0  0  0  0  0  0  0  0  0
   -5.2442    2.6174   -0.7961 C   0  0  2  0  0  0  0  0  0  0  0  0
   -4.7765    2.1253   -2.0381 O   0  0  0  0  0  0  0  0  0  0  0  0
   -6.6973    2.1319   -0.7130 C   0  0  0  0  0  0  0  0  0  0  0  0
   -6.7275    0.6634   -0.3979 C   0  0  2  0  0  0  0  0  0  0  0  0
   -6.7257    0.4507    1.0912 C   0  0  0  0  0  0  0  0  0  0  0  0
   -5.6656   -0.1345   -1.0994 C   0  0  0  0  0  0  0  0  0  0  0  0
   -5.8596   -1.5905   -0.7210 C   0  0  0  0  0  0  0  0  0  0  0  0
   -5.0316   -2.5267   -1.5713 C   0  0  0  0  0  0  0  0  0  0  0  0
   -3.9646   -3.0393   -0.7701 N   0  0  0  0  0  0  0  0  0  0  0  0
   -3.0856   -3.9537   -1.4533 C   0  0  2  0  0  0  0  0  0  0  0  0
   -2.9290   -5.1687   -0.7830 O   0  0  0  0  0  0  0  0  0  0  0  0
   -1.7690   -3.3803   -1.8308 C   0  0  0  0  0  0  0  0  0  0  0  0
   -0.6009   -3.9086   -0.9786 C   0  0  0  0  0  0  0  0  0  0  0  0
   -0.4909   -3.2191    0.3340 C   0  0  1  0  0  0  0  0  0  0  0  0
   -1.2534   -3.9195    1.4508 C   0  0  0  0  0  0  0  0  0  0  0  0
    0.8653   -2.7744    0.7583 C   0  0  1  0  0  0  0  0  0  0  0  0
    1.8577   -3.8462    1.0444 C   0  0  0  0  0  0  0  0  0  0  0  0
    1.5615   -4.8211    2.1110 C   0  0  0  0  0  0  0  0  0  0  0  0
    2.2663   -4.6449   -0.1960 C   0  0  0  0  0  0  0  0  0  0  0  0
    1.4696   -1.8658   -0.0465 O   0  0  0  0  0  0  0  0  0  0  0  0
    1.2739   -0.5556    0.0811 C   0  0  0  0  0  0  0  0  0  0  0  0
   -0.0676   -0.2170   -0.0767 O   0  0  0  0  0  0  0  0  0  0  0  0
    1.2045    4.2191    0.8195 H   0  0  0  0  0  0  0  0  0  0  0  0
    0.9756    1.8178   -0.6376 H   0  0  0  0  0  0  0  0  0  0  0  0
    1.4711    1.5513    3.3887 H   0  0  0  0  0  0  0  0  0  0  0  0
    1.3282    3.1894    2.5775 H   0  0  0  0  0  0  0  0  0  0  0  0
    3.5062    2.9783    1.5909 H   0  0  0  0  0  0  0  0  0  0  0  0
    3.7012    1.7621    2.8956 H   0  0  0  0  0  0  0  0  0  0  0  0
    3.3933    1.3745    0.0328 H   0  0  0  0  0  0  0  0  0  0  0  0
    4.0386   -0.7261   -0.7844 H   0  0  0  0  0  0  0  0  0  0  0  0
    4.6644   -1.9375    2.6706 H   0  0  0  0  0  0  0  0  0  0  0  0
    6.6758    0.0556    1.7691 H   0  0  0  0  0  0  0  0  0  0  0  0
    5.8001    1.5692    1.9657 H   0  0  0  0  0  0  0  0  0  0  0  0
    7.1091    1.8807    0.0350 H   0  0  0  0  0  0  0  0  0  0  0  0
    5.3827    1.8938   -0.3445 H   0  0  0  0  0  0  0  0  0  0  0  0
    8.5824    0.1834   -1.0345 H   0  0  0  0  0  0  0  0  0  0  0  0
    7.7352   -1.0352   -2.0226 H   0  0  0  0  0  0  0  0  0  0  0  0
    6.9444   -1.9058    0.4374 H   0  0  0  0  0  0  0  0  0  0  0  0
    8.5341   -1.0722    0.8448 H   0  0  0  0  0  0  0  0  0  0  0  0
    8.4470   -2.3328   -0.3758 H   0  0  0  0  0  0  0  0  0  0  0  0
    6.3561    0.0311   -3.1433 H   0  0  0  0  0  0  0  0  0  0  0  0
    5.2692    1.3594   -2.4795 H   0  0  0  0  0  0  0  0  0  0  0  0
    7.0678    2.1571   -3.8392 H   0  0  0  0  0  0  0  0  0  0  0  0
    7.1662    2.8498   -2.2103 H   0  0  0  0  0  0  0  0  0  0  0  0
    8.3286    1.5186   -2.7636 H   0  0  0  0  0  0  0  0  0  0  0  0
    1.7757   -0.2401    2.0902 H   0  0  0  0  0  0  0  0  0  0  0  0
   -1.4608    2.1509    0.7649 H   0  0  0  0  0  0  0  0  0  0  0  0
   -1.7155    1.9135   -1.6310 H   0  0  0  0  0  0  0  0  0  0  0  0
   -0.3875    3.1704   -1.9309 H   0  0  0  0  0  0  0  0  0  0  0  0
   -0.5579    4.8188   -0.0398 H   0  0  0  0  0  0  0  0  0  0  0  0
   -2.8632    3.1369    0.4616 H   0  0  0  0  0  0  0  0  0  0  0  0
   -3.0117    5.7226    1.3770 H   0  0  0  0  0  0  0  0  0  0  0  0
   -3.3569    5.9679   -0.3904 H   0  0  0  0  0  0  0  0  0  0  0  0
   -4.6086    3.8663    1.4525 H   0  0  0  0  0  0  0  0  0  0  0  0
   -5.4761    5.6527    2.1740 H   0  0  0  0  0  0  0  0  0  0  0  0
   -6.2931    4.3958   -0.7505 H   0  0  0  0  0  0  0  0  0  0  0  0
   -4.6442    4.3215   -1.4195 H   0  0  0  0  0  0  0  0  0  0  0  0
   -5.0937    2.0905    0.5265 H   0  0  0  0  0  0  0  0  0  0  0  0
   -4.9094    2.3017   -2.3341 H   0  0  0  0  0  0  0  0  0  0  0  0
   -7.0592    2.1181   -1.8119 H   0  0  0  0  0  0  0  0  0  0  0  0
   -7.4666    2.5571   -0.1457 H   0  0  0  0  0  0  0  0  0  0  0  0
   -7.7993    0.1275   -0.7444 H   0  0  0  0  0  0  0  0  0  0  0  0
   -7.1116    1.5445    1.5915 H   0  0  0  0  0  0  0  0  0  0  0  0
   -5.9583    0.1597    1.5879 H   0  0  0  0  0  0  0  0  0  0  0  0
   -7.7140   -0.1871    1.5382 H   0  0  0  0  0  0  0  0  0  0  0  0
   -4.7739   -0.0462   -0.2781 H   0  0  0  0  0  0  0  0  0  0  0  0
   -5.5994   -0.0916   -1.9343 H   0  0  0  0  0  0  0  0  0  0  0  0
   -6.0181   -1.9604    0.4212 H   0  0  0  0  0  0  0  0  0  0  0  0
   -7.0069   -1.9289   -1.0435 H   0  0  0  0  0  0  0  0  0  0  0  0
   -5.5878   -3.5623   -1.7340 H   0  0  0  0  0  0  0  0  0  0  0  0
   -4.6927   -2.1587   -2.3480 H   0  0  0  0  0  0  0  0  0  0  0  0
   -3.4886   -2.3476   -0.0765 H   0  0  0  0  0  0  0  0  0  0  0  0
   -3.5565   -4.2039   -2.2903 H   0  0  0  0  0  0  0  0  0  0  0  0
   -2.7391   -5.8902   -1.3757 H   0  0  0  0  0  0  0  0  0  0  0  0
   -1.8097   -2.2242   -1.4841 H   0  0  0  0  0  0  0  0  0  0  0  0
   -1.5254   -3.3764   -2.8157 H   0  0  0  0  0  0  0  0  0  0  0  0
    0.3430   -3.5830   -1.5908 H   0  0  0  0  0  0  0  0  0  0  0  0
   -0.6809   -4.9247   -0.8247 H   0  0  0  0  0  0  0  0  0  0  0  0
   -1.0302   -2.2404    0.3231 H   0  0  0  0  0  0  0  0  0  0  0  0
   -2.2128   -3.6952    1.5369 H   0  0  0  0  0  0  0  0  0  0  0  0
   -0.7614   -3.4981    2.5007 H   0  0  0  0  0  0  0  0  0  0  0  0
   -1.0524   -5.0024    1.4385 H   0  0  0  0  0  0  0  0  0  0  0  0
    0.8219   -2.2165    1.8179 H   0  0  0  0  0  0  0  0  0  0  0  0
    2.9372   -3.1967    1.3120 H   0  0  0  0  0  0  0  0  0  0  0  0
    2.7694   -5.2042    2.3024 H   0  0  0  0  0  0  0  0  0  0  0  0
    1.3696   -4.4250    3.0124 H   0  0  0  0  0  0  0  0  0  0  0  0
    1.2186   -5.6717    1.6409 H   0  0  0  0  0  0  0  0  0  0  0  0
    2.6687   -3.7641   -1.0861 H   0  0  0  0  0  0  0  0  0  0  0  0
    1.6921   -5.2622   -0.5603 H   0  0  0  0  0  0  0  0  0  0  0  0
    3.3703   -5.0328   -0.0922 H   0  0  0  0  0  0  0  0  0  0  0  0
    1.7169   -0.0416   -0.9499 H   0  0  0  0  0  0  0  0  0  0  0  0
   -0.4475   -0.0138    0.7956 H   0  0  0  0  0  0  0  0  0  0  0  0
    1.2045    4.2191    0.8195 H   0  0  0  0  0  0  0  0  0  0  0  0
    0.9756    1.8178   -0.6376 H   0  0  0  0  0  0  0  0  0  0  0  0
    1.4711    1.5513    3.3887 H   0  0  0  0  0  0  0  0  0  0  0  0
    1.3282    3.1894    2.5775 H   0  0  0  0  0  0  0  0  0  0  0  0
    3.5062    2.9783    1.5909 H   0  0  0  0  0  0  0  0  0  0  0  0
    3.7012    1.7621    2.8956 H   0  0  0  0  0  0  0  0  0  0  0  0
    3.3933    1.3745    0.0328 H   0  0  0  0  0  0  0  0  0  0  0  0
    4.0386   -0.7261   -0.7844 H   0  0  0  0  0  0  0  0  0  0  0  0
    4.6644   -1.9375    2.6706 H   0  0  0  0  0  0  0  0  0  0  0  0
    6.6758    0.0556    1.7691 H   0  0  0  0  0  0  0  0  0  0  0  0
    5.8001    1.5692    1.9657 H   0  0  0  0  0  0  0  0  0  0  0  0
    7.1091    1.8807    0.0350 H   0  0  0  0  0  0  0  0  0  0  0  0
    5.3827    1.8938   -0.3445 H   0  0  0  0  0  0  0  0  0  0  0  0
    8.5824    0.1834   -1.0345 H   0  0  0  0  0  0  0  0  0  0  0  0
    7.7352   -1.0352   -2.0226 H   0  0  0  0  0  0  0  0  0  0  0  0
    6.9444   -1.9058    0.4374 H   0  0  0  0  0  0  0  0  0  0  0  0
    8.5341   -1.0722    0.8448 H   0  0  0  0  0  0  0  0  0  0  0  0
    8.4470   -2.3328   -0.3758 H   0  0  0  0  0  0  0  0  0  0  0  0
    6.3561    0.0311   -3.1433 H   0  0  0  0  0  0  0  0  0  0  0  0
    5.2692    1.3594   -2.4795 H   0  0  0  0  0  0  0  0  0  0  0  0
    7.0678    2.1571   -3.8392 H   0  0  0  0  0  0  0  0  0  0  0  0
    7.1662    2.8498   -2.2103 H   0  0  0  0  0  0  0  0  0  0  0  0
    8.3286    1.5186   -2.7636 H   0  0  0  0  0  0  0  0  0  0  0  0
    1.7757   -0.2401    2.0902 H   0  0  0  0  0  0  0  0  0  0  0  0
   -1.4608    2.1509    0.7649 H   0  0  0  0  0  0  0  0  0  0  0  0
   -1.7155    1.9135   -1.6310 H   0  0  0  0  0  0  0  0  0  0  0  0
   -0.3875    3.1704   -1.9309 H   0  0  0  0  0  0  0  0  0  0  0  0
   -0.5579    4.8188   -0.0398 H   0  0  0  0  0  0  0  0  0  0  0  0
   -2.8632    3.1369    0.4616 H   0  0  0  0  0  0  0  0  0  0  0  0
   -3.0117    5.7226    1.3770 H   0  0  0  0  0  0  0  0  0  0  0  0
   -3.3569    5.9679   -0.3904 H   0  0  0  0  0  0  0  0  0  0  0  0
   -4.6086    3.8663    1.4525 H   0  0  0  0  0  0  0  0  0  0  0  0
   -5.4761    5.6527    2.1740 H   0  0  0  0  0  0  0  0  0  0  0  0
   -6.2931    4.3958   -0.7505 H   0  0  0  0  0  0  0  0  0  0  0  0
   -4.6442    4.3215   -1.4195 H   0  0  0  0  0  0  0  0  0  0  0  0
   -5.0937    2.0905    0.5265 H   0  0  0  0  0  0  0  0  0  0  0  0
   -4.9094    2.3017   -2.3341 H   0  0  0  0  0  0  0  0  0  0  0  0
   -7.0592    2.1181   -1.8119 H   0  0  0  0  0  0  0  0  0  0  0  0
   -7.4666    2.5571   -0.1457 H   0  0  0  0  0  0  0  0  0  0  0  0
   -7.7993    0.1275   -0.7444 H   0  0  0  0  0  0  0  0  0  0  0  0
   -7.1116    1.5445    1.5915 H   0  0  0  0  0  0  0  0  0  0  0  0
   -5.9583    0.1597    1.5879 H   0  0  0  0  0  0  0  0  0  0  0  0
   -7.7140   -0.1871    1.5382 H   0  0  0  0  0  0  0  0  0  0  0  0
   -4.7739   -0.0462   -0.2781 H   0  0  0  0  0  0  0  0  0  0  0  0
   -5.5994   -0.0916   -1.9343 H   0  0  0  0  0  0  0  0  0  0  0  0
   -6.0181   -1.9604    0.4212 H   0  0  0  0  0  0  0  0  0  0  0  0
   -7.0069   -1.9289   -1.0435 H   0  0  0  0  0  0  0  0  0  0  0  0
   -5.5878   -3.5623   -1.7340 H   0  0  0  0  0  0  0  0  0  0  0  0
   -4.6927   -2.1587   -2.3480 H   0  0  0  0  0  0  0  0  0  0  0  0
   -3.4886   -2.3476   -0.0765 H   0  0  0  0  0  0  0  0  0  0  0  0
   -3.5565   -4.2039   -2.2903 H   0  0  0  0  0  0  0  0  0  0  0  0
   -2.7391   -5.8902   -1.3757 H   0  0  0  0  0  0  0  0  0  0  0  0
   -1.8097   -2.2242   -1.4841 H   0  0  0  0  0  0  0  0  0  0  0  0
   -1.5254   -3.3764   -2.8157 H   0  0  0  0  0  0  0  0  0  0  0  0
    0.3430   -3.5830   -1.5908 H   0  0  0  0  0  0  0  0  0  0  0  0
   -0.6809   -4.9247   -0.8247 H   0  0  0  0  0  0  0  0  0  0  0  0
   -1.0302   -2.2404    0.3231 H   0  0  0  0  0  0  0  0  0  0  0  0
   -2.2128   -3.6952    1.5369 H   0  0  0  0  0  0  0  0  0  0  0  0
   -0.7614   -3.4981    2.5007 H   0  0  0  0  0  0  0  0  0  0  0  0
   -1.0524   -5.0024    1.4385 H   0  0  0  0  0  0  0  0  0  0  0  0
    0.8219   -2.2165    1.8179 H   0  0  0  0  0  0  0  0  0  0  0  0
    2.9372   -3.1967    1.3120 H   0  0  0  0  0  0  0  0  0  0  0  0
    2.7694   -5.2042    2.3024 H   0  0  0  0  0  0  0  0  0  0  0  0
    1.3696   -4.4250    3.0124 H   0  0  0  0  0  0  0  0  0  0  0  0
    1.2186   -5.6717    1.6409 H   0  0  0  0  0  0  0  0  0  0  0  0
    2.6687   -3.7641   -1.0861 H   0  0  0  0  0  0  0  0  0  0  0  0
    1.6921   -5.2622   -0.5603 H   0  0  0  0  0  0  0  0  0  0  0  0
    3.3703   -5.0328   -0.0922 H   0  0  0  0  0  0  0  0  0  0  0  0
    1.7169   -0.0416   -0.9499 H   0  0  0  0  0  0  0  0  0  0  0  0
   -0.4475   -0.0138    0.7956 H   0  0  0  0  0  0  0  0  0  0  0  0
    1.0280    4.0827    1.3361 H   0  0  0  0  0  0  0  0  0  0  0  0
    1.1353    1.8159   -0.3579 H   0  0  0  0  0  0  0  0  0  0  0  0
    1.3840    1.2211    3.6938 H   0  0  0  0  0  0  0  0  0  0  0  0
    1.2768    2.8613    3.0047 H   0  0  0  0  0  0  0  0  0  0  0  0
    3.4609    2.7490    2.1146 H   0  0  0  0  0  0  0  0  0  0  0  0
    3.5961    1.3709    3.2809 H   0  0  0  0  0  0  0  0  0  0  0  0
    3.3356    1.3471    0.3555 H   0  0  0  0  0  0  0  0  0  0  0  0
    4.0898   -0.6313   -0.6510 H   0  0  0  0  0  0  0  0  0  0  0  0
    4.6055   -2.2333    2.5697 H   0  0  0  0  0  0  0  0  0  0  0  0
    6.7032   -0.1705    1.7800 H   0  0  0  0  0  0  0  0  0  0  0  0
    5.8802    1.3408    2.1992 H   0  0  0  0  0  0  0  0  0  0  0  0
    7.0601    1.8342    0.1952 H   0  0  0  0  0  0  0  0  0  0  0  0
    5.3190    1.8219   -0.1013 H   0  0  0  0  0  0  0  0  0  0  0  0
    7.2778   -1.5213   -1.6191 H   0  0  0  0  0  0  0  0  0  0  0  0
    7.3366   -1.1577    0.1106 H   0  0  0  0  0  0  0  0  0  0  0  0
    9.4541   -0.7917   -0.5617 H   0  0  0  0  0  0  0  0  0  0  0  0
    8.8846    0.8789   -0.5509 H   0  0  0  0  0  0  0  0  0  0  0  0
    9.0976   -0.0063   -2.1025 H   0  0  0  0  0  0  0  0  0  0  0  0
    5.9998   -0.0552   -2.9809 H   0  0  0  0  0  0  0  0  0  0  0  0
    5.0093    1.2481   -2.2903 H   0  0  0  0  0  0  0  0  0  0  0  0
    6.4800    2.5869   -3.3105 H   0  0  0  0  0  0  0  0  0  0  0  0
    7.5606    2.3167   -1.9367 H   0  0  0  0  0  0  0  0  0  0  0  0
    7.7227    1.3502   -3.5146 H   0  0  0  0  0  0  0  0  0  0  0  0
    1.7149   -0.4990    2.2207 H   0  0  0  0  0  0  0  0  0  0  0  0
   -1.4266    2.0680    0.8809 H   0  0  0  0  0  0  0  0  0  0  0  0
   -1.2743    1.8833   -1.6062 H   0  0  0  0  0  0  0  0  0  0  0  0
   -0.2142    3.3908   -1.6196 H   0  0  0  0  0  0  0  0  0  0  0  0
   -0.5067    4.7713    0.1838 H   0  0  0  0  0  0  0  0  0  0  0  0
   -2.7982    3.1392    0.8876 H   0  0  0  0  0  0  0  0  0  0  0  0
   -3.0021    5.7867    1.3450 H   0  0  0  0  0  0  0  0  0  0  0  0
   -3.1191    5.8040   -0.4847 H   0  0  0  0  0  0  0  0  0  0  0  0
   -4.6689    3.9058    1.2876 H   0  0  0  0  0  0  0  0  0  0  0  0
   -5.4120    5.7555    1.9408 H   0  0  0  0  0  0  0  0  0  0  0  0
   -6.1165    4.5395   -1.0130 H   0  0  0  0  0  0  0  0  0  0  0  0
   -4.4652    4.4319   -1.6384 H   0  0  0  0  0  0  0  0  0  0  0  0
   -4.7178    2.0593   -0.0198 H   0  0  0  0  0  0  0  0  0  0  0  0
   -5.1081    2.6814   -2.7846 H   0  0  0  0  0  0  0  0  0  0  0  0
   -7.2051    2.3102   -1.6667 H   0  0  0  0  0  0  0  0  0  0  0  0
   -7.2187    2.6848    0.0995 H   0  0  0  0  0  0  0  0  0  0  0  0
   -7.7139    0.2802   -0.7781 H   0  0  0  0  0  0  0  0  0  0  0  0
   -7.0392    1.4069    1.5893 H   0  0  0  0  0  0  0  0  0  0  0  0
   -5.7361    0.1504    1.4572 H   0  0  0  0  0  0  0  0  0  0  0  0
   -7.5123   -0.2944    1.3983 H   0  0  0  0  0  0  0  0  0  0  0  0
   -4.6407    0.1463   -0.8087 H   0  0  0  0  0  0  0  0  0  0  0  0
   -5.8621   -0.0609   -2.1890 H   0  0  0  0  0  0  0  0  0  0  0  0
   -5.7430   -1.7614    0.3631 H   0  0  0  0  0  0  0  0  0  0  0  0
   -6.9404   -1.8162   -0.9433 H   0  0  0  0  0  0  0  0  0  0  0  0
   -5.6501   -3.4049   -1.9028 H   0  0  0  0  0  0  0  0  0  0  0  0
   -4.6177   -2.0436   -2.4617 H   0  0  0  0  0  0  0  0  0  0  0  0
   -3.4921   -2.2539   -0.3073 H   0  0  0  0  0  0  0  0  0  0  0  0
   -3.6174   -4.2222   -2.4139 H   0  0  0  0  0  0  0  0  0  0  0  0
   -2.8755   -5.9175   -1.4297 H   0  0  0  0  0  0  0  0  0  0  0  0
   -1.8180   -2.2764   -1.6711 H   0  0  0  0  0  0  0  0  0  0  0  0
   -1.5280   -3.5462   -2.9215 H   0  0  0  0  0  0  0  0  0  0  0  0
    0.2958   -3.6834   -1.5885 H   0  0  0  0  0  0  0  0  0  0  0  0
   -0.8151   -5.0037   -0.8929 H   0  0  0  0  0  0  0  0  0  0  0  0
   -1.0979   -2.2722    0.1951 H   0  0  0  0  0  0  0  0  0  0  0  0
   -2.3543   -3.6486    1.4332 H   0  0  0  0  0  0  0  0  0  0  0  0
   -0.9109   -3.4907    2.4169 H   0  0  0  0  0  0  0  0  0  0  0  0
   -1.2420   -5.0046    1.3800 H   0  0  0  0  0  0  0  0  0  0  0  0
    0.6872   -2.2481    1.7518 H   0  0  0  0  0  0  0  0  0  0  0  0
    2.8126   -3.3168    1.3314 H   0  0  0  0  0  0  0  0  0  0  0  0
    2.5607   -5.2711    2.4139 H   0  0  0  0  0  0  0  0  0  0  0  0
    1.1995   -4.3889    3.0690 H   0  0  0  0  0  0  0  0  0  0  0  0
    0.9900   -5.7227    1.7907 H   0  0  0  0  0  0  0  0  0  0  0  0
    2.5892   -4.0044   -1.0210 H   0  0  0  0  0  0  0  0  0  0  0  0
    1.5001   -5.4038   -0.4529 H   0  0  0  0  0  0  0  0  0  0  0  0
    3.1791   -5.2682    0.0532 H   0  0  0  0  0  0  0  0  0  0  0  0
    1.7816   -0.0562   -0.7990 H   0  0  0  0  0  0  0  0  0  0  0  0
   -0.4429   -0.1168    0.8575 H   0  0  0  0  0  0  0  0  0  0  0  0
  1  2  1  0
  2  3  1  0
  3  4  1  0
  4  5  1  0
  5  6  1  0
  6  7  1  0
  7  8  1  0
  7  9  1  0
  7 10  1  0
 10 11  1  0
 11 12  1  0
 12 13  1  0
 13 14  1  0
 12 15  1  0
 15 16  1  0
  3 17  1  0
  6 17  1  0
  2 18  1  0
 18 19  1  0
 19 20  1  0
 18 21  1  0
 20 22  1  0
 21 22  1  0
 22 23  1  0
 23 24  1  0
 24 25  1  0
 24 26  1  0
 26 27  1  0
 27 28  1  0
 27 29  1  0
 29 30  1  0
 30 31  1  0
 30 32  1  0
 32 33  1  0
 33 34  1  0
 34 35  1  0
 35 36  1  0
 36 37  1  0
 36 38  1  0
 38 39  1  0
 39 40  1  0
 40 41  1  0
 40 42  1  0
 42 43  1  0
 43 44  1  0
 43 45  1  0
 42 46  1  0
 17 47  1  0
 46 47  1  0
 47 48  1  0
 49 50  1  0
 50 51  1  0
 51 52  1  0
 52 53  1  0
 53 54  1  0
 54 55  1  0
 55 56  1  0
 55 57  1  0
 55 58  1  0
 58 59  1  0
 59 60  1  0
 60 61  1  0
 61 62  1  0
 60 63  1  0
 63 64  1  0
 51 65  1  0
 54 65  1  0
 50 66  1  0
 66 67  1  0
 67 68  1  0
 66 69  1  0
 68 70  1  0
 69 70  1  0
 70 71  1  0
 71 72  1  0
 72 73  1  0
 72 74  1  0
 74 75  1  0
 75 76  1  0
 75 77  1  0
 77 78  1  0
 78 79  1  0
 78 80  1  0
 80 81  1  0
 81 82  1  0
 82 83  1  0
 83 84  1  0
 84 85  1  0
 84 86  1  0
 86 87  1  0
 87 88  1  0
 88 89  1  0
 88 90  1  0
 90 91  1  0
 91 92  1  0
 91 93  1  0
 90 94  1  0
 65 95  1  0
 94 95  1  0
 95 96  1  0
 97 98  1  0
 98 99  1  0
 99100  1  0
100101  1  0
101102  1  0
102103  1  0
103104  1  0
103105  1  0
103106  1  0
106107  1  0
107108  1  0
108109  1  0
109110  1  0
108111  1  0
111112  1  0
 99113  1  0
102113  1  0
 98114  1  0
114115  1  0
115116  1  0
114117  1  0
116118  1  0
117118  1  0
118119  1  0
119120  1  0
120121  1  0
120122  1  0
122123  1  0
123124  1  0
123125  1  0
125126  1  0
126127  1  0
126128  1  0
128129  1  0
129130  1  0
130131  1  0
131132  1  0
132133  1  0
132134  1  0
134135  1  0
135136  1  0
136137  1  0
136138  1  0
138139  1  0
139140  1  0
139141  1  0
138142  1  0
113143  1  0
142143  1  0
143144  1  0
  1145  1  0
  2146  1  0
  4147  1  0
  4148  1  0
  5149  1  0
  5150  1  0
  6151  1  6
  8152  1  0
  9153  1  0
 10154  1  0
 10155  1  0
 11156  1  0
 11157  1  0
 13158  1  0
 13159  1  0
 14160  1  0
 14161  1  0
 14162  1  0
 15163  1  0
 15164  1  0
 16165  1  0
 16166  1  0
 16167  1  0
 17168  1  1
 18169  1  1
 19170  1  0
 19171  1  0
 21172  1  0
 22173  1  0
 23174  1  0
 23175  1  0
 24176  1  1
 25177  1  0
 26178  1  0
 26179  1  0
 27180  1  1
 28181  1  0
 29182  1  0
 29183  1  0
 30184  1  6
 31185  1  0
 31186  1  0
 31187  1  0
 32188  1  0
 32189  1  0
 33190  1  0
 33191  1  0
 34192  1  0
 34193  1  0
 35194  1  0
 36195  1  6
 37196  1  0
 38197  1  0
 38198  1  0
 39199  1  0
 39200  1  0
 40201  1  6
 41202  1  0
 41203  1  0
 41204  1  0
 42205  1  1
 43206  1  0
 44207  1  0
 44208  1  0
 44209  1  0
 45210  1  0
 45211  1  0
 45212  1  0
 47213  1  0
 48214  1  0
 49215  1  0
 50216  1  0
 52217  1  0
 52218  1  0
 53219  1  0
 53220  1  0
 54221  1  6
 56222  1  0
 57223  1  0
 58224  1  0
 58225  1  0
 59226  1  0
 59227  1  0
 61228  1  0
 61229  1  0
 62230  1  0
 62231  1  0
 62232  1  0
 63233  1  0
 63234  1  0
 64235  1  0
 64236  1  0
 64237  1  0
 65238  1  1
 66239  1  1
 67240  1  0
 67241  1  0
 69242  1  0
 70243  1  0
 71244  1  0
 71245  1  0
 72246  1  1
 73247  1  0
 74248  1  0
 74249  1  0
 75250  1  1
 76251  1  0
 77252  1  0
 77253  1  0
 78254  1  6
 79255  1  0
 79256  1  0
 79257  1  0
 80258  1  0
 80259  1  0
 81260  1  0
 81261  1  0
 82262  1  0
 82263  1  0
 83264  1  0
 84265  1  6
 85266  1  0
 86267  1  0
 86268  1  0
 87269  1  0
 87270  1  0
 88271  1  6
 89272  1  0
 89273  1  0
 89274  1  0
 90275  1  1
 91276  1  0
 92277  1  0
 92278  1  0
 92279  1  0
 93280  1  0
 93281  1  0
 93282  1  0
 95283  1  0
 96284  1  0
 97285  1  0
 98286  1  6
100287  1  0
100288  1  0
101289  1  0
101290  1  0
102291  1  6
104292  1  0
105293  1  0
106294  1  0
106295  1  0
107296  1  0
107297  1  0
109298  1  0
109299  1  0
110300  1  0
110301  1  0
110302  1  0
111303  1  0
111304  1  0
112305  1  0
112306  1  0
112307  1  0
113308  1  1
114309  1  1
115310  1  0
115311  1  0
117312  1  0
118313  1  1
119314  1  0
119315  1  0
120316  1  1
121317  1  0
122318  1  0
122319  1  0
123320  1  1
124321  1  0
125322  1  0
125323  1  0
126324  1  6
127325  1  0
127326  1  0
127327  1  0
128328  1  0
128329  1  0
129330  1  0
129331  1  0
130332  1  0
130333  1  0
131334  1  0
132335  1  6
133336  1  0
134337  1  0
134338  1  0
135339  1  0
135340  1  0
136341  1  6
137342  1  0
137343  1  0
137344  1  0
138345  1  1
139346  1  0
140347  1  0
140348  1  0
140349  1  0
141350  1  0
141351  1  0
141352  1  0
143353  1  0
144354  1  0
M  END
>  <PDBID>  (1) 
1MRL

>  <PDB ID>  (1) 
1MRL

>  <Generic Name>  (1) 
Dalfopristin

>  <Brand Name>  (1) 
Synercid

>  <DrugBank ID>  (1) 
DB01764

>  <ATC Codes>  (1) 
nan

>  <Ligand ID>  (1) 
DOL

>  <Target Name>  (1) 
Streptogramin A acetyltransferase

>  <UniProt ID>  (1) 
P50870

>  <PDB ID.1>  (1) 
1MRL

>  <Seq. Identity>  (1) 
100%

$$$$
