PDB_DB01041_03
     RDKit          3D

172180  0  0  0  0  0  0  0  0999 V2000
    2.5372   -1.6661    1.2490 O   0  0  0  0  0  0  0  0  0  0  0  0
    2.3521   -1.3042   -0.0582 C   0  0  0  0  0  0  0  0  0  0  0  0
    3.6227   -1.0881   -0.7179 N   0  0  0  0  0  0  0  0  0  0  0  0
    4.3776   -0.0107   -0.1505 C   0  0  0  0  0  0  0  0  0  0  0  0
    4.9406    0.7260   -1.2136 O   0  0  0  0  0  0  0  0  0  0  0  0
    3.5927    0.8761    0.7578 C   0  0  0  0  0  0  0  0  0  0  0  0
    2.2306    1.1712    0.1688 C   0  0  0  0  0  0  0  0  0  0  0  0
    1.5030   -0.0864   -0.2504 C   0  0  2  0  0  0  0  0  0  0  0  0
    0.2336   -0.1599    0.4273 N   0  0  0  0  0  0  0  0  0  0  0  0
   -4.1964    0.6593    0.3183 C   0  0  0  0  0  0  0  0  0  0  0  0
   -2.9624    1.5429    0.1840 C   0  0  0  0  0  0  0  0  0  0  0  0
   -1.8523    0.7032   -0.3230 C   0  0  0  0  0  0  0  0  0  0  0  0
   -1.9922   -0.6895    0.3169 C   0  0  0  0  0  0  0  0  0  0  0  0
   -0.6034    1.8199    1.3935 O   0  0  0  0  0  0  0  0  0  0  0  0
   -0.4532   -2.4095    0.6382 O   0  0  0  0  0  0  0  0  0  0  0  0
   -3.1026   -1.4595   -0.3110 C   0  0  0  0  0  0  0  0  0  0  0  0
   -4.1789   -0.4501   -0.7238 C   0  0  0  0  0  0  0  0  0  0  0  0
   -0.6067   -1.2302   -0.0480 C   0  0  2  0  0  0  0  0  0  0  0  0
   -0.4902    1.0821    0.2166 C   0  0  0  0  0  0  0  0  0  0  0  0
    2.5372   -1.6661    1.2490 O   0  0  0  0  0  0  0  0  0  0  0  0
    2.3521   -1.3042   -0.0582 C   0  0  0  0  0  0  0  0  0  0  0  0
    3.6227   -1.0881   -0.7179 N   0  0  0  0  0  0  0  0  0  0  0  0
    4.3776   -0.0107   -0.1505 C   0  0  0  0  0  0  0  0  0  0  0  0
    4.9406    0.7260   -1.2136 O   0  0  0  0  0  0  0  0  0  0  0  0
    3.5927    0.8761    0.7578 C   0  0  0  0  0  0  0  0  0  0  0  0
    2.2306    1.1712    0.1688 C   0  0  0  0  0  0  0  0  0  0  0  0
    1.5030   -0.0864   -0.2504 C   0  0  2  0  0  0  0  0  0  0  0  0
    0.2336   -0.1599    0.4273 N   0  0  0  0  0  0  0  0  0  0  0  0
   -4.1964    0.6593    0.3183 C   0  0  0  0  0  0  0  0  0  0  0  0
   -2.9624    1.5429    0.1840 C   0  0  0  0  0  0  0  0  0  0  0  0
   -1.8523    0.7032   -0.3230 C   0  0  0  0  0  0  0  0  0  0  0  0
   -1.9922   -0.6895    0.3169 C   0  0  0  0  0  0  0  0  0  0  0  0
   -0.6034    1.8199    1.3935 O   0  0  0  0  0  0  0  0  0  0  0  0
   -0.4532   -2.4095    0.6382 O   0  0  0  0  0  0  0  0  0  0  0  0
   -3.1026   -1.4595   -0.3110 C   0  0  0  0  0  0  0  0  0  0  0  0
   -4.1789   -0.4501   -0.7238 C   0  0  0  0  0  0  0  0  0  0  0  0
   -0.6067   -1.2302   -0.0480 C   0  0  2  0  0  0  0  0  0  0  0  0
   -0.4902    1.0821    0.2166 C   0  0  0  0  0  0  0  0  0  0  0  0
    2.6132   -1.5813    1.2299 O   0  0  0  0  0  0  0  0  0  0  0  0
    2.3689   -1.2974   -0.0995 C   0  0  0  0  0  0  0  0  0  0  0  0
    3.6368   -1.0645   -0.7441 N   0  0  0  0  0  0  0  0  0  0  0  0
    4.3798    0.0216   -0.1674 C   0  0  0  0  0  0  0  0  0  0  0  0
    4.9385    0.7611   -1.2102 O   0  0  0  0  0  0  0  0  0  0  0  0
    3.5714    0.9125    0.7129 C   0  0  0  0  0  0  0  0  0  0  0  0
    2.2034    1.1861    0.1300 C   0  0  0  0  0  0  0  0  0  0  0  0
    1.5153   -0.0802   -0.3070 C   0  0  2  0  0  0  0  0  0  0  0  0
    0.2382   -0.1506    0.3439 N   0  0  0  0  0  0  0  0  0  0  0  0
   -4.2127    0.6648    0.3397 C   0  0  0  0  0  0  0  0  0  0  0  0
   -2.9767    1.5162    0.2058 C   0  0  0  0  0  0  0  0  0  0  0  0
   -1.8746    0.6974   -0.3610 C   0  0  0  0  0  0  0  0  0  0  0  0
   -1.9611   -0.6921    0.2900 C   0  0  0  0  0  0  0  0  0  0  0  0
   -0.6308    1.7759    1.3785 O   0  0  0  0  0  0  0  0  0  0  0  0
   -0.4131   -2.4174    0.5143 O   0  0  0  0  0  0  0  0  0  0  0  0
   -3.1029   -1.4931   -0.1983 C   0  0  0  0  0  0  0  0  0  0  0  0
   -4.2115   -0.5223   -0.5851 C   0  0  0  0  0  0  0  0  0  0  0  0
   -0.6033   -1.2180   -0.1332 C   0  0  0  0  0  0  0  0  0  0  0  0
   -0.4968    1.0882    0.1704 C   0  0  0  0  0  0  0  0  0  0  0  0
    2.5372   -1.6661    1.2490 O   0  0  0  0  0  0  0  0  0  0  0  0
    2.3521   -1.3042   -0.0582 C   0  0  0  0  0  0  0  0  0  0  0  0
    3.6227   -1.0881   -0.7179 N   0  0  0  0  0  0  0  0  0  0  0  0
    4.3776   -0.0107   -0.1505 C   0  0  0  0  0  0  0  0  0  0  0  0
    4.9406    0.7260   -1.2136 O   0  0  0  0  0  0  0  0  0  0  0  0
    3.5927    0.8761    0.7578 C   0  0  0  0  0  0  0  0  0  0  0  0
    2.2306    1.1712    0.1688 C   0  0  0  0  0  0  0  0  0  0  0  0
    1.5030   -0.0864   -0.2504 C   0  0  2  0  0  0  0  0  0  0  0  0
    0.2336   -0.1599    0.4273 N   0  0  0  0  0  0  0  0  0  0  0  0
   -4.1964    0.6593    0.3183 C   0  0  0  0  0  0  0  0  0  0  0  0
   -2.9624    1.5429    0.1840 C   0  0  0  0  0  0  0  0  0  0  0  0
   -1.8523    0.7032   -0.3230 C   0  0  0  0  0  0  0  0  0  0  0  0
   -1.9922   -0.6895    0.3169 C   0  0  0  0  0  0  0  0  0  0  0  0
   -0.6034    1.8199    1.3935 O   0  0  0  0  0  0  0  0  0  0  0  0
   -0.4532   -2.4095    0.6382 O   0  0  0  0  0  0  0  0  0  0  0  0
   -3.1026   -1.4595   -0.3110 C   0  0  0  0  0  0  0  0  0  0  0  0
   -4.1789   -0.4501   -0.7238 C   0  0  0  0  0  0  0  0  0  0  0  0
   -0.6067   -1.2302   -0.0480 C   0  0  2  0  0  0  0  0  0  0  0  0
   -0.4902    1.0821    0.2166 C   0  0  0  0  0  0  0  0  0  0  0  0
    2.7776   -2.6022    1.3320 H   0  0  0  0  0  0  0  0  0  0  0  0
    1.8593   -2.1466   -0.6265 H   0  0  0  0  0  0  0  0  0  0  0  0
    3.4700   -0.9989   -1.7455 H   0  0  0  0  0  0  0  0  0  0  0  0
    5.2470   -0.3990    0.4258 H   0  0  0  0  0  0  0  0  0  0  0  0
    5.2379    1.6184   -0.9161 H   0  0  0  0  0  0  0  0  0  0  0  0
    4.1283    1.8266    0.8801 H   0  0  0  0  0  0  0  0  0  0  0  0
    3.4807    0.4191    1.7472 H   0  0  0  0  0  0  0  0  0  0  0  0
    2.3973    1.8662   -0.6845 H   0  0  0  0  0  0  0  0  0  0  0  0
    1.6825    1.7568    0.9330 H   0  0  0  0  0  0  0  0  0  0  0  0
    1.2882    0.0063   -1.3373 H   0  0  0  0  0  0  0  0  0  0  0  0
   -4.2700    0.2034    1.3246 H   0  0  0  0  0  0  0  0  0  0  0  0
   -5.1279    1.2373    0.1523 H   0  0  0  0  0  0  0  0  0  0  0  0
   -3.2534    2.3651   -0.5298 H   0  0  0  0  0  0  0  0  0  0  0  0
   -2.7859    1.9745    1.1955 H   0  0  0  0  0  0  0  0  0  0  0  0
   -1.8809    0.6248   -1.4160 H   0  0  0  0  0  0  0  0  0  0  0  0
   -2.0828   -0.5615    1.4121 H   0  0  0  0  0  0  0  0  0  0  0  0
   -0.5194    2.7888    1.2268 H   0  0  0  0  0  0  0  0  0  0  0  0
   -0.5903   -3.1532   -0.0203 H   0  0  0  0  0  0  0  0  0  0  0  0
   -3.5506   -2.1744    0.4269 H   0  0  0  0  0  0  0  0  0  0  0  0
   -2.7580   -2.0621   -1.1560 H   0  0  0  0  0  0  0  0  0  0  0  0
   -3.9653   -0.0283   -1.7251 H   0  0  0  0  0  0  0  0  0  0  0  0
   -5.1597   -0.9538   -0.6924 H   0  0  0  0  0  0  0  0  0  0  0  0
   -0.6137   -1.3353   -1.1483 H   0  0  0  0  0  0  0  0  0  0  0  0
    0.0374    1.7012   -0.5349 H   0  0  0  0  0  0  0  0  0  0  0  0
    2.7776   -2.6022    1.3320 H   0  0  0  0  0  0  0  0  0  0  0  0
    1.8593   -2.1466   -0.6265 H   0  0  0  0  0  0  0  0  0  0  0  0
    3.4700   -0.9989   -1.7455 H   0  0  0  0  0  0  0  0  0  0  0  0
    5.2470   -0.3990    0.4258 H   0  0  0  0  0  0  0  0  0  0  0  0
    5.2379    1.6184   -0.9161 H   0  0  0  0  0  0  0  0  0  0  0  0
    4.1283    1.8266    0.8801 H   0  0  0  0  0  0  0  0  0  0  0  0
    3.4807    0.4191    1.7472 H   0  0  0  0  0  0  0  0  0  0  0  0
    2.3973    1.8662   -0.6845 H   0  0  0  0  0  0  0  0  0  0  0  0
    1.6825    1.7568    0.9330 H   0  0  0  0  0  0  0  0  0  0  0  0
    1.2882    0.0063   -1.3373 H   0  0  0  0  0  0  0  0  0  0  0  0
   -4.2700    0.2034    1.3246 H   0  0  0  0  0  0  0  0  0  0  0  0
   -5.1279    1.2373    0.1523 H   0  0  0  0  0  0  0  0  0  0  0  0
   -3.2534    2.3651   -0.5298 H   0  0  0  0  0  0  0  0  0  0  0  0
   -2.7859    1.9745    1.1955 H   0  0  0  0  0  0  0  0  0  0  0  0
   -1.8809    0.6248   -1.4160 H   0  0  0  0  0  0  0  0  0  0  0  0
   -2.0828   -0.5615    1.4121 H   0  0  0  0  0  0  0  0  0  0  0  0
   -0.5194    2.7888    1.2268 H   0  0  0  0  0  0  0  0  0  0  0  0
   -0.5903   -3.1532   -0.0203 H   0  0  0  0  0  0  0  0  0  0  0  0
   -3.5506   -2.1744    0.4269 H   0  0  0  0  0  0  0  0  0  0  0  0
   -2.7580   -2.0621   -1.1560 H   0  0  0  0  0  0  0  0  0  0  0  0
   -3.9653   -0.0283   -1.7251 H   0  0  0  0  0  0  0  0  0  0  0  0
   -5.1597   -0.9538   -0.6924 H   0  0  0  0  0  0  0  0  0  0  0  0
   -0.6137   -1.3353   -1.1483 H   0  0  0  0  0  0  0  0  0  0  0  0
    0.0374    1.7012   -0.5349 H   0  0  0  0  0  0  0  0  0  0  0  0
    2.8019   -2.5220    1.4058 H   0  0  0  0  0  0  0  0  0  0  0  0
    1.8802   -2.1427   -0.5921 H   0  0  0  0  0  0  0  0  0  0  0  0
    3.5982   -1.0742   -1.7689 H   0  0  0  0  0  0  0  0  0  0  0  0
    5.2361   -0.3640    0.4619 H   0  0  0  0  0  0  0  0  0  0  0  0
    5.1854    1.6788   -0.9186 H   0  0  0  0  0  0  0  0  0  0  0  0
    4.1151    1.8839    0.7964 H   0  0  0  0  0  0  0  0  0  0  0  0
    3.5053    0.5171    1.7430 H   0  0  0  0  0  0  0  0  0  0  0  0
    2.3276    1.9122   -0.7122 H   0  0  0  0  0  0  0  0  0  0  0  0
    1.6457    1.7383    0.9121 H   0  0  0  0  0  0  0  0  0  0  0  0
    1.3323    0.0107   -1.3986 H   0  0  0  0  0  0  0  0  0  0  0  0
   -4.3074    0.2559    1.3797 H   0  0  0  0  0  0  0  0  0  0  0  0
   -5.1507    1.2461    0.1288 H   0  0  0  0  0  0  0  0  0  0  0  0
   -3.2383    2.3521   -0.4938 H   0  0  0  0  0  0  0  0  0  0  0  0
   -2.7266    1.9069    1.2168 H   0  0  0  0  0  0  0  0  0  0  0  0
   -1.9047    0.6279   -1.4470 H   0  0  0  0  0  0  0  0  0  0  0  0
   -1.9140   -0.5612    1.3893 H   0  0  0  0  0  0  0  0  0  0  0  0
   -0.5125    2.7433    1.2395 H   0  0  0  0  0  0  0  0  0  0  0  0
   -0.6913   -3.1347   -0.1411 H   0  0  0  0  0  0  0  0  0  0  0  0
   -3.4725   -2.1451    0.6462 H   0  0  0  0  0  0  0  0  0  0  0  0
   -2.8169   -2.1525   -1.0254 H   0  0  0  0  0  0  0  0  0  0  0  0
   -4.0707   -0.2603   -1.6441 H   0  0  0  0  0  0  0  0  0  0  0  0
   -5.1802   -1.0441   -0.4416 H   0  0  0  0  0  0  0  0  0  0  0  0
   -0.5848   -1.3058   -1.2392 H   0  0  0  0  0  0  0  0  0  0  0  0
   -0.0393    1.7264   -0.6088 H   0  0  0  0  0  0  0  0  0  0  0  0
    2.7776   -2.6022    1.3320 H   0  0  0  0  0  0  0  0  0  0  0  0
    1.8593   -2.1466   -0.6265 H   0  0  0  0  0  0  0  0  0  0  0  0
    3.4700   -0.9989   -1.7455 H   0  0  0  0  0  0  0  0  0  0  0  0
    5.2470   -0.3990    0.4258 H   0  0  0  0  0  0  0  0  0  0  0  0
    5.2379    1.6184   -0.9161 H   0  0  0  0  0  0  0  0  0  0  0  0
    4.1283    1.8266    0.8801 H   0  0  0  0  0  0  0  0  0  0  0  0
    3.4807    0.4191    1.7472 H   0  0  0  0  0  0  0  0  0  0  0  0
    2.3973    1.8662   -0.6845 H   0  0  0  0  0  0  0  0  0  0  0  0
    1.6825    1.7568    0.9330 H   0  0  0  0  0  0  0  0  0  0  0  0
    1.2882    0.0063   -1.3373 H   0  0  0  0  0  0  0  0  0  0  0  0
   -4.2700    0.2034    1.3246 H   0  0  0  0  0  0  0  0  0  0  0  0
   -5.1279    1.2373    0.1523 H   0  0  0  0  0  0  0  0  0  0  0  0
   -3.2534    2.3651   -0.5298 H   0  0  0  0  0  0  0  0  0  0  0  0
   -2.7859    1.9745    1.1955 H   0  0  0  0  0  0  0  0  0  0  0  0
   -1.8809    0.6248   -1.4160 H   0  0  0  0  0  0  0  0  0  0  0  0
   -2.0828   -0.5615    1.4121 H   0  0  0  0  0  0  0  0  0  0  0  0
   -0.5194    2.7888    1.2268 H   0  0  0  0  0  0  0  0  0  0  0  0
   -0.5903   -3.1532   -0.0203 H   0  0  0  0  0  0  0  0  0  0  0  0
   -3.5506   -2.1744    0.4269 H   0  0  0  0  0  0  0  0  0  0  0  0
   -2.7580   -2.0621   -1.1560 H   0  0  0  0  0  0  0  0  0  0  0  0
   -3.9653   -0.0283   -1.7251 H   0  0  0  0  0  0  0  0  0  0  0  0
   -5.1597   -0.9538   -0.6924 H   0  0  0  0  0  0  0  0  0  0  0  0
   -0.6137   -1.3353   -1.1483 H   0  0  0  0  0  0  0  0  0  0  0  0
    0.0374    1.7012   -0.5349 H   0  0  0  0  0  0  0  0  0  0  0  0
  1  2  1  0
  2  3  1  0
  3  4  1  0
  4  5  1  0
  4  6  1  0
  6  7  1  0
  2  8  1  0
  7  8  1  0
  8  9  1  0
 10 11  1  0
 11 12  1  0
 12 13  1  0
 13 16  1  0
 10 17  1  0
 16 17  1  0
  9 18  1  0
 13 18  1  0
 15 18  1  0
  9 19  1  0
 12 19  1  0
 14 19  1  0
 20 21  1  0
 21 22  1  0
 22 23  1  0
 23 24  1  0
 23 25  1  0
 25 26  1  0
 21 27  1  0
 26 27  1  0
 27 28  1  0
 29 30  1  0
 30 31  1  0
 31 32  1  0
 32 35  1  0
 29 36  1  0
 35 36  1  0
 28 37  1  0
 32 37  1  0
 34 37  1  0
 28 38  1  0
 31 38  1  0
 33 38  1  0
 39 40  1  0
 40 41  1  0
 41 42  1  0
 42 43  1  0
 42 44  1  0
 44 45  1  0
 40 46  1  0
 45 46  1  0
 46 47  1  0
 48 49  1  0
 49 50  1  0
 50 51  1  0
 51 54  1  0
 48 55  1  0
 54 55  1  0
 47 56  1  0
 51 56  1  0
 53 56  1  0
 47 57  1  0
 50 57  1  0
 52 57  1  0
 58 59  1  0
 59 60  1  0
 60 61  1  0
 61 62  1  0
 61 63  1  0
 63 64  1  0
 59 65  1  0
 64 65  1  0
 65 66  1  0
 67 68  1  0
 68 69  1  0
 69 70  1  0
 70 73  1  0
 67 74  1  0
 73 74  1  0
 66 75  1  0
 70 75  1  0
 72 75  1  0
 66 76  1  0
 69 76  1  0
 71 76  1  0
  1 77  1  0
  2 78  1  0
  3 79  1  0
  4 80  1  0
  5 81  1  0
  6 82  1  0
  6 83  1  0
  7 84  1  0
  7 85  1  0
  8 86  1  6
 10 87  1  0
 10 88  1  0
 11 89  1  0
 11 90  1  0
 12 91  1  0
 13 92  1  0
 14 93  1  0
 15 94  1  0
 16 95  1  0
 16 96  1  0
 17 97  1  0
 17 98  1  0
 18 99  1  6
 19100  1  0
 20101  1  0
 21102  1  0
 22103  1  0
 23104  1  0
 24105  1  0
 25106  1  0
 25107  1  0
 26108  1  0
 26109  1  0
 27110  1  6
 29111  1  0
 29112  1  0
 30113  1  0
 30114  1  0
 31115  1  0
 32116  1  0
 33117  1  0
 34118  1  0
 35119  1  0
 35120  1  0
 36121  1  0
 36122  1  0
 37123  1  6
 38124  1  0
 39125  1  0
 40126  1  0
 41127  1  0
 42128  1  0
 43129  1  0
 44130  1  0
 44131  1  0
 45132  1  0
 45133  1  0
 46134  1  6
 48135  1  0
 48136  1  0
 49137  1  0
 49138  1  0
 50139  1  0
 51140  1  0
 52141  1  0
 53142  1  0
 54143  1  0
 54144  1  0
 55145  1  0
 55146  1  0
 56147  1  0
 57148  1  0
 58149  1  0
 59150  1  0
 60151  1  0
 61152  1  0
 62153  1  0
 63154  1  0
 63155  1  0
 64156  1  0
 64157  1  0
 65158  1  6
 67159  1  0
 67160  1  0
 68161  1  0
 68162  1  0
 69163  1  0
 70164  1  0
 71165  1  0
 72166  1  0
 73167  1  0
 73168  1  0
 74169  1  0
 74170  1  0
 75171  1  6
 76172  1  0
M  END
>  <PDBID>  (1) 
4TZC

>  <PDB ID>  (1) 
4TZC

>  <Generic Name>  (1) 
Thalidomide

>  <Brand Name>  (1) 
Thalomid#Contergan#Distaval#K-17#Pro-ban M#Sedalis#Softenon#Talimol#Thaled

>  <DrugBank ID>  (1) 
DB01041

>  <ATC Codes>  (1) 
L04AX02

>  <Ligand ID>  (1) 
EF2

>  <Target Name>  (1) 
Protein cereblon

>  <UniProt ID>  (1) 
Q96SW2

>  <PDB ID.1>  (1) 
4TZC

>  <Seq. Identity>  (1) 
97%

$$$$
