PDB_DB01144_08
     RDKit          3D

 32 32  0  0  0  0  0  0  0  0999 V2000
    2.3657    1.1857    0.2165 S   0  0  0  0  0  0  0  0  0  0  0  0
    2.1374    0.5934    1.8162 O   0  0  0  0  0  0  0  0  0  0  0  0
    2.3135    2.5899    0.0222 O   0  0  0  0  0  0  0  0  0  0  0  0
    3.8350    0.4808   -0.3032 N   0  0  0  0  0  0  0  0  0  0  0  0
   -2.7757    0.0965    0.2885 S   0  0  0  0  0  0  0  0  0  0  0  0
   -3.0326    1.7288   -0.7557 O   0  0  0  0  0  0  0  0  0  0  0  0
   -4.0134   -0.5993   -0.0697 O   0  0  0  0  0  0  0  0  0  0  0  0
   -2.6682    0.8843    1.7132 N   0  0  0  0  0  0  0  0  0  0  0  0
    1.1287    0.2134   -0.7140 C   0  0  0  0  0  0  0  0  0  0  0  0
   -0.1903    0.6357   -0.1476 C   0  0  0  0  0  0  0  0  0  0  0  0
   -1.2900   -0.3513   -0.3545 C   0  0  0  0  0  0  0  0  0  0  0  0
   -0.8738   -1.6959    0.1921 C   0  0  0  0  0  0  0  0  0  0  0  0
    0.2968   -2.1552   -0.6457 C   0  0  0  0  0  0  0  0  0  0  0  0
    1.4565   -1.2232   -0.5504 C   0  0  0  0  0  0  0  0  0  0  0  0
   -0.4451   -1.6020    1.9136 Cl  0  0  0  0  0  0  0  0  0  0  0  0
    0.8254   -3.7910   -0.2104 Cl  0  0  0  0  0  0  0  0  0  0  0  0
    3.0665    0.4126    2.1239 H   0  0  0  0  0  0  0  0  0  0  0  0
    2.0491    3.2967    0.6318 H   0  0  0  0  0  0  0  0  0  0  0  0
    4.4415    1.2801   -0.6322 H   0  0  0  0  0  0  0  0  0  0  0  0
    3.6803   -0.1475   -1.1350 H   0  0  0  0  0  0  0  0  0  0  0  0
   -3.0329    1.2453   -1.6211 H   0  0  0  0  0  0  0  0  0  0  0  0
   -4.8199   -0.1965   -0.4746 H   0  0  0  0  0  0  0  0  0  0  0  0
   -2.8799    0.2774    2.5258 H   0  0  0  0  0  0  0  0  0  0  0  0
   -3.3228    1.7182    1.8105 H   0  0  0  0  0  0  0  0  0  0  0  0
    1.2403    0.5651   -1.7635 H   0  0  0  0  0  0  0  0  0  0  0  0
   -0.4873    1.5773   -0.6991 H   0  0  0  0  0  0  0  0  0  0  0  0
   -0.0689    0.9031    0.9232 H   0  0  0  0  0  0  0  0  0  0  0  0
   -1.3871   -0.5072   -1.4705 H   0  0  0  0  0  0  0  0  0  0  0  0
   -1.7138   -2.3949    0.0595 H   0  0  0  0  0  0  0  0  0  0  0  0
   -0.0575   -2.1489   -1.7059 H   0  0  0  0  0  0  0  0  0  0  0  0
    2.1731   -1.5018   -1.3782 H   0  0  0  0  0  0  0  0  0  0  0  0
    2.0493   -1.3695    0.3943 H   0  0  0  0  0  0  0  0  0  0  0  0
  1  2  1  0
  1  3  1  0
  1  4  1  0
  5  6  1  0
  5  7  1  0
  5  8  1  0
  1  9  1  0
  9 10  1  0
  5 11  1  0
 10 11  1  0
 11 12  1  0
 12 13  1  0
  9 14  1  0
 13 14  1  0
 12 15  1  0
 13 16  1  0
  2 17  1  0
  3 18  1  0
  4 19  1  0
  4 20  1  0
  6 21  1  0
  7 22  1  0
  8 23  1  0
  8 24  1  0
  9 25  1  0
 10 26  1  0
 10 27  1  0
 11 28  1  0
 12 29  1  0
 13 30  1  0
 14 31  1  0
 14 32  1  0
M  END
>  <PDBID>  (1) 
2POU

>  <PDB ID>  (1) 
2POU

>  <Generic Name>  (1) 
Diclofenamide

>  <Brand Name>  (1) 
Daranide#Keveyis#Oratrol

>  <DrugBank ID>  (1) 
DB01144

>  <ATC Codes>  (1) 
S01EC02

>  <Ligand ID>  (1) 
I7A

>  <Target Name>  (1) 
Carbonic anhydrase 1

>  <UniProt ID>  (1) 
P00915

>  <PDB ID.1>  (1) 
2POU

>  <Seq. Identity>  (1) 
61%

$$$$
