PDB_DB00293_07
     RDKit          3D

296304  0  0  0  0  0  0  0  0999 V2000
   -6.1110   -1.2347    0.7395 N   0  0  0  0  0  0  0  0  0  0  0  0
   -7.2680   -1.2909   -0.0766 C   0  0  0  0  0  0  0  0  0  0  0  0
   -8.4564   -1.5032    0.8771 C   0  0  0  0  0  0  0  0  0  0  0  0
   -7.5847   -0.1449   -0.8521 N   0  0  0  0  0  0  0  0  0  0  0  0
   -6.4663    0.6676   -1.2725 C   0  0  0  0  0  0  0  0  0  0  0  0
   -6.7130    1.1238   -2.5905 O   0  0  0  0  0  0  0  0  0  0  0  0
   -5.2269   -0.1478   -1.1945 C   0  0  0  0  0  0  0  0  0  0  0  0
   -4.0026    0.4694   -1.8103 C   0  0  0  0  0  0  0  0  0  0  0  0
   -3.2294    1.3437   -0.8709 C   0  0  0  0  0  0  0  0  0  0  0  0
   -3.8310    1.6509    0.4137 C   0  0  0  0  0  0  0  0  0  0  0  0
   -4.6467    0.5921    1.0705 C   0  0  0  0  0  0  0  0  0  0  0  0
   -4.9581   -0.5876    0.1887 C   0  0  0  0  0  0  0  0  0  0  0  0
   -1.7793    0.9501   -0.8935 C   0  0  0  0  0  0  0  0  0  0  0  0
   -0.9190    1.6608   -0.0003 N   0  0  0  0  0  0  0  0  0  0  0  0
    2.4692   -0.0646    0.6927 C   0  0  0  0  0  0  0  0  0  0  0  0
    0.9761   -0.2683   -0.3558 S   0  0  0  0  0  0  0  0  0  0  0  0
    0.4664    1.4530   -0.4885 C   0  0  0  0  0  0  0  0  0  0  0  0
    1.4298    2.1361    0.4539 C   0  0  0  0  0  0  0  0  0  0  0  0
    2.7312    1.4133    0.4360 C   0  0  0  0  0  0  0  0  0  0  0  0
    3.5611   -0.9123    0.0446 C   0  0  0  0  0  0  0  0  0  0  0  0
    3.8377   -0.4590   -1.2200 O   0  0  0  0  0  0  0  0  0  0  0  0
    4.6234   -1.2720    0.8828 N   0  0  0  0  0  0  0  0  0  0  0  0
    5.6774   -1.9721    0.2808 C   0  0  1  0  0  0  0  0  0  0  0  0
    6.5004   -1.2094   -0.6892 C   0  0  0  0  0  0  0  0  0  0  0  0
    7.2442   -0.0263   -0.1965 C   0  0  0  0  0  0  0  0  0  0  0  0
    6.5103    1.0937    0.4272 C   0  0  0  0  0  0  0  0  0  0  0  0
    5.8095    0.8384    1.5716 O   0  0  0  0  0  0  0  0  0  0  0  0
    7.4359    2.1182    0.7610 O   0  0  0  0  0  0  0  0  0  0  0  0
    6.6017   -2.6607    1.2944 C   0  0  0  0  0  0  0  0  0  0  0  0
    7.6017   -3.3203    0.5562 O   0  0  0  0  0  0  0  0  0  0  0  0
    7.2652   -1.7706    2.1121 O   0  0  0  0  0  0  0  0  0  0  0  0
   -0.8974    1.0165    1.3242 C   0  0  0  0  0  0  0  0  0  0  0  0
   -6.1110   -1.2347    0.7395 N   0  0  0  0  0  0  0  0  0  0  0  0
   -7.2680   -1.2909   -0.0766 C   0  0  0  0  0  0  0  0  0  0  0  0
   -8.4564   -1.5032    0.8771 C   0  0  0  0  0  0  0  0  0  0  0  0
   -7.5847   -0.1449   -0.8521 N   0  0  0  0  0  0  0  0  0  0  0  0
   -6.4663    0.6676   -1.2725 C   0  0  0  0  0  0  0  0  0  0  0  0
   -6.7130    1.1238   -2.5905 O   0  0  0  0  0  0  0  0  0  0  0  0
   -5.2269   -0.1478   -1.1945 C   0  0  0  0  0  0  0  0  0  0  0  0
   -4.0026    0.4694   -1.8103 C   0  0  0  0  0  0  0  0  0  0  0  0
   -3.2294    1.3437   -0.8709 C   0  0  0  0  0  0  0  0  0  0  0  0
   -3.8310    1.6509    0.4137 C   0  0  0  0  0  0  0  0  0  0  0  0
   -4.6467    0.5921    1.0705 C   0  0  0  0  0  0  0  0  0  0  0  0
   -4.9581   -0.5876    0.1887 C   0  0  0  0  0  0  0  0  0  0  0  0
   -1.7793    0.9501   -0.8935 C   0  0  0  0  0  0  0  0  0  0  0  0
   -0.9190    1.6608   -0.0003 N   0  0  0  0  0  0  0  0  0  0  0  0
    2.4692   -0.0646    0.6927 C   0  0  0  0  0  0  0  0  0  0  0  0
    0.9761   -0.2683   -0.3558 S   0  0  0  0  0  0  0  0  0  0  0  0
    0.4664    1.4530   -0.4885 C   0  0  0  0  0  0  0  0  0  0  0  0
    1.4298    2.1361    0.4539 C   0  0  0  0  0  0  0  0  0  0  0  0
    2.7312    1.4133    0.4360 C   0  0  0  0  0  0  0  0  0  0  0  0
    3.5611   -0.9123    0.0446 C   0  0  0  0  0  0  0  0  0  0  0  0
    3.8377   -0.4590   -1.2200 O   0  0  0  0  0  0  0  0  0  0  0  0
    4.6234   -1.2720    0.8828 N   0  0  0  0  0  0  0  0  0  0  0  0
    5.6774   -1.9721    0.2808 C   0  0  1  0  0  0  0  0  0  0  0  0
    6.5004   -1.2094   -0.6892 C   0  0  0  0  0  0  0  0  0  0  0  0
    7.2442   -0.0263   -0.1965 C   0  0  0  0  0  0  0  0  0  0  0  0
    6.5103    1.0937    0.4272 C   0  0  0  0  0  0  0  0  0  0  0  0
    5.8095    0.8384    1.5716 O   0  0  0  0  0  0  0  0  0  0  0  0
    7.4359    2.1182    0.7610 O   0  0  0  0  0  0  0  0  0  0  0  0
    6.6017   -2.6607    1.2944 C   0  0  0  0  0  0  0  0  0  0  0  0
    7.6017   -3.3203    0.5562 O   0  0  0  0  0  0  0  0  0  0  0  0
    7.2652   -1.7706    2.1121 O   0  0  0  0  0  0  0  0  0  0  0  0
   -0.8974    1.0165    1.3242 C   0  0  0  0  0  0  0  0  0  0  0  0
   -6.1110   -1.2347    0.7395 N   0  0  0  0  0  0  0  0  0  0  0  0
   -7.2680   -1.2909   -0.0766 C   0  0  0  0  0  0  0  0  0  0  0  0
   -8.4564   -1.5032    0.8771 C   0  0  0  0  0  0  0  0  0  0  0  0
   -7.5847   -0.1449   -0.8521 N   0  0  0  0  0  0  0  0  0  0  0  0
   -6.4663    0.6676   -1.2725 C   0  0  0  0  0  0  0  0  0  0  0  0
   -6.7130    1.1238   -2.5905 O   0  0  0  0  0  0  0  0  0  0  0  0
   -5.2269   -0.1478   -1.1945 C   0  0  0  0  0  0  0  0  0  0  0  0
   -4.0026    0.4694   -1.8103 C   0  0  0  0  0  0  0  0  0  0  0  0
   -3.2294    1.3437   -0.8709 C   0  0  0  0  0  0  0  0  0  0  0  0
   -3.8310    1.6509    0.4137 C   0  0  0  0  0  0  0  0  0  0  0  0
   -4.6467    0.5921    1.0705 C   0  0  0  0  0  0  0  0  0  0  0  0
   -4.9581   -0.5876    0.1887 C   0  0  0  0  0  0  0  0  0  0  0  0
   -1.7793    0.9501   -0.8935 C   0  0  0  0  0  0  0  0  0  0  0  0
   -0.9190    1.6608   -0.0003 N   0  0  0  0  0  0  0  0  0  0  0  0
    2.4692   -0.0646    0.6927 C   0  0  0  0  0  0  0  0  0  0  0  0
    0.9761   -0.2683   -0.3558 S   0  0  0  0  0  0  0  0  0  0  0  0
    0.4664    1.4530   -0.4885 C   0  0  0  0  0  0  0  0  0  0  0  0
    1.4298    2.1361    0.4539 C   0  0  0  0  0  0  0  0  0  0  0  0
    2.7312    1.4133    0.4360 C   0  0  0  0  0  0  0  0  0  0  0  0
    3.5611   -0.9123    0.0446 C   0  0  0  0  0  0  0  0  0  0  0  0
    3.8377   -0.4590   -1.2200 O   0  0  0  0  0  0  0  0  0  0  0  0
    4.6234   -1.2720    0.8828 N   0  0  0  0  0  0  0  0  0  0  0  0
    5.6774   -1.9721    0.2808 C   0  0  1  0  0  0  0  0  0  0  0  0
    6.5004   -1.2094   -0.6892 C   0  0  0  0  0  0  0  0  0  0  0  0
    7.2442   -0.0263   -0.1965 C   0  0  0  0  0  0  0  0  0  0  0  0
    6.5103    1.0937    0.4272 C   0  0  0  0  0  0  0  0  0  0  0  0
    5.8095    0.8384    1.5716 O   0  0  0  0  0  0  0  0  0  0  0  0
    7.4359    2.1182    0.7610 O   0  0  0  0  0  0  0  0  0  0  0  0
    6.6017   -2.6607    1.2944 C   0  0  0  0  0  0  0  0  0  0  0  0
    7.6017   -3.3203    0.5562 O   0  0  0  0  0  0  0  0  0  0  0  0
    7.2652   -1.7706    2.1121 O   0  0  0  0  0  0  0  0  0  0  0  0
   -0.8974    1.0165    1.3242 C   0  0  0  0  0  0  0  0  0  0  0  0
   -6.1110   -1.2347    0.7395 N   0  0  0  0  0  0  0  0  0  0  0  0
   -7.2680   -1.2909   -0.0766 C   0  0  0  0  0  0  0  0  0  0  0  0
   -8.4564   -1.5032    0.8771 C   0  0  0  0  0  0  0  0  0  0  0  0
   -7.5847   -0.1449   -0.8521 N   0  0  0  0  0  0  0  0  0  0  0  0
   -6.4663    0.6676   -1.2725 C   0  0  0  0  0  0  0  0  0  0  0  0
   -6.7130    1.1238   -2.5905 O   0  0  0  0  0  0  0  0  0  0  0  0
   -5.2269   -0.1478   -1.1945 C   0  0  0  0  0  0  0  0  0  0  0  0
   -4.0026    0.4694   -1.8103 C   0  0  0  0  0  0  0  0  0  0  0  0
   -3.2294    1.3437   -0.8709 C   0  0  0  0  0  0  0  0  0  0  0  0
   -3.8310    1.6509    0.4137 C   0  0  0  0  0  0  0  0  0  0  0  0
   -4.6467    0.5921    1.0705 C   0  0  0  0  0  0  0  0  0  0  0  0
   -4.9581   -0.5876    0.1887 C   0  0  0  0  0  0  0  0  0  0  0  0
   -1.7793    0.9501   -0.8935 C   0  0  0  0  0  0  0  0  0  0  0  0
   -0.9190    1.6608   -0.0003 N   0  0  0  0  0  0  0  0  0  0  0  0
    2.4692   -0.0646    0.6927 C   0  0  0  0  0  0  0  0  0  0  0  0
    0.9761   -0.2683   -0.3558 S   0  0  0  0  0  0  0  0  0  0  0  0
    0.4664    1.4530   -0.4885 C   0  0  0  0  0  0  0  0  0  0  0  0
    1.4298    2.1361    0.4539 C   0  0  0  0  0  0  0  0  0  0  0  0
    2.7312    1.4133    0.4360 C   0  0  0  0  0  0  0  0  0  0  0  0
    3.5611   -0.9123    0.0446 C   0  0  0  0  0  0  0  0  0  0  0  0
    3.8377   -0.4590   -1.2200 O   0  0  0  0  0  0  0  0  0  0  0  0
    4.6234   -1.2720    0.8828 N   0  0  0  0  0  0  0  0  0  0  0  0
    5.6774   -1.9721    0.2808 C   0  0  1  0  0  0  0  0  0  0  0  0
    6.5004   -1.2094   -0.6892 C   0  0  0  0  0  0  0  0  0  0  0  0
    7.2442   -0.0263   -0.1965 C   0  0  0  0  0  0  0  0  0  0  0  0
    6.5103    1.0937    0.4272 C   0  0  0  0  0  0  0  0  0  0  0  0
    5.8095    0.8384    1.5716 O   0  0  0  0  0  0  0  0  0  0  0  0
    7.4359    2.1182    0.7610 O   0  0  0  0  0  0  0  0  0  0  0  0
    6.6017   -2.6607    1.2944 C   0  0  0  0  0  0  0  0  0  0  0  0
    7.6017   -3.3203    0.5562 O   0  0  0  0  0  0  0  0  0  0  0  0
    7.2652   -1.7706    2.1121 O   0  0  0  0  0  0  0  0  0  0  0  0
   -0.8974    1.0165    1.3242 C   0  0  0  0  0  0  0  0  0  0  0  0
   -6.2788   -0.9850    1.7372 H   0  0  0  0  0  0  0  0  0  0  0  0
   -7.2228   -2.2364   -0.6760 H   0  0  0  0  0  0  0  0  0  0  0  0
   -8.1053   -1.8271    1.8763 H   0  0  0  0  0  0  0  0  0  0  0  0
   -9.1290   -2.3049    0.5111 H   0  0  0  0  0  0  0  0  0  0  0  0
   -9.0911   -0.5876    0.9424 H   0  0  0  0  0  0  0  0  0  0  0  0
   -8.1067   -0.4429   -1.7038 H   0  0  0  0  0  0  0  0  0  0  0  0
   -6.4675    1.5987   -0.6663 H   0  0  0  0  0  0  0  0  0  0  0  0
   -7.7058    1.2604   -2.6560 H   0  0  0  0  0  0  0  0  0  0  0  0
   -5.4424   -1.0876   -1.7983 H   0  0  0  0  0  0  0  0  0  0  0  0
   -4.3145    0.9569   -2.7489 H   0  0  0  0  0  0  0  0  0  0  0  0
   -3.3485   -0.3935   -2.1323 H   0  0  0  0  0  0  0  0  0  0  0  0
   -3.2114    2.3588   -1.4440 H   0  0  0  0  0  0  0  0  0  0  0  0
   -3.0867    2.0432    1.1236 H   0  0  0  0  0  0  0  0  0  0  0  0
   -4.5434    2.5477    0.3215 H   0  0  0  0  0  0  0  0  0  0  0  0
   -4.1356    0.1734    1.9788 H   0  0  0  0  0  0  0  0  0  0  0  0
   -5.6228    0.9793    1.4516 H   0  0  0  0  0  0  0  0  0  0  0  0
   -4.0582   -1.2683    0.2503 H   0  0  0  0  0  0  0  0  0  0  0  0
   -1.3296    1.0361   -1.9086 H   0  0  0  0  0  0  0  0  0  0  0  0
   -1.6514   -0.1488   -0.6468 H   0  0  0  0  0  0  0  0  0  0  0  0
    2.2922   -0.3147    1.7381 H   0  0  0  0  0  0  0  0  0  0  0  0
    0.5607    1.8643   -1.5022 H   0  0  0  0  0  0  0  0  0  0  0  0
    1.6245    3.1480    0.0119 H   0  0  0  0  0  0  0  0  0  0  0  0
    1.0425    2.2122    1.4818 H   0  0  0  0  0  0  0  0  0  0  0  0
    3.1859    1.4502   -0.5907 H   0  0  0  0  0  0  0  0  0  0  0  0
    3.3818    1.8747    1.2047 H   0  0  0  0  0  0  0  0  0  0  0  0
    2.9867   -1.9096   -0.1438 H   0  0  0  0  0  0  0  0  0  0  0  0
    3.5228   -1.0132   -1.9608 H   0  0  0  0  0  0  0  0  0  0  0  0
    4.2478   -1.8590    1.6844 H   0  0  0  0  0  0  0  0  0  0  0  0
    5.2855   -2.8777   -0.3185 H   0  0  0  0  0  0  0  0  0  0  0  0
    5.9280   -0.9525   -1.6301 H   0  0  0  0  0  0  0  0  0  0  0  0
    7.2686   -1.9647   -1.1376 H   0  0  0  0  0  0  0  0  0  0  0  0
    7.7664    0.4071   -1.1181 H   0  0  0  0  0  0  0  0  0  0  0  0
    8.1145   -0.3659    0.4396 H   0  0  0  0  0  0  0  0  0  0  0  0
    5.7642    1.5102   -0.3058 H   0  0  0  0  0  0  0  0  0  0  0  0
    5.6728    1.6218    2.1239 H   0  0  0  0  0  0  0  0  0  0  0  0
    7.8950    2.4610   -0.0431 H   0  0  0  0  0  0  0  0  0  0  0  0
    6.0260   -3.4305    1.8444 H   0  0  0  0  0  0  0  0  0  0  0  0
    7.2250   -3.8203   -0.2133 H   0  0  0  0  0  0  0  0  0  0  0  0
    7.0087   -1.8355    3.0715 H   0  0  0  0  0  0  0  0  0  0  0  0
   -0.9736    1.7417    2.1491 H   0  0  0  0  0  0  0  0  0  0  0  0
    0.0486    0.4652    1.5095 H   0  0  0  0  0  0  0  0  0  0  0  0
   -1.6747    0.2315    1.3021 H   0  0  0  0  0  0  0  0  0  0  0  0
   -6.2788   -0.9850    1.7372 H   0  0  0  0  0  0  0  0  0  0  0  0
   -7.2228   -2.2364   -0.6760 H   0  0  0  0  0  0  0  0  0  0  0  0
   -8.1053   -1.8271    1.8763 H   0  0  0  0  0  0  0  0  0  0  0  0
   -9.1290   -2.3049    0.5111 H   0  0  0  0  0  0  0  0  0  0  0  0
   -9.0911   -0.5876    0.9424 H   0  0  0  0  0  0  0  0  0  0  0  0
   -8.1067   -0.4429   -1.7038 H   0  0  0  0  0  0  0  0  0  0  0  0
   -6.4675    1.5987   -0.6663 H   0  0  0  0  0  0  0  0  0  0  0  0
   -7.7058    1.2604   -2.6560 H   0  0  0  0  0  0  0  0  0  0  0  0
   -5.4424   -1.0876   -1.7983 H   0  0  0  0  0  0  0  0  0  0  0  0
   -4.3145    0.9569   -2.7489 H   0  0  0  0  0  0  0  0  0  0  0  0
   -3.3485   -0.3935   -2.1323 H   0  0  0  0  0  0  0  0  0  0  0  0
   -3.2114    2.3588   -1.4440 H   0  0  0  0  0  0  0  0  0  0  0  0
   -3.0867    2.0432    1.1236 H   0  0  0  0  0  0  0  0  0  0  0  0
   -4.5434    2.5477    0.3215 H   0  0  0  0  0  0  0  0  0  0  0  0
   -4.1356    0.1734    1.9788 H   0  0  0  0  0  0  0  0  0  0  0  0
   -5.6228    0.9793    1.4516 H   0  0  0  0  0  0  0  0  0  0  0  0
   -4.0582   -1.2683    0.2503 H   0  0  0  0  0  0  0  0  0  0  0  0
   -1.3296    1.0361   -1.9086 H   0  0  0  0  0  0  0  0  0  0  0  0
   -1.6514   -0.1488   -0.6468 H   0  0  0  0  0  0  0  0  0  0  0  0
    2.2922   -0.3147    1.7381 H   0  0  0  0  0  0  0  0  0  0  0  0
    0.5607    1.8643   -1.5022 H   0  0  0  0  0  0  0  0  0  0  0  0
    1.6245    3.1480    0.0119 H   0  0  0  0  0  0  0  0  0  0  0  0
    1.0425    2.2122    1.4818 H   0  0  0  0  0  0  0  0  0  0  0  0
    3.1859    1.4502   -0.5907 H   0  0  0  0  0  0  0  0  0  0  0  0
    3.3818    1.8747    1.2047 H   0  0  0  0  0  0  0  0  0  0  0  0
    2.9867   -1.9096   -0.1438 H   0  0  0  0  0  0  0  0  0  0  0  0
    3.5228   -1.0132   -1.9608 H   0  0  0  0  0  0  0  0  0  0  0  0
    4.2478   -1.8590    1.6844 H   0  0  0  0  0  0  0  0  0  0  0  0
    5.2855   -2.8777   -0.3185 H   0  0  0  0  0  0  0  0  0  0  0  0
    5.9280   -0.9525   -1.6301 H   0  0  0  0  0  0  0  0  0  0  0  0
    7.2686   -1.9647   -1.1376 H   0  0  0  0  0  0  0  0  0  0  0  0
    7.7664    0.4071   -1.1181 H   0  0  0  0  0  0  0  0  0  0  0  0
    8.1145   -0.3659    0.4396 H   0  0  0  0  0  0  0  0  0  0  0  0
    5.7642    1.5102   -0.3058 H   0  0  0  0  0  0  0  0  0  0  0  0
    5.6728    1.6218    2.1239 H   0  0  0  0  0  0  0  0  0  0  0  0
    7.8950    2.4610   -0.0431 H   0  0  0  0  0  0  0  0  0  0  0  0
    6.0260   -3.4305    1.8444 H   0  0  0  0  0  0  0  0  0  0  0  0
    7.2250   -3.8203   -0.2133 H   0  0  0  0  0  0  0  0  0  0  0  0
    7.0087   -1.8355    3.0715 H   0  0  0  0  0  0  0  0  0  0  0  0
   -0.9736    1.7417    2.1491 H   0  0  0  0  0  0  0  0  0  0  0  0
    0.0486    0.4652    1.5095 H   0  0  0  0  0  0  0  0  0  0  0  0
   -1.6747    0.2315    1.3021 H   0  0  0  0  0  0  0  0  0  0  0  0
   -6.2788   -0.9850    1.7372 H   0  0  0  0  0  0  0  0  0  0  0  0
   -7.2228   -2.2364   -0.6760 H   0  0  0  0  0  0  0  0  0  0  0  0
   -8.1053   -1.8271    1.8763 H   0  0  0  0  0  0  0  0  0  0  0  0
   -9.1290   -2.3049    0.5111 H   0  0  0  0  0  0  0  0  0  0  0  0
   -9.0911   -0.5876    0.9424 H   0  0  0  0  0  0  0  0  0  0  0  0
   -8.1067   -0.4429   -1.7038 H   0  0  0  0  0  0  0  0  0  0  0  0
   -6.4675    1.5987   -0.6663 H   0  0  0  0  0  0  0  0  0  0  0  0
   -7.7058    1.2604   -2.6560 H   0  0  0  0  0  0  0  0  0  0  0  0
   -5.4424   -1.0876   -1.7983 H   0  0  0  0  0  0  0  0  0  0  0  0
   -4.3145    0.9569   -2.7489 H   0  0  0  0  0  0  0  0  0  0  0  0
   -3.3485   -0.3935   -2.1323 H   0  0  0  0  0  0  0  0  0  0  0  0
   -3.2114    2.3588   -1.4440 H   0  0  0  0  0  0  0  0  0  0  0  0
   -3.0867    2.0432    1.1236 H   0  0  0  0  0  0  0  0  0  0  0  0
   -4.5434    2.5477    0.3215 H   0  0  0  0  0  0  0  0  0  0  0  0
   -4.1356    0.1734    1.9788 H   0  0  0  0  0  0  0  0  0  0  0  0
   -5.6228    0.9793    1.4516 H   0  0  0  0  0  0  0  0  0  0  0  0
   -4.0582   -1.2683    0.2503 H   0  0  0  0  0  0  0  0  0  0  0  0
   -1.3296    1.0361   -1.9086 H   0  0  0  0  0  0  0  0  0  0  0  0
   -1.6514   -0.1488   -0.6468 H   0  0  0  0  0  0  0  0  0  0  0  0
    2.2922   -0.3147    1.7381 H   0  0  0  0  0  0  0  0  0  0  0  0
    0.5607    1.8643   -1.5022 H   0  0  0  0  0  0  0  0  0  0  0  0
    1.6245    3.1480    0.0119 H   0  0  0  0  0  0  0  0  0  0  0  0
    1.0425    2.2122    1.4818 H   0  0  0  0  0  0  0  0  0  0  0  0
    3.1859    1.4502   -0.5907 H   0  0  0  0  0  0  0  0  0  0  0  0
    3.3818    1.8747    1.2047 H   0  0  0  0  0  0  0  0  0  0  0  0
    2.9867   -1.9096   -0.1438 H   0  0  0  0  0  0  0  0  0  0  0  0
    3.5228   -1.0132   -1.9608 H   0  0  0  0  0  0  0  0  0  0  0  0
    4.2478   -1.8590    1.6844 H   0  0  0  0  0  0  0  0  0  0  0  0
    5.2855   -2.8777   -0.3185 H   0  0  0  0  0  0  0  0  0  0  0  0
    5.9280   -0.9525   -1.6301 H   0  0  0  0  0  0  0  0  0  0  0  0
    7.2686   -1.9647   -1.1376 H   0  0  0  0  0  0  0  0  0  0  0  0
    7.7664    0.4071   -1.1181 H   0  0  0  0  0  0  0  0  0  0  0  0
    8.1145   -0.3659    0.4396 H   0  0  0  0  0  0  0  0  0  0  0  0
    5.7642    1.5102   -0.3058 H   0  0  0  0  0  0  0  0  0  0  0  0
    5.6728    1.6218    2.1239 H   0  0  0  0  0  0  0  0  0  0  0  0
    7.8950    2.4610   -0.0431 H   0  0  0  0  0  0  0  0  0  0  0  0
    6.0260   -3.4305    1.8444 H   0  0  0  0  0  0  0  0  0  0  0  0
    7.2250   -3.8203   -0.2133 H   0  0  0  0  0  0  0  0  0  0  0  0
    7.0087   -1.8355    3.0715 H   0  0  0  0  0  0  0  0  0  0  0  0
   -0.9736    1.7417    2.1491 H   0  0  0  0  0  0  0  0  0  0  0  0
    0.0486    0.4652    1.5095 H   0  0  0  0  0  0  0  0  0  0  0  0
   -1.6747    0.2315    1.3021 H   0  0  0  0  0  0  0  0  0  0  0  0
   -6.2788   -0.9850    1.7372 H   0  0  0  0  0  0  0  0  0  0  0  0
   -7.2228   -2.2364   -0.6760 H   0  0  0  0  0  0  0  0  0  0  0  0
   -8.1053   -1.8271    1.8763 H   0  0  0  0  0  0  0  0  0  0  0  0
   -9.1290   -2.3049    0.5111 H   0  0  0  0  0  0  0  0  0  0  0  0
   -9.0911   -0.5876    0.9424 H   0  0  0  0  0  0  0  0  0  0  0  0
   -8.1067   -0.4429   -1.7038 H   0  0  0  0  0  0  0  0  0  0  0  0
   -6.4675    1.5987   -0.6663 H   0  0  0  0  0  0  0  0  0  0  0  0
   -7.7058    1.2604   -2.6560 H   0  0  0  0  0  0  0  0  0  0  0  0
   -5.4424   -1.0876   -1.7983 H   0  0  0  0  0  0  0  0  0  0  0  0
   -4.3145    0.9569   -2.7489 H   0  0  0  0  0  0  0  0  0  0  0  0
   -3.3485   -0.3935   -2.1323 H   0  0  0  0  0  0  0  0  0  0  0  0
   -3.2114    2.3588   -1.4440 H   0  0  0  0  0  0  0  0  0  0  0  0
   -3.0867    2.0432    1.1236 H   0  0  0  0  0  0  0  0  0  0  0  0
   -4.5434    2.5477    0.3215 H   0  0  0  0  0  0  0  0  0  0  0  0
   -4.1356    0.1734    1.9788 H   0  0  0  0  0  0  0  0  0  0  0  0
   -5.6228    0.9793    1.4516 H   0  0  0  0  0  0  0  0  0  0  0  0
   -4.0582   -1.2683    0.2503 H   0  0  0  0  0  0  0  0  0  0  0  0
   -1.3296    1.0361   -1.9086 H   0  0  0  0  0  0  0  0  0  0  0  0
   -1.6514   -0.1488   -0.6468 H   0  0  0  0  0  0  0  0  0  0  0  0
    2.2922   -0.3147    1.7381 H   0  0  0  0  0  0  0  0  0  0  0  0
    0.5607    1.8643   -1.5022 H   0  0  0  0  0  0  0  0  0  0  0  0
    1.6245    3.1480    0.0119 H   0  0  0  0  0  0  0  0  0  0  0  0
    1.0425    2.2122    1.4818 H   0  0  0  0  0  0  0  0  0  0  0  0
    3.1859    1.4502   -0.5907 H   0  0  0  0  0  0  0  0  0  0  0  0
    3.3818    1.8747    1.2047 H   0  0  0  0  0  0  0  0  0  0  0  0
    2.9867   -1.9096   -0.1438 H   0  0  0  0  0  0  0  0  0  0  0  0
    3.5228   -1.0132   -1.9608 H   0  0  0  0  0  0  0  0  0  0  0  0
    4.2478   -1.8590    1.6844 H   0  0  0  0  0  0  0  0  0  0  0  0
    5.2855   -2.8777   -0.3185 H   0  0  0  0  0  0  0  0  0  0  0  0
    5.9280   -0.9525   -1.6301 H   0  0  0  0  0  0  0  0  0  0  0  0
    7.2686   -1.9647   -1.1376 H   0  0  0  0  0  0  0  0  0  0  0  0
    7.7664    0.4071   -1.1181 H   0  0  0  0  0  0  0  0  0  0  0  0
    8.1145   -0.3659    0.4396 H   0  0  0  0  0  0  0  0  0  0  0  0
    5.7642    1.5102   -0.3058 H   0  0  0  0  0  0  0  0  0  0  0  0
    5.6728    1.6218    2.1239 H   0  0  0  0  0  0  0  0  0  0  0  0
    7.8950    2.4610   -0.0431 H   0  0  0  0  0  0  0  0  0  0  0  0
    6.0260   -3.4305    1.8444 H   0  0  0  0  0  0  0  0  0  0  0  0
    7.2250   -3.8203   -0.2133 H   0  0  0  0  0  0  0  0  0  0  0  0
    7.0087   -1.8355    3.0715 H   0  0  0  0  0  0  0  0  0  0  0  0
   -0.9736    1.7417    2.1491 H   0  0  0  0  0  0  0  0  0  0  0  0
    0.0486    0.4652    1.5095 H   0  0  0  0  0  0  0  0  0  0  0  0
   -1.6747    0.2315    1.3021 H   0  0  0  0  0  0  0  0  0  0  0  0
  1  2  1  0
  2  3  1  0
  2  4  1  0
  4  5  1  0
  5  6  1  0
  5  7  1  0
  7  8  1  0
  8  9  1  0
  9 10  1  0
 10 11  1  0
  1 12  1  0
  7 12  1  0
 11 12  1  0
  9 13  1  0
 13 14  1  0
 15 16  1  0
 14 17  1  0
 16 17  1  0
 17 18  1  0
 15 19  1  0
 18 19  1  0
 15 20  1  0
 20 21  1  0
 20 22  1  0
 22 23  1  0
 23 24  1  0
 24 25  1  0
 25 26  1  0
 26 27  1  0
 26 28  1  0
 23 29  1  0
 29 30  1  0
 29 31  1  0
 14 32  1  0
 33 34  1  0
 34 35  1  0
 34 36  1  0
 36 37  1  0
 37 38  1  0
 37 39  1  0
 39 40  1  0
 40 41  1  0
 41 42  1  0
 42 43  1  0
 33 44  1  0
 39 44  1  0
 43 44  1  0
 41 45  1  0
 45 46  1  0
 47 48  1  0
 46 49  1  0
 48 49  1  0
 49 50  1  0
 47 51  1  0
 50 51  1  0
 47 52  1  0
 52 53  1  0
 52 54  1  0
 54 55  1  0
 55 56  1  0
 56 57  1  0
 57 58  1  0
 58 59  1  0
 58 60  1  0
 55 61  1  0
 61 62  1  0
 61 63  1  0
 46 64  1  0
 65 66  1  0
 66 67  1  0
 66 68  1  0
 68 69  1  0
 69 70  1  0
 69 71  1  0
 71 72  1  0
 72 73  1  0
 73 74  1  0
 74 75  1  0
 65 76  1  0
 71 76  1  0
 75 76  1  0
 73 77  1  0
 77 78  1  0
 79 80  1  0
 78 81  1  0
 80 81  1  0
 81 82  1  0
 79 83  1  0
 82 83  1  0
 79 84  1  0
 84 85  1  0
 84 86  1  0
 86 87  1  0
 87 88  1  0
 88 89  1  0
 89 90  1  0
 90 91  1  0
 90 92  1  0
 87 93  1  0
 93 94  1  0
 93 95  1  0
 78 96  1  0
 97 98  1  0
 98 99  1  0
 98100  1  0
100101  1  0
101102  1  0
101103  1  0
103104  1  0
104105  1  0
105106  1  0
106107  1  0
 97108  1  0
103108  1  0
107108  1  0
105109  1  0
109110  1  0
111112  1  0
110113  1  0
112113  1  0
113114  1  0
111115  1  0
114115  1  0
111116  1  0
116117  1  0
116118  1  0
118119  1  0
119120  1  0
120121  1  0
121122  1  0
122123  1  0
122124  1  0
119125  1  0
125126  1  0
125127  1  0
110128  1  0
  1129  1  0
  2130  1  0
  3131  1  0
  3132  1  0
  3133  1  0
  4134  1  0
  5135  1  0
  6136  1  0
  7137  1  0
  8138  1  0
  8139  1  0
  9140  1  0
 10141  1  0
 10142  1  0
 11143  1  0
 11144  1  0
 12145  1  0
 13146  1  0
 13147  1  0
 15148  1  0
 17149  1  0
 18150  1  0
 18151  1  0
 19152  1  0
 19153  1  0
 20154  1  0
 21155  1  0
 22156  1  0
 23157  1  6
 24158  1  0
 24159  1  0
 25160  1  0
 25161  1  0
 26162  1  0
 27163  1  0
 28164  1  0
 29165  1  0
 30166  1  0
 31167  1  0
 32168  1  0
 32169  1  0
 32170  1  0
 33171  1  0
 34172  1  0
 35173  1  0
 35174  1  0
 35175  1  0
 36176  1  0
 37177  1  0
 38178  1  0
 39179  1  0
 40180  1  0
 40181  1  0
 41182  1  0
 42183  1  0
 42184  1  0
 43185  1  0
 43186  1  0
 44187  1  0
 45188  1  0
 45189  1  0
 47190  1  0
 49191  1  0
 50192  1  0
 50193  1  0
 51194  1  0
 51195  1  0
 52196  1  0
 53197  1  0
 54198  1  0
 55199  1  6
 56200  1  0
 56201  1  0
 57202  1  0
 57203  1  0
 58204  1  0
 59205  1  0
 60206  1  0
 61207  1  0
 62208  1  0
 63209  1  0
 64210  1  0
 64211  1  0
 64212  1  0
 65213  1  0
 66214  1  0
 67215  1  0
 67216  1  0
 67217  1  0
 68218  1  0
 69219  1  0
 70220  1  0
 71221  1  0
 72222  1  0
 72223  1  0
 73224  1  0
 74225  1  0
 74226  1  0
 75227  1  0
 75228  1  0
 76229  1  0
 77230  1  0
 77231  1  0
 79232  1  0
 81233  1  0
 82234  1  0
 82235  1  0
 83236  1  0
 83237  1  0
 84238  1  0
 85239  1  0
 86240  1  0
 87241  1  6
 88242  1  0
 88243  1  0
 89244  1  0
 89245  1  0
 90246  1  0
 91247  1  0
 92248  1  0
 93249  1  0
 94250  1  0
 95251  1  0
 96252  1  0
 96253  1  0
 96254  1  0
 97255  1  0
 98256  1  0
 99257  1  0
 99258  1  0
 99259  1  0
100260  1  0
101261  1  0
102262  1  0
103263  1  0
104264  1  0
104265  1  0
105266  1  0
106267  1  0
106268  1  0
107269  1  0
107270  1  0
108271  1  0
109272  1  0
109273  1  0
111274  1  0
113275  1  0
114276  1  0
114277  1  0
115278  1  0
115279  1  0
116280  1  0
117281  1  0
118282  1  0
119283  1  6
120284  1  0
120285  1  0
121286  1  0
121287  1  0
122288  1  0
123289  1  0
124290  1  0
125291  1  0
126292  1  0
127293  1  0
128294  1  0
128295  1  0
128296  1  0
M  END
>  <PDBID>  (1) 
1HVY

>  <PDB ID>  (1) 
1HVY

>  <Generic Name>  (1) 
Raltitrexed

>  <Brand Name>  (1) 
Tomudex

>  <DrugBank ID>  (1) 
DB00293

>  <ATC Codes>  (1) 
L01BA03

>  <Ligand ID>  (1) 
D16

>  <Target Name>  (1) 
Thymidylate synthase

>  <UniProt ID>  (1) 
P04818

>  <PDB ID.1>  (1) 
1HVY

>  <Seq. Identity>  (1) 
100%

$$$$
