PDB_DB00559_01
     RDKit          3D

 94 97  0  0  0  0  0  0  0  0999 V2000
    4.7829   -0.2255    1.4788 C   0  0  0  0  0  0  0  0  0  0  0  0
   -1.1474    0.2552   -0.1425 C   0  0  0  0  0  0  0  0  0  0  0  0
   -3.5521    0.4932   -0.4473 C   0  0  0  0  0  0  0  0  0  0  0  0
   -2.4928    3.6612   -0.6900 C   0  0  0  0  0  0  0  0  0  0  0  0
   -1.3941    5.9530    0.7263 C   0  0  0  0  0  0  0  0  0  0  0  0
   -5.5963   -0.1504   -1.3884 C   0  0  0  0  0  0  0  0  0  0  0  0
    7.0663    0.3917   -0.2755 C   0  0  0  0  0  0  0  0  0  0  0  0
    6.4594   -0.9650   -0.1316 C   0  0  0  0  0  0  0  0  0  0  0  0
    6.7686   -1.7522   -1.3892 C   0  0  0  0  0  0  0  0  0  0  0  0
    7.1608   -1.6751    1.0176 C   0  0  0  0  0  0  0  0  0  0  0  0
    4.9934   -0.9497    0.1854 C   0  0  0  0  0  0  0  0  0  0  0  0
    4.1948   -0.3666   -0.9541 C   0  0  0  0  0  0  0  0  0  0  0  0
    2.7223   -0.3904   -0.6172 C   0  0  0  0  0  0  0  0  0  0  0  0
    2.4400   -0.1075    0.8170 C   0  0  0  0  0  0  0  0  0  0  0  0
    3.6253    0.7091    1.3515 C   0  0  0  0  0  0  0  0  0  0  0  0
    1.0149    0.7886    1.1080 S   0  0  0  0  0  0  0  0  0  0  0  0
    1.2722    0.9917    2.9418 O   0  0  0  0  0  0  0  0  0  0  0  0
    1.3724    2.3463    0.7041 O   0  0  0  0  0  0  0  0  0  0  0  0
   -0.3166    0.2368    1.0106 N   0  0  0  0  0  0  0  0  0  0  0  0
   -2.4825   -0.4131    0.1479 C   0  0  0  0  0  0  0  0  0  0  0  0
   -3.4943    1.7237    0.3645 N   0  0  0  0  0  0  0  0  0  0  0  0
   -2.2584    2.3732    0.0709 C   0  0  0  0  0  0  0  0  0  0  0  0
   -1.3407    1.5770   -0.7143 N   0  0  0  0  0  0  0  0  0  0  0  0
   -3.3002    4.5970    0.0493 N   0  0  0  0  0  0  0  0  0  0  0  0
   -2.6103    5.1729    1.1774 C   0  0  0  0  0  0  0  0  0  0  0  0
   -1.2764    5.7237   -0.7860 C   0  0  0  0  0  0  0  0  0  0  0  0
   -1.1977    4.2841   -0.9599 N   0  0  0  0  0  0  0  0  0  0  0  0
   -4.8076   -0.0057   -0.2958 O   0  0  0  0  0  0  0  0  0  0  0  0
   -5.9543    1.0868   -2.1348 C   0  0  0  0  0  0  0  0  0  0  0  0
   -4.8573    1.7641   -2.6292 O   0  0  0  0  0  0  0  0  0  0  0  0
   -2.5481   -1.6947   -0.3512 O   0  0  0  0  0  0  0  0  0  0  0  0
   -2.8022   -2.6633    0.5872 C   0  0  0  0  0  0  0  0  0  0  0  0
   -4.0415   -3.4346    0.1129 C   0  0  0  0  0  0  0  0  0  0  0  0
   -3.7396   -3.8082   -1.3431 C   0  0  0  0  0  0  0  0  0  0  0  0
   -2.6101   -4.8079   -1.3286 C   0  0  0  0  0  0  0  0  0  0  0  0
   -1.3738   -4.0952   -0.7738 C   0  0  0  0  0  0  0  0  0  0  0  0
   -1.6845   -3.7068    0.6454 C   0  0  0  0  0  0  0  0  0  0  0  0
   -0.5966   -3.2746    1.3615 O   0  0  0  0  0  0  0  0  0  0  0  0
   -0.4217   -4.1210    2.4777 C   0  0  0  0  0  0  0  0  0  0  0  0
    4.5544   -0.9426    2.3067 H   0  0  0  0  0  0  0  0  0  0  0  0
    5.6906    0.3279    1.7923 H   0  0  0  0  0  0  0  0  0  0  0  0
   -0.6676   -0.3566   -0.9393 H   0  0  0  0  0  0  0  0  0  0  0  0
   -3.2161    0.7430   -1.4533 H   0  0  0  0  0  0  0  0  0  0  0  0
   -2.9682    3.5104   -1.6683 H   0  0  0  0  0  0  0  0  0  0  0  0
   -1.4244    7.0108    0.9868 H   0  0  0  0  0  0  0  0  0  0  0  0
   -0.4601    5.5294    1.1769 H   0  0  0  0  0  0  0  0  0  0  0  0
   -6.5717   -0.5996   -1.0223 H   0  0  0  0  0  0  0  0  0  0  0  0
   -5.2146   -0.9252   -2.0952 H   0  0  0  0  0  0  0  0  0  0  0  0
    7.3386    0.8507    0.7046 H   0  0  0  0  0  0  0  0  0  0  0  0
    6.4825    1.0877   -0.8932 H   0  0  0  0  0  0  0  0  0  0  0  0
    8.0500    0.2600   -0.8143 H   0  0  0  0  0  0  0  0  0  0  0  0
    7.8776   -1.8080   -1.4676 H   0  0  0  0  0  0  0  0  0  0  0  0
    6.3986   -2.7905   -1.3208 H   0  0  0  0  0  0  0  0  0  0  0  0
    6.4135   -1.2236   -2.2984 H   0  0  0  0  0  0  0  0  0  0  0  0
    7.8970   -2.4124    0.6634 H   0  0  0  0  0  0  0  0  0  0  0  0
    7.6782   -0.9668    1.6956 H   0  0  0  0  0  0  0  0  0  0  0  0
    6.4340   -2.2257    1.6584 H   0  0  0  0  0  0  0  0  0  0  0  0
    4.6716   -2.0100    0.2971 H   0  0  0  0  0  0  0  0  0  0  0  0
    4.3352   -1.0371   -1.8275 H   0  0  0  0  0  0  0  0  0  0  0  0
    4.4894    0.6472   -1.2320 H   0  0  0  0  0  0  0  0  0  0  0  0
    2.2288   -1.3253   -0.9556 H   0  0  0  0  0  0  0  0  0  0  0  0
    2.2291    0.4297   -1.2171 H   0  0  0  0  0  0  0  0  0  0  0  0
    2.4783   -1.0629    1.3827 H   0  0  0  0  0  0  0  0  0  0  0  0
    3.8619    1.4566    0.5626 H   0  0  0  0  0  0  0  0  0  0  0  0
    3.3633    1.2240    2.2898 H   0  0  0  0  0  0  0  0  0  0  0  0
    1.2768    0.0352    3.2036 H   0  0  0  0  0  0  0  0  0  0  0  0
    2.1074    2.4390    0.0707 H   0  0  0  0  0  0  0  0  0  0  0  0
   -0.8418   -0.2271    1.8118 H   0  0  0  0  0  0  0  0  0  0  0  0
   -2.6576   -0.4562    1.2424 H   0  0  0  0  0  0  0  0  0  0  0  0
   -3.5425    1.4574    1.3704 H   0  0  0  0  0  0  0  0  0  0  0  0
   -1.7961    2.6868    1.0457 H   0  0  0  0  0  0  0  0  0  0  0  0
   -0.4221    2.0338   -0.7592 H   0  0  0  0  0  0  0  0  0  0  0  0
   -4.1911    4.1847    0.3518 H   0  0  0  0  0  0  0  0  0  0  0  0
   -2.3780    4.4387    1.9640 H   0  0  0  0  0  0  0  0  0  0  0  0
   -3.3146    5.9171    1.6302 H   0  0  0  0  0  0  0  0  0  0  0  0
   -2.2076    6.1426   -1.2267 H   0  0  0  0  0  0  0  0  0  0  0  0
   -0.3684    6.1895   -1.1976 H   0  0  0  0  0  0  0  0  0  0  0  0
   -0.8933    4.1212   -1.9447 H   0  0  0  0  0  0  0  0  0  0  0  0
   -6.5244    1.8178   -1.5207 H   0  0  0  0  0  0  0  0  0  0  0  0
   -6.6220    0.8665   -3.0037 H   0  0  0  0  0  0  0  0  0  0  0  0
   -5.1125    2.2747   -3.4272 H   0  0  0  0  0  0  0  0  0  0  0  0
   -2.9209   -2.2930    1.6182 H   0  0  0  0  0  0  0  0  0  0  0  0
   -4.2024   -4.3236    0.7304 H   0  0  0  0  0  0  0  0  0  0  0  0
   -4.8844   -2.7284    0.0864 H   0  0  0  0  0  0  0  0  0  0  0  0
   -4.6581   -4.1972   -1.7883 H   0  0  0  0  0  0  0  0  0  0  0  0
   -3.4405   -2.8714   -1.8371 H   0  0  0  0  0  0  0  0  0  0  0  0
   -2.4250   -5.2159   -2.3424 H   0  0  0  0  0  0  0  0  0  0  0  0
   -2.8477   -5.6244   -0.6052 H   0  0  0  0  0  0  0  0  0  0  0  0
   -1.2020   -3.1896   -1.3824 H   0  0  0  0  0  0  0  0  0  0  0  0
   -0.4916   -4.7561   -0.8311 H   0  0  0  0  0  0  0  0  0  0  0  0
   -2.1475   -4.6113    1.1283 H   0  0  0  0  0  0  0  0  0  0  0  0
   -1.3502   -4.0524    3.0819 H   0  0  0  0  0  0  0  0  0  0  0  0
    0.4343   -3.8011    3.0920 H   0  0  0  0  0  0  0  0  0  0  0  0
   -0.3023   -5.1704    2.1432 H   0  0  0  0  0  0  0  0  0  0  0  0
  8  7  1  0
  8  9  1  0
  8 10  1  0
  1 11  1  0
  8 11  1  0
 11 12  1  0
 12 13  1  0
 13 14  1  0
  1 15  1  0
 14 15  1  0
 14 16  1  0
 16 17  1  0
 16 18  1  0
  2 19  1  0
 16 19  1  0
  2 20  1  0
  3 20  1  0
  3 21  1  0
  4 22  1  0
 21 22  1  0
  2 23  1  0
 22 23  1  0
  4 24  1  0
  5 25  1  0
 24 25  1  0
  5 26  1  0
  4 27  1  0
 26 27  1  0
  3 28  1  0
  6 28  1  0
  6 29  1  0
 29 30  1  0
 20 31  1  0
 31 32  1  0
 32 33  1  0
 33 34  1  0
 34 35  1  0
 35 36  1  0
 32 37  1  0
 36 37  1  0
 37 38  1  0
 38 39  1  0
  1 40  1  0
  1 41  1  0
  2 42  1  0
  3 43  1  0
  4 44  1  0
  5 45  1  0
  5 46  1  0
  6 47  1  0
  6 48  1  0
  7 49  1  0
  7 50  1  0
  7 51  1  0
  9 52  1  0
  9 53  1  0
  9 54  1  0
 10 55  1  0
 10 56  1  0
 10 57  1  0
 11 58  1  0
 12 59  1  0
 12 60  1  0
 13 61  1  0
 13 62  1  0
 14 63  1  0
 15 64  1  0
 15 65  1  0
 17 66  1  0
 18 67  1  0
 19 68  1  0
 20 69  1  0
 21 70  1  0
 22 71  1  0
 23 72  1  0
 24 73  1  0
 25 74  1  0
 25 75  1  0
 26 76  1  0
 26 77  1  0
 27 78  1  0
 29 79  1  0
 29 80  1  0
 30 81  1  0
 32 82  1  0
 33 83  1  0
 33 84  1  0
 34 85  1  0
 34 86  1  0
 35 87  1  0
 35 88  1  0
 36 89  1  0
 36 90  1  0
 37 91  1  0
 39 92  1  0
 39 93  1  0
 39 94  1  0
M  END
>  <PDBID>  (1) 
5XPR

>  <PDB ID>  (1) 
5XPR

>  <Generic Name>  (1) 
Bosentan

>  <Brand Name>  (1) 
Accel-bosentan#Act Bosentan#Apo-bosentan#Bosentan Tablets#Ipg-bosentan#Mar-bosentan#Mylan-bosentan#PMS-bosentan#Sandoz Bosentan#Teva-bosentan#Tracleer

>  <DrugBank ID>  (1) 
DB00559

>  <ATC Codes>  (1) 
C02KX01

>  <Ligand ID>  (1) 
K86

>  <Target Name>  (1) 
Endothelin B receptor

>  <UniProt ID>  (1) 
P24530

>  <PDB ID.1>  (1) 
5XPR

>  <Seq. Identity>  (1) 
85%

$$$$
