PDB_DB01336_01
     RDKit          3D

  0  0  0  0  0  0  0  0  0  0999 V3000
M  V30 BEGIN CTAB
M  V30 COUNTS 960 1008 0 0 0
M  V30 BEGIN ATOM
M  V30 1 N 4.60405 -2.48627 -0.728996 0 CHG=1
M  V30 2 C 5.76219 -1.70182 -1.03897 0
M  V30 3 C 6.15733 -0.686909 -0.0463094 0
M  V30 4 C 5.06021 -0.163629 0.830488 0
M  V30 5 C 3.74589 -0.344483 0.107692 0
M  V30 6 C 3.47267 -1.76796 -0.26453 0 CFG=2
M  V30 7 C 5.238 1.33765 1.0101 0
M  V30 8 C 3.92229 2.08552 0.890464 0
M  V30 9 C 3.29931 1.97182 -0.472188 0
M  V30 10 C 3.75272 0.618459 -1.04998 0
M  V30 11 O 1.92685 1.9336 -0.47223 0
M  V30 12 C 1.28597 3.13886 -0.58987 0
M  V30 13 C 1.0867 3.62181 -1.98569 0
M  V30 14 C -0.379427 4.02418 -2.14273 0
M  V30 15 C -1.18183 2.75204 -1.97018 0
M  V30 16 C -1.09771 2.354 -0.51729 0
M  V30 17 C 0.0146213 3.05803 0.208173 0
M  V30 18 C -2.43313 2.59055 0.11838 0
M  V30 19 C -2.87365 1.38144 0.960267 0 CFG=1
M  V30 20 N -3.74963 1.85018 1.96265 0 CHG=1
M  V30 21 C -4.91579 2.42945 1.34623 0
M  V30 22 C -5.68308 1.39477 0.609476 0
M  V30 23 C -4.84162 0.611883 -0.390616 0 CFG=1
M  V30 24 C -3.45354 0.354841 0.0118525 0
M  V30 25 C -5.66439 -0.594348 -0.743892 0
M  V30 26 C -4.83674 -1.79579 -1.09387 0
M  V30 27 C -4.00815 -2.10687 0.151236 0
M  V30 28 C -3.11034 -0.998767 0.543392 0
M  V30 29 O -1.79558 -1.34247 0.146362 0
M  V30 30 C -1.30749 -2.4638 0.757697 0
M  V30 31 C -0.174494 -2.13273 1.74069 0
M  V30 32 C 0.724402 -3.37275 1.79752 0
M  V30 33 C 1.62842 -3.28382 0.558566 0
M  V30 34 C 0.781631 -2.72757 -0.545275 0
M  V30 35 C -0.63029 -3.29401 -0.343462 0
M  V30 36 C 2.79248 -2.43134 0.940801 0
M  V30 37 O 4.22814 3.4326 1.10681 0
M  V30 38 C 3.63749 3.92096 2.2746 0
M  V30 39 O 1.37352 2.59397 -2.87144 0
M  V30 40 O -4.07624 -1.64914 -2.21417 0
M  V30 41 C -4.42438 -2.62946 -3.13835 0
M  V30 42 O -4.92449 -2.47624 1.1298 0
M  V30 43 C 5.04238 -3.55879 0.154912 0
M  V30 44 C -3.07379 2.93857 2.672 0
M  V30 45 C -4.14925 0.901505 2.95737 0
M  V30 46 C -4.90495 -3.79869 1.46173 0
M  V30 47 C 4.22859 -3.16008 -1.98637 0
M  V30 48 C 2.31123 2.92613 -3.82656 0
M  V30 49 N 4.58398 -2.94792 -0.527168 0 CHG=1
M  V30 50 C 5.923 -2.45798 -0.375259 0
M  V30 51 C 6.07264 -1.26785 0.511162 0
M  V30 52 C 5.25731 -0.141448 -0.0762375 0 CFG=1
M  V30 53 C 4.08577 -0.621944 -0.87268 0 CFG=1
M  V30 54 C 3.55045 -1.97819 -0.373967 0 CFG=2
M  V30 55 C 4.9126 0.805847 1.02015 0
M  V30 56 C 4.06288 1.96852 0.596584 0 CFG=1
M  V30 57 C 3.19345 1.72722 -0.586061 0
M  V30 58 C 3.00488 0.358985 -1.07049 0
M  V30 59 O 1.92079 2.25461 -0.245802 0
M  V30 60 C 1.18711 2.63623 -1.33704 0
M  V30 61 C 1.25051 4.14491 -1.43721 0
M  V30 62 C 0.355875 4.84027 -0.455935 0
M  V30 63 C -1.05431 4.33769 -0.675022 0
M  V30 64 C -1.07622 2.85386 -0.278633 0 CFG=2
M  V30 65 C -0.235261 2.13087 -1.305 0
M  V30 66 C -2.5093 2.41375 -0.408156 0
M  V30 67 C -2.84934 1.18539 0.42144 0 CFG=1
M  V30 68 N -3.57661 1.58427 1.56374 0 CHG=1
M  V30 69 C -4.9243 1.99309 1.29889 0
M  V30 70 C -5.66432 0.853554 0.661876 0
M  V30 71 C -4.97263 0.32718 -0.579231 0 CFG=1
M  V30 72 C -3.50674 0.127887 -0.442897 0 CFG=2
M  V30 73 C -5.74996 -0.82739 -1.07905 0
M  V30 74 C -4.91969 -2.04214 -1.42374 0 CFG=1
M  V30 75 C -4.08171 -2.32735 -0.199888 0
M  V30 76 C -3.01781 -1.26396 -0.178095 0 CFG=2
M  V30 77 O -2.30254 -1.41441 1.00556 0
M  V30 78 C -0.970919 -1.65841 0.852502 0
M  V30 79 C -0.104552 -1.25031 1.98687 0
M  V30 80 C 0.938519 -2.25549 2.36904 0
M  V30 81 C 1.69959 -2.80028 1.15369 0
M  V30 82 C 0.82021 -3.01837 -0.0235776 0
M  V30 83 C -0.623642 -3.10021 0.507115 0
M  V30 84 C 2.8873 -1.90794 0.938582 0
M  V30 85 O 3.34442 2.36135 1.72253 0
M  V30 86 C 3.74835 3.61176 2.10991 0
M  V30 87 O 0.867535 4.50204 -2.7235 0
M  V30 88 O -5.77326 -3.07215 -1.74379 0
M  V30 89 C -5.48754 -3.52508 -3.02482 0
M  V30 90 O -4.85689 -2.4167 0.913995 0
M  V30 91 C 4.44594 -4.11285 0.326974 0
M  V30 92 C -2.84927 2.69047 2.2086 0
M  V30 93 C -3.63885 0.605541 2.6459 0
M  V30 94 C -4.84862 -3.65815 1.51626 0
M  V30 95 C 4.53281 -3.51548 -1.89348 0
M  V30 96 C 1.8879 5.152 -3.39777 0
M  V30 97 N 4.69377 -2.75118 -0.749463 0 CHG=1
M  V30 98 C 5.94314 -2.06565 -0.936126 0
M  V30 99 C 6.28337 -1.05385 0.0859531 0
M  V30 100 C 5.17292 -0.241848 0.640006 0
M  V30 101 C 3.92529 -0.476992 -0.133288 0
M  V30 102 C 3.60508 -1.9339 -0.354011 0 CFG=2
M  V30 103 C 5.47864 1.25439 0.545409 0
M  V30 104 C 4.19804 2.07272 0.296022 0
M  V30 105 C 3.57098 1.76076 -0.999207 0
M  V30 106 C 4.02007 0.330164 -1.3901 0
M  V30 107 O 2.2438 1.76343 -1.14303 0
M  V30 108 C 1.42575 2.49205 -0.351438 0
M  V30 109 C 1.24887 3.86197 -0.93565 0
M  V30 110 C 0.0702304 4.59511 -0.315913 0
M  V30 111 C -1.14402 3.75951 -0.714132 0
M  V30 112 C -1.07381 2.49272 0.121274 0
M  V30 113 C 0.126911 1.71075 -0.267442 0
M  V30 114 C -2.30686 1.70284 -0.139285 0
M  V30 115 C -3.00519 1.13911 1.06693 0 CFG=1
M  V30 116 N -3.94373 2.13048 1.62413 0 CHG=1
M  V30 117 C -4.81649 2.68803 0.642271 0
M  V30 118 C -5.41608 1.75657 -0.340081 0
M  V30 119 C -4.67409 0.46958 -0.567669 0
M  V30 120 C -3.9141 0.00772815 0.627079 0 CFG=1
M  V30 121 C -5.64492 -0.55218 -1.10854 0
M  V30 122 C -5.13295 -1.95038 -1.10365 0
M  V30 123 C -4.26708 -2.30336 0.0966046 0
M  V30 124 C -3.18674 -1.26176 0.247029 0 CFG=2
M  V30 125 O -2.13657 -1.46623 0.988379 0
M  V30 126 C -1.38107 -2.54136 1.09475 0
M  V30 127 C -0.198556 -2.20294 2.03431 0
M  V30 128 C 0.84642 -3.32195 1.91566 0
M  V30 129 C 1.60228 -3.16004 0.587295 0
M  V30 130 C 0.682508 -2.45582 -0.348964 0
M  V30 131 C -0.709438 -3.02789 -0.172394 0
M  V30 132 C 2.88424 -2.42469 0.883307 0
M  V30 133 O 4.65853 3.40394 0.258489 0
M  V30 134 C 4.28428 4.15758 1.33596 0
M  V30 135 O 0.971687 3.75064 -2.28198 0
M  V30 136 O -4.48897 -2.20546 -2.31332 0
M  V30 137 C -5.12394 -3.2001 -3.05012 0
M  V30 138 O -4.97405 -2.6174 1.19967 0
M  V30 139 C 4.95336 -3.87996 0.156213 0
M  V30 140 C -3.26689 3.21171 2.30046 0
M  V30 141 C -4.7832 1.48431 2.6326 0
M  V30 142 C -4.99601 -3.82548 1.74356 0
M  V30 143 C 4.36612 -3.37839 -2.02163 0
M  V30 144 C 1.84192 4.45109 -3.09886 0
M  V30 145 N 4.75713 -2.60493 -0.70065 0 CHG=1
M  V30 146 C 5.87361 -1.80625 -1.1453 0
M  V30 147 C 6.37102 -0.816519 -0.17094 0
M  V30 148 C 5.33752 -0.230941 0.733144 0
M  V30 149 C 3.96449 -0.454421 0.201302 0
M  V30 150 C 3.66536 -1.89143 -0.155095 0 CFG=2
M  V30 151 C 5.54082 1.28175 0.821844 0
M  V30 152 C 4.20971 1.9998 0.927709 0
M  V30 153 C 3.38715 1.86036 -0.334799 0
M  V30 154 C 3.73388 0.496461 -0.951753 0
M  V30 155 O 2.02804 1.84773 -0.108704 0
M  V30 156 C 1.42845 3.07239 -0.279346 0 CFG=1
M  V30 157 C 0.943755 3.2919 -1.69491 0 CFG=1
M  V30 158 C -0.376366 4.04991 -1.65996 0
M  V30 159 C -1.44103 3.08836 -1.10035 0
M  V30 160 C -0.918268 2.31317 0.0426294 0
M  V30 161 C 0.233677 3.17761 0.625989 0
M  V30 162 C -1.80005 2.07352 1.20541 0
M  V30 163 C -3.08939 1.33794 1.02287 0 CFG=1
M  V30 164 N -4.26986 2.13617 1.18839 0 CHG=1
M  V30 165 C -5.04052 2.3948 0.00638174 0
M  V30 166 C -5.43903 1.03903 -0.56087 0
M  V30 167 C -4.13188 0.553954 -1.15815 0
M  V30 168 C -3.08454 0.366858 -0.099756 0
M  V30 169 C -4.33091 -0.702546 -1.96787 0
M  V30 170 C -4.96668 -1.70225 -1.06955 0
M  V30 171 C -4.0868 -1.96461 0.0850556 0
M  V30 172 C -2.94255 -1.07872 0.346089 0
M  V30 173 O -1.78462 -1.66855 -0.162557 0
M  V30 174 C -1.2496 -2.67557 0.580374 0
M  V30 175 C -0.311864 -2.0896 1.61461 0
M  V30 176 C 0.791998 -3.06258 1.97861 0
M  V30 177 C 1.75133 -3.24719 0.793102 0
M  V30 178 C 0.996423 -2.82262 -0.424888 0
M  V30 179 C -0.370957 -3.50964 -0.363954 0
M  V30 180 C 3.02975 -2.53994 1.05683 0
M  V30 181 O 4.50065 3.35461 1.07302 0
M  V30 182 C 4.00661 3.84026 2.28398 0
M  V30 183 O 1.8761 4.01507 -2.40242 0
M  V30 184 O -5.12374 -2.88967 -1.80771 0
M  V30 185 C -6.47035 -3.20758 -1.96434 0
M  V30 186 O -4.92239 -1.99248 1.21551 0
M  V30 187 C 5.31088 -3.63909 0.168361 0
M  V30 188 C -4.01896 3.46042 1.76427 0
M  V30 189 C -5.2352 1.54223 2.13742 0
M  V30 190 C -4.99854 -3.22933 1.80311 0
M  V30 191 C 4.31279 -3.3262 -1.90924 0
M  V30 192 C 2.35841 3.37799 -3.52876 0
M  V30 193 N 4.71022 -2.77845 -0.305833 0 CHG=1
M  V30 194 C 5.98146 -2.33694 0.139886 0
M  V30 195 C 5.9983 -0.965412 0.787787 0
M  V30 196 C 5.29201 -0.0653483 -0.236441 0 CFG=1
M  V30 197 C 3.85227 -0.469548 -0.196529 0
M  V30 198 C 3.58761 -1.93327 -0.0936603 0 CFG=2
M  V30 199 C 5.41772 1.38398 0.0699901 0
M  V30 200 C 4.09903 2.16249 -0.0927644 0
M  V30 201 C 3.39449 1.69459 -1.3042 0
M  V30 202 C 3.1936 0.190588 -1.39606 0
M  V30 203 O 2.22942 2.28517 -1.64711 0
M  V30 204 C 1.35006 2.68981 -0.698888 0 CFG=1
M  V30 205 C 1.038 4.15257 -1.05891 0
M  V30 206 C -0.0220668 4.66271 -0.130005 0
M  V30 207 C -1.27883 3.86336 -0.508549 0
M  V30 208 C -1.04728 2.44345 0.0286871 0 CFG=2
M  V30 209 C 0.114775 1.82839 -0.749521 0
M  V30 210 C -2.29802 1.66601 -0.158211 0
M  V30 211 C -2.79934 0.894952 1.01769 0 CFG=1
M  V30 212 N -3.67676 1.70055 1.88433 0 CHG=1
M  V30 213 C -4.69022 2.37393 1.10946 0
M  V30 214 C -5.39427 1.54101 0.106079 0
M  V30 215 C -4.61309 0.461715 -0.548445 0 CFG=1
M  V30 216 C -3.72608 -0.186033 0.466777 0
M  V30 217 C -5.62399 -0.592114 -1.03064 0
M  V30 218 C -4.84826 -1.75521 -1.62073 0 CFG=1
M  V30 219 C -4.06972 -2.37838 -0.494689 0
M  V30 220 C -2.98278 -1.39577 -0.0304709 0 CFG=2
M  V30 221 O -2.38731 -2.00932 1.07405 0
M  V30 222 C -1.03827 -2.04811 0.880196 0
M  V30 223 C -0.200797 -1.90275 2.12091 0
M  V30 224 C 0.804625 -3.00045 2.28709 0
M  V30 225 C 1.6965 -3.17413 1.04927 0
M  V30 226 C 0.914558 -2.96877 -0.203522 0
M  V30 227 C -0.550208 -3.28341 0.153902 0
M  V30 228 C 2.8273 -2.20267 1.1878 0
M  V30 229 O 4.55026 3.48281 -0.337477 0
M  V30 230 C 4.2833 4.29193 0.745723 0
M  V30 231 O 0.513927 4.18472 -2.35156 0
M  V30 232 O -5.74544 -2.6992 -2.11248 0
M  V30 233 C -5.57997 -2.91696 -3.4765 0
M  V30 234 O -4.95827 -2.46899 0.59972 0
M  V30 235 C 4.52603 -4.12271 0.260086 0
M  V30 236 C -2.94578 2.67019 2.65331 0
M  V30 237 C -4.33814 0.824633 2.84873 0
M  V30 238 C -5.04893 -3.76876 1.06978 0
M  V30 239 C 4.81868 -3.06365 -1.74984 0
M  V30 240 C 1.36941 4.90739 -3.1983 0
M  V30 241 N 4.68114 -2.55673 -0.705853 0 CHG=1
M  V30 242 C 5.83657 -1.80058 -1.07503 0
M  V30 243 C 6.30886 -0.803098 -0.0981819 0
M  V30 244 C 5.26173 -0.212758 0.794613 0 CFG=2
M  V30 245 C 3.90261 -0.392711 0.165751 0
M  V30 246 C 3.59209 -1.81606 -0.187902 0 CFG=2
M  V30 247 C 5.4521 1.28448 0.985155 0
M  V30 248 C 4.13121 2.03615 0.939842 0
M  V30 249 C 3.44316 1.93749 -0.382615 0
M  V30 250 C 3.80827 0.569793 -0.981725 0
M  V30 251 O 2.05578 1.91279 -0.25278 0
M  V30 252 C 1.44403 3.12687 -0.4288 0
M  V30 253 C 1.22505 3.51653 -1.86822 0 CFG=1
M  V30 254 C -0.280511 3.78562 -2.00775 0
M  V30 255 C -0.983243 2.48582 -1.72515 0
M  V30 256 C -0.911756 2.26883 -0.207397 0 CFG=1
M  V30 257 C 0.173343 3.15274 0.391957 0
M  V30 258 C -2.25373 2.61993 0.349996 0
M  V30 259 C -2.99 1.42112 0.946115 0 CFG=1
M  V30 260 N -4.18899 1.83785 1.61431 0 CHG=1
M  V30 261 C -5.28678 2.11257 0.736514 0
M  V30 262 C -5.63046 0.956197 -0.167484 0
M  V30 263 C -4.40659 0.609742 -0.940515 0 CFG=1
M  V30 264 C -3.17786 0.373052 -0.117623 0
M  V30 265 C -4.59182 -0.538079 -1.90774 0
M  V30 266 C -4.97488 -1.73746 -1.06928 0
M  V30 267 C -4.08929 -1.99724 0.088221 0
M  V30 268 C -3.01104 -1.01913 0.37889 0
M  V30 269 O -1.81218 -1.53078 -0.115631 0
M  V30 270 C -1.26007 -2.55569 0.588232 0
M  V30 271 C -0.218976 -2.08821 1.61585 0
M  V30 272 C 0.736596 -3.25098 1.83182 0
M  V30 273 C 1.71724 -3.27964 0.650288 0
M  V30 274 C 0.954137 -2.80288 -0.543731 0
M  V30 275 C -0.457798 -3.3954 -0.419814 0
M  V30 276 C 2.91259 -2.46248 1.00453 0
M  V30 277 O 4.46814 3.38882 1.13141 0
M  V30 278 C 3.92845 3.87513 2.32449 0
M  V30 279 O 1.90707 4.64902 -2.24479 0
M  V30 280 O -5.06622 -2.8887 -1.84899 0
M  V30 281 C -6.34423 -3.37391 -1.98791 0
M  V30 282 O -4.91828 -2.16053 1.20404 0
M  V30 283 C 5.14785 -3.62271 0.196119 0
M  V30 284 C -3.8916 3.11697 2.28698 0
M  V30 285 C -4.63919 0.947001 2.65949 0
M  V30 286 C -4.9196 -3.42646 1.72949 0
M  V30 287 C 4.27938 -3.28593 -1.92513 0
M  V30 288 C 2.61785 4.40337 -3.39972 0
M  V30 289 N 4.88315 -2.62829 -0.395994 0 CHG=1
M  V30 290 C 6.01621 -1.81755 -0.757106 0
M  V30 291 C 6.29411 -0.655489 0.101234 0
M  V30 292 C 5.14911 -0.177607 0.942986 0
M  V30 293 C 3.85504 -0.486004 0.284323 0
M  V30 294 C 3.68096 -1.90127 -0.141914 0 CFG=2
M  V30 295 C 5.32868 1.27648 1.19398 0
M  V30 296 C 4.08524 2.1218 0.944301 0
M  V30 297 C 3.69938 1.91843 -0.472454 0
M  V30 298 C 3.5711 0.464079 -0.878941 0
M  V30 299 O 2.83934 2.74674 -1.07085 0
M  V30 300 C 1.62065 3.06599 -0.66941 0 CFG=1
M  V30 301 C 1.02086 3.92872 -1.80619 0
M  V30 302 C -0.429978 4.16715 -1.62806 0
M  V30 303 C -1.22223 2.90666 -1.28882 0
M  V30 304 C -0.694418 2.40897 -0.000568705 0 CFG=2
M  V30 305 C 0.72101 1.90258 -0.415417 0
M  V30 306 C -1.32934 1.4473 0.832531 0
M  V30 307 C -2.7943 1.11611 0.819441 0 CFG=1
M  V30 308 N -3.68156 2.09132 1.32902 0 CHG=1
M  V30 309 C -4.73002 2.57681 0.487507 0
M  V30 310 C -5.474 1.37534 -0.0687624 0
M  V30 311 C -4.49813 0.734602 -1.00879 0
M  V30 312 C -3.21233 0.349734 -0.405957 0
M  V30 313 C -5.21774 -0.367973 -1.74804 0
M  V30 314 C -5.47353 -1.54543 -0.889747 0
M  V30 315 C -4.42288 -1.75034 0.214575 0 CFG=2
M  V30 316 C -3.13295 -1.16142 -0.263794 0 CFG=2
M  V30 317 O -2.01489 -1.47028 0.386451 0
M  V30 318 C -1.40494 -2.64392 0.405717 0
M  V30 319 C -0.328129 -2.60045 1.5099 0
M  V30 320 C 0.631386 -3.72533 1.23533 0
M  V30 321 C 1.5661 -3.2415 0.139891 0
M  V30 322 C 0.781114 -2.31081 -0.731202 0
M  V30 323 C -0.631807 -2.8374 -0.884651 0
M  V30 324 C 2.76067 -2.63648 0.803937 0
M  V30 325 O 3.20458 1.8893 1.9331 0
M  V30 326 C 3.06753 2.95718 2.78216 0
M  V30 327 O 1.34129 3.43127 -3.04371 0
M  V30 328 O -5.63853 -2.69914 -1.64912 0
M  V30 329 C -6.87232 -3.2778 -1.53404 0
M  V30 330 O -4.32643 -3.1197 0.354807 0
M  V30 331 C 5.29336 -3.50749 0.680055 0
M  V30 332 C -2.9995 3.32414 1.77998 0
M  V30 333 C -4.37511 1.67454 2.57307 0
M  V30 334 C -4.69474 -3.44844 1.65824 0
M  V30 335 C 4.68144 -3.52098 -1.55517 0
M  V30 336 C 2.17262 4.29926 -3.7539 0
M  V30 337 N 4.65761 -2.73372 -0.581299 0 CHG=1
M  V30 338 C 5.88421 -2.08268 -0.294189 0
M  V30 339 C 5.86361 -1.12015 0.846956 0
M  V30 340 C 4.72106 -0.190021 0.933926 0
M  V30 341 C 3.66801 -0.54098 -0.0543466 0
M  V30 342 C 3.47579 -2.02998 -0.165255 0 CFG=2
M  V30 343 C 5.17135 1.23453 0.603366 0
M  V30 344 C 4.00553 2.09877 0.128559 0
M  V30 345 C 3.39919 1.60693 -1.1326 0
M  V30 346 C 3.92458 0.165455 -1.32895 0
M  V30 347 O 2.0534 1.51164 -1.20903 0
M  V30 348 C 1.27529 2.51054 -0.714582 0 CFG=1
M  V30 349 C 1.16008 3.72679 -1.59235 0 CFG=1
M  V30 350 C 0.387482 4.76059 -0.77364 0
M  V30 351 C -1.03306 4.25731 -0.716933 0
M  V30 352 C -1.14462 2.87936 -0.0986465 0 CFG=2
M  V30 353 C -0.147201 1.92416 -0.653206 0
M  V30 354 C -2.52905 2.37729 -0.416927 0
M  V30 355 C -3.08074 1.40576 0.59064 0 CFG=1
M  V30 356 N -3.96967 2.00333 1.54609 0 CHG=1
M  V30 357 C -5.33876 2.11625 1.12261 0
M  V30 358 C -5.92795 0.832015 0.620188 0
M  V30 359 C -5.04122 0.348022 -0.49457 0
M  V30 360 C -3.60304 0.195943 -0.0995145 0
M  V30 361 C -5.65027 -0.833926 -1.14268 0
M  V30 362 C -4.78157 -2.06241 -1.13442 0
M  V30 363 C -4.07203 -2.26016 0.18309 0
M  V30 364 C -3.25806 -1.07699 0.601496 0
M  V30 365 O -1.87332 -1.27474 0.36121 0
M  V30 366 C -1.34773 -2.31896 1.06289 0
M  V30 367 C -0.24334 -1.78667 1.97955 0
M  V30 368 C 0.755884 -2.88043 2.28443 0
M  V30 369 C 1.60998 -3.19623 1.05675 0
M  V30 370 C 0.783745 -2.85974 -0.14221 0
M  V30 371 C -0.648324 -3.33279 0.150757 0
M  V30 372 C 2.9194 -2.50278 1.16128 0
M  V30 373 O 4.59841 3.35308 -0.120562 0
M  V30 374 C 4.20221 4.335 0.748274 0
M  V30 375 O 2.34358 4.23071 -2.05846 0
M  V30 376 O -3.90425 -2.02852 -2.20692 0
M  V30 377 C -4.17992 -3.09817 -3.05062 0
M  V30 378 O -5.00007 -2.67416 1.09947 0
M  V30 379 C 4.69996 -4.10489 -0.090778 0
M  V30 380 C -3.54527 3.33163 1.94075 0
M  V30 381 C -3.99923 1.25559 2.81587 0
M  V30 382 C -4.86201 -3.94349 1.57374 0
M  V30 383 C 4.57089 -2.8672 -2.04085 0
M  V30 384 C 2.34628 4.27594 -3.44124 0
M  V30 385 H 5.64483 -1.3119 -2.09062 0
M  V30 386 H 6.61959 -2.43477 -1.1349 0
M  V30 387 H 6.61732 0.181512 -0.604686 0
M  V30 388 H 6.97703 -1.03662 0.630426 0
M  V30 389 H 5.04272 -0.698474 1.80029 0
M  V30 390 H 2.94671 -0.0278118 0.833824 0
M  V30 391 H 2.6547 -1.73282 -1.04607 0
M  V30 392 H 5.57728 1.48001 2.05781 0
M  V30 393 H 5.97153 1.70755 0.26977 0
M  V30 394 H 3.28454 1.77272 1.71859 0
M  V30 395 H 3.68134 2.80504 -1.10442 0
M  V30 396 H 3.10696 0.31534 -1.88431 0
M  V30 397 H 4.80003 0.827802 -1.41923 0
M  V30 398 H 1.93041 3.90741 -0.0681627 0
M  V30 399 H 1.70632 4.52858 -2.24531 0
M  V30 400 H -0.554355 4.49573 -3.13029 0
M  V30 401 H -0.626809 4.78996 -1.38585 0
M  V30 402 H -2.22452 2.88913 -2.31189 0
M  V30 403 H -0.681151 1.98343 -2.62734 0
M  V30 404 H -0.904348 1.25273 -0.4967 0
M  V30 405 H -0.346812 4.06485 0.497594 0
M  V30 406 H 0.230552 2.47265 1.13149 0
M  V30 407 H -3.19515 2.65439 -0.695716 0
M  V30 408 H -2.50427 3.53464 0.666657 0
M  V30 409 H -1.93479 0.964659 1.38867 0
M  V30 410 H -4.65922 3.24228 0.636809 0
M  V30 411 H -5.54774 2.85796 2.12352 0
M  V30 412 H -6.50955 1.9376 0.0561529 0
M  V30 413 H -6.24905 0.682975 1.26707 0
M  V30 414 H -4.868 1.26254 -1.3212 0
M  V30 415 H -2.8185 0.46282 -0.926856 0
M  V30 416 H -6.33822 -0.908558 0.104232 0
M  V30 417 H -6.35791 -0.416421 -1.59758 0
M  V30 418 H -5.52943 -2.65201 -1.21091 0
M  V30 419 H -3.46724 -3.04163 -0.118406 0
M  V30 420 H -3.01571 -1.02426 1.6695 0
M  V30 421 H -2.02962 -3.05273 1.32711 0
M  V30 422 H 0.371077 -1.24026 1.44012 0
M  V30 423 H -0.595183 -2.00773 2.76378 0
M  V30 424 H 0.131039 -4.28435 1.81641 0
M  V30 425 H 1.35004 -3.35211 2.72329 0
M  V30 426 H 1.89551 -4.32564 0.284491 0
M  V30 427 H 1.08958 -3.05121 -1.55042 0
M  V30 428 H 0.684438 -1.6298 -0.536441 0
M  V30 429 H -0.571253 -4.35213 -0.0943993 0
M  V30 430 H -1.19663 -3.21466 -1.29996 0
M  V30 431 H 2.38939 -1.6309 1.63117 0
M  V30 432 H 3.49031 -3.00985 1.55 0
M  V30 433 H 2.54919 3.85243 2.26324 0
M  V30 434 H 3.93005 4.98912 2.34184 0
M  V30 435 H 4.08469 3.43788 3.19209 0
M  V30 436 H -4.25745 -3.66177 -2.72513 0
M  V30 437 H -3.87604 -2.55167 -4.08791 0
M  V30 438 H -5.52194 -2.59837 -3.39093 0
M  V30 439 H 4.29247 -4.36304 0.255517 0
M  V30 440 H 5.46673 -3.19893 1.09614 0
M  V30 441 H 5.90514 -4.04332 -0.394406 0
M  V30 442 H -1.99564 2.93529 2.54336 0
M  V30 443 H -3.48746 3.93315 2.40067 0
M  V30 444 H -3.24826 2.86892 3.78684 0
M  V30 445 H -3.25107 0.497487 3.50349 0
M  V30 446 H -4.68185 1.49941 3.75916 0
M  V30 447 H -4.85864 0.142048 2.64721 0
M  V30 448 H -5.1348 -4.43651 0.557887 0
M  V30 449 H -4.04306 -4.15165 2.02605 0
M  V30 450 H -5.80168 -3.96992 2.13003 0
M  V30 451 H 3.932 -2.41152 -2.74989 0
M  V30 452 H 3.38051 -3.8332 -1.83803 0
M  V30 453 H 5.06426 -3.75161 -2.39393 0
M  V30 454 H 2.4447 2.01508 -4.46561 0
M  V30 455 H 1.94977 3.71297 -4.52567 0
M  V30 456 H 3.30347 3.19496 -3.43546 0
M  V30 457 H 6.34938 -2.159 -1.37868 0
M  V30 458 H 6.59433 -3.31025 -0.0594642 0
M  V30 459 H 5.86402 -1.45487 1.57769 0
M  V30 460 H 7.17133 -1.00259 0.485427 0
M  V30 461 H 5.95783 0.417785 -0.767309 0
M  V30 462 H 4.51298 -0.891671 -1.88817 0
M  V30 463 H 2.75871 -2.23116 -1.14272 0
M  V30 464 H 5.8961 1.20255 1.41728 0
M  V30 465 H 4.47105 0.300025 1.9229 0
M  V30 466 H 4.75295 2.8024 0.355336 0
M  V30 467 H 3.51608 2.38438 -1.44883 0
M  V30 468 H 2.71672 0.41716 -2.16737 0
M  V30 469 H 2.05798 -0.0708152 -0.622911 0
M  V30 470 H 1.65077 2.23982 -2.26751 0
M  V30 471 H 2.29398 4.44789 -1.20138 0
M  V30 472 H 0.358617 5.91804 -0.71226 0
M  V30 473 H 0.675039 4.73973 0.592372 0
M  V30 474 H -1.81609 4.92083 -0.142803 0
M  V30 475 H -1.26472 4.45287 -1.76211 0
M  V30 476 H -0.664667 2.80759 0.727075 0
M  V30 477 H -0.207985 1.06718 -1.03388 0
M  V30 478 H -0.713604 2.23256 -2.27863 0
M  V30 479 H -2.62457 2.10242 -1.49209 0
M  V30 480 H -3.25094 3.2277 -0.313574 0
M  V30 481 H -1.85112 0.798394 0.780536 0
M  V30 482 H -5.02188 2.90434 0.706227 0
M  V30 483 H -5.41091 2.1897 2.28003 0
M  V30 484 H -6.65376 1.29504 0.324916 0
M  V30 485 H -5.96967 0.0536786 1.36546 0
M  V30 486 H -5.13745 1.16641 -1.32898 0
M  V30 487 H -3.07891 0.361469 -1.47827 0
M  V30 488 H -6.51799 -1.19986 -0.336299 0
M  V30 489 H -6.35853 -0.609508 -1.99767 0
M  V30 490 H -4.22619 -1.83576 -2.26127 0
M  V30 491 H -3.61145 -3.31397 -0.361144 0
M  V30 492 H -2.27791 -1.62931 -0.963867 0
M  V30 493 H -0.625551 -1.07602 -0.0531123 0
M  V30 494 H 0.36705 -0.237415 1.82062 0
M  V30 495 H -0.753354 -1.10836 2.88169 0
M  V30 496 H 0.512715 -3.04566 2.98742 0
M  V30 497 H 1.6796 -1.71561 3.02279 0
M  V30 498 H 2.04234 -3.82248 1.49696 0
M  V30 499 H 1.07376 -3.90909 -0.606441 0
M  V30 500 H 0.778261 -2.1423 -0.736382 0
M  V30 501 H -0.580868 -3.72397 1.4079 0
M  V30 502 H -1.22419 -3.50881 -0.303773 0
M  V30 503 H 2.51955 -0.865129 1.18044 0
M  V30 504 H 3.5768 -2.11663 1.81151 0
M  V30 505 H 3.17195 3.9139 3.00419 0
M  V30 506 H 4.82901 3.6257 2.40338 0
M  V30 507 H 3.58291 4.38365 1.31684 0
M  V30 508 H -6.18255 -4.36532 -3.28814 0
M  V30 509 H -4.46405 -3.95401 -3.07368 0
M  V30 510 H -5.61449 -2.67626 -3.71907 0
M  V30 511 H 3.62249 -4.79205 -0.0215427 0
M  V30 512 H 4.43839 -3.90843 1.39138 0
M  V30 513 H 5.38194 -4.72232 0.13778 0
M  V30 514 H -2.75592 3.58052 1.60863 0
M  V30 515 H -3.52329 2.97332 3.07389 0
M  V30 516 H -1.93305 2.31422 2.69385 0
M  V30 517 H -2.63244 0.370668 3.05604 0
M  V30 518 H -4.12851 1.18081 3.49271 0
M  V30 519 H -4.29259 -0.237076 2.47115 0
M  V30 520 H -3.80165 -3.90966 1.82128 0
M  V30 521 H -5.43118 -3.58416 2.4591 0
M  V30 522 H -5.30026 -4.45762 0.898087 0
M  V30 523 H 5.45277 -4.08943 -2.1069 0
M  V30 524 H 3.7011 -4.27525 -1.9002 0
M  V30 525 H 4.27608 -2.77126 -2.64035 0
M  V30 526 H 1.48405 5.39652 -4.41573 0
M  V30 527 H 2.07685 6.1043 -2.85986 0
M  V30 528 H 2.79723 4.54428 -3.43734 0
M  V30 529 H 6.03076 -1.68561 -1.97971 0
M  V30 530 H 6.7505 -2.86042 -0.886668 0
M  V30 531 H 7.02587 -0.34379 -0.380686 0
M  V30 532 H 6.85526 -1.50456 0.941965 0
M  V30 533 H 4.97502 -0.53605 1.69215 0
M  V30 534 H 3.02651 -0.0756829 0.429359 0
M  V30 535 H 2.79962 -1.91687 -1.15155 0
M  V30 536 H 5.85759 1.5546 1.54127 0
M  V30 537 H 6.20792 1.38654 -0.264638 0
M  V30 538 H 3.61683 1.9636 1.20508 0
M  V30 539 H 4.00531 2.46079 -1.77813 0
M  V30 540 H 3.44039 -0.0528671 -2.23138 0
M  V30 541 H 5.08796 0.491924 -1.72272 0
M  V30 542 H 1.75958 2.61296 0.697102 0
M  V30 543 H 2.13504 4.48027 -0.694699 0
M  V30 544 H -0.0248426 5.55904 -0.84425 0
M  V30 545 H 0.157175 4.71887 0.76347 0
M  V30 546 H -2.08989 4.29693 -0.59322 0
M  V30 547 H -0.981489 3.48204 -1.78783 0
M  V30 548 H -0.950797 2.82533 1.16676 0
M  V30 549 H 0.334345 0.890801 0.472786 0
M  V30 550 H -0.0765105 1.19323 -1.23194 0
M  V30 551 H -2.02213 0.888235 -0.83926 0
M  V30 552 H -3.028 2.32663 -0.716163 0
M  V30 553 H -2.34263 0.813087 1.86705 0
M  V30 554 H -4.36153 3.59814 0.147393 0
M  V30 555 H -5.6776 3.14025 1.22559 0
M  V30 556 H -5.50612 2.2803 -1.3229 0
M  V30 557 H -6.46664 1.47564 -0.0720453 0
M  V30 558 H -3.95173 0.652295 -1.39626 0
M  V30 559 H -4.62461 -0.289522 1.42379 0
M  V30 560 H -6.60138 -0.401225 -0.563599 0
M  V30 561 H -5.87549 -0.24484 -2.15234 0
M  V30 562 H -6.00175 -2.6374 -1.06594 0
M  V30 563 H -3.73549 -3.2268 -0.212678 0
M  V30 564 H -2.85025 -1.09275 -0.825857 0
M  V30 565 H -1.80922 -3.43936 1.58374 0
M  V30 566 H 0.208665 -1.21814 1.81767 0
M  V30 567 H -0.541152 -2.2044 3.08977 0
M  V30 568 H 0.301145 -4.2669 1.95629 0
M  V30 569 H 1.52624 -3.21108 2.77981 0
M  V30 570 H 1.7533 -4.18515 0.215268 0
M  V30 571 H 0.932888 -2.67754 -1.43311 0
M  V30 572 H 0.600461 -1.37507 -0.175077 0
M  V30 573 H -0.580999 -4.13454 -0.156452 0
M  V30 574 H -1.29165 -2.77059 -1.07828 0
M  V30 575 H 2.58696 -1.56464 1.55747 0
M  V30 576 H 3.49596 -3.07757 1.5186 0
M  V30 577 H 3.22119 4.28871 1.5139 0
M  V30 578 H 4.68722 5.19373 1.13332 0
M  V30 579 H 4.84204 3.85013 2.26974 0
M  V30 580 H -5.1381 -4.14227 -2.46556 0
M  V30 581 H -4.54742 -3.36304 -3.98237 0
M  V30 582 H -6.14621 -2.89367 -3.35111 0
M  V30 583 H 4.11325 -4.56116 0.257816 0
M  V30 584 H 5.42898 -3.55542 1.09503 0
M  V30 585 H 5.75892 -4.46991 -0.379023 0
M  V30 586 H -2.96066 4.03701 1.62711 0
M  V30 587 H -4.04794 3.68639 2.96955 0
M  V30 588 H -2.48372 2.87798 3.00236 0
M  V30 589 H -5.06117 2.25392 3.41455 0
M  V30 590 H -5.77974 1.18923 2.20373 0
M  V30 591 H -4.27831 0.686816 3.1738 0
M  V30 592 H -5.67198 -3.80089 2.65035 0
M  V30 593 H -5.32901 -4.67454 1.1333 0
M  V30 594 H -4.00872 -4.10636 2.16146 0
M  V30 595 H 4.48724 -2.70496 -2.8795 0
M  V30 596 H 3.2757 -3.66559 -2.01636 0
M  V30 597 H 4.93204 -4.31466 -2.17941 0
M  V30 598 H 1.48455 4.26011 -4.15328 0
M  V30 599 H 1.74988 5.55836 -2.96073 0
M  V30 600 H 2.87908 4.12356 -3.06072 0
M  V30 601 H 5.64073 -1.40536 -2.1581 0
M  V30 602 H 6.71308 -2.54273 -1.3336 0
M  V30 603 H 7.17157 -1.25746 0.489124 0
M  V30 604 H 6.89389 0.00546618 -0.725494 0
M  V30 605 H 5.39802 -0.651191 1.76329 0
M  V30 606 H 3.24264 -0.144851 1.00063 0
M  V30 607 H 2.834 -1.82641 -0.920638 0
M  V30 608 H 6.12448 1.5077 1.71522 0
M  V30 609 H 6.07919 1.66406 -0.0612149 0
M  V30 610 H 3.65719 1.67204 1.82448 0
M  V30 611 H 3.66405 2.65658 -1.04499 0
M  V30 612 H 2.92314 0.163121 -1.62718 0
M  V30 613 H 4.66656 0.693747 -1.53487 0
M  V30 614 H 2.09431 3.92658 -0.0386466 0
M  V30 615 H 0.734374 2.31978 -2.14134 0
M  V30 616 H -0.611725 4.31337 -2.71166 0
M  V30 617 H -0.327631 4.97265 -1.08433 0
M  V30 618 H -2.29731 3.71752 -0.884456 0
M  V30 619 H -1.72256 2.48015 -2.00926 0
M  V30 620 H -0.336516 1.40645 -0.302936 0
M  V30 621 H -0.106224 4.20099 0.792833 0
M  V30 622 H 0.513269 2.65974 1.57958 0
M  V30 623 H -1.11337 1.58911 1.97478 0
M  V30 624 H -1.95847 3.08679 1.6801 0
M  V30 625 H -3.12717 0.680252 1.96131 0
M  V30 626 H -4.56603 2.99371 -0.764007 0
M  V30 627 H -5.95901 2.92246 0.336688 0
M  V30 628 H -6.18505 1.16127 -1.37316 0
M  V30 629 H -5.82013 0.41113 0.243733 0
M  V30 630 H -3.82735 1.33368 -1.88944 0
M  V30 631 H -2.12174 0.55776 -0.663544 0
M  V30 632 H -4.97795 -0.464834 -2.82715 0
M  V30 633 H -3.32943 -1.01086 -2.33296 0
M  V30 634 H -5.97921 -1.32692 -0.803257 0
M  V30 635 H -3.70386 -3.01874 0.000705561 0
M  V30 636 H -2.77713 -1.0223 1.45586 0
M  V30 637 H -1.9933 -3.34381 1.05687 0
M  V30 638 H 0.153722 -1.14242 1.2892 0
M  V30 639 H -0.847606 -1.85999 2.56231 0
M  V30 640 H 0.29709 -4.00724 2.26255 0
M  V30 641 H 1.35652 -2.61104 2.80489 0
M  V30 642 H 1.88209 -4.36622 0.707931 0
M  V30 643 H 1.47366 -3.27773 -1.34287 0
M  V30 644 H 0.833452 -1.75256 -0.531471 0
M  V30 645 H -0.844406 -3.53067 -1.36381 0
M  V30 646 H -0.275176 -4.51667 0.0670578 0
M  V30 647 H 2.82185 -1.77276 1.86278 0
M  V30 648 H 3.71557 -3.25977 1.55716 0
M  V30 649 H 2.90908 3.68853 2.27636 0
M  V30 650 H 4.31374 4.88123 2.47165 0
M  V30 651 H 4.48851 3.23467 3.10253 0
M  V30 652 H -6.50444 -4.14816 -2.55172 0
M  V30 653 H -6.89518 -3.40904 -0.975366 0
M  V30 654 H -7.02549 -2.44982 -2.53977 0
M  V30 655 H 6.22029 -4.01602 -0.390383 0
M  V30 656 H 5.70219 -3.24422 1.11259 0
M  V30 657 H 4.65476 -4.51664 0.259883 0
M  V30 658 H -3.56292 4.16947 1.08324 0
M  V30 659 H -5.06901 3.86744 1.92201 0
M  V30 660 H -3.61718 3.41186 2.78854 0
M  V30 661 H -5.18023 2.04182 3.13861 0
M  V30 662 H -6.26835 1.62797 1.8125 0
M  V30 663 H -4.93022 0.484397 2.36055 0
M  V30 664 H -5.40248 -3.9641 1.04821 0
M  V30 665 H -4.06525 -3.64682 2.19047 0
M  V30 666 H -5.7097 -3.23784 2.67556 0
M  V30 667 H 3.58847 -2.6393 -2.40549 0
M  V30 668 H 3.74975 -4.23644 -1.64642 0
M  V30 669 H 5.1369 -3.4798 -2.61255 0
M  V30 670 H 1.47518 3.18796 -4.19406 0
M  V30 671 H 2.9251 2.46349 -3.32188 0
M  V30 672 H 2.98487 4.1261 -4.07792 0
M  V30 673 H 6.7381 -2.27514 -0.698036 0
M  V30 674 H 6.47574 -3.02284 0.885713 0
M  V30 675 H 5.47388 -0.932928 1.74254 0
M  V30 676 H 7.04231 -0.629685 0.814267 0
M  V30 677 H 5.77022 -0.242704 -1.22229 0
M  V30 678 H 3.40864 0.0659767 0.696329 0
M  V30 679 H 2.85266 -2.17358 -0.921579 0
M  V30 680 H 6.22644 1.84857 -0.54903 0
M  V30 681 H 5.75639 1.46414 1.14395 0
M  V30 682 H 3.60714 2.07273 0.868411 0
M  V30 683 H 4.10923 1.9309 -2.16368 0
M  V30 684 H 2.13069 -0.0842241 -1.43036 0
M  V30 685 H 3.62517 -0.222496 -2.34506 0
M  V30 686 H 1.68956 2.70422 0.331571 0
M  V30 687 H 2.00028 4.6974 -0.992622 0
M  V30 688 H -0.249611 5.72194 -0.347123 0
M  V30 689 H 0.174741 4.46458 0.935527 0
M  V30 690 H -2.11722 4.30617 0.0254136 0
M  V30 691 H -1.39047 3.83184 -1.59535 0
M  V30 692 H -0.698854 2.55473 1.05932 0
M  V30 693 H 0.353837 0.897408 -0.182533 0
M  V30 694 H -0.141247 1.6287 -1.79911 0
M  V30 695 H -2.10976 0.911951 -0.978726 0
M  V30 696 H -3.11791 2.30507 -0.563506 0
M  V30 697 H -2.01559 0.494543 1.66473 0
M  V30 698 H -4.31606 3.3589 0.697752 0
M  V30 699 H -5.46538 2.70982 1.8646 0
M  V30 700 H -5.79346 2.20825 -0.702058 0
M  V30 701 H -6.30628 1.06934 0.577995 0
M  V30 702 H -4.08057 0.769022 -1.48081 0
M  V30 703 H -4.41631 -0.58791 1.26078 0
M  V30 704 H -6.2236 -0.965764 -0.177928 0
M  V30 705 H -6.25409 -0.097945 -1.79303 0
M  V30 706 H -4.19394 -1.37993 -2.43032 0
M  V30 707 H -3.66615 -3.36274 -0.705962 0
M  V30 708 H -2.28756 -1.14181 -0.826949 0
M  V30 709 H -0.768354 -1.18192 0.205988 0
M  V30 710 H 0.284288 -0.9141 2.21669 0
M  V30 711 H -0.904927 -1.99287 2.9879 0
M  V30 712 H 0.333543 -3.9704 2.57161 0
M  V30 713 H 1.48319 -2.74146 3.11768 0
M  V30 714 H 1.99976 -4.23997 1.0871 0
M  V30 715 H 1.20372 -3.68028 -1.00608 0
M  V30 716 H 0.876702 -1.92199 -0.569321 0
M  V30 717 H -0.627326 -4.18891 0.763894 0
M  V30 718 H -1.05642 -3.45791 -0.800284 0
M  V30 719 H 2.33589 -1.23292 1.51364 0
M  V30 720 H 3.49022 -2.45197 2.03732 0
M  V30 721 H 4.63079 5.33871 0.57415 0
M  V30 722 H 3.22126 4.35727 1.03165 0
M  V30 723 H 4.9157 3.90081 1.58806 0
M  V30 724 H -6.33314 -3.67697 -3.7768 0
M  V30 725 H -4.56418 -3.36328 -3.65394 0
M  V30 726 H -5.69447 -1.96705 -4.0286 0
M  V30 727 H 3.83879 -4.72954 -0.351851 0
M  V30 728 H 4.37648 -4.13707 1.3316 0
M  V30 729 H 5.53396 -4.61783 0.0957251 0
M  V30 730 H -2.83131 3.65005 2.1979 0
M  V30 731 H -3.56051 2.8615 3.58425 0
M  V30 732 H -1.98604 2.25401 3.0588 0
M  V30 733 H -4.45169 1.36273 3.83976 0
M  V30 734 H -5.39562 0.610241 2.56523 0
M  V30 735 H -3.744 -0.0674942 3.10042 0
M  V30 736 H -4.03943 -4.11108 1.40037 0
M  V30 737 H -5.6836 -3.73765 1.97676 0
M  V30 738 H -5.50452 -4.4068 0.30439 0
M  V30 739 H 5.71401 -3.72878 -1.84282 0
M  V30 740 H 3.95242 -3.68497 -2.07822 0
M  V30 741 H 4.98767 -2.18903 -2.36074 0
M  V30 742 H 0.899225 4.8961 -4.20332 0
M  V30 743 H 1.40306 5.93984 -2.75768 0
M  V30 744 H 2.37419 4.45387 -3.194 0
M  V30 745 H 5.65829 -1.39837 -2.11091 0
M  V30 746 H 6.67183 -2.54921 -1.22825 0
M  V30 747 H 7.16126 -1.20162 0.516298 0
M  V30 748 H 6.76047 0.0585021 -0.674076 0
M  V30 749 H 5.27314 -0.764013 1.75367 0
M  V30 750 H 3.15156 -0.0672198 0.928891 0
M  V30 751 H 2.79516 -1.76151 -0.988568 0
M  V30 752 H 5.83911 1.41592 2.02266 0
M  V30 753 H 6.18536 1.69994 0.279682 0
M  V30 754 H 3.52671 1.73481 1.79326 0
M  V30 755 H 3.76669 2.71446 -1.10461 0
M  V30 756 H 4.80469 0.750084 -1.47582 0
M  V30 757 H 3.05587 0.279091 -1.74058 0
M  V30 758 H 2.10586 3.91475 0.00885704 0
M  V30 759 H 1.42671 2.6971 -2.5851 0
M  V30 760 H -0.520846 4.11336 -3.04027 0
M  V30 761 H -0.59911 4.60816 -1.33657 0
M  V30 762 H -2.03742 2.60222 -2.06288 0
M  V30 763 H -0.453674 1.68723 -2.26893 0
M  V30 764 H -0.589874 1.23793 -0.0500579 0
M  V30 765 H -0.196115 4.15508 0.609155 0
M  V30 766 H 0.432137 2.68652 1.3744 0
M  V30 767 H -2.12525 3.43111 1.06549 0
M  V30 768 H -2.95765 3.01528 -0.43873 0
M  V30 769 H -2.30466 0.998603 1.71047 0
M  V30 770 H -5.00417 2.97001 0.0869148 0
M  V30 771 H -6.14388 2.43895 1.34942 0
M  V30 772 H -6.38127 1.33062 -0.898339 0
M  V30 773 H -6.11024 0.153734 0.385775 0
M  V30 774 H -4.19262 1.51216 -1.5887 0
M  V30 775 H -2.33059 0.560828 -0.853375 0
M  V30 776 H -5.41646 -0.320655 -2.59779 0
M  V30 777 H -3.62867 -0.693141 -2.42187 0
M  V30 778 H -6.04477 -1.52865 -0.759484 0
M  V30 779 H -3.62999 -3.02222 -0.0530072 0
M  V30 780 H -2.86916 -1.00891 1.5 0
M  V30 781 H -1.9435 -3.20002 1.13699 0
M  V30 782 H 0.282863 -1.16959 1.31743 0
M  V30 783 H -0.751442 -1.93894 2.5979 0
M  V30 784 H 0.17374 -4.17961 1.92578 0
M  V30 785 H 1.32288 -3.02849 2.73811 0
M  V30 786 H 1.9487 -4.35307 0.493217 0
M  V30 787 H 1.36443 -3.22039 -1.48303 0
M  V30 788 H 0.80099 -1.70663 -0.578921 0
M  V30 789 H -0.894055 -3.35764 -1.42284 0
M  V30 790 H -0.385148 -4.42044 -0.0233607 0
M  V30 791 H 2.5551 -1.66112 1.71881 0
M  V30 792 H 3.5948 -3.08776 1.60431 0
M  V30 793 H 2.83774 3.78176 2.28811 0
M  V30 794 H 4.2416 4.93534 2.41606 0
M  V30 795 H 4.37087 3.35617 3.20838 0
M  V30 796 H -7.0342 -2.62996 -2.47188 0
M  V30 797 H -6.2981 -4.22634 -2.69585 0
M  V30 798 H -6.78614 -3.76365 -1.04662 0
M  V30 799 H 6.02034 -4.08078 -0.359681 0
M  V30 800 H 5.5704 -3.22659 1.1234 0
M  V30 801 H 4.41703 -4.42582 0.305639 0
M  V30 802 H -4.00579 3.97282 1.60871 0
M  V30 803 H -4.72844 3.23848 3.03924 0
M  V30 804 H -2.97802 3.07856 2.87642 0
M  V30 805 H -5.12876 1.55867 3.47736 0
M  V30 806 H -5.46776 0.282762 2.31563 0
M  V30 807 H -3.82672 0.410477 3.17156 0
M  V30 808 H -5.26843 -4.14953 0.937331 0
M  V30 809 H -3.99918 -3.77482 2.1885 0
M  V30 810 H -5.71032 -3.50219 2.52142 0
M  V30 811 H 3.62888 -2.63839 -2.5538 0
M  V30 812 H 3.66401 -4.17001 -1.65691 0
M  V30 813 H 5.15898 -3.54976 -2.53469 0
M  V30 814 H 3.18508 5.30279 -3.73588 0
M  V30 815 H 1.96549 4.13104 -4.2599 0
M  V30 816 H 3.34349 3.57194 -3.29831 0
M  V30 817 H 5.93758 -1.58613 -1.85538 0
M  V30 818 H 6.91208 -2.50684 -0.70085 0
M  V30 819 H 7.17608 -0.799276 0.784074 0
M  V30 820 H 6.60085 0.200778 -0.570235 0
M  V30 821 H 5.14453 -0.686205 1.95357 0
M  V30 822 H 3.03985 -0.254854 1.03259 0
M  V30 823 H 3.11264 -1.87671 -1.12172 0
M  V30 824 H 5.61152 1.49387 2.26573 0
M  V30 825 H 6.14319 1.73543 0.597585 0
M  V30 826 H 4.47151 3.17999 1.05069 0
M  V30 827 H 4.69161 2.21282 -0.993359 0
M  V30 828 H 2.59845 0.174546 -1.26642 0
M  V30 829 H 4.29878 0.154849 -1.67159 0
M  V30 830 H 1.52302 3.73964 0.205768 0
M  V30 831 H 1.53464 4.93049 -1.70268 0
M  V30 832 H -0.830917 4.54665 -2.59095 0
M  V30 833 H -0.616503 4.89608 -0.805174 0
M  V30 834 H -2.26056 3.20512 -1.32279 0
M  V30 835 H -0.941622 2.23413 -2.15964 0
M  V30 836 H -0.412305 3.32594 0.612263 0
M  V30 837 H 0.508522 1.28156 -1.33435 0
M  V30 838 H 1.04216 1.28398 0.412042 0
M  V30 839 H -1.09859 1.66124 1.9265 0
M  V30 840 H -0.792597 0.448177 0.723593 0
M  V30 841 H -2.83678 0.290323 1.61672 0
M  V30 842 H -4.42611 3.18469 -0.36714 0
M  V30 843 H -5.3993 3.18772 1.14247 0
M  V30 844 H -6.35846 1.68726 -0.666342 0
M  V30 845 H -5.79552 0.783366 0.779747 0
M  V30 846 H -4.3219 1.52545 -1.80422 0
M  V30 847 H -2.39355 0.572406 -1.15626 0
M  V30 848 H -6.21705 0.0734518 -2.04208 0
M  V30 849 H -4.71634 -0.599832 -2.71081 0
M  V30 850 H -6.45174 -1.3958 -0.3556 0
M  V30 851 H -4.74512 -1.3026 1.15314 0
M  V30 852 H -3.02872 -1.54613 -1.32807 0
M  V30 853 H -1.9904 -3.54086 0.675953 0
M  V30 854 H 0.129512 -1.61634 1.58783 0
M  V30 855 H -0.819595 -2.80574 2.49046 0
M  V30 856 H 0.0760711 -4.62746 0.935954 0
M  V30 857 H 1.22659 -3.97759 2.13752 0
M  V30 858 H 1.79748 -4.15027 -0.467933 0
M  V30 859 H 1.21465 -2.24668 -1.76172 0
M  V30 860 H 0.694373 -1.28026 -0.340135 0
M  V30 861 H -1.13745 -2.24668 -1.69529 0
M  V30 862 H -0.650438 -3.89305 -1.22192 0
M  V30 863 H 2.38458 -1.90894 1.5532 0
M  V30 864 H 3.26148 -3.43571 1.376 0
M  V30 865 H 4.07187 3.16873 3.24603 0
M  V30 866 H 2.42417 2.60373 3.63943 0
M  V30 867 H 2.64803 3.82783 2.28541 0
M  V30 868 H -7.70864 -2.58967 -1.85883 0
M  V30 869 H -6.90354 -4.11956 -2.27714 0
M  V30 870 H -7.08457 -3.75378 -0.553687 0
M  V30 871 H 6.38571 -3.7341 0.493617 0
M  V30 872 H 5.24532 -3.06444 1.67011 0
M  V30 873 H 4.80543 -4.51183 0.59661 0
M  V30 874 H -2.68986 3.96317 0.960576 0
M  V30 875 H -3.84007 3.90947 2.27339 0
M  V30 876 H -2.29363 3.15378 2.58855 0
M  V30 877 H -3.7377 1.9228 3.4736 0
M  V30 878 H -5.31611 2.2078 2.7089 0
M  V30 879 H -4.47036 0.570674 2.60473 0
M  V30 880 H -3.96475 -2.90313 2.31982 0
M  V30 881 H -5.68358 -2.98938 1.88582 0
M  V30 882 H -4.6516 -4.52085 1.85268 0
M  V30 883 H 4.41483 -2.90588 -2.43266 0
M  V30 884 H 4.01687 -4.35193 -1.34207 0
M  V30 885 H 5.68672 -3.94707 -1.77382 0
M  V30 886 H 1.59612 5.25799 -3.85879 0
M  V30 887 H 2.44941 3.91917 -4.73538 0
M  V30 888 H 3.04462 4.51712 -3.09756 0
M  V30 889 H 6.33712 -1.61855 -1.21117 0
M  V30 890 H 6.64657 -2.87084 -0.0152282 0
M  V30 891 H 6.8137 -0.523942 0.787413 0
M  V30 892 H 5.95967 -1.66866 1.82559 0
M  V30 893 H 4.26605 -0.223423 1.95147 0
M  V30 894 H 2.68595 -0.157386 0.362681 0
M  V30 895 H 2.65469 -2.17409 -0.909275 0
M  V30 896 H 5.47072 1.68346 1.59544 0
M  V30 897 H 6.00444 1.2218 -0.0973288 0
M  V30 898 H 3.34425 2.22866 0.985011 0
M  V30 899 H 3.77051 2.21244 -2.0108 0
M  V30 900 H 3.35267 -0.316249 -2.15454 0
M  V30 901 H 4.98734 0.316392 -1.6019 0
M  V30 902 H 1.54829 2.87623 0.29666 0
M  V30 903 H 0.508372 3.47646 -2.45616 0
M  V30 904 H 0.395595 5.69264 -1.33923 0
M  V30 905 H 0.825707 4.93971 0.207182 0
M  V30 906 H -1.71125 4.9562 -0.209707 0
M  V30 907 H -1.3709 4.144 -1.78304 0
M  V30 908 H -0.949086 2.97721 0.987828 0
M  V30 909 H -0.0950371 1.02266 -0.0411107 0
M  V30 910 H -0.382968 1.64557 -1.72147 0
M  V30 911 H -2.43374 1.84211 -1.41126 0
M  V30 912 H -3.247 3.20761 -0.666502 0
M  V30 913 H -2.18351 1.06223 1.19062 0
M  V30 914 H -5.41038 2.87203 0.314408 0
M  V30 915 H -5.92584 2.45561 1.99411 0
M  V30 916 H -6.91111 1.10685 0.135419 0
M  V30 917 H -6.16061 0.0926989 1.37779 0
M  V30 918 H -5.05623 1.18406 -1.26039 0
M  V30 919 H -3.05823 0.13305 -1.09682 0
M  V30 920 H -6.61726 -1.11784 -0.634821 0
M  V30 921 H -5.94451 -0.666298 -2.2121 0
M  V30 922 H -5.44754 -2.93554 -1.26779 0
M  V30 923 H -3.37182 -3.10894 0.0254853 0
M  V30 924 H -3.32608 -1.02684 1.71196 0
M  V30 925 H -2.06546 -2.8267 1.73011 0
M  V30 926 H 0.21037 -0.918755 1.48675 0
M  V30 927 H -0.688106 -1.46371 2.92446 0
M  V30 928 H 0.241864 -3.75248 2.68388 0
M  V30 929 H 1.43568 -2.48907 3.07361 0
M  V30 930 H 1.71021 -4.32051 1.07051 0
M  V30 931 H 1.11891 -3.5081 -0.991261 0
M  V30 932 H 0.722472 -1.79936 -0.387291 0
M  V30 933 H -1.14131 -3.41517 -0.820105 0
M  V30 934 H -0.537641 -4.29955 0.692757 0
M  V30 935 H 2.78193 -1.64772 1.88831 0
M  V30 936 H 3.61797 -3.18512 1.68813 0
M  V30 937 H 4.75703 5.26427 0.423835 0
M  V30 938 H 3.14807 4.60198 0.708209 0
M  V30 939 H 4.57629 4.16 1.79599 0
M  V30 940 H -3.51369 -3.12766 -3.92603 0
M  V30 941 H -4.02884 -4.0827 -2.51766 0
M  V30 942 H -5.26283 -3.12115 -3.34313 0
M  V30 943 H 5.39898 -4.64216 -0.80015 0
M  V30 944 H 5.20811 -4.17695 0.892451 0
M  V30 945 H 3.74832 -4.62435 -0.157045 0
M  V30 946 H -3.46524 4.065 1.1557 0
M  V30 947 H -4.37087 3.70281 2.62217 0
M  V30 948 H -2.6576 3.28483 2.63515 0
M  V30 949 H -2.99366 0.89542 3.09703 0
M  V30 950 H -4.28386 1.95959 3.65734 0
M  V30 951 H -4.78931 0.495196 2.82913 0
M  V30 952 H -4.91737 -4.73198 0.765635 0
M  V30 953 H -4.01297 -4.1286 2.2359 0
M  V30 954 H -5.78089 -4.15582 2.19962 0
M  V30 955 H 5.03372 -1.9829 -2.53438 0
M  V30 956 H 3.50341 -2.88161 -2.32591 0
M  V30 957 H 5.04848 -3.81592 -2.37199 0
M  V30 958 H 1.51183 4.92931 -3.77417 0
M  V30 959 H 2.13662 3.24822 -3.80344 0
M  V30 960 H 3.33398 4.61351 -3.80967 0
M  V30 END ATOM
M  V30 BEGIN BOND
M  V30 1 1 1 2
M  V30 2 1 2 3
M  V30 3 1 3 4
M  V30 4 1 4 5
M  V30 5 1 1 6
M  V30 6 1 5 6
M  V30 7 1 4 7
M  V30 8 1 7 8
M  V30 9 1 8 9
M  V30 10 1 5 10
M  V30 11 1 9 10
M  V30 12 1 9 11
M  V30 13 1 11 12
M  V30 14 1 12 13
M  V30 15 1 13 14
M  V30 16 1 14 15
M  V30 17 1 15 16
M  V30 18 1 12 17
M  V30 19 1 16 17
M  V30 20 1 16 18
M  V30 21 1 18 19
M  V30 22 1 19 20
M  V30 23 1 20 21
M  V30 24 1 21 22
M  V30 25 1 22 23
M  V30 26 1 19 24
M  V30 27 1 23 24
M  V30 28 1 23 25
M  V30 29 1 25 26
M  V30 30 1 26 27
M  V30 31 1 24 28
M  V30 32 1 27 28
M  V30 33 1 28 29
M  V30 34 1 29 30
M  V30 35 1 30 31
M  V30 36 1 31 32
M  V30 37 1 32 33
M  V30 38 1 33 34
M  V30 39 1 30 35
M  V30 40 1 34 35
M  V30 41 1 6 36
M  V30 42 1 33 36
M  V30 43 1 8 37
M  V30 44 1 37 38
M  V30 45 1 13 39
M  V30 46 1 26 40
M  V30 47 1 40 41
M  V30 48 1 27 42
M  V30 49 1 1 43
M  V30 50 1 20 44
M  V30 51 1 20 45
M  V30 52 1 42 46
M  V30 53 1 1 47
M  V30 54 1 39 48
M  V30 55 1 49 50
M  V30 56 1 50 51
M  V30 57 1 51 52
M  V30 58 1 52 53
M  V30 59 1 49 54
M  V30 60 1 53 54
M  V30 61 1 52 55
M  V30 62 1 55 56
M  V30 63 1 56 57
M  V30 64 1 53 58
M  V30 65 1 57 58
M  V30 66 1 57 59
M  V30 67 1 59 60
M  V30 68 1 60 61
M  V30 69 1 61 62
M  V30 70 1 62 63
M  V30 71 1 63 64
M  V30 72 1 60 65
M  V30 73 1 64 65
M  V30 74 1 64 66
M  V30 75 1 66 67
M  V30 76 1 67 68
M  V30 77 1 68 69
M  V30 78 1 69 70
M  V30 79 1 70 71
M  V30 80 1 67 72
M  V30 81 1 71 72
M  V30 82 1 71 73
M  V30 83 1 73 74
M  V30 84 1 74 75
M  V30 85 1 72 76
M  V30 86 1 75 76
M  V30 87 1 76 77
M  V30 88 1 77 78
M  V30 89 1 78 79
M  V30 90 1 79 80
M  V30 91 1 80 81
M  V30 92 1 81 82
M  V30 93 1 78 83
M  V30 94 1 82 83
M  V30 95 1 54 84
M  V30 96 1 81 84
M  V30 97 1 56 85
M  V30 98 1 85 86
M  V30 99 1 61 87
M  V30 100 1 74 88
M  V30 101 1 88 89
M  V30 102 1 75 90
M  V30 103 1 49 91
M  V30 104 1 68 92
M  V30 105 1 68 93
M  V30 106 1 90 94
M  V30 107 1 49 95
M  V30 108 1 87 96
M  V30 109 1 97 98
M  V30 110 1 98 99
M  V30 111 1 99 100
M  V30 112 1 100 101
M  V30 113 1 97 102
M  V30 114 1 101 102
M  V30 115 1 100 103
M  V30 116 1 103 104
M  V30 117 1 104 105
M  V30 118 1 101 106
M  V30 119 1 105 106
M  V30 120 1 105 107
M  V30 121 1 107 108
M  V30 122 1 108 109
M  V30 123 1 109 110
M  V30 124 1 110 111
M  V30 125 1 111 112
M  V30 126 1 108 113
M  V30 127 1 112 113
M  V30 128 1 112 114
M  V30 129 1 114 115
M  V30 130 1 115 116
M  V30 131 1 116 117
M  V30 132 1 117 118
M  V30 133 1 118 119
M  V30 134 1 115 120
M  V30 135 1 119 120
M  V30 136 1 119 121
M  V30 137 1 121 122
M  V30 138 1 122 123
M  V30 139 1 120 124
M  V30 140 1 123 124
M  V30 141 1 124 125
M  V30 142 1 125 126
M  V30 143 1 126 127
M  V30 144 1 127 128
M  V30 145 1 128 129
M  V30 146 1 129 130
M  V30 147 1 126 131
M  V30 148 1 130 131
M  V30 149 1 102 132
M  V30 150 1 129 132
M  V30 151 1 104 133
M  V30 152 1 133 134
M  V30 153 1 109 135
M  V30 154 1 122 136
M  V30 155 1 136 137
M  V30 156 1 123 138
M  V30 157 1 97 139
M  V30 158 1 116 140
M  V30 159 1 116 141
M  V30 160 1 138 142
M  V30 161 1 97 143
M  V30 162 1 135 144
M  V30 163 1 145 146
M  V30 164 1 146 147
M  V30 165 1 147 148
M  V30 166 1 148 149
M  V30 167 1 145 150
M  V30 168 1 149 150
M  V30 169 1 148 151
M  V30 170 1 151 152
M  V30 171 1 152 153
M  V30 172 1 149 154
M  V30 173 1 153 154
M  V30 174 1 153 155
M  V30 175 1 155 156
M  V30 176 1 156 157
M  V30 177 1 157 158
M  V30 178 1 158 159
M  V30 179 1 159 160
M  V30 180 1 156 161
M  V30 181 1 160 161
M  V30 182 1 160 162
M  V30 183 1 162 163
M  V30 184 1 163 164
M  V30 185 1 164 165
M  V30 186 1 165 166
M  V30 187 1 166 167
M  V30 188 1 163 168
M  V30 189 1 167 168
M  V30 190 1 167 169
M  V30 191 1 169 170
M  V30 192 1 170 171
M  V30 193 1 168 172
M  V30 194 1 171 172
M  V30 195 1 172 173
M  V30 196 1 173 174
M  V30 197 1 174 175
M  V30 198 1 175 176
M  V30 199 1 176 177
M  V30 200 1 177 178
M  V30 201 1 174 179
M  V30 202 1 178 179
M  V30 203 1 150 180
M  V30 204 1 177 180
M  V30 205 1 152 181
M  V30 206 1 181 182
M  V30 207 1 157 183
M  V30 208 1 170 184
M  V30 209 1 184 185
M  V30 210 1 171 186
M  V30 211 1 145 187
M  V30 212 1 164 188
M  V30 213 1 164 189
M  V30 214 1 186 190
M  V30 215 1 145 191
M  V30 216 1 183 192
M  V30 217 1 193 194
M  V30 218 1 194 195
M  V30 219 1 195 196
M  V30 220 1 196 197
M  V30 221 1 193 198
M  V30 222 1 197 198
M  V30 223 1 196 199
M  V30 224 1 199 200
M  V30 225 1 200 201
M  V30 226 1 197 202
M  V30 227 1 201 202
M  V30 228 1 201 203
M  V30 229 1 203 204
M  V30 230 1 204 205
M  V30 231 1 205 206
M  V30 232 1 206 207
M  V30 233 1 207 208
M  V30 234 1 204 209
M  V30 235 1 208 209
M  V30 236 1 208 210
M  V30 237 1 210 211
M  V30 238 1 211 212
M  V30 239 1 212 213
M  V30 240 1 213 214
M  V30 241 1 214 215
M  V30 242 1 211 216
M  V30 243 1 215 216
M  V30 244 1 215 217
M  V30 245 1 217 218
M  V30 246 1 218 219
M  V30 247 1 216 220
M  V30 248 1 219 220
M  V30 249 1 220 221
M  V30 250 1 221 222
M  V30 251 1 222 223
M  V30 252 1 223 224
M  V30 253 1 224 225
M  V30 254 1 225 226
M  V30 255 1 222 227
M  V30 256 1 226 227
M  V30 257 1 198 228
M  V30 258 1 225 228
M  V30 259 1 200 229
M  V30 260 1 229 230
M  V30 261 1 205 231
M  V30 262 1 218 232
M  V30 263 1 232 233
M  V30 264 1 219 234
M  V30 265 1 193 235
M  V30 266 1 212 236
M  V30 267 1 212 237
M  V30 268 1 234 238
M  V30 269 1 193 239
M  V30 270 1 231 240
M  V30 271 1 241 242
M  V30 272 1 242 243
M  V30 273 1 243 244
M  V30 274 1 244 245
M  V30 275 1 241 246
M  V30 276 1 245 246
M  V30 277 1 244 247
M  V30 278 1 247 248
M  V30 279 1 248 249
M  V30 280 1 245 250
M  V30 281 1 249 250
M  V30 282 1 249 251
M  V30 283 1 251 252
M  V30 284 1 252 253
M  V30 285 1 253 254
M  V30 286 1 254 255
M  V30 287 1 255 256
M  V30 288 1 252 257
M  V30 289 1 256 257
M  V30 290 1 256 258
M  V30 291 1 258 259
M  V30 292 1 259 260
M  V30 293 1 260 261
M  V30 294 1 261 262
M  V30 295 1 262 263
M  V30 296 1 259 264
M  V30 297 1 263 264
M  V30 298 1 263 265
M  V30 299 1 265 266
M  V30 300 1 266 267
M  V30 301 1 264 268
M  V30 302 1 267 268
M  V30 303 1 268 269
M  V30 304 1 269 270
M  V30 305 1 270 271
M  V30 306 1 271 272
M  V30 307 1 272 273
M  V30 308 1 273 274
M  V30 309 1 270 275
M  V30 310 1 274 275
M  V30 311 1 246 276
M  V30 312 1 273 276
M  V30 313 1 248 277
M  V30 314 1 277 278
M  V30 315 1 253 279
M  V30 316 1 266 280
M  V30 317 1 280 281
M  V30 318 1 267 282
M  V30 319 1 241 283
M  V30 320 1 260 284
M  V30 321 1 260 285
M  V30 322 1 282 286
M  V30 323 1 241 287
M  V30 324 1 279 288
M  V30 325 1 289 290
M  V30 326 1 290 291
M  V30 327 1 291 292
M  V30 328 1 292 293
M  V30 329 1 289 294
M  V30 330 1 293 294
M  V30 331 1 292 295
M  V30 332 1 295 296
M  V30 333 1 296 297
M  V30 334 1 293 298
M  V30 335 1 297 298
M  V30 336 1 297 299
M  V30 337 1 299 300
M  V30 338 1 300 301
M  V30 339 1 301 302
M  V30 340 1 302 303
M  V30 341 1 303 304
M  V30 342 1 300 305
M  V30 343 1 304 305
M  V30 344 1 304 306
M  V30 345 1 306 307
M  V30 346 1 307 308
M  V30 347 1 308 309
M  V30 348 1 309 310
M  V30 349 1 310 311
M  V30 350 1 307 312
M  V30 351 1 311 312
M  V30 352 1 311 313
M  V30 353 1 313 314
M  V30 354 1 314 315
M  V30 355 1 312 316
M  V30 356 1 315 316
M  V30 357 1 316 317
M  V30 358 1 317 318
M  V30 359 1 318 319
M  V30 360 1 319 320
M  V30 361 1 320 321
M  V30 362 1 321 322
M  V30 363 1 318 323
M  V30 364 1 322 323
M  V30 365 1 294 324
M  V30 366 1 321 324
M  V30 367 1 296 325
M  V30 368 1 325 326
M  V30 369 1 301 327
M  V30 370 1 314 328
M  V30 371 1 328 329
M  V30 372 1 315 330
M  V30 373 1 289 331
M  V30 374 1 308 332
M  V30 375 1 308 333
M  V30 376 1 330 334
M  V30 377 1 289 335
M  V30 378 1 327 336
M  V30 379 1 337 338
M  V30 380 1 338 339
M  V30 381 1 339 340
M  V30 382 1 340 341
M  V30 383 1 337 342
M  V30 384 1 341 342
M  V30 385 1 340 343
M  V30 386 1 343 344
M  V30 387 1 344 345
M  V30 388 1 341 346
M  V30 389 1 345 346
M  V30 390 1 345 347
M  V30 391 1 347 348
M  V30 392 1 348 349
M  V30 393 1 349 350
M  V30 394 1 350 351
M  V30 395 1 351 352
M  V30 396 1 348 353
M  V30 397 1 352 353
M  V30 398 1 352 354
M  V30 399 1 354 355
M  V30 400 1 355 356
M  V30 401 1 356 357
M  V30 402 1 357 358
M  V30 403 1 358 359
M  V30 404 1 355 360
M  V30 405 1 359 360
M  V30 406 1 359 361
M  V30 407 1 361 362
M  V30 408 1 362 363
M  V30 409 1 360 364
M  V30 410 1 363 364
M  V30 411 1 364 365
M  V30 412 1 365 366
M  V30 413 1 366 367
M  V30 414 1 367 368
M  V30 415 1 368 369
M  V30 416 1 369 370
M  V30 417 1 366 371
M  V30 418 1 370 371
M  V30 419 1 342 372
M  V30 420 1 369 372
M  V30 421 1 344 373
M  V30 422 1 373 374
M  V30 423 1 349 375
M  V30 424 1 362 376
M  V30 425 1 376 377
M  V30 426 1 363 378
M  V30 427 1 337 379
M  V30 428 1 356 380
M  V30 429 1 356 381
M  V30 430 1 378 382
M  V30 431 1 337 383
M  V30 432 1 375 384
M  V30 433 1 2 385
M  V30 434 1 2 386
M  V30 435 1 3 387
M  V30 436 1 3 388
M  V30 437 1 4 389
M  V30 438 1 5 390
M  V30 439 1 6 391 CFG=3
M  V30 440 1 7 392
M  V30 441 1 7 393
M  V30 442 1 8 394
M  V30 443 1 9 395
M  V30 444 1 10 396
M  V30 445 1 10 397
M  V30 446 1 12 398
M  V30 447 1 13 399
M  V30 448 1 14 400
M  V30 449 1 14 401
M  V30 450 1 15 402
M  V30 451 1 15 403
M  V30 452 1 16 404
M  V30 453 1 17 405
M  V30 454 1 17 406
M  V30 455 1 18 407
M  V30 456 1 18 408
M  V30 457 1 19 409 CFG=1
M  V30 458 1 21 410
M  V30 459 1 21 411
M  V30 460 1 22 412
M  V30 461 1 22 413
M  V30 462 1 23 414 CFG=3
M  V30 463 1 24 415
M  V30 464 1 25 416
M  V30 465 1 25 417
M  V30 466 1 26 418
M  V30 467 1 27 419
M  V30 468 1 28 420
M  V30 469 1 30 421
M  V30 470 1 31 422
M  V30 471 1 31 423
M  V30 472 1 32 424
M  V30 473 1 32 425
M  V30 474 1 33 426
M  V30 475 1 34 427
M  V30 476 1 34 428
M  V30 477 1 35 429
M  V30 478 1 35 430
M  V30 479 1 36 431
M  V30 480 1 36 432
M  V30 481 1 38 433
M  V30 482 1 38 434
M  V30 483 1 38 435
M  V30 484 1 41 436
M  V30 485 1 41 437
M  V30 486 1 41 438
M  V30 487 1 43 439
M  V30 488 1 43 440
M  V30 489 1 43 441
M  V30 490 1 44 442
M  V30 491 1 44 443
M  V30 492 1 44 444
M  V30 493 1 45 445
M  V30 494 1 45 446
M  V30 495 1 45 447
M  V30 496 1 46 448
M  V30 497 1 46 449
M  V30 498 1 46 450
M  V30 499 1 47 451
M  V30 500 1 47 452
M  V30 501 1 47 453
M  V30 502 1 48 454
M  V30 503 1 48 455
M  V30 504 1 48 456
M  V30 505 1 50 457
M  V30 506 1 50 458
M  V30 507 1 51 459
M  V30 508 1 51 460
M  V30 509 1 52 461 CFG=3
M  V30 510 1 53 462 CFG=3
M  V30 511 1 54 463 CFG=3
M  V30 512 1 55 464
M  V30 513 1 55 465
M  V30 514 1 56 466 CFG=3
M  V30 515 1 57 467
M  V30 516 1 58 468
M  V30 517 1 58 469
M  V30 518 1 60 470
M  V30 519 1 61 471
M  V30 520 1 62 472
M  V30 521 1 62 473
M  V30 522 1 63 474
M  V30 523 1 63 475
M  V30 524 1 64 476 CFG=1
M  V30 525 1 65 477
M  V30 526 1 65 478
M  V30 527 1 66 479
M  V30 528 1 66 480
M  V30 529 1 67 481 CFG=1
M  V30 530 1 69 482
M  V30 531 1 69 483
M  V30 532 1 70 484
M  V30 533 1 70 485
M  V30 534 1 71 486 CFG=3
M  V30 535 1 72 487 CFG=3
M  V30 536 1 73 488
M  V30 537 1 73 489
M  V30 538 1 74 490 CFG=3
M  V30 539 1 75 491
M  V30 540 1 76 492 CFG=3
M  V30 541 1 78 493
M  V30 542 1 79 494
M  V30 543 1 79 495
M  V30 544 1 80 496
M  V30 545 1 80 497
M  V30 546 1 81 498
M  V30 547 1 82 499
M  V30 548 1 82 500
M  V30 549 1 83 501
M  V30 550 1 83 502
M  V30 551 1 84 503
M  V30 552 1 84 504
M  V30 553 1 86 505
M  V30 554 1 86 506
M  V30 555 1 86 507
M  V30 556 1 89 508
M  V30 557 1 89 509
M  V30 558 1 89 510
M  V30 559 1 91 511
M  V30 560 1 91 512
M  V30 561 1 91 513
M  V30 562 1 92 514
M  V30 563 1 92 515
M  V30 564 1 92 516
M  V30 565 1 93 517
M  V30 566 1 93 518
M  V30 567 1 93 519
M  V30 568 1 94 520
M  V30 569 1 94 521
M  V30 570 1 94 522
M  V30 571 1 95 523
M  V30 572 1 95 524
M  V30 573 1 95 525
M  V30 574 1 96 526
M  V30 575 1 96 527
M  V30 576 1 96 528
M  V30 577 1 98 529
M  V30 578 1 98 530
M  V30 579 1 99 531
M  V30 580 1 99 532
M  V30 581 1 100 533
M  V30 582 1 101 534
M  V30 583 1 102 535 CFG=3
M  V30 584 1 103 536
M  V30 585 1 103 537
M  V30 586 1 104 538
M  V30 587 1 105 539
M  V30 588 1 106 540
M  V30 589 1 106 541
M  V30 590 1 108 542
M  V30 591 1 109 543
M  V30 592 1 110 544
M  V30 593 1 110 545
M  V30 594 1 111 546
M  V30 595 1 111 547
M  V30 596 1 112 548
M  V30 597 1 113 549
M  V30 598 1 113 550
M  V30 599 1 114 551
M  V30 600 1 114 552
M  V30 601 1 115 553 CFG=1
M  V30 602 1 117 554
M  V30 603 1 117 555
M  V30 604 1 118 556
M  V30 605 1 118 557
M  V30 606 1 119 558
M  V30 607 1 120 559 CFG=1
M  V30 608 1 121 560
M  V30 609 1 121 561
M  V30 610 1 122 562
M  V30 611 1 123 563
M  V30 612 1 124 564 CFG=3
M  V30 613 1 126 565
M  V30 614 1 127 566
M  V30 615 1 127 567
M  V30 616 1 128 568
M  V30 617 1 128 569
M  V30 618 1 129 570
M  V30 619 1 130 571
M  V30 620 1 130 572
M  V30 621 1 131 573
M  V30 622 1 131 574
M  V30 623 1 132 575
M  V30 624 1 132 576
M  V30 625 1 134 577
M  V30 626 1 134 578
M  V30 627 1 134 579
M  V30 628 1 137 580
M  V30 629 1 137 581
M  V30 630 1 137 582
M  V30 631 1 139 583
M  V30 632 1 139 584
M  V30 633 1 139 585
M  V30 634 1 140 586
M  V30 635 1 140 587
M  V30 636 1 140 588
M  V30 637 1 141 589
M  V30 638 1 141 590
M  V30 639 1 141 591
M  V30 640 1 142 592
M  V30 641 1 142 593
M  V30 642 1 142 594
M  V30 643 1 143 595
M  V30 644 1 143 596
M  V30 645 1 143 597
M  V30 646 1 144 598
M  V30 647 1 144 599
M  V30 648 1 144 600
M  V30 649 1 146 601
M  V30 650 1 146 602
M  V30 651 1 147 603
M  V30 652 1 147 604
M  V30 653 1 148 605
M  V30 654 1 149 606
M  V30 655 1 150 607 CFG=3
M  V30 656 1 151 608
M  V30 657 1 151 609
M  V30 658 1 152 610
M  V30 659 1 153 611
M  V30 660 1 154 612
M  V30 661 1 154 613
M  V30 662 1 156 614 CFG=1
M  V30 663 1 157 615 CFG=3
M  V30 664 1 158 616
M  V30 665 1 158 617
M  V30 666 1 159 618
M  V30 667 1 159 619
M  V30 668 1 160 620
M  V30 669 1 161 621
M  V30 670 1 161 622
M  V30 671 1 162 623
M  V30 672 1 162 624
M  V30 673 1 163 625 CFG=1
M  V30 674 1 165 626
M  V30 675 1 165 627
M  V30 676 1 166 628
M  V30 677 1 166 629
M  V30 678 1 167 630
M  V30 679 1 168 631
M  V30 680 1 169 632
M  V30 681 1 169 633
M  V30 682 1 170 634
M  V30 683 1 171 635
M  V30 684 1 172 636
M  V30 685 1 174 637
M  V30 686 1 175 638
M  V30 687 1 175 639
M  V30 688 1 176 640
M  V30 689 1 176 641
M  V30 690 1 177 642
M  V30 691 1 178 643
M  V30 692 1 178 644
M  V30 693 1 179 645
M  V30 694 1 179 646
M  V30 695 1 180 647
M  V30 696 1 180 648
M  V30 697 1 182 649
M  V30 698 1 182 650
M  V30 699 1 182 651
M  V30 700 1 185 652
M  V30 701 1 185 653
M  V30 702 1 185 654
M  V30 703 1 187 655
M  V30 704 1 187 656
M  V30 705 1 187 657
M  V30 706 1 188 658
M  V30 707 1 188 659
M  V30 708 1 188 660
M  V30 709 1 189 661
M  V30 710 1 189 662
M  V30 711 1 189 663
M  V30 712 1 190 664
M  V30 713 1 190 665
M  V30 714 1 190 666
M  V30 715 1 191 667
M  V30 716 1 191 668
M  V30 717 1 191 669
M  V30 718 1 192 670
M  V30 719 1 192 671
M  V30 720 1 192 672
M  V30 721 1 194 673
M  V30 722 1 194 674
M  V30 723 1 195 675
M  V30 724 1 195 676
M  V30 725 1 196 677 CFG=3
M  V30 726 1 197 678
M  V30 727 1 198 679 CFG=3
M  V30 728 1 199 680
M  V30 729 1 199 681
M  V30 730 1 200 682
M  V30 731 1 201 683
M  V30 732 1 202 684
M  V30 733 1 202 685
M  V30 734 1 204 686 CFG=1
M  V30 735 1 205 687
M  V30 736 1 206 688
M  V30 737 1 206 689
M  V30 738 1 207 690
M  V30 739 1 207 691
M  V30 740 1 208 692 CFG=1
M  V30 741 1 209 693
M  V30 742 1 209 694
M  V30 743 1 210 695
M  V30 744 1 210 696
M  V30 745 1 211 697 CFG=1
M  V30 746 1 213 698
M  V30 747 1 213 699
M  V30 748 1 214 700
M  V30 749 1 214 701
M  V30 750 1 215 702 CFG=3
M  V30 751 1 216 703
M  V30 752 1 217 704
M  V30 753 1 217 705
M  V30 754 1 218 706 CFG=3
M  V30 755 1 219 707
M  V30 756 1 220 708 CFG=3
M  V30 757 1 222 709
M  V30 758 1 223 710
M  V30 759 1 223 711
M  V30 760 1 224 712
M  V30 761 1 224 713
M  V30 762 1 225 714
M  V30 763 1 226 715
M  V30 764 1 226 716
M  V30 765 1 227 717
M  V30 766 1 227 718
M  V30 767 1 228 719
M  V30 768 1 228 720
M  V30 769 1 230 721
M  V30 770 1 230 722
M  V30 771 1 230 723
M  V30 772 1 233 724
M  V30 773 1 233 725
M  V30 774 1 233 726
M  V30 775 1 235 727
M  V30 776 1 235 728
M  V30 777 1 235 729
M  V30 778 1 236 730
M  V30 779 1 236 731
M  V30 780 1 236 732
M  V30 781 1 237 733
M  V30 782 1 237 734
M  V30 783 1 237 735
M  V30 784 1 238 736
M  V30 785 1 238 737
M  V30 786 1 238 738
M  V30 787 1 239 739
M  V30 788 1 239 740
M  V30 789 1 239 741
M  V30 790 1 240 742
M  V30 791 1 240 743
M  V30 792 1 240 744
M  V30 793 1 242 745
M  V30 794 1 242 746
M  V30 795 1 243 747
M  V30 796 1 243 748
M  V30 797 1 244 749 CFG=1
M  V30 798 1 245 750
M  V30 799 1 246 751 CFG=3
M  V30 800 1 247 752
M  V30 801 1 247 753
M  V30 802 1 248 754
M  V30 803 1 249 755
M  V30 804 1 250 756
M  V30 805 1 250 757
M  V30 806 1 252 758
M  V30 807 1 253 759 CFG=3
M  V30 808 1 254 760
M  V30 809 1 254 761
M  V30 810 1 255 762
M  V30 811 1 255 763
M  V30 812 1 256 764 CFG=3
M  V30 813 1 257 765
M  V30 814 1 257 766
M  V30 815 1 258 767
M  V30 816 1 258 768
M  V30 817 1 259 769 CFG=1
M  V30 818 1 261 770
M  V30 819 1 261 771
M  V30 820 1 262 772
M  V30 821 1 262 773
M  V30 822 1 263 774 CFG=3
M  V30 823 1 264 775
M  V30 824 1 265 776
M  V30 825 1 265 777
M  V30 826 1 266 778
M  V30 827 1 267 779
M  V30 828 1 268 780
M  V30 829 1 270 781
M  V30 830 1 271 782
M  V30 831 1 271 783
M  V30 832 1 272 784
M  V30 833 1 272 785
M  V30 834 1 273 786
M  V30 835 1 274 787
M  V30 836 1 274 788
M  V30 837 1 275 789
M  V30 838 1 275 790
M  V30 839 1 276 791
M  V30 840 1 276 792
M  V30 841 1 278 793
M  V30 842 1 278 794
M  V30 843 1 278 795
M  V30 844 1 281 796
M  V30 845 1 281 797
M  V30 846 1 281 798
M  V30 847 1 283 799
M  V30 848 1 283 800
M  V30 849 1 283 801
M  V30 850 1 284 802
M  V30 851 1 284 803
M  V30 852 1 284 804
M  V30 853 1 285 805
M  V30 854 1 285 806
M  V30 855 1 285 807
M  V30 856 1 286 808
M  V30 857 1 286 809
M  V30 858 1 286 810
M  V30 859 1 287 811
M  V30 860 1 287 812
M  V30 861 1 287 813
M  V30 862 1 288 814
M  V30 863 1 288 815
M  V30 864 1 288 816
M  V30 865 1 290 817
M  V30 866 1 290 818
M  V30 867 1 291 819
M  V30 868 1 291 820
M  V30 869 1 292 821
M  V30 870 1 293 822
M  V30 871 1 294 823 CFG=3
M  V30 872 1 295 824
M  V30 873 1 295 825
M  V30 874 1 296 826
M  V30 875 1 297 827
M  V30 876 1 298 828
M  V30 877 1 298 829
M  V30 878 1 300 830 CFG=1
M  V30 879 1 301 831
M  V30 880 1 302 832
M  V30 881 1 302 833
M  V30 882 1 303 834
M  V30 883 1 303 835
M  V30 884 1 304 836 CFG=1
M  V30 885 1 305 837
M  V30 886 1 305 838
M  V30 887 1 306 839
M  V30 888 1 306 840
M  V30 889 1 307 841 CFG=1
M  V30 890 1 309 842
M  V30 891 1 309 843
M  V30 892 1 310 844
M  V30 893 1 310 845
M  V30 894 1 311 846
M  V30 895 1 312 847
M  V30 896 1 313 848
M  V30 897 1 313 849
M  V30 898 1 314 850
M  V30 899 1 315 851 CFG=1
M  V30 900 1 316 852 CFG=3
M  V30 901 1 318 853
M  V30 902 1 319 854
M  V30 903 1 319 855
M  V30 904 1 320 856
M  V30 905 1 320 857
M  V30 906 1 321 858
M  V30 907 1 322 859
M  V30 908 1 322 860
M  V30 909 1 323 861
M  V30 910 1 323 862
M  V30 911 1 324 863
M  V30 912 1 324 864
M  V30 913 1 326 865
M  V30 914 1 326 866
M  V30 915 1 326 867
M  V30 916 1 329 868
M  V30 917 1 329 869
M  V30 918 1 329 870
M  V30 919 1 331 871
M  V30 920 1 331 872
M  V30 921 1 331 873
M  V30 922 1 332 874
M  V30 923 1 332 875
M  V30 924 1 332 876
M  V30 925 1 333 877
M  V30 926 1 333 878
M  V30 927 1 333 879
M  V30 928 1 334 880
M  V30 929 1 334 881
M  V30 930 1 334 882
M  V30 931 1 335 883
M  V30 932 1 335 884
M  V30 933 1 335 885
M  V30 934 1 336 886
M  V30 935 1 336 887
M  V30 936 1 336 888
M  V30 937 1 338 889
M  V30 938 1 338 890
M  V30 939 1 339 891
M  V30 940 1 339 892
M  V30 941 1 340 893
M  V30 942 1 341 894
M  V30 943 1 342 895 CFG=3
M  V30 944 1 343 896
M  V30 945 1 343 897
M  V30 946 1 344 898
M  V30 947 1 345 899
M  V30 948 1 346 900
M  V30 949 1 346 901
M  V30 950 1 348 902 CFG=1
M  V30 951 1 349 903 CFG=3
M  V30 952 1 350 904
M  V30 953 1 350 905
M  V30 954 1 351 906
M  V30 955 1 351 907
M  V30 956 1 352 908 CFG=1
M  V30 957 1 353 909
M  V30 958 1 353 910
M  V30 959 1 354 911
M  V30 960 1 354 912
M  V30 961 1 355 913 CFG=1
M  V30 962 1 357 914
M  V30 963 1 357 915
M  V30 964 1 358 916
M  V30 965 1 358 917
M  V30 966 1 359 918
M  V30 967 1 360 919
M  V30 968 1 361 920
M  V30 969 1 361 921
M  V30 970 1 362 922
M  V30 971 1 363 923
M  V30 972 1 364 924
M  V30 973 1 366 925
M  V30 974 1 367 926
M  V30 975 1 367 927
M  V30 976 1 368 928
M  V30 977 1 368 929
M  V30 978 1 369 930
M  V30 979 1 370 931
M  V30 980 1 370 932
M  V30 981 1 371 933
M  V30 982 1 371 934
M  V30 983 1 372 935
M  V30 984 1 372 936
M  V30 985 1 374 937
M  V30 986 1 374 938
M  V30 987 1 374 939
M  V30 988 1 377 940
M  V30 989 1 377 941
M  V30 990 1 377 942
M  V30 991 1 379 943
M  V30 992 1 379 944
M  V30 993 1 379 945
M  V30 994 1 380 946
M  V30 995 1 380 947
M  V30 996 1 380 948
M  V30 997 1 381 949
M  V30 998 1 381 950
M  V30 999 1 381 951
M  V30 1000 1 382 952
M  V30 1001 1 382 953
M  V30 1002 1 382 954
M  V30 1003 1 383 955
M  V30 1004 1 383 956
M  V30 1005 1 383 957
M  V30 1006 1 384 958
M  V30 1007 1 384 959
M  V30 1008 1 384 960
M  V30 END BOND
M  V30 END CTAB
M  END
>  <PDBID>  (1) 
3PEO

>  <PDB ID>  (1) 
3PEO

>  <Generic Name>  (1) 
Metocurine

>  <Brand Name>  (1) 
nan

>  <DrugBank ID>  (1) 
DB01336

>  <ATC Codes>  (1) 
M03AA04

>  <Ligand ID>  (1) 
CU9

>  <Target Name>  (1) 
Neuronal acetylcholine receptor subunit alpha-2

>  <UniProt ID>  (1) 
Q15822

>  <PDB ID.1>  (1) 
3PEO

>  <Seq. Identity>  (1) 
30%

$$$$
