PDB_DB04787_08
     RDKit          3D

104108  0  0  0  0  0  0  0  0999 V2000
   -3.6368    2.3254    0.3114 C   0  0  0  0  0  0  0  0  0  0  0  0
   -3.2606    0.9589   -0.2685 C   0  0  0  0  0  0  0  0  0  0  0  0
   -2.0639    0.3985    0.4212 C   0  0  2  0  0  0  0  0  0  0  0  0
   -0.8253    0.3679   -0.4506 C   0  0  0  0  0  0  0  0  0  0  0  0
    0.3654    0.3404    0.5273 C   0  0  1  0  0  0  0  0  0  0  0  0
    0.0485   -0.6561    1.5559 C   0  0  0  0  0  0  0  0  0  0  0  0
   -0.9464   -1.7237    1.0704 C   0  0  0  0  0  0  0  0  0  0  0  0
   -2.3000   -1.0315    0.8949 C   0  0  0  0  0  0  0  0  0  0  0  0
   -2.9877   -1.7447   -0.1651 N   0  0  0  0  0  0  0  0  0  0  0  0
   -4.2137   -1.1225   -0.5671 C   0  0  0  0  0  0  0  0  0  0  0  0
   -5.5821   -2.1568    0.0338 S   0  0  0  0  0  0  0  0  0  0  0  0
   -4.3507    0.1238    0.0009 O   0  0  0  0  0  0  0  0  0  0  0  0
    1.5694    0.2437   -0.2694 C   0  0  2  0  0  0  0  0  0  0  0  0
    1.7775   -0.9116   -1.1628 C   0  0  0  0  0  0  0  0  0  0  0  0
    3.2631   -0.7622   -1.5388 C   0  0  0  0  0  0  0  0  0  0  0  0
    3.6487    0.4781   -0.8340 C   0  0  0  0  0  0  0  0  0  0  0  0
    2.8503    0.3762    0.3992 N   0  0  0  0  0  0  0  0  0  0  0  0
    3.2897   -0.7941    1.0830 C   0  0  0  0  0  0  0  0  0  0  0  0
    5.0515    0.7829   -0.6527 C   0  0  0  0  0  0  0  0  0  0  0  0
    5.1622    2.0598    0.0725 N   0  0  0  0  0  0  0  0  0  0  0  0
   -3.0647    1.1597   -1.7542 C   0  0  0  0  0  0  0  0  0  0  0  0
   -3.3114    2.3732   -0.3240 C   0  0  0  0  0  0  0  0  0  0  0  0
   -3.2744    0.8432   -0.4578 C   0  0  0  0  0  0  0  0  0  0  0  0
   -2.1197    0.3182    0.3279 C   0  0  0  0  0  0  0  0  0  0  0  0
   -0.8270    0.3278   -0.4583 C   0  0  0  0  0  0  0  0  0  0  0  0
    0.3323    0.1056    0.5322 C   0  0  1  0  0  0  0  0  0  0  0  0
    0.1643   -1.2820    1.0370 C   0  0  0  0  0  0  0  0  0  0  0  0
   -1.1317   -1.9306    0.6267 C   0  0  0  0  0  0  0  0  0  0  0  0
   -2.3505   -1.0660    0.8380 C   0  0  0  0  0  0  0  0  0  0  0  0
   -3.4346   -1.7116    0.1525 N   0  0  0  0  0  0  0  0  0  0  0  0
   -4.6377   -0.9632    0.0370 C   0  0  0  0  0  0  0  0  0  0  0  0
   -5.7402   -1.4752    1.4008 S   0  0  0  0  0  0  0  0  0  0  0  0
   -4.5017    0.4001    0.0189 O   0  0  0  0  0  0  0  0  0  0  0  0
    1.5663    0.4303   -0.1843 C   0  0  2  0  0  0  0  0  0  0  0  0
    1.8605   -0.3964   -1.4006 C   0  0  0  0  0  0  0  0  0  0  0  0
    3.3335   -0.1199   -1.6237 C   0  0  0  0  0  0  0  0  0  0  0  0
    3.6968    0.8444   -0.5384 C   0  0  0  0  0  0  0  0  0  0  0  0
    2.7909    0.4626    0.5298 N   0  0  0  0  0  0  0  0  0  0  0  0
    3.2502   -0.7660    1.0786 C   0  0  0  0  0  0  0  0  0  0  0  0
    5.1354    0.8609   -0.1784 C   0  0  0  0  0  0  0  0  0  0  0  0
    5.3357    1.8325    0.8796 N   0  0  0  0  0  0  0  0  0  0  0  0
   -3.2033    0.5576   -1.9283 C   0  0  0  0  0  0  0  0  0  0  0  0
   -2.7908    3.0192    0.3255 H   0  0  0  0  0  0  0  0  0  0  0  0
   -4.5055    2.6817   -0.2880 H   0  0  0  0  0  0  0  0  0  0  0  0
   -4.0401    2.1077    1.3327 H   0  0  0  0  0  0  0  0  0  0  0  0
   -1.8166    1.0473    1.3009 H   0  0  0  0  0  0  0  0  0  0  0  0
   -0.7594   -0.5209   -1.0782 H   0  0  0  0  0  0  0  0  0  0  0  0
   -0.7096    1.2608   -1.0757 H   0  0  0  0  0  0  0  0  0  0  0  0
    0.3389    1.3736    0.9923 H   0  0  0  0  0  0  0  0  0  0  0  0
   -0.5446   -0.1514    2.3831 H   0  0  0  0  0  0  0  0  0  0  0  0
    0.8826   -1.1279    2.0848 H   0  0  0  0  0  0  0  0  0  0  0  0
   -1.0374   -2.4818    1.8500 H   0  0  0  0  0  0  0  0  0  0  0  0
   -0.6561   -2.1786    0.1347 H   0  0  0  0  0  0  0  0  0  0  0  0
   -2.8687   -0.9793    1.8249 H   0  0  0  0  0  0  0  0  0  0  0  0
   -2.3374   -1.8224   -0.9749 H   0  0  0  0  0  0  0  0  0  0  0  0
   -4.3083   -1.0332   -1.6717 H   0  0  0  0  0  0  0  0  0  0  0  0
   -5.1324   -3.4626    0.3204 H   0  0  0  0  0  0  0  0  0  0  0  0
    1.5529    1.1450   -0.9708 H   0  0  0  0  0  0  0  0  0  0  0  0
    1.1805   -0.7661   -2.1105 H   0  0  0  0  0  0  0  0  0  0  0  0
    1.5362   -1.8948   -0.7919 H   0  0  0  0  0  0  0  0  0  0  0  0
    3.8370   -1.6517   -1.2379 H   0  0  0  0  0  0  0  0  0  0  0  0
    3.3655   -0.5899   -2.6376 H   0  0  0  0  0  0  0  0  0  0  0  0
    3.1675    1.3387   -1.3887 H   0  0  0  0  0  0  0  0  0  0  0  0
    3.2085   -0.5760    2.1900 H   0  0  0  0  0  0  0  0  0  0  0  0
    4.3953   -1.0001    0.9578 H   0  0  0  0  0  0  0  0  0  0  0  0
    2.8036   -1.7305    0.7937 H   0  0  0  0  0  0  0  0  0  0  0  0
    5.7025    0.0851   -0.1529 H   0  0  0  0  0  0  0  0  0  0  0  0
    5.5008    0.9961   -1.6491 H   0  0  0  0  0  0  0  0  0  0  0  0
    5.0240    1.8384    1.0938 H   0  0  0  0  0  0  0  0  0  0  0  0
    4.3881    2.6792   -0.2545 H   0  0  0  0  0  0  0  0  0  0  0  0
   -4.0661    1.3495   -2.1898 H   0  0  0  0  0  0  0  0  0  0  0  0
   -2.6476    0.2655   -2.2507 H   0  0  0  0  0  0  0  0  0  0  0  0
   -2.4578    2.0676   -1.9047 H   0  0  0  0  0  0  0  0  0  0  0  0
   -2.3477    2.8008   -0.6581 H   0  0  0  0  0  0  0  0  0  0  0  0
   -4.1501    2.7411   -0.9476 H   0  0  0  0  0  0  0  0  0  0  0  0
   -3.4799    2.6688    0.7277 H   0  0  0  0  0  0  0  0  0  0  0  0
   -1.9515    0.9759    1.2232 H   0  0  0  0  0  0  0  0  0  0  0  0
   -0.8235   -0.4971   -1.1936 H   0  0  0  0  0  0  0  0  0  0  0  0
   -0.7063    1.3214   -0.9071 H   0  0  0  0  0  0  0  0  0  0  0  0
    0.1701    0.8572    1.3308 H   0  0  0  0  0  0  0  0  0  0  0  0
    0.1784   -1.2656    2.1473 H   0  0  0  0  0  0  0  0  0  0  0  0
    0.9629   -1.9830    0.7267 H   0  0  0  0  0  0  0  0  0  0  0  0
   -1.2628   -2.8181    1.3132 H   0  0  0  0  0  0  0  0  0  0  0  0
   -1.1081   -2.3527   -0.3957 H   0  0  0  0  0  0  0  0  0  0  0  0
   -2.6019   -1.0565    1.9353 H   0  0  0  0  0  0  0  0  0  0  0  0
   -3.1263   -2.2167   -0.6819 H   0  0  0  0  0  0  0  0  0  0  0  0
   -5.1494   -1.2986   -0.9090 H   0  0  0  0  0  0  0  0  0  0  0  0
   -6.0891   -2.8434    1.2413 H   0  0  0  0  0  0  0  0  0  0  0  0
    1.4266    1.4864   -0.5855 H   0  0  0  0  0  0  0  0  0  0  0  0
    1.3099    0.0002   -2.2805 H   0  0  0  0  0  0  0  0  0  0  0  0
    1.6482   -1.4705   -1.2774 H   0  0  0  0  0  0  0  0  0  0  0  0
    3.9017   -1.0698   -1.5873 H   0  0  0  0  0  0  0  0  0  0  0  0
    3.5346    0.3710   -2.5958 H   0  0  0  0  0  0  0  0  0  0  0  0
    3.3900    1.8668   -0.8455 H   0  0  0  0  0  0  0  0  0  0  0  0
    2.7039   -1.0041    2.0385 H   0  0  0  0  0  0  0  0  0  0  0  0
    4.3083   -0.6047    1.4464 H   0  0  0  0  0  0  0  0  0  0  0  0
    3.3092   -1.6105    0.3943 H   0  0  0  0  0  0  0  0  0  0  0  0
    5.6160   -0.1011   -0.0186 H   0  0  0  0  0  0  0  0  0  0  0  0
    5.6707    1.3058   -1.0717 H   0  0  0  0  0  0  0  0  0  0  0  0
    6.3045    1.8800    1.2118 H   0  0  0  0  0  0  0  0  0  0  0  0
    5.0848    2.7741    0.5066 H   0  0  0  0  0  0  0  0  0  0  0  0
   -4.2388    0.5047   -2.3231 H   0  0  0  0  0  0  0  0  0  0  0  0
   -2.7062   -0.3949   -2.1795 H   0  0  0  0  0  0  0  0  0  0  0  0
   -2.7121    1.3879   -2.4859 H   0  0  0  0  0  0  0  0  0  0  0  0
  2  1  1  0
  2  3  1  0
  3  4  1  0
  4  5  1  0
  5  6  1  0
  6  7  1  0
  3  8  1  0
  7  8  1  0
  8  9  1  0
  9 10  1  0
 10 11  1  0
  2 12  1  0
 10 12  1  0
  5 13  1  0
 13 14  1  0
 14 15  1  0
 15 16  1  0
 13 17  1  0
 16 17  1  0
 17 18  1  0
 16 19  1  0
 19 20  1  0
  2 21  1  0
 23 22  1  0
 23 24  1  0
 24 25  1  0
 25 26  1  0
 26 27  1  0
 27 28  1  0
 24 29  1  0
 28 29  1  0
 29 30  1  0
 30 31  1  0
 31 32  1  0
 23 33  1  0
 31 33  1  0
 26 34  1  0
 34 35  1  0
 35 36  1  0
 36 37  1  0
 34 38  1  0
 37 38  1  0
 38 39  1  0
 37 40  1  0
 40 41  1  0
 23 42  1  0
  1 43  1  0
  1 44  1  0
  1 45  1  0
  3 46  1  1
  4 47  1  0
  4 48  1  0
  5 49  1  1
  6 50  1  0
  6 51  1  0
  7 52  1  0
  7 53  1  0
  8 54  1  0
  9 55  1  0
 10 56  1  0
 11 57  1  0
 13 58  1  6
 14 59  1  0
 14 60  1  0
 15 61  1  0
 15 62  1  0
 16 63  1  0
 18 64  1  0
 18 65  1  0
 18 66  1  0
 19 67  1  0
 19 68  1  0
 20 69  1  0
 20 70  1  0
 21 71  1  0
 21 72  1  0
 21 73  1  0
 22 74  1  0
 22 75  1  0
 22 76  1  0
 24 77  1  0
 25 78  1  0
 25 79  1  0
 26 80  1  1
 27 81  1  0
 27 82  1  0
 28 83  1  0
 28 84  1  0
 29 85  1  0
 30 86  1  0
 31 87  1  0
 32 88  1  0
 34 89  1  6
 35 90  1  0
 35 91  1  0
 36 92  1  0
 36 93  1  0
 37 94  1  0
 39 95  1  0
 39 96  1  0
 39 97  1  0
 40 98  1  0
 40 99  1  0
 41100  1  0
 41101  1  0
 42102  1  0
 42103  1  0
 42104  1  0
M  END
>  <PDBID>  (1) 
1ZUC

>  <PDB ID>  (1) 
1ZUC

>  <Generic Name>  (1) 
Tanaproget

>  <Brand Name>  (1) 
nan

>  <DrugBank ID>  (1) 
DB04787

>  <ATC Codes>  (1) 
nan

>  <Ligand ID>  (1) 
T98

>  <Target Name>  (1) 
Progesterone receptor

>  <UniProt ID>  (1) 
P06401

>  <PDB ID.1>  (1) 
1ZUC

>  <Seq. Identity>  (1) 
97%

$$$$
