PDB_DB01586_05
     RDKit          3D

140146  0  0  0  0  0  0  0  0999 V2000
   -4.1272   -0.6048    1.2389 C   0  0  0  0  0  0  0  0  0  0  0  0
   -3.2352   -0.8154    0.0651 C   0  0  1  0  0  0  0  0  0  0  0  0
   -1.1820   -0.5287    1.4937 C   0  0  0  0  0  0  0  0  0  0  0  0
    0.2199   -0.9584    1.3930 C   0  0  0  0  0  0  0  0  0  0  0  0
    1.0447   -0.5206    0.2371 C   0  0  1  0  0  0  0  0  0  0  0  0
    0.2062    0.5142   -0.4964 C   0  0  1  0  0  0  0  0  0  0  0  0
    1.1310    1.0025   -1.5069 C   0  0  0  0  0  0  0  0  0  0  0  0
    2.4129    1.1773   -0.6695 C   0  0  0  0  0  0  0  0  0  0  0  0
    2.2404    0.3609    0.5861 C   0  0  2  0  0  0  0  0  0  0  0  0
    1.5605   -1.6010   -0.6517 C   0  0  0  0  0  0  0  0  0  0  0  0
   -3.0600   -2.3044   -0.1326 C   0  0  0  0  0  0  0  0  0  0  0  0
   -1.7495   -0.4257   -3.2304 O   0  0  0  0  0  0  0  0  0  0  0  0
   -4.9569    2.5743   -0.0908 O   0  0  0  0  0  0  0  0  0  0  0  0
   -4.5169    0.8386    1.4560 C   0  0  0  0  0  0  0  0  0  0  0  0
    3.4366   -0.3643    1.0631 C   0  0  2  0  0  0  0  0  0  0  0  0
    3.1646   -1.2019    2.3298 C   0  0  0  0  0  0  0  0  0  0  0  0
    4.6364    0.4518    1.4268 C   0  0  0  0  0  0  0  0  0  0  0  0
    5.3158    1.2498    0.3829 C   0  0  0  0  0  0  0  0  0  0  0  0
    5.9238    0.3988   -0.7182 C   0  0  0  0  0  0  0  0  0  0  0  0
   -5.3312    1.2693    0.2642 C   0  0  2  0  0  0  0  0  0  0  0  0
   -5.2707    0.3147   -0.8798 C   0  0  0  0  0  0  0  0  0  0  0  0
    6.5119    1.2753   -1.6278 O   0  0  0  0  0  0  0  0  0  0  0  0
    6.9967   -0.3523   -0.1774 O   0  0  0  0  0  0  0  0  0  0  0  0
   -3.8791   -0.2171   -1.1500 C   0  0  1  0  0  0  0  0  0  0  0  0
   -3.0882    0.8790   -1.7917 C   0  0  0  0  0  0  0  0  0  0  0  0
   -1.6908    0.4666   -2.1392 C   0  0  1  0  0  0  0  0  0  0  0  0
   -1.0368   -0.1677   -0.9450 C   0  0  2  0  0  0  0  0  0  0  0  0
   -1.9223   -0.1133    0.2872 C   0  0  1  0  0  0  0  0  0  0  0  0
   -4.1272   -0.6048    1.2389 C   0  0  0  0  0  0  0  0  0  0  0  0
   -3.2352   -0.8154    0.0651 C   0  0  1  0  0  0  0  0  0  0  0  0
   -1.1820   -0.5287    1.4937 C   0  0  0  0  0  0  0  0  0  0  0  0
    0.2199   -0.9584    1.3930 C   0  0  0  0  0  0  0  0  0  0  0  0
    1.0447   -0.5206    0.2371 C   0  0  1  0  0  0  0  0  0  0  0  0
    0.2062    0.5142   -0.4964 C   0  0  1  0  0  0  0  0  0  0  0  0
    1.1310    1.0025   -1.5069 C   0  0  0  0  0  0  0  0  0  0  0  0
    2.4129    1.1773   -0.6695 C   0  0  0  0  0  0  0  0  0  0  0  0
    2.2404    0.3609    0.5861 C   0  0  2  0  0  0  0  0  0  0  0  0
    1.5605   -1.6010   -0.6517 C   0  0  0  0  0  0  0  0  0  0  0  0
   -3.0600   -2.3044   -0.1326 C   0  0  0  0  0  0  0  0  0  0  0  0
   -1.7495   -0.4257   -3.2304 O   0  0  0  0  0  0  0  0  0  0  0  0
   -4.9569    2.5743   -0.0908 O   0  0  0  0  0  0  0  0  0  0  0  0
   -4.5169    0.8386    1.4560 C   0  0  0  0  0  0  0  0  0  0  0  0
    3.4366   -0.3643    1.0631 C   0  0  2  0  0  0  0  0  0  0  0  0
    3.1646   -1.2019    2.3298 C   0  0  0  0  0  0  0  0  0  0  0  0
    4.6364    0.4518    1.4268 C   0  0  0  0  0  0  0  0  0  0  0  0
    5.3158    1.2498    0.3829 C   0  0  0  0  0  0  0  0  0  0  0  0
    5.9238    0.3988   -0.7182 C   0  0  0  0  0  0  0  0  0  0  0  0
   -5.3312    1.2693    0.2642 C   0  0  2  0  0  0  0  0  0  0  0  0
   -5.2707    0.3147   -0.8798 C   0  0  0  0  0  0  0  0  0  0  0  0
    6.5119    1.2753   -1.6278 O   0  0  0  0  0  0  0  0  0  0  0  0
    6.9967   -0.3523   -0.1774 O   0  0  0  0  0  0  0  0  0  0  0  0
   -3.8791   -0.2171   -1.1500 C   0  0  1  0  0  0  0  0  0  0  0  0
   -3.0882    0.8790   -1.7917 C   0  0  0  0  0  0  0  0  0  0  0  0
   -1.6908    0.4666   -2.1392 C   0  0  1  0  0  0  0  0  0  0  0  0
   -1.0368   -0.1677   -0.9450 C   0  0  2  0  0  0  0  0  0  0  0  0
   -1.9223   -0.1133    0.2872 C   0  0  1  0  0  0  0  0  0  0  0  0
   -3.7688   -1.0053    2.1864 H   0  0  0  0  0  0  0  0  0  0  0  0
   -5.0929   -1.1482    1.0186 H   0  0  0  0  0  0  0  0  0  0  0  0
   -1.7792   -1.3819    1.9464 H   0  0  0  0  0  0  0  0  0  0  0  0
   -1.2699    0.2555    2.3106 H   0  0  0  0  0  0  0  0  0  0  0  0
    0.7416   -0.6067    2.3322 H   0  0  0  0  0  0  0  0  0  0  0  0
    0.2765   -2.0714    1.4364 H   0  0  0  0  0  0  0  0  0  0  0  0
    0.0129    1.3224    0.2480 H   0  0  0  0  0  0  0  0  0  0  0  0
    0.8022    1.9890   -1.8840 H   0  0  0  0  0  0  0  0  0  0  0  0
    1.3068    0.3027   -2.3539 H   0  0  0  0  0  0  0  0  0  0  0  0
    2.4221    2.2591   -0.3891 H   0  0  0  0  0  0  0  0  0  0  0  0
    3.2063    0.8697   -1.3378 H   0  0  0  0  0  0  0  0  0  0  0  0
    1.8767    1.0242    1.4370 H   0  0  0  0  0  0  0  0  0  0  0  0
    1.8007   -2.5063   -0.0682 H   0  0  0  0  0  0  0  0  0  0  0  0
    2.4877   -1.2441   -1.1955 H   0  0  0  0  0  0  0  0  0  0  0  0
    0.8979   -1.9280   -1.4643 H   0  0  0  0  0  0  0  0  0  0  0  0
   -2.6384   -2.7962    0.7563 H   0  0  0  0  0  0  0  0  0  0  0  0
   -4.1049   -2.7194   -0.2342 H   0  0  0  0  0  0  0  0  0  0  0  0
   -2.5107   -2.5526   -1.0673 H   0  0  0  0  0  0  0  0  0  0  0  0
   -0.8088   -0.5883   -3.4979 H   0  0  0  0  0  0  0  0  0  0  0  0
   -5.1100    3.1658    0.6688 H   0  0  0  0  0  0  0  0  0  0  0  0
   -5.1783    0.8410    2.3690 H   0  0  0  0  0  0  0  0  0  0  0  0
   -3.6823    1.4988    1.6829 H   0  0  0  0  0  0  0  0  0  0  0  0
    3.8013   -1.1418    0.3319 H   0  0  0  0  0  0  0  0  0  0  0  0
    2.5390   -2.0669    2.1501 H   0  0  0  0  0  0  0  0  0  0  0  0
    4.1905   -1.6564    2.5736 H   0  0  0  0  0  0  0  0  0  0  0  0
    2.8956   -0.5314    3.1587 H   0  0  0  0  0  0  0  0  0  0  0  0
    5.4472   -0.2270    1.8605 H   0  0  0  0  0  0  0  0  0  0  0  0
    4.3925    1.0882    2.3450 H   0  0  0  0  0  0  0  0  0  0  0  0
    4.7509    2.0589   -0.0870 H   0  0  0  0  0  0  0  0  0  0  0  0
    6.2433    1.6904    0.9016 H   0  0  0  0  0  0  0  0  0  0  0  0
    5.1952   -0.2636   -1.1920 H   0  0  0  0  0  0  0  0  0  0  0  0
   -6.4185    1.3553    0.5580 H   0  0  0  0  0  0  0  0  0  0  0  0
   -6.0068   -0.5095   -0.7834 H   0  0  0  0  0  0  0  0  0  0  0  0
   -5.5724    0.8785   -1.8045 H   0  0  0  0  0  0  0  0  0  0  0  0
    6.6590    0.8627   -2.5112 H   0  0  0  0  0  0  0  0  0  0  0  0
    7.1669   -0.0952    0.7565 H   0  0  0  0  0  0  0  0  0  0  0  0
   -4.0156   -1.0142   -1.9395 H   0  0  0  0  0  0  0  0  0  0  0  0
   -3.0656    1.8215   -1.2394 H   0  0  0  0  0  0  0  0  0  0  0  0
   -3.6026    1.1081   -2.7671 H   0  0  0  0  0  0  0  0  0  0  0  0
   -1.1083    1.3312   -2.4606 H   0  0  0  0  0  0  0  0  0  0  0  0
   -0.9471   -1.2477   -1.1639 H   0  0  0  0  0  0  0  0  0  0  0  0
   -2.1862    0.9818    0.3960 H   0  0  0  0  0  0  0  0  0  0  0  0
   -3.7688   -1.0053    2.1864 H   0  0  0  0  0  0  0  0  0  0  0  0
   -5.0929   -1.1482    1.0186 H   0  0  0  0  0  0  0  0  0  0  0  0
   -1.7792   -1.3819    1.9464 H   0  0  0  0  0  0  0  0  0  0  0  0
   -1.2699    0.2555    2.3106 H   0  0  0  0  0  0  0  0  0  0  0  0
    0.7416   -0.6067    2.3322 H   0  0  0  0  0  0  0  0  0  0  0  0
    0.2765   -2.0714    1.4364 H   0  0  0  0  0  0  0  0  0  0  0  0
    0.0129    1.3224    0.2480 H   0  0  0  0  0  0  0  0  0  0  0  0
    0.8022    1.9890   -1.8840 H   0  0  0  0  0  0  0  0  0  0  0  0
    1.3068    0.3027   -2.3539 H   0  0  0  0  0  0  0  0  0  0  0  0
    2.4221    2.2591   -0.3891 H   0  0  0  0  0  0  0  0  0  0  0  0
    3.2063    0.8697   -1.3378 H   0  0  0  0  0  0  0  0  0  0  0  0
    1.8767    1.0242    1.4370 H   0  0  0  0  0  0  0  0  0  0  0  0
    1.8007   -2.5063   -0.0682 H   0  0  0  0  0  0  0  0  0  0  0  0
    2.4877   -1.2441   -1.1955 H   0  0  0  0  0  0  0  0  0  0  0  0
    0.8979   -1.9280   -1.4643 H   0  0  0  0  0  0  0  0  0  0  0  0
   -2.6384   -2.7962    0.7563 H   0  0  0  0  0  0  0  0  0  0  0  0
   -4.1049   -2.7194   -0.2342 H   0  0  0  0  0  0  0  0  0  0  0  0
   -2.5107   -2.5526   -1.0673 H   0  0  0  0  0  0  0  0  0  0  0  0
   -0.8088   -0.5883   -3.4979 H   0  0  0  0  0  0  0  0  0  0  0  0
   -5.1100    3.1658    0.6688 H   0  0  0  0  0  0  0  0  0  0  0  0
   -5.1783    0.8410    2.3690 H   0  0  0  0  0  0  0  0  0  0  0  0
   -3.6823    1.4988    1.6829 H   0  0  0  0  0  0  0  0  0  0  0  0
    3.8013   -1.1418    0.3319 H   0  0  0  0  0  0  0  0  0  0  0  0
    2.5390   -2.0669    2.1501 H   0  0  0  0  0  0  0  0  0  0  0  0
    4.1905   -1.6564    2.5736 H   0  0  0  0  0  0  0  0  0  0  0  0
    2.8956   -0.5314    3.1587 H   0  0  0  0  0  0  0  0  0  0  0  0
    5.4472   -0.2270    1.8605 H   0  0  0  0  0  0  0  0  0  0  0  0
    4.3925    1.0882    2.3450 H   0  0  0  0  0  0  0  0  0  0  0  0
    4.7509    2.0589   -0.0870 H   0  0  0  0  0  0  0  0  0  0  0  0
    6.2433    1.6904    0.9016 H   0  0  0  0  0  0  0  0  0  0  0  0
    5.1952   -0.2636   -1.1920 H   0  0  0  0  0  0  0  0  0  0  0  0
   -6.4185    1.3553    0.5580 H   0  0  0  0  0  0  0  0  0  0  0  0
   -6.0068   -0.5095   -0.7834 H   0  0  0  0  0  0  0  0  0  0  0  0
   -5.5724    0.8785   -1.8045 H   0  0  0  0  0  0  0  0  0  0  0  0
    6.6590    0.8627   -2.5112 H   0  0  0  0  0  0  0  0  0  0  0  0
    7.1669   -0.0952    0.7565 H   0  0  0  0  0  0  0  0  0  0  0  0
   -4.0156   -1.0142   -1.9395 H   0  0  0  0  0  0  0  0  0  0  0  0
   -3.0656    1.8215   -1.2394 H   0  0  0  0  0  0  0  0  0  0  0  0
   -3.6026    1.1081   -2.7671 H   0  0  0  0  0  0  0  0  0  0  0  0
   -1.1083    1.3312   -2.4606 H   0  0  0  0  0  0  0  0  0  0  0  0
   -0.9471   -1.2477   -1.1639 H   0  0  0  0  0  0  0  0  0  0  0  0
   -2.1862    0.9818    0.3960 H   0  0  0  0  0  0  0  0  0  0  0  0
  1  2  1  0
  3  4  1  0
  4  5  1  0
  5  6  1  0
  6  7  1  0
  7  8  1  0
  5  9  1  0
  8  9  1  0
  5 10  1  6
  2 11  1  6
  1 14  1  0
  9 15  1  0
 15 16  1  0
 15 17  1  0
 17 18  1  0
 18 19  1  0
 13 20  1  0
 14 20  1  0
 20 21  1  0
 19 22  1  0
 19 23  1  0
  2 24  1  0
 21 24  1  0
 24 25  1  0
 12 26  1  0
 25 26  1  0
  6 27  1  0
 26 27  1  0
  2 28  1  0
  3 28  1  0
 27 28  1  0
 29 30  1  0
 31 32  1  0
 32 33  1  0
 33 34  1  0
 34 35  1  0
 35 36  1  0
 33 37  1  0
 36 37  1  0
 33 38  1  6
 30 39  1  6
 29 42  1  0
 37 43  1  0
 43 44  1  0
 43 45  1  0
 45 46  1  0
 46 47  1  0
 41 48  1  0
 42 48  1  0
 48 49  1  0
 47 50  1  0
 47 51  1  0
 30 52  1  0
 49 52  1  0
 52 53  1  0
 40 54  1  0
 53 54  1  0
 34 55  1  0
 54 55  1  0
 30 56  1  0
 31 56  1  0
 55 56  1  0
  1 57  1  0
  1 58  1  0
  3 59  1  0
  3 60  1  0
  4 61  1  0
  4 62  1  0
  6 63  1  1
  7 64  1  0
  7 65  1  0
  8 66  1  0
  8 67  1  0
  9 68  1  1
 10 69  1  0
 10 70  1  0
 10 71  1  0
 11 72  1  0
 11 73  1  0
 11 74  1  0
 12 75  1  0
 13 76  1  0
 14 77  1  0
 14 78  1  0
 15 79  1  6
 16 80  1  0
 16 81  1  0
 16 82  1  0
 17 83  1  0
 17 84  1  0
 18 85  1  0
 18 86  1  0
 19 87  1  0
 20 88  1  1
 21 89  1  0
 21 90  1  0
 22 91  1  0
 23 92  1  0
 24 93  1  6
 25 94  1  0
 25 95  1  0
 26 96  1  6
 27 97  1  6
 28 98  1  1
 29 99  1  0
 29100  1  0
 31101  1  0
 31102  1  0
 32103  1  0
 32104  1  0
 34105  1  1
 35106  1  0
 35107  1  0
 36108  1  0
 36109  1  0
 37110  1  1
 38111  1  0
 38112  1  0
 38113  1  0
 39114  1  0
 39115  1  0
 39116  1  0
 40117  1  0
 41118  1  0
 42119  1  0
 42120  1  0
 43121  1  6
 44122  1  0
 44123  1  0
 44124  1  0
 45125  1  0
 45126  1  0
 46127  1  0
 46128  1  0
 47129  1  0
 48130  1  1
 49131  1  0
 49132  1  0
 50133  1  0
 51134  1  0
 52135  1  6
 53136  1  0
 53137  1  0
 54138  1  6
 55139  1  6
 56140  1  1
M  END
>  <PDBID>  (1) 
1IHI

>  <PDB ID>  (1) 
1IHI

>  <Generic Name>  (1) 
Ursodeoxycholic acid

>  <Brand Name>  (1) 
Actigall#Dom-ursodiol C#Mint-ursodiol#Novo-ursodiol#PHL-ursodiol C#PMS-ursodiol#PMS-ursodiol C#Pendo-ursodiol C#Urso#Urso 250#Urso DS#Urso Forte#Ursodiol#Ursodiol Tablets USP#Ursodiol Tablets, 250 mg#Ursodiol Tablets, 500 mg#Ursofalk#Cholit-ursan#Delursan#Destolit#Deursil#Litursol#Solutrat#Ursacol#Ursochol#Ursolvan

>  <DrugBank ID>  (1) 
DB01586

>  <ATC Codes>  (1) 
A05AA02

>  <Ligand ID>  (1) 
IU5,JN3

>  <Target Name>  (1) 
Aldo-keto reductase family 1 member C2

>  <UniProt ID>  (1) 
P52895

>  <PDB ID.1>  (1) 
1IHI

>  <Seq. Identity>  (1) 
100%

$$$$
