PDB_DB00862_08
     RDKit          3D

164170  0  0  0  0  0  0  0  0999 V2000
   -2.7761    3.6494    1.0091 C   0  0  0  0  0  0  0  0  0  0  0  0
   -2.2569    4.0193   -0.3520 C   0  0  0  0  0  0  0  0  0  0  0  0
   -1.5198    3.0622   -0.9795 O   0  0  0  0  0  0  0  0  0  0  0  0
   -0.3805    2.6292   -0.3362 C   0  0  0  0  0  0  0  0  0  0  0  0
    0.8318    3.1293   -1.1593 C   0  0  0  0  0  0  0  0  0  0  0  0
    2.0526    2.2984   -0.8674 C   0  0  0  0  0  0  0  0  0  0  0  0
    1.9477    1.6978    0.5054 C   0  0  0  0  0  0  0  0  0  0  0  0
    0.8754    0.6219    0.4577 C   0  0  0  0  0  0  0  0  0  0  0  0
   -0.3600    1.1442   -0.2535 C   0  0  0  0  0  0  0  0  0  0  0  0
    3.4746    1.0526    0.9909 S   0  0  0  0  0  0  0  0  0  0  0  0
    3.3764    0.4339    2.3953 O   0  0  0  0  0  0  0  0  0  0  0  0
    4.4612    2.4554    1.1522 O   0  0  0  0  0  0  0  0  0  0  0  0
    7.6190   -2.6613    1.6705 C   0  0  0  0  0  0  0  0  0  0  0  0
    4.1175    0.2328   -0.1980 N   0  0  0  0  0  0  0  0  0  0  0  0
    5.5072    0.4931   -0.5372 C   0  0  0  0  0  0  0  0  0  0  0  0
    6.3429   -0.3354    0.4157 C   0  0  0  0  0  0  0  0  0  0  0  0
    5.9255   -1.6961    0.2839 N   0  0  0  0  0  0  0  0  0  0  0  0
    4.9732   -1.9314   -0.7518 C   0  0  0  0  0  0  0  0  0  0  0  0
    3.7302   -1.1142   -0.4693 C   0  0  0  0  0  0  0  0  0  0  0  0
    7.0132   -2.6482    0.2954 C   0  0  0  0  0  0  0  0  0  0  0  0
   -1.6252    0.5986    0.3100 C   0  0  0  0  0  0  0  0  0  0  0  0
   -1.5473   -0.8798    0.3977 N   0  0  0  0  0  0  0  0  0  0  0  0
   -2.6334   -1.2564    1.2944 C   0  0  0  0  0  0  0  0  0  0  0  0
   -3.8235   -0.3528    1.1452 C   0  0  0  0  0  0  0  0  0  0  0  0
   -3.8954    0.3650   -0.0759 N   0  0  0  0  0  0  0  0  0  0  0  0
   -2.7377    0.8087   -0.6330 N   0  0  0  0  0  0  0  0  0  0  0  0
   -2.0990   -1.1465    2.5980 O   0  0  0  0  0  0  0  0  0  0  0  0
   -5.1299   -1.1444    1.1408 C   0  0  0  0  0  0  0  0  0  0  0  0
   -5.1425   -1.5559   -0.2676 N   0  0  0  0  0  0  0  0  0  0  0  0
   -4.8526   -0.2605   -0.9394 C   0  0  0  0  0  0  0  0  0  0  0  0
   -5.1327   -2.2901    2.0905 C   0  0  0  0  0  0  0  0  0  0  0  0
   -4.3780   -0.5637   -2.3107 C   0  0  0  0  0  0  0  0  0  0  0  0
   -5.4671   -1.1886   -3.1248 C   0  0  0  0  0  0  0  0  0  0  0  0
   -6.0095   -2.4793   -2.6187 C   0  0  0  0  0  0  0  0  0  0  0  0
   -2.7761    3.6494    1.0091 C   0  0  0  0  0  0  0  0  0  0  0  0
   -2.2569    4.0193   -0.3520 C   0  0  0  0  0  0  0  0  0  0  0  0
   -1.5198    3.0622   -0.9795 O   0  0  0  0  0  0  0  0  0  0  0  0
   -0.3805    2.6292   -0.3362 C   0  0  0  0  0  0  0  0  0  0  0  0
    0.8318    3.1293   -1.1593 C   0  0  0  0  0  0  0  0  0  0  0  0
    2.0526    2.2984   -0.8674 C   0  0  0  0  0  0  0  0  0  0  0  0
    1.9477    1.6978    0.5054 C   0  0  0  0  0  0  0  0  0  0  0  0
    0.8754    0.6219    0.4577 C   0  0  0  0  0  0  0  0  0  0  0  0
   -0.3600    1.1442   -0.2535 C   0  0  0  0  0  0  0  0  0  0  0  0
    3.4746    1.0526    0.9909 S   0  0  0  0  0  0  0  0  0  0  0  0
    3.3764    0.4339    2.3953 O   0  0  0  0  0  0  0  0  0  0  0  0
    4.4612    2.4554    1.1522 O   0  0  0  0  0  0  0  0  0  0  0  0
    7.6190   -2.6613    1.6705 C   0  0  0  0  0  0  0  0  0  0  0  0
    4.1175    0.2328   -0.1980 N   0  0  0  0  0  0  0  0  0  0  0  0
    5.5072    0.4931   -0.5372 C   0  0  0  0  0  0  0  0  0  0  0  0
    6.3429   -0.3354    0.4157 C   0  0  0  0  0  0  0  0  0  0  0  0
    5.9255   -1.6961    0.2839 N   0  0  0  0  0  0  0  0  0  0  0  0
    4.9732   -1.9314   -0.7518 C   0  0  0  0  0  0  0  0  0  0  0  0
    3.7302   -1.1142   -0.4693 C   0  0  0  0  0  0  0  0  0  0  0  0
    7.0132   -2.6482    0.2954 C   0  0  0  0  0  0  0  0  0  0  0  0
   -1.6252    0.5986    0.3100 C   0  0  0  0  0  0  0  0  0  0  0  0
   -1.5473   -0.8798    0.3977 N   0  0  0  0  0  0  0  0  0  0  0  0
   -2.6334   -1.2564    1.2944 C   0  0  0  0  0  0  0  0  0  0  0  0
   -3.8235   -0.3528    1.1452 C   0  0  0  0  0  0  0  0  0  0  0  0
   -3.8954    0.3650   -0.0759 N   0  0  0  0  0  0  0  0  0  0  0  0
   -2.7377    0.8087   -0.6330 N   0  0  0  0  0  0  0  0  0  0  0  0
   -2.0990   -1.1465    2.5980 O   0  0  0  0  0  0  0  0  0  0  0  0
   -5.1299   -1.1444    1.1408 C   0  0  0  0  0  0  0  0  0  0  0  0
   -5.1425   -1.5559   -0.2676 N   0  0  0  0  0  0  0  0  0  0  0  0
   -4.8526   -0.2605   -0.9394 C   0  0  0  0  0  0  0  0  0  0  0  0
   -5.1327   -2.2901    2.0905 C   0  0  0  0  0  0  0  0  0  0  0  0
   -4.3780   -0.5637   -2.3107 C   0  0  0  0  0  0  0  0  0  0  0  0
   -5.4671   -1.1886   -3.1248 C   0  0  0  0  0  0  0  0  0  0  0  0
   -6.0095   -2.4793   -2.6187 C   0  0  0  0  0  0  0  0  0  0  0  0
   -3.1961    4.5996    1.4397 H   0  0  0  0  0  0  0  0  0  0  0  0
   -2.0162    3.2877    1.7068 H   0  0  0  0  0  0  0  0  0  0  0  0
   -3.6533    2.9544    0.9054 H   0  0  0  0  0  0  0  0  0  0  0  0
   -3.1828    4.1929   -0.9826 H   0  0  0  0  0  0  0  0  0  0  0  0
   -1.7270    4.9926   -0.2384 H   0  0  0  0  0  0  0  0  0  0  0  0
   -0.2977    3.0877    0.6701 H   0  0  0  0  0  0  0  0  0  0  0  0
    1.0273    4.1555   -0.8080 H   0  0  0  0  0  0  0  0  0  0  0  0
    0.5491    3.1146   -2.2111 H   0  0  0  0  0  0  0  0  0  0  0  0
    2.2272    1.5319   -1.6486 H   0  0  0  0  0  0  0  0  0  0  0  0
    2.9591    2.9551   -0.8701 H   0  0  0  0  0  0  0  0  0  0  0  0
    1.5854    2.5081    1.1935 H   0  0  0  0  0  0  0  0  0  0  0  0
    1.2920   -0.2623   -0.0635 H   0  0  0  0  0  0  0  0  0  0  0  0
    0.6403    0.3451    1.4856 H   0  0  0  0  0  0  0  0  0  0  0  0
   -0.2751    0.7785   -1.3258 H   0  0  0  0  0  0  0  0  0  0  0  0
    3.2288   -0.5280    2.5707 H   0  0  0  0  0  0  0  0  0  0  0  0
    5.0072    2.3612    1.9932 H   0  0  0  0  0  0  0  0  0  0  0  0
    7.0322   -3.3515    2.3228 H   0  0  0  0  0  0  0  0  0  0  0  0
    8.6544   -3.0996    1.6111 H   0  0  0  0  0  0  0  0  0  0  0  0
    7.7113   -1.6792    2.1400 H   0  0  0  0  0  0  0  0  0  0  0  0
    5.6903    1.5681   -0.3430 H   0  0  0  0  0  0  0  0  0  0  0  0
    5.7033    0.2898   -1.5886 H   0  0  0  0  0  0  0  0  0  0  0  0
    7.4301   -0.1642    0.2362 H   0  0  0  0  0  0  0  0  0  0  0  0
    6.0437   -0.0109    1.4560 H   0  0  0  0  0  0  0  0  0  0  0  0
    4.7198   -3.0106   -0.7629 H   0  0  0  0  0  0  0  0  0  0  0  0
    5.3282   -1.6988   -1.7755 H   0  0  0  0  0  0  0  0  0  0  0  0
    3.2516   -1.5554    0.4283 H   0  0  0  0  0  0  0  0  0  0  0  0
    3.0823   -1.1576   -1.3695 H   0  0  0  0  0  0  0  0  0  0  0  0
    6.5810   -3.6535    0.1058 H   0  0  0  0  0  0  0  0  0  0  0  0
    7.7575   -2.4535   -0.5022 H   0  0  0  0  0  0  0  0  0  0  0  0
   -1.8706    0.9425    1.3090 H   0  0  0  0  0  0  0  0  0  0  0  0
   -1.6624   -1.2544   -0.5561 H   0  0  0  0  0  0  0  0  0  0  0  0
   -2.8828   -2.3006    1.0548 H   0  0  0  0  0  0  0  0  0  0  0  0
   -3.8854    0.3077    2.0526 H   0  0  0  0  0  0  0  0  0  0  0  0
   -2.4442    0.3524   -1.5120 H   0  0  0  0  0  0  0  0  0  0  0  0
   -1.7110   -2.0158    2.8728 H   0  0  0  0  0  0  0  0  0  0  0  0
   -5.9396   -0.4240    1.2934 H   0  0  0  0  0  0  0  0  0  0  0  0
   -4.2948   -2.1761   -0.4111 H   0  0  0  0  0  0  0  0  0  0  0  0
   -5.7720    0.3334   -0.9961 H   0  0  0  0  0  0  0  0  0  0  0  0
   -5.9828   -2.1302    2.8044 H   0  0  0  0  0  0  0  0  0  0  0  0
   -4.1724   -2.4197    2.6287 H   0  0  0  0  0  0  0  0  0  0  0  0
   -5.3559   -3.2193    1.5155 H   0  0  0  0  0  0  0  0  0  0  0  0
   -3.4685   -1.2050   -2.3393 H   0  0  0  0  0  0  0  0  0  0  0  0
   -4.1148    0.4026   -2.8365 H   0  0  0  0  0  0  0  0  0  0  0  0
   -5.1465   -1.3789   -4.1854 H   0  0  0  0  0  0  0  0  0  0  0  0
   -6.3468   -0.4947   -3.2484 H   0  0  0  0  0  0  0  0  0  0  0  0
   -6.6208   -3.0068   -3.4238 H   0  0  0  0  0  0  0  0  0  0  0  0
   -5.2360   -3.2158   -2.2976 H   0  0  0  0  0  0  0  0  0  0  0  0
   -6.7275   -2.3819   -1.7788 H   0  0  0  0  0  0  0  0  0  0  0  0
   -3.1961    4.5996    1.4397 H   0  0  0  0  0  0  0  0  0  0  0  0
   -2.0162    3.2877    1.7068 H   0  0  0  0  0  0  0  0  0  0  0  0
   -3.6533    2.9544    0.9054 H   0  0  0  0  0  0  0  0  0  0  0  0
   -3.1828    4.1929   -0.9826 H   0  0  0  0  0  0  0  0  0  0  0  0
   -1.7270    4.9926   -0.2384 H   0  0  0  0  0  0  0  0  0  0  0  0
   -0.2977    3.0877    0.6701 H   0  0  0  0  0  0  0  0  0  0  0  0
    1.0273    4.1555   -0.8080 H   0  0  0  0  0  0  0  0  0  0  0  0
    0.5491    3.1146   -2.2111 H   0  0  0  0  0  0  0  0  0  0  0  0
    2.2272    1.5319   -1.6486 H   0  0  0  0  0  0  0  0  0  0  0  0
    2.9591    2.9551   -0.8701 H   0  0  0  0  0  0  0  0  0  0  0  0
    1.5854    2.5081    1.1935 H   0  0  0  0  0  0  0  0  0  0  0  0
    1.2920   -0.2623   -0.0635 H   0  0  0  0  0  0  0  0  0  0  0  0
    0.6403    0.3451    1.4856 H   0  0  0  0  0  0  0  0  0  0  0  0
   -0.2751    0.7785   -1.3258 H   0  0  0  0  0  0  0  0  0  0  0  0
    3.2288   -0.5280    2.5707 H   0  0  0  0  0  0  0  0  0  0  0  0
    5.0072    2.3612    1.9932 H   0  0  0  0  0  0  0  0  0  0  0  0
    7.0322   -3.3515    2.3228 H   0  0  0  0  0  0  0  0  0  0  0  0
    8.6544   -3.0996    1.6111 H   0  0  0  0  0  0  0  0  0  0  0  0
    7.7113   -1.6792    2.1400 H   0  0  0  0  0  0  0  0  0  0  0  0
    5.6903    1.5681   -0.3430 H   0  0  0  0  0  0  0  0  0  0  0  0
    5.7033    0.2898   -1.5886 H   0  0  0  0  0  0  0  0  0  0  0  0
    7.4301   -0.1642    0.2362 H   0  0  0  0  0  0  0  0  0  0  0  0
    6.0437   -0.0109    1.4560 H   0  0  0  0  0  0  0  0  0  0  0  0
    4.7198   -3.0106   -0.7629 H   0  0  0  0  0  0  0  0  0  0  0  0
    5.3282   -1.6988   -1.7755 H   0  0  0  0  0  0  0  0  0  0  0  0
    3.2516   -1.5554    0.4283 H   0  0  0  0  0  0  0  0  0  0  0  0
    3.0823   -1.1576   -1.3695 H   0  0  0  0  0  0  0  0  0  0  0  0
    6.5810   -3.6535    0.1058 H   0  0  0  0  0  0  0  0  0  0  0  0
    7.7575   -2.4535   -0.5022 H   0  0  0  0  0  0  0  0  0  0  0  0
   -1.8706    0.9425    1.3090 H   0  0  0  0  0  0  0  0  0  0  0  0
   -1.6624   -1.2544   -0.5561 H   0  0  0  0  0  0  0  0  0  0  0  0
   -2.8828   -2.3006    1.0548 H   0  0  0  0  0  0  0  0  0  0  0  0
   -3.8854    0.3077    2.0526 H   0  0  0  0  0  0  0  0  0  0  0  0
   -2.4442    0.3524   -1.5120 H   0  0  0  0  0  0  0  0  0  0  0  0
   -1.7110   -2.0158    2.8728 H   0  0  0  0  0  0  0  0  0  0  0  0
   -5.9396   -0.4240    1.2934 H   0  0  0  0  0  0  0  0  0  0  0  0
   -4.2948   -2.1761   -0.4111 H   0  0  0  0  0  0  0  0  0  0  0  0
   -5.7720    0.3334   -0.9961 H   0  0  0  0  0  0  0  0  0  0  0  0
   -5.9828   -2.1302    2.8044 H   0  0  0  0  0  0  0  0  0  0  0  0
   -4.1724   -2.4197    2.6287 H   0  0  0  0  0  0  0  0  0  0  0  0
   -5.3559   -3.2193    1.5155 H   0  0  0  0  0  0  0  0  0  0  0  0
   -3.4685   -1.2050   -2.3393 H   0  0  0  0  0  0  0  0  0  0  0  0
   -4.1148    0.4026   -2.8365 H   0  0  0  0  0  0  0  0  0  0  0  0
   -5.1465   -1.3789   -4.1854 H   0  0  0  0  0  0  0  0  0  0  0  0
   -6.3468   -0.4947   -3.2484 H   0  0  0  0  0  0  0  0  0  0  0  0
   -6.6208   -3.0068   -3.4238 H   0  0  0  0  0  0  0  0  0  0  0  0
   -5.2360   -3.2158   -2.2976 H   0  0  0  0  0  0  0  0  0  0  0  0
   -6.7275   -2.3819   -1.7788 H   0  0  0  0  0  0  0  0  0  0  0  0
  1  2  1  0
  2  3  1  0
  3  4  1  0
  4  5  1  0
  5  6  1  0
  6  7  1  0
  7  8  1  0
  4  9  1  0
  8  9  1  0
  7 10  1  0
 10 11  1  0
 10 12  1  0
 10 14  1  0
 14 15  1  0
 15 16  1  0
 16 17  1  0
 17 18  1  0
 14 19  1  0
 18 19  1  0
 13 20  1  0
 17 20  1  0
  9 21  1  0
 21 22  1  0
 22 23  1  0
 23 24  1  0
 24 25  1  0
 21 26  1  0
 25 26  1  0
 23 27  1  0
 24 28  1  0
 28 29  1  0
 25 30  1  0
 29 30  1  0
 28 31  1  0
 30 32  1  0
 32 33  1  0
 33 34  1  0
 35 36  1  0
 36 37  1  0
 37 38  1  0
 38 39  1  0
 39 40  1  0
 40 41  1  0
 41 42  1  0
 38 43  1  0
 42 43  1  0
 41 44  1  0
 44 45  1  0
 44 46  1  0
 44 48  1  0
 48 49  1  0
 49 50  1  0
 50 51  1  0
 51 52  1  0
 48 53  1  0
 52 53  1  0
 47 54  1  0
 51 54  1  0
 43 55  1  0
 55 56  1  0
 56 57  1  0
 57 58  1  0
 58 59  1  0
 55 60  1  0
 59 60  1  0
 57 61  1  0
 58 62  1  0
 62 63  1  0
 59 64  1  0
 63 64  1  0
 62 65  1  0
 64 66  1  0
 66 67  1  0
 67 68  1  0
  1 69  1  0
  1 70  1  0
  1 71  1  0
  2 72  1  0
  2 73  1  0
  4 74  1  0
  5 75  1  0
  5 76  1  0
  6 77  1  0
  6 78  1  0
  7 79  1  0
  8 80  1  0
  8 81  1  0
  9 82  1  0
 11 83  1  0
 12 84  1  0
 13 85  1  0
 13 86  1  0
 13 87  1  0
 15 88  1  0
 15 89  1  0
 16 90  1  0
 16 91  1  0
 18 92  1  0
 18 93  1  0
 19 94  1  0
 19 95  1  0
 20 96  1  0
 20 97  1  0
 21 98  1  0
 22 99  1  0
 23100  1  0
 24101  1  0
 26102  1  0
 27103  1  0
 28104  1  0
 29105  1  0
 30106  1  0
 31107  1  0
 31108  1  0
 31109  1  0
 32110  1  0
 32111  1  0
 33112  1  0
 33113  1  0
 34114  1  0
 34115  1  0
 34116  1  0
 35117  1  0
 35118  1  0
 35119  1  0
 36120  1  0
 36121  1  0
 38122  1  0
 39123  1  0
 39124  1  0
 40125  1  0
 40126  1  0
 41127  1  0
 42128  1  0
 42129  1  0
 43130  1  0
 45131  1  0
 46132  1  0
 47133  1  0
 47134  1  0
 47135  1  0
 49136  1  0
 49137  1  0
 50138  1  0
 50139  1  0
 52140  1  0
 52141  1  0
 53142  1  0
 53143  1  0
 54144  1  0
 54145  1  0
 55146  1  0
 56147  1  0
 57148  1  0
 58149  1  0
 60150  1  0
 61151  1  0
 62152  1  0
 63153  1  0
 64154  1  0
 65155  1  0
 65156  1  0
 65157  1  0
 66158  1  0
 66159  1  0
 67160  1  0
 67161  1  0
 68162  1  0
 68163  1  0
 68164  1  0
M  END
>  <PDBID>  (1) 
3B2R

>  <PDB ID>  (1) 
3B2R

>  <Generic Name>  (1) 
Vardenafil

>  <Brand Name>  (1) 
Levitra#Staxyn#Vivanza

>  <DrugBank ID>  (1) 
DB00862

>  <ATC Codes>  (1) 
G04BE09

>  <Ligand ID>  (1) 
VDN

>  <Target Name>  (1) 
cGMP-specific 3',5'-cyclic phosphodiesterase

>  <UniProt ID>  (1) 
O76074

>  <PDB ID.1>  (1) 
3B2R

>  <Seq. Identity>  (1) 
94%

$$$$
