PDB_DB05015_03
     RDKit          3D

108110  0  0  0  0  0  0  0  0999 V2000
    7.0454   -0.1338   -1.0875 O   0  0  0  0  0  0  0  0  0  0  0  0
    5.8460   -0.7243   -0.7103 C   0  0  0  0  0  0  0  0  0  0  0  0
    6.1134   -1.7230    0.2871 N   0  0  0  0  0  0  0  0  0  0  0  0
    6.6970   -1.2201    1.3932 O   0  0  0  0  0  0  0  0  0  0  0  0
    4.9197    0.3735   -0.2007 C   0  0  0  0  0  0  0  0  0  0  0  0
    3.5944   -0.1884    0.2292 C   0  0  0  0  0  0  0  0  0  0  0  0
    2.6273    0.8385    0.7566 C   0  0  0  0  0  0  0  0  0  0  0  0
    1.3484    0.1766    1.1537 C   0  0  0  0  0  0  0  0  0  0  0  0
    2.4824    1.9359   -0.2288 C   0  0  0  0  0  0  0  0  0  0  0  0
    1.7279    1.3744   -1.4384 C   0  0  0  0  0  0  0  0  0  0  0  0
    0.3210    1.1285   -0.9412 C   0  0  0  0  0  0  0  0  0  0  0  0
    0.3011    0.0870    0.1312 C   0  0  2  0  0  0  0  0  0  0  0  0
   -1.3327    0.0209    0.8802 S   0  0  0  0  0  0  0  0  0  0  0  0
   -1.2351    1.7073    1.6254 O   0  0  0  0  0  0  0  0  0  0  0  0
   -1.2577   -0.9487    2.0442 O   0  0  0  0  0  0  0  0  0  0  0  0
   -2.3707    0.1020   -0.1710 N   0  0  0  0  0  0  0  0  0  0  0  0
   -3.7660   -0.1516   -0.0474 C   0  0  0  0  0  0  0  0  0  0  0  0
   -4.5240    0.0308   -1.3531 C   0  0  0  0  0  0  0  0  0  0  0  0
   -5.9565    0.3053   -1.0091 C   0  0  0  0  0  0  0  0  0  0  0  0
   -6.3023   -0.2478    0.3434 C   0  0  0  0  0  0  0  0  0  0  0  0
   -5.6232   -1.5711    0.6283 C   0  0  0  0  0  0  0  0  0  0  0  0
   -4.1239   -1.4929    0.4998 C   0  0  0  0  0  0  0  0  0  0  0  0
    7.0487   -0.1202   -1.0771 O   0  0  0  0  0  0  0  0  0  0  0  0
    5.8506   -0.7186   -0.7069 C   0  0  0  0  0  0  0  0  0  0  0  0
    6.1229   -1.7189    0.2898 N   0  0  0  0  0  0  0  0  0  0  0  0
    6.7014   -1.2033    1.4009 O   0  0  0  0  0  0  0  0  0  0  0  0
    4.9193    0.3738   -0.1948 C   0  0  0  0  0  0  0  0  0  0  0  0
    3.5944   -0.1958    0.2282 C   0  0  0  0  0  0  0  0  0  0  0  0
    2.6219    0.8249    0.7570 C   0  0  0  0  0  0  0  0  0  0  0  0
    1.3441    0.1570    1.1469 C   0  0  0  0  0  0  0  0  0  0  0  0
    2.4763    1.9265   -0.2236 C   0  0  0  0  0  0  0  0  0  0  0  0
    1.7310    1.3666   -1.4402 C   0  0  0  0  0  0  0  0  0  0  0  0
    0.3243    1.1071   -0.9505 C   0  0  0  0  0  0  0  0  0  0  0  0
    0.2975    0.0737    0.1236 C   0  0  2  0  0  0  0  0  0  0  0  0
   -1.3375    0.0146    0.8722 S   0  0  0  0  0  0  0  0  0  0  0  0
   -1.2359    1.7044    1.6095 O   0  0  0  0  0  0  0  0  0  0  0  0
   -1.2713   -0.9500    2.0403 O   0  0  0  0  0  0  0  0  0  0  0  0
   -2.3740    0.0945   -0.1808 N   0  0  0  0  0  0  0  0  0  0  0  0
   -3.7708   -0.1491   -0.0563 C   0  0  0  0  0  0  0  0  0  0  0  0
   -4.5298    0.0271   -1.3608 C   0  0  0  0  0  0  0  0  0  0  0  0
   -5.9612    0.3252   -1.0019 C   0  0  0  0  0  0  0  0  0  0  0  0
   -6.3063   -0.2304    0.3435 C   0  0  0  0  0  0  0  0  0  0  0  0
   -5.6320   -1.5541    0.6335 C   0  0  0  0  0  0  0  0  0  0  0  0
   -4.1345   -1.4855    0.5040 C   0  0  0  0  0  0  0  0  0  0  0  0
    7.2384    0.6359   -0.5189 H   0  0  0  0  0  0  0  0  0  0  0  0
    5.4395   -1.2346   -1.6029 H   0  0  0  0  0  0  0  0  0  0  0  0
    5.2363   -2.2274    0.5122 H   0  0  0  0  0  0  0  0  0  0  0  0
    6.8219   -1.9656    2.0268 H   0  0  0  0  0  0  0  0  0  0  0  0
    4.8486    1.1091   -1.0309 H   0  0  0  0  0  0  0  0  0  0  0  0
    5.4509    0.8775    0.6306 H   0  0  0  0  0  0  0  0  0  0  0  0
    3.8213   -0.8598    1.1120 H   0  0  0  0  0  0  0  0  0  0  0  0
    3.1560   -0.8638   -0.5206 H   0  0  0  0  0  0  0  0  0  0  0  0
    3.1220    1.2788    1.6730 H   0  0  0  0  0  0  0  0  0  0  0  0
    0.9488    0.7195    2.0434 H   0  0  0  0  0  0  0  0  0  0  0  0
    1.5972   -0.8526    1.5440 H   0  0  0  0  0  0  0  0  0  0  0  0
    1.8360    2.7273    0.2506 H   0  0  0  0  0  0  0  0  0  0  0  0
    3.4309    2.4079   -0.4897 H   0  0  0  0  0  0  0  0  0  0  0  0
    2.1509    0.3965   -1.7415 H   0  0  0  0  0  0  0  0  0  0  0  0
    1.7369    2.1052   -2.2734 H   0  0  0  0  0  0  0  0  0  0  0  0
   -0.0243    2.0912   -0.4912 H   0  0  0  0  0  0  0  0  0  0  0  0
   -0.3812    0.9047   -1.7605 H   0  0  0  0  0  0  0  0  0  0  0  0
    0.3858   -0.9131   -0.3805 H   0  0  0  0  0  0  0  0  0  0  0  0
   -2.1544    2.0091    1.5205 H   0  0  0  0  0  0  0  0  0  0  0  0
   -0.5807   -1.6964    2.0149 H   0  0  0  0  0  0  0  0  0  0  0  0
   -2.1277   -0.0359   -1.1994 H   0  0  0  0  0  0  0  0  0  0  0  0
   -4.1822    0.6142    0.6681 H   0  0  0  0  0  0  0  0  0  0  0  0
   -4.5047   -0.9754   -1.8572 H   0  0  0  0  0  0  0  0  0  0  0  0
   -4.0469    0.8154   -1.9560 H   0  0  0  0  0  0  0  0  0  0  0  0
   -6.0651    1.4238   -0.9512 H   0  0  0  0  0  0  0  0  0  0  0  0
   -6.6729   -0.0257   -1.8016 H   0  0  0  0  0  0  0  0  0  0  0  0
   -7.4030   -0.4693    0.3274 H   0  0  0  0  0  0  0  0  0  0  0  0
   -6.1595    0.4814    1.1575 H   0  0  0  0  0  0  0  0  0  0  0  0
   -5.9003   -1.8261    1.6905 H   0  0  0  0  0  0  0  0  0  0  0  0
   -6.0806   -2.3546    0.0013 H   0  0  0  0  0  0  0  0  0  0  0  0
   -3.6574   -1.7029    1.4876 H   0  0  0  0  0  0  0  0  0  0  0  0
   -3.8127   -2.2734   -0.2418 H   0  0  0  0  0  0  0  0  0  0  0  0
    7.2612    0.6390   -0.5050 H   0  0  0  0  0  0  0  0  0  0  0  0
    5.4545   -1.2266   -1.5999 H   0  0  0  0  0  0  0  0  0  0  0  0
    5.2436   -2.2227    0.5198 H   0  0  0  0  0  0  0  0  0  0  0  0
    6.9455   -1.9559    1.9879 H   0  0  0  0  0  0  0  0  0  0  0  0
    4.8479    1.1130   -1.0208 H   0  0  0  0  0  0  0  0  0  0  0  0
    5.4457    0.8746    0.6413 H   0  0  0  0  0  0  0  0  0  0  0  0
    3.8218   -0.8697    1.1091 H   0  0  0  0  0  0  0  0  0  0  0  0
    3.1619   -0.8698   -0.5256 H   0  0  0  0  0  0  0  0  0  0  0  0
    3.1125    1.2631    1.6765 H   0  0  0  0  0  0  0  0  0  0  0  0
    0.9393    0.6992    2.0408 H   0  0  0  0  0  0  0  0  0  0  0  0
    1.5936   -0.8724    1.5407 H   0  0  0  0  0  0  0  0  0  0  0  0
    1.8225    2.7117    0.2562 H   0  0  0  0  0  0  0  0  0  0  0  0
    3.4233    2.4051   -0.4772 H   0  0  0  0  0  0  0  0  0  0  0  0
    2.1631    0.3941   -1.7473 H   0  0  0  0  0  0  0  0  0  0  0  0
    1.7382    2.1027   -2.2705 H   0  0  0  0  0  0  0  0  0  0  0  0
   -0.0276    2.0773   -0.5030 H   0  0  0  0  0  0  0  0  0  0  0  0
   -0.3746    0.8876   -1.7735 H   0  0  0  0  0  0  0  0  0  0  0  0
    0.3746   -0.9330   -0.3830 H   0  0  0  0  0  0  0  0  0  0  0  0
   -2.1598    1.9999    1.5269 H   0  0  0  0  0  0  0  0  0  0  0  0
   -0.5746   -1.6757    2.0382 H   0  0  0  0  0  0  0  0  0  0  0  0
   -2.1290   -0.0626   -1.2060 H   0  0  0  0  0  0  0  0  0  0  0  0
   -4.1818    0.6224    0.6560 H   0  0  0  0  0  0  0  0  0  0  0  0
   -4.5230   -0.9871   -1.8485 H   0  0  0  0  0  0  0  0  0  0  0  0
   -4.0629    0.8000   -1.9950 H   0  0  0  0  0  0  0  0  0  0  0  0
   -6.0587    1.4465   -0.9396 H   0  0  0  0  0  0  0  0  0  0  0  0
   -6.6783    0.0097   -1.7985 H   0  0  0  0  0  0  0  0  0  0  0  0
   -7.4073   -0.4415    0.3433 H   0  0  0  0  0  0  0  0  0  0  0  0
   -6.1560    0.5086    1.1636 H   0  0  0  0  0  0  0  0  0  0  0  0
   -5.9130   -1.8090    1.6947 H   0  0  0  0  0  0  0  0  0  0  0  0
   -6.0896   -2.3368    0.0046 H   0  0  0  0  0  0  0  0  0  0  0  0
   -3.6678   -1.6876    1.4922 H   0  0  0  0  0  0  0  0  0  0  0  0
   -3.8244   -2.2739   -0.2272 H   0  0  0  0  0  0  0  0  0  0  0  0
  1  2  1  0
  2  3  1  0
  3  4  1  0
  2  5  1  0
  5  6  1  0
  6  7  1  0
  7  8  1  0
  7  9  1  0
  9 10  1  0
 10 11  1  0
  8 12  1  0
 11 12  1  0
 12 13  1  0
 13 14  1  0
 13 15  1  0
 13 16  1  0
 16 17  1  0
 17 18  1  0
 18 19  1  0
 19 20  1  0
 20 21  1  0
 17 22  1  0
 21 22  1  0
 24 23  1  0
 24 25  1  0
 26 25  1  0
 24 27  1  0
 27 28  1  0
 28 29  1  0
 29 30  1  0
 29 31  1  0
 31 32  1  0
 32 33  1  0
 30 34  1  0
 33 34  1  0
 34 35  1  0
 35 36  1  0
 35 37  1  0
 35 38  1  0
 38 39  1  0
 39 40  1  0
 40 41  1  0
 41 42  1  0
 42 43  1  0
 39 44  1  0
 43 44  1  0
  1 45  1  0
  2 46  1  0
  3 47  1  0
  4 48  1  0
  5 49  1  0
  5 50  1  0
  6 51  1  0
  6 52  1  0
  7 53  1  0
  8 54  1  0
  8 55  1  0
  9 56  1  0
  9 57  1  0
 10 58  1  0
 10 59  1  0
 11 60  1  0
 11 61  1  0
 12 62  1  6
 14 63  1  0
 15 64  1  0
 16 65  1  0
 17 66  1  0
 18 67  1  0
 18 68  1  0
 19 69  1  0
 19 70  1  0
 20 71  1  0
 20 72  1  0
 21 73  1  0
 21 74  1  0
 22 75  1  0
 22 76  1  0
 23 77  1  0
 24 78  1  0
 25 79  1  0
 26 80  1  0
 27 81  1  0
 27 82  1  0
 28 83  1  0
 28 84  1  0
 29 85  1  0
 30 86  1  0
 30 87  1  0
 31 88  1  0
 31 89  1  0
 32 90  1  0
 32 91  1  0
 33 92  1  0
 33 93  1  0
 34 94  1  6
 36 95  1  0
 37 96  1  0
 38 97  1  0
 39 98  1  0
 40 99  1  0
 40100  1  0
 41101  1  0
 41102  1  0
 42103  1  0
 42104  1  0
 43105  1  0
 43106  1  0
 44107  1  0
 44108  1  0
M  END
>  <PDBID>  (1) 
5EEN

>  <PDB ID>  (1) 
5EEN

>  <Generic Name>  (1) 
Belinostat

>  <Brand Name>  (1) 
Beleodaq

>  <DrugBank ID>  (1) 
DB05015

>  <ATC Codes>  (1) 
L01XX49

>  <Ligand ID>  (1) 
5OG

>  <Target Name>  (1) 
Histone deacetylase 9

>  <UniProt ID>  (1) 
Q9UKV0

>  <PDB ID.1>  (1) 
5EEN

>  <Seq. Identity>  (1) 
46%

$$$$
