PDB_DB00841_07
     RDKit          3D

114116  0  0  0  0  0  0  0  0999 V2000
   -7.6788   -0.1889   -0.2883 O   0  0  0  0  0  0  0  0  0  0  0  0
   -6.2931   -0.0687   -0.1830 C   0  0  0  0  0  0  0  0  0  0  0  0
   -5.6977   -1.3162   -0.7982 C   0  0  0  0  0  0  0  0  0  0  0  0
   -4.1854   -1.2578   -0.8073 C   0  0  0  0  0  0  0  0  0  0  0  0
   -5.9180   -0.0325    1.2518 C   0  0  0  0  0  0  0  0  0  0  0  0
   -4.6707   -0.7826    1.5975 C   0  0  0  0  0  0  0  0  0  0  0  0
   -3.6259   -0.7358    0.4893 C   0  0  0  0  0  0  0  0  0  0  0  0
   -3.1108    0.6413    0.4345 C   0  0  0  0  0  0  0  0  0  0  0  0
   -2.0177    1.0258   -0.4546 C   0  0  0  0  0  0  0  0  0  0  0  0
   -0.6559    0.4468   -0.2877 C   0  0  1  0  0  0  0  0  0  0  0  0
   -0.6190   -1.0109   -0.4569 C   0  0  0  0  0  0  0  0  0  0  0  0
    0.2274    1.2011   -1.1073 N   0  0  0  0  0  0  0  0  0  0  0  0
    1.5623    0.8475   -1.2334 C   0  0  0  0  0  0  0  0  0  0  0  0
    2.4321    0.9993   -0.0318 C   0  0  0  0  0  0  0  0  0  0  0  0
    3.8508    0.6127   -0.2324 C   0  0  0  0  0  0  0  0  0  0  0  0
    4.5809    0.8329    1.0971 C   0  0  0  0  0  0  0  0  0  0  0  0
    6.0618    0.5746    0.9426 C   0  0  0  0  0  0  0  0  0  0  0  0
    6.8137    1.7221    1.1844 O   0  0  0  0  0  0  0  0  0  0  0  0
    6.4320    0.0336   -0.3999 C   0  0  0  0  0  0  0  0  0  0  0  0
    7.7368   -0.4989   -0.2817 O   0  0  0  0  0  0  0  0  0  0  0  0
    5.5555   -1.1064   -0.8501 C   0  0  0  0  0  0  0  0  0  0  0  0
    4.0715   -0.7887   -0.7176 C   0  0  0  0  0  0  0  0  0  0  0  0
   -7.6788   -0.1889   -0.2883 O   0  0  0  0  0  0  0  0  0  0  0  0
   -6.2931   -0.0687   -0.1830 C   0  0  0  0  0  0  0  0  0  0  0  0
   -5.6977   -1.3162   -0.7982 C   0  0  0  0  0  0  0  0  0  0  0  0
   -4.1854   -1.2578   -0.8073 C   0  0  0  0  0  0  0  0  0  0  0  0
   -5.9180   -0.0325    1.2518 C   0  0  0  0  0  0  0  0  0  0  0  0
   -4.6707   -0.7826    1.5975 C   0  0  0  0  0  0  0  0  0  0  0  0
   -3.6259   -0.7358    0.4893 C   0  0  0  0  0  0  0  0  0  0  0  0
   -3.1108    0.6413    0.4345 C   0  0  0  0  0  0  0  0  0  0  0  0
   -2.0177    1.0258   -0.4546 C   0  0  0  0  0  0  0  0  0  0  0  0
   -0.6559    0.4468   -0.2877 C   0  0  1  0  0  0  0  0  0  0  0  0
   -0.6190   -1.0109   -0.4569 C   0  0  0  0  0  0  0  0  0  0  0  0
    0.2274    1.2011   -1.1073 N   0  0  0  0  0  0  0  0  0  0  0  0
    1.5623    0.8475   -1.2334 C   0  0  0  0  0  0  0  0  0  0  0  0
    2.4321    0.9993   -0.0318 C   0  0  0  0  0  0  0  0  0  0  0  0
    3.8508    0.6127   -0.2324 C   0  0  0  0  0  0  0  0  0  0  0  0
    4.5809    0.8329    1.0971 C   0  0  0  0  0  0  0  0  0  0  0  0
    6.0618    0.5746    0.9426 C   0  0  0  0  0  0  0  0  0  0  0  0
    6.8137    1.7221    1.1844 O   0  0  0  0  0  0  0  0  0  0  0  0
    6.4320    0.0336   -0.3999 C   0  0  0  0  0  0  0  0  0  0  0  0
    7.7368   -0.4989   -0.2817 O   0  0  0  0  0  0  0  0  0  0  0  0
    5.5555   -1.1064   -0.8501 C   0  0  0  0  0  0  0  0  0  0  0  0
    4.0715   -0.7887   -0.7176 C   0  0  0  0  0  0  0  0  0  0  0  0
   -8.1113    0.6326   -0.6261 H   0  0  0  0  0  0  0  0  0  0  0  0
   -6.0161    0.8440   -0.7529 H   0  0  0  0  0  0  0  0  0  0  0  0
   -6.0703   -2.1915   -0.2543 H   0  0  0  0  0  0  0  0  0  0  0  0
   -6.0811   -1.3755   -1.8403 H   0  0  0  0  0  0  0  0  0  0  0  0
   -3.8317   -2.2943   -1.0100 H   0  0  0  0  0  0  0  0  0  0  0  0
   -3.8929   -0.6559   -1.6900 H   0  0  0  0  0  0  0  0  0  0  0  0
   -6.7484   -0.4639    1.8525 H   0  0  0  0  0  0  0  0  0  0  0  0
   -5.8579    1.0513    1.5642 H   0  0  0  0  0  0  0  0  0  0  0  0
   -4.2129   -0.2968    2.4825 H   0  0  0  0  0  0  0  0  0  0  0  0
   -4.8532   -1.8415    1.8688 H   0  0  0  0  0  0  0  0  0  0  0  0
   -2.8414   -1.4244    0.8281 H   0  0  0  0  0  0  0  0  0  0  0  0
   -3.9614    1.4097    0.3613 H   0  0  0  0  0  0  0  0  0  0  0  0
   -2.7472    0.8660    1.5004 H   0  0  0  0  0  0  0  0  0  0  0  0
   -2.2612    0.8913   -1.5502 H   0  0  0  0  0  0  0  0  0  0  0  0
   -1.9324    2.1674   -0.3912 H   0  0  0  0  0  0  0  0  0  0  0  0
   -0.3435    0.6901    0.7869 H   0  0  0  0  0  0  0  0  0  0  0  0
   -1.4197   -1.4646   -1.0619 H   0  0  0  0  0  0  0  0  0  0  0  0
    0.3255   -1.3757   -0.9655 H   0  0  0  0  0  0  0  0  0  0  0  0
   -0.5587   -1.5528    0.5344 H   0  0  0  0  0  0  0  0  0  0  0  0
   -0.1387    2.0276   -1.5564 H   0  0  0  0  0  0  0  0  0  0  0  0
    1.7628   -0.1620   -1.6798 H   0  0  0  0  0  0  0  0  0  0  0  0
    2.0097    1.5418   -2.0136 H   0  0  0  0  0  0  0  0  0  0  0  0
    2.4102    2.0861    0.2519 H   0  0  0  0  0  0  0  0  0  0  0  0
    1.9787    0.4773    0.8500 H   0  0  0  0  0  0  0  0  0  0  0  0
    4.3319    1.2891   -0.9749 H   0  0  0  0  0  0  0  0  0  0  0  0
    4.1070    0.1881    1.8519 H   0  0  0  0  0  0  0  0  0  0  0  0
    4.4404    1.8921    1.3580 H   0  0  0  0  0  0  0  0  0  0  0  0
    6.3421   -0.1672    1.7253 H   0  0  0  0  0  0  0  0  0  0  0  0
    6.2566    2.3620    1.6932 H   0  0  0  0  0  0  0  0  0  0  0  0
    6.4555    0.8248   -1.1766 H   0  0  0  0  0  0  0  0  0  0  0  0
    7.6326   -1.3261    0.2776 H   0  0  0  0  0  0  0  0  0  0  0  0
    5.8350   -1.2960   -1.9260 H   0  0  0  0  0  0  0  0  0  0  0  0
    5.8390   -2.0442   -0.3211 H   0  0  0  0  0  0  0  0  0  0  0  0
    3.6607   -1.5532   -0.0110 H   0  0  0  0  0  0  0  0  0  0  0  0
    3.6409   -0.9064   -1.7335 H   0  0  0  0  0  0  0  0  0  0  0  0
   -8.1113    0.6326   -0.6261 H   0  0  0  0  0  0  0  0  0  0  0  0
   -6.0161    0.8440   -0.7529 H   0  0  0  0  0  0  0  0  0  0  0  0
   -6.0703   -2.1915   -0.2543 H   0  0  0  0  0  0  0  0  0  0  0  0
   -6.0811   -1.3755   -1.8403 H   0  0  0  0  0  0  0  0  0  0  0  0
   -3.8317   -2.2943   -1.0100 H   0  0  0  0  0  0  0  0  0  0  0  0
   -3.8929   -0.6559   -1.6900 H   0  0  0  0  0  0  0  0  0  0  0  0
   -6.7484   -0.4639    1.8525 H   0  0  0  0  0  0  0  0  0  0  0  0
   -5.8579    1.0513    1.5642 H   0  0  0  0  0  0  0  0  0  0  0  0
   -4.2129   -0.2968    2.4825 H   0  0  0  0  0  0  0  0  0  0  0  0
   -4.8532   -1.8415    1.8688 H   0  0  0  0  0  0  0  0  0  0  0  0
   -2.8414   -1.4244    0.8281 H   0  0  0  0  0  0  0  0  0  0  0  0
   -3.9614    1.4097    0.3613 H   0  0  0  0  0  0  0  0  0  0  0  0
   -2.7472    0.8660    1.5004 H   0  0  0  0  0  0  0  0  0  0  0  0
   -2.2612    0.8913   -1.5502 H   0  0  0  0  0  0  0  0  0  0  0  0
   -1.9324    2.1674   -0.3912 H   0  0  0  0  0  0  0  0  0  0  0  0
   -0.3435    0.6901    0.7869 H   0  0  0  0  0  0  0  0  0  0  0  0
   -1.4197   -1.4646   -1.0619 H   0  0  0  0  0  0  0  0  0  0  0  0
    0.3255   -1.3757   -0.9655 H   0  0  0  0  0  0  0  0  0  0  0  0
   -0.5587   -1.5528    0.5344 H   0  0  0  0  0  0  0  0  0  0  0  0
   -0.1387    2.0276   -1.5564 H   0  0  0  0  0  0  0  0  0  0  0  0
    1.7628   -0.1620   -1.6798 H   0  0  0  0  0  0  0  0  0  0  0  0
    2.0097    1.5418   -2.0136 H   0  0  0  0  0  0  0  0  0  0  0  0
    2.4102    2.0861    0.2519 H   0  0  0  0  0  0  0  0  0  0  0  0
    1.9787    0.4773    0.8500 H   0  0  0  0  0  0  0  0  0  0  0  0
    4.3319    1.2891   -0.9749 H   0  0  0  0  0  0  0  0  0  0  0  0
    4.1070    0.1881    1.8519 H   0  0  0  0  0  0  0  0  0  0  0  0
    4.4404    1.8921    1.3580 H   0  0  0  0  0  0  0  0  0  0  0  0
    6.3421   -0.1672    1.7253 H   0  0  0  0  0  0  0  0  0  0  0  0
    6.2566    2.3620    1.6932 H   0  0  0  0  0  0  0  0  0  0  0  0
    6.4555    0.8248   -1.1766 H   0  0  0  0  0  0  0  0  0  0  0  0
    7.6326   -1.3261    0.2776 H   0  0  0  0  0  0  0  0  0  0  0  0
    5.8350   -1.2960   -1.9260 H   0  0  0  0  0  0  0  0  0  0  0  0
    5.8390   -2.0442   -0.3211 H   0  0  0  0  0  0  0  0  0  0  0  0
    3.6607   -1.5532   -0.0110 H   0  0  0  0  0  0  0  0  0  0  0  0
    3.6409   -0.9064   -1.7335 H   0  0  0  0  0  0  0  0  0  0  0  0
  1  2  1  0
  2  3  1  0
  3  4  1  0
  2  5  1  0
  5  6  1  0
  4  7  1  0
  6  7  1  0
  7  8  1  0
  8  9  1  0
  9 10  1  0
 10 11  1  0
 10 12  1  0
 12 13  1  0
 13 14  1  0
 14 15  1  0
 15 16  1  0
 16 17  1  0
 17 18  1  0
 17 19  1  0
 19 20  1  0
 19 21  1  0
 15 22  1  0
 21 22  1  0
 23 24  1  0
 24 25  1  0
 25 26  1  0
 24 27  1  0
 27 28  1  0
 26 29  1  0
 28 29  1  0
 29 30  1  0
 30 31  1  0
 31 32  1  0
 32 33  1  0
 32 34  1  0
 34 35  1  0
 35 36  1  0
 36 37  1  0
 37 38  1  0
 38 39  1  0
 39 40  1  0
 39 41  1  0
 41 42  1  0
 41 43  1  0
 37 44  1  0
 43 44  1  0
  1 45  1  0
  2 46  1  0
  3 47  1  0
  3 48  1  0
  4 49  1  0
  4 50  1  0
  5 51  1  0
  5 52  1  0
  6 53  1  0
  6 54  1  0
  7 55  1  0
  8 56  1  0
  8 57  1  0
  9 58  1  0
  9 59  1  0
 10 60  1  1
 11 61  1  0
 11 62  1  0
 11 63  1  0
 12 64  1  0
 13 65  1  0
 13 66  1  0
 14 67  1  0
 14 68  1  0
 15 69  1  0
 16 70  1  0
 16 71  1  0
 17 72  1  0
 18 73  1  0
 19 74  1  0
 20 75  1  0
 21 76  1  0
 21 77  1  0
 22 78  1  0
 22 79  1  0
 23 80  1  0
 24 81  1  0
 25 82  1  0
 25 83  1  0
 26 84  1  0
 26 85  1  0
 27 86  1  0
 27 87  1  0
 28 88  1  0
 28 89  1  0
 29 90  1  0
 30 91  1  0
 30 92  1  0
 31 93  1  0
 31 94  1  0
 32 95  1  1
 33 96  1  0
 33 97  1  0
 33 98  1  0
 34 99  1  0
 35100  1  0
 35101  1  0
 36102  1  0
 36103  1  0
 37104  1  0
 38105  1  0
 38106  1  0
 39107  1  0
 40108  1  0
 41109  1  0
 42110  1  0
 43111  1  0
 43112  1  0
 44113  1  0
 44114  1  0
M  END
>  <PDBID>  (1) 
2Y00

>  <PDB ID>  (1) 
2Y00

>  <Generic Name>  (1) 
Dobutamine

>  <Brand Name>  (1) 
Dobutamine#Dobutamine 12.5mg/ml#Dobutamine Hydrochloride#Dobutamine Hydrochloride In Dextrose#Dobutamine Hydrochloride Injection USP#Dobutamine Hydrochloride Injection-12.5mg/ml#Dobutamine Injection Sdz#Dobutamine Injection USP#Dobutrex#Dobuject#Dobusafe#Dobutamin#Dobutan#Dobutel#Dobutil#Dopmin#Inotrex

>  <DrugBank ID>  (1) 
DB00841

>  <ATC Codes>  (1) 
C01CA07

>  <Ligand ID>  (1) 
Y00

>  <Target Name>  (1) 
Beta-1 adrenergic receptor

>  <UniProt ID>  (1) 
P08588

>  <PDB ID.1>  (1) 
2Y00

>  <Seq. Identity>  (1) 
63%

$$$$
