PDB_DB00238_09
     RDKit          3D

 48 51  0  0  0  0  0  0  0  0999 V2000
   -0.3677    0.7069   -0.1558 N   0  0  0  0  0  0  0  0  0  0  0  0
   -0.8116    2.0445    0.1893 C   0  0  0  0  0  0  0  0  0  0  0  0
   -2.1556    2.4570   -0.2990 C   0  0  0  0  0  0  0  0  0  0  0  0
   -0.9512    3.0847   -0.8833 C   0  0  0  0  0  0  0  0  0  0  0  0
    1.6547    1.7927    0.2426 N   0  0  0  0  0  0  0  0  0  0  0  0
    3.0707    1.7897    0.3403 C   0  0  0  0  0  0  0  0  0  0  0  0
    3.7302    0.4689    0.4221 C   0  0  0  0  0  0  0  0  0  0  0  0
    3.0929   -0.6411   -0.3186 C   0  0  0  0  0  0  0  0  0  0  0  0
    2.9820   -1.8542    0.5942 C   0  0  0  0  0  0  0  0  0  0  0  0
    1.0271    0.5057    0.2458 C   0  0  2  0  0  0  0  0  0  0  0  0
    1.6870   -0.3449   -0.8056 C   0  0  2  0  0  0  0  0  0  0  0  0
    1.0485   -1.6263   -0.9873 N   0  0  0  0  0  0  0  0  0  0  0  0
   -0.3349   -1.5688   -1.3015 C   0  0  0  0  0  0  0  0  0  0  0  0
   -0.7153   -0.5305   -2.1195 O   0  0  0  0  0  0  0  0  0  0  0  0
   -1.2331   -1.5367   -0.0703 C   0  0  1  0  0  0  0  0  0  0  0  0
   -1.1385   -0.2328    0.6678 C   0  0  2  0  0  0  0  0  0  0  0  0
   -2.6565   -1.6633   -0.5828 C   0  0  0  0  0  0  0  0  0  0  0  0
   -3.5420   -1.8222    0.6411 C   0  0  0  0  0  0  0  0  0  0  0  0
   -3.3274   -0.6283    1.5227 C   0  0  0  0  0  0  0  0  0  0  0  0
   -2.4268    0.3487    0.9612 N   0  0  0  0  0  0  0  0  0  0  0  0
   -0.5356    2.3526    1.2211 H   0  0  0  0  0  0  0  0  0  0  0  0
   -2.7332    1.7956   -0.9847 H   0  0  0  0  0  0  0  0  0  0  0  0
   -2.7602    3.1198    0.3578 H   0  0  0  0  0  0  0  0  0  0  0  0
   -0.6179    2.8281   -1.9042 H   0  0  0  0  0  0  0  0  0  0  0  0
   -0.6037    4.0970   -0.5510 H   0  0  0  0  0  0  0  0  0  0  0  0
    1.3713    2.3187   -0.6006 H   0  0  0  0  0  0  0  0  0  0  0  0
    3.5347    2.3992   -0.4837 H   0  0  0  0  0  0  0  0  0  0  0  0
    3.3390    2.3605    1.2748 H   0  0  0  0  0  0  0  0  0  0  0  0
    4.7748    0.5852    0.0050 H   0  0  0  0  0  0  0  0  0  0  0  0
    3.9073    0.1902    1.4958 H   0  0  0  0  0  0  0  0  0  0  0  0
    3.6690   -0.9652   -1.2199 H   0  0  0  0  0  0  0  0  0  0  0  0
    3.5037   -1.6558    1.5601 H   0  0  0  0  0  0  0  0  0  0  0  0
    1.9239   -2.0744    0.8655 H   0  0  0  0  0  0  0  0  0  0  0  0
    3.3739   -2.7664    0.1191 H   0  0  0  0  0  0  0  0  0  0  0  0
    1.1188   -0.0073    1.2052 H   0  0  0  0  0  0  0  0  0  0  0  0
    1.7970    0.2249   -1.7437 H   0  0  0  0  0  0  0  0  0  0  0  0
    1.5709   -2.1145   -1.7499 H   0  0  0  0  0  0  0  0  0  0  0  0
   -0.5935   -2.5366   -1.8184 H   0  0  0  0  0  0  0  0  0  0  0  0
    0.0040   -0.1229   -2.6440 H   0  0  0  0  0  0  0  0  0  0  0  0
   -1.0201   -2.4075    0.5742 H   0  0  0  0  0  0  0  0  0  0  0  0
   -0.5928   -0.4298    1.6267 H   0  0  0  0  0  0  0  0  0  0  0  0
   -2.7774   -2.5667   -1.2075 H   0  0  0  0  0  0  0  0  0  0  0  0
   -2.9630   -0.7366   -1.1138 H   0  0  0  0  0  0  0  0  0  0  0  0
   -4.6034   -1.9271    0.3206 H   0  0  0  0  0  0  0  0  0  0  0  0
   -3.2147   -2.7765    1.1266 H   0  0  0  0  0  0  0  0  0  0  0  0
   -2.9494   -0.8971    2.5403 H   0  0  0  0  0  0  0  0  0  0  0  0
   -4.2956   -0.0978    1.7025 H   0  0  0  0  0  0  0  0  0  0  0  0
   -2.2603    1.0605    1.7229 H   0  0  0  0  0  0  0  0  0  0  0  0
  1  2  1  0
  2  3  1  0
  2  4  1  0
  3  4  1  0
  5  6  1  0
  6  7  1  0
  7  8  1  0
  8  9  1  0
  1 10  1  0
  5 10  1  0
  8 11  1  0
 10 11  1  0
 11 12  1  0
 12 13  1  0
 13 14  1  0
 13 15  1  0
  1 16  1  0
 15 16  1  0
 15 17  1  0
 17 18  1  0
 18 19  1  0
 16 20  1  0
 19 20  1  0
  2 21  1  0
  3 22  1  0
  3 23  1  0
  4 24  1  0
  4 25  1  0
  5 26  1  0
  6 27  1  0
  6 28  1  0
  7 29  1  0
  7 30  1  0
  8 31  1  0
  9 32  1  0
  9 33  1  0
  9 34  1  0
 10 35  1  1
 11 36  1  6
 12 37  1  0
 13 38  1  0
 14 39  1  0
 15 40  1  1
 16 41  1  1
 17 42  1  0
 17 43  1  0
 18 44  1  0
 18 45  1  0
 19 46  1  0
 19 47  1  0
 20 48  1  0
M  END
>  <PDBID>  (1) 
2HND

>  <PDB ID>  (1) 
2HND

>  <Generic Name>  (1) 
Nevirapine

>  <Brand Name>  (1) 
Apo-nevirapine#Apo-nevirapine XR#Apo-zidovudine-lamivudine-nevirapine#Auro-nevirapine#Mylan-nevirapine#Nevirapine#Nevirapine Extended Release#PMS-nevirapine#Teva-nevirapine#Viramune#Viramune XR

>  <DrugBank ID>  (1) 
DB00238

>  <ATC Codes>  (1) 
J05AR05#J05AG01#J05AR07

>  <Ligand ID>  (1) 
NVP

>  <Target Name>  (1) 
Reverse transcriptase/RNaseH

>  <UniProt ID>  (1) 
Q72547

>  <PDB ID.1>  (1) 
2HND

>  <Seq. Identity>  (1) 
96%

$$$$
