PDB_DB06335_09
     RDKit          3D

106114  0  0  0  0  0  0  0  0999 V2000
   -1.2243   -0.1576    0.0672 C   0  0  1  0  0  0  0  0  0  0  0  0
    0.2085   -0.5618   -0.1460 C   0  0  1  0  0  0  0  0  0  0  0  0
   -1.8861   -1.5018    0.4441 C   0  0  0  0  0  0  0  0  0  0  0  0
   -3.3259   -1.3731    0.7838 C   0  0  1  0  0  0  0  0  0  0  0  0
   -2.9301    0.9318    1.4399 C   0  0  2  0  0  0  0  0  0  0  0  0
   -3.4309    0.3797   -0.8785 C   0  0  1  0  0  0  0  0  0  0  0  0
   -3.5593   -0.3645    1.8880 C   0  0  0  0  0  0  0  0  0  0  0  0
   -4.0527   -0.9219   -0.4670 C   0  0  0  0  0  0  0  0  0  0  0  0
   -3.6411    1.4001    0.1984 C   0  0  0  0  0  0  0  0  0  0  0  0
    4.3849    1.3810   -1.5043 C   0  0  1  0  0  0  0  0  0  0  0  0
    3.3297    2.4200   -1.5972 C   0  0  0  0  0  0  0  0  0  0  0  0
    4.5511    0.7269   -0.1515 C   0  0  0  0  0  0  0  0  0  0  0  0
    3.2575   -0.9492    1.0866 C   0  0  0  0  0  0  0  0  0  0  0  0
    4.4538   -1.5820    1.6169 N   0  0  0  0  0  0  0  0  0  0  0  0
   -1.4548    0.7640    1.2222 C   0  0  0  0  0  0  0  0  0  0  0  0
   -1.9432    0.2728   -1.1843 C   0  0  0  0  0  0  0  0  0  0  0  0
    1.1672    0.5153   -0.5178 C   0  0  0  0  0  0  0  0  0  0  0  0
    0.5808   -1.3951    0.9239 N   0  0  0  0  0  0  0  0  0  0  0  0
    2.4272    0.1146   -1.0117 N   0  0  0  0  0  0  0  0  0  0  0  0
    0.6304    1.2965   -1.5975 O   0  0  0  0  0  0  0  0  0  0  0  0
   -3.7834   -2.5968    1.2339 O   0  0  0  0  0  0  0  0  0  0  0  0
    2.9922    1.0318   -1.9851 C   0  0  2  0  0  0  0  0  0  0  0  0
    3.4649   -0.3520   -0.2454 C   0  0  1  0  0  0  0  0  0  0  0  0
   -1.2243   -0.1576    0.0672 C   0  0  1  0  0  0  0  0  0  0  0  0
    0.2085   -0.5618   -0.1460 C   0  0  1  0  0  0  0  0  0  0  0  0
   -1.8861   -1.5018    0.4441 C   0  0  0  0  0  0  0  0  0  0  0  0
   -3.3259   -1.3731    0.7838 C   0  0  1  0  0  0  0  0  0  0  0  0
   -2.9301    0.9318    1.4399 C   0  0  2  0  0  0  0  0  0  0  0  0
   -3.4309    0.3797   -0.8785 C   0  0  1  0  0  0  0  0  0  0  0  0
   -3.5593   -0.3645    1.8880 C   0  0  0  0  0  0  0  0  0  0  0  0
   -4.0527   -0.9219   -0.4670 C   0  0  0  0  0  0  0  0  0  0  0  0
   -3.6411    1.4001    0.1984 C   0  0  0  0  0  0  0  0  0  0  0  0
    4.3849    1.3810   -1.5043 C   0  0  1  0  0  0  0  0  0  0  0  0
    3.3297    2.4200   -1.5972 C   0  0  0  0  0  0  0  0  0  0  0  0
    4.5511    0.7269   -0.1515 C   0  0  0  0  0  0  0  0  0  0  0  0
    3.2575   -0.9492    1.0866 C   0  0  0  0  0  0  0  0  0  0  0  0
    4.4538   -1.5820    1.6169 N   0  0  0  0  0  0  0  0  0  0  0  0
   -1.4548    0.7640    1.2222 C   0  0  0  0  0  0  0  0  0  0  0  0
   -1.9432    0.2728   -1.1843 C   0  0  0  0  0  0  0  0  0  0  0  0
    1.1672    0.5153   -0.5178 C   0  0  0  0  0  0  0  0  0  0  0  0
    0.5808   -1.3951    0.9239 N   0  0  0  0  0  0  0  0  0  0  0  0
    2.4272    0.1146   -1.0117 N   0  0  0  0  0  0  0  0  0  0  0  0
    0.6304    1.2965   -1.5975 O   0  0  0  0  0  0  0  0  0  0  0  0
   -3.7834   -2.5968    1.2339 O   0  0  0  0  0  0  0  0  0  0  0  0
    2.9922    1.0318   -1.9851 C   0  0  2  0  0  0  0  0  0  0  0  0
    3.4649   -0.3520   -0.2454 C   0  0  1  0  0  0  0  0  0  0  0  0
    0.1701   -1.2427   -1.0633 H   0  0  0  0  0  0  0  0  0  0  0  0
   -1.7994   -2.2052   -0.4164 H   0  0  0  0  0  0  0  0  0  0  0  0
   -1.3347   -1.9298    1.2984 H   0  0  0  0  0  0  0  0  0  0  0  0
   -3.1104    1.7098    2.2190 H   0  0  0  0  0  0  0  0  0  0  0  0
   -3.9624    0.7038   -1.8199 H   0  0  0  0  0  0  0  0  0  0  0  0
   -4.6304   -0.2471    2.0239 H   0  0  0  0  0  0  0  0  0  0  0  0
   -3.1018   -0.7023    2.8402 H   0  0  0  0  0  0  0  0  0  0  0  0
   -5.1180   -0.7534   -0.3204 H   0  0  0  0  0  0  0  0  0  0  0  0
   -3.8523   -1.6740   -1.2626 H   0  0  0  0  0  0  0  0  0  0  0  0
   -3.2350    2.3517   -0.1472 H   0  0  0  0  0  0  0  0  0  0  0  0
   -4.7232    1.5070    0.4305 H   0  0  0  0  0  0  0  0  0  0  0  0
    5.2115    1.3336   -2.2420 H   0  0  0  0  0  0  0  0  0  0  0  0
    3.0104    2.8710   -0.6295 H   0  0  0  0  0  0  0  0  0  0  0  0
    3.4287    3.1585   -2.3953 H   0  0  0  0  0  0  0  0  0  0  0  0
    4.3145    1.4442    0.6485 H   0  0  0  0  0  0  0  0  0  0  0  0
    5.5280    0.2227   -0.0473 H   0  0  0  0  0  0  0  0  0  0  0  0
    2.9463   -0.2095    1.8771 H   0  0  0  0  0  0  0  0  0  0  0  0
    4.2563   -2.6203    1.6814 H   0  0  0  0  0  0  0  0  0  0  0  0
    5.2152   -1.5370    0.8749 H   0  0  0  0  0  0  0  0  0  0  0  0
   -0.9759    0.3553    2.1139 H   0  0  0  0  0  0  0  0  0  0  0  0
   -1.0393    1.7788    1.0706 H   0  0  0  0  0  0  0  0  0  0  0  0
   -1.8343   -0.5335   -1.9380 H   0  0  0  0  0  0  0  0  0  0  0  0
   -1.6568    1.2785   -1.5530 H   0  0  0  0  0  0  0  0  0  0  0  0
    1.2209    1.2482    0.3143 H   0  0  0  0  0  0  0  0  0  0  0  0
    0.6323   -2.3910    0.7855 H   0  0  0  0  0  0  0  0  0  0  0  0
    0.4800   -1.0325    1.8721 H   0  0  0  0  0  0  0  0  0  0  0  0
    0.5049    0.7037   -2.3852 H   0  0  0  0  0  0  0  0  0  0  0  0
   -3.5660   -2.6995    2.1960 H   0  0  0  0  0  0  0  0  0  0  0  0
    2.8046    0.8023   -3.0448 H   0  0  0  0  0  0  0  0  0  0  0  0
    3.9996   -1.1700   -0.8559 H   0  0  0  0  0  0  0  0  0  0  0  0
    0.1701   -1.2427   -1.0633 H   0  0  0  0  0  0  0  0  0  0  0  0
   -1.7994   -2.2052   -0.4164 H   0  0  0  0  0  0  0  0  0  0  0  0
   -1.3347   -1.9298    1.2984 H   0  0  0  0  0  0  0  0  0  0  0  0
   -3.1104    1.7098    2.2190 H   0  0  0  0  0  0  0  0  0  0  0  0
   -3.9624    0.7038   -1.8199 H   0  0  0  0  0  0  0  0  0  0  0  0
   -4.6304   -0.2471    2.0239 H   0  0  0  0  0  0  0  0  0  0  0  0
   -3.1018   -0.7023    2.8402 H   0  0  0  0  0  0  0  0  0  0  0  0
   -5.1180   -0.7534   -0.3204 H   0  0  0  0  0  0  0  0  0  0  0  0
   -3.8523   -1.6740   -1.2626 H   0  0  0  0  0  0  0  0  0  0  0  0
   -3.2350    2.3517   -0.1472 H   0  0  0  0  0  0  0  0  0  0  0  0
   -4.7232    1.5070    0.4305 H   0  0  0  0  0  0  0  0  0  0  0  0
    5.2115    1.3336   -2.2420 H   0  0  0  0  0  0  0  0  0  0  0  0
    3.0104    2.8710   -0.6295 H   0  0  0  0  0  0  0  0  0  0  0  0
    3.4287    3.1585   -2.3953 H   0  0  0  0  0  0  0  0  0  0  0  0
    4.3145    1.4442    0.6485 H   0  0  0  0  0  0  0  0  0  0  0  0
    5.5280    0.2227   -0.0473 H   0  0  0  0  0  0  0  0  0  0  0  0
    2.9463   -0.2095    1.8771 H   0  0  0  0  0  0  0  0  0  0  0  0
    4.2563   -2.6203    1.6814 H   0  0  0  0  0  0  0  0  0  0  0  0
    5.2152   -1.5370    0.8749 H   0  0  0  0  0  0  0  0  0  0  0  0
   -0.9759    0.3553    2.1139 H   0  0  0  0  0  0  0  0  0  0  0  0
   -1.0393    1.7788    1.0706 H   0  0  0  0  0  0  0  0  0  0  0  0
   -1.8343   -0.5335   -1.9380 H   0  0  0  0  0  0  0  0  0  0  0  0
   -1.6568    1.2785   -1.5530 H   0  0  0  0  0  0  0  0  0  0  0  0
    1.2209    1.2482    0.3143 H   0  0  0  0  0  0  0  0  0  0  0  0
    0.6323   -2.3910    0.7855 H   0  0  0  0  0  0  0  0  0  0  0  0
    0.4800   -1.0325    1.8721 H   0  0  0  0  0  0  0  0  0  0  0  0
    0.5049    0.7037   -2.3852 H   0  0  0  0  0  0  0  0  0  0  0  0
   -3.5660   -2.6995    2.1960 H   0  0  0  0  0  0  0  0  0  0  0  0
    2.8046    0.8023   -3.0448 H   0  0  0  0  0  0  0  0  0  0  0  0
    3.9996   -1.1700   -0.8559 H   0  0  0  0  0  0  0  0  0  0  0  0
  1  2  1  0
  1  3  1  0
  3  4  1  0
  4  7  1  0
  5  7  1  0
  4  8  1  0
  6  8  1  0
  5  9  1  0
  6  9  1  0
 10 11  1  0
 10 12  1  0
 13 14  1  0
  1 15  1  1
  5 15  1  0
  1 16  1  0
  6 16  1  0
  2 17  1  0
  2 18  1  0
 17 19  1  0
 17 20  1  0
  4 21  1  1
 10 22  1  0
 11 22  1  0
 19 22  1  0
 12 23  1  0
 13 23  1  0
 19 23  1  0
 24 25  1  0
 24 26  1  1
 26 27  1  0
 27 30  1  0
 28 30  1  0
 27 31  1  0
 29 31  1  0
 28 32  1  0
 29 32  1  0
 33 34  1  0
 33 35  1  0
 36 37  1  0
 24 38  1  0
 28 38  1  0
 24 39  1  0
 29 39  1  0
 25 40  1  0
 25 41  1  0
 40 42  1  0
 40 43  1  0
 27 44  1  1
 33 45  1  0
 34 45  1  0
 42 45  1  0
 35 46  1  0
 36 46  1  0
 42 46  1  0
  2 47  1  6
  3 48  1  0
  3 49  1  0
  5 50  1  1
  6 51  1  6
  7 52  1  0
  7 53  1  0
  8 54  1  0
  8 55  1  0
  9 56  1  0
  9 57  1  0
 10 58  1  6
 11 59  1  0
 11 60  1  0
 12 61  1  0
 12 62  1  0
 13 63  1  0
 14 64  1  0
 14 65  1  0
 15 66  1  0
 15 67  1  0
 16 68  1  0
 16 69  1  0
 17 70  1  0
 18 71  1  0
 18 72  1  0
 20 73  1  0
 21 74  1  0
 22 75  1  6
 23 76  1  6
 25 77  1  6
 26 78  1  0
 26 79  1  0
 28 80  1  1
 29 81  1  6
 30 82  1  0
 30 83  1  0
 31 84  1  0
 31 85  1  0
 32 86  1  0
 32 87  1  0
 33 88  1  6
 34 89  1  0
 34 90  1  0
 35 91  1  0
 35 92  1  0
 36 93  1  0
 37 94  1  0
 37 95  1  0
 38 96  1  0
 38 97  1  0
 39 98  1  0
 39 99  1  0
 40100  1  0
 41101  1  0
 41102  1  0
 43103  1  0
 44104  1  0
 45105  1  6
 46106  1  6
M  END
>  <PDBID>  (1) 
3BJM

>  <PDB ID>  (1) 
3BJM

>  <Generic Name>  (1) 
Saxagliptin

>  <Brand Name>  (1) 
Kombiglyze XR#Komboglyze#Onglyza#Qtern

>  <DrugBank ID>  (1) 
DB06335

>  <ATC Codes>  (1) 
A10BD10#A10BH03#A10BD21

>  <Ligand ID>  (1) 
BJM

>  <Target Name>  (1) 
Dipeptidyl peptidase 4

>  <UniProt ID>  (1) 
P27487

>  <PDB ID.1>  (1) 
3BJM

>  <Seq. Identity>  (1) 
100%

$$$$
