PDB_DB01136_02
     RDKit          3D

148154  0  0  0  0  0  0  0  0999 V2000
    0.2346   -1.5718   -0.4501 O   0  0  0  0  0  0  0  0  0  0  0  0
   -0.5057   -0.4534   -0.7872 C   0  0  2  0  0  0  0  0  0  0  0  0
   -1.7788   -0.8768   -1.5294 C   0  0  0  0  0  0  0  0  0  0  0  0
   -2.6078   -1.6814   -0.8145 O   0  0  0  0  0  0  0  0  0  0  0  0
   -3.1360   -1.1424    0.3564 C   0  0  2  0  0  0  0  0  0  0  0  0
   -2.5881   -1.9161    1.5008 C   0  0  0  0  0  0  0  0  0  0  0  0
   -3.5262   -2.0908    2.6580 C   0  0  0  0  0  0  0  0  0  0  0  0
   -4.6131   -1.0311    2.7190 C   0  0  0  0  0  0  0  0  0  0  0  0
   -5.4161   -1.1982    1.4655 C   0  0  0  0  0  0  0  0  0  0  0  0
   -4.6183   -1.1748    0.2147 C   0  0  0  0  0  0  0  0  0  0  0  0
   -5.1903    0.0059   -0.5333 C   0  0  0  0  0  0  0  0  0  0  0  0
   -4.6507    1.3257   -0.0843 C   0  0  0  0  0  0  0  0  0  0  0  0
   -5.6825    2.4069    0.0125 C   0  0  0  0  0  0  0  0  0  0  0  0
   -6.8242    2.2096   -0.9591 C   0  0  0  0  0  0  0  0  0  0  0  0
   -7.5410    0.9310   -0.6013 C   0  0  0  0  0  0  0  0  0  0  0  0
   -6.6536   -0.1366   -0.0949 C   0  0  0  0  0  0  0  0  0  0  0  0
   -6.4786   -0.1871    1.3351 N   0  0  0  0  0  0  0  0  0  0  0  0
    0.2388    0.5475   -1.6181 C   0  0  0  0  0  0  0  0  0  0  0  0
    1.3743    1.0901   -0.9749 N   0  0  0  0  0  0  0  0  0  0  0  0
    2.4875    0.2321   -0.7627 C   0  0  0  0  0  0  0  0  0  0  0  0
    3.6598    1.0087   -0.1227 C   0  0  0  0  0  0  0  0  0  0  0  0
    4.6926    0.0887    0.0418 O   0  0  0  0  0  0  0  0  0  0  0  0
    5.8163    0.6534    0.6106 C   0  0  0  0  0  0  0  0  0  0  0  0
    6.2599    0.0153    1.8778 C   0  0  0  0  0  0  0  0  0  0  0  0
    6.9723   -1.2881    1.7440 C   0  0  0  0  0  0  0  0  0  0  0  0
    7.8610   -1.4254    0.5560 C   0  0  0  0  0  0  0  0  0  0  0  0
    7.1544   -0.9100   -0.6892 C   0  0  0  0  0  0  0  0  0  0  0  0
    6.9208    0.5637   -0.4536 C   0  0  0  0  0  0  0  0  0  0  0  0
    8.0872    1.1120    0.0720 O   0  0  0  0  0  0  0  0  0  0  0  0
    8.5271    2.2011   -0.6899 C   0  0  0  0  0  0  0  0  0  0  0  0
    0.4101   -4.0019    0.2742 O   0  0  0  0  0  0  0  0  0  0  0  0
   -0.4777   -2.9268    0.5636 C   0  0  2  0  0  0  0  0  0  0  0  0
   -1.8203   -3.3108    0.0439 C   0  0  0  0  0  0  0  0  0  0  0  0
   -2.8313   -2.4903    0.1825 O   0  0  0  0  0  0  0  0  0  0  0  0
   -3.0125   -1.3020   -0.4239 C   0  0  1  0  0  0  0  0  0  0  0  0
   -4.2044   -1.5154   -1.3875 C   0  0  0  0  0  0  0  0  0  0  0  0
   -5.4460   -1.9436   -0.7334 C   0  0  0  0  0  0  0  0  0  0  0  0
   -5.6363   -1.5840    0.6901 C   0  0  0  0  0  0  0  0  0  0  0  0
   -4.6690   -0.6576    1.2996 C   0  0  0  0  0  0  0  0  0  0  0  0
   -3.4646   -0.2682    0.5491 C   0  0  2  0  0  0  0  0  0  0  0  0
   -3.7299    1.0805   -0.0719 C   0  0  2  0  0  0  0  0  0  0  0  0
   -2.8009    2.1270    0.4512 C   0  0  0  0  0  0  0  0  0  0  0  0
   -3.4794    3.0824    1.3940 C   0  0  0  0  0  0  0  0  0  0  0  0
   -4.6296    3.7123    0.5948 C   0  0  0  0  0  0  0  0  0  0  0  0
   -5.6666    2.6728    0.2531 C   0  0  0  0  0  0  0  0  0  0  0  0
   -5.1777    1.2801    0.3086 C   0  0  0  0  0  0  0  0  0  0  0  0
   -5.2891    0.6433    1.6178 N   0  0  0  0  0  0  0  0  0  0  0  0
    0.0402   -1.6527    0.0301 C   0  0  0  0  0  0  0  0  0  0  0  0
    1.3608   -1.2544    0.5091 N   0  0  0  0  0  0  0  0  0  0  0  0
    2.4043   -2.0946    0.0112 C   0  0  0  0  0  0  0  0  0  0  0  0
    3.7813   -1.5606    0.4184 C   0  0  0  0  0  0  0  0  0  0  0  0
    3.9892   -0.2773   -0.0827 O   0  0  0  0  0  0  0  0  0  0  0  0
    5.2549    0.1450    0.3153 C   0  0  0  0  0  0  0  0  0  0  0  0
    5.1067    1.3724    1.2211 C   0  0  0  0  0  0  0  0  0  0  0  0
    6.4959    1.8081    1.6223 C   0  0  0  0  0  0  0  0  0  0  0  0
    7.5746    0.8891    1.1204 C   0  0  0  0  0  0  0  0  0  0  0  0
    7.5317    0.6457   -0.3572 C   0  0  0  0  0  0  0  0  0  0  0  0
    6.0940    0.6230   -0.8637 C   0  0  0  0  0  0  0  0  0  0  0  0
    5.6442    1.8932   -1.1809 O   0  0  0  0  0  0  0  0  0  0  0  0
    5.1844    2.0323   -2.4678 C   0  0  0  0  0  0  0  0  0  0  0  0
    0.2141   -1.7962    0.5006 H   0  0  0  0  0  0  0  0  0  0  0  0
   -0.7485    0.0547    0.1739 H   0  0  0  0  0  0  0  0  0  0  0  0
   -1.4263   -1.4629   -2.4117 H   0  0  0  0  0  0  0  0  0  0  0  0
   -2.2782    0.0157   -1.9719 H   0  0  0  0  0  0  0  0  0  0  0  0
   -2.7284   -0.1031    0.4298 H   0  0  0  0  0  0  0  0  0  0  0  0
   -2.2510   -2.9319    1.1933 H   0  0  0  0  0  0  0  0  0  0  0  0
   -1.6627   -1.4255    1.9274 H   0  0  0  0  0  0  0  0  0  0  0  0
   -4.0555   -3.0650    2.5451 H   0  0  0  0  0  0  0  0  0  0  0  0
   -2.9673   -2.1480    3.6170 H   0  0  0  0  0  0  0  0  0  0  0  0
   -4.2274   -0.0331    2.8952 H   0  0  0  0  0  0  0  0  0  0  0  0
   -5.2737   -1.3438    3.5763 H   0  0  0  0  0  0  0  0  0  0  0  0
   -5.9863   -2.1685    1.5853 H   0  0  0  0  0  0  0  0  0  0  0  0
   -4.9026   -2.0793   -0.3861 H   0  0  0  0  0  0  0  0  0  0  0  0
   -5.1308   -0.1898   -1.6038 H   0  0  0  0  0  0  0  0  0  0  0  0
   -4.1314    1.2957    0.8933 H   0  0  0  0  0  0  0  0  0  0  0  0
   -3.8961    1.6420   -0.8356 H   0  0  0  0  0  0  0  0  0  0  0  0
   -5.1993    3.3700   -0.2461 H   0  0  0  0  0  0  0  0  0  0  0  0
   -6.0645    2.5344    1.0634 H   0  0  0  0  0  0  0  0  0  0  0  0
   -7.5262    3.0426   -0.8135 H   0  0  0  0  0  0  0  0  0  0  0  0
   -6.4401    2.2327   -1.9787 H   0  0  0  0  0  0  0  0  0  0  0  0
   -8.3702    1.0849    0.1037 H   0  0  0  0  0  0  0  0  0  0  0  0
   -8.0074    0.5706   -1.5565 H   0  0  0  0  0  0  0  0  0  0  0  0
   -6.9988   -1.1229   -0.4626 H   0  0  0  0  0  0  0  0  0  0  0  0
   -7.3429   -0.4883    1.7925 H   0  0  0  0  0  0  0  0  0  0  0  0
   -0.4953    1.3870   -1.8515 H   0  0  0  0  0  0  0  0  0  0  0  0
    0.4808    0.1193   -2.6355 H   0  0  0  0  0  0  0  0  0  0  0  0
    1.7055    1.9671   -1.4221 H   0  0  0  0  0  0  0  0  0  0  0  0
    2.8230   -0.2161   -1.7224 H   0  0  0  0  0  0  0  0  0  0  0  0
    2.1988   -0.5983   -0.0963 H   0  0  0  0  0  0  0  0  0  0  0  0
    3.3062    1.3098    0.8845 H   0  0  0  0  0  0  0  0  0  0  0  0
    3.8979    1.8323   -0.7952 H   0  0  0  0  0  0  0  0  0  0  0  0
    5.5781    1.7208    0.8000 H   0  0  0  0  0  0  0  0  0  0  0  0
    6.8196    0.7431    2.5046 H   0  0  0  0  0  0  0  0  0  0  0  0
    5.3260   -0.1955    2.4826 H   0  0  0  0  0  0  0  0  0  0  0  0
    6.2862   -2.1722    1.7995 H   0  0  0  0  0  0  0  0  0  0  0  0
    7.6278   -1.4047    2.6585 H   0  0  0  0  0  0  0  0  0  0  0  0
    8.1096   -2.5050    0.4388 H   0  0  0  0  0  0  0  0  0  0  0  0
    8.7559   -0.7980    0.6854 H   0  0  0  0  0  0  0  0  0  0  0  0
    6.1309   -1.3768   -0.6945 H   0  0  0  0  0  0  0  0  0  0  0  0
    7.7356   -1.1156   -1.5934 H   0  0  0  0  0  0  0  0  0  0  0  0
    6.6001    1.1073   -1.3667 H   0  0  0  0  0  0  0  0  0  0  0  0
    7.7493    3.0048   -0.7203 H   0  0  0  0  0  0  0  0  0  0  0  0
    8.8150    1.8292   -1.6900 H   0  0  0  0  0  0  0  0  0  0  0  0
    9.4751    2.5693   -0.2075 H   0  0  0  0  0  0  0  0  0  0  0  0
    0.0299   -4.7759    0.7246 H   0  0  0  0  0  0  0  0  0  0  0  0
   -0.5407   -2.8332    1.6816 H   0  0  0  0  0  0  0  0  0  0  0  0
   -1.6591   -3.6498   -1.0528 H   0  0  0  0  0  0  0  0  0  0  0  0
   -2.0777   -4.2947    0.6020 H   0  0  0  0  0  0  0  0  0  0  0  0
   -2.2208   -0.9437   -1.1129 H   0  0  0  0  0  0  0  0  0  0  0  0
   -3.8188   -2.3058   -2.0938 H   0  0  0  0  0  0  0  0  0  0  0  0
   -4.2907   -0.6043   -2.0062 H   0  0  0  0  0  0  0  0  0  0  0  0
   -6.3035   -1.5703   -1.3723 H   0  0  0  0  0  0  0  0  0  0  0  0
   -5.5332   -3.0600   -0.8294 H   0  0  0  0  0  0  0  0  0  0  0  0
   -6.6638   -1.1235    0.7939 H   0  0  0  0  0  0  0  0  0  0  0  0
   -5.7095   -2.5001    1.3380 H   0  0  0  0  0  0  0  0  0  0  0  0
   -4.3464   -1.0233    2.3239 H   0  0  0  0  0  0  0  0  0  0  0  0
   -2.6276   -0.0999    1.2842 H   0  0  0  0  0  0  0  0  0  0  0  0
   -3.6627    1.1107   -1.1631 H   0  0  0  0  0  0  0  0  0  0  0  0
   -1.9461    1.6538    1.0025 H   0  0  0  0  0  0  0  0  0  0  0  0
   -2.3163    2.7333   -0.3502 H   0  0  0  0  0  0  0  0  0  0  0  0
   -2.7529    3.9218    1.5713 H   0  0  0  0  0  0  0  0  0  0  0  0
   -3.8354    2.6260    2.3206 H   0  0  0  0  0  0  0  0  0  0  0  0
   -5.0233    4.6006    1.0886 H   0  0  0  0  0  0  0  0  0  0  0  0
   -4.1702    4.0406   -0.3679 H   0  0  0  0  0  0  0  0  0  0  0  0
   -6.4837    2.7864    1.0194 H   0  0  0  0  0  0  0  0  0  0  0  0
   -6.1642    2.8880   -0.7277 H   0  0  0  0  0  0  0  0  0  0  0  0
   -5.7869    0.6582   -0.3829 H   0  0  0  0  0  0  0  0  0  0  0  0
   -6.3054    0.4162    1.7740 H   0  0  0  0  0  0  0  0  0  0  0  0
    0.0478   -1.6855   -1.0763 H   0  0  0  0  0  0  0  0  0  0  0  0
   -0.6379   -0.8019    0.3745 H   0  0  0  0  0  0  0  0  0  0  0  0
    1.5029   -0.2456    0.2878 H   0  0  0  0  0  0  0  0  0  0  0  0
    2.3576   -2.3034   -1.0598 H   0  0  0  0  0  0  0  0  0  0  0  0
    2.3738   -3.0983    0.5392 H   0  0  0  0  0  0  0  0  0  0  0  0
    4.5796   -2.2137    0.0126 H   0  0  0  0  0  0  0  0  0  0  0  0
    3.8291   -1.5944    1.5105 H   0  0  0  0  0  0  0  0  0  0  0  0
    5.7747   -0.6295    0.9173 H   0  0  0  0  0  0  0  0  0  0  0  0
    4.7104    2.1888    0.5511 H   0  0  0  0  0  0  0  0  0  0  0  0
    4.4276    1.2054    2.0550 H   0  0  0  0  0  0  0  0  0  0  0  0
    6.5869    1.7972    2.7482 H   0  0  0  0  0  0  0  0  0  0  0  0
    6.7213    2.8612    1.3389 H   0  0  0  0  0  0  0  0  0  0  0  0
    7.5698   -0.0402    1.7208 H   0  0  0  0  0  0  0  0  0  0  0  0
    8.5476    1.3952    1.3406 H   0  0  0  0  0  0  0  0  0  0  0  0
    8.1583    1.3506   -0.9306 H   0  0  0  0  0  0  0  0  0  0  0  0
    7.9401   -0.3727   -0.5448 H   0  0  0  0  0  0  0  0  0  0  0  0
    6.0076   -0.0868   -1.7168 H   0  0  0  0  0  0  0  0  0  0  0  0
    5.9478    1.8070   -3.2405 H   0  0  0  0  0  0  0  0  0  0  0  0
    4.9700    3.1342   -2.6002 H   0  0  0  0  0  0  0  0  0  0  0  0
    4.2569    1.5144   -2.7067 H   0  0  0  0  0  0  0  0  0  0  0  0
  1  2  1  0
  2  3  1  0
  3  4  1  0
  4  5  1  0
  5  6  1  0
  6  7  1  0
  7  8  1  0
  8  9  1  0
  5 10  1  0
  9 10  1  0
 10 11  1  0
 11 12  1  0
 12 13  1  0
 13 14  1  0
 14 15  1  0
 11 16  1  0
 15 16  1  0
  9 17  1  0
 16 17  1  0
  2 18  1  0
 18 19  1  0
 19 20  1  0
 20 21  1  0
 21 22  1  0
 22 23  1  0
 23 24  1  0
 24 25  1  0
 25 26  1  0
 26 27  1  0
 23 28  1  0
 27 28  1  0
 28 29  1  0
 29 30  1  0
 31 32  1  0
 32 33  1  0
 33 34  1  0
 34 35  1  0
 35 36  1  0
 36 37  1  0
 37 38  1  0
 38 39  1  0
 35 40  1  0
 39 40  1  0
 40 41  1  0
 41 42  1  0
 42 43  1  0
 43 44  1  0
 44 45  1  0
 41 46  1  0
 45 46  1  0
 39 47  1  0
 46 47  1  0
 32 48  1  0
 48 49  1  0
 49 50  1  0
 50 51  1  0
 51 52  1  0
 52 53  1  0
 53 54  1  0
 54 55  1  0
 55 56  1  0
 56 57  1  0
 53 58  1  0
 57 58  1  0
 58 59  1  0
 59 60  1  0
  1 61  1  0
  2 62  1  1
  3 63  1  0
  3 64  1  0
  5 65  1  1
  6 66  1  0
  6 67  1  0
  7 68  1  0
  7 69  1  0
  8 70  1  0
  8 71  1  0
  9 72  1  0
 10 73  1  0
 11 74  1  0
 12 75  1  0
 12 76  1  0
 13 77  1  0
 13 78  1  0
 14 79  1  0
 14 80  1  0
 15 81  1  0
 15 82  1  0
 16 83  1  0
 17 84  1  0
 18 85  1  0
 18 86  1  0
 19 87  1  0
 20 88  1  0
 20 89  1  0
 21 90  1  0
 21 91  1  0
 23 92  1  0
 24 93  1  0
 24 94  1  0
 25 95  1  0
 25 96  1  0
 26 97  1  0
 26 98  1  0
 27 99  1  0
 27100  1  0
 28101  1  0
 30102  1  0
 30103  1  0
 30104  1  0
 31105  1  0
 32106  1  1
 33107  1  0
 33108  1  0
 35109  1  6
 36110  1  0
 36111  1  0
 37112  1  0
 37113  1  0
 38114  1  0
 38115  1  0
 39116  1  0
 40117  1  1
 41118  1  6
 42119  1  0
 42120  1  0
 43121  1  0
 43122  1  0
 44123  1  0
 44124  1  0
 45125  1  0
 45126  1  0
 46127  1  0
 47128  1  0
 48129  1  0
 48130  1  0
 49131  1  0
 50132  1  0
 50133  1  0
 51134  1  0
 51135  1  0
 53136  1  0
 54137  1  0
 54138  1  0
 55139  1  0
 55140  1  0
 56141  1  0
 56142  1  0
 57143  1  0
 57144  1  0
 58145  1  0
 60146  1  0
 60147  1  0
 60148  1  0
M  END
>  <PDBID>  (1) 
4AMJ

>  <PDB ID>  (1) 
4AMJ

>  <Generic Name>  (1) 
Carvedilol

>  <Brand Name>  (1) 
Apo-carvedilol#Auro-carvedilol#Ava-carvedilol#Carvedilol#Coreg#Coreg (carvedilol) Tablets, 12.5mg#Coreg (carvedilol) Tablets, 25mg#Coreg (carvedilol) Tablets, 3.125 mg#Coreg (carvedilol) Tablets, 6.25mg#Coreg 12.5mg#Coreg 25mg#Coreg 3.125mg#Coreg 6.25mg#Coreg CR#Coregcr CR#Dilatrend - Tab 25mg#Dilatrend - Tab 50mg#Dom-carvedilol#Hypertenevide-12.5#Jamp-carvedilol#Mylan-carvedilol#Novo-carvedilol Tablets#Ntp-carvedilol#Nu-carvedilol#PMS-carvedilol#Ran-carvedilol#Ratio-carvedilol#Zym-carvedilol#COREGCR

>  <DrugBank ID>  (1) 
DB01136

>  <ATC Codes>  (1) 
C07AG02

>  <Ligand ID>  (1) 
CVD

>  <Target Name>  (1) 
Beta-1 adrenergic receptor

>  <UniProt ID>  (1) 
P08588

>  <PDB ID.1>  (1) 
4AMJ

>  <Seq. Identity>  (1) 
63%

$$$$
