PDB_DB00373_02
     RDKit          3D

 49 50  0  0  0  0  0  0  0  0999 V2000
   -3.2162    1.2480   -0.0938 C   0  0  0  0  0  0  0  0  0  0  0  0
   -4.3293    2.1574    0.4474 C   0  0  0  0  0  0  0  0  0  0  0  0
   -5.3624    2.1128   -0.4644 O   0  0  0  0  0  0  0  0  0  0  0  0
   -5.8888    0.8427   -0.4861 C   0  0  0  0  0  0  0  0  0  0  0  0
   -4.8823   -0.2052   -0.9019 C   0  0  0  0  0  0  0  0  0  0  0  0
   -3.6674   -0.1058   -0.1415 N   0  0  0  0  0  0  0  0  0  0  0  0
   -2.6406   -0.9518   -0.6630 C   0  0  0  0  0  0  0  0  0  0  0  0
   -3.0161   -2.3708   -0.6631 N   0  0  0  0  0  0  0  0  0  0  0  0
   -3.0296   -2.6574    1.1036 S   0  0  0  0  0  0  0  0  0  0  0  0
   -2.0074   -1.2695    1.5885 N   0  0  0  0  0  0  0  0  0  0  0  0
   -1.4373   -0.9443    0.2651 C   0  0  0  0  0  0  0  0  0  0  0  0
   -0.5719   -1.9503   -0.1030 O   0  0  0  0  0  0  0  0  0  0  0  0
    0.7364   -1.5768   -0.2985 C   0  0  0  0  0  0  0  0  0  0  0  0
    1.3225   -1.0266    0.9610 C   0  0  1  0  0  0  0  0  0  0  0  0
    1.2726   -1.9997    1.9815 O   0  0  0  0  0  0  0  0  0  0  0  0
    2.7876   -0.6780    0.8247 C   0  0  0  0  0  0  0  0  0  0  0  0
    3.0217    0.3193   -0.1919 N   0  0  0  0  0  0  0  0  0  0  0  0
    4.4022    0.6472   -0.3326 C   0  0  0  0  0  0  0  0  0  0  0  0
    5.2638   -0.5041   -0.7713 C   0  0  0  0  0  0  0  0  0  0  0  0
    4.5379    1.7355   -1.3806 C   0  0  0  0  0  0  0  0  0  0  0  0
    4.8834    1.2275    0.9834 C   0  0  0  0  0  0  0  0  0  0  0  0
   -2.9950    1.6469   -1.1134 H   0  0  0  0  0  0  0  0  0  0  0  0
   -2.3590    1.4235    0.5516 H   0  0  0  0  0  0  0  0  0  0  0  0
   -4.6327    1.8428    1.4763 H   0  0  0  0  0  0  0  0  0  0  0  0
   -3.9394    3.2041    0.4548 H   0  0  0  0  0  0  0  0  0  0  0  0
   -6.3587    0.5453    0.4830 H   0  0  0  0  0  0  0  0  0  0  0  0
   -6.7084    0.8226   -1.2404 H   0  0  0  0  0  0  0  0  0  0  0  0
   -5.3987   -1.1822   -0.7854 H   0  0  0  0  0  0  0  0  0  0  0  0
   -4.6320    0.0056   -1.9698 H   0  0  0  0  0  0  0  0  0  0  0  0
   -2.2829   -0.6449   -1.6657 H   0  0  0  0  0  0  0  0  0  0  0  0
   -3.9269   -2.5529   -1.0888 H   0  0  0  0  0  0  0  0  0  0  0  0
   -2.5755   -0.4976    1.9462 H   0  0  0  0  0  0  0  0  0  0  0  0
   -0.9382    0.0177    0.3350 H   0  0  0  0  0  0  0  0  0  0  0  0
    1.3454   -2.3536   -0.7723 H   0  0  0  0  0  0  0  0  0  0  0  0
    0.7041   -0.7389   -1.0597 H   0  0  0  0  0  0  0  0  0  0  0  0
    0.8139   -0.1108    1.3008 H   0  0  0  0  0  0  0  0  0  0  0  0
    1.3880   -1.4986    2.8300 H   0  0  0  0  0  0  0  0  0  0  0  0
    3.1250   -0.3397    1.8238 H   0  0  0  0  0  0  0  0  0  0  0  0
    3.3541   -1.5839    0.5659 H   0  0  0  0  0  0  0  0  0  0  0  0
    2.6549    0.0099   -1.1095 H   0  0  0  0  0  0  0  0  0  0  0  0
    6.3256   -0.1159   -0.7683 H   0  0  0  0  0  0  0  0  0  0  0  0
    4.9555   -0.8509   -1.7573 H   0  0  0  0  0  0  0  0  0  0  0  0
    5.2740   -1.3569   -0.0675 H   0  0  0  0  0  0  0  0  0  0  0  0
    3.5594    2.0056   -1.8262 H   0  0  0  0  0  0  0  0  0  0  0  0
    5.1818    1.4123   -2.2416 H   0  0  0  0  0  0  0  0  0  0  0  0
    5.0363    2.6341   -0.9702 H   0  0  0  0  0  0  0  0  0  0  0  0
    5.0404    0.4418    1.7504 H   0  0  0  0  0  0  0  0  0  0  0  0
    5.7535    1.8959    0.8534 H   0  0  0  0  0  0  0  0  0  0  0  0
    4.0567    1.8686    1.3641 H   0  0  0  0  0  0  0  0  0  0  0  0
  1  2  1  0
  2  3  1  0
  3  4  1  0
  4  5  1  0
  1  6  1  0
  5  6  1  0
  6  7  1  0
  7  8  1  0
  8  9  1  0
  9 10  1  0
  7 11  1  0
 10 11  1  0
 11 12  1  0
 12 13  1  0
 13 14  1  0
 14 15  1  0
 14 16  1  0
 16 17  1  0
 18 17  1  0
 18 19  1  0
 18 20  1  0
 18 21  1  0
  1 22  1  0
  1 23  1  0
  2 24  1  0
  2 25  1  0
  4 26  1  0
  4 27  1  0
  5 28  1  0
  5 29  1  0
  7 30  1  0
  8 31  1  0
 10 32  1  0
 11 33  1  0
 13 34  1  0
 13 35  1  0
 14 36  1  1
 15 37  1  0
 16 38  1  0
 16 39  1  0
 17 40  1  0
 19 41  1  0
 19 42  1  0
 19 43  1  0
 20 44  1  0
 20 45  1  0
 20 46  1  0
 21 47  1  0
 21 48  1  0
 21 49  1  0
M  END
>  <PDBID>  (1) 
3D4S

>  <PDB ID>  (1) 
3D4S

>  <Generic Name>  (1) 
Timolol

>  <Brand Name>  (1) 
Act Dorzotimolol#Act Latanoprost/timolol#Apo-brimonidine-timop#Apo-dorzo-timop#Apo-latanoprost-timop#Apo-timol Tablets 10mg#Apo-timol Tablets 20mg#Apo-timol Tablets 5mg#Apo-timop Gel#Apo-timop Liq 0.5%#Apo-timop Oph Soln 0.25%#Apo-travoprost-timop#Azarga#Beta-tim - 0.25% Liq#Beta-tim - 0.5% Liq#Betimol#Blocadren Tab 10mg#Blocadren Tab 20mg#Blocadren Tab 5mg#Combigan#Cosopt#Cosopt PF#Dom-timolol#Dorzolamide HCl /timolol Maleate#Dorzolamide HCl and Timolol Maleate#Dorzolamide Hydrochloride and Timolol Maleate#Dorzolamide Hydrochloride and Timolol Maleate Ophthalmic Solution#Dorzolamide Hydrochloride-timolol Maleate#Dorzolamide Hydrochloride-timolol Maleate Ophthalmic Solution Sterile Ophthalmic Solution#Duotrav Pq#Gd-latanoprost/timolol#Istalol#Jamp-dorzolamide/timolol#Jamp-latanoprost/timolol#Jamp-timolol#Med Timolol Liq Oph 0.25%#Med Timolol Liq Oph 0.5%#Med-dorzolamide-timolol#Med-latanoprost-timolol#Mint-dorzolamide/timolol#Mint-latanoprost/timolol#Mylan-dorzolamide/timolol#Mylan-latanoprost/timolol#Mylan-timolol#Novo-timol Liq 0.25%#Novo-timol Liq 0.5%#Nu-timolol Tab 10mg#Nu-timolol Tab 20mg#Nu-timolol Tab 5mg#Odan-timolol#PMS-dorzolamide-timolol#PMS-latanoprost-timolol#PMS-timolol#Ratio-timolol Maleate 0.25%#Ratio-timolol Maleate 0.5%#Rhoxal-timolol 0.25%#Rhoxal-timolol 0.5%#Riva-dorzolamide/timolol#Riva-latanoprost/timolol#Sandoz Dorzolamide/timolol#Sandoz Latanoprost/timolol#Sandoz Timolol#Sandoz Travoprost / Timolol Pq#T-LO  - Liq Oph 0.25%#T-LO - Liq Oph 0.5%#Teva-dorzotimol#Teva-latanoprost/timolol#Teva-timolol#Timolide Tab#Timolol Gfs#Timolol Maleate#Timolol Maleate-EX#Timolol Solution - 0.25%#Timolol Solution - 0.5%#Timolol-10 Tab 10mg#Timolol-20 Tab 20mg#Timolol-5 Tab 5mg#Timoptic#Timoptic-XE#Timpilo 2#Timpilo 4#Van-dorzolamide-timolol#Xalacom#Blocadren#Proflax#Tenopt#Timacar Depot#Timacor#Timoptol

>  <DrugBank ID>  (1) 
DB00373

>  <ATC Codes>  (1) 
S01ED51#S01ED01#C07DA06#C07BA06#C07AA06

>  <Ligand ID>  (1) 
TIM

>  <Target Name>  (1) 
Beta-1 adrenergic receptor

>  <UniProt ID>  (1) 
P08588

>  <PDB ID.1>  (1) 
3D4S

>  <Seq. Identity>  (1) 
67%

$$$$
