PDB_DB00234_05
     RDKit          3D

 58 60  0  0  0  0  0  0  0  0999 V2000
    4.6013   -2.1389    1.7923 C   0  0  0  0  0  0  0  0  0  0  0  0
    3.3026   -2.1858    1.0055 C   0  0  0  0  0  0  0  0  0  0  0  0
    3.2931   -1.1015    0.1646 O   0  0  0  0  0  0  0  0  0  0  0  0
    2.1449   -1.0366   -0.6163 C   0  0  0  0  0  0  0  0  0  0  0  0
    2.6030   -1.3657   -2.0484 C   0  0  0  0  0  0  0  0  0  0  0  0
    3.8843   -0.5863   -2.2578 C   0  0  0  0  0  0  0  0  0  0  0  0
    3.6166    0.7922   -1.6542 C   0  0  0  0  0  0  0  0  0  0  0  0
    2.1365    1.1075   -1.6830 C   0  0  0  0  0  0  0  0  0  0  0  0
    1.4642    0.2927   -0.5503 C   0  0  0  0  0  0  0  0  0  0  0  0
    0.1668    0.1681   -0.6903 O   0  0  0  0  0  0  0  0  0  0  0  0
   -0.8201    0.7107    0.0138 C   0  0  2  0  0  0  0  0  0  0  0  0
   -1.6038   -0.2928    0.7819 C   0  0  0  0  0  0  0  0  0  0  0  0
   -0.7010   -0.9708    1.7843 C   0  0  0  0  0  0  0  0  0  0  0  0
   -1.2569   -2.3219    2.1938 C   0  0  0  0  0  0  0  0  0  0  0  0
   -2.7680   -2.1087    2.3545 C   0  0  0  0  0  0  0  0  0  0  0  0
   -3.0980   -0.6874    2.7386 C   0  0  0  0  0  0  0  0  0  0  0  0
   -2.7420    0.2937    1.6096 C   0  0  0  0  0  0  0  0  0  0  0  0
   -1.6498    1.7361   -0.7130 C   0  0  2  0  0  0  0  0  0  0  0  0
   -2.6543    2.2669    0.0864 O   0  0  0  0  0  0  0  0  0  0  0  0
   -3.2124    3.4024   -0.4448 C   0  0  0  0  0  0  0  0  0  0  0  0
   -3.2894    3.3397   -1.9674 C   0  0  0  0  0  0  0  0  0  0  0  0
   -3.5216    1.9312   -2.2898 N   0  0  0  0  0  0  0  0  0  0  0  0
   -2.2937    1.2272   -1.9612 C   0  0  0  0  0  0  0  0  0  0  0  0
    5.4605   -1.8912    1.1448 H   0  0  0  0  0  0  0  0  0  0  0  0
    4.7539   -3.1277    2.2403 H   0  0  0  0  0  0  0  0  0  0  0  0
    4.5142   -1.3143    2.5307 H   0  0  0  0  0  0  0  0  0  0  0  0
    3.2250   -3.1277    0.4140 H   0  0  0  0  0  0  0  0  0  0  0  0
    2.4344   -2.1069    1.6906 H   0  0  0  0  0  0  0  0  0  0  0  0
    1.4981   -1.9065   -0.3491 H   0  0  0  0  0  0  0  0  0  0  0  0
    2.8007   -2.4721   -2.0962 H   0  0  0  0  0  0  0  0  0  0  0  0
    1.8273   -1.1764   -2.7912 H   0  0  0  0  0  0  0  0  0  0  0  0
    4.2024   -0.5305   -3.2989 H   0  0  0  0  0  0  0  0  0  0  0  0
    4.6610   -1.0946   -1.6400 H   0  0  0  0  0  0  0  0  0  0  0  0
    4.0784    0.9287   -0.6777 H   0  0  0  0  0  0  0  0  0  0  0  0
    4.1400    1.5112   -2.3463 H   0  0  0  0  0  0  0  0  0  0  0  0
    1.7623    0.8417   -2.6679 H   0  0  0  0  0  0  0  0  0  0  0  0
    2.0271    2.1805   -1.5234 H   0  0  0  0  0  0  0  0  0  0  0  0
    1.7686    0.8332    0.3563 H   0  0  0  0  0  0  0  0  0  0  0  0
   -0.3070    1.3346    0.8236 H   0  0  0  0  0  0  0  0  0  0  0  0
   -1.9822   -1.1349    0.1515 H   0  0  0  0  0  0  0  0  0  0  0  0
   -0.7014   -0.2864    2.6952 H   0  0  0  0  0  0  0  0  0  0  0  0
    0.3391   -0.9794    1.4676 H   0  0  0  0  0  0  0  0  0  0  0  0
   -1.0378   -3.0138    1.3560 H   0  0  0  0  0  0  0  0  0  0  0  0
   -0.7753   -2.6064    3.1306 H   0  0  0  0  0  0  0  0  0  0  0  0
   -3.1812   -2.7617    3.1321 H   0  0  0  0  0  0  0  0  0  0  0  0
   -3.2118   -2.3257    1.3733 H   0  0  0  0  0  0  0  0  0  0  0  0
   -2.6284   -0.3872    3.6902 H   0  0  0  0  0  0  0  0  0  0  0  0
   -4.1906   -0.6195    2.8794 H   0  0  0  0  0  0  0  0  0  0  0  0
   -3.6456    0.3764    0.9816 H   0  0  0  0  0  0  0  0  0  0  0  0
   -2.4481    1.2189    2.1178 H   0  0  0  0  0  0  0  0  0  0  0  0
   -0.9843    2.5907   -0.9619 H   0  0  0  0  0  0  0  0  0  0  0  0
   -2.7506    4.3402   -0.1360 H   0  0  0  0  0  0  0  0  0  0  0  0
   -4.2775    3.4397   -0.1004 H   0  0  0  0  0  0  0  0  0  0  0  0
   -4.1299    3.9453   -2.3546 H   0  0  0  0  0  0  0  0  0  0  0  0
   -2.3608    3.7051   -2.4304 H   0  0  0  0  0  0  0  0  0  0  0  0
   -4.3190    1.6217   -1.6730 H   0  0  0  0  0  0  0  0  0  0  0  0
   -1.6155    1.3681   -2.8410 H   0  0  0  0  0  0  0  0  0  0  0  0
   -2.5485    0.1547   -1.9365 H   0  0  0  0  0  0  0  0  0  0  0  0
  1  2  1  0
  2  3  1  0
  3  4  1  0
  4  5  1  0
  5  6  1  0
  6  7  1  0
  7  8  1  0
  4  9  1  0
  8  9  1  0
  9 10  1  0
 10 11  1  0
 11 12  1  0
 12 13  1  0
 13 14  1  0
 14 15  1  0
 15 16  1  0
 12 17  1  0
 16 17  1  0
 11 18  1  0
 18 19  1  0
 19 20  1  0
 20 21  1  0
 21 22  1  0
 18 23  1  0
 22 23  1  0
  1 24  1  0
  1 25  1  0
  1 26  1  0
  2 27  1  0
  2 28  1  0
  4 29  1  0
  5 30  1  0
  5 31  1  0
  6 32  1  0
  6 33  1  0
  7 34  1  0
  7 35  1  0
  8 36  1  0
  8 37  1  0
  9 38  1  0
 11 39  1  1
 12 40  1  0
 13 41  1  0
 13 42  1  0
 14 43  1  0
 14 44  1  0
 15 45  1  0
 15 46  1  0
 16 47  1  0
 16 48  1  0
 17 49  1  0
 17 50  1  0
 18 51  1  6
 20 52  1  0
 20 53  1  0
 21 54  1  0
 21 55  1  0
 22 56  1  0
 23 57  1  0
 23 58  1  0
M  END
>  <PDBID>  (1) 
4XNX

>  <PDB ID>  (1) 
4XNX

>  <Generic Name>  (1) 
Reboxetine

>  <Brand Name>  (1) 
Davedax#Edronax#Norebox#Prolift#Solvex#Vestra

>  <DrugBank ID>  (1) 
DB00234

>  <ATC Codes>  (1) 
N06AX18

>  <Ligand ID>  (1) 
41X

>  <Target Name>  (1) 
Sodium-dependent noradrenaline transporter

>  <UniProt ID>  (1) 
P23975

>  <PDB ID.1>  (1) 
4XNX

>  <Seq. Identity>  (1) 
58%

$$$$
