PDB_DB00482_07
     RDKit          3D

116120  0  0  0  0  0  0  0  0999 V2000
    5.3339   -0.3986    0.8518 S   0  0  0  0  0  0  0  0  0  0  0  0
    3.8106   -0.1019   -0.0309 C   0  0  0  0  0  0  0  0  0  0  0  0
    3.2736    1.1923    0.5230 C   0  0  0  0  0  0  0  0  0  0  0  0
    1.8931    1.5282    0.0646 C   0  0  0  0  0  0  0  0  0  0  0  0
    1.2931    0.3529   -0.6786 C   0  0  0  0  0  0  0  0  0  0  0  0
    1.4321   -0.9051    0.1369 C   0  0  0  0  0  0  0  0  0  0  0  0
    2.8797   -1.2258    0.3513 C   0  0  0  0  0  0  0  0  0  0  0  0
   -0.0662    0.6032   -1.0991 N   0  0  0  0  0  0  0  0  0  0  0  0
   -1.0001    0.8115   -0.0502 C   0  0  0  0  0  0  0  0  0  0  0  0
   -1.9372   -0.3688    0.1524 C   0  0  0  0  0  0  0  0  0  0  0  0
   -2.7626   -0.6868   -1.0648 C   0  0  0  0  0  0  0  0  0  0  0  0
   -3.4048   -2.0374   -0.7741 C   0  0  0  0  0  0  0  0  0  0  0  0
   -4.3798   -1.8894    0.3345 C   0  0  0  0  0  0  0  0  0  0  0  0
   -4.5711   -3.2720    0.9599 C   0  0  0  0  0  0  0  0  0  0  0  0
   -4.1045   -0.8457    1.3479 C   0  0  0  0  0  0  0  0  0  0  0  0
   -2.7364   -0.2807    1.4045 C   0  0  0  0  0  0  0  0  0  0  0  0
   -1.8096    2.0205   -0.5184 C   0  0  0  0  0  0  0  0  0  0  0  0
   -0.6915    2.8034   -1.2185 C   0  0  0  0  0  0  0  0  0  0  0  0
   -1.2643    3.8409   -2.1567 C   0  0  0  0  0  0  0  0  0  0  0  0
   -2.0514    4.7512   -1.4971 F   0  0  0  0  0  0  0  0  0  0  0  0
   -1.9060    3.2817   -3.2334 F   0  0  0  0  0  0  0  0  0  0  0  0
   -0.1665    4.5448   -2.6580 F   0  0  0  0  0  0  0  0  0  0  0  0
   -0.0197    1.7486   -1.9002 N   0  0  0  0  0  0  0  0  0  0  0  0
    5.9264   -1.8585    0.3323 N   0  0  0  0  0  0  0  0  0  0  0  0
    6.3970    0.7428    0.3468 O   0  0  0  0  0  0  0  0  0  0  0  0
    5.0758   -0.3529    2.3714 O   0  0  0  0  0  0  0  0  0  0  0  0
    5.3339   -0.3986    0.8518 S   0  0  0  0  0  0  0  0  0  0  0  0
    3.8106   -0.1019   -0.0309 C   0  0  0  0  0  0  0  0  0  0  0  0
    3.2736    1.1923    0.5230 C   0  0  0  0  0  0  0  0  0  0  0  0
    1.8931    1.5282    0.0646 C   0  0  0  0  0  0  0  0  0  0  0  0
    1.2931    0.3529   -0.6786 C   0  0  0  0  0  0  0  0  0  0  0  0
    1.4321   -0.9051    0.1369 C   0  0  0  0  0  0  0  0  0  0  0  0
    2.8797   -1.2258    0.3513 C   0  0  0  0  0  0  0  0  0  0  0  0
   -0.0662    0.6032   -1.0991 N   0  0  0  0  0  0  0  0  0  0  0  0
   -1.0001    0.8115   -0.0502 C   0  0  0  0  0  0  0  0  0  0  0  0
   -1.9372   -0.3688    0.1524 C   0  0  0  0  0  0  0  0  0  0  0  0
   -2.7626   -0.6868   -1.0648 C   0  0  0  0  0  0  0  0  0  0  0  0
   -3.4048   -2.0374   -0.7741 C   0  0  0  0  0  0  0  0  0  0  0  0
   -4.3798   -1.8894    0.3345 C   0  0  0  0  0  0  0  0  0  0  0  0
   -4.5711   -3.2720    0.9599 C   0  0  0  0  0  0  0  0  0  0  0  0
   -4.1045   -0.8457    1.3479 C   0  0  0  0  0  0  0  0  0  0  0  0
   -2.7364   -0.2807    1.4045 C   0  0  0  0  0  0  0  0  0  0  0  0
   -1.8096    2.0205   -0.5184 C   0  0  0  0  0  0  0  0  0  0  0  0
   -0.6915    2.8034   -1.2185 C   0  0  0  0  0  0  0  0  0  0  0  0
   -1.2643    3.8409   -2.1567 C   0  0  0  0  0  0  0  0  0  0  0  0
   -2.0514    4.7512   -1.4971 F   0  0  0  0  0  0  0  0  0  0  0  0
   -1.9060    3.2817   -3.2334 F   0  0  0  0  0  0  0  0  0  0  0  0
   -0.1665    4.5448   -2.6580 F   0  0  0  0  0  0  0  0  0  0  0  0
   -0.0197    1.7486   -1.9002 N   0  0  0  0  0  0  0  0  0  0  0  0
    5.9264   -1.8585    0.3323 N   0  0  0  0  0  0  0  0  0  0  0  0
    6.3970    0.7428    0.3468 O   0  0  0  0  0  0  0  0  0  0  0  0
    5.0758   -0.3529    2.3714 O   0  0  0  0  0  0  0  0  0  0  0  0
    4.0426   -0.0779   -1.0989 H   0  0  0  0  0  0  0  0  0  0  0  0
    3.9969    2.0316    0.3032 H   0  0  0  0  0  0  0  0  0  0  0  0
    3.3107    1.1008    1.6433 H   0  0  0  0  0  0  0  0  0  0  0  0
    1.2999    1.8664    0.9118 H   0  0  0  0  0  0  0  0  0  0  0  0
    2.0168    2.3304   -0.7232 H   0  0  0  0  0  0  0  0  0  0  0  0
    1.8934    0.2184   -1.6018 H   0  0  0  0  0  0  0  0  0  0  0  0
    0.9836   -1.7463   -0.4298 H   0  0  0  0  0  0  0  0  0  0  0  0
    0.9375   -0.8184    1.1337 H   0  0  0  0  0  0  0  0  0  0  0  0
    3.0847   -1.4412    1.4408 H   0  0  0  0  0  0  0  0  0  0  0  0
    3.2195   -2.1375   -0.1820 H   0  0  0  0  0  0  0  0  0  0  0  0
   -0.5696    1.0524    0.9321 H   0  0  0  0  0  0  0  0  0  0  0  0
   -1.2528   -1.2598    0.2774 H   0  0  0  0  0  0  0  0  0  0  0  0
   -2.0900   -0.8187   -1.9149 H   0  0  0  0  0  0  0  0  0  0  0  0
   -3.5890    0.0384   -1.2423 H   0  0  0  0  0  0  0  0  0  0  0  0
   -2.6106   -2.7622   -0.4814 H   0  0  0  0  0  0  0  0  0  0  0  0
   -3.9223   -2.4150   -1.6892 H   0  0  0  0  0  0  0  0  0  0  0  0
   -5.3791   -1.6614   -0.1425 H   0  0  0  0  0  0  0  0  0  0  0  0
   -5.6393   -3.5295    1.0861 H   0  0  0  0  0  0  0  0  0  0  0  0
   -4.0637   -4.0632    0.3733 H   0  0  0  0  0  0  0  0  0  0  0  0
   -4.1231   -3.2335    1.9589 H   0  0  0  0  0  0  0  0  0  0  0  0
   -4.8824   -0.0246    1.3111 H   0  0  0  0  0  0  0  0  0  0  0  0
   -4.3071   -1.3166    2.3595 H   0  0  0  0  0  0  0  0  0  0  0  0
   -2.8300    0.8185    1.6529 H   0  0  0  0  0  0  0  0  0  0  0  0
   -2.1505   -0.6840    2.2773 H   0  0  0  0  0  0  0  0  0  0  0  0
   -2.2454    2.5826    0.3187 H   0  0  0  0  0  0  0  0  0  0  0  0
   -2.5380    1.7762   -1.2989 H   0  0  0  0  0  0  0  0  0  0  0  0
   -0.1397    3.3199   -0.4361 H   0  0  0  0  0  0  0  0  0  0  0  0
   -0.5479    1.5194   -2.7717 H   0  0  0  0  0  0  0  0  0  0  0  0
    6.9531   -1.9001    0.5443 H   0  0  0  0  0  0  0  0  0  0  0  0
    5.4899   -2.6250    0.9203 H   0  0  0  0  0  0  0  0  0  0  0  0
    6.2621    1.0896   -0.5596 H   0  0  0  0  0  0  0  0  0  0  0  0
    4.9462   -1.2278    2.8305 H   0  0  0  0  0  0  0  0  0  0  0  0
    4.0426   -0.0779   -1.0989 H   0  0  0  0  0  0  0  0  0  0  0  0
    3.9969    2.0316    0.3032 H   0  0  0  0  0  0  0  0  0  0  0  0
    3.3107    1.1008    1.6433 H   0  0  0  0  0  0  0  0  0  0  0  0
    1.2999    1.8664    0.9118 H   0  0  0  0  0  0  0  0  0  0  0  0
    2.0168    2.3304   -0.7232 H   0  0  0  0  0  0  0  0  0  0  0  0
    1.8934    0.2184   -1.6018 H   0  0  0  0  0  0  0  0  0  0  0  0
    0.9836   -1.7463   -0.4298 H   0  0  0  0  0  0  0  0  0  0  0  0
    0.9375   -0.8184    1.1337 H   0  0  0  0  0  0  0  0  0  0  0  0
    3.0847   -1.4412    1.4408 H   0  0  0  0  0  0  0  0  0  0  0  0
    3.2195   -2.1375   -0.1820 H   0  0  0  0  0  0  0  0  0  0  0  0
   -0.5696    1.0524    0.9321 H   0  0  0  0  0  0  0  0  0  0  0  0
   -1.2528   -1.2598    0.2774 H   0  0  0  0  0  0  0  0  0  0  0  0
   -2.0900   -0.8187   -1.9149 H   0  0  0  0  0  0  0  0  0  0  0  0
   -3.5890    0.0384   -1.2423 H   0  0  0  0  0  0  0  0  0  0  0  0
   -2.6106   -2.7622   -0.4814 H   0  0  0  0  0  0  0  0  0  0  0  0
   -3.9223   -2.4150   -1.6892 H   0  0  0  0  0  0  0  0  0  0  0  0
   -5.3791   -1.6614   -0.1425 H   0  0  0  0  0  0  0  0  0  0  0  0
   -5.6393   -3.5295    1.0861 H   0  0  0  0  0  0  0  0  0  0  0  0
   -4.0637   -4.0632    0.3733 H   0  0  0  0  0  0  0  0  0  0  0  0
   -4.1231   -3.2335    1.9589 H   0  0  0  0  0  0  0  0  0  0  0  0
   -4.8824   -0.0246    1.3111 H   0  0  0  0  0  0  0  0  0  0  0  0
   -4.3071   -1.3166    2.3595 H   0  0  0  0  0  0  0  0  0  0  0  0
   -2.8300    0.8185    1.6529 H   0  0  0  0  0  0  0  0  0  0  0  0
   -2.1505   -0.6840    2.2773 H   0  0  0  0  0  0  0  0  0  0  0  0
   -2.2454    2.5826    0.3187 H   0  0  0  0  0  0  0  0  0  0  0  0
   -2.5380    1.7762   -1.2989 H   0  0  0  0  0  0  0  0  0  0  0  0
   -0.1397    3.3199   -0.4361 H   0  0  0  0  0  0  0  0  0  0  0  0
   -0.5479    1.5194   -2.7717 H   0  0  0  0  0  0  0  0  0  0  0  0
    6.9531   -1.9001    0.5443 H   0  0  0  0  0  0  0  0  0  0  0  0
    5.4899   -2.6250    0.9203 H   0  0  0  0  0  0  0  0  0  0  0  0
    6.2621    1.0896   -0.5596 H   0  0  0  0  0  0  0  0  0  0  0  0
    4.9462   -1.2278    2.8305 H   0  0  0  0  0  0  0  0  0  0  0  0
  1  2  1  0
  2  3  1  0
  3  4  1  0
  4  5  1  0
  5  6  1  0
  2  7  1  0
  6  7  1  0
  5  8  1  0
  8  9  1  0
  9 10  1  0
 10 11  1  0
 11 12  1  0
 12 13  1  0
 13 14  1  0
 13 15  1  0
 10 16  1  0
 15 16  1  0
  9 17  1  0
 17 18  1  0
 18 19  1  0
 19 20  1  0
 19 21  1  0
 19 22  1  0
  8 23  1  0
 18 23  1  0
  1 24  1  0
  1 25  1  0
  1 26  1  0
 27 28  1  0
 28 29  1  0
 29 30  1  0
 30 31  1  0
 31 32  1  0
 28 33  1  0
 32 33  1  0
 31 34  1  0
 34 35  1  0
 35 36  1  0
 36 37  1  0
 37 38  1  0
 38 39  1  0
 39 40  1  0
 39 41  1  0
 36 42  1  0
 41 42  1  0
 35 43  1  0
 43 44  1  0
 44 45  1  0
 45 46  1  0
 45 47  1  0
 45 48  1  0
 34 49  1  0
 44 49  1  0
 27 50  1  0
 27 51  1  0
 27 52  1  0
  2 53  1  0
  3 54  1  0
  3 55  1  0
  4 56  1  0
  4 57  1  0
  5 58  1  0
  6 59  1  0
  6 60  1  0
  7 61  1  0
  7 62  1  0
  9 63  1  0
 10 64  1  0
 11 65  1  0
 11 66  1  0
 12 67  1  0
 12 68  1  0
 13 69  1  0
 14 70  1  0
 14 71  1  0
 14 72  1  0
 15 73  1  0
 15 74  1  0
 16 75  1  0
 16 76  1  0
 17 77  1  0
 17 78  1  0
 18 79  1  0
 23 80  1  0
 24 81  1  0
 24 82  1  0
 25 83  1  0
 26 84  1  0
 28 85  1  0
 29 86  1  0
 29 87  1  0
 30 88  1  0
 30 89  1  0
 31 90  1  0
 32 91  1  0
 32 92  1  0
 33 93  1  0
 33 94  1  0
 35 95  1  0
 36 96  1  0
 37 97  1  0
 37 98  1  0
 38 99  1  0
 38100  1  0
 39101  1  0
 40102  1  0
 40103  1  0
 40104  1  0
 41105  1  0
 41106  1  0
 42107  1  0
 42108  1  0
 43109  1  0
 43110  1  0
 44111  1  0
 49112  1  0
 50113  1  0
 50114  1  0
 51115  1  0
 52116  1  0
M  END
>  <PDBID>  (1) 
5JW1

>  <PDB ID>  (1) 
5JW1

>  <Generic Name>  (1) 
Celecoxib

>  <Brand Name>  (1) 
Accel-celecoxib#Act Celecoxib#Ag-celecoxib#Apo-celecoxib#Auro-celecoxib#Bio-celecoxib#Celebrex#Celecoxib#Celecoxib 100 mg#Celecoxib 200 mg#Celecoxib 400 mg#Celecoxib 50 mg#Dom-celecoxib#Gd-celecoxib#Ipg-celecoxib#Jamp-celecoxib#Lupin-celecoxib#Mar-celecoxib#Mint-celecoxib#Mylan-celecoxib#PMS-celecoxib#Priva-celecoxib#Ran-celecoxib#Rbx-celecoxib#Riva-celecox#Riva-celecoxib#Sandoz Celecoxib#Sdz Celecoxib#Teva-celecoxib#Articox#Articoxib#Artiflex#Artilog#Artix#Artrixib#Blockten#Caditar#Cefinix#Celact#Celebra#Onsenal#Valdyne

>  <DrugBank ID>  (1) 
DB00482

>  <ATC Codes>  (1) 
L01XX33#M01AH01

>  <Ligand ID>  (1) 
CEL

>  <Target Name>  (1) 
Prostaglandin G/H synthase 2

>  <UniProt ID>  (1) 
P35354

>  <PDB ID.1>  (1) 
5JW1

>  <Seq. Identity>  (1) 
85%

$$$$
