PDB_DB06626_04
     RDKit          3D

 70 73  0  0  0  0  0  0  0  0999 V2000
   -6.9192    1.0250    1.0361 O   0  0  0  0  0  0  0  0  0  0  0  0
   -5.5651    0.8931    0.6099 C   0  0  0  0  0  0  0  0  0  0  0  0
   -5.2946    1.9459   -0.3230 N   0  0  0  0  0  0  0  0  0  0  0  0
   -6.3304    2.9537   -0.3513 C   0  0  0  0  0  0  0  0  0  0  0  0
   -5.4583   -0.4486   -0.0378 C   0  0  0  0  0  0  0  0  0  0  0  0
   -6.3833   -0.5753   -1.2431 C   0  0  0  0  0  0  0  0  0  0  0  0
   -6.4088   -1.9976   -1.6886 C   0  0  0  0  0  0  0  0  0  0  0  0
   -5.0354   -2.5490   -1.9912 C   0  0  0  0  0  0  0  0  0  0  0  0
   -4.1030   -0.9618   -0.2956 C   0  0  0  0  0  0  0  0  0  0  0  0
   -4.1038   -2.3570   -0.8476 C   0  0  0  0  0  0  0  0  0  0  0  0
   -3.0675   -1.0100    1.1804 S   0  0  0  0  0  0  0  0  0  0  0  0
   -1.7274    0.2449    1.0650 C   0  0  0  0  0  0  0  0  0  0  0  0
   -0.9576   -0.1935   -0.1909 C   0  0  0  0  0  0  0  0  0  0  0  0
    0.3688    0.4578   -0.3811 C   0  0  0  0  0  0  0  0  0  0  0  0
   -0.8676    0.0326    2.2977 C   0  0  0  0  0  0  0  0  0  0  0  0
    0.4623   -0.4975    1.8443 C   0  0  0  0  0  0  0  0  0  0  0  0
    1.4813   -0.5578    2.8525 N   0  0  0  0  0  0  0  0  0  0  0  0
    2.6653   -0.6687    2.0415 N   0  0  0  0  0  0  0  0  0  0  0  0
    2.4591    0.3961    1.0682 C   0  0  0  0  0  0  0  0  0  0  0  0
    1.0311    0.5964    0.9277 C   0  0  0  0  0  0  0  0  0  0  0  0
    3.3621    0.4068   -0.1001 C   0  0  0  0  0  0  0  0  0  0  0  0
    4.7689    0.6507    0.4505 C   0  0  0  0  0  0  0  0  0  0  0  0
    5.8318    0.7558   -0.5959 C   0  0  0  0  0  0  0  0  0  0  0  0
    6.0994   -0.3478   -1.4054 N   0  0  0  0  0  0  0  0  0  0  0  0
    7.1061   -1.2705   -1.0197 C   0  0  0  0  0  0  0  0  0  0  0  0
    8.2716   -0.7069   -0.2751 C   0  0  0  0  0  0  0  0  0  0  0  0
    8.3551    0.7811   -0.5567 C   0  0  0  0  0  0  0  0  0  0  0  0
    7.0829    1.3940   -0.0653 C   0  0  0  0  0  0  0  0  0  0  0  0
   -7.4964    1.2973    0.2901 H   0  0  0  0  0  0  0  0  0  0  0  0
   -4.9549    0.9260    1.5117 H   0  0  0  0  0  0  0  0  0  0  0  0
   -4.3336    2.3278   -0.2299 H   0  0  0  0  0  0  0  0  0  0  0  0
   -5.8723    3.9374   -0.6216 H   0  0  0  0  0  0  0  0  0  0  0  0
   -6.7764    3.1093    0.6614 H   0  0  0  0  0  0  0  0  0  0  0  0
   -7.1204    2.7501   -1.0793 H   0  0  0  0  0  0  0  0  0  0  0  0
   -5.9115   -1.1649    0.7507 H   0  0  0  0  0  0  0  0  0  0  0  0
   -7.4005   -0.2945   -0.8945 H   0  0  0  0  0  0  0  0  0  0  0  0
   -6.0491    0.1324   -1.9979 H   0  0  0  0  0  0  0  0  0  0  0  0
   -7.0212   -2.1155   -2.5784 H   0  0  0  0  0  0  0  0  0  0  0  0
   -6.8799   -2.5982   -0.8840 H   0  0  0  0  0  0  0  0  0  0  0  0
   -5.1381   -3.6405   -2.1525 H   0  0  0  0  0  0  0  0  0  0  0  0
   -4.6217   -2.1443   -2.9292 H   0  0  0  0  0  0  0  0  0  0  0  0
   -3.6064   -0.2673   -1.0709 H   0  0  0  0  0  0  0  0  0  0  0  0
   -4.2466   -3.0497   -0.0135 H   0  0  0  0  0  0  0  0  0  0  0  0
   -3.0591   -2.5093   -1.2552 H   0  0  0  0  0  0  0  0  0  0  0  0
   -2.1225    1.2197    0.9051 H   0  0  0  0  0  0  0  0  0  0  0  0
   -0.8921   -1.3185   -0.1626 H   0  0  0  0  0  0  0  0  0  0  0  0
   -1.6204    0.0933   -1.0346 H   0  0  0  0  0  0  0  0  0  0  0  0
    0.1939    1.4744   -0.8149 H   0  0  0  0  0  0  0  0  0  0  0  0
    0.9176   -0.1218   -1.1527 H   0  0  0  0  0  0  0  0  0  0  0  0
   -0.6454    1.0553    2.7234 H   0  0  0  0  0  0  0  0  0  0  0  0
   -1.3400   -0.5957    3.0689 H   0  0  0  0  0  0  0  0  0  0  0  0
    0.4292   -1.4821    1.3620 H   0  0  0  0  0  0  0  0  0  0  0  0
    1.6192    0.3496    3.3552 H   0  0  0  0  0  0  0  0  0  0  0  0
    2.5646   -1.5835    1.5375 H   0  0  0  0  0  0  0  0  0  0  0  0
    2.8353    1.3216    1.6944 H   0  0  0  0  0  0  0  0  0  0  0  0
    0.6575    1.5704    1.3857 H   0  0  0  0  0  0  0  0  0  0  0  0
    3.1450    1.2729   -0.7252 H   0  0  0  0  0  0  0  0  0  0  0  0
    3.4181   -0.5686   -0.6341 H   0  0  0  0  0  0  0  0  0  0  0  0
    5.0346   -0.2328    1.1119 H   0  0  0  0  0  0  0  0  0  0  0  0
    4.7877    1.5321    1.1016 H   0  0  0  0  0  0  0  0  0  0  0  0
    5.4361    1.5657   -1.3550 H   0  0  0  0  0  0  0  0  0  0  0  0
    5.4222   -0.7310   -2.0445 H   0  0  0  0  0  0  0  0  0  0  0  0
    7.5378   -1.7341   -1.9560 H   0  0  0  0  0  0  0  0  0  0  0  0
    6.7198   -2.1741   -0.4614 H   0  0  0  0  0  0  0  0  0  0  0  0
    8.0586   -0.8159    0.8173 H   0  0  0  0  0  0  0  0  0  0  0  0
    9.2541   -1.2022   -0.5107 H   0  0  0  0  0  0  0  0  0  0  0  0
    8.5611    1.0114   -1.6238 H   0  0  0  0  0  0  0  0  0  0  0  0
    9.1971    1.1567    0.0463 H   0  0  0  0  0  0  0  0  0  0  0  0
    7.0916    1.3327    1.0627 H   0  0  0  0  0  0  0  0  0  0  0  0
    7.1038    2.5168   -0.2419 H   0  0  0  0  0  0  0  0  0  0  0  0
  1  2  1  0
  2  3  1  0
  3  4  1  0
  2  5  1  0
  5  6  1  0
  6  7  1  0
  7  8  1  0
  5  9  1  0
  8 10  1  0
  9 10  1  0
  9 11  1  0
 11 12  1  0
 12 13  1  0
 13 14  1  0
 12 15  1  0
 15 16  1  0
 16 17  1  0
 17 18  1  0
 18 19  1  0
 14 20  1  0
 16 20  1  0
 19 20  1  0
 19 21  1  0
 21 22  1  0
 22 23  1  0
 23 24  1  0
 24 25  1  0
 25 26  1  0
 26 27  1  0
 23 28  1  0
 27 28  1  0
  1 29  1  0
  2 30  1  0
  3 31  1  0
  4 32  1  0
  4 33  1  0
  4 34  1  0
  5 35  1  0
  6 36  1  0
  6 37  1  0
  7 38  1  0
  7 39  1  0
  8 40  1  0
  8 41  1  0
  9 42  1  0
 10 43  1  0
 10 44  1  0
 12 45  1  0
 13 46  1  0
 13 47  1  0
 14 48  1  0
 14 49  1  0
 15 50  1  0
 15 51  1  0
 16 52  1  0
 17 53  1  0
 18 54  1  0
 19 55  1  0
 20 56  1  0
 21 57  1  0
 21 58  1  0
 22 59  1  0
 22 60  1  0
 23 61  1  0
 24 62  1  0
 25 63  1  0
 25 64  1  0
 26 65  1  0
 26 66  1  0
 27 67  1  0
 27 68  1  0
 28 69  1  0
 28 70  1  0
M  END
>  <PDBID>  (1) 
4AG8

>  <PDB ID>  (1) 
4AG8

>  <Generic Name>  (1) 
Axitinib

>  <Brand Name>  (1) 
Inlyta

>  <DrugBank ID>  (1) 
DB06626

>  <ATC Codes>  (1) 
L01XE17

>  <Ligand ID>  (1) 
AXI

>  <Target Name>  (1) 
Vascular endothelial growth factor receptor 3

>  <UniProt ID>  (1) 
P35916

>  <PDB ID.1>  (1) 
4AG8

>  <Seq. Identity>  (1) 
67%

$$$$
