PDB_DB00205_05
     RDKit          3D

 84 86  0  0  0  0  0  0  0  0999 V2000
   -1.9597   -0.8943   -1.7783 N   0  0  0  0  0  0  0  0  0  0  0  0
   -2.0439    0.5244   -1.9109 C   0  0  0  0  0  0  0  0  0  0  0  0
   -0.6915   -1.2241   -1.1677 C   0  0  0  0  0  0  0  0  0  0  0  0
   -0.5281   -0.6294    0.1987 C   0  0  0  0  0  0  0  0  0  0  0  0
   -1.5924    0.3935    0.4022 C   0  0  0  0  0  0  0  0  0  0  0  0
   -1.6421    1.2542   -0.7372 N   0  0  0  0  0  0  0  0  0  0  0  0
    0.8633   -0.1387    0.4731 C   0  0  0  0  0  0  0  0  0  0  0  0
    1.3298    0.9262   -0.4684 C   0  0  0  0  0  0  0  0  0  0  0  0
    2.6454    1.4492    0.1163 C   0  0  0  0  0  0  0  0  0  0  0  0
    3.6875    0.3862    0.2076 C   0  0  0  0  0  0  0  0  0  0  0  0
    3.2307   -0.9802    0.4950 C   0  0  0  0  0  0  0  0  0  0  0  0
    1.8098   -1.2991    0.2666 C   0  0  0  0  0  0  0  0  0  0  0  0
   -0.5005   -2.6699   -1.1606 N   0  0  0  0  0  0  0  0  0  0  0  0
   -3.3432    0.9702   -2.3833 N   0  0  0  0  0  0  0  0  0  0  0  0
   -1.4960    1.1317    1.7091 C   0  0  0  0  0  0  0  0  0  0  0  0
   -1.5996    0.1661    2.8711 C   0  0  0  0  0  0  0  0  0  0  0  0
    4.8839    0.9262    1.4167 Cl  0  0  0  0  0  0  0  0  0  0  0  0
   -1.9597   -0.8943   -1.7783 N   0  0  0  0  0  0  0  0  0  0  0  0
   -2.0439    0.5244   -1.9109 C   0  0  0  0  0  0  0  0  0  0  0  0
   -0.6915   -1.2241   -1.1677 C   0  0  0  0  0  0  0  0  0  0  0  0
   -0.5281   -0.6294    0.1987 C   0  0  0  0  0  0  0  0  0  0  0  0
   -1.5924    0.3935    0.4022 C   0  0  0  0  0  0  0  0  0  0  0  0
   -1.6421    1.2542   -0.7372 N   0  0  0  0  0  0  0  0  0  0  0  0
    0.8633   -0.1387    0.4731 C   0  0  0  0  0  0  0  0  0  0  0  0
    1.3298    0.9262   -0.4684 C   0  0  0  0  0  0  0  0  0  0  0  0
    2.6454    1.4492    0.1163 C   0  0  0  0  0  0  0  0  0  0  0  0
    3.6875    0.3862    0.2076 C   0  0  0  0  0  0  0  0  0  0  0  0
    3.2307   -0.9802    0.4950 C   0  0  0  0  0  0  0  0  0  0  0  0
    1.8098   -1.2991    0.2666 C   0  0  0  0  0  0  0  0  0  0  0  0
   -0.5005   -2.6699   -1.1606 N   0  0  0  0  0  0  0  0  0  0  0  0
   -3.3432    0.9702   -2.3833 N   0  0  0  0  0  0  0  0  0  0  0  0
   -1.4960    1.1317    1.7091 C   0  0  0  0  0  0  0  0  0  0  0  0
   -1.5996    0.1661    2.8711 C   0  0  0  0  0  0  0  0  0  0  0  0
    4.8839    0.9262    1.4167 Cl  0  0  0  0  0  0  0  0  0  0  0  0
   -2.7741   -1.3382   -1.3190 H   0  0  0  0  0  0  0  0  0  0  0  0
   -1.3171    0.8191   -2.7245 H   0  0  0  0  0  0  0  0  0  0  0  0
    0.0946   -0.8115   -1.8355 H   0  0  0  0  0  0  0  0  0  0  0  0
   -0.7201   -1.4579    0.9336 H   0  0  0  0  0  0  0  0  0  0  0  0
   -2.5761   -0.1610    0.4317 H   0  0  0  0  0  0  0  0  0  0  0  0
   -2.1416    2.1398   -0.5970 H   0  0  0  0  0  0  0  0  0  0  0  0
    0.9643    0.1883    1.5269 H   0  0  0  0  0  0  0  0  0  0  0  0
    1.6050    0.5261   -1.4654 H   0  0  0  0  0  0  0  0  0  0  0  0
    0.6632    1.8050   -0.5276 H   0  0  0  0  0  0  0  0  0  0  0  0
    2.9735    2.2663   -0.5689 H   0  0  0  0  0  0  0  0  0  0  0  0
    2.4273    1.9341    1.0911 H   0  0  0  0  0  0  0  0  0  0  0  0
    4.2397    0.3854   -0.7782 H   0  0  0  0  0  0  0  0  0  0  0  0
    3.8475   -1.7327   -0.0820 H   0  0  0  0  0  0  0  0  0  0  0  0
    3.4655   -1.2277    1.5731 H   0  0  0  0  0  0  0  0  0  0  0  0
    1.4473   -2.1135    0.9557 H   0  0  0  0  0  0  0  0  0  0  0  0
    1.6284   -1.6729   -0.7687 H   0  0  0  0  0  0  0  0  0  0  0  0
   -0.4612   -2.9607   -2.1650 H   0  0  0  0  0  0  0  0  0  0  0  0
   -1.3101   -3.1480   -0.7347 H   0  0  0  0  0  0  0  0  0  0  0  0
   -3.9438    1.1787   -1.5562 H   0  0  0  0  0  0  0  0  0  0  0  0
   -3.2691    1.8580   -2.9394 H   0  0  0  0  0  0  0  0  0  0  0  0
   -2.3842    1.8002    1.7721 H   0  0  0  0  0  0  0  0  0  0  0  0
   -0.5912    1.7537    1.7879 H   0  0  0  0  0  0  0  0  0  0  0  0
   -2.3048    0.5283    3.6342 H   0  0  0  0  0  0  0  0  0  0  0  0
   -2.0028   -0.8112    2.4853 H   0  0  0  0  0  0  0  0  0  0  0  0
   -0.6138   -0.0401    3.3204 H   0  0  0  0  0  0  0  0  0  0  0  0
   -2.7741   -1.3382   -1.3190 H   0  0  0  0  0  0  0  0  0  0  0  0
   -1.3171    0.8191   -2.7245 H   0  0  0  0  0  0  0  0  0  0  0  0
    0.0946   -0.8115   -1.8355 H   0  0  0  0  0  0  0  0  0  0  0  0
   -0.7201   -1.4579    0.9336 H   0  0  0  0  0  0  0  0  0  0  0  0
   -2.5761   -0.1610    0.4317 H   0  0  0  0  0  0  0  0  0  0  0  0
   -2.1416    2.1398   -0.5970 H   0  0  0  0  0  0  0  0  0  0  0  0
    0.9643    0.1883    1.5269 H   0  0  0  0  0  0  0  0  0  0  0  0
    1.6050    0.5261   -1.4654 H   0  0  0  0  0  0  0  0  0  0  0  0
    0.6632    1.8050   -0.5276 H   0  0  0  0  0  0  0  0  0  0  0  0
    2.9735    2.2663   -0.5689 H   0  0  0  0  0  0  0  0  0  0  0  0
    2.4273    1.9341    1.0911 H   0  0  0  0  0  0  0  0  0  0  0  0
    4.2397    0.3854   -0.7782 H   0  0  0  0  0  0  0  0  0  0  0  0
    3.8475   -1.7327   -0.0820 H   0  0  0  0  0  0  0  0  0  0  0  0
    3.4655   -1.2277    1.5731 H   0  0  0  0  0  0  0  0  0  0  0  0
    1.4473   -2.1135    0.9557 H   0  0  0  0  0  0  0  0  0  0  0  0
    1.6284   -1.6729   -0.7687 H   0  0  0  0  0  0  0  0  0  0  0  0
   -0.4612   -2.9607   -2.1650 H   0  0  0  0  0  0  0  0  0  0  0  0
   -1.3101   -3.1480   -0.7347 H   0  0  0  0  0  0  0  0  0  0  0  0
   -3.9438    1.1787   -1.5562 H   0  0  0  0  0  0  0  0  0  0  0  0
   -3.2691    1.8580   -2.9394 H   0  0  0  0  0  0  0  0  0  0  0  0
   -2.3842    1.8002    1.7721 H   0  0  0  0  0  0  0  0  0  0  0  0
   -0.5912    1.7537    1.7879 H   0  0  0  0  0  0  0  0  0  0  0  0
   -2.3048    0.5283    3.6342 H   0  0  0  0  0  0  0  0  0  0  0  0
   -2.0028   -0.8112    2.4853 H   0  0  0  0  0  0  0  0  0  0  0  0
   -0.6138   -0.0401    3.3204 H   0  0  0  0  0  0  0  0  0  0  0  0
  1  2  1  0
  1  3  1  0
  3  4  1  0
  4  5  1  0
  2  6  1  0
  5  6  1  0
  4  7  1  0
  7  8  1  0
  8  9  1  0
  9 10  1  0
 10 11  1  0
  7 12  1  0
 11 12  1  0
  3 13  1  0
  2 14  1  0
  5 15  1  0
 15 16  1  0
 10 17  1  0
 18 19  1  0
 18 20  1  0
 20 21  1  0
 21 22  1  0
 19 23  1  0
 22 23  1  0
 21 24  1  0
 24 25  1  0
 25 26  1  0
 26 27  1  0
 27 28  1  0
 24 29  1  0
 28 29  1  0
 20 30  1  0
 19 31  1  0
 22 32  1  0
 32 33  1  0
 27 34  1  0
  1 35  1  0
  2 36  1  0
  3 37  1  0
  4 38  1  0
  5 39  1  0
  6 40  1  0
  7 41  1  0
  8 42  1  0
  8 43  1  0
  9 44  1  0
  9 45  1  0
 10 46  1  0
 11 47  1  0
 11 48  1  0
 12 49  1  0
 12 50  1  0
 13 51  1  0
 13 52  1  0
 14 53  1  0
 14 54  1  0
 15 55  1  0
 15 56  1  0
 16 57  1  0
 16 58  1  0
 16 59  1  0
 18 60  1  0
 19 61  1  0
 20 62  1  0
 21 63  1  0
 22 64  1  0
 23 65  1  0
 24 66  1  0
 25 67  1  0
 25 68  1  0
 26 69  1  0
 26 70  1  0
 27 71  1  0
 28 72  1  0
 28 73  1  0
 29 74  1  0
 29 75  1  0
 30 76  1  0
 30 77  1  0
 31 78  1  0
 31 79  1  0
 32 80  1  0
 32 81  1  0
 33 82  1  0
 33 83  1  0
 33 84  1  0
M  END
>  <PDBID>  (1) 
3QFX

>  <PDB ID>  (1) 
3QFX

>  <Generic Name>  (1) 
Pyrimethamine

>  <Brand Name>  (1) 
Daraprim#Fansidar Tablets#Pyrimethamine Leucovorin

>  <DrugBank ID>  (1) 
DB00205

>  <ATC Codes>  (1) 
P01BF04#P01BD01#P01BD51

>  <Ligand ID>  (1) 
CP6

>  <Target Name>  (1) 
Dihydrofolate reductase

>  <UniProt ID>  (1) 
P00374

>  <PDB ID.1>  (1) 
3QFX

>  <Seq. Identity>  (1) 
32%

$$$$
