PDB_DB00625_01
     RDKit          3D

 42 44  0  0  0  0  0  0  0  0999 V2000
   -2.7742    3.6835   -0.7099 Cl  0  0  0  0  0  0  0  0  0  0  0  0
   -0.3530    0.7338    2.7879 F   0  0  0  0  0  0  0  0  0  0  0  0
    0.9615    1.9774    1.4453 F   0  0  0  0  0  0  0  0  0  0  0  0
    1.7843    0.2190    2.6182 F   0  0  0  0  0  0  0  0  0  0  0  0
   -0.8614   -3.5186    1.1932 O   0  0  0  0  0  0  0  0  0  0  0  0
    0.0925   -1.5080    1.3265 O   0  0  0  0  0  0  0  0  0  0  0  0
   -1.4084   -1.9676   -0.3815 N   0  0  0  0  0  0  0  0  0  0  0  0
   -1.7336   -0.5700   -0.6268 C   0  0  1  0  0  0  0  0  0  0  0  0
   -3.2520   -0.3292   -0.5588 C   0  0  0  0  0  0  0  0  0  0  0  0
   -3.5321    1.1556   -0.4893 C   0  0  0  0  0  0  0  0  0  0  0  0
   -2.3180    1.9717   -0.8792 C   0  0  0  0  0  0  0  0  0  0  0  0
   -1.1289    1.7004    0.0431 C   0  0  0  0  0  0  0  0  0  0  0  0
   -1.1382    0.2865    0.4346 C   0  0  0  0  0  0  0  0  0  0  0  0
    0.3024   -0.2466    0.8037 C   0  0  2  0  0  0  0  0  0  0  0  0
    1.0859   -0.3323   -0.4438 C   0  0  0  0  0  0  0  0  0  0  0  0
    2.4177   -0.9811   -0.4503 C   0  0  0  0  0  0  0  0  0  0  0  0
    3.4281   -0.3438    0.4307 C   0  0  0  0  0  0  0  0  0  0  0  0
    3.7542    1.0992    0.2022 C   0  0  0  0  0  0  0  0  0  0  0  0
    4.7358    0.0849   -0.1983 C   0  0  0  0  0  0  0  0  0  0  0  0
    0.7342    0.6979    1.8677 C   0  0  0  0  0  0  0  0  0  0  0  0
   -1.0752   -2.1292    1.0247 C   0  0  0  0  0  0  0  0  0  0  0  0
   -1.4171   -3.8719    1.9313 H   0  0  0  0  0  0  0  0  0  0  0  0
   -2.1726   -2.6132   -0.6291 H   0  0  0  0  0  0  0  0  0  0  0  0
   -1.4626   -0.3067   -1.6634 H   0  0  0  0  0  0  0  0  0  0  0  0
   -3.7428   -0.7720   -1.4460 H   0  0  0  0  0  0  0  0  0  0  0  0
   -3.6055   -0.7746    0.3933 H   0  0  0  0  0  0  0  0  0  0  0  0
   -4.3144    1.3872   -1.2382 H   0  0  0  0  0  0  0  0  0  0  0  0
   -3.8744    1.4584    0.5036 H   0  0  0  0  0  0  0  0  0  0  0  0
   -2.0458    1.8170   -1.9432 H   0  0  0  0  0  0  0  0  0  0  0  0
   -0.2490    2.0778   -0.4984 H   0  0  0  0  0  0  0  0  0  0  0  0
   -1.2295    2.3678    0.9502 H   0  0  0  0  0  0  0  0  0  0  0  0
   -1.7065    0.1622    1.3676 H   0  0  0  0  0  0  0  0  0  0  0  0
    1.1773    0.7391   -0.8572 H   0  0  0  0  0  0  0  0  0  0  0  0
    0.4449   -0.7954   -1.2856 H   0  0  0  0  0  0  0  0  0  0  0  0
    2.7923   -0.9803   -1.5292 H   0  0  0  0  0  0  0  0  0  0  0  0
    2.3465   -2.0855   -0.2311 H   0  0  0  0  0  0  0  0  0  0  0  0
    3.5973   -0.8642    1.3815 H   0  0  0  0  0  0  0  0  0  0  0  0
    3.8869    1.7311    1.1058 H   0  0  0  0  0  0  0  0  0  0  0  0
    3.2331    1.6357   -0.6366 H   0  0  0  0  0  0  0  0  0  0  0  0
    5.6382    0.0019    0.4307 H   0  0  0  0  0  0  0  0  0  0  0  0
    4.8984   -0.1634   -1.2507 H   0  0  0  0  0  0  0  0  0  0  0  0
   -1.9163   -1.8350    1.6923 H   0  0  0  0  0  0  0  0  0  0  0  0
  7  8  1  0
  8  9  1  0
  9 10  1  0
  1 11  1  0
 10 11  1  0
 11 12  1  0
  8 13  1  0
 12 13  1  0
  6 14  1  0
 13 14  1  0
 14 15  1  6
 15 16  1  0
 16 17  1  0
 17 18  1  0
 17 19  1  0
 18 19  1  0
 20  2  1  0
  3 20  1  0
  4 20  1  0
 14 20  1  0
  5 21  1  0
  6 21  1  0
  7 21  1  0
  5 22  1  0
  7 23  1  0
  8 24  1  6
  9 25  1  0
  9 26  1  0
 10 27  1  0
 10 28  1  0
 11 29  1  0
 12 30  1  0
 12 31  1  0
 13 32  1  0
 15 33  1  0
 15 34  1  0
 16 35  1  0
 16 36  1  0
 17 37  1  0
 18 38  1  0
 18 39  1  0
 19 40  1  0
 19 41  1  0
 21 42  1  0
M  END
>  <PDBID>  (1) 
1JKH

>  <PDB ID>  (1) 
1JKH

>  <Generic Name>  (1) 
Efavirenz

>  <Brand Name>  (1) 
Atripla#Auro-efavirenz#Mylan-efavirenz#Sustiva#Sustiva 100mg#Sustiva 200mg#Sustiva 50mg#Sustiva Tablets#Teva-efavirenz#E.F#Efavir#Efavirenz#Efcure#Efferven#Estiva#Evirenz#Stocrin#Viranz

>  <DrugBank ID>  (1) 
DB00625

>  <ATC Codes>  (1) 
J05AR06#J05AG03#J05AR11

>  <Ligand ID>  (1) 
EFZ

>  <Target Name>  (1) 
Reverse transcriptase/RNaseH

>  <UniProt ID>  (1) 
Q72547

>  <PDB ID.1>  (1) 
1JKH

>  <Seq. Identity>  (1) 
96%

$$$$
