PDB_DB00190_01
     RDKit          3D

 74 74  0  0  0  0  0  0  0  0999 V2000
   -1.8852    1.1976   -0.8714 N   0  0  0  0  0  0  0  0  0  0  0  0
   -3.2512    1.5282   -1.1773 N   0  0  0  0  0  0  0  0  0  0  0  0
   -1.8570   -0.1333   -0.3755 C   0  0  2  0  0  0  0  0  0  0  0  0
   -0.5167   -0.7357   -0.1428 C   0  0  0  0  0  0  0  0  0  0  0  0
   -2.4566   -0.9791   -1.5285 C   0  0  0  0  0  0  0  0  0  0  0  0
    0.4083   -0.1044    0.8130 C   0  0  0  0  0  0  0  0  0  0  0  0
    1.6882   -0.9620    0.8656 C   0  0  0  0  0  0  0  0  0  0  0  0
    2.5540   -0.7964   -0.3381 C   0  0  0  0  0  0  0  0  0  0  0  0
    0.8384    1.2541    0.3602 C   0  0  0  0  0  0  0  0  0  0  0  0
    2.3362    1.4633    0.6131 C   0  0  0  0  0  0  0  0  0  0  0  0
    3.1489    0.5838   -0.2888 C   0  0  0  0  0  0  0  0  0  0  0  0
    4.4255    0.4943    0.2528 O   0  0  0  0  0  0  0  0  0  0  0  0
    3.5915   -1.7219   -0.2310 O   0  0  0  0  0  0  0  0  0  0  0  0
   -2.8182   -0.3731    0.7666 C   0  0  0  0  0  0  0  0  0  0  0  0
   -2.6128    0.3930    1.8630 O   0  0  0  0  0  0  0  0  0  0  0  0
   -4.1162   -0.1796    0.3031 O   0  0  0  0  0  0  0  0  0  0  0  0
   -1.8852    1.1976   -0.8714 N   0  0  0  0  0  0  0  0  0  0  0  0
   -3.2512    1.5282   -1.1773 N   0  0  0  0  0  0  0  0  0  0  0  0
   -1.8570   -0.1333   -0.3755 C   0  0  2  0  0  0  0  0  0  0  0  0
   -0.5167   -0.7357   -0.1428 C   0  0  0  0  0  0  0  0  0  0  0  0
   -2.4566   -0.9791   -1.5285 C   0  0  0  0  0  0  0  0  0  0  0  0
    0.4083   -0.1044    0.8130 C   0  0  0  0  0  0  0  0  0  0  0  0
    1.6882   -0.9620    0.8656 C   0  0  0  0  0  0  0  0  0  0  0  0
    2.5540   -0.7964   -0.3381 C   0  0  0  0  0  0  0  0  0  0  0  0
    0.8384    1.2541    0.3602 C   0  0  0  0  0  0  0  0  0  0  0  0
    2.3362    1.4633    0.6131 C   0  0  0  0  0  0  0  0  0  0  0  0
    3.1489    0.5838   -0.2888 C   0  0  0  0  0  0  0  0  0  0  0  0
    4.4255    0.4943    0.2528 O   0  0  0  0  0  0  0  0  0  0  0  0
    3.5915   -1.7219   -0.2310 O   0  0  0  0  0  0  0  0  0  0  0  0
   -2.8182   -0.3731    0.7666 C   0  0  0  0  0  0  0  0  0  0  0  0
   -2.6128    0.3930    1.8630 O   0  0  0  0  0  0  0  0  0  0  0  0
   -4.1162   -0.1796    0.3031 O   0  0  0  0  0  0  0  0  0  0  0  0
   -1.6386    1.9318   -0.1693 H   0  0  0  0  0  0  0  0  0  0  0  0
   -3.4142    1.4200   -2.2046 H   0  0  0  0  0  0  0  0  0  0  0  0
    0.0026   -0.8495   -1.1392 H   0  0  0  0  0  0  0  0  0  0  0  0
   -0.6314   -1.8190    0.1894 H   0  0  0  0  0  0  0  0  0  0  0  0
   -3.5291   -0.7603   -1.6409 H   0  0  0  0  0  0  0  0  0  0  0  0
   -1.8779   -0.6725   -2.4218 H   0  0  0  0  0  0  0  0  0  0  0  0
   -2.2244   -2.0203   -1.3020 H   0  0  0  0  0  0  0  0  0  0  0  0
    0.0554   -0.0650    1.8576 H   0  0  0  0  0  0  0  0  0  0  0  0
    2.2820   -0.7659    1.7700 H   0  0  0  0  0  0  0  0  0  0  0  0
    1.3511   -2.0314    0.9456 H   0  0  0  0  0  0  0  0  0  0  0  0
    2.0020   -0.9906   -1.2779 H   0  0  0  0  0  0  0  0  0  0  0  0
    0.6146    1.4834   -0.6761 H   0  0  0  0  0  0  0  0  0  0  0  0
    0.3455    2.0225    1.0188 H   0  0  0  0  0  0  0  0  0  0  0  0
    2.5447    2.5294    0.3989 H   0  0  0  0  0  0  0  0  0  0  0  0
    2.5009    1.2531    1.6816 H   0  0  0  0  0  0  0  0  0  0  0  0
    3.2114    0.9684   -1.3216 H   0  0  0  0  0  0  0  0  0  0  0  0
    4.8982   -0.2812   -0.1197 H   0  0  0  0  0  0  0  0  0  0  0  0
    3.2520   -2.6373   -0.3363 H   0  0  0  0  0  0  0  0  0  0  0  0
   -2.7366   -1.4720    1.0081 H   0  0  0  0  0  0  0  0  0  0  0  0
   -2.0297    1.1726    1.7572 H   0  0  0  0  0  0  0  0  0  0  0  0
   -4.4556    0.6548    0.6766 H   0  0  0  0  0  0  0  0  0  0  0  0
   -1.6386    1.9318   -0.1693 H   0  0  0  0  0  0  0  0  0  0  0  0
   -3.4142    1.4200   -2.2046 H   0  0  0  0  0  0  0  0  0  0  0  0
    0.0026   -0.8495   -1.1392 H   0  0  0  0  0  0  0  0  0  0  0  0
   -0.6314   -1.8190    0.1894 H   0  0  0  0  0  0  0  0  0  0  0  0
   -3.5291   -0.7603   -1.6409 H   0  0  0  0  0  0  0  0  0  0  0  0
   -1.8779   -0.6725   -2.4218 H   0  0  0  0  0  0  0  0  0  0  0  0
   -2.2244   -2.0203   -1.3020 H   0  0  0  0  0  0  0  0  0  0  0  0
    0.0554   -0.0650    1.8576 H   0  0  0  0  0  0  0  0  0  0  0  0
    2.2820   -0.7659    1.7700 H   0  0  0  0  0  0  0  0  0  0  0  0
    1.3511   -2.0314    0.9456 H   0  0  0  0  0  0  0  0  0  0  0  0
    2.0020   -0.9906   -1.2779 H   0  0  0  0  0  0  0  0  0  0  0  0
    0.6146    1.4834   -0.6761 H   0  0  0  0  0  0  0  0  0  0  0  0
    0.3455    2.0225    1.0188 H   0  0  0  0  0  0  0  0  0  0  0  0
    2.5447    2.5294    0.3989 H   0  0  0  0  0  0  0  0  0  0  0  0
    2.5009    1.2531    1.6816 H   0  0  0  0  0  0  0  0  0  0  0  0
    3.2114    0.9684   -1.3216 H   0  0  0  0  0  0  0  0  0  0  0  0
    4.8982   -0.2812   -0.1197 H   0  0  0  0  0  0  0  0  0  0  0  0
    3.2520   -2.6373   -0.3363 H   0  0  0  0  0  0  0  0  0  0  0  0
   -2.7366   -1.4720    1.0081 H   0  0  0  0  0  0  0  0  0  0  0  0
   -2.0297    1.1726    1.7572 H   0  0  0  0  0  0  0  0  0  0  0  0
   -4.4556    0.6548    0.6766 H   0  0  0  0  0  0  0  0  0  0  0  0
  1  2  1  0
  3  1  1  6
  3  4  1  0
  3  5  1  0
  4  6  1  0
  6  7  1  0
  7  8  1  0
  6  9  1  0
  9 10  1  0
  8 11  1  0
 10 11  1  0
 11 12  1  0
  8 13  1  0
  3 14  1  0
 14 15  1  0
 14 16  1  0
 17 18  1  0
 19 17  1  6
 19 20  1  0
 19 21  1  0
 20 22  1  0
 22 23  1  0
 23 24  1  0
 22 25  1  0
 25 26  1  0
 24 27  1  0
 26 27  1  0
 27 28  1  0
 24 29  1  0
 19 30  1  0
 30 31  1  0
 30 32  1  0
  1 33  1  0
  2 34  1  0
  4 35  1  0
  4 36  1  0
  5 37  1  0
  5 38  1  0
  5 39  1  0
  6 40  1  0
  7 41  1  0
  7 42  1  0
  8 43  1  0
  9 44  1  0
  9 45  1  0
 10 46  1  0
 10 47  1  0
 11 48  1  0
 12 49  1  0
 13 50  1  0
 14 51  1  0
 15 52  1  0
 16 53  1  0
 17 54  1  0
 18 55  1  0
 20 56  1  0
 20 57  1  0
 21 58  1  0
 21 59  1  0
 21 60  1  0
 22 61  1  0
 23 62  1  0
 23 63  1  0
 24 64  1  0
 25 65  1  0
 25 66  1  0
 26 67  1  0
 26 68  1  0
 27 69  1  0
 28 70  1  0
 29 71  1  0
 30 72  1  0
 31 73  1  0
 32 74  1  0
M  END
>  <PDBID>  (1) 
1JS3

>  <PDB ID>  (1) 
1JS3

>  <Generic Name>  (1) 
Carbidopa

>  <Brand Name>  (1) 
Apo-levocarb - Tab 10mg/100mg#Apo-levocarb - Tab 25mg/250mg#Apo-levocarb CR#Apo-levocarb-tab 25mg/100mg#Carbidopa#Carbidopa Tablets, 25 mg#Carbidopa and Levodopa#Carbidopa, Levodopa and Entacapone#Carbidopa, Levodopa, and Entacapone#Dom-levo-carbidopa#Duodopa#Duopa#Lodosyn#Mint-levocarb#Nu-levocarb - Tab 10mg/100mg#Nu-levocarb - Tab 25 Mg/100 mg#Nu-levocarb - Tablets 25 Mg/250 mg#PMS-levocarb CR#Parcopa#Pro-lecarb-100/10 - Tab#Pro-lecarb-100/25 - Tab#Pro-levocarb - 100/25#Ratio-levodopa/carbidopa#Rytary#Sinemet#Sinemet 100/10#Sinemet 100/25#Sinemet 250/25#Sinemet CR#Sinemet CR 100/25#Sinemet CR 200/50#Stalevo#Teva-levocarbidopa

>  <DrugBank ID>  (1) 
DB00190

>  <ATC Codes>  (1) 
nan

>  <Ligand ID>  (1) 
142

>  <Target Name>  (1) 
Aromatic-L-amino-acid decarboxylase

>  <UniProt ID>  (1) 
P20711

>  <PDB ID.1>  (1) 
1JS3

>  <Seq. Identity>  (1) 
90%

$$$$
