PDB_DB05990_08
     RDKit          3D

 76 79  0  0  0  0  0  0  0  0999 V2000
   -3.5141    1.6918    0.3898 C   0  0  0  0  0  0  0  0  0  0  0  0
   -4.9845    1.6733    0.3300 C   0  0  0  0  0  0  0  0  0  0  0  0
   -5.6117    0.3860    0.8054 C   0  0  1  0  0  0  0  0  0  0  0  0
   -6.9627    0.4406    0.4659 O   0  0  0  0  0  0  0  0  0  0  0  0
   -4.9908   -0.7007   -0.0274 C   0  0  0  0  0  0  0  0  0  0  0  0
   -3.4968   -0.8464    0.2210 C   0  0  1  0  0  0  0  0  0  0  0  0
   -2.9206   -1.6569   -0.8635 C   0  0  2  0  0  0  0  0  0  0  0  0
   -1.4395   -1.6090   -1.0440 C   0  0  1  0  0  0  0  0  0  0  0  0
   -1.0700   -1.0332   -2.2742 O   0  0  0  0  0  0  0  0  0  0  0  0
   -0.7306   -0.7634    0.0197 C   0  0  2  0  0  0  0  0  0  0  0  0
   -1.4162    0.5571    0.0111 C   0  0  1  0  0  0  0  0  0  0  0  0
   -2.8068    0.4020    0.6433 C   0  0  1  0  0  0  0  0  0  0  0  0
   -0.6553    1.6374    0.7163 C   0  0  0  0  0  0  0  0  0  0  0  0
    0.7512    1.7332    0.1674 C   0  0  0  0  0  0  0  0  0  0  0  0
    1.4792    0.4336    0.3405 C   0  0  1  0  0  0  0  0  0  0  0  0
    0.6614   -0.5611   -0.5019 C   0  0  1  0  0  0  0  0  0  0  0  0
    1.5295   -1.7572   -0.4104 C   0  0  0  0  0  0  0  0  0  0  0  0
    2.9085   -1.1115   -0.7274 C   0  0  0  0  0  0  0  0  0  0  0  0
    2.7790    0.3472   -0.4436 C   0  0  2  0  0  0  0  0  0  0  0  0
    1.5988   -0.0356    1.7485 C   0  0  0  0  0  0  0  0  0  0  0  0
   -2.4879    0.4166    2.1577 C   0  0  0  0  0  0  0  0  0  0  0  0
    3.9408    0.9247    0.2274 C   0  0  2  0  0  0  0  0  0  0  0  0
    3.7825    2.4048    0.5717 C   0  0  0  0  0  0  0  0  0  0  0  0
    5.1995    0.8397   -0.5658 C   0  0  0  0  0  0  0  0  0  0  0  0
    5.8034   -0.4610   -0.8891 C   0  0  0  0  0  0  0  0  0  0  0  0
    6.2900   -1.2314    0.3259 C   0  0  0  0  0  0  0  0  0  0  0  0
   -3.6267   -0.2793   -2.9014 C   0  0  0  0  0  0  0  0  0  0  0  0
   -3.5689   -1.5677   -2.2190 C   0  0  0  0  0  0  0  0  0  0  0  0
    6.8224   -2.4321   -0.1380 O   0  0  0  0  0  0  0  0  0  0  0  0
    7.3845   -0.5068    0.8225 O   0  0  0  0  0  0  0  0  0  0  0  0
   -3.2335    2.4652    1.1682 H   0  0  0  0  0  0  0  0  0  0  0  0
   -3.1252    2.1577   -0.5544 H   0  0  0  0  0  0  0  0  0  0  0  0
   -5.4841    2.4997    0.8989 H   0  0  0  0  0  0  0  0  0  0  0  0
   -5.3459    1.8113   -0.7295 H   0  0  0  0  0  0  0  0  0  0  0  0
   -5.5521    0.2279    1.8814 H   0  0  0  0  0  0  0  0  0  0  0  0
   -7.3069   -0.5014    0.5182 H   0  0  0  0  0  0  0  0  0  0  0  0
   -5.5356   -1.6518    0.2502 H   0  0  0  0  0  0  0  0  0  0  0  0
   -5.2531   -0.5102   -1.0678 H   0  0  0  0  0  0  0  0  0  0  0  0
   -3.4868   -1.4933    1.1629 H   0  0  0  0  0  0  0  0  0  0  0  0
   -3.1354   -2.7500   -0.6135 H   0  0  0  0  0  0  0  0  0  0  0  0
   -0.9309   -2.5946   -1.0179 H   0  0  0  0  0  0  0  0  0  0  0  0
   -0.8720   -1.7238   -2.9526 H   0  0  0  0  0  0  0  0  0  0  0  0
   -0.7853   -1.3324    0.9427 H   0  0  0  0  0  0  0  0  0  0  0  0
   -1.5583    0.8824   -1.0390 H   0  0  0  0  0  0  0  0  0  0  0  0
   -0.5749    1.5223    1.7964 H   0  0  0  0  0  0  0  0  0  0  0  0
   -1.1529    2.6083    0.4954 H   0  0  0  0  0  0  0  0  0  0  0  0
    0.6777    1.9275   -0.9222 H   0  0  0  0  0  0  0  0  0  0  0  0
    1.1952    2.6074    0.6302 H   0  0  0  0  0  0  0  0  0  0  0  0
    0.6016   -0.1537   -1.5119 H   0  0  0  0  0  0  0  0  0  0  0  0
    1.2727   -2.5213   -1.1419 H   0  0  0  0  0  0  0  0  0  0  0  0
    1.5144   -2.1984    0.5910 H   0  0  0  0  0  0  0  0  0  0  0  0
    3.5862   -1.6754   -0.0897 H   0  0  0  0  0  0  0  0  0  0  0  0
    3.0314   -1.2929   -1.8275 H   0  0  0  0  0  0  0  0  0  0  0  0
    2.5685    0.9352   -1.3851 H   0  0  0  0  0  0  0  0  0  0  0  0
    2.5022   -0.6372    1.9474 H   0  0  0  0  0  0  0  0  0  0  0  0
    1.6607    0.8333    2.4661 H   0  0  0  0  0  0  0  0  0  0  0  0
    0.7416   -0.6470    2.1055 H   0  0  0  0  0  0  0  0  0  0  0  0
   -1.5848   -0.1459    2.3902 H   0  0  0  0  0  0  0  0  0  0  0  0
   -3.3234   -0.0942    2.7093 H   0  0  0  0  0  0  0  0  0  0  0  0
   -2.4655    1.4449    2.5515 H   0  0  0  0  0  0  0  0  0  0  0  0
    4.0925    0.3884    1.1962 H   0  0  0  0  0  0  0  0  0  0  0  0
    3.3582    2.9167   -0.2839 H   0  0  0  0  0  0  0  0  0  0  0  0
    4.8387    2.8056    0.6567 H   0  0  0  0  0  0  0  0  0  0  0  0
    3.3464    2.5766    1.5527 H   0  0  0  0  0  0  0  0  0  0  0  0
    5.0627    1.3683   -1.5792 H   0  0  0  0  0  0  0  0  0  0  0  0
    6.0135    1.4844   -0.1109 H   0  0  0  0  0  0  0  0  0  0  0  0
    6.7871   -0.1975   -1.4271 H   0  0  0  0  0  0  0  0  0  0  0  0
    5.3005   -1.0939   -1.6333 H   0  0  0  0  0  0  0  0  0  0  0  0
    5.5512   -1.4401    1.0830 H   0  0  0  0  0  0  0  0  0  0  0  0
   -3.5660    0.6305   -2.3256 H   0  0  0  0  0  0  0  0  0  0  0  0
   -2.8725   -0.1582   -3.7378 H   0  0  0  0  0  0  0  0  0  0  0  0
   -4.6119   -0.2224   -3.4597 H   0  0  0  0  0  0  0  0  0  0  0  0
   -2.9443   -2.2579   -2.8683 H   0  0  0  0  0  0  0  0  0  0  0  0
   -4.5716   -2.0926   -2.2147 H   0  0  0  0  0  0  0  0  0  0  0  0
    7.8035   -2.4064   -0.2517 H   0  0  0  0  0  0  0  0  0  0  0  0
    7.1186    0.3640    1.1939 H   0  0  0  0  0  0  0  0  0  0  0  0
  1  2  1  0
  2  3  1  0
  3  4  1  0
  3  5  1  0
  5  6  1  0
  6  7  1  0
  7  8  1  0
  8  9  1  0
  8 10  1  0
 10 11  1  0
  1 12  1  0
  6 12  1  0
 11 12  1  0
 11 13  1  0
 13 14  1  0
 14 15  1  0
 10 16  1  0
 15 16  1  0
 16 17  1  0
 17 18  1  0
 15 19  1  0
 18 19  1  0
 15 20  1  1
 12 21  1  1
 19 22  1  0
 22 23  1  0
 22 24  1  0
 24 25  1  0
 25 26  1  0
  7 28  1  0
 27 28  1  0
 26 29  1  0
 26 30  1  0
  1 31  1  0
  1 32  1  0
  2 33  1  0
  2 34  1  0
  3 35  1  1
  4 36  1  0
  5 37  1  0
  5 38  1  0
  6 39  1  1
  7 40  1  1
  8 41  1  6
  9 42  1  0
 10 43  1  1
 11 44  1  6
 13 45  1  0
 13 46  1  0
 14 47  1  0
 14 48  1  0
 16 49  1  6
 17 50  1  0
 17 51  1  0
 18 52  1  0
 18 53  1  0
 19 54  1  6
 20 55  1  0
 20 56  1  0
 20 57  1  0
 21 58  1  0
 21 59  1  0
 21 60  1  0
 22 61  1  1
 23 62  1  0
 23 63  1  0
 23 64  1  0
 24 65  1  0
 24 66  1  0
 25 67  1  0
 25 68  1  0
 26 69  1  0
 27 70  1  0
 27 71  1  0
 27 72  1  0
 28 73  1  0
 28 74  1  0
 29 75  1  0
 30 76  1  0
M  END
>  <PDBID>  (1) 
1OT7

>  <PDB ID>  (1) 
1OT7

>  <Generic Name>  (1) 
Obeticholic acid

>  <Brand Name>  (1) 
Ocaliva

>  <DrugBank ID>  (1) 
DB05990

>  <ATC Codes>  (1) 
A05AA04

>  <Ligand ID>  (1) 
CHC

>  <Target Name>  (1) 
Bile acid receptor

>  <UniProt ID>  (1) 
Q96RI1

>  <PDB ID.1>  (1) 
1OT7

>  <Seq. Identity>  (1) 
95%

$$$$
