PDB_DB01128_00
     RDKit          3D

 63 64  0  0  0  0  0  0  0  0999 V2000
    4.9021    0.2239    0.9388 C   0  0  0  0  0  0  0  0  0  0  0  0
    6.3055    0.5382    0.4600 C   0  0  0  0  0  0  0  0  0  0  0  0
    6.2543    1.5222   -0.6411 C   0  0  0  0  0  0  0  0  0  0  0  0
    7.4273    1.3759   -1.4193 F   0  0  0  0  0  0  0  0  0  0  0  0
    5.0459    1.6209   -1.4738 C   0  0  0  0  0  0  0  0  0  0  0  0
    3.9804    0.6135   -1.3391 C   0  0  0  0  0  0  0  0  0  0  0  0
    4.2112   -0.3957   -0.2571 C   0  0  0  0  0  0  0  0  0  0  0  0
    2.8395   -1.3684    0.1381 S   0  0  0  0  0  0  0  0  0  0  0  0
    3.3637   -2.4899    1.2520 O   0  0  0  0  0  0  0  0  0  0  0  0
    2.4136   -2.1333   -1.1601 O   0  0  0  0  0  0  0  0  0  0  0  0
    1.6530   -0.4634    0.8738 C   0  0  0  0  0  0  0  0  0  0  0  0
    0.3941   -1.2577    1.3382 C   0  0  1  0  0  0  0  0  0  0  0  0
    1.0069   -2.2428    2.2152 O   0  0  0  0  0  0  0  0  0  0  0  0
   -0.3232   -0.3477    2.2789 C   0  0  0  0  0  0  0  0  0  0  0  0
   -0.3069   -1.8801    0.2524 C   0  0  1  0  0  0  0  0  0  0  0  0
   -1.0983   -3.0132    0.7535 O   0  0  0  0  0  0  0  0  0  0  0  0
   -1.0635   -1.1725   -0.6629 N   0  0  0  0  0  0  0  0  0  0  0  0
   -2.3129   -0.6348   -0.5125 C   0  0  2  0  0  0  0  0  0  0  0  0
   -2.6451    0.5240   -1.4266 C   0  0  0  0  0  0  0  0  0  0  0  0
   -3.0090   -0.5376    0.8027 C   0  0  0  0  0  0  0  0  0  0  0  0
   -4.5583   -0.5153    0.4609 C   0  0  0  0  0  0  0  0  0  0  0  0
   -4.7736    0.9037   -0.0499 C   0  0  0  0  0  0  0  0  0  0  0  0
   -6.2085    1.1157   -0.3884 C   0  0  0  0  0  0  0  0  0  0  0  0
   -6.7506    0.2578   -1.3933 N   0  0  0  0  0  0  0  0  0  0  0  0
   -3.7836    1.3835   -1.0363 C   0  0  0  0  0  0  0  0  0  0  0  0
   -3.3043    2.8173   -0.6828 C   0  0  0  0  0  0  0  0  0  0  0  0
   -2.4223    2.8387    0.3408 F   0  0  0  0  0  0  0  0  0  0  0  0
   -4.4550    3.4783   -0.2576 F   0  0  0  0  0  0  0  0  0  0  0  0
   -2.8610    3.4071   -1.8451 F   0  0  0  0  0  0  0  0  0  0  0  0
    4.4311    1.2014    1.1747 H   0  0  0  0  0  0  0  0  0  0  0  0
    4.9022   -0.4982    1.7744 H   0  0  0  0  0  0  0  0  0  0  0  0
    6.7683   -0.4186    0.0643 H   0  0  0  0  0  0  0  0  0  0  0  0
    6.9376    0.9169    1.3056 H   0  0  0  0  0  0  0  0  0  0  0  0
    6.4007    2.5416   -0.1550 H   0  0  0  0  0  0  0  0  0  0  0  0
    5.3825    1.5938   -2.5602 H   0  0  0  0  0  0  0  0  0  0  0  0
    4.5779    2.6577   -1.4171 H   0  0  0  0  0  0  0  0  0  0  0  0
    3.7510    0.1017   -2.3238 H   0  0  0  0  0  0  0  0  0  0  0  0
    3.0133    1.1215   -1.0832 H   0  0  0  0  0  0  0  0  0  0  0  0
    4.9802   -1.1226   -0.6738 H   0  0  0  0  0  0  0  0  0  0  0  0
    3.3918   -3.4075    0.8771 H   0  0  0  0  0  0  0  0  0  0  0  0
    2.4482   -1.6460   -2.0025 H   0  0  0  0  0  0  0  0  0  0  0  0
    1.2409    0.3306    0.1890 H   0  0  0  0  0  0  0  0  0  0  0  0
    1.9874    0.0871    1.7721 H   0  0  0  0  0  0  0  0  0  0  0  0
    1.1500   -3.0744    1.6889 H   0  0  0  0  0  0  0  0  0  0  0  0
    0.4971   -0.0156    3.0384 H   0  0  0  0  0  0  0  0  0  0  0  0
   -1.1043   -0.8372    2.8545 H   0  0  0  0  0  0  0  0  0  0  0  0
   -0.6312    0.6114    1.8602 H   0  0  0  0  0  0  0  0  0  0  0  0
    0.4665   -2.5227   -0.3427 H   0  0  0  0  0  0  0  0  0  0  0  0
   -0.8585   -3.2028    1.6709 H   0  0  0  0  0  0  0  0  0  0  0  0
   -0.7154   -1.2662   -1.6347 H   0  0  0  0  0  0  0  0  0  0  0  0
   -3.0116   -1.4878   -1.0382 H   0  0  0  0  0  0  0  0  0  0  0  0
   -2.8669    0.1020   -2.4634 H   0  0  0  0  0  0  0  0  0  0  0  0
   -1.7344    1.1681   -1.5594 H   0  0  0  0  0  0  0  0  0  0  0  0
   -2.8962   -1.3862    1.4578 H   0  0  0  0  0  0  0  0  0  0  0  0
   -2.8360    0.4048    1.3571 H   0  0  0  0  0  0  0  0  0  0  0  0
   -4.6696   -1.2909   -0.2956 H   0  0  0  0  0  0  0  0  0  0  0  0
   -5.0438   -0.6343    1.4070 H   0  0  0  0  0  0  0  0  0  0  0  0
   -4.5867    1.5329    0.8906 H   0  0  0  0  0  0  0  0  0  0  0  0
   -6.8765    1.0446    0.5094 H   0  0  0  0  0  0  0  0  0  0  0  0
   -6.2929    2.1767   -0.7502 H   0  0  0  0  0  0  0  0  0  0  0  0
   -6.0832   -0.3484   -1.8756 H   0  0  0  0  0  0  0  0  0  0  0  0
   -7.6560   -0.1854   -1.1128 H   0  0  0  0  0  0  0  0  0  0  0  0
   -4.3849    1.5838   -1.9939 H   0  0  0  0  0  0  0  0  0  0  0  0
  1  2  1  0
  2  3  1  0
  3  4  1  0
  3  5  1  0
  5  6  1  0
  1  7  1  0
  6  7  1  0
  7  8  1  0
  8  9  1  0
  8 10  1  0
  8 11  1  0
 11 12  1  0
 12 13  1  1
 12 14  1  0
 12 15  1  0
 15 16  1  0
 15 17  1  0
 17 18  1  0
 18 19  1  0
 18 20  1  0
 20 21  1  0
 21 22  1  0
 22 23  1  0
 23 24  1  0
 19 25  1  0
 22 25  1  0
 25 26  1  0
 26 27  1  0
 26 28  1  0
 26 29  1  0
  1 30  1  0
  1 31  1  0
  2 32  1  0
  2 33  1  0
  3 34  1  0
  5 35  1  0
  5 36  1  0
  6 37  1  0
  6 38  1  0
  7 39  1  0
  9 40  1  0
 10 41  1  0
 11 42  1  0
 11 43  1  0
 13 44  1  0
 14 45  1  0
 14 46  1  0
 14 47  1  0
 15 48  1  6
 16 49  1  0
 17 50  1  0
 18 51  1  6
 19 52  1  0
 19 53  1  0
 20 54  1  0
 20 55  1  0
 21 56  1  0
 21 57  1  0
 22 58  1  0
 23 59  1  0
 23 60  1  0
 24 61  1  0
 24 62  1  0
 25 63  1  0
M  END
>  <PDBID>  (1) 
1Z95

>  <PDB ID>  (1) 
1Z95

>  <Generic Name>  (1) 
Bicalutamide

>  <Brand Name>  (1) 
Accel-bicalutamide Tablets USP#Ach-bicalutamide#Act Bicalutamide#Ag-bicalutamide#Apo-bicalutamide#Ava-bicalutamide#Bicalutamide#Bicalutamide Tablets#Casodex#Dom-bicalutamide#Jamp-bicalutamide#Med-bicalutamide#Mylan-bicalutamide#Ntp-bicalutamide#Nu-bicalutamide#PHL-bicalutamide#PMS-bicalutamide#Pro-bicalutamide - 50#Ran-bicalutamide#Ratio-bicalutamide#Sandoz Bicalutamide#Teva-bicalutamide#Van-bicalutamide

>  <DrugBank ID>  (1) 
DB01128

>  <ATC Codes>  (1) 
L02BB03

>  <Ligand ID>  (1) 
0U9,198

>  <Target Name>  (1) 
Androgen receptor

>  <UniProt ID>  (1) 
P10275

>  <PDB ID.1>  (1) 
1Z95

>  <Seq. Identity>  (1) 
100%

$$$$
