PDB_DB00273_04
     RDKit          3D

 45 47  0  0  0  0  0  0  0  0999 V2000
   -0.7332    2.7219   -1.6855 C   0  0  0  0  0  0  0  0  0  0  0  0
    0.1940    2.2933   -0.5747 C   0  0  0  0  0  0  0  0  0  0  0  0
    1.0460    3.5063   -0.2007 C   0  0  0  0  0  0  0  0  0  0  0  0
    0.9600    1.2178   -0.9078 O   0  0  0  0  0  0  0  0  0  0  0  0
   -0.5451    1.9435    0.5471 O   0  0  0  0  0  0  0  0  0  0  0  0
   -0.4311    0.5560    0.6818 C   0  0  1  0  0  0  0  0  0  0  0  0
   -1.3203   -0.0898   -0.3815 C   0  0  2  0  0  0  0  0  0  0  0  0
   -2.6465    0.2020   -0.1926 O   0  0  0  0  0  0  0  0  0  0  0  0
   -3.2325   -1.0626    0.0018 C   0  0  0  0  0  0  0  0  0  0  0  0
   -4.4702   -0.8539    0.8196 C   0  0  0  0  0  0  0  0  0  0  0  0
   -3.4977   -1.6395   -1.3605 C   0  0  0  0  0  0  0  0  0  0  0  0
   -2.2624   -1.8257    0.6743 O   0  0  0  0  0  0  0  0  0  0  0  0
   -1.1663   -1.5978   -0.1756 C   0  0  2  0  0  0  0  0  0  0  0  0
    0.1525   -1.8148    0.4883 C   0  0  0  0  0  0  0  0  0  0  0  0
    1.0865   -0.9956   -0.1620 O   0  0  0  0  0  0  0  0  0  0  0  0
    0.9829    0.3264    0.1644 C   0  0  1  0  0  0  0  0  0  0  0  0
    2.0476    0.7773    1.1674 C   0  0  0  0  0  0  0  0  0  0  0  0
    2.8311   -0.2869    1.4880 O   0  0  0  0  0  0  0  0  0  0  0  0
    3.7118   -1.0952    0.8169 S   0  0  0  0  0  0  0  0  0  0  0  0
    5.4804   -0.6306    0.9155 O   0  0  0  0  0  0  0  0  0  0  0  0
    3.8170   -2.6997    1.4368 O   0  0  0  0  0  0  0  0  0  0  0  0
    3.6472   -1.3703   -0.8336 N   0  0  0  0  0  0  0  0  0  0  0  0
   -0.5934    2.1428   -2.6254 H   0  0  0  0  0  0  0  0  0  0  0  0
   -0.5821    3.7864   -1.9679 H   0  0  0  0  0  0  0  0  0  0  0  0
   -1.7875    2.6400   -1.3452 H   0  0  0  0  0  0  0  0  0  0  0  0
    2.0090    3.4287   -0.7341 H   0  0  0  0  0  0  0  0  0  0  0  0
    1.1274    3.5857    0.8864 H   0  0  0  0  0  0  0  0  0  0  0  0
    0.5603    4.4348   -0.5679 H   0  0  0  0  0  0  0  0  0  0  0  0
   -0.6265    0.1934    1.6777 H   0  0  0  0  0  0  0  0  0  0  0  0
   -0.9328    0.1202   -1.3825 H   0  0  0  0  0  0  0  0  0  0  0  0
   -4.9758   -1.7813    1.1205 H   0  0  0  0  0  0  0  0  0  0  0  0
   -4.2130   -0.1892    1.6710 H   0  0  0  0  0  0  0  0  0  0  0  0
   -5.1812   -0.2863    0.1857 H   0  0  0  0  0  0  0  0  0  0  0  0
   -3.2727   -2.7224   -1.3133 H   0  0  0  0  0  0  0  0  0  0  0  0
   -2.7782   -1.2070   -2.0872 H   0  0  0  0  0  0  0  0  0  0  0  0
   -4.5053   -1.4092   -1.7433 H   0  0  0  0  0  0  0  0  0  0  0  0
   -1.2295   -2.1638   -1.1129 H   0  0  0  0  0  0  0  0  0  0  0  0
    0.1514   -1.6878    1.5786 H   0  0  0  0  0  0  0  0  0  0  0  0
    0.4708   -2.8618    0.2667 H   0  0  0  0  0  0  0  0  0  0  0  0
    2.6167    1.6090    0.7512 H   0  0  0  0  0  0  0  0  0  0  0  0
    1.5325    1.1840    2.1012 H   0  0  0  0  0  0  0  0  0  0  0  0
    5.6096   -0.5089    1.8659 H   0  0  0  0  0  0  0  0  0  0  0  0
    3.1246   -3.2376    1.0140 H   0  0  0  0  0  0  0  0  0  0  0  0
    3.5821   -0.5329   -1.4158 H   0  0  0  0  0  0  0  0  0  0  0  0
    4.2415   -2.1187   -1.1768 H   0  0  0  0  0  0  0  0  0  0  0  0
  2  1  1  0
  2  3  1  0
  2  4  1  0
  2  5  1  0
  5  6  1  0
  6  7  1  0
  7  8  1  0
  8  9  1  0
  9 10  1  0
  9 11  1  0
  9 12  1  0
  7 13  1  0
 12 13  1  0
 13 14  1  0
 14 15  1  0
  4 16  1  0
  6 16  1  0
 15 16  1  0
 16 17  1  1
 17 18  1  0
 19 18  1  0
 19 20  1  0
 19 21  1  0
 19 22  1  0
  1 23  1  0
  1 24  1  0
  1 25  1  0
  3 26  1  0
  3 27  1  0
  3 28  1  0
  6 29  1  1
  7 30  1  6
 10 31  1  0
 10 32  1  0
 10 33  1  0
 11 34  1  0
 11 35  1  0
 11 36  1  0
 13 37  1  6
 14 38  1  0
 14 39  1  0
 17 40  1  0
 17 41  1  0
 20 42  1  0
 21 43  1  0
 22 44  1  0
 22 45  1  0
M  END
>  <PDBID>  (1) 
3HKU

>  <PDB ID>  (1) 
3HKU

>  <Generic Name>  (1) 
Topiramate

>  <Brand Name>  (1) 
Abbott-topiramate#Accel-topiramate#Act Topiramate#Apo-topiramate#Auro-topiramate#Ava-topiramate#Dom-topiramate#Gd-topiramate#Ipg-topiramate#Jamp-topiramate#Mar-topiramate#Mint-topiramate#Mylan-topiramate#Nu-topiramate#PHL-topiramate#PMS-topiramate#Pro-topiramate#Q-topiramate#Qsymia#Qudexy XR#Ran-topiramate#Ratio-topiramate#Sandoz Topiramate#Sandoz Topiramate Tablets#Teva-topiramate#Topamax#Topamax 100mg#Topamax 200mg#Topamax 25mg#Topiramate#Topiramate Tablets#Topiramate Tablets USP#Trokendi XR#Van-topiramate#Zym-topiramate

>  <DrugBank ID>  (1) 
DB00273

>  <ATC Codes>  (1) 
N03AX11

>  <Ligand ID>  (1) 
TOR

>  <Target Name>  (1) 
Carbonic anhydrase 2

>  <UniProt ID>  (1) 
P00918

>  <PDB ID.1>  (1) 
3HKU

>  <Seq. Identity>  (1) 
100%

$$$$
