PDB_DB00218_06
     RDKit          3D

390414  0  0  0  0  0  0  0  0999 V2000
    1.3205    1.2463   -2.4049 F   0  0  0  0  0  0  0  0  0  0  0  0
    0.2543    1.3264    1.4793 O   0  0  0  0  0  0  0  0  0  0  0  0
   -3.2941    1.8099   -1.9326 O   0  0  0  0  0  0  0  0  0  0  0  0
   -5.8342    1.6077   -1.6375 O   0  0  0  0  0  0  0  0  0  0  0  0
   -4.8870    2.6332    0.2231 O   0  0  0  0  0  0  0  0  0  0  0  0
    2.0889   -0.1712   -0.3514 N   0  0  0  0  0  0  0  0  0  0  0  0
    4.5024    0.6512   -0.9522 N   0  0  0  0  0  0  0  0  0  0  0  0
   -2.4543   -0.2877    1.2290 N   0  0  0  0  0  0  0  0  0  0  0  0
    3.9845   -1.3919    0.3227 C   0  0  2  0  0  0  0  0  0  0  0  0
    4.1780   -0.7608   -1.0380 C   0  0  1  0  0  0  0  0  0  0  0  0
    2.4707   -1.2625    0.5702 C   0  0  0  0  0  0  0  0  0  0  0  0
    2.7217   -0.7799   -1.5484 C   0  0  0  0  0  0  0  0  0  0  0  0
    4.7579   -0.5626    1.3270 C   0  0  0  0  0  0  0  0  0  0  0  0
   -2.5295   -1.6303    1.5381 C   0  0  0  0  0  0  0  0  0  0  0  0
    6.0580   -0.0380    0.7694 C   0  0  0  0  0  0  0  0  0  0  0  0
   -3.0293   -2.6174    0.4810 C   0  0  0  0  0  0  0  0  0  0  0  0
   -1.6704   -2.7074    1.0110 C   0  0  0  0  0  0  0  0  0  0  0  0
    5.7640    0.9250   -0.3462 C   0  0  0  0  0  0  0  0  0  0  0  0
    0.7059   -0.0299   -0.5000 C   0  0  1  0  0  0  0  0  0  0  0  0
   -1.5680    0.3205    0.3516 C   0  0  1  0  0  0  0  0  0  0  0  0
   -0.1031    0.2313    0.7665 C   0  0  2  0  0  0  0  0  0  0  0  0
   -1.8519    0.0839   -1.0746 C   0  0  0  0  0  0  0  0  0  0  0  0
    0.4083    1.1649   -1.4286 C   0  0  0  0  0  0  0  0  0  0  0  0
   -3.7965    0.3311    1.1142 C   0  0  0  0  0  0  0  0  0  0  0  0
   -0.9771    0.9495   -1.9929 C   0  0  0  0  0  0  0  0  0  0  0  0
   -4.2606    0.3519   -0.2896 C   0  0  2  0  0  0  0  0  0  0  0  0
   -3.2701    0.5200   -1.3671 C   0  0  0  0  0  0  0  0  0  0  0  0
   -5.3157    1.4688   -0.3770 C   0  0  0  0  0  0  0  0  0  0  0  0
    0.5084    1.2307    2.8019 C   0  0  0  0  0  0  0  0  0  0  0  0
    1.0831    1.4392   -1.9776 F   0  0  0  0  0  0  0  0  0  0  0  0
    0.1477    1.0076    1.4053 O   0  0  0  0  0  0  0  0  0  0  0  0
   -2.9516    2.1681   -1.6736 O   0  0  0  0  0  0  0  0  0  0  0  0
   -5.8522    2.0329   -1.6695 O   0  0  0  0  0  0  0  0  0  0  0  0
   -4.8964    2.8633    0.2798 O   0  0  0  0  0  0  0  0  0  0  0  0
    2.0820   -0.1643   -0.2227 N   0  0  0  0  0  0  0  0  0  0  0  0
    4.8230    0.7175   -1.0863 N   0  0  0  0  0  0  0  0  0  0  0  0
   -2.6276   -0.3569    1.0537 N   0  0  0  0  0  0  0  0  0  0  0  0
    4.1588   -1.0300    0.5235 C   0  0  2  0  0  0  0  0  0  0  0  0
    4.2913   -0.6260   -0.9025 C   0  0  1  0  0  0  0  0  0  0  0  0
    2.6619   -0.9390    0.8275 C   0  0  0  0  0  0  0  0  0  0  0  0
    2.8405   -0.6490   -1.3769 C   0  0  0  0  0  0  0  0  0  0  0  0
    4.9254   -0.0635    1.4063 C   0  0  0  0  0  0  0  0  0  0  0  0
   -2.8057   -1.6308    1.5028 C   0  0  0  0  0  0  0  0  0  0  0  0
    6.2477    0.2766    0.8050 C   0  0  0  0  0  0  0  0  0  0  0  0
   -3.3107   -2.7451    0.5983 C   0  0  0  0  0  0  0  0  0  0  0  0
   -1.9898   -2.8275    1.2358 C   0  0  0  0  0  0  0  0  0  0  0  0
    6.1908    0.7106   -0.6262 C   0  0  0  0  0  0  0  0  0  0  0  0
    0.6898   -0.4116   -0.5008 C   0  0  1  0  0  0  0  0  0  0  0  0
   -1.6666    0.1483    0.1782 C   0  0  0  0  0  0  0  0  0  0  0  0
   -0.2268   -0.0633    0.5875 C   0  0  2  0  0  0  0  0  0  0  0  0
   -2.0432   -0.0152   -1.2159 C   0  0  2  0  0  0  0  0  0  0  0  0
    0.4053    0.2190   -1.8343 C   0  0  0  0  0  0  0  0  0  0  0  0
   -3.8747    0.4243    0.9719 C   0  0  0  0  0  0  0  0  0  0  0  0
   -0.9968    0.3905   -2.2239 C   0  0  0  0  0  0  0  0  0  0  0  0
   -4.3220    0.6309   -0.4238 C   0  0  2  0  0  0  0  0  0  0  0  0
   -3.2969    0.8405   -1.4626 C   0  0  0  0  0  0  0  0  0  0  0  0
   -5.3582    1.7471   -0.3994 C   0  0  0  0  0  0  0  0  0  0  0  0
    0.1545    0.8107    2.7279 C   0  0  0  0  0  0  0  0  0  0  0  0
    0.5393   -1.4856    2.4225 F   0  0  0  0  0  0  0  0  0  0  0  0
    0.0830    0.2329   -2.0033 O   0  0  0  0  0  0  0  0  0  0  0  0
   -3.4833    0.6841    2.5876 O   0  0  0  0  0  0  0  0  0  0  0  0
   -6.4413    0.9334   -0.2547 O   0  0  0  0  0  0  0  0  0  0  0  0
   -5.8572    2.1496    1.6076 O   0  0  0  0  0  0  0  0  0  0  0  0
    2.0365   -0.2987    0.1251 N   0  0  0  0  0  0  0  0  0  0  0  0
    4.3075    0.6872   -0.7251 N   0  0  0  0  0  0  0  0  0  0  0  0
   -2.4809   -0.4776   -0.6371 N   0  0  0  0  0  0  0  0  0  0  0  0
    4.1572   -1.1084    0.8366 C   0  0  2  0  0  0  0  0  0  0  0  0
    4.1417   -0.7421   -0.6300 C   0  0  1  0  0  0  0  0  0  0  0  0
    2.6976   -1.0094    1.2468 C   0  0  0  0  0  0  0  0  0  0  0  0
    2.6688   -1.0449   -0.9608 C   0  0  0  0  0  0  0  0  0  0  0  0
    5.0455   -0.2380    1.6635 C   0  0  0  0  0  0  0  0  0  0  0  0
   -2.1361   -1.7144   -1.1436 C   0  0  0  0  0  0  0  0  0  0  0  0
    6.1609    0.3900    0.8669 C   0  0  0  0  0  0  0  0  0  0  0  0
   -3.1679   -2.3508   -2.0981 C   0  0  0  0  0  0  0  0  0  0  0  0
   -1.7526   -2.0577   -2.5082 C   0  0  0  0  0  0  0  0  0  0  0  0
    5.6891    1.0162   -0.4042 C   0  0  0  0  0  0  0  0  0  0  0  0
    0.5905   -0.5742    0.2143 C   0  0  2  0  0  0  0  0  0  0  0  0
   -1.6013    0.5525   -0.3952 C   0  0  2  0  0  0  0  0  0  0  0  0
   -0.1339    0.3830   -0.6545 C   0  0  0  0  0  0  0  0  0  0  0  0
   -1.7298    1.0447    1.0410 C   0  0  2  0  0  0  0  0  0  0  0  0
    0.2569   -0.3413    1.6718 C   0  0  0  0  0  0  0  0  0  0  0  0
   -3.8486   -0.2223   -0.3308 C   0  0  0  0  0  0  0  0  0  0  0  0
   -1.1667   -0.0169    1.9318 C   0  0  0  0  0  0  0  0  0  0  0  0
   -4.1047    1.0771    0.3281 C   0  0  0  0  0  0  0  0  0  0  0  0
   -3.1414    1.3435    1.4201 C   0  0  0  0  0  0  0  0  0  0  0  0
   -5.5609    1.0678    0.8198 C   0  0  0  0  0  0  0  0  0  0  0  0
    0.6776    1.3671   -2.5947 C   0  0  0  0  0  0  0  0  0  0  0  0
    0.8475   -0.6869   -2.7974 F   0  0  0  0  0  0  0  0  0  0  0  0
    0.1554    1.5453    0.9974 O   0  0  0  0  0  0  0  0  0  0  0  0
   -3.7598    2.3822   -1.6168 O   0  0  0  0  0  0  0  0  0  0  0  0
   -6.0380    1.9023   -1.3818 O   0  0  0  0  0  0  0  0  0  0  0  0
   -5.0324    2.1479    0.6566 O   0  0  0  0  0  0  0  0  0  0  0  0
    1.9850   -0.1650   -0.1958 N   0  0  0  0  0  0  0  0  0  0  0  0
    4.8544    0.6567   -1.0800 N   0  0  0  0  0  0  0  0  0  0  0  0
   -2.5198   -0.7738    0.3677 N   0  0  0  0  0  0  0  0  0  0  0  0
    4.0565   -0.9646    0.5821 C   0  0  2  0  0  0  0  0  0  0  0  0
    4.2131   -0.5979   -0.8518 C   0  0  1  0  0  0  0  0  0  0  0  0
    2.5466   -0.8803    0.8889 C   0  0  0  0  0  0  0  0  0  0  0  0
    2.7576   -0.5649   -1.3325 C   0  0  0  0  0  0  0  0  0  0  0  0
    4.8154    0.0509    1.4228 C   0  0  0  0  0  0  0  0  0  0  0  0
   -2.0973   -1.7272    1.3392 C   0  0  0  0  0  0  0  0  0  0  0  0
    6.2055    0.1634    0.8651 C   0  0  0  0  0  0  0  0  0  0  0  0
   -2.9627   -2.9825    1.3881 C   0  0  0  0  0  0  0  0  0  0  0  0
   -1.6285   -3.0641    0.7332 C   0  0  0  0  0  0  0  0  0  0  0  0
    6.2059    0.5891   -0.5812 C   0  0  0  0  0  0  0  0  0  0  0  0
    0.5903   -0.2877   -0.4283 C   0  0  1  0  0  0  0  0  0  0  0  0
   -1.7411    0.4060    0.2232 C   0  0  1  0  0  0  0  0  0  0  0  0
   -0.2952    0.2731    0.6073 C   0  0  2  0  0  0  0  0  0  0  0  0
   -1.9436    0.9083   -1.1792 C   0  0  0  0  0  0  0  0  0  0  0  0
    0.2564    0.1418   -1.8343 C   0  0  2  0  0  0  0  0  0  0  0  0
   -3.8910   -0.3530    0.5265 C   0  0  0  0  0  0  0  0  0  0  0  0
   -1.2449   -0.0534   -2.1080 C   0  0  0  0  0  0  0  0  0  0  0  0
   -4.3550    0.2974   -0.7227 C   0  0  2  0  0  0  0  0  0  0  0  0
   -3.3846    1.0239   -1.5505 C   0  0  0  0  0  0  0  0  0  0  0  0
   -5.5109    1.2265   -0.3000 C   0  0  0  0  0  0  0  0  0  0  0  0
    0.3215    1.7448    2.3241 C   0  0  0  0  0  0  0  0  0  0  0  0
    1.0083    1.8115   -1.7993 F   0  0  0  0  0  0  0  0  0  0  0  0
    0.2199    1.3857    1.2039 O   0  0  0  0  0  0  0  0  0  0  0  0
   -3.3806    1.8033   -1.7084 O   0  0  0  0  0  0  0  0  0  0  0  0
   -6.0860    1.3235   -1.4599 O   0  0  0  0  0  0  0  0  0  0  0  0
   -5.1004    2.4538    0.2902 O   0  0  0  0  0  0  0  0  0  0  0  0
    2.0438   -0.2163   -0.3244 N   0  0  0  0  0  0  0  0  0  0  0  0
    4.8997    0.4848   -1.3602 N   0  0  0  0  0  0  0  0  0  0  0  0
   -2.4985   -0.4105    1.2586 N   0  0  0  0  0  0  0  0  0  0  0  0
    4.0698   -1.0023    0.4131 C   0  0  2  0  0  0  0  0  0  0  0  0
    4.1917   -0.7355   -1.0765 C   0  0  1  0  0  0  0  0  0  0  0  0
    2.5721   -1.1551    0.5988 C   0  0  0  0  0  0  0  0  0  0  0  0
    2.7527   -0.5333   -1.5363 C   0  0  0  0  0  0  0  0  0  0  0  0
    4.5943    0.2183    1.1352 C   0  0  0  0  0  0  0  0  0  0  0  0
   -2.5091   -1.6994    1.7157 C   0  0  0  0  0  0  0  0  0  0  0  0
    6.0460    0.3844    0.7416 C   0  0  0  0  0  0  0  0  0  0  0  0
   -2.8774   -2.8454    0.7753 C   0  0  0  0  0  0  0  0  0  0  0  0
   -1.5580   -2.7849    1.4261 C   0  0  0  0  0  0  0  0  0  0  0  0
    6.2015    0.5179   -0.7603 C   0  0  0  0  0  0  0  0  0  0  0  0
    0.6441   -0.2083   -0.5452 C   0  0  1  0  0  0  0  0  0  0  0  0
   -1.6469    0.1996    0.3550 C   0  0  0  0  0  0  0  0  0  0  0  0
   -0.1754    0.1938    0.6587 C   0  0  0  0  0  0  0  0  0  0  0  0
   -2.0040   -0.0385   -1.0600 C   0  0  2  0  0  0  0  0  0  0  0  0
    0.3346    0.6041   -1.7697 C   0  0  0  0  0  0  0  0  0  0  0  0
   -3.8488    0.1913    1.1911 C   0  0  0  0  0  0  0  0  0  0  0  0
   -1.1341    0.7765   -2.0202 C   0  0  0  0  0  0  0  0  0  0  0  0
   -4.3660    0.2056   -0.1993 C   0  0  2  0  0  0  0  0  0  0  0  0
   -3.4054    0.4687   -1.2885 C   0  0  0  0  0  0  0  0  0  0  0  0
   -5.5077    1.2116   -0.2227 C   0  0  0  0  0  0  0  0  0  0  0  0
    0.6626    1.4514    2.4648 C   0  0  0  0  0  0  0  0  0  0  0  0
    0.7264   -0.6439   -2.8412 F   0  0  0  0  0  0  0  0  0  0  0  0
    0.0865   -0.7045    1.7387 O   0  0  0  0  0  0  0  0  0  0  0  0
   -3.3413    1.9309   -2.2598 O   0  0  0  0  0  0  0  0  0  0  0  0
   -5.7840    2.1177   -1.4399 O   0  0  0  0  0  0  0  0  0  0  0  0
   -5.2337    2.1447    0.7332 O   0  0  0  0  0  0  0  0  0  0  0  0
    2.1122    0.0951   -0.3034 N   0  0  0  0  0  0  0  0  0  0  0  0
    4.7265    1.0422   -1.0954 N   0  0  0  0  0  0  0  0  0  0  0  0
   -2.6152   -0.4866    1.0235 N   0  0  0  0  0  0  0  0  0  0  0  0
    4.2033   -0.8755    0.3386 C   0  0  2  0  0  0  0  0  0  0  0  0
    4.3065   -0.3438   -1.0630 C   0  0  1  0  0  0  0  0  0  0  0  0
    2.7653   -0.6011    0.7675 C   0  0  0  0  0  0  0  0  0  0  0  0
    2.8498   -0.3792   -1.4918 C   0  0  0  0  0  0  0  0  0  0  0  0
    5.1990   -0.1594    1.2189 C   0  0  0  0  0  0  0  0  0  0  0  0
   -2.4640   -1.7995    1.6508 C   0  0  0  0  0  0  0  0  0  0  0  0
    6.4165    0.3110    0.4967 C   0  0  0  0  0  0  0  0  0  0  0  0
   -3.6427   -2.7005    1.8799 C   0  0  0  0  0  0  0  0  0  0  0  0
   -2.6860   -3.0250    0.8300 C   0  0  0  0  0  0  0  0  0  0  0  0
    6.0634    1.2495   -0.6248 C   0  0  0  0  0  0  0  0  0  0  0  0
    0.7443   -0.3092   -0.5449 C   0  0  0  0  0  0  0  0  0  0  0  0
   -1.6042   -0.3014    0.0356 C   0  0  2  0  0  0  0  0  0  0  0  0
   -0.2078   -0.0731    0.5873 C   0  0  1  0  0  0  0  0  0  0  0  0
   -1.7917    0.9382   -0.8123 C   0  0  0  0  0  0  0  0  0  0  0  0
    0.3532    0.2730   -1.8471 C   0  0  0  0  0  0  0  0  0  0  0  0
   -3.9292   -0.4540    0.4927 C   0  0  0  0  0  0  0  0  0  0  0  0
   -1.0666    0.6005   -2.1110 C   0  0  0  0  0  0  0  0  0  0  0  0
   -4.2501    0.4542   -0.6363 C   0  0  0  0  0  0  0  0  0  0  0  0
   -3.1569    1.4301   -0.9702 C   0  0  2  0  0  0  0  0  0  0  0  0
   -5.5112    1.2807   -0.3564 C   0  0  0  0  0  0  0  0  0  0  0  0
    0.2759    0.1291    2.8408 C   0  0  0  0  0  0  0  0  0  0  0  0
   -3.1400    2.5233   -1.2989 H   0  0  0  0  0  0  0  0  0  0  0  0
   -5.5583    0.9232   -2.2724 H   0  0  0  0  0  0  0  0  0  0  0  0
   -5.4868    3.3623   -0.0706 H   0  0  0  0  0  0  0  0  0  0  0  0
    4.3534    1.0901   -1.8690 H   0  0  0  0  0  0  0  0  0  0  0  0
    4.3319   -2.4203    0.3923 H   0  0  0  0  0  0  0  0  0  0  0  0
    4.8421   -1.3250   -1.6880 H   0  0  0  0  0  0  0  0  0  0  0  0
    2.3958   -0.9751    1.6188 H   0  0  0  0  0  0  0  0  0  0  0  0
    2.0286   -2.2215    0.2802 H   0  0  0  0  0  0  0  0  0  0  0  0
    2.6092   -0.2827   -2.4712 H   0  0  0  0  0  0  0  0  0  0  0  0
    2.4209   -1.8522   -1.5318 H   0  0  0  0  0  0  0  0  0  0  0  0
    4.9758   -1.0967    2.2691 H   0  0  0  0  0  0  0  0  0  0  0  0
    4.1048    0.3016    1.5745 H   0  0  0  0  0  0  0  0  0  0  0  0
   -2.9615   -1.8246    2.5719 H   0  0  0  0  0  0  0  0  0  0  0  0
    6.6904   -0.8468    0.3624 H   0  0  0  0  0  0  0  0  0  0  0  0
    6.5544    0.5345    1.5700 H   0  0  0  0  0  0  0  0  0  0  0  0
   -3.1838   -2.3352   -0.5464 H   0  0  0  0  0  0  0  0  0  0  0  0
   -3.8042   -3.3615    0.8319 H   0  0  0  0  0  0  0  0  0  0  0  0
   -0.7814   -2.5616    0.3696 H   0  0  0  0  0  0  0  0  0  0  0  0
   -1.4860   -3.5808    1.7061 H   0  0  0  0  0  0  0  0  0  0  0  0
    5.7177    1.9836    0.0405 H   0  0  0  0  0  0  0  0  0  0  0  0
    6.5731    0.9243   -1.1062 H   0  0  0  0  0  0  0  0  0  0  0  0
    0.2660   -0.8979   -1.0131 H   0  0  0  0  0  0  0  0  0  0  0  0
   -1.7754    1.4573    0.4689 H   0  0  0  0  0  0  0  0  0  0  0  0
   -0.0423   -0.6419    1.4103 H   0  0  0  0  0  0  0  0  0  0  0  0
   -1.7162   -0.9316   -1.4431 H   0  0  0  0  0  0  0  0  0  0  0  0
    0.4628    2.1126   -0.8390 H   0  0  0  0  0  0  0  0  0  0  0  0
   -3.6978    1.3369    1.5502 H   0  0  0  0  0  0  0  0  0  0  0  0
   -4.4557   -0.2621    1.7690 H   0  0  0  0  0  0  0  0  0  0  0  0
   -1.4063    1.9522   -2.1664 H   0  0  0  0  0  0  0  0  0  0  0  0
   -0.8695    0.4653   -2.9842 H   0  0  0  0  0  0  0  0  0  0  0  0
   -4.8704   -0.5876   -0.4562 H   0  0  0  0  0  0  0  0  0  0  0  0
   -3.6098   -0.1301   -2.2355 H   0  0  0  0  0  0  0  0  0  0  0  0
   -6.1686    1.0995    0.2685 H   0  0  0  0  0  0  0  0  0  0  0  0
   -0.3881    0.8659    3.3947 H   0  0  0  0  0  0  0  0  0  0  0  0
    0.9322    2.1422    3.2666 H   0  0  0  0  0  0  0  0  0  0  0  0
    1.2614    0.4477    2.9860 H   0  0  0  0  0  0  0  0  0  0  0  0
   -2.7538    2.6580   -0.8487 H   0  0  0  0  0  0  0  0  0  0  0  0
   -5.2002    2.5622   -2.1802 H   0  0  0  0  0  0  0  0  0  0  0  0
   -5.1122    3.6832   -0.2386 H   0  0  0  0  0  0  0  0  0  0  0  0
    4.2138    1.3927   -0.6120 H   0  0  0  0  0  0  0  0  0  0  0  0
    4.4808   -2.0478    0.7597 H   0  0  0  0  0  0  0  0  0  0  0  0
    4.8664   -1.3463   -1.4851 H   0  0  0  0  0  0  0  0  0  0  0  0
    2.2343   -1.9710    0.8567 H   0  0  0  0  0  0  0  0  0  0  0  0
    2.6081   -0.5351    1.8328 H   0  0  0  0  0  0  0  0  0  0  0  0
    2.7818   -0.0079   -2.2544 H   0  0  0  0  0  0  0  0  0  0  0  0
    2.5543   -1.7090   -1.5336 H   0  0  0  0  0  0  0  0  0  0  0  0
    5.1095   -0.4970    2.4097 H   0  0  0  0  0  0  0  0  0  0  0  0
    4.3411    0.8701    1.5614 H   0  0  0  0  0  0  0  0  0  0  0  0
   -3.2976   -1.6625    2.5374 H   0  0  0  0  0  0  0  0  0  0  0  0
    6.9334   -0.5822    0.9088 H   0  0  0  0  0  0  0  0  0  0  0  0
    6.7226    1.1158    1.3839 H   0  0  0  0  0  0  0  0  0  0  0  0
   -3.3522   -2.6847   -0.4755 H   0  0  0  0  0  0  0  0  0  0  0  0
   -4.0835   -3.4440    1.0474 H   0  0  0  0  0  0  0  0  0  0  0  0
   -1.1041   -2.8666    0.5518 H   0  0  0  0  0  0  0  0  0  0  0  0
   -1.8389   -3.5516    2.0623 H   0  0  0  0  0  0  0  0  0  0  0  0
    6.5958    1.7382   -0.7760 H   0  0  0  0  0  0  0  0  0  0  0  0
    6.7513    0.0280   -1.3015 H   0  0  0  0  0  0  0  0  0  0  0  0
    0.6761   -1.5386   -0.7151 H   0  0  0  0  0  0  0  0  0  0  0  0
   -1.7687    1.3100    0.3393 H   0  0  0  0  0  0  0  0  0  0  0  0
   -0.2889   -0.8844    1.3298 H   0  0  0  0  0  0  0  0  0  0  0  0
   -2.3487   -1.0327   -1.4843 H   0  0  0  0  0  0  0  0  0  0  0  0
    0.8864   -0.4374   -2.6175 H   0  0  0  0  0  0  0  0  0  0  0  0
   -3.6808    1.3923    1.4609 H   0  0  0  0  0  0  0  0  0  0  0  0
   -4.6218   -0.1191    1.5732 H   0  0  0  0  0  0  0  0  0  0  0  0
   -1.1920    1.4677   -2.4597 H   0  0  0  0  0  0  0  0  0  0  0  0
   -1.2310   -0.1195   -3.2036 H   0  0  0  0  0  0  0  0  0  0  0  0
   -4.9161   -0.2874   -0.7119 H   0  0  0  0  0  0  0  0  0  0  0  0
   -3.6980    0.4729   -2.4511 H   0  0  0  0  0  0  0  0  0  0  0  0
   -6.2222    1.3556    0.1853 H   0  0  0  0  0  0  0  0  0  0  0  0
    0.4902    1.7550    3.2240 H   0  0  0  0  0  0  0  0  0  0  0  0
    0.8192    0.0113    3.0745 H   0  0  0  0  0  0  0  0  0  0  0  0
   -0.8369    0.6068    3.1954 H   0  0  0  0  0  0  0  0  0  0  0  0
   -3.5612    1.3285    3.3441 H   0  0  0  0  0  0  0  0  0  0  0  0
   -6.1877    1.5005   -1.0309 H   0  0  0  0  0  0  0  0  0  0  0  0
   -5.6816    2.9846    1.1333 H   0  0  0  0  0  0  0  0  0  0  0  0
    3.7310    1.1412    0.0073 H   0  0  0  0  0  0  0  0  0  0  0  0
    4.5366   -2.1587    0.8715 H   0  0  0  0  0  0  0  0  0  0  0  0
    4.8175   -1.3341   -1.2446 H   0  0  0  0  0  0  0  0  0  0  0  0
    2.3254   -2.0675    1.2051 H   0  0  0  0  0  0  0  0  0  0  0  0
    2.5847   -0.5096    2.1984 H   0  0  0  0  0  0  0  0  0  0  0  0
    2.4858   -2.1428   -0.8392 H   0  0  0  0  0  0  0  0  0  0  0  0
    2.5114   -0.6587   -1.9508 H   0  0  0  0  0  0  0  0  0  0  0  0
    5.5313   -0.8819    2.4421 H   0  0  0  0  0  0  0  0  0  0  0  0
    4.4963    0.5543    2.2436 H   0  0  0  0  0  0  0  0  0  0  0  0
   -1.8087   -2.4597   -0.3575 H   0  0  0  0  0  0  0  0  0  0  0  0
    6.9697   -0.3685    0.6834 H   0  0  0  0  0  0  0  0  0  0  0  0
    6.6113    1.1720    1.5037 H   0  0  0  0  0  0  0  0  0  0  0  0
   -3.9731   -1.7480   -2.5134 H   0  0  0  0  0  0  0  0  0  0  0  0
   -3.4731   -3.4019   -1.9177 H   0  0  0  0  0  0  0  0  0  0  0  0
   -1.6747   -1.3623   -3.3579 H   0  0  0  0  0  0  0  0  0  0  0  0
   -1.1388   -2.9741   -2.6781 H   0  0  0  0  0  0  0  0  0  0  0  0
    5.7508    2.1367   -0.3713 H   0  0  0  0  0  0  0  0  0  0  0  0
    6.3459    0.6860   -1.2185 H   0  0  0  0  0  0  0  0  0  0  0  0
    0.5053   -1.6452   -0.0652 H   0  0  0  0  0  0  0  0  0  0  0  0
   -1.9153    1.4463   -1.0177 H   0  0  0  0  0  0  0  0  0  0  0  0
    0.2865    1.4134   -0.4056 H   0  0  0  0  0  0  0  0  0  0  0  0
   -1.0809    1.9296    1.1239 H   0  0  0  0  0  0  0  0  0  0  0  0
    0.8681    0.5175    2.0426 H   0  0  0  0  0  0  0  0  0  0  0  0
   -4.3232   -1.0192    0.3222 H   0  0  0  0  0  0  0  0  0  0  0  0
   -4.4745   -0.2504   -1.2661 H   0  0  0  0  0  0  0  0  0  0  0  0
   -1.7583   -0.9406    1.9775 H   0  0  0  0  0  0  0  0  0  0  0  0
   -1.2042    0.4092    2.9798 H   0  0  0  0  0  0  0  0  0  0  0  0
   -4.0825    1.8882   -0.4648 H   0  0  0  0  0  0  0  0  0  0  0  0
   -3.1941    2.4623    1.6274 H   0  0  0  0  0  0  0  0  0  0  0  0
   -5.7450    0.1389    1.4417 H   0  0  0  0  0  0  0  0  0  0  0  0
    0.8039    1.1358   -3.6894 H   0  0  0  0  0  0  0  0  0  0  0  0
    0.0072    2.2499   -2.5822 H   0  0  0  0  0  0  0  0  0  0  0  0
    1.6623    1.5810   -2.1666 H   0  0  0  0  0  0  0  0  0  0  0  0
   -3.0541    2.9763   -1.2419 H   0  0  0  0  0  0  0  0  0  0  0  0
   -6.0924    2.8673   -1.1737 H   0  0  0  0  0  0  0  0  0  0  0  0
   -4.9920    3.0752    0.2585 H   0  0  0  0  0  0  0  0  0  0  0  0
    4.3312    1.4905   -0.7993 H   0  0  0  0  0  0  0  0  0  0  0  0
    4.4512   -1.9589    0.8390 H   0  0  0  0  0  0  0  0  0  0  0  0
    4.7704   -1.3795   -1.3924 H   0  0  0  0  0  0  0  0  0  0  0  0
    2.1695   -1.9286    0.9798 H   0  0  0  0  0  0  0  0  0  0  0  0
    2.5013   -0.4548    1.8808 H   0  0  0  0  0  0  0  0  0  0  0  0
    2.7651    0.1950   -2.1466 H   0  0  0  0  0  0  0  0  0  0  0  0
    2.5398   -1.5870   -1.6360 H   0  0  0  0  0  0  0  0  0  0  0  0
    4.8910   -0.2564    2.4878 H   0  0  0  0  0  0  0  0  0  0  0  0
    4.3464    1.0562    1.3919 H   0  0  0  0  0  0  0  0  0  0  0  0
   -1.7451   -1.4489    2.3496 H   0  0  0  0  0  0  0  0  0  0  0  0
    6.6810   -0.8532    0.9355 H   0  0  0  0  0  0  0  0  0  0  0  0
    6.8187    0.8690    1.4566 H   0  0  0  0  0  0  0  0  0  0  0  0
   -3.8660   -3.0622    0.7803 H   0  0  0  0  0  0  0  0  0  0  0  0
   -3.0342   -3.5511    2.3572 H   0  0  0  0  0  0  0  0  0  0  0  0
   -0.7916   -3.5857    1.2266 H   0  0  0  0  0  0  0  0  0  0  0  0
   -1.6099   -3.1576   -0.3551 H   0  0  0  0  0  0  0  0  0  0  0  0
    6.7530    1.5603   -0.7110 H   0  0  0  0  0  0  0  0  0  0  0  0
    6.7418   -0.1742   -1.2141 H   0  0  0  0  0  0  0  0  0  0  0  0
    0.4293   -1.4311   -0.4872 H   0  0  0  0  0  0  0  0  0  0  0  0
   -2.1772    1.1881    0.9005 H   0  0  0  0  0  0  0  0  0  0  0  0
   -0.2988   -0.3335    1.5148 H   0  0  0  0  0  0  0  0  0  0  0  0
   -1.4698    1.9034   -1.3234 H   0  0  0  0  0  0  0  0  0  0  0  0
    0.5131    1.1935   -1.9778 H   0  0  0  0  0  0  0  0  0  0  0  0
   -3.9528    0.3942    1.3594 H   0  0  0  0  0  0  0  0  0  0  0  0
   -4.5788   -1.1630    0.8053 H   0  0  0  0  0  0  0  0  0  0  0  0
   -1.3628    0.2230   -3.1804 H   0  0  0  0  0  0  0  0  0  0  0  0
   -1.5023   -1.1186   -1.9077 H   0  0  0  0  0  0  0  0  0  0  0  0
   -4.8947   -0.4979   -1.3223 H   0  0  0  0  0  0  0  0  0  0  0  0
   -3.4814    0.6699   -2.6147 H   0  0  0  0  0  0  0  0  0  0  0  0
   -6.2715    0.5950    0.2141 H   0  0  0  0  0  0  0  0  0  0  0  0
    0.6871    2.7565    2.5939 H   0  0  0  0  0  0  0  0  0  0  0  0
   -0.6466    1.5427    2.8891 H   0  0  0  0  0  0  0  0  0  0  0  0
    1.0259    1.0275    2.7545 H   0  0  0  0  0  0  0  0  0  0  0  0
   -3.1073    2.4408   -1.0380 H   0  0  0  0  0  0  0  0  0  0  0  0
   -5.9373    2.1823   -1.9081 H   0  0  0  0  0  0  0  0  0  0  0  0
   -5.5522    3.2017   -0.1946 H   0  0  0  0  0  0  0  0  0  0  0  0
    4.3370    1.3368   -1.2246 H   0  0  0  0  0  0  0  0  0  0  0  0
    4.6389   -1.8719    0.7291 H   0  0  0  0  0  0  0  0  0  0  0  0
    4.6710   -1.5637   -1.6257 H   0  0  0  0  0  0  0  0  0  0  0  0
    2.3502   -2.1997    0.2451 H   0  0  0  0  0  0  0  0  0  0  0  0
    2.2879   -1.0703    1.6397 H   0  0  0  0  0  0  0  0  0  0  0  0
    2.7246    0.2683   -2.2968 H   0  0  0  0  0  0  0  0  0  0  0  0
    2.4035   -1.5192   -1.9049 H   0  0  0  0  0  0  0  0  0  0  0  0
    4.0371    1.1462    0.8867 H   0  0  0  0  0  0  0  0  0  0  0  0
    4.5615    0.1312    2.2372 H   0  0  0  0  0  0  0  0  0  0  0  0
   -3.0267   -1.8079    2.7302 H   0  0  0  0  0  0  0  0  0  0  0  0
    6.6513   -0.4570    1.0884 H   0  0  0  0  0  0  0  0  0  0  0  0
    6.4578    1.3359    1.1851 H   0  0  0  0  0  0  0  0  0  0  0  0
   -2.9268   -2.7469   -0.2937 H   0  0  0  0  0  0  0  0  0  0  0  0
   -3.6308   -3.5901    1.1606 H   0  0  0  0  0  0  0  0  0  0  0  0
   -0.6352   -2.6893    0.8241 H   0  0  0  0  0  0  0  0  0  0  0  0
   -1.4019   -3.5569    2.2291 H   0  0  0  0  0  0  0  0  0  0  0  0
    6.6867    1.4758   -1.0493 H   0  0  0  0  0  0  0  0  0  0  0  0
    6.7960   -0.2974   -1.2002 H   0  0  0  0  0  0  0  0  0  0  0  0
    0.3864   -1.2743   -0.8458 H   0  0  0  0  0  0  0  0  0  0  0  0
   -1.9137    1.3347    0.4738 H   0  0  0  0  0  0  0  0  0  0  0  0
   -0.0067   -0.5622    1.4333 H   0  0  0  0  0  0  0  0  0  0  0  0
   -1.9771   -1.0913   -1.3951 H   0  0  0  0  0  0  0  0  0  0  0  0
    0.7413    0.0323   -2.6438 H   0  0  0  0  0  0  0  0  0  0  0  0
   -3.7835    1.1903    1.6496 H   0  0  0  0  0  0  0  0  0  0  0  0
   -4.4905   -0.4346    1.8276 H   0  0  0  0  0  0  0  0  0  0  0  0
   -1.3545    1.8577   -1.9486 H   0  0  0  0  0  0  0  0  0  0  0  0
   -1.4270    0.4611   -3.0395 H   0  0  0  0  0  0  0  0  0  0  0  0
   -4.8652   -0.7915   -0.4024 H   0  0  0  0  0  0  0  0  0  0  0  0
   -3.7779   -0.0842   -2.2103 H   0  0  0  0  0  0  0  0  0  0  0  0
   -6.2695    0.8291    0.4885 H   0  0  0  0  0  0  0  0  0  0  0  0
    1.5620    0.8719    2.7433 H   0  0  0  0  0  0  0  0  0  0  0  0
   -0.1447    0.9921    3.1199 H   0  0  0  0  0  0  0  0  0  0  0  0
    0.7927    2.4643    2.8866 H   0  0  0  0  0  0  0  0  0  0  0  0
   -3.0945    2.8742   -2.3521 H   0  0  0  0  0  0  0  0  0  0  0  0
   -5.3012    2.9693   -1.4264 H   0  0  0  0  0  0  0  0  0  0  0  0
   -5.0939    3.0669    0.4572 H   0  0  0  0  0  0  0  0  0  0  0  0
    4.0352    1.6221   -0.5723 H   0  0  0  0  0  0  0  0  0  0  0  0
    4.4424   -1.9426    0.3717 H   0  0  0  0  0  0  0  0  0  0  0  0
    4.9423   -0.9914   -1.6717 H   0  0  0  0  0  0  0  0  0  0  0  0
    2.2828   -1.5359    1.0668 H   0  0  0  0  0  0  0  0  0  0  0  0
    2.8837    0.1422    1.6083 H   0  0  0  0  0  0  0  0  0  0  0  0
    2.5758   -1.4410   -1.6808 H   0  0  0  0  0  0  0  0  0  0  0  0
    2.7555    0.2816   -2.3500 H   0  0  0  0  0  0  0  0  0  0  0  0
    5.4946   -0.7833    2.0807 H   0  0  0  0  0  0  0  0  0  0  0  0
    4.6594    0.7182    1.6767 H   0  0  0  0  0  0  0  0  0  0  0  0
   -1.7002   -1.9187    2.4485 H   0  0  0  0  0  0  0  0  0  0  0  0
    6.9468   -0.6117    0.1301 H   0  0  0  0  0  0  0  0  0  0  0  0
    7.0613    0.8181    1.2383 H   0  0  0  0  0  0  0  0  0  0  0  0
   -3.6164   -3.4060    2.7687 H   0  0  0  0  0  0  0  0  0  0  0  0
   -4.6823   -2.3633    1.7612 H   0  0  0  0  0  0  0  0  0  0  0  0
   -1.9639   -3.8870    0.9967 H   0  0  0  0  0  0  0  0  0  0  0  0
   -2.9181   -2.9695   -0.2650 H   0  0  0  0  0  0  0  0  0  0  0  0
    6.1278    2.3077   -0.2579 H   0  0  0  0  0  0  0  0  0  0  0  0
    6.7868    1.0592   -1.4467 H   0  0  0  0  0  0  0  0  0  0  0  0
    0.8049   -1.4362   -0.6465 H   0  0  0  0  0  0  0  0  0  0  0  0
   -1.5723   -1.2403   -0.5534 H   0  0  0  0  0  0  0  0  0  0  0  0
   -0.1111    1.0278    0.8446 H   0  0  0  0  0  0  0  0  0  0  0  0
   -1.1824    1.8128   -0.4169 H   0  0  0  0  0  0  0  0  0  0  0  0
    0.9554    1.1958   -2.0695 H   0  0  0  0  0  0  0  0  0  0  0  0
   -4.6321   -0.2487    1.3235 H   0  0  0  0  0  0  0  0  0  0  0  0
   -4.2465   -1.4765    0.1057 H   0  0  0  0  0  0  0  0  0  0  0  0
   -1.1430    1.4292   -2.8212 H   0  0  0  0  0  0  0  0  0  0  0  0
   -1.5758   -0.2948   -2.5313 H   0  0  0  0  0  0  0  0  0  0  0  0
   -4.4690   -0.0670   -1.5971 H   0  0  0  0  0  0  0  0  0  0  0  0
   -3.3518    2.3228   -0.2991 H   0  0  0  0  0  0  0  0  0  0  0  0
   -6.3664    0.6663   -0.0946 H   0  0  0  0  0  0  0  0  0  0  0  0
   -0.7318    0.6484    2.9618 H   0  0  0  0  0  0  0  0  0  0  0  0
    1.0059    0.9297    2.6504 H   0  0  0  0  0  0  0  0  0  0  0  0
    0.4481   -0.4188    3.7782 H   0  0  0  0  0  0  0  0  0  0  0  0
  7 10  1  0
  9 10  1  0
  6 11  1  0
  9 11  1  0
  6 12  1  0
 10 12  1  0
  9 13  1  0
  8 14  1  0
 13 15  1  0
 14 16  1  0
 14 17  1  0
 16 17  1  0
  7 18  1  0
 15 18  1  0
  6 19  1  0
  8 20  1  0
  2 21  1  0
 19 21  1  0
 20 21  1  0
 20 22  1  0
  1 23  1  0
 19 23  1  0
  8 24  1  0
 22 25  1  0
 23 25  1  0
 24 26  1  0
 22 27  1  0
 26 27  1  0
 27  3  1  0
  4 28  1  0
 26 28  1  0
 28  5  1  0
  2 29  1  0
 36 39  1  0
 38 39  1  0
 35 40  1  0
 38 40  1  0
 35 41  1  0
 39 41  1  0
 38 42  1  0
 37 43  1  0
 42 44  1  0
 43 45  1  0
 43 46  1  0
 45 46  1  0
 36 47  1  0
 44 47  1  0
 35 48  1  0
 37 49  1  0
 31 50  1  0
 48 50  1  0
 49 50  1  0
 49 51  1  0
 30 52  1  0
 48 52  1  0
 37 53  1  0
 51 54  1  0
 52 54  1  0
 53 55  1  0
 51 56  1  0
 55 56  1  0
 56 32  1  0
 33 57  1  0
 55 57  1  0
 57 34  1  0
 31 58  1  0
 65 68  1  0
 67 68  1  0
 64 69  1  0
 67 69  1  0
 64 70  1  0
 68 70  1  0
 67 71  1  0
 66 72  1  0
 71 73  1  0
 72 74  1  0
 72 75  1  0
 74 75  1  0
 65 76  1  0
 73 76  1  0
 64 77  1  0
 66 78  1  0
 60 79  1  0
 77 79  1  0
 78 79  1  0
 78 80  1  0
 59 81  1  0
 77 81  1  0
 66 82  1  0
 80 83  1  0
 81 83  1  0
 82 84  1  0
 80 85  1  0
 84 85  1  0
 85 61  1  0
 62 86  1  0
 84 86  1  0
 86 63  1  0
 60 87  1  0
 94 97  1  0
 96 97  1  0
 93 98  1  0
 96 98  1  0
 93 99  1  0
 97 99  1  0
 96100  1  0
 95101  1  0
100102  1  0
101103  1  0
101104  1  0
103104  1  0
 94105  1  0
102105  1  0
 93106  1  0
 95107  1  0
 89108  1  0
106108  1  0
107108  1  0
107109  1  0
 88110  1  0
106110  1  0
 95111  1  0
109112  1  0
110112  1  0
111113  1  0
109114  1  0
113114  1  0
114 90  1  0
 91115  1  0
113115  1  0
115 92  1  0
 89116  1  0
123126  1  0
125126  1  0
122127  1  0
125127  1  0
122128  1  0
126128  1  0
125129  1  0
124130  1  0
129131  1  0
130132  1  0
130133  1  0
132133  1  0
123134  1  0
131134  1  0
122135  1  0
124136  1  0
118137  1  0
135137  1  0
136137  1  0
136138  1  0
117139  1  0
135139  1  0
124140  1  0
138141  1  0
139141  1  0
140142  1  0
138143  1  0
142143  1  0
143119  1  0
120144  1  0
142144  1  0
144121  1  0
118145  1  0
152155  1  0
154155  1  0
151156  1  0
154156  1  0
151157  1  0
155157  1  0
154158  1  0
153159  1  0
158160  1  0
159161  1  0
159162  1  0
161162  1  0
152163  1  0
160163  1  0
151164  1  0
153165  1  0
147166  1  0
164166  1  0
165166  1  0
165167  1  0
146168  1  0
164168  1  0
153169  1  0
167170  1  0
168170  1  0
169171  1  0
167172  1  0
171172  1  0
172148  1  0
149173  1  0
171173  1  0
173150  1  0
147174  1  0
  3175  1  0
  4176  1  0
  5177  1  0
  7178  1  0
  9179  1  6
 10180  1  6
 11181  1  0
 11182  1  0
 12183  1  0
 12184  1  0
 13185  1  0
 13186  1  0
 14187  1  0
 15188  1  0
 15189  1  0
 16190  1  0
 16191  1  0
 17192  1  0
 17193  1  0
 18194  1  0
 18195  1  0
 19196  1  6
 20197  1  6
 21198  1  1
 22199  1  0
 23200  1  0
 24201  1  0
 24202  1  0
 25203  1  0
 25204  1  0
 26205  1  6
 27206  1  0
 28207  1  0
 29208  1  0
 29209  1  0
 29210  1  0
 32211  1  0
 33212  1  0
 34213  1  0
 36214  1  0
 38215  1  6
 39216  1  6
 40217  1  0
 40218  1  0
 41219  1  0
 41220  1  0
 42221  1  0
 42222  1  0
 43223  1  0
 44224  1  0
 44225  1  0
 45226  1  0
 45227  1  0
 46228  1  0
 46229  1  0
 47230  1  0
 47231  1  0
 48232  1  6
 49233  1  0
 50234  1  1
 51235  1  1
 52236  1  0
 53237  1  0
 53238  1  0
 54239  1  0
 54240  1  0
 55241  1  6
 56242  1  0
 57243  1  0
 58244  1  0
 58245  1  0
 58246  1  0
 61247  1  0
 62248  1  0
 63249  1  0
 65250  1  0
 67251  1  6
 68252  1  6
 69253  1  0
 69254  1  0
 70255  1  0
 70256  1  0
 71257  1  0
 71258  1  0
 72259  1  0
 73260  1  0
 73261  1  0
 74262  1  0
 74263  1  0
 75264  1  0
 75265  1  0
 76266  1  0
 76267  1  0
 77268  1  6
 78269  1  6
 79270  1  0
 80271  1  6
 81272  1  0
 82273  1  0
 82274  1  0
 83275  1  0
 83276  1  0
 84277  1  0
 85278  1  0
 86279  1  0
 87280  1  0
 87281  1  0
 87282  1  0
 90283  1  0
 91284  1  0
 92285  1  0
 94286  1  0
 96287  1  6
 97288  1  6
 98289  1  0
 98290  1  0
 99291  1  0
 99292  1  0
100293  1  0
100294  1  0
101295  1  0
102296  1  0
102297  1  0
103298  1  0
103299  1  0
104300  1  0
104301  1  0
105302  1  0
105303  1  0
106304  1  6
107305  1  1
108306  1  1
109307  1  0
110308  1  6
111309  1  0
111310  1  0
112311  1  0
112312  1  0
113313  1  6
114314  1  0
115315  1  0
116316  1  0
116317  1  0
116318  1  0
119319  1  0
120320  1  0
121321  1  0
123322  1  0
125323  1  1
126324  1  6
127325  1  0
127326  1  0
128327  1  0
128328  1  0
129329  1  0
129330  1  0
130331  1  0
131332  1  0
131333  1  0
132334  1  0
132335  1  0
133336  1  0
133337  1  0
134338  1  0
134339  1  0
135340  1  6
136341  1  0
137342  1  0
138343  1  6
139344  1  0
140345  1  0
140346  1  0
141347  1  0
141348  1  0
142349  1  6
143350  1  0
144351  1  0
145352  1  0
145353  1  0
145354  1  0
148355  1  0
149356  1  0
150357  1  0
152358  1  0
154359  1  6
155360  1  6
156361  1  0
156362  1  0
157363  1  0
157364  1  0
158365  1  0
158366  1  0
159367  1  0
160368  1  0
160369  1  0
161370  1  0
161371  1  0
162372  1  0
162373  1  0
163374  1  0
163375  1  0
164376  1  0
165377  1  6
166378  1  1
167379  1  0
168380  1  0
169381  1  0
169382  1  0
170383  1  0
170384  1  0
171385  1  0
172386  1  1
173387  1  0
174388  1  0
174389  1  0
174390  1  0
M  END
>  <PDBID>  (1) 
5CDQ

>  <PDB ID>  (1) 
5CDQ

>  <Generic Name>  (1) 
Moxifloxacin

>  <Brand Name>  (1) 
Act Moxifloxacin#Apo-moxifloxacin#Auro-moxifloxacin#Avelox#Avelox Abc Pack#Avelox I.V.#Bio-moxifloxacin#Dom-moxifloxacin#Ipg-moxifloxacin#Jamp-moxifloxacin#Jamp-moxifloxacin Tablets#Mar-moxifloxacin#Med-moxifloxacin#Moxeza#Moxifloxacin#Moxifloxacin Hydrochloride#Moxifloxacin Injection#Mylan-moxifloxacin#Mylan-moxifloxacin HCl Ophthalmic Solution#PHL-moxifloxacin#PMS-moxifloxacin#Priva-moxifloxacin#Riva-moxifloxacin#Sandoz Moxifloxacin#Teva-moxifloxacin#Torrent-moxifloxacin#Vigamox

>  <DrugBank ID>  (1) 
DB00218

>  <ATC Codes>  (1) 
J01MA14#S01AE07

>  <Ligand ID>  (1) 
MFX

>  <Target Name>  (1) 
DNA gyrase subunit A

>  <UniProt ID>  (1) 
P43700

>  <PDB ID.1>  (1) 
5CDQ

>  <Seq. Identity>  (1) 
53%

$$$$
