PDB_DB01199_00
     RDKit          3D

550580  0  0  0  0  0  0  0  0999 V2000
   -4.5365    2.9175    0.2021 N   0  0  0  0  0  0  0  0  0  0  0  0
   -5.6970    2.4023    0.8471 C   0  0  0  0  0  0  0  0  0  0  0  0
   -6.3900    1.2982    0.1017 C   0  0  0  0  0  0  0  0  0  0  0  0
   -5.4634    0.2427   -0.4244 C   0  0  0  0  0  0  0  0  0  0  0  0
   -4.0686    0.5881    0.0758 C   0  0  0  0  0  0  0  0  0  0  0  0
   -3.7208    1.9459   -0.4472 C   0  0  2  0  0  0  0  0  0  0  0  0
   -5.8938   -1.0946    0.1112 C   0  0  0  0  0  0  0  0  0  0  0  0
   -4.8897   -2.2030   -0.0675 C   0  0  0  0  0  0  0  0  0  0  0  0
   -3.6869   -1.7866   -0.8132 C   0  0  1  0  0  0  0  0  0  0  0  0
   -3.1558   -0.4876   -0.3546 C   0  0  0  0  0  0  0  0  0  0  0  0
   -2.7039   -2.6626   -1.0034 O   0  0  0  0  0  0  0  0  0  0  0  0
   -1.5260   -2.7968   -0.4615 C   0  0  2  0  0  0  0  0  0  0  0  0
   -1.4487   -3.2315    1.0121 C   0  0  0  0  0  0  0  0  0  0  0  0
   -0.1452   -3.9965    1.2592 C   0  0  0  0  0  0  0  0  0  0  0  0
    0.8932   -3.6935    0.1899 C   0  0  0  0  0  0  0  0  0  0  0  0
    0.8907   -2.2386   -0.0514 C   0  0  2  0  0  0  0  0  0  0  0  0
   -0.3823   -1.9100   -0.8365 C   0  0  0  0  0  0  0  0  0  0  0  0
    2.1112   -1.6571   -0.7205 C   0  0  0  0  0  0  0  0  0  0  0  0
    3.2396   -1.3105    0.1867 C   0  0  1  0  0  0  0  0  0  0  0  0
    4.3579   -2.2464    0.1086 N   0  0  0  0  0  0  0  0  0  0  0  0
    5.6608   -1.5950   -0.0173 C   0  0  0  0  0  0  0  0  0  0  0  0
    5.7595   -0.6126   -1.1243 C   0  0  0  0  0  0  0  0  0  0  0  0
    4.4931    0.2064   -1.2209 C   0  0  0  0  0  0  0  0  0  0  0  0
    3.7904    0.0476    0.1128 C   0  0  1  0  0  0  0  0  0  0  0  0
    4.7703    1.5886   -1.6550 C   0  0  0  0  0  0  0  0  0  0  0  0
    4.8152    2.6569   -0.6436 C   0  0  0  0  0  0  0  0  0  0  0  0
    4.1178    2.3390    0.6495 C   0  0  2  0  0  0  0  0  0  0  0  0
    3.0435    1.2693    0.3667 C   0  0  2  0  0  0  0  0  0  0  0  0
    2.0932    1.3570    1.3137 O   0  0  0  0  0  0  0  0  0  0  0  0
    0.8285    1.7879    0.8459 C   0  0  0  0  0  0  0  0  0  0  0  0
    0.7269    3.2849    0.7570 C   0  0  0  0  0  0  0  0  0  0  0  0
   -0.6045    3.8234    0.4599 C   0  0  0  0  0  0  0  0  0  0  0  0
   -1.7770    2.9398    0.8402 C   0  0  0  0  0  0  0  0  0  0  0  0
   -1.3694    2.0726    1.9567 C   0  0  0  0  0  0  0  0  0  0  0  0
   -0.1774    1.2077    1.7718 C   0  0  0  0  0  0  0  0  0  0  0  0
   -2.2886    2.3283   -0.4062 C   0  0  0  0  0  0  0  0  0  0  0  0
   -5.6031   -3.2428   -0.6545 O   0  0  0  0  0  0  0  0  0  0  0  0
   -5.8173   -4.3469    0.1022 C   0  0  0  0  0  0  0  0  0  0  0  0
   -2.4470   -4.1928    1.2031 O   0  0  0  0  0  0  0  0  0  0  0  0
    6.1314    3.0376   -0.3507 O   0  0  0  0  0  0  0  0  0  0  0  0
    6.3624    4.3801   -0.6025 C   0  0  0  0  0  0  0  0  0  0  0  0
    3.7160    3.3922    1.3891 O   0  0  0  0  0  0  0  0  0  0  0  0
   -4.8226    4.0077   -0.7131 C   0  0  0  0  0  0  0  0  0  0  0  0
    4.2887   -3.1132   -1.0422 C   0  0  0  0  0  0  0  0  0  0  0  0
    4.4767   -3.0761    1.2907 C   0  0  0  0  0  0  0  0  0  0  0  0
   -4.2419    2.5004    0.9921 N   0  0  0  0  0  0  0  0  0  0  0  0
   -5.1171    1.6234    1.6909 C   0  0  0  0  0  0  0  0  0  0  0  0
   -6.0885    0.8495    0.8393 C   0  0  0  0  0  0  0  0  0  0  0  0
   -5.4814    0.3196   -0.4140 C   0  0  0  0  0  0  0  0  0  0  0  0
   -3.9721    0.4796   -0.2349 C   0  0  2  0  0  0  0  0  0  0  0  0
   -3.7218    1.9498   -0.2472 C   0  0  2  0  0  0  0  0  0  0  0  0
   -5.9100   -1.0194   -0.8634 C   0  0  0  0  0  0  0  0  0  0  0  0
   -4.8318   -2.0461   -0.4458 C   0  0  0  0  0  0  0  0  0  0  0  0
   -3.5711   -1.7795   -1.2454 C   0  0  0  0  0  0  0  0  0  0  0  0
   -3.2128   -0.3248   -1.2432 C   0  0  0  0  0  0  0  0  0  0  0  0
   -2.6072   -2.6652   -1.1607 O   0  0  0  0  0  0  0  0  0  0  0  0
   -1.4991   -2.7401   -0.4882 C   0  0  0  0  0  0  0  0  0  0  0  0
   -1.5599   -2.6434    1.0234 C   0  0  0  0  0  0  0  0  0  0  0  0
   -0.1541   -2.5268    1.5732 C   0  0  0  0  0  0  0  0  0  0  0  0
    0.8401   -3.2941    0.6819 C   0  0  0  0  0  0  0  0  0  0  0  0
    0.9978   -2.6871   -0.6542 C   0  0  0  0  0  0  0  0  0  0  0  0
   -0.3148   -1.9011   -0.9140 C   0  0  0  0  0  0  0  0  0  0  0  0
    2.1601   -1.8359   -0.9336 C   0  0  0  0  0  0  0  0  0  0  0  0
    3.1433   -1.5064    0.1215 C   0  0  1  0  0  0  0  0  0  0  0  0
    4.3176   -2.4062    0.0890 N   0  0  0  0  0  0  0  0  0  0  0  0
    5.5480   -1.7619   -0.2364 C   0  0  0  0  0  0  0  0  0  0  0  0
    5.5583   -0.7641   -1.3263 C   0  0  0  0  0  0  0  0  0  0  0  0
    4.3520    0.0864   -1.3077 C   0  0  0  0  0  0  0  0  0  0  0  0
    3.7038   -0.1377    0.0727 C   0  0  1  0  0  0  0  0  0  0  0  0
    4.4823    1.4998   -1.6907 C   0  0  0  0  0  0  0  0  0  0  0  0
    4.6693    2.5086   -0.6006 C   0  0  0  0  0  0  0  0  0  0  0  0
    4.0362    2.1119    0.7059 C   0  0  0  0  0  0  0  0  0  0  0  0
    2.9490    1.0748    0.3570 C   0  0  2  0  0  0  0  0  0  0  0  0
    1.9091    1.0917    1.2300 O   0  0  0  0  0  0  0  0  0  0  0  0
    0.7244    1.6491    0.7524 C   0  0  0  0  0  0  0  0  0  0  0  0
    0.8433    3.1356    0.5202 C   0  0  0  0  0  0  0  0  0  0  0  0
   -0.3867    3.7268   -0.1091 C   0  0  0  0  0  0  0  0  0  0  0  0
   -1.6822    3.2539    0.5079 C   0  0  0  0  0  0  0  0  0  0  0  0
   -1.3561    2.5573    1.7726 C   0  0  0  0  0  0  0  0  0  0  0  0
   -0.4687    1.3283    1.5789 C   0  0  0  0  0  0  0  0  0  0  0  0
   -2.3694    2.4313   -0.5560 C   0  0  0  0  0  0  0  0  0  0  0  0
   -5.3158   -3.3340   -0.6740 O   0  0  0  0  0  0  0  0  0  0  0  0
   -5.5968   -4.0526    0.4562 C   0  0  0  0  0  0  0  0  0  0  0  0
   -2.1177   -3.8178    1.5289 O   0  0  0  0  0  0  0  0  0  0  0  0
    6.0336    2.7432   -0.4754 O   0  0  0  0  0  0  0  0  0  0  0  0
    6.2846    4.0777   -0.7631 C   0  0  0  0  0  0  0  0  0  0  0  0
    3.6726    3.0990    1.5409 O   0  0  0  0  0  0  0  0  0  0  0  0
   -4.8850    3.7807    0.7551 C   0  0  0  0  0  0  0  0  0  0  0  0
    4.1457   -3.4839   -0.8736 C   0  0  0  0  0  0  0  0  0  0  0  0
    4.5541   -2.9657    1.4113 C   0  0  0  0  0  0  0  0  0  0  0  0
   -4.5086    3.0546    0.2522 N   0  0  0  0  0  0  0  0  0  0  0  0
   -5.7743    2.5187    0.6354 C   0  0  0  0  0  0  0  0  0  0  0  0
   -6.3340    1.4577   -0.2558 C   0  0  0  0  0  0  0  0  0  0  0  0
   -5.3546    0.3474   -0.5863 C   0  0  0  0  0  0  0  0  0  0  0  0
   -4.0706    0.7248    0.1470 C   0  0  0  0  0  0  0  0  0  0  0  0
   -3.6597    2.0466   -0.3645 C   0  0  2  0  0  0  0  0  0  0  0  0
   -5.8478   -0.9302   -0.0167 C   0  0  0  0  0  0  0  0  0  0  0  0
   -4.8598   -2.0724   -0.1093 C   0  0  0  0  0  0  0  0  0  0  0  0
   -3.5276   -1.6125   -0.6739 C   0  0  0  0  0  0  0  0  0  0  0  0
   -3.0944   -0.3833    0.0857 C   0  0  0  0  0  0  0  0  0  0  0  0
   -2.6322   -2.5098   -0.9550 O   0  0  0  0  0  0  0  0  0  0  0  0
   -1.4615   -2.8343   -0.4688 C   0  0  0  0  0  0  0  0  0  0  0  0
   -1.3639   -3.1670    1.0175 C   0  0  0  0  0  0  0  0  0  0  0  0
   -0.1785   -4.0593    1.2997 C   0  0  0  0  0  0  0  0  0  0  0  0
    0.9156   -3.8035    0.3257 C   0  0  0  0  0  0  0  0  0  0  0  0
    0.9389   -2.3309    0.0282 C   0  0  2  0  0  0  0  0  0  0  0  0
   -0.2162   -2.1593   -0.9799 C   0  0  0  0  0  0  0  0  0  0  0  0
    2.2251   -1.8258   -0.5736 C   0  0  0  0  0  0  0  0  0  0  0  0
    3.2672   -1.3761    0.3794 C   0  0  1  0  0  0  0  0  0  0  0  0
    4.3674   -2.3343    0.5135 N   0  0  0  0  0  0  0  0  0  0  0  0
    5.6914   -1.7030    0.4833 C   0  0  0  0  0  0  0  0  0  0  0  0
    5.9237   -0.8991   -0.7351 C   0  0  0  0  0  0  0  0  0  0  0  0
    4.7266    0.0140   -1.0481 C   0  0  0  0  0  0  0  0  0  0  0  0
    3.8660   -0.0369    0.1860 C   0  0  1  0  0  0  0  0  0  0  0  0
    5.2752    1.2942   -1.4758 C   0  0  0  0  0  0  0  0  0  0  0  0
    4.5626    2.5431   -1.0484 C   0  0  0  0  0  0  0  0  0  0  0  0
    4.1387    2.3053    0.3799 C   0  0  0  0  0  0  0  0  0  0  0  0
    3.0657    1.1958    0.2882 C   0  0  2  0  0  0  0  0  0  0  0  0
    2.1211    1.3232    1.2480 O   0  0  0  0  0  0  0  0  0  0  0  0
    0.8641    1.7944    0.7977 C   0  0  0  0  0  0  0  0  0  0  0  0
    0.7806    3.2833    0.8244 C   0  0  0  0  0  0  0  0  0  0  0  0
   -0.5568    3.8745    0.6809 C   0  0  0  0  0  0  0  0  0  0  0  0
   -1.7316    2.9802    0.9982 C   0  0  0  0  0  0  0  0  0  0  0  0
   -1.3256    1.9930    2.0172 C   0  0  0  0  0  0  0  0  0  0  0  0
   -0.1631    1.1228    1.6507 C   0  0  0  0  0  0  0  0  0  0  0  0
   -2.2521    2.4588   -0.2996 C   0  0  0  0  0  0  0  0  0  0  0  0
   -5.4655   -3.0380   -0.8840 O   0  0  0  0  0  0  0  0  0  0  0  0
   -5.7827   -4.2001   -0.2507 C   0  0  0  0  0  0  0  0  0  0  0  0
   -2.4890   -3.9346    1.3238 O   0  0  0  0  0  0  0  0  0  0  0  0
    5.4160    3.6374   -1.0373 O   0  0  0  0  0  0  0  0  0  0  0  0
    4.9916    4.6662   -1.8599 C   0  0  0  0  0  0  0  0  0  0  0  0
    3.8226    3.3811    1.1129 O   0  0  0  0  0  0  0  0  0  0  0  0
   -4.6743    4.1784   -0.6359 C   0  0  0  0  0  0  0  0  0  0  0  0
    4.4335   -3.2772   -0.5882 C   0  0  0  0  0  0  0  0  0  0  0  0
    4.3626   -2.9945    1.8090 C   0  0  0  0  0  0  0  0  0  0  0  0
   -4.5602    2.8701    0.1560 N   0  0  0  0  0  0  0  0  0  0  0  0
   -5.7477    2.5884    0.8527 C   0  0  0  0  0  0  0  0  0  0  0  0
   -6.4941    1.3302    0.4814 C   0  0  0  0  0  0  0  0  0  0  0  0
   -5.5993    0.2451    0.0165 C   0  0  0  0  0  0  0  0  0  0  0  0
   -4.2227    0.6041    0.6033 C   0  0  0  0  0  0  0  0  0  0  0  0
   -3.7587    1.7347   -0.2407 C   0  0  2  0  0  0  0  0  0  0  0  0
   -5.9331   -1.1434    0.3352 C   0  0  0  0  0  0  0  0  0  0  0  0
   -4.9946   -2.0634   -0.4518 C   0  0  1  0  0  0  0  0  0  0  0  0
   -3.5857   -1.4493   -0.5531 C   0  0  1  0  0  0  0  0  0  0  0  0
   -3.4256   -0.6219    0.6918 C   0  0  0  0  0  0  0  0  0  0  0  0
   -2.6379   -2.2320   -0.9591 O   0  0  0  0  0  0  0  0  0  0  0  0
   -1.4927   -2.6154   -0.4421 C   0  0  2  0  0  0  0  0  0  0  0  0
   -1.5070   -3.2644    0.9206 C   0  0  0  0  0  0  0  0  0  0  0  0
   -0.0702   -3.1954    1.4528 C   0  0  0  0  0  0  0  0  0  0  0  0
    0.8357   -3.5819    0.2779 C   0  0  0  0  0  0  0  0  0  0  0  0
    0.9748   -2.5089   -0.7205 C   0  0  0  0  0  0  0  0  0  0  0  0
   -0.3148   -1.6617   -0.5895 C   0  0  0  0  0  0  0  0  0  0  0  0
    2.1924   -1.7471   -0.8900 C   0  0  0  0  0  0  0  0  0  0  0  0
    3.1077   -1.3793    0.2039 C   0  0  1  0  0  0  0  0  0  0  0  0
    4.2602   -2.2822    0.3662 N   0  0  0  0  0  0  0  0  0  0  0  0
    5.5479   -1.6311    0.3536 C   0  0  0  0  0  0  0  0  0  0  0  0
    5.8152   -0.6803   -0.7435 C   0  0  0  0  0  0  0  0  0  0  0  0
    4.5525    0.0128   -1.1230 C   0  0  0  0  0  0  0  0  0  0  0  0
    3.7021   -0.0216    0.1566 C   0  0  1  0  0  0  0  0  0  0  0  0
    4.7119    1.3541   -1.7136 C   0  0  0  0  0  0  0  0  0  0  0  0
    4.9040    2.4943   -0.7873 C   0  0  0  0  0  0  0  0  0  0  0  0
    4.0788    2.2742    0.4541 C   0  0  0  0  0  0  0  0  0  0  0  0
    2.9628    1.2284    0.2175 C   0  0  2  0  0  0  0  0  0  0  0  0
    2.0386    1.4465    1.1909 O   0  0  0  0  0  0  0  0  0  0  0  0
    0.7992    1.8512    0.7760 C   0  0  0  0  0  0  0  0  0  0  0  0
    0.7399    3.2979    0.3453 C   0  0  0  0  0  0  0  0  0  0  0  0
   -0.6295    3.7352   -0.0744 C   0  0  0  0  0  0  0  0  0  0  0  0
   -1.7557    3.0128    0.6166 C   0  0  0  0  0  0  0  0  0  0  0  0
   -1.3001    2.6006    1.9618 C   0  0  0  0  0  0  0  0  0  0  0  0
   -0.1756    1.5937    1.9236 C   0  0  0  0  0  0  0  0  0  0  0  0
   -2.2908    1.9689   -0.2868 C   0  0  0  0  0  0  0  0  0  0  0  0
   -4.9787   -3.3024    0.1325 O   0  0  0  0  0  0  0  0  0  0  0  0
   -5.4646   -4.3018   -0.7151 C   0  0  0  0  0  0  0  0  0  0  0  0
   -1.8009   -4.6435    0.8537 O   0  0  0  0  0  0  0  0  0  0  0  0
    6.2430    2.6428   -0.5315 O   0  0  0  0  0  0  0  0  0  0  0  0
    6.6558    3.8996   -0.9488 C   0  0  0  0  0  0  0  0  0  0  0  0
    3.6780    3.4589    0.9470 O   0  0  0  0  0  0  0  0  0  0  0  0
   -4.6386    3.8984   -0.8337 C   0  0  0  0  0  0  0  0  0  0  0  0
    4.3450   -3.2716   -0.6859 C   0  0  0  0  0  0  0  0  0  0  0  0
    4.2286   -2.9481    1.6590 C   0  0  0  0  0  0  0  0  0  0  0  0
   -4.5727    2.9967    0.3025 N   0  0  0  0  0  0  0  0  0  0  0  0
   -5.8089    2.3578    0.6555 C   0  0  0  0  0  0  0  0  0  0  0  0
   -6.3512    1.4075   -0.3730 C   0  0  0  0  0  0  0  0  0  0  0  0
   -5.3818    0.3167   -0.7589 C   0  0  0  0  0  0  0  0  0  0  0  0
   -4.0492    0.7207   -0.1288 C   0  0  0  0  0  0  0  0  0  0  0  0
   -3.7599    2.1347   -0.5261 C   0  0  2  0  0  0  0  0  0  0  0  0
   -5.8327   -1.0456   -0.3235 C   0  0  0  0  0  0  0  0  0  0  0  0
   -4.6550   -1.9996   -0.0331 C   0  0  0  0  0  0  0  0  0  0  0  0
   -3.5185   -1.6422   -0.9174 C   0  0  1  0  0  0  0  0  0  0  0  0
   -3.0147   -0.2764   -0.4590 C   0  0  0  0  0  0  0  0  0  0  0  0
   -2.5764   -2.4862   -1.2341 O   0  0  0  0  0  0  0  0  0  0  0  0
   -1.4528   -2.8522   -0.6855 C   0  0  0  0  0  0  0  0  0  0  0  0
   -1.5766   -3.9646    0.3809 C   0  0  0  0  0  0  0  0  0  0  0  0
   -0.1920   -4.3722    0.7508 C   0  0  0  0  0  0  0  0  0  0  0  0
    0.8839   -3.9355   -0.1906 C   0  0  0  0  0  0  0  0  0  0  0  0
    1.0114   -2.4140   -0.2748 C   0  0  0  0  0  0  0  0  0  0  0  0
   -0.4357   -1.9109   -0.1641 C   0  0  0  0  0  0  0  0  0  0  0  0
    1.7872   -1.8335    0.8325 C   0  0  0  0  0  0  0  0  0  0  0  0
    3.1200   -1.2193    0.5804 C   0  0  1  0  0  0  0  0  0  0  0  0
    4.1960   -2.1940    0.5551 N   0  0  0  0  0  0  0  0  0  0  0  0
    5.4369   -1.4273    0.6421 C   0  0  0  0  0  0  0  0  0  0  0  0
    5.6671   -0.5870   -0.5578 C   0  0  0  0  0  0  0  0  0  0  0  0
    4.4474   -0.1266   -1.2660 C   0  0  0  0  0  0  0  0  0  0  0  0
    3.1808   -0.1683   -0.4608 C   0  0  0  0  0  0  0  0  0  0  0  0
    4.7302    1.2639   -1.8192 C   0  0  0  0  0  0  0  0  0  0  0  0
    4.9792    2.2915   -0.7784 C   0  0  0  0  0  0  0  0  0  0  0  0
    4.2321    1.9242    0.4749 C   0  0  0  0  0  0  0  0  0  0  0  0
    2.9397    1.2447    0.0210 C   0  0  2  0  0  0  0  0  0  0  0  0
    2.0210    1.3970    1.0141 O   0  0  0  0  0  0  0  0  0  0  0  0
    0.8089    1.9348    0.5861 C   0  0  0  0  0  0  0  0  0  0  0  0
    0.7943    3.4388    0.5364 C   0  0  0  0  0  0  0  0  0  0  0  0
   -0.5024    3.9707    0.0582 C   0  0  0  0  0  0  0  0  0  0  0  0
   -1.7407    3.2668    0.5648 C   0  0  0  0  0  0  0  0  0  0  0  0
   -1.3881    2.4437    1.7290 C   0  0  0  0  0  0  0  0  0  0  0  0
   -0.2055    1.5532    1.6290 C   0  0  0  0  0  0  0  0  0  0  0  0
   -2.3746    2.5910   -0.6125 C   0  0  0  0  0  0  0  0  0  0  0  0
   -5.1284   -3.3000   -0.1696 O   0  0  0  0  0  0  0  0  0  0  0  0
   -5.2461   -4.0038    0.9994 C   0  0  0  0  0  0  0  0  0  0  0  0
   -2.2623   -4.9935   -0.2337 O   0  0  0  0  0  0  0  0  0  0  0  0
    6.2874    2.5709   -0.5102 O   0  0  0  0  0  0  0  0  0  0  0  0
    6.6729    3.8729   -0.7547 C   0  0  0  0  0  0  0  0  0  0  0  0
    3.8774    3.1183    1.1167 O   0  0  0  0  0  0  0  0  0  0  0  0
   -4.8367    4.2519   -0.3776 C   0  0  0  0  0  0  0  0  0  0  0  0
    4.2811   -3.0366   -0.5601 C   0  0  0  0  0  0  0  0  0  0  0  0
    4.1121   -2.9064    1.8417 C   0  0  0  0  0  0  0  0  0  0  0  0
   -5.4623    2.1056    1.9074 H   0  0  0  0  0  0  0  0  0  0  0  0
   -6.4352    3.2409    0.9425 H   0  0  0  0  0  0  0  0  0  0  0  0
   -7.0042    1.7440   -0.7194 H   0  0  0  0  0  0  0  0  0  0  0  0
   -7.1376    0.8563    0.8069 H   0  0  0  0  0  0  0  0  0  0  0  0
   -5.4847    0.2854   -1.5287 H   0  0  0  0  0  0  0  0  0  0  0  0
   -4.1718    0.6741    1.1882 H   0  0  0  0  0  0  0  0  0  0  0  0
   -4.0205    1.9386   -1.5282 H   0  0  0  0  0  0  0  0  0  0  0  0
   -6.8870   -1.3086   -0.3672 H   0  0  0  0  0  0  0  0  0  0  0  0
   -6.1642   -0.9242    1.1959 H   0  0  0  0  0  0  0  0  0  0  0  0
   -4.5966   -2.5035    0.9751 H   0  0  0  0  0  0  0  0  0  0  0  0
   -4.0923   -1.5798   -1.8658 H   0  0  0  0  0  0  0  0  0  0  0  0
   -2.6161   -0.0660   -1.2347 H   0  0  0  0  0  0  0  0  0  0  0  0
   -2.5050   -0.6884    0.5138 H   0  0  0  0  0  0  0  0  0  0  0  0
   -1.1774   -3.8021   -0.9218 H   0  0  0  0  0  0  0  0  0  0  0  0
   -1.4579   -2.4188    1.7207 H   0  0  0  0  0  0  0  0  0  0  0  0
    0.3169   -3.6928    2.2362 H   0  0  0  0  0  0  0  0  0  0  0  0
   -0.2646   -5.0768    1.2919 H   0  0  0  0  0  0  0  0  0  0  0  0
    1.8482   -4.0358    0.6387 H   0  0  0  0  0  0  0  0  0  0  0  0
    0.7702   -4.3186   -0.7172 H   0  0  0  0  0  0  0  0  0  0  0  0
    0.8230   -1.7346    0.9590 H   0  0  0  0  0  0  0  0  0  0  0  0
   -0.4748   -0.8484   -0.7276 H   0  0  0  0  0  0  0  0  0  0  0  0
   -0.1415   -2.0941   -1.9248 H   0  0  0  0  0  0  0  0  0  0  0  0
    1.7891   -0.6967   -1.2265 H   0  0  0  0  0  0  0  0  0  0  0  0
    2.3572   -2.3269   -1.5631 H   0  0  0  0  0  0  0  0  0  0  0  0
    2.8342   -1.4410    1.2387 H   0  0  0  0  0  0  0  0  0  0  0  0
    6.1025   -1.2975    0.9530 H   0  0  0  0  0  0  0  0  0  0  0  0
    6.3586   -2.4446   -0.3154 H   0  0  0  0  0  0  0  0  0  0  0  0
    6.6241    0.0508   -0.9237 H   0  0  0  0  0  0  0  0  0  0  0  0
    5.9695   -1.1033   -2.0944 H   0  0  0  0  0  0  0  0  0  0  0  0
    3.7812   -0.2438   -1.9762 H   0  0  0  0  0  0  0  0  0  0  0  0
    4.6221    0.0385    0.8907 H   0  0  0  0  0  0  0  0  0  0  0  0
    4.0812    1.9200   -2.4881 H   0  0  0  0  0  0  0  0  0  0  0  0
    5.7803    1.5693   -2.1673 H   0  0  0  0  0  0  0  0  0  0  0  0
    4.3140    3.5987   -1.0180 H   0  0  0  0  0  0  0  0  0  0  0  0
    4.8855    1.8013    1.2873 H   0  0  0  0  0  0  0  0  0  0  0  0
    2.5805    1.6217   -0.6069 H   0  0  0  0  0  0  0  0  0  0  0  0
    0.7175    1.3134   -0.1548 H   0  0  0  0  0  0  0  0  0  0  0  0
    1.0369    3.6720    1.7717 H   0  0  0  0  0  0  0  0  0  0  0  0
    1.4133    3.6088   -0.0526 H   0  0  0  0  0  0  0  0  0  0  0  0
   -0.6894    4.1295   -0.6287 H   0  0  0  0  0  0  0  0  0  0  0  0
   -0.7421    4.7848    1.0053 H   0  0  0  0  0  0  0  0  0  0  0  0
   -2.6289    3.5797    1.2395 H   0  0  0  0  0  0  0  0  0  0  0  0
   -2.2324    1.4809    2.3974 H   0  0  0  0  0  0  0  0  0  0  0  0
   -1.1294    2.7762    2.8156 H   0  0  0  0  0  0  0  0  0  0  0  0
    0.2362    1.0026    2.7962 H   0  0  0  0  0  0  0  0  0  0  0  0
   -0.5091    0.1879    1.4280 H   0  0  0  0  0  0  0  0  0  0  0  0
   -2.2072    3.1632   -1.1818 H   0  0  0  0  0  0  0  0  0  0  0  0
   -1.5719    1.5910   -0.7636 H   0  0  0  0  0  0  0  0  0  0  0  0
   -4.9618   -4.9003    0.4736 H   0  0  0  0  0  0  0  0  0  0  0  0
   -6.5688   -4.1123    0.9102 H   0  0  0  0  0  0  0  0  0  0  0  0
   -6.3832   -5.0752   -0.5531 H   0  0  0  0  0  0  0  0  0  0  0  0
   -2.1602   -4.8746    1.8713 H   0  0  0  0  0  0  0  0  0  0  0  0
    5.7034    5.0419   -0.0008 H   0  0  0  0  0  0  0  0  0  0  0  0
    7.4267    4.5762   -0.3923 H   0  0  0  0  0  0  0  0  0  0  0  0
    6.1282    4.5863   -1.6573 H   0  0  0  0  0  0  0  0  0  0  0  0
    3.5627    4.1984    0.8512 H   0  0  0  0  0  0  0  0  0  0  0  0
   -5.6562    4.6035   -0.3167 H   0  0  0  0  0  0  0  0  0  0  0  0
   -3.9472    4.6606   -0.8232 H   0  0  0  0  0  0  0  0  0  0  0  0
   -5.1218    3.6296   -1.7187 H   0  0  0  0  0  0  0  0  0  0  0  0
    5.2808   -3.6680   -1.0268 H   0  0  0  0  0  0  0  0  0  0  0  0
    3.5379   -3.8899   -1.0254 H   0  0  0  0  0  0  0  0  0  0  0  0
    4.3212   -2.5773   -2.0109 H   0  0  0  0  0  0  0  0  0  0  0  0
    5.5026   -3.0978    1.6922 H   0  0  0  0  0  0  0  0  0  0  0  0
    3.7412   -2.7080    2.0427 H   0  0  0  0  0  0  0  0  0  0  0  0
    4.2051   -4.1090    1.0090 H   0  0  0  0  0  0  0  0  0  0  0  0
   -4.6014    0.9721    2.4562 H   0  0  0  0  0  0  0  0  0  0  0  0
   -5.7675    2.2851    2.3417 H   0  0  0  0  0  0  0  0  0  0  0  0
   -6.9635    1.5095    0.5999 H   0  0  0  0  0  0  0  0  0  0  0  0
   -6.4954    0.0256    1.4667 H   0  0  0  0  0  0  0  0  0  0  0  0
   -5.7253    1.0463   -1.2479 H   0  0  0  0  0  0  0  0  0  0  0  0
   -3.7664    0.1198    0.8164 H   0  0  0  0  0  0  0  0  0  0  0  0
   -4.4401    2.3643   -1.0299 H   0  0  0  0  0  0  0  0  0  0  0  0
   -6.8163   -1.3309   -0.3086 H   0  0  0  0  0  0  0  0  0  0  0  0
   -6.1091   -1.1047   -1.9478 H   0  0  0  0  0  0  0  0  0  0  0  0
   -4.7525   -1.8951    0.6252 H   0  0  0  0  0  0  0  0  0  0  0  0
   -3.9802   -1.9388   -2.3094 H   0  0  0  0  0  0  0  0  0  0  0  0
   -3.4033    0.1797   -2.2365 H   0  0  0  0  0  0  0  0  0  0  0  0
   -2.1420   -0.1465   -1.0538 H   0  0  0  0  0  0  0  0  0  0  0  0
   -1.1264   -3.8130   -0.6392 H   0  0  0  0  0  0  0  0  0  0  0  0
   -2.1202   -1.8085    1.4184 H   0  0  0  0  0  0  0  0  0  0  0  0
    0.1622   -1.5032    1.7651 H   0  0  0  0  0  0  0  0  0  0  0  0
   -0.1431   -3.0620    2.5454 H   0  0  0  0  0  0  0  0  0  0  0  0
    1.7154   -3.4044    1.3087 H   0  0  0  0  0  0  0  0  0  0  0  0
    0.3802   -4.3288    0.6221 H   0  0  0  0  0  0  0  0  0  0  0  0
    0.9330   -3.4863   -1.4207 H   0  0  0  0  0  0  0  0  0  0  0  0
   -0.3363   -1.5943   -1.9550 H   0  0  0  0  0  0  0  0  0  0  0  0
   -0.1469   -1.0451   -0.1941 H   0  0  0  0  0  0  0  0  0  0  0  0
    1.7771   -0.8433   -1.3255 H   0  0  0  0  0  0  0  0  0  0  0  0
    2.7525   -2.2227   -1.8174 H   0  0  0  0  0  0  0  0  0  0  0  0
    2.6374   -1.5951    1.1244 H   0  0  0  0  0  0  0  0  0  0  0  0
    6.1305   -1.4276    0.6783 H   0  0  0  0  0  0  0  0  0  0  0  0
    6.2407   -2.5945   -0.5910 H   0  0  0  0  0  0  0  0  0  0  0  0
    6.4529   -0.0949   -1.1647 H   0  0  0  0  0  0  0  0  0  0  0  0
    5.7485   -1.2397   -2.3330 H   0  0  0  0  0  0  0  0  0  0  0  0
    3.6216   -0.3878   -2.0321 H   0  0  0  0  0  0  0  0  0  0  0  0
    4.5560   -0.1835    0.8306 H   0  0  0  0  0  0  0  0  0  0  0  0
    3.5992    1.8417   -2.3080 H   0  0  0  0  0  0  0  0  0  0  0  0
    5.3450    1.5903   -2.4129 H   0  0  0  0  0  0  0  0  0  0  0  0
    4.1930    3.4661   -0.8908 H   0  0  0  0  0  0  0  0  0  0  0  0
    4.8661    1.5631    1.2566 H   0  0  0  0  0  0  0  0  0  0  0  0
    2.5116    1.4821   -0.6093 H   0  0  0  0  0  0  0  0  0  0  0  0
    0.5743    1.2062   -0.2690 H   0  0  0  0  0  0  0  0  0  0  0  0
    1.0041    3.6644    1.4579 H   0  0  0  0  0  0  0  0  0  0  0  0
    1.6384    3.2724   -0.2534 H   0  0  0  0  0  0  0  0  0  0  0  0
   -0.3676    3.6101   -1.2147 H   0  0  0  0  0  0  0  0  0  0  0  0
   -0.3406    4.8277    0.0707 H   0  0  0  0  0  0  0  0  0  0  0  0
   -2.3617    4.0935    0.7478 H   0  0  0  0  0  0  0  0  0  0  0  0
   -2.2416    2.2919    2.3885 H   0  0  0  0  0  0  0  0  0  0  0  0
   -0.7582    3.2552    2.3951 H   0  0  0  0  0  0  0  0  0  0  0  0
   -0.2117    0.9842    2.6106 H   0  0  0  0  0  0  0  0  0  0  0  0
   -1.1460    0.5586    1.1685 H   0  0  0  0  0  0  0  0  0  0  0  0
   -2.4533    3.1784   -1.4187 H   0  0  0  0  0  0  0  0  0  0  0  0
   -1.6299    1.7283   -0.9228 H   0  0  0  0  0  0  0  0  0  0  0  0
   -6.3845   -3.5225    1.0705 H   0  0  0  0  0  0  0  0  0  0  0  0
   -4.7462   -4.3200    1.0803 H   0  0  0  0  0  0  0  0  0  0  0  0
   -6.1328   -4.9899    0.1237 H   0  0  0  0  0  0  0  0  0  0  0  0
   -1.4990   -4.2914    2.1196 H   0  0  0  0  0  0  0  0  0  0  0  0
    7.3528    4.3387   -0.6818 H   0  0  0  0  0  0  0  0  0  0  0  0
    6.0186    4.2878   -1.8413 H   0  0  0  0  0  0  0  0  0  0  0  0
    5.7365    4.7696   -0.0786 H   0  0  0  0  0  0  0  0  0  0  0  0
    3.6082    3.9512    1.0502 H   0  0  0  0  0  0  0  0  0  0  0  0
   -4.6748    4.5001    1.5678 H   0  0  0  0  0  0  0  0  0  0  0  0
   -4.5493    4.1802   -0.2265 H   0  0  0  0  0  0  0  0  0  0  0  0
   -5.9931    3.6193    0.6536 H   0  0  0  0  0  0  0  0  0  0  0  0
    4.8968   -4.2656   -0.5400 H   0  0  0  0  0  0  0  0  0  0  0  0
    3.1909   -3.9821   -0.8574 H   0  0  0  0  0  0  0  0  0  0  0  0
    4.5308   -3.1932   -1.8830 H   0  0  0  0  0  0  0  0  0  0  0  0
    4.0364   -2.2948    2.1590 H   0  0  0  0  0  0  0  0  0  0  0  0
    4.0367   -3.9468    1.5300 H   0  0  0  0  0  0  0  0  0  0  0  0
    5.6155   -3.0915    1.5928 H   0  0  0  0  0  0  0  0  0  0  0  0
   -5.8345    2.2495    1.7310 H   0  0  0  0  0  0  0  0  0  0  0  0
   -6.5065    3.3802    0.5606 H   0  0  0  0  0  0  0  0  0  0  0  0
   -6.6580    1.9643   -1.1949 H   0  0  0  0  0  0  0  0  0  0  0  0
   -7.2289    1.0363    0.2692 H   0  0  0  0  0  0  0  0  0  0  0  0
   -5.2168    0.3097   -1.6871 H   0  0  0  0  0  0  0  0  0  0  0  0
   -4.4252    0.8835    1.2150 H   0  0  0  0  0  0  0  0  0  0  0  0
   -3.9640    2.0838   -1.4593 H   0  0  0  0  0  0  0  0  0  0  0  0
   -6.1588   -0.7251    1.0447 H   0  0  0  0  0  0  0  0  0  0  0  0
   -6.8201   -1.1546   -0.5295 H   0  0  0  0  0  0  0  0  0  0  0  0
   -4.7651   -2.4841    0.9169 H   0  0  0  0  0  0  0  0  0  0  0  0
   -3.8523   -1.1716   -1.6812 H   0  0  0  0  0  0  0  0  0  0  0  0
   -2.2117   -0.0093   -0.4996 H   0  0  0  0  0  0  0  0  0  0  0  0
   -2.8111   -0.6166    1.1325 H   0  0  0  0  0  0  0  0  0  0  0  0
   -1.3272   -3.9102   -0.8743 H   0  0  0  0  0  0  0  0  0  0  0  0
   -1.2646   -2.3138    1.6742 H   0  0  0  0  0  0  0  0  0  0  0  0
    0.2162   -3.8969    2.3238 H   0  0  0  0  0  0  0  0  0  0  0  0
   -0.4420   -5.1379    1.2405 H   0  0  0  0  0  0  0  0  0  0  0  0
    1.8352   -4.1979    0.7991 H   0  0  0  0  0  0  0  0  0  0  0  0
    0.8164   -4.4152   -0.6169 H   0  0  0  0  0  0  0  0  0  0  0  0
    0.7513   -1.7888    0.9576 H   0  0  0  0  0  0  0  0  0  0  0  0
    0.1838   -2.6660   -1.9116 H   0  0  0  0  0  0  0  0  0  0  0  0
   -0.2810   -1.1177   -1.2418 H   0  0  0  0  0  0  0  0  0  0  0  0
    2.5470   -2.5661   -1.3239 H   0  0  0  0  0  0  0  0  0  0  0  0
    1.9277   -0.9203   -1.1836 H   0  0  0  0  0  0  0  0  0  0  0  0
    2.7751   -1.3593    1.4007 H   0  0  0  0  0  0  0  0  0  0  0  0
    6.0138   -1.2910    1.4443 H   0  0  0  0  0  0  0  0  0  0  0  0
    6.3972   -2.5941    0.3803 H   0  0  0  0  0  0  0  0  0  0  0  0
    6.8451   -0.2753   -0.5340 H   0  0  0  0  0  0  0  0  0  0  0  0
    6.2030   -1.5087   -1.6207 H   0  0  0  0  0  0  0  0  0  0  0  0
    4.1042   -0.4193   -1.8757 H   0  0  0  0  0  0  0  0  0  0  0  0
    4.6047    0.0547    1.0501 H   0  0  0  0  0  0  0  0  0  0  0  0
    5.3249    1.3254   -2.6009 H   0  0  0  0  0  0  0  0  0  0  0  0
    6.3543    1.4383   -1.1690 H   0  0  0  0  0  0  0  0  0  0  0  0
    3.7288    2.8001   -1.7313 H   0  0  0  0  0  0  0  0  0  0  0  0
    5.0800    1.8884    0.8675 H   0  0  0  0  0  0  0  0  0  0  0  0
    2.5293    1.3194   -0.7016 H   0  0  0  0  0  0  0  0  0  0  0  0
    0.7968    1.4066   -0.2592 H   0  0  0  0  0  0  0  0  0  0  0  0
    1.2059    3.6104    1.8018 H   0  0  0  0  0  0  0  0  0  0  0  0
    1.3869    3.6524   -0.0556 H   0  0  0  0  0  0  0  0  0  0  0  0
   -0.7260    4.3338   -0.3413 H   0  0  0  0  0  0  0  0  0  0  0  0
   -0.6535    4.7590    1.3610 H   0  0  0  0  0  0  0  0  0  0  0  0
   -2.5774    3.5819    1.4474 H   0  0  0  0  0  0  0  0  0  0  0  0
   -2.1469    1.3263    2.3622 H   0  0  0  0  0  0  0  0  0  0  0  0
   -1.0351    2.5644    2.9316 H   0  0  0  0  0  0  0  0  0  0  0  0
    0.2750    0.7745    2.6369 H   0  0  0  0  0  0  0  0  0  0  0  0
   -0.5286    0.1711    1.1946 H   0  0  0  0  0  0  0  0  0  0  0  0
   -2.1827    3.3734   -0.9971 H   0  0  0  0  0  0  0  0  0  0  0  0
   -1.4928    1.7989   -0.7235 H   0  0  0  0  0  0  0  0  0  0  0  0
   -4.9063   -4.7364    0.1882 H   0  0  0  0  0  0  0  0  0  0  0  0
   -6.6205   -4.1048    0.4961 H   0  0  0  0  0  0  0  0  0  0  0  0
   -6.1867   -4.9012   -1.0249 H   0  0  0  0  0  0  0  0  0  0  0  0
   -2.3001   -4.8261    1.6408 H   0  0  0  0  0  0  0  0  0  0  0  0
    5.7474    5.4806   -1.7666 H   0  0  0  0  0  0  0  0  0  0  0  0
    5.0482    4.3684   -2.9499 H   0  0  0  0  0  0  0  0  0  0  0  0
    4.0166    5.0976   -1.6090 H   0  0  0  0  0  0  0  0  0  0  0  0
    3.6464    4.1680    0.5616 H   0  0  0  0  0  0  0  0  0  0  0  0
   -5.3920    4.8769   -0.1204 H   0  0  0  0  0  0  0  0  0  0  0  0
   -3.7331    4.6871   -0.8505 H   0  0  0  0  0  0  0  0  0  0  0  0
   -5.2108    3.8089   -1.5436 H   0  0  0  0  0  0  0  0  0  0  0  0
    5.4268   -3.8074   -0.4355 H   0  0  0  0  0  0  0  0  0  0  0  0
    3.7103   -4.0699   -0.6001 H   0  0  0  0  0  0  0  0  0  0  0  0
    4.5698   -2.7184   -1.5113 H   0  0  0  0  0  0  0  0  0  0  0  0
    5.0856   -2.5824    2.5264 H   0  0  0  0  0  0  0  0  0  0  0  0
    3.3114   -2.9322    2.1833 H   0  0  0  0  0  0  0  0  0  0  0  0
    4.5640   -4.0685    1.6192 H   0  0  0  0  0  0  0  0  0  0  0  0
   -5.6430    2.5737    1.9753 H   0  0  0  0  0  0  0  0  0  0  0  0
   -6.4726    3.4362    0.6698 H   0  0  0  0  0  0  0  0  0  0  0  0
   -7.2610    1.5652   -0.3107 H   0  0  0  0  0  0  0  0  0  0  0  0
   -7.0841    0.9586    1.3447 H   0  0  0  0  0  0  0  0  0  0  0  0
   -5.5504    0.3335   -1.1115 H   0  0  0  0  0  0  0  0  0  0  0  0
   -4.3915    0.9968    1.6489 H   0  0  0  0  0  0  0  0  0  0  0  0
   -4.0821    1.5171   -1.3051 H   0  0  0  0  0  0  0  0  0  0  0  0
   -6.9704   -1.3507   -0.0332 H   0  0  0  0  0  0  0  0  0  0  0  0
   -5.9153   -1.3818    1.4162 H   0  0  0  0  0  0  0  0  0  0  0  0
   -5.4036   -2.1826   -1.4816 H   0  0  0  0  0  0  0  0  0  0  0  0
   -3.7388   -0.6682   -1.3703 H   0  0  0  0  0  0  0  0  0  0  0  0
   -2.3815   -0.5600    0.9406 H   0  0  0  0  0  0  0  0  0  0  0  0
   -3.9013   -1.2260    1.5275 H   0  0  0  0  0  0  0  0  0  0  0  0
   -1.1859   -3.4976   -1.1037 H   0  0  0  0  0  0  0  0  0  0  0  0
   -2.1339   -2.8219    1.6702 H   0  0  0  0  0  0  0  0  0  0  0  0
    0.1807   -2.2458    1.8993 H   0  0  0  0  0  0  0  0  0  0  0  0
    0.0338   -4.0060    2.2019 H   0  0  0  0  0  0  0  0  0  0  0  0
    1.7281   -4.0033    0.7271 H   0  0  0  0  0  0  0  0  0  0  0  0
    0.3038   -4.4962   -0.1426 H   0  0  0  0  0  0  0  0  0  0  0  0
    0.7688   -2.9958   -1.7340 H   0  0  0  0  0  0  0  0  0  0  0  0
   -0.4625   -1.0606   -1.5039 H   0  0  0  0  0  0  0  0  0  0  0  0
   -0.1301   -1.0450    0.2820 H   0  0  0  0  0  0  0  0  0  0  0  0
    1.9064   -0.7687   -1.3949 H   0  0  0  0  0  0  0  0  0  0  0  0
    2.8320   -2.2267   -1.6947 H   0  0  0  0  0  0  0  0  0  0  0  0
    2.5233   -1.4465    1.1702 H   0  0  0  0  0  0  0  0  0  0  0  0
    5.8831   -1.2904    1.3792 H   0  0  0  0  0  0  0  0  0  0  0  0
    6.2970   -2.4760    0.2003 H   0  0  0  0  0  0  0  0  0  0  0  0
    6.6019    0.0367   -0.4097 H   0  0  0  0  0  0  0  0  0  0  0  0
    6.2269   -1.1606   -1.6701 H   0  0  0  0  0  0  0  0  0  0  0  0
    3.9871   -0.5884   -1.8980 H   0  0  0  0  0  0  0  0  0  0  0  0
    4.3800   -0.0066    1.0713 H   0  0  0  0  0  0  0  0  0  0  0  0
    3.8713    1.6021   -2.4147 H   0  0  0  0  0  0  0  0  0  0  0  0
    5.6192    1.3136   -2.3853 H   0  0  0  0  0  0  0  0  0  0  0  0
    4.5228    3.4227   -1.2578 H   0  0  0  0  0  0  0  0  0  0  0  0
    4.7989    1.8351    1.2122 H   0  0  0  0  0  0  0  0  0  0  0  0
    2.5570    1.4728   -0.8054 H   0  0  0  0  0  0  0  0  0  0  0  0
    0.5149    1.2445   -0.0859 H   0  0  0  0  0  0  0  0  0  0  0  0
    1.0113    3.9136    1.2036 H   0  0  0  0  0  0  0  0  0  0  0  0
    1.3781    3.3981   -0.5526 H   0  0  0  0  0  0  0  0  0  0  0  0
   -0.7750    3.6328   -1.1829 H   0  0  0  0  0  0  0  0  0  0  0  0
   -0.7512    4.8186    0.1337 H   0  0  0  0  0  0  0  0  0  0  0  0
   -2.6100    3.7475    0.7803 H   0  0  0  0  0  0  0  0  0  0  0  0
   -2.1115    2.1365    2.5612 H   0  0  0  0  0  0  0  0  0  0  0  0
   -0.8941    3.5152    2.4670 H   0  0  0  0  0  0  0  0  0  0  0  0
    0.3646    1.7239    2.9149 H   0  0  0  0  0  0  0  0  0  0  0  0
   -0.5306    0.5559    1.9631 H   0  0  0  0  0  0  0  0  0  0  0  0
   -2.0356    2.2917   -1.3441 H   0  0  0  0  0  0  0  0  0  0  0  0
   -1.8067    0.9702   -0.2198 H   0  0  0  0  0  0  0  0  0  0  0  0
   -4.8380   -4.3508   -1.6337 H   0  0  0  0  0  0  0  0  0  0  0  0
   -6.5381   -4.1618   -0.9463 H   0  0  0  0  0  0  0  0  0  0  0  0
   -5.3369   -5.2749   -0.1985 H   0  0  0  0  0  0  0  0  0  0  0  0
   -2.5463   -4.8652    1.4661 H   0  0  0  0  0  0  0  0  0  0  0  0
    6.1176    4.7246   -0.4318 H   0  0  0  0  0  0  0  0  0  0  0  0
    7.7512    4.0520   -0.7769 H   0  0  0  0  0  0  0  0  0  0  0  0
    6.4409    4.0617   -2.0430 H   0  0  0  0  0  0  0  0  0  0  0  0
    3.6622    4.2011    0.2922 H   0  0  0  0  0  0  0  0  0  0  0  0
   -4.6982    4.8770   -0.3063 H   0  0  0  0  0  0  0  0  0  0  0  0
   -3.7047    3.9075   -1.4108 H   0  0  0  0  0  0  0  0  0  0  0  0
   -5.5464    3.8414   -1.4697 H   0  0  0  0  0  0  0  0  0  0  0  0
    5.1900   -3.9484   -0.3365 H   0  0  0  0  0  0  0  0  0  0  0  0
    3.5062   -3.9251   -0.8281 H   0  0  0  0  0  0  0  0  0  0  0  0
    4.7654   -2.8429   -1.6349 H   0  0  0  0  0  0  0  0  0  0  0  0
    4.9883   -2.5467    2.3563 H   0  0  0  0  0  0  0  0  0  0  0  0
    3.2420   -2.8303    2.1542 H   0  0  0  0  0  0  0  0  0  0  0  0
    4.4812   -4.0227    1.5146 H   0  0  0  0  0  0  0  0  0  0  0  0
   -5.7953    1.9154    1.6898 H   0  0  0  0  0  0  0  0  0  0  0  0
   -6.5771    3.1837    0.7367 H   0  0  0  0  0  0  0  0  0  0  0  0
   -6.6767    2.0251   -1.2437 H   0  0  0  0  0  0  0  0  0  0  0  0
   -7.2559    0.9487    0.0381 H   0  0  0  0  0  0  0  0  0  0  0  0
   -5.2891    0.3712   -1.8844 H   0  0  0  0  0  0  0  0  0  0  0  0
   -4.2924    0.7388    0.9779 H   0  0  0  0  0  0  0  0  0  0  0  0
   -4.2208    2.2432   -1.5600 H   0  0  0  0  0  0  0  0  0  0  0  0
   -6.4677   -0.9458    0.5854 H   0  0  0  0  0  0  0  0  0  0  0  0
   -6.4880   -1.4613   -1.1098 H   0  0  0  0  0  0  0  0  0  0  0  0
   -4.4450   -1.8298    1.0428 H   0  0  0  0  0  0  0  0  0  0  0  0
   -4.0368   -1.3765   -1.9046 H   0  0  0  0  0  0  0  0  0  0  0  0
   -2.4251    0.0741   -1.3242 H   0  0  0  0  0  0  0  0  0  0  0  0
   -2.4747   -0.4833    0.4599 H   0  0  0  0  0  0  0  0  0  0  0  0
   -0.8980   -3.4214   -1.5110 H   0  0  0  0  0  0  0  0  0  0  0  0
   -2.0588   -3.5510    1.2806 H   0  0  0  0  0  0  0  0  0  0  0  0
    0.0868   -4.0002    1.7589 H   0  0  0  0  0  0  0  0  0  0  0  0
   -0.1296   -5.4814    0.8171 H   0  0  0  0  0  0  0  0  0  0  0  0
    1.8373   -4.3738    0.2327 H   0  0  0  0  0  0  0  0  0  0  0  0
    0.8353   -4.4082   -1.1998 H   0  0  0  0  0  0  0  0  0  0  0  0
    1.3374   -2.1387   -1.2980 H   0  0  0  0  0  0  0  0  0  0  0  0
   -0.3956   -0.9106   -0.6219 H   0  0  0  0  0  0  0  0  0  0  0  0
   -0.5875   -1.8527    0.9553 H   0  0  0  0  0  0  0  0  0  0  0  0
    1.1784   -1.1081    1.4298 H   0  0  0  0  0  0  0  0  0  0  0  0
    1.9729   -2.6690    1.5754 H   0  0  0  0  0  0  0  0  0  0  0  0
    3.3523   -0.6567    1.5478 H   0  0  0  0  0  0  0  0  0  0  0  0
    5.4398   -0.9043    1.6127 H   0  0  0  0  0  0  0  0  0  0  0  0
    6.2449   -2.2141    0.7477 H   0  0  0  0  0  0  0  0  0  0  0  0
    6.3456    0.2519   -0.2621 H   0  0  0  0  0  0  0  0  0  0  0  0
    6.3083   -1.1978   -1.2634 H   0  0  0  0  0  0  0  0  0  0  0  0
    4.2952   -0.7687   -2.1676 H   0  0  0  0  0  0  0  0  0  0  0  0
    2.3239   -0.3691   -1.1726 H   0  0  0  0  0  0  0  0  0  0  0  0
    3.8570    1.5211   -2.4689 H   0  0  0  0  0  0  0  0  0  0  0  0
    5.6438    1.1571   -2.4512 H   0  0  0  0  0  0  0  0  0  0  0  0
    4.5142    3.2514   -1.1537 H   0  0  0  0  0  0  0  0  0  0  0  0
    4.7981    1.3465    1.2000 H   0  0  0  0  0  0  0  0  0  0  0  0
    2.6086    1.8405   -0.8699 H   0  0  0  0  0  0  0  0  0  0  0  0
    0.5970    1.5495   -0.4258 H   0  0  0  0  0  0  0  0  0  0  0  0
    1.1551    3.8985    1.4801 H   0  0  0  0  0  0  0  0  0  0  0  0
    1.5739    3.7285   -0.2289 H   0  0  0  0  0  0  0  0  0  0  0  0
   -0.4829    4.0283   -1.0524 H   0  0  0  0  0  0  0  0  0  0  0  0
   -0.5580    5.0551    0.3749 H   0  0  0  0  0  0  0  0  0  0  0  0
   -2.4811    4.0362    0.9103 H   0  0  0  0  0  0  0  0  0  0  0  0
   -2.2230    1.8295    2.1374 H   0  0  0  0  0  0  0  0  0  0  0  0
   -1.1821    3.1703    2.5758 H   0  0  0  0  0  0  0  0  0  0  0  0
    0.2474    1.4504    2.6397 H   0  0  0  0  0  0  0  0  0  0  0  0
   -0.5512    0.5330    1.3685 H   0  0  0  0  0  0  0  0  0  0  0  0
   -2.3737    3.4286   -1.3932 H   0  0  0  0  0  0  0  0  0  0  0  0
   -1.6485    1.9002   -1.0368 H   0  0  0  0  0  0  0  0  0  0  0  0
   -5.9436   -3.5311    1.7307 H   0  0  0  0  0  0  0  0  0  0  0  0
   -4.2987   -4.3194    1.4727 H   0  0  0  0  0  0  0  0  0  0  0  0
   -5.7617   -4.9715    0.7241 H   0  0  0  0  0  0  0  0  0  0  0  0
   -2.1529   -5.8227    0.2666 H   0  0  0  0  0  0  0  0  0  0  0  0
    6.0657    4.5544   -0.1266 H   0  0  0  0  0  0  0  0  0  0  0  0
    7.7234    3.9856   -0.4020 H   0  0  0  0  0  0  0  0  0  0  0  0
    6.6353    4.1434   -1.8291 H   0  0  0  0  0  0  0  0  0  0  0  0
    3.8517    3.8828    0.5105 H   0  0  0  0  0  0  0  0  0  0  0  0
   -5.1445    4.9753    0.4116 H   0  0  0  0  0  0  0  0  0  0  0  0
   -3.9501    4.6222   -0.8939 H   0  0  0  0  0  0  0  0  0  0  0  0
   -5.7030    4.0738   -1.0420 H   0  0  0  0  0  0  0  0  0  0  0  0
    5.3108   -3.0347   -1.0285 H   0  0  0  0  0  0  0  0  0  0  0  0
    4.1774   -4.1048   -0.2047 H   0  0  0  0  0  0  0  0  0  0  0  0
    3.5883   -2.9196   -1.3802 H   0  0  0  0  0  0  0  0  0  0  0  0
    5.1675   -3.1500    2.1454 H   0  0  0  0  0  0  0  0  0  0  0  0
    3.6848   -2.2357    2.5964 H   0  0  0  0  0  0  0  0  0  0  0  0
    3.6071   -3.8746    1.7473 H   0  0  0  0  0  0  0  0  0  0  0  0
  1  2  1  0
  2  3  1  0
  3  4  1  0
  4  5  1  0
  1  6  1  0
  5  6  1  0
  4  7  1  0
  7  8  1  0
  8  9  1  0
  5 10  1  0
  9 10  1  0
  9 11  1  0
 11 12  1  0
 12 13  1  0
 13 14  1  0
 14 15  1  0
 15 16  1  0
 12 17  1  0
 16 17  1  0
 16 18  1  0
 18 19  1  0
 19 20  1  0
 20 21  1  0
 21 22  1  0
 22 23  1  0
 19 24  1  0
 23 24  1  0
 23 25  1  0
 25 26  1  0
 26 27  1  0
 24 28  1  0
 27 28  1  0
 28 29  1  0
 29 30  1  0
 30 31  1  0
 31 32  1  0
 32 33  1  0
 33 34  1  0
 30 35  1  0
 34 35  1  0
  6 36  1  0
 33 36  1  0
  8 37  1  0
 37 38  1  0
 13 39  1  0
 26 40  1  0
 40 41  1  0
 27 42  1  0
  1 43  1  0
 20 44  1  0
 20 45  1  0
 46 47  1  0
 47 48  1  0
 48 49  1  0
 49 50  1  0
 46 51  1  0
 50 51  1  0
 49 52  1  0
 52 53  1  0
 53 54  1  0
 50 55  1  0
 54 55  1  0
 54 56  1  0
 56 57  1  0
 57 58  1  0
 58 59  1  0
 59 60  1  0
 60 61  1  0
 57 62  1  0
 61 62  1  0
 61 63  1  0
 63 64  1  0
 64 65  1  0
 65 66  1  0
 66 67  1  0
 67 68  1  0
 64 69  1  0
 68 69  1  0
 68 70  1  0
 70 71  1  0
 71 72  1  0
 69 73  1  0
 72 73  1  0
 73 74  1  0
 74 75  1  0
 75 76  1  0
 76 77  1  0
 77 78  1  0
 78 79  1  0
 75 80  1  0
 79 80  1  0
 51 81  1  0
 78 81  1  0
 53 82  1  0
 82 83  1  0
 58 84  1  0
 71 85  1  0
 85 86  1  0
 72 87  1  0
 46 88  1  0
 65 89  1  0
 65 90  1  0
 91 92  1  0
 92 93  1  0
 93 94  1  0
 94 95  1  0
 91 96  1  0
 95 96  1  0
 94 97  1  0
 97 98  1  0
 98 99  1  0
 95100  1  0
 99100  1  0
 99101  1  0
101102  1  0
102103  1  0
103104  1  0
104105  1  0
105106  1  0
102107  1  0
106107  1  0
106108  1  0
108109  1  0
109110  1  0
110111  1  0
111112  1  0
112113  1  0
109114  1  0
113114  1  0
113115  1  0
115116  1  0
116117  1  0
114118  1  0
117118  1  0
118119  1  0
119120  1  0
120121  1  0
121122  1  0
122123  1  0
123124  1  0
120125  1  0
124125  1  0
 96126  1  0
123126  1  0
 98127  1  0
127128  1  0
103129  1  0
116130  1  0
130131  1  0
117132  1  0
 91133  1  0
110134  1  0
110135  1  0
136137  1  0
137138  1  0
138139  1  0
139140  1  0
136141  1  0
140141  1  0
139142  1  0
142143  1  0
143144  1  0
140145  1  0
144145  1  0
144146  1  0
146147  1  0
147148  1  0
148149  1  0
149150  1  0
150151  1  0
147152  1  0
151152  1  0
151153  1  0
153154  1  0
154155  1  0
155156  1  0
156157  1  0
157158  1  0
154159  1  0
158159  1  0
158160  1  0
160161  1  0
161162  1  0
159163  1  0
162163  1  0
163164  1  0
164165  1  0
165166  1  0
166167  1  0
167168  1  0
168169  1  0
165170  1  0
169170  1  0
141171  1  0
168171  1  0
143172  1  0
172173  1  0
148174  1  0
161175  1  0
175176  1  0
162177  1  0
136178  1  0
155179  1  0
155180  1  0
181182  1  0
182183  1  0
183184  1  0
184185  1  0
181186  1  0
185186  1  0
184187  1  0
187188  1  0
188189  1  0
185190  1  0
189190  1  0
189191  1  0
191192  1  0
192193  1  0
193194  1  0
194195  1  0
195196  1  0
192197  1  0
196197  1  0
196198  1  0
198199  1  0
199200  1  0
200201  1  0
201202  1  0
202203  1  0
199204  1  0
203204  1  0
203205  1  0
205206  1  0
206207  1  0
204208  1  0
207208  1  0
208209  1  0
209210  1  0
210211  1  0
211212  1  0
212213  1  0
213214  1  0
210215  1  0
214215  1  0
186216  1  0
213216  1  0
188217  1  0
217218  1  0
193219  1  0
206220  1  0
220221  1  0
207222  1  0
181223  1  0
200224  1  0
200225  1  0
  2226  1  0
  2227  1  0
  3228  1  0
  3229  1  0
  4230  1  0
  5231  1  0
  6232  1  6
  7233  1  0
  7234  1  0
  8235  1  0
  9236  1  6
 10237  1  0
 10238  1  0
 12239  1  6
 13240  1  0
 14241  1  0
 14242  1  0
 15243  1  0
 15244  1  0
 16245  1  1
 17246  1  0
 17247  1  0
 18248  1  0
 18249  1  0
 19250  1  1
 21251  1  0
 21252  1  0
 22253  1  0
 22254  1  0
 23255  1  0
 24256  1  1
 25257  1  0
 25258  1  0
 26259  1  0
 27260  1  1
 28261  1  6
 30262  1  0
 31263  1  0
 31264  1  0
 32265  1  0
 32266  1  0
 33267  1  0
 34268  1  0
 34269  1  0
 35270  1  0
 35271  1  0
 36272  1  0
 36273  1  0
 38274  1  0
 38275  1  0
 38276  1  0
 39277  1  0
 41278  1  0
 41279  1  0
 41280  1  0
 42281  1  0
 43282  1  0
 43283  1  0
 43284  1  0
 44285  1  0
 44286  1  0
 44287  1  0
 45288  1  0
 45289  1  0
 45290  1  0
 47291  1  0
 47292  1  0
 48293  1  0
 48294  1  0
 49295  1  0
 50296  1  1
 51297  1  6
 52298  1  0
 52299  1  0
 53300  1  0
 54301  1  0
 55302  1  0
 55303  1  0
 57304  1  0
 58305  1  0
 59306  1  0
 59307  1  0
 60308  1  0
 60309  1  0
 61310  1  0
 62311  1  0
 62312  1  0
 63313  1  0
 63314  1  0
 64315  1  1
 66316  1  0
 66317  1  0
 67318  1  0
 67319  1  0
 68320  1  0
 69321  1  1
 70322  1  0
 70323  1  0
 71324  1  0
 72325  1  0
 73326  1  6
 75327  1  0
 76328  1  0
 76329  1  0
 77330  1  0
 77331  1  0
 78332  1  0
 79333  1  0
 79334  1  0
 80335  1  0
 80336  1  0
 81337  1  0
 81338  1  0
 83339  1  0
 83340  1  0
 83341  1  0
 84342  1  0
 86343  1  0
 86344  1  0
 86345  1  0
 87346  1  0
 88347  1  0
 88348  1  0
 88349  1  0
 89350  1  0
 89351  1  0
 89352  1  0
 90353  1  0
 90354  1  0
 90355  1  0
 92356  1  0
 92357  1  0
 93358  1  0
 93359  1  0
 94360  1  0
 95361  1  0
 96362  1  6
 97363  1  0
 97364  1  0
 98365  1  0
 99366  1  0
100367  1  0
100368  1  0
102369  1  0
103370  1  0
104371  1  0
104372  1  0
105373  1  0
105374  1  0
106375  1  1
107376  1  0
107377  1  0
108378  1  0
108379  1  0
109380  1  1
111381  1  0
111382  1  0
112383  1  0
112384  1  0
113385  1  0
114386  1  1
115387  1  0
115388  1  0
116389  1  0
117390  1  0
118391  1  6
120392  1  0
121393  1  0
121394  1  0
122395  1  0
122396  1  0
123397  1  0
124398  1  0
124399  1  0
125400  1  0
125401  1  0
126402  1  0
126403  1  0
128404  1  0
128405  1  0
128406  1  0
129407  1  0
131408  1  0
131409  1  0
131410  1  0
132411  1  0
133412  1  0
133413  1  0
133414  1  0
134415  1  0
134416  1  0
134417  1  0
135418  1  0
135419  1  0
135420  1  0
137421  1  0
137422  1  0
138423  1  0
138424  1  0
139425  1  0
140426  1  0
141427  1  6
142428  1  0
142429  1  0
143430  1  6
144431  1  6
145432  1  0
145433  1  0
147434  1  6
148435  1  0
149436  1  0
149437  1  0
150438  1  0
150439  1  0
151440  1  0
152441  1  0
152442  1  0
153443  1  0
153444  1  0
154445  1  1
156446  1  0
156447  1  0
157448  1  0
157449  1  0
158450  1  0
159451  1  1
160452  1  0
160453  1  0
161454  1  0
162455  1  0
163456  1  6
165457  1  0
166458  1  0
166459  1  0
167460  1  0
167461  1  0
168462  1  0
169463  1  0
169464  1  0
170465  1  0
170466  1  0
171467  1  0
171468  1  0
173469  1  0
173470  1  0
173471  1  0
174472  1  0
176473  1  0
176474  1  0
176475  1  0
177476  1  0
178477  1  0
178478  1  0
178479  1  0
179480  1  0
179481  1  0
179482  1  0
180483  1  0
180484  1  0
180485  1  0
182486  1  0
182487  1  0
183488  1  0
183489  1  0
184490  1  0
185491  1  0
186492  1  6
187493  1  0
187494  1  0
188495  1  0
189496  1  6
190497  1  0
190498  1  0
192499  1  0
193500  1  0
194501  1  0
194502  1  0
195503  1  0
195504  1  0
196505  1  0
197506  1  0
197507  1  0
198508  1  0
198509  1  0
199510  1  1
201511  1  0
201512  1  0
202513  1  0
202514  1  0
203515  1  0
204516  1  0
205517  1  0
205518  1  0
206519  1  0
207520  1  0
208521  1  6
210522  1  0
211523  1  0
211524  1  0
212525  1  0
212526  1  0
213527  1  0
214528  1  0
214529  1  0
215530  1  0
215531  1  0
216532  1  0
216533  1  0
218534  1  0
218535  1  0
218536  1  0
219537  1  0
221538  1  0
221539  1  0
221540  1  0
222541  1  0
223542  1  0
223543  1  0
223544  1  0
224545  1  0
224546  1  0
224547  1  0
225548  1  0
225549  1  0
225550  1  0
M  CHG  5  20   1  65   1 110   1 155   1 200   1
M  END
>  <PDBID>  (1) 
2XYT

>  <PDB ID>  (1) 
2XYT

>  <Generic Name>  (1) 
Tubocurarine

>  <Brand Name>  (1) 
Tubocurarine Chloride Inj 3mg/ml#Tubocurarine Chloride Inj 3mg/ml USP#Tubarine

>  <DrugBank ID>  (1) 
DB01199

>  <ATC Codes>  (1) 
M03AA02

>  <Ligand ID>  (1) 
TC9,TUB

>  <Target Name>  (1) 
Neuronal acetylcholine receptor subunit alpha-2

>  <UniProt ID>  (1) 
Q15822

>  <PDB ID.1>  (1) 
2XYT

>  <Seq. Identity>  (1) 
31%

$$$$
