PDB_DB04552_09
     RDKit          3D

 43 44  0  0  0  0  0  0  0  0999 V2000
    3.2231    3.3742   -0.1405 F   0  0  0  0  0  0  0  0  0  0  0  0
    3.7444    2.1928    0.2801 C   0  0  0  0  0  0  0  0  0  0  0  0
    5.0929    2.1660   -0.0794 F   0  0  0  0  0  0  0  0  0  0  0  0
    3.6515    2.0248    1.6603 F   0  0  0  0  0  0  0  0  0  0  0  0
    3.1072    0.9964   -0.4029 C   0  0  2  0  0  0  0  0  0  0  0  0
    1.6212    0.9371   -0.1650 C   0  0  0  0  0  0  0  0  0  0  0  0
    1.2446   -0.1308    0.8195 C   0  0  0  0  0  0  0  0  0  0  0  0
    1.5654   -1.4847    0.1866 C   0  0  0  0  0  0  0  0  0  0  0  0
    2.9486   -1.4365   -0.3837 C   0  0  0  0  0  0  0  0  0  0  0  0
    3.7542   -0.2817    0.1163 C   0  0  0  0  0  0  0  0  0  0  0  0
   -0.1295   -0.0693    1.2246 N   0  0  0  0  0  0  0  0  0  0  0  0
   -1.0824   -0.3660    0.1635 C   0  0  0  0  0  0  0  0  0  0  0  0
   -1.3066   -1.8202    0.3051 N   0  0  0  0  0  0  0  0  0  0  0  0
   -2.3513    0.3538    0.4530 C   0  0  0  0  0  0  0  0  0  0  0  0
   -2.3090    1.7914   -0.0261 C   0  0  0  0  0  0  0  0  0  0  0  0
   -1.3173    2.5360    0.5520 O   0  0  0  0  0  0  0  0  0  0  0  0
   -3.5410    2.3806    0.2451 O   0  0  0  0  0  0  0  0  0  0  0  0
   -3.5878   -0.2441   -0.1521 C   0  0  0  0  0  0  0  0  0  0  0  0
   -3.6041   -1.7325   -0.2323 C   0  0  0  0  0  0  0  0  0  0  0  0
   -2.2491   -2.2383   -0.6845 C   0  0  0  0  0  0  0  0  0  0  0  0
    3.3440    1.0718   -1.4666 H   0  0  0  0  0  0  0  0  0  0  0  0
    1.2995    1.9098    0.2771 H   0  0  0  0  0  0  0  0  0  0  0  0
    1.1208    0.7591   -1.1291 H   0  0  0  0  0  0  0  0  0  0  0  0
    1.8758   -0.0529    1.7210 H   0  0  0  0  0  0  0  0  0  0  0  0
    1.4916   -2.2567    0.9593 H   0  0  0  0  0  0  0  0  0  0  0  0
    0.8521   -1.6737   -0.6370 H   0  0  0  0  0  0  0  0  0  0  0  0
    2.9458   -1.3628   -1.5115 H   0  0  0  0  0  0  0  0  0  0  0  0
    3.5195   -2.3751   -0.1839 H   0  0  0  0  0  0  0  0  0  0  0  0
    4.7596   -0.3448   -0.3025 H   0  0  0  0  0  0  0  0  0  0  0  0
    3.8638   -0.2815    1.2239 H   0  0  0  0  0  0  0  0  0  0  0  0
   -0.3100   -0.6836    2.0327 H   0  0  0  0  0  0  0  0  0  0  0  0
   -0.6405   -0.1733   -0.8109 H   0  0  0  0  0  0  0  0  0  0  0  0
   -1.7791   -1.8985    1.2570 H   0  0  0  0  0  0  0  0  0  0  0  0
   -2.4833    0.3934    1.5547 H   0  0  0  0  0  0  0  0  0  0  0  0
   -2.2188    1.7825   -1.1543 H   0  0  0  0  0  0  0  0  0  0  0  0
   -1.3694    3.4442    0.1858 H   0  0  0  0  0  0  0  0  0  0  0  0
   -4.0215    1.9789    0.9867 H   0  0  0  0  0  0  0  0  0  0  0  0
   -3.7241    0.1723   -1.1665 H   0  0  0  0  0  0  0  0  0  0  0  0
   -4.4718    0.0684    0.4560 H   0  0  0  0  0  0  0  0  0  0  0  0
   -3.7975   -2.1689    0.7589 H   0  0  0  0  0  0  0  0  0  0  0  0
   -4.3834   -2.0414   -0.9594 H   0  0  0  0  0  0  0  0  0  0  0  0
   -2.3244   -3.3573   -0.6955 H   0  0  0  0  0  0  0  0  0  0  0  0
   -2.0238   -1.8592   -1.6967 H   0  0  0  0  0  0  0  0  0  0  0  0
  2  1  1  0
  2  3  1  0
  2  4  1  0
  2  5  1  0
  5  6  1  0
  6  7  1  0
  7  8  1  0
  8  9  1  0
  5 10  1  0
  9 10  1  0
  7 11  1  0
 11 12  1  0
 12 13  1  0
 12 14  1  0
 14 15  1  0
 15 16  1  0
 15 17  1  0
 14 18  1  0
 18 19  1  0
 13 20  1  0
 19 20  1  0
  5 21  1  6
  6 22  1  0
  6 23  1  0
  7 24  1  0
  8 25  1  0
  8 26  1  0
  9 27  1  0
  9 28  1  0
 10 29  1  0
 10 30  1  0
 11 31  1  0
 12 32  1  0
 13 33  1  0
 14 34  1  0
 15 35  1  0
 16 36  1  0
 17 37  1  0
 18 38  1  0
 18 39  1  0
 19 40  1  0
 19 41  1  0
 20 42  1  0
 20 43  1  0
M  END
>  <PDBID>  (1) 
1TD7

>  <PDB ID>  (1) 
1TD7

>  <Generic Name>  (1) 
Niflumic Acid

>  <Brand Name>  (1) 
Niflam#Niflugel#Nifluril

>  <DrugBank ID>  (1) 
DB04552

>  <ATC Codes>  (1) 
M02AA17#M01AX02

>  <Ligand ID>  (1) 
NFL

>  <Target Name>  (1) 
Phospholipase A2

>  <UniProt ID>  (1) 
P04054

>  <PDB ID.1>  (1) 
1TD7

>  <Seq. Identity>  (1) 
43%

$$$$
