PDB_DB01261_02
     RDKit          3D

110114  0  0  0  0  0  0  0  0999 V2000
   -5.6814    1.3010    0.6263 C   0  0  0  0  0  0  0  0  0  0  0  0
   -4.3521    1.0970   -0.0405 C   0  0  0  0  0  0  0  0  0  0  0  0
   -4.0441   -0.3591   -0.2242 C   0  0  0  0  0  0  0  0  0  0  0  0
   -5.1335   -0.9568   -1.1154 C   0  0  0  0  0  0  0  0  0  0  0  0
   -6.4888   -0.7740   -0.4937 C   0  0  0  0  0  0  0  0  0  0  0  0
   -6.4806    0.0391    0.7608 C   0  0  0  0  0  0  0  0  0  0  0  0
   -7.3585   -0.2644   -1.4430 F   0  0  0  0  0  0  0  0  0  0  0  0
   -4.3670    1.7376   -1.2477 F   0  0  0  0  0  0  0  0  0  0  0  0
   -2.7486   -0.5605   -0.9416 C   0  0  0  0  0  0  0  0  0  0  0  0
   -1.6018    0.0411   -0.1975 C   0  0  2  0  0  0  0  0  0  0  0  0
   -0.2951   -0.1673   -0.9321 C   0  0  0  0  0  0  0  0  0  0  0  0
    0.8675    0.4423   -0.1771 C   0  0  1  0  0  0  0  0  0  0  0  0
    2.1109    0.2648   -0.8434 N   0  0  0  0  0  0  0  0  0  0  0  0
   -1.5049   -0.4585    1.1414 N   0  0  0  0  0  0  0  0  0  0  0  0
    0.5705    1.8080   -0.0388 O   0  0  0  0  0  0  0  0  0  0  0  0
    2.5833   -1.0425   -1.0373 C   0  0  0  0  0  0  0  0  0  0  0  0
    3.8774   -1.4265   -0.4104 C   0  0  0  0  0  0  0  0  0  0  0  0
    4.7681   -0.3175   -0.3273 N   0  0  0  0  0  0  0  0  0  0  0  0
    4.0480    0.7013    0.4570 C   0  0  0  0  0  0  0  0  0  0  0  0
    3.0429    1.2828   -0.4798 C   0  0  0  0  0  0  0  0  0  0  0  0
    5.9378   -0.5133    0.4578 C   0  0  0  0  0  0  0  0  0  0  0  0
    6.0848    0.6592    1.3050 N   0  0  0  0  0  0  0  0  0  0  0  0
    5.1047    1.5762    0.8386 N   0  0  0  0  0  0  0  0  0  0  0  0
    7.1372   -0.4897   -0.4981 C   0  0  0  0  0  0  0  0  0  0  0  0
    8.3201   -0.6703    0.1593 F   0  0  0  0  0  0  0  0  0  0  0  0
    6.9458   -1.5008   -1.4362 F   0  0  0  0  0  0  0  0  0  0  0  0
    7.0622    0.7010   -1.1882 F   0  0  0  0  0  0  0  0  0  0  0  0
   -6.1242   -0.7088    1.8720 F   0  0  0  0  0  0  0  0  0  0  0  0
   -5.8596    1.3101    0.3962 C   0  0  0  0  0  0  0  0  0  0  0  0
   -4.4701    1.1925   -0.1875 C   0  0  0  0  0  0  0  0  0  0  0  0
   -4.1065   -0.2575   -0.3210 C   0  0  0  0  0  0  0  0  0  0  0  0
   -5.0473   -0.8373   -1.3864 C   0  0  0  0  0  0  0  0  0  0  0  0
   -6.4448   -0.7804   -0.8678 C   0  0  0  0  0  0  0  0  0  0  0  0
   -6.6262    0.0243    0.3765 C   0  0  0  0  0  0  0  0  0  0  0  0
   -7.3157   -0.2786   -1.8399 F   0  0  0  0  0  0  0  0  0  0  0  0
   -4.5416    1.7173   -1.4779 F   0  0  0  0  0  0  0  0  0  0  0  0
   -2.7113   -0.4497   -0.8526 C   0  0  0  0  0  0  0  0  0  0  0  0
   -1.6522    0.1732    0.0377 C   0  0  2  0  0  0  0  0  0  0  0  0
   -0.3201   -0.0788   -0.5893 C   0  0  0  0  0  0  0  0  0  0  0  0
    0.8446    0.5050    0.2082 C   0  0  0  0  0  0  0  0  0  0  0  0
    2.0810    0.2431   -0.4338 N   0  0  0  0  0  0  0  0  0  0  0  0
   -1.7309   -0.4042    1.3513 N   0  0  0  0  0  0  0  0  0  0  0  0
    0.8069    0.0303    1.5232 O   0  0  0  0  0  0  0  0  0  0  0  0
    2.5091   -1.0682   -0.6054 C   0  0  0  0  0  0  0  0  0  0  0  0
    3.8798   -1.4417   -0.1137 C   0  0  0  0  0  0  0  0  0  0  0  0
    4.7400   -0.3186   -0.2979 N   0  0  0  0  0  0  0  0  0  0  0  0
    4.1760    0.7321    0.5656 C   0  0  0  0  0  0  0  0  0  0  0  0
    3.0216    1.2863   -0.2015 C   0  0  0  0  0  0  0  0  0  0  0  0
    6.0696   -0.4573    0.1777 C   0  0  0  0  0  0  0  0  0  0  0  0
    6.3511    0.7532    0.9476 N   0  0  0  0  0  0  0  0  0  0  0  0
    5.2971    1.6322    0.6654 N   0  0  0  0  0  0  0  0  0  0  0  0
    6.9967   -0.3828   -1.0436 C   0  0  0  0  0  0  0  0  0  0  0  0
    8.3159   -0.5083   -0.6799 F   0  0  0  0  0  0  0  0  0  0  0  0
    6.6197   -1.3823   -1.9403 F   0  0  0  0  0  0  0  0  0  0  0  0
    6.7826    0.8240   -1.6758 F   0  0  0  0  0  0  0  0  0  0  0  0
   -6.3863   -0.7439    1.5141 F   0  0  0  0  0  0  0  0  0  0  0  0
   -6.3190    2.0285    0.0511 H   0  0  0  0  0  0  0  0  0  0  0  0
   -5.5856    1.7504    1.6445 H   0  0  0  0  0  0  0  0  0  0  0  0
   -3.5899    1.5986    0.5996 H   0  0  0  0  0  0  0  0  0  0  0  0
   -3.9883   -0.8826    0.7460 H   0  0  0  0  0  0  0  0  0  0  0  0
   -5.0844   -0.3763   -2.0647 H   0  0  0  0  0  0  0  0  0  0  0  0
   -4.9132   -2.0185   -1.3596 H   0  0  0  0  0  0  0  0  0  0  0  0
   -6.8766   -1.7909   -0.2345 H   0  0  0  0  0  0  0  0  0  0  0  0
   -7.5485    0.3592    0.9414 H   0  0  0  0  0  0  0  0  0  0  0  0
   -2.6059   -1.6609   -1.0731 H   0  0  0  0  0  0  0  0  0  0  0  0
   -2.8188   -0.1132   -1.9575 H   0  0  0  0  0  0  0  0  0  0  0  0
   -1.7557    1.1536   -0.1690 H   0  0  0  0  0  0  0  0  0  0  0  0
   -0.1116   -1.2531   -1.0152 H   0  0  0  0  0  0  0  0  0  0  0  0
   -0.3208    0.2360   -1.9542 H   0  0  0  0  0  0  0  0  0  0  0  0
    0.9287    0.0501    0.8638 H   0  0  0  0  0  0  0  0  0  0  0  0
   -0.8834   -1.2805    1.2577 H   0  0  0  0  0  0  0  0  0  0  0  0
   -1.2679    0.2556    1.8563 H   0  0  0  0  0  0  0  0  0  0  0  0
    0.5147    2.1043    0.8866 H   0  0  0  0  0  0  0  0  0  0  0  0
    2.6046   -1.3180   -2.1307 H   0  0  0  0  0  0  0  0  0  0  0  0
    1.8082   -1.7535   -0.6180 H   0  0  0  0  0  0  0  0  0  0  0  0
    4.3746   -2.1966   -1.0685 H   0  0  0  0  0  0  0  0  0  0  0  0
    3.7541   -1.9515    0.5676 H   0  0  0  0  0  0  0  0  0  0  0  0
    3.5668    0.1735    1.2958 H   0  0  0  0  0  0  0  0  0  0  0  0
    2.4752    2.1315   -0.0496 H   0  0  0  0  0  0  0  0  0  0  0  0
    3.5803    1.5919   -1.4032 H   0  0  0  0  0  0  0  0  0  0  0  0
    5.9496   -1.4452    1.0530 H   0  0  0  0  0  0  0  0  0  0  0  0
    7.0437    1.0763    1.2478 H   0  0  0  0  0  0  0  0  0  0  0  0
    4.7884    2.0897    1.7111 H   0  0  0  0  0  0  0  0  0  0  0  0
   -6.4599    2.0959   -0.1105 H   0  0  0  0  0  0  0  0  0  0  0  0
   -5.7767    1.6279    1.4672 H   0  0  0  0  0  0  0  0  0  0  0  0
   -3.7524    1.7742    0.4049 H   0  0  0  0  0  0  0  0  0  0  0  0
   -4.1978   -0.7904    0.6360 H   0  0  0  0  0  0  0  0  0  0  0  0
   -4.9706   -0.1456   -2.2572 H   0  0  0  0  0  0  0  0  0  0  0  0
   -4.7164   -1.8478   -1.6829 H   0  0  0  0  0  0  0  0  0  0  0  0
   -6.7673   -1.8268   -0.6580 H   0  0  0  0  0  0  0  0  0  0  0  0
   -7.7161    0.2935    0.4383 H   0  0  0  0  0  0  0  0  0  0  0  0
   -2.5251   -1.5406   -0.9199 H   0  0  0  0  0  0  0  0  0  0  0  0
   -2.6634    0.0459   -1.8460 H   0  0  0  0  0  0  0  0  0  0  0  0
   -1.8047    1.2776    0.0955 H   0  0  0  0  0  0  0  0  0  0  0  0
   -0.1534   -1.1811   -0.6456 H   0  0  0  0  0  0  0  0  0  0  0  0
   -0.2923    0.2778   -1.6369 H   0  0  0  0  0  0  0  0  0  0  0  0
    0.6174    1.5966    0.2906 H   0  0  0  0  0  0  0  0  0  0  0  0
   -1.1350   -1.2490    1.4371 H   0  0  0  0  0  0  0  0  0  0  0  0
   -1.4437    0.2880    2.0595 H   0  0  0  0  0  0  0  0  0  0  0  0
    1.6354   -0.4545    1.7718 H   0  0  0  0  0  0  0  0  0  0  0  0
    2.3938   -1.3970   -1.6813 H   0  0  0  0  0  0  0  0  0  0  0  0
    1.8004   -1.7607   -0.0579 H   0  0  0  0  0  0  0  0  0  0  0  0
    4.2640   -2.2777   -0.7507 H   0  0  0  0  0  0  0  0  0  0  0  0
    3.8733   -1.8367    0.9254 H   0  0  0  0  0  0  0  0  0  0  0  0
    3.9106    0.2548    1.5121 H   0  0  0  0  0  0  0  0  0  0  0  0
    2.5102    2.1231    0.3216 H   0  0  0  0  0  0  0  0  0  0  0  0
    3.4157    1.6028   -1.1944 H   0  0  0  0  0  0  0  0  0  0  0  0
    6.2748   -1.3776    0.7570 H   0  0  0  0  0  0  0  0  0  0  0  0
    7.2819    1.1386    0.7614 H   0  0  0  0  0  0  0  0  0  0  0  0
    5.1184    2.2546    1.4846 H   0  0  0  0  0  0  0  0  0  0  0  0
  1  2  1  0
  2  3  1  0
  3  4  1  0
  4  5  1  0
  1  6  1  0
  5  6  1  0
  5  7  1  0
  2  8  1  0
  3  9  1  0
  9 10  1  0
 10 11  1  0
 11 12  1  0
 12 13  1  0
 10 14  1  0
 12 15  1  0
 13 16  1  0
 16 17  1  0
 17 18  1  0
 18 19  1  0
 13 20  1  0
 19 20  1  0
 18 21  1  0
 21 22  1  0
 19 23  1  0
 22 23  1  0
 21 24  1  0
 24 25  1  0
 24 26  1  0
 24 27  1  0
  6 28  1  0
 29 30  1  0
 30 31  1  0
 31 32  1  0
 32 33  1  0
 29 34  1  0
 33 34  1  0
 33 35  1  0
 30 36  1  0
 31 37  1  0
 37 38  1  0
 38 39  1  0
 39 40  1  0
 40 41  1  0
 38 42  1  0
 40 43  1  0
 41 44  1  0
 44 45  1  0
 45 46  1  0
 46 47  1  0
 41 48  1  0
 47 48  1  0
 46 49  1  0
 49 50  1  0
 47 51  1  0
 50 51  1  0
 49 52  1  0
 52 53  1  0
 52 54  1  0
 52 55  1  0
 34 56  1  0
  1 57  1  0
  1 58  1  0
  2 59  1  0
  3 60  1  0
  4 61  1  0
  4 62  1  0
  5 63  1  0
  6 64  1  0
  9 65  1  0
  9 66  1  0
 10 67  1  1
 11 68  1  0
 11 69  1  0
 12 70  1  1
 14 71  1  0
 14 72  1  0
 15 73  1  0
 16 74  1  0
 16 75  1  0
 17 76  1  0
 17 77  1  0
 19 78  1  0
 20 79  1  0
 20 80  1  0
 21 81  1  0
 22 82  1  0
 23 83  1  0
 29 84  1  0
 29 85  1  0
 30 86  1  0
 31 87  1  0
 32 88  1  0
 32 89  1  0
 33 90  1  0
 34 91  1  0
 37 92  1  0
 37 93  1  0
 38 94  1  1
 39 95  1  0
 39 96  1  0
 40 97  1  0
 42 98  1  0
 42 99  1  0
 43100  1  0
 44101  1  0
 44102  1  0
 45103  1  0
 45104  1  0
 47105  1  0
 48106  1  0
 48107  1  0
 49108  1  0
 50109  1  0
 51110  1  0
M  END
>  <PDBID>  (1) 
1X70

>  <PDB ID>  (1) 
1X70

>  <Generic Name>  (1) 
Sitagliptin

>  <Brand Name>  (1) 
Janumet#Janumet XR#Januvia#Xelevia

>  <DrugBank ID>  (1) 
DB01261

>  <ATC Codes>  (1) 
A10BD12#A10BH51#A10BH01#A10BD07

>  <Ligand ID>  (1) 
715

>  <Target Name>  (1) 
Dipeptidyl peptidase 4

>  <UniProt ID>  (1) 
P27487

>  <PDB ID.1>  (1) 
1X70

>  <Seq. Identity>  (1) 
100%

$$$$
