PDB_DB11730_01
     RDKit          3D

 78 82  0  0  0  0  0  0  0  0999 V2000
    0.2012    0.4234   -0.1695 C   0  0  2  0  0  0  0  0  0  0  0  0
   -0.5174   -0.7469    1.7232 C   0  0  0  0  0  0  0  0  0  0  0  0
   -1.9402   -0.8110    1.2043 C   0  0  0  0  0  0  0  0  0  0  0  0
   -1.9809   -0.6261   -0.3012 C   0  0  0  0  0  0  0  0  0  0  0  0
    4.4421   -1.0407   -0.5824 C   0  0  0  0  0  0  0  0  0  0  0  0
    3.5785   -0.2345   -1.4285 N   0  0  0  0  0  0  0  0  0  0  0  0
   -2.7931    0.2968    1.7131 C   0  0  0  0  0  0  0  0  0  0  0  0
    4.1134    0.7888    1.1501 C   0  0  0  0  0  0  0  0  0  0  0  0
    4.9503   -0.3343    0.6353 C   0  0  0  0  0  0  0  0  0  0  0  0
   -3.4828    0.7852    0.4476 C   0  0  0  0  0  0  0  0  0  0  0  0
    2.4794    0.1451   -0.5583 C   0  0  0  0  0  0  0  0  0  0  0  0
   -4.7669    1.4397    0.7785 C   0  0  2  0  0  0  0  0  0  0  0  0
   -5.6577   -3.0663    0.0682 C   0  0  0  0  0  0  0  0  0  0  0  0
   -5.6506   -2.9060   -1.4240 C   0  0  0  0  0  0  0  0  0  0  0  0
   -5.2406   -1.6425    0.5125 C   0  0  0  0  0  0  0  0  0  0  0  0
   -4.8395   -1.6722   -1.7777 C   0  0  0  0  0  0  0  0  0  0  0  0
    6.7289    0.8022   -0.6052 C   0  0  0  0  0  0  0  0  0  0  0  0
    7.2768   -1.0186    0.8307 C   0  0  0  0  0  0  0  0  0  0  0  0
    7.9738    1.5947   -0.1900 C   0  0  0  0  0  0  0  0  0  0  0  0
    8.6234   -0.6801    0.2264 C   0  0  0  0  0  0  0  0  0  0  0  0
   -4.1524   -1.3977   -0.4612 C   0  0  0  0  0  0  0  0  0  0  0  0
   -6.9066    1.9120    0.0047 C   0  0  0  0  0  0  0  0  0  0  0  0
   -5.2276    3.4365   -0.5219 C   0  0  0  0  0  0  0  0  0  0  0  0
    2.9942    1.2651    0.2779 C   0  0  0  0  0  0  0  0  0  0  0  0
    0.3333   -0.8220    0.5807 N   0  0  0  0  0  0  0  0  0  0  0  0
   -1.1314    0.4559   -0.7291 N   0  0  0  0  0  0  0  0  0  0  0  0
   -3.3973   -0.2493   -0.4807 N   0  0  0  0  0  0  0  0  0  0  0  0
    6.3129   -0.0628    0.4491 N   0  0  0  0  0  0  0  0  0  0  0  0
    1.2262    0.3372   -1.2027 N   0  0  0  0  0  0  0  0  0  0  0  0
   -5.4708    2.0299   -0.2849 N   0  0  0  0  0  0  0  0  0  0  0  0
    8.9399    0.6996    0.4222 N   0  0  0  0  0  0  0  0  0  0  0  0
   -4.4571    2.4630    1.7155 O   0  0  0  0  0  0  0  0  0  0  0  0
   -0.3345   -1.5797    2.4559 H   0  0  0  0  0  0  0  0  0  0  0  0
    5.2399   -1.4581   -1.2122 H   0  0  0  0  0  0  0  0  0  0  0  0
   -2.1259    1.0867    2.1431 H   0  0  0  0  0  0  0  0  0  0  0  0
    3.6726    0.5703    2.1470 H   0  0  0  0  0  0  0  0  0  0  0  0
   -4.8861   -3.7661    0.4260 H   0  0  0  0  0  0  0  0  0  0  0  0
   -6.6759   -3.2838    0.4565 H   0  0  0  0  0  0  0  0  0  0  0  0
   -6.6929   -2.6938   -1.7418 H   0  0  0  0  0  0  0  0  0  0  0  0
   -5.2507   -3.7750   -1.9578 H   0  0  0  0  0  0  0  0  0  0  0  0
   -4.9912   -1.7222    1.5577 H   0  0  0  0  0  0  0  0  0  0  0  0
   -6.1840   -1.0736    0.2748 H   0  0  0  0  0  0  0  0  0  0  0  0
   -4.0830   -1.9095   -2.5676 H   0  0  0  0  0  0  0  0  0  0  0  0
   -5.4549   -0.8251   -2.1265 H   0  0  0  0  0  0  0  0  0  0  0  0
    5.9850    1.4913   -0.9701 H   0  0  0  0  0  0  0  0  0  0  0  0
    7.0617    0.1643   -1.4515 H   0  0  0  0  0  0  0  0  0  0  0  0
    7.3432   -1.2579    1.9004 H   0  0  0  0  0  0  0  0  0  0  0  0
    6.9788   -1.9998    0.3474 H   0  0  0  0  0  0  0  0  0  0  0  0
    8.3961    2.0567   -1.0912 H   0  0  0  0  0  0  0  0  0  0  0  0
    7.7290    2.3751    0.5342 H   0  0  0  0  0  0  0  0  0  0  0  0
    8.6252   -1.0098   -0.8176 H   0  0  0  0  0  0  0  0  0  0  0  0
    9.3742   -1.2696    0.8144 H   0  0  0  0  0  0  0  0  0  0  0  0
   -3.4841   -2.3409   -0.3533 H   0  0  0  0  0  0  0  0  0  0  0  0
   -7.4647    1.3903   -0.7654 H   0  0  0  0  0  0  0  0  0  0  0  0
   -7.3488    2.9230    0.2522 H   0  0  0  0  0  0  0  0  0  0  0  0
   -7.0507    1.3098    0.9495 H   0  0  0  0  0  0  0  0  0  0  0  0
   -4.2019    3.6622   -0.8786 H   0  0  0  0  0  0  0  0  0  0  0  0
   -5.9982    3.7855   -1.2742 H   0  0  0  0  0  0  0  0  0  0  0  0
   -5.4750    4.0127    0.4011 H   0  0  0  0  0  0  0  0  0  0  0  0
    3.2980    2.1151   -0.3833 H   0  0  0  0  0  0  0  0  0  0  0  0
    0.9770   -0.4678   -1.8172 H   0  0  0  0  0  0  0  0  0  0  0  0
    9.9119    0.8841    0.1048 H   0  0  0  0  0  0  0  0  0  0  0  0
    0.3115    1.3106    0.4635 H   0  0  0  0  0  0  0  0  0  0  0  0
   -0.4149    0.1963    2.2886 H   0  0  0  0  0  0  0  0  0  0  0  0
   -2.3537   -1.7712    1.4959 H   0  0  0  0  0  0  0  0  0  0  0  0
   -1.7767   -1.5841   -0.7942 H   0  0  0  0  0  0  0  0  0  0  0  0
    3.7785   -1.9196   -0.2910 H   0  0  0  0  0  0  0  0  0  0  0  0
    3.1785   -0.8986   -2.1401 H   0  0  0  0  0  0  0  0  0  0  0  0
   -3.5134    0.0251    2.4904 H   0  0  0  0  0  0  0  0  0  0  0  0
    4.7371    1.7154    1.3479 H   0  0  0  0  0  0  0  0  0  0  0  0
    4.9293   -1.1320    1.4512 H   0  0  0  0  0  0  0  0  0  0  0  0
   -2.7955    1.6076    0.0695 H   0  0  0  0  0  0  0  0  0  0  0  0
    2.3844   -0.7304    0.1940 H   0  0  0  0  0  0  0  0  0  0  0  0
   -5.4273    0.7702    1.4267 H   0  0  0  0  0  0  0  0  0  0  0  0
    2.1803    1.6742    0.8976 H   0  0  0  0  0  0  0  0  0  0  0  0
    0.0929   -1.6268   -0.0045 H   0  0  0  0  0  0  0  0  0  0  0  0
   -1.0231    0.3916   -1.7650 H   0  0  0  0  0  0  0  0  0  0  0  0
   -3.7394    3.0130    1.3179 H   0  0  0  0  0  0  0  0  0  0  0  0
  2  3  1  0
  3  4  1  0
  5  6  1  0
  3  7  1  0
  5  9  1  0
  8  9  1  0
  7 10  1  0
  6 11  1  0
 10 12  1  0
 13 14  1  0
 13 15  1  0
 14 16  1  0
 17 19  1  0
 18 20  1  0
 15 21  1  0
 16 21  1  0
  8 24  1  0
 11 24  1  0
  1 25  1  0
  2 25  1  0
  1 26  1  0
  4 26  1  0
  4 27  1  0
 10 27  1  0
 21 27  1  0
  9 28  1  0
 17 28  1  0
 18 28  1  0
  1 29  1  0
 11 29  1  0
 12 30  1  0
 22 30  1  0
 23 30  1  0
 19 31  1  0
 20 31  1  0
 12 32  1  0
  2 33  1  0
  5 34  1  0
  7 35  1  0
  8 36  1  0
 13 37  1  0
 13 38  1  0
 14 39  1  0
 14 40  1  0
 15 41  1  0
 15 42  1  0
 16 43  1  0
 16 44  1  0
 17 45  1  0
 17 46  1  0
 18 47  1  0
 18 48  1  0
 19 49  1  0
 19 50  1  0
 20 51  1  0
 20 52  1  0
 21 53  1  0
 22 54  1  0
 22 55  1  0
 22 56  1  0
 23 57  1  0
 23 58  1  0
 23 59  1  0
 24 60  1  0
 29 61  1  0
 31 62  1  0
  1 63  1  1
  2 64  1  0
  3 65  1  0
  4 66  1  0
  5 67  1  0
  6 68  1  0
  7 69  1  0
  8 70  1  0
  9 71  1  0
 10 72  1  0
 11 73  1  0
 12 74  1  1
 24 75  1  0
 25 76  1  0
 26 77  1  0
 32 78  1  0
M  END
>  <PDBID>  (1) 
5L2T

>  <PDB ID>  (1) 
5L2T

>  <Generic Name>  (1) 
Ribociclib

>  <Brand Name>  (1) 
Kisqali

>  <DrugBank ID>  (1) 
DB11730

>  <ATC Codes>  (1) 
nan

>  <Ligand ID>  (1) 
6ZZ

>  <Target Name>  (1) 
Cyclin-dependent kinase 6

>  <UniProt ID>  (1) 
Q00534

>  <PDB ID.1>  (1) 
5L2T

>  <Seq. Identity>  (1) 
100%

$$$$
