PDB_DB00841_04
     RDKit          3D

114116  0  0  0  0  0  0  0  0999 V2000
    4.9629    3.2013   -0.5704 O   0  0  0  0  0  0  0  0  0  0  0  0
    5.1423    1.8924   -0.1231 C   0  0  0  0  0  0  0  0  0  0  0  0
    4.9897    0.9955   -1.3249 C   0  0  0  0  0  0  0  0  0  0  0  0
    4.8075   -0.4504   -0.9414 C   0  0  0  0  0  0  0  0  0  0  0  0
    4.1017    1.6343    0.9318 C   0  0  0  0  0  0  0  0  0  0  0  0
    3.8755    0.1819    1.2081 C   0  0  0  0  0  0  0  0  0  0  0  0
    3.5371   -0.5036   -0.0805 C   0  0  0  0  0  0  0  0  0  0  0  0
    3.1861   -1.9483    0.0793 C   0  0  0  0  0  0  0  0  0  0  0  0
    1.9737   -2.2359    0.8856 C   0  0  0  0  0  0  0  0  0  0  0  0
    0.7014   -1.6066    0.2990 C   0  0  1  0  0  0  0  0  0  0  0  0
    0.5548   -2.1996   -1.0796 C   0  0  0  0  0  0  0  0  0  0  0  0
   -0.3475   -1.9970    1.1957 N   0  0  0  0  0  0  0  0  0  0  0  0
   -1.6762   -1.6051    0.7878 C   0  0  0  0  0  0  0  0  0  0  0  0
   -1.9007   -0.1276    0.8344 C   0  0  0  0  0  0  0  0  0  0  0  0
   -3.2856    0.2065    0.4083 C   0  0  0  0  0  0  0  0  0  0  0  0
   -3.5482    1.7073    0.4770 C   0  0  0  0  0  0  0  0  0  0  0  0
   -4.8448    2.1111   -0.1044 C   0  0  0  0  0  0  0  0  0  0  0  0
   -5.5867    2.7381    0.9299 O   0  0  0  0  0  0  0  0  0  0  0  0
   -5.6957    1.1043   -0.7365 C   0  0  0  0  0  0  0  0  0  0  0  0
   -6.8879    0.8991    0.0108 O   0  0  0  0  0  0  0  0  0  0  0  0
   -5.1553   -0.2438   -1.0200 C   0  0  0  0  0  0  0  0  0  0  0  0
   -3.6292   -0.2097   -0.9941 C   0  0  0  0  0  0  0  0  0  0  0  0
    4.9629    3.2013   -0.5704 O   0  0  0  0  0  0  0  0  0  0  0  0
    5.1423    1.8924   -0.1231 C   0  0  0  0  0  0  0  0  0  0  0  0
    4.9897    0.9955   -1.3249 C   0  0  0  0  0  0  0  0  0  0  0  0
    4.8075   -0.4504   -0.9414 C   0  0  0  0  0  0  0  0  0  0  0  0
    4.1017    1.6343    0.9318 C   0  0  0  0  0  0  0  0  0  0  0  0
    3.8755    0.1819    1.2081 C   0  0  0  0  0  0  0  0  0  0  0  0
    3.5371   -0.5036   -0.0805 C   0  0  0  0  0  0  0  0  0  0  0  0
    3.1861   -1.9483    0.0793 C   0  0  0  0  0  0  0  0  0  0  0  0
    1.9737   -2.2359    0.8856 C   0  0  0  0  0  0  0  0  0  0  0  0
    0.7014   -1.6066    0.2990 C   0  0  1  0  0  0  0  0  0  0  0  0
    0.5548   -2.1996   -1.0796 C   0  0  0  0  0  0  0  0  0  0  0  0
   -0.3475   -1.9970    1.1957 N   0  0  0  0  0  0  0  0  0  0  0  0
   -1.6762   -1.6051    0.7878 C   0  0  0  0  0  0  0  0  0  0  0  0
   -1.9007   -0.1276    0.8344 C   0  0  0  0  0  0  0  0  0  0  0  0
   -3.2856    0.2065    0.4083 C   0  0  0  0  0  0  0  0  0  0  0  0
   -3.5482    1.7073    0.4770 C   0  0  0  0  0  0  0  0  0  0  0  0
   -4.8448    2.1111   -0.1044 C   0  0  0  0  0  0  0  0  0  0  0  0
   -5.5867    2.7381    0.9299 O   0  0  0  0  0  0  0  0  0  0  0  0
   -5.6957    1.1043   -0.7365 C   0  0  0  0  0  0  0  0  0  0  0  0
   -6.8879    0.8991    0.0108 O   0  0  0  0  0  0  0  0  0  0  0  0
   -5.1553   -0.2438   -1.0200 C   0  0  0  0  0  0  0  0  0  0  0  0
   -3.6292   -0.2097   -0.9941 C   0  0  0  0  0  0  0  0  0  0  0  0
    4.1848    3.6470   -0.1986 H   0  0  0  0  0  0  0  0  0  0  0  0
    6.1580    1.7886    0.2802 H   0  0  0  0  0  0  0  0  0  0  0  0
    4.1493    1.2772   -1.9777 H   0  0  0  0  0  0  0  0  0  0  0  0
    5.9312    1.0675   -1.9155 H   0  0  0  0  0  0  0  0  0  0  0  0
    4.6474   -1.0516   -1.8351 H   0  0  0  0  0  0  0  0  0  0  0  0
    5.6674   -0.8109   -0.3222 H   0  0  0  0  0  0  0  0  0  0  0  0
    3.1373    2.1001    0.6616 H   0  0  0  0  0  0  0  0  0  0  0  0
    4.4482    2.1137    1.8659 H   0  0  0  0  0  0  0  0  0  0  0  0
    3.0662    0.1136    1.9628 H   0  0  0  0  0  0  0  0  0  0  0  0
    4.7989   -0.2759    1.6721 H   0  0  0  0  0  0  0  0  0  0  0  0
    2.7539    0.0808   -0.5949 H   0  0  0  0  0  0  0  0  0  0  0  0
    4.0389   -2.5342    0.4760 H   0  0  0  0  0  0  0  0  0  0  0  0
    3.0266   -2.3571   -0.9586 H   0  0  0  0  0  0  0  0  0  0  0  0
    2.0685   -2.0103    1.9557 H   0  0  0  0  0  0  0  0  0  0  0  0
    1.7789   -3.3411    0.8127 H   0  0  0  0  0  0  0  0  0  0  0  0
    0.8267   -0.5234    0.1970 H   0  0  0  0  0  0  0  0  0  0  0  0
   -0.4651   -2.3737   -1.4111 H   0  0  0  0  0  0  0  0  0  0  0  0
    1.0120   -1.5009   -1.8430 H   0  0  0  0  0  0  0  0  0  0  0  0
    1.1096   -3.1653   -1.1725 H   0  0  0  0  0  0  0  0  0  0  0  0
   -0.1615   -1.5285    2.1035 H   0  0  0  0  0  0  0  0  0  0  0  0
   -2.3499   -2.0330    1.5949 H   0  0  0  0  0  0  0  0  0  0  0  0
   -2.0094   -2.0757   -0.1275 H   0  0  0  0  0  0  0  0  0  0  0  0
   -1.6098    0.3293    1.7979 H   0  0  0  0  0  0  0  0  0  0  0  0
   -1.2144    0.3646    0.0801 H   0  0  0  0  0  0  0  0  0  0  0  0
   -4.0096   -0.2687    1.0990 H   0  0  0  0  0  0  0  0  0  0  0  0
   -2.6862    2.1790   -0.0441 H   0  0  0  0  0  0  0  0  0  0  0  0
   -3.4377    1.9773    1.5483 H   0  0  0  0  0  0  0  0  0  0  0  0
   -4.6464    2.9566   -0.8296 H   0  0  0  0  0  0  0  0  0  0  0  0
   -5.2904    2.3612    1.8188 H   0  0  0  0  0  0  0  0  0  0  0  0
   -6.1043    1.4983   -1.7204 H   0  0  0  0  0  0  0  0  0  0  0  0
   -6.6795    0.5893    0.9274 H   0  0  0  0  0  0  0  0  0  0  0  0
   -5.4404   -0.9502   -0.2081 H   0  0  0  0  0  0  0  0  0  0  0  0
   -5.4959   -0.6472   -2.0027 H   0  0  0  0  0  0  0  0  0  0  0  0
   -3.2830    0.6015   -1.7061 H   0  0  0  0  0  0  0  0  0  0  0  0
   -3.1955   -1.1421   -1.3352 H   0  0  0  0  0  0  0  0  0  0  0  0
    4.1848    3.6470   -0.1986 H   0  0  0  0  0  0  0  0  0  0  0  0
    6.1580    1.7886    0.2802 H   0  0  0  0  0  0  0  0  0  0  0  0
    4.1493    1.2772   -1.9777 H   0  0  0  0  0  0  0  0  0  0  0  0
    5.9312    1.0675   -1.9155 H   0  0  0  0  0  0  0  0  0  0  0  0
    4.6474   -1.0516   -1.8351 H   0  0  0  0  0  0  0  0  0  0  0  0
    5.6674   -0.8109   -0.3222 H   0  0  0  0  0  0  0  0  0  0  0  0
    3.1373    2.1001    0.6616 H   0  0  0  0  0  0  0  0  0  0  0  0
    4.4482    2.1137    1.8659 H   0  0  0  0  0  0  0  0  0  0  0  0
    3.0662    0.1136    1.9628 H   0  0  0  0  0  0  0  0  0  0  0  0
    4.7989   -0.2759    1.6721 H   0  0  0  0  0  0  0  0  0  0  0  0
    2.7539    0.0808   -0.5949 H   0  0  0  0  0  0  0  0  0  0  0  0
    4.0389   -2.5342    0.4760 H   0  0  0  0  0  0  0  0  0  0  0  0
    3.0266   -2.3571   -0.9586 H   0  0  0  0  0  0  0  0  0  0  0  0
    2.0685   -2.0103    1.9557 H   0  0  0  0  0  0  0  0  0  0  0  0
    1.7789   -3.3411    0.8127 H   0  0  0  0  0  0  0  0  0  0  0  0
    0.8267   -0.5234    0.1970 H   0  0  0  0  0  0  0  0  0  0  0  0
   -0.4651   -2.3737   -1.4111 H   0  0  0  0  0  0  0  0  0  0  0  0
    1.0120   -1.5009   -1.8430 H   0  0  0  0  0  0  0  0  0  0  0  0
    1.1096   -3.1653   -1.1725 H   0  0  0  0  0  0  0  0  0  0  0  0
   -0.1615   -1.5285    2.1035 H   0  0  0  0  0  0  0  0  0  0  0  0
   -2.3499   -2.0330    1.5949 H   0  0  0  0  0  0  0  0  0  0  0  0
   -2.0094   -2.0757   -0.1275 H   0  0  0  0  0  0  0  0  0  0  0  0
   -1.6098    0.3293    1.7979 H   0  0  0  0  0  0  0  0  0  0  0  0
   -1.2144    0.3646    0.0801 H   0  0  0  0  0  0  0  0  0  0  0  0
   -4.0096   -0.2687    1.0990 H   0  0  0  0  0  0  0  0  0  0  0  0
   -2.6862    2.1790   -0.0441 H   0  0  0  0  0  0  0  0  0  0  0  0
   -3.4377    1.9773    1.5483 H   0  0  0  0  0  0  0  0  0  0  0  0
   -4.6464    2.9566   -0.8296 H   0  0  0  0  0  0  0  0  0  0  0  0
   -5.2904    2.3612    1.8188 H   0  0  0  0  0  0  0  0  0  0  0  0
   -6.1043    1.4983   -1.7204 H   0  0  0  0  0  0  0  0  0  0  0  0
   -6.6795    0.5893    0.9274 H   0  0  0  0  0  0  0  0  0  0  0  0
   -5.4404   -0.9502   -0.2081 H   0  0  0  0  0  0  0  0  0  0  0  0
   -5.4959   -0.6472   -2.0027 H   0  0  0  0  0  0  0  0  0  0  0  0
   -3.2830    0.6015   -1.7061 H   0  0  0  0  0  0  0  0  0  0  0  0
   -3.1955   -1.1421   -1.3352 H   0  0  0  0  0  0  0  0  0  0  0  0
  1  2  1  0
  2  3  1  0
  3  4  1  0
  2  5  1  0
  5  6  1  0
  4  7  1  0
  6  7  1  0
  7  8  1  0
  8  9  1  0
  9 10  1  0
 10 11  1  0
 10 12  1  0
 12 13  1  0
 13 14  1  0
 14 15  1  0
 15 16  1  0
 16 17  1  0
 17 18  1  0
 17 19  1  0
 19 20  1  0
 19 21  1  0
 15 22  1  0
 21 22  1  0
 23 24  1  0
 24 25  1  0
 25 26  1  0
 24 27  1  0
 27 28  1  0
 26 29  1  0
 28 29  1  0
 29 30  1  0
 30 31  1  0
 31 32  1  0
 32 33  1  0
 32 34  1  0
 34 35  1  0
 35 36  1  0
 36 37  1  0
 37 38  1  0
 38 39  1  0
 39 40  1  0
 39 41  1  0
 41 42  1  0
 41 43  1  0
 37 44  1  0
 43 44  1  0
  1 45  1  0
  2 46  1  0
  3 47  1  0
  3 48  1  0
  4 49  1  0
  4 50  1  0
  5 51  1  0
  5 52  1  0
  6 53  1  0
  6 54  1  0
  7 55  1  0
  8 56  1  0
  8 57  1  0
  9 58  1  0
  9 59  1  0
 10 60  1  6
 11 61  1  0
 11 62  1  0
 11 63  1  0
 12 64  1  0
 13 65  1  0
 13 66  1  0
 14 67  1  0
 14 68  1  0
 15 69  1  0
 16 70  1  0
 16 71  1  0
 17 72  1  0
 18 73  1  0
 19 74  1  0
 20 75  1  0
 21 76  1  0
 21 77  1  0
 22 78  1  0
 22 79  1  0
 23 80  1  0
 24 81  1  0
 25 82  1  0
 25 83  1  0
 26 84  1  0
 26 85  1  0
 27 86  1  0
 27 87  1  0
 28 88  1  0
 28 89  1  0
 29 90  1  0
 30 91  1  0
 30 92  1  0
 31 93  1  0
 31 94  1  0
 32 95  1  6
 33 96  1  0
 33 97  1  0
 33 98  1  0
 34 99  1  0
 35100  1  0
 35101  1  0
 36102  1  0
 36103  1  0
 37104  1  0
 38105  1  0
 38106  1  0
 39107  1  0
 40108  1  0
 41109  1  0
 42110  1  0
 43111  1  0
 43112  1  0
 44113  1  0
 44114  1  0
M  END
>  <PDBID>  (1) 
2Y00

>  <PDB ID>  (1) 
2Y00

>  <Generic Name>  (1) 
Dobutamine

>  <Brand Name>  (1) 
Dobutamine#Dobutamine 12.5mg/ml#Dobutamine Hydrochloride#Dobutamine Hydrochloride In Dextrose#Dobutamine Hydrochloride Injection USP#Dobutamine Hydrochloride Injection-12.5mg/ml#Dobutamine Injection Sdz#Dobutamine Injection USP#Dobutrex#Dobuject#Dobusafe#Dobutamin#Dobutan#Dobutel#Dobutil#Dopmin#Inotrex

>  <DrugBank ID>  (1) 
DB00841

>  <ATC Codes>  (1) 
C01CA07

>  <Ligand ID>  (1) 
Y00

>  <Target Name>  (1) 
Beta-1 adrenergic receptor

>  <UniProt ID>  (1) 
P08588

>  <PDB ID.1>  (1) 
2Y00

>  <Seq. Identity>  (1) 
63%

$$$$
