PDB_DB09063_06
     RDKit          3D

 94 97  0  0  0  0  0  0  0  0999 V2000
   -4.9583   -2.3911   -2.3601 C   0  0  0  0  0  0  0  0  0  0  0  0
   -4.2211   -2.4014   -1.0277 C   0  0  0  0  0  0  0  0  0  0  0  0
   -3.5342   -3.7194   -0.8980 C   0  0  0  0  0  0  0  0  0  0  0  0
   -3.3024   -1.3801   -0.9444 O   0  0  0  0  0  0  0  0  0  0  0  0
   -3.6362   -0.5089    0.1199 C   0  0  0  0  0  0  0  0  0  0  0  0
   -3.8931    0.8387   -0.5707 C   0  0  0  0  0  0  0  0  0  0  0  0
   -4.3464    1.9041    0.3878 C   0  0  1  0  0  0  0  0  0  0  0  0
   -5.8149    2.1838    0.3815 C   0  0  0  0  0  0  0  0  0  0  0  0
   -6.3387    2.6262   -0.9647 C   0  0  0  0  0  0  0  0  0  0  0  0
   -7.8737    2.5678   -0.9048 C   0  0  0  0  0  0  0  0  0  0  0  0
   -8.3228    1.2365   -0.7822 N   0  0  0  0  0  0  0  0  0  0  0  0
   -7.4598    0.3377   -0.1232 C   0  0  0  0  0  0  0  0  0  0  0  0
   -6.7013    1.1430    0.9407 C   0  0  0  0  0  0  0  0  0  0  0  0
   -3.7902    1.5837    1.7419 C   0  0  0  0  0  0  0  0  0  0  0  0
   -3.6594    2.8639    2.5404 C   0  0  0  0  0  0  0  0  0  0  0  0
   -2.3843    1.0718    1.5051 C   0  0  0  0  0  0  0  0  0  0  0  0
   -2.4314   -0.3616    1.0250 C   0  0  0  0  0  0  0  0  0  0  0  0
   -1.2749   -0.7234    0.2663 N   0  0  0  0  0  0  0  0  0  0  0  0
   -0.0117   -0.3256    0.8615 C   0  0  0  0  0  0  0  0  0  0  0  0
    0.1637   -0.9918    2.0961 N   0  0  0  0  0  0  0  0  0  0  0  0
    0.7356   -2.2883    1.9118 C   0  0  0  0  0  0  0  0  0  0  0  0
    2.1551   -2.0662    1.3771 C   0  0  1  0  0  0  0  0  0  0  0  0
    3.0019   -3.6115    1.2810 Cl  0  0  0  0  0  0  0  0  0  0  0  0
    2.1640   -1.2051    0.1951 C   0  0  0  0  0  0  0  0  0  0  0  0
    3.3335   -0.3976    0.0910 N   0  0  0  0  0  0  0  0  0  0  0  0
    4.2316   -0.6530   -0.9543 C   0  0  2  0  0  0  0  0  0  0  0  0
    4.8647   -1.9868   -0.9756 C   0  0  0  0  0  0  0  0  0  0  0  0
    5.8326   -2.2210   -2.1145 C   0  0  0  0  0  0  0  0  0  0  0  0
    6.6462   -1.0609   -2.5366 C   0  0  0  0  0  0  0  0  0  0  0  0
    6.0053    0.2891   -2.3026 C   0  0  0  0  0  0  0  0  0  0  0  0
    5.3832    0.3894   -0.9471 C   0  0  2  0  0  0  0  0  0  0  0  0
    6.4995    0.1760    0.2799 S   0  0  0  0  0  0  0  0  0  0  0  0
    7.3121   -1.1834    0.2480 O   0  0  0  0  0  0  0  0  0  0  0  0
    5.8160    0.3597    1.7506 O   0  0  0  0  0  0  0  0  0  0  0  0
    7.6464    1.4658    0.1165 C   0  0  0  0  0  0  0  0  0  0  0  0
    8.6891    1.2819    1.2152 C   0  0  0  0  0  0  0  0  0  0  0  0
    7.0176    2.8097    0.2858 C   0  0  0  0  0  0  0  0  0  0  0  0
    1.0335   -0.3798   -0.0654 N   0  0  0  0  0  0  0  0  0  0  0  0
   -5.0795   -1.3553   -2.7330 H   0  0  0  0  0  0  0  0  0  0  0  0
   -4.3934   -3.0197   -3.0779 H   0  0  0  0  0  0  0  0  0  0  0  0
   -5.9460   -2.8444   -2.1946 H   0  0  0  0  0  0  0  0  0  0  0  0
   -4.9858   -2.3078   -0.2404 H   0  0  0  0  0  0  0  0  0  0  0  0
   -2.5745   -3.7504   -1.4518 H   0  0  0  0  0  0  0  0  0  0  0  0
   -3.3599   -4.0818    0.1123 H   0  0  0  0  0  0  0  0  0  0  0  0
   -4.1920   -4.4780   -1.4119 H   0  0  0  0  0  0  0  0  0  0  0  0
   -4.5312   -0.8939    0.5983 H   0  0  0  0  0  0  0  0  0  0  0  0
   -4.5519    0.6952   -1.4461 H   0  0  0  0  0  0  0  0  0  0  0  0
   -2.8913    1.0956   -1.0272 H   0  0  0  0  0  0  0  0  0  0  0  0
   -3.8099    2.8470    0.0631 H   0  0  0  0  0  0  0  0  0  0  0  0
   -5.9609    3.1072    1.0292 H   0  0  0  0  0  0  0  0  0  0  0  0
   -6.1145    3.7068   -1.1416 H   0  0  0  0  0  0  0  0  0  0  0  0
   -6.0599    1.9894   -1.8039 H   0  0  0  0  0  0  0  0  0  0  0  0
   -8.1611    3.2583   -0.0719 H   0  0  0  0  0  0  0  0  0  0  0  0
   -8.2531    3.0435   -1.8522 H   0  0  0  0  0  0  0  0  0  0  0  0
   -9.2188    0.9535   -1.1202 H   0  0  0  0  0  0  0  0  0  0  0  0
   -8.0884   -0.3858    0.4598 H   0  0  0  0  0  0  0  0  0  0  0  0
   -6.8006   -0.2569   -0.7549 H   0  0  0  0  0  0  0  0  0  0  0  0
   -7.5283    1.5942    1.5725 H   0  0  0  0  0  0  0  0  0  0  0  0
   -6.2417    0.3985    1.6108 H   0  0  0  0  0  0  0  0  0  0  0  0
   -4.3274    0.7951    2.2766 H   0  0  0  0  0  0  0  0  0  0  0  0
   -4.0382    2.7553    3.5829 H   0  0  0  0  0  0  0  0  0  0  0  0
   -4.2383    3.6797    2.0275 H   0  0  0  0  0  0  0  0  0  0  0  0
   -2.6089    3.2221    2.6014 H   0  0  0  0  0  0  0  0  0  0  0  0
   -1.9446    1.7307    0.7253 H   0  0  0  0  0  0  0  0  0  0  0  0
   -1.8450    1.1052    2.4557 H   0  0  0  0  0  0  0  0  0  0  0  0
   -2.5184   -1.0624    1.8821 H   0  0  0  0  0  0  0  0  0  0  0  0
   -1.2745   -1.7356    0.0617 H   0  0  0  0  0  0  0  0  0  0  0  0
   -0.1658    0.7708    1.1144 H   0  0  0  0  0  0  0  0  0  0  0  0
    0.6317   -0.4750    2.8430 H   0  0  0  0  0  0  0  0  0  0  0  0
    0.8942   -2.8252    2.8872 H   0  0  0  0  0  0  0  0  0  0  0  0
    0.1693   -2.9540    1.2627 H   0  0  0  0  0  0  0  0  0  0  0  0
    2.6616   -1.4932    2.2204 H   0  0  0  0  0  0  0  0  0  0  0  0
    2.2211   -1.9111   -0.7095 H   0  0  0  0  0  0  0  0  0  0  0  0
    3.1907    0.6189    0.2207 H   0  0  0  0  0  0  0  0  0  0  0  0
    3.7059   -0.4913   -1.9539 H   0  0  0  0  0  0  0  0  0  0  0  0
    4.0241   -2.7241   -1.1927 H   0  0  0  0  0  0  0  0  0  0  0  0
    5.2749   -2.2576   -0.0062 H   0  0  0  0  0  0  0  0  0  0  0  0
    6.5477   -3.0086   -1.7247 H   0  0  0  0  0  0  0  0  0  0  0  0
    5.3157   -2.7137   -2.9603 H   0  0  0  0  0  0  0  0  0  0  0  0
    6.7920   -1.1360   -3.6546 H   0  0  0  0  0  0  0  0  0  0  0  0
    7.6948   -1.0809   -2.1332 H   0  0  0  0  0  0  0  0  0  0  0  0
    6.7909    1.0436   -2.4135 H   0  0  0  0  0  0  0  0  0  0  0  0
    5.2638    0.4511   -3.1151 H   0  0  0  0  0  0  0  0  0  0  0  0
    4.8723    1.3675   -0.8609 H   0  0  0  0  0  0  0  0  0  0  0  0
    7.7765   -1.3882    1.0831 H   0  0  0  0  0  0  0  0  0  0  0  0
    6.4887    0.0783    2.4501 H   0  0  0  0  0  0  0  0  0  0  0  0
    8.1220    1.3949   -0.8859 H   0  0  0  0  0  0  0  0  0  0  0  0
    9.0678    0.2281    1.2034 H   0  0  0  0  0  0  0  0  0  0  0  0
    8.2189    1.5085    2.1873 H   0  0  0  0  0  0  0  0  0  0  0  0
    9.5347    1.9557    0.9602 H   0  0  0  0  0  0  0  0  0  0  0  0
    6.3145    2.8594    1.1277 H   0  0  0  0  0  0  0  0  0  0  0  0
    7.8428    3.5586    0.4468 H   0  0  0  0  0  0  0  0  0  0  0  0
    6.4818    3.0915   -0.6455 H   0  0  0  0  0  0  0  0  0  0  0  0
    1.2288    0.4547   -0.6289 H   0  0  0  0  0  0  0  0  0  0  0  0
  1  2  1  0
  2  3  1  0
  2  4  1  0
  4  5  1  0
  5  6  1  0
  6  7  1  0
  7  8  1  0
  8  9  1  0
  9 10  1  0
 10 11  1  0
 11 12  1  0
  8 13  1  0
 12 13  1  0
  7 14  1  0
 14 15  1  0
 14 16  1  0
  5 17  1  0
 16 17  1  0
 17 18  1  0
 18 19  1  0
 19 20  1  0
 20 21  1  0
 21 22  1  0
 22 23  1  0
 22 24  1  0
 24 25  1  0
 25 26  1  0
 26 27  1  0
 27 28  1  0
 28 29  1  0
 29 30  1  0
 26 31  1  0
 30 31  1  0
 31 32  1  0
 32 33  1  0
 32 34  1  0
 32 35  1  0
 35 36  1  0
 35 37  1  0
 19 38  1  0
 24 38  1  0
  1 39  1  0
  1 40  1  0
  1 41  1  0
  2 42  1  0
  3 43  1  0
  3 44  1  0
  3 45  1  0
  5 46  1  0
  6 47  1  0
  6 48  1  0
  7 49  1  6
  8 50  1  0
  9 51  1  0
  9 52  1  0
 10 53  1  0
 10 54  1  0
 11 55  1  0
 12 56  1  0
 12 57  1  0
 13 58  1  0
 13 59  1  0
 14 60  1  0
 15 61  1  0
 15 62  1  0
 15 63  1  0
 16 64  1  0
 16 65  1  0
 17 66  1  0
 18 67  1  0
 19 68  1  0
 20 69  1  0
 21 70  1  0
 21 71  1  0
 22 72  1  1
 24 73  1  0
 25 74  1  0
 26 75  1  6
 27 76  1  0
 27 77  1  0
 28 78  1  0
 28 79  1  0
 29 80  1  0
 29 81  1  0
 30 82  1  0
 30 83  1  0
 31 84  1  1
 33 85  1  0
 34 86  1  0
 35 87  1  0
 36 88  1  0
 36 89  1  0
 36 90  1  0
 37 91  1  0
 37 92  1  0
 37 93  1  0
 38 94  1  0
M  END
>  <PDBID>  (1) 
4MKC

>  <PDB ID>  (1) 
4MKC

>  <Generic Name>  (1) 
Ceritinib

>  <Brand Name>  (1) 
Zykadia

>  <DrugBank ID>  (1) 
DB09063

>  <ATC Codes>  (1) 
L01XE28

>  <Ligand ID>  (1) 
4MK

>  <Target Name>  (1) 
ALK tyrosine kinase receptor

>  <UniProt ID>  (1) 
Q9UM73

>  <PDB ID.1>  (1) 
4MKC

>  <Seq. Identity>  (1) 
99%

$$$$
