PDB_DB00932_07
     RDKit          3D

 99102  0  0  0  0  0  0  0  0999 V2000
   -3.0270    0.6531    0.8083 O   0  0  0  0  0  0  0  0  0  0  0  0
   -2.1059   -0.0434    1.5315 C   0  0  0  0  0  0  0  0  0  0  0  0
   -0.8030   -0.0473    0.7690 C   0  0  0  0  0  0  0  0  0  0  0  0
   -1.1309   -0.7486   -0.5302 C   0  0  0  0  0  0  0  0  0  0  0  0
   -2.5895   -1.0737   -0.7159 C   0  0  0  0  0  0  0  0  0  0  0  0
   -3.5765   -0.0472   -0.3024 C   0  0  2  0  0  0  0  0  0  0  0  0
   -2.4785   -1.2818    1.9398 O   0  0  0  0  0  0  0  0  0  0  0  0
   -0.6497   -0.1563   -1.6653 O   0  0  0  0  0  0  0  0  0  0  0  0
   -3.8402    1.0034   -1.2920 C   0  0  0  0  0  0  0  0  0  0  0  0
   -4.4461    0.7477   -2.5989 C   0  0  0  0  0  0  0  0  0  0  0  0
   -3.7800   -0.1212   -3.5892 C   0  0  0  0  0  0  0  0  0  0  0  0
   -4.8405   -0.6899    0.2695 C   0  0  0  0  0  0  0  0  0  0  0  0
   -5.7440    0.3859    0.7796 C   0  0  0  0  0  0  0  0  0  0  0  0
   -7.0125   -0.1829    1.4000 C   0  0  0  0  0  0  0  0  0  0  0  0
   -7.8306    1.0001    1.8746 C   0  0  0  0  0  0  0  0  0  0  0  0
   -9.2554    0.9524    1.4035 C   0  0  0  0  0  0  0  0  0  0  0  0
   -9.3739    0.8688   -0.0923 C   0  0  0  0  0  0  0  0  0  0  0  0
   -8.3863   -0.1100   -0.6896 C   0  0  0  0  0  0  0  0  0  0  0  0
   -7.8531   -0.9586    0.4409 C   0  0  0  0  0  0  0  0  0  0  0  0
    0.2998   -0.8278    1.5024 C   0  0  2  0  0  0  0  0  0  0  0  0
    0.4765   -0.2462    2.8645 C   0  0  0  0  0  0  0  0  0  0  0  0
    1.4685   -0.8458    3.7909 C   0  0  0  0  0  0  0  0  0  0  0  0
    1.5259   -0.6635    0.5881 C   0  0  0  0  0  0  0  0  0  0  0  0
    2.7288   -1.4176    0.9558 C   0  0  0  0  0  0  0  0  0  0  0  0
    3.8885   -0.8266    1.6060 C   0  0  0  0  0  0  0  0  0  0  0  0
    4.0267    0.6721    1.4625 C   0  0  0  0  0  0  0  0  0  0  0  0
    3.2774    1.1459    0.2716 C   0  0  0  0  0  0  0  0  0  0  0  0
    3.9019    0.6784   -0.9305 N   0  0  0  0  0  0  0  0  0  0  0  0
    1.7957    0.8170    0.3486 C   0  0  0  0  0  0  0  0  0  0  0  0
    5.4120    1.3299   -1.1212 S   0  0  0  0  0  0  0  0  0  0  0  0
    4.9443    2.4979   -2.6384 O   0  0  0  0  0  0  0  0  0  0  0  0
    6.0453    2.1513   -0.3025 O   0  0  0  0  0  0  0  0  0  0  0  0
    6.3370    0.2470   -2.1779 C   0  0  1  0  0  0  0  0  0  0  0  0
    7.6736    0.7873   -2.3672 N   0  0  0  0  0  0  0  0  0  0  0  0
    8.7078   -0.1958   -2.2911 C   0  0  0  0  0  0  0  0  0  0  0  0
    8.8422   -0.8477   -0.9549 C   0  0  2  0  0  0  0  0  0  0  0  0
    7.4760   -1.1176   -0.3901 C   0  0  0  0  0  0  0  0  0  0  0  0
    6.4830   -1.1039   -1.5308 C   0  0  0  0  0  0  0  0  0  0  0  0
    9.7138   -0.0667   -0.0036 C   0  0  0  0  0  0  0  0  0  0  0  0
    9.2050    1.1944    0.2211 F   0  0  0  0  0  0  0  0  0  0  0  0
    9.7414   -0.7353    1.2078 F   0  0  0  0  0  0  0  0  0  0  0  0
   10.9860   -0.0003   -0.5731 F   0  0  0  0  0  0  0  0  0  0  0  0
   -1.9324    0.6164    2.4383 H   0  0  0  0  0  0  0  0  0  0  0  0
   -0.4684    0.9505    0.5823 H   0  0  0  0  0  0  0  0  0  0  0  0
   -0.6318   -1.7725   -0.4798 H   0  0  0  0  0  0  0  0  0  0  0  0
   -2.7002   -1.3254   -1.7779 H   0  0  0  0  0  0  0  0  0  0  0  0
   -2.8266   -2.0804   -0.2091 H   0  0  0  0  0  0  0  0  0  0  0  0
   -1.8223   -1.8934    2.2793 H   0  0  0  0  0  0  0  0  0  0  0  0
   -0.6848    0.8194   -1.5737 H   0  0  0  0  0  0  0  0  0  0  0  0
   -2.8701    1.5603   -1.4967 H   0  0  0  0  0  0  0  0  0  0  0  0
   -4.4536    1.8507   -0.8249 H   0  0  0  0  0  0  0  0  0  0  0  0
   -5.5667    0.5169   -2.5250 H   0  0  0  0  0  0  0  0  0  0  0  0
   -4.5116    1.7821   -3.0910 H   0  0  0  0  0  0  0  0  0  0  0  0
   -4.1457    0.2420   -4.6168 H   0  0  0  0  0  0  0  0  0  0  0  0
   -4.0893   -1.1853   -3.6084 H   0  0  0  0  0  0  0  0  0  0  0  0
   -2.7106    0.0748   -3.6269 H   0  0  0  0  0  0  0  0  0  0  0  0
   -5.3985   -1.2376   -0.5190 H   0  0  0  0  0  0  0  0  0  0  0  0
   -4.5887   -1.4514    1.0206 H   0  0  0  0  0  0  0  0  0  0  0  0
   -5.2984    1.0576    1.5361 H   0  0  0  0  0  0  0  0  0  0  0  0
   -6.0642    1.0584   -0.0727 H   0  0  0  0  0  0  0  0  0  0  0  0
   -6.7326   -0.8026    2.2507 H   0  0  0  0  0  0  0  0  0  0  0  0
   -7.3736    1.9760    1.6017 H   0  0  0  0  0  0  0  0  0  0  0  0
   -7.8779    0.9958    3.0032 H   0  0  0  0  0  0  0  0  0  0  0  0
   -9.8082    0.1797    1.9426 H   0  0  0  0  0  0  0  0  0  0  0  0
   -9.7093    1.9400    1.7000 H   0  0  0  0  0  0  0  0  0  0  0  0
   -9.2771    1.8717   -0.5426 H   0  0  0  0  0  0  0  0  0  0  0  0
  -10.3897    0.4939   -0.3317 H   0  0  0  0  0  0  0  0  0  0  0  0
   -7.5903    0.4104   -1.2555 H   0  0  0  0  0  0  0  0  0  0  0  0
   -8.8771   -0.7926   -1.4121 H   0  0  0  0  0  0  0  0  0  0  0  0
   -8.7493   -1.3134    1.0038 H   0  0  0  0  0  0  0  0  0  0  0  0
   -7.2634   -1.8054    0.0507 H   0  0  0  0  0  0  0  0  0  0  0  0
    0.0348   -1.8619    1.5341 H   0  0  0  0  0  0  0  0  0  0  0  0
   -0.5068   -0.2932    3.4481 H   0  0  0  0  0  0  0  0  0  0  0  0
    0.6652    0.8581    2.8687 H   0  0  0  0  0  0  0  0  0  0  0  0
    1.0574   -0.9061    4.8583 H   0  0  0  0  0  0  0  0  0  0  0  0
    2.3730   -0.2095    3.9419 H   0  0  0  0  0  0  0  0  0  0  0  0
    1.6712   -1.8874    3.5441 H   0  0  0  0  0  0  0  0  0  0  0  0
    1.1735   -1.0282   -0.4018 H   0  0  0  0  0  0  0  0  0  0  0  0
    2.4190   -2.3709    1.4851 H   0  0  0  0  0  0  0  0  0  0  0  0
    3.1287   -1.9023   -0.0358 H   0  0  0  0  0  0  0  0  0  0  0  0
    4.0943   -1.1020    2.6634 H   0  0  0  0  0  0  0  0  0  0  0  0
    4.8433   -1.2120    1.0966 H   0  0  0  0  0  0  0  0  0  0  0  0
    3.5514    1.1419    2.3634 H   0  0  0  0  0  0  0  0  0  0  0  0
    5.0569    1.0107    1.4312 H   0  0  0  0  0  0  0  0  0  0  0  0
    3.3128    2.2775    0.3056 H   0  0  0  0  0  0  0  0  0  0  0  0
    3.2761    0.6913   -1.7511 H   0  0  0  0  0  0  0  0  0  0  0  0
    1.3777    1.4732    1.1344 H   0  0  0  0  0  0  0  0  0  0  0  0
    1.3892    1.1974   -0.6044 H   0  0  0  0  0  0  0  0  0  0  0  0
    4.3094    2.9885   -2.0705 H   0  0  0  0  0  0  0  0  0  0  0  0
    6.7198    2.4264    0.3411 H   0  0  0  0  0  0  0  0  0  0  0  0
    5.8490    0.1374   -3.1590 H   0  0  0  0  0  0  0  0  0  0  0  0
    7.8334    1.4746   -1.5969 H   0  0  0  0  0  0  0  0  0  0  0  0
    9.6642    0.3152   -2.5256 H   0  0  0  0  0  0  0  0  0  0  0  0
    8.5259   -0.9732   -3.0795 H   0  0  0  0  0  0  0  0  0  0  0  0
    9.3592   -1.8393   -1.1102 H   0  0  0  0  0  0  0  0  0  0  0  0
    7.4120   -2.1445    0.0514 H   0  0  0  0  0  0  0  0  0  0  0  0
    7.2077   -0.4254    0.4180 H   0  0  0  0  0  0  0  0  0  0  0  0
    5.5274   -1.5192   -1.1749 H   0  0  0  0  0  0  0  0  0  0  0  0
    6.8534   -1.8303   -2.2952 H   0  0  0  0  0  0  0  0  0  0  0  0
  1  2  1  0
  2  3  1  0
  3  4  1  0
  4  5  1  0
  1  6  1  0
  5  6  1  0
  2  7  1  0
  4  8  1  0
  6  9  1  6
  9 10  1  0
 10 11  1  0
  6 12  1  0
 12 13  1  0
 13 14  1  0
 14 15  1  0
 15 16  1  0
 16 17  1  0
 17 18  1  0
 14 19  1  0
 18 19  1  0
  3 20  1  0
 20 21  1  0
 21 22  1  0
 20 23  1  0
 23 24  1  0
 24 25  1  0
 25 26  1  0
 26 27  1  0
 27 28  1  0
 23 29  1  0
 27 29  1  0
 28 30  1  0
 30 31  1  0
 30 32  1  0
 30 33  1  0
 33 34  1  0
 34 35  1  0
 35 36  1  0
 36 37  1  0
 33 38  1  0
 37 38  1  0
 36 39  1  0
 39 40  1  0
 39 41  1  0
 39 42  1  0
  2 43  1  0
  3 44  1  0
  4 45  1  0
  5 46  1  0
  5 47  1  0
  7 48  1  0
  8 49  1  0
  9 50  1  0
  9 51  1  0
 10 52  1  0
 10 53  1  0
 11 54  1  0
 11 55  1  0
 11 56  1  0
 12 57  1  0
 12 58  1  0
 13 59  1  0
 13 60  1  0
 14 61  1  0
 15 62  1  0
 15 63  1  0
 16 64  1  0
 16 65  1  0
 17 66  1  0
 17 67  1  0
 18 68  1  0
 18 69  1  0
 19 70  1  0
 19 71  1  0
 20 72  1  1
 21 73  1  0
 21 74  1  0
 22 75  1  0
 22 76  1  0
 22 77  1  0
 23 78  1  0
 24 79  1  0
 24 80  1  0
 25 81  1  0
 25 82  1  0
 26 83  1  0
 26 84  1  0
 27 85  1  0
 28 86  1  0
 29 87  1  0
 29 88  1  0
 31 89  1  0
 32 90  1  0
 33 91  1  6
 34 92  1  0
 35 93  1  0
 35 94  1  0
 36 95  1  6
 37 96  1  0
 37 97  1  0
 38 98  1  0
 38 99  1  0
M  END
>  <PDBID>  (1) 
2O4P

>  <PDB ID>  (1) 
2O4P

>  <Generic Name>  (1) 
Tipranavir

>  <Brand Name>  (1) 
Aptivus

>  <DrugBank ID>  (1) 
DB00932

>  <ATC Codes>  (1) 
J05AE09

>  <Ligand ID>  (1) 
TPV

>  <Target Name>  (1) 
Pol polyprotein

>  <UniProt ID>  (1) 
Q72874

>  <PDB ID.1>  (1) 
2O4P

>  <Seq. Identity>  (1) 
98%

$$$$
