PDB_DB01283_05
     RDKit          3D

 94 96  0  0  0  0  0  0  0  0999 V2000
   -3.7310    2.0418    1.1358 O   0  0  0  0  0  0  0  0  0  0  0  0
   -2.7142    2.6890    0.4351 C   0  0  0  0  0  0  0  0  0  0  0  0
   -3.1682    3.0971   -0.8267 O   0  0  0  0  0  0  0  0  0  0  0  0
   -1.4498    1.8486    0.3169 C   0  0  0  0  0  0  0  0  0  0  0  0
   -1.6447    0.5648   -0.4615 C   0  0  0  0  0  0  0  0  0  0  0  0
   -2.7407   -0.2522    0.1493 C   0  0  0  0  0  0  0  0  0  0  0  0
   -2.7826   -1.5470   -0.7054 C   0  0  0  0  0  0  0  0  0  0  0  0
   -4.0820   -2.2545   -0.4034 C   0  0  0  0  0  0  0  0  0  0  0  0
   -1.6599   -2.3545   -0.1320 C   0  0  0  0  0  0  0  0  0  0  0  0
   -0.3695   -1.6235   -0.0960 C   0  0  0  0  0  0  0  0  0  0  0  0
   -0.3477   -0.2044   -0.5627 C   0  0  0  0  0  0  0  0  0  0  0  0
    0.6880    0.4392    0.2665 N   0  0  0  0  0  0  0  0  0  0  0  0
    2.0256   -0.0521   -0.0622 C   0  0  0  0  0  0  0  0  0  0  0  0
    2.9087    1.1512   -0.3764 C   0  0  0  0  0  0  0  0  0  0  0  0
    2.0339    2.3224   -1.3877 Cl  0  0  0  0  0  0  0  0  0  0  0  0
    4.2609    0.8097   -0.8847 C   0  0  0  0  0  0  0  0  0  0  0  0
    4.7461   -0.4576   -0.2082 C   0  0  0  0  0  0  0  0  0  0  0  0
    4.1575   -0.4855    1.1760 C   0  0  0  0  0  0  0  0  0  0  0  0
    2.6730   -0.7969    1.0764 C   0  0  0  0  0  0  0  0  0  0  0  0
    2.6047   -2.1717    0.9118 F   0  0  0  0  0  0  0  0  0  0  0  0
   -3.7310    2.0418    1.1358 O   0  0  0  0  0  0  0  0  0  0  0  0
   -2.7142    2.6890    0.4351 C   0  0  0  0  0  0  0  0  0  0  0  0
   -3.1682    3.0971   -0.8267 O   0  0  0  0  0  0  0  0  0  0  0  0
   -1.4498    1.8486    0.3169 C   0  0  0  0  0  0  0  0  0  0  0  0
   -1.6447    0.5648   -0.4615 C   0  0  0  0  0  0  0  0  0  0  0  0
   -2.7407   -0.2522    0.1493 C   0  0  0  0  0  0  0  0  0  0  0  0
   -2.7826   -1.5470   -0.7054 C   0  0  0  0  0  0  0  0  0  0  0  0
   -4.0820   -2.2545   -0.4034 C   0  0  0  0  0  0  0  0  0  0  0  0
   -1.6599   -2.3545   -0.1320 C   0  0  0  0  0  0  0  0  0  0  0  0
   -0.3695   -1.6235   -0.0960 C   0  0  0  0  0  0  0  0  0  0  0  0
   -0.3477   -0.2044   -0.5627 C   0  0  0  0  0  0  0  0  0  0  0  0
    0.6880    0.4392    0.2665 N   0  0  0  0  0  0  0  0  0  0  0  0
    2.0256   -0.0521   -0.0622 C   0  0  0  0  0  0  0  0  0  0  0  0
    2.9087    1.1512   -0.3764 C   0  0  0  0  0  0  0  0  0  0  0  0
    2.0339    2.3224   -1.3877 Cl  0  0  0  0  0  0  0  0  0  0  0  0
    4.2609    0.8097   -0.8847 C   0  0  0  0  0  0  0  0  0  0  0  0
    4.7461   -0.4576   -0.2082 C   0  0  0  0  0  0  0  0  0  0  0  0
    4.1575   -0.4855    1.1760 C   0  0  0  0  0  0  0  0  0  0  0  0
    2.6730   -0.7969    1.0764 C   0  0  0  0  0  0  0  0  0  0  0  0
    2.6047   -2.1717    0.9118 F   0  0  0  0  0  0  0  0  0  0  0  0
   -3.3385    1.7984    2.0269 H   0  0  0  0  0  0  0  0  0  0  0  0
   -2.4466    3.5950    0.9922 H   0  0  0  0  0  0  0  0  0  0  0  0
   -2.7202    3.9419   -1.0580 H   0  0  0  0  0  0  0  0  0  0  0  0
   -0.7921    2.5554   -0.3116 H   0  0  0  0  0  0  0  0  0  0  0  0
   -1.0486    1.7143    1.3212 H   0  0  0  0  0  0  0  0  0  0  0  0
   -1.9886    0.8837   -1.4635 H   0  0  0  0  0  0  0  0  0  0  0  0
   -2.5754   -0.5722    1.1780 H   0  0  0  0  0  0  0  0  0  0  0  0
   -3.7276    0.2239   -0.0548 H   0  0  0  0  0  0  0  0  0  0  0  0
   -2.6852   -1.3337   -1.7719 H   0  0  0  0  0  0  0  0  0  0  0  0
   -4.0502   -2.7251    0.6156 H   0  0  0  0  0  0  0  0  0  0  0  0
   -4.2877   -3.0514   -1.1302 H   0  0  0  0  0  0  0  0  0  0  0  0
   -4.9406   -1.5418   -0.4161 H   0  0  0  0  0  0  0  0  0  0  0  0
   -2.0062   -2.6165    0.9176 H   0  0  0  0  0  0  0  0  0  0  0  0
   -1.6266   -3.3404   -0.6374 H   0  0  0  0  0  0  0  0  0  0  0  0
   -0.0077   -1.6565    0.9799 H   0  0  0  0  0  0  0  0  0  0  0  0
    0.3739   -2.2158   -0.6644 H   0  0  0  0  0  0  0  0  0  0  0  0
    0.0274   -0.1687   -1.5939 H   0  0  0  0  0  0  0  0  0  0  0  0
    0.6763    1.4301    0.0272 H   0  0  0  0  0  0  0  0  0  0  0  0
    1.9573   -0.6709   -0.9839 H   0  0  0  0  0  0  0  0  0  0  0  0
    3.0196    1.6714    0.6308 H   0  0  0  0  0  0  0  0  0  0  0  0
    4.9630    1.6130   -0.5072 H   0  0  0  0  0  0  0  0  0  0  0  0
    4.3853    0.8104   -1.9683 H   0  0  0  0  0  0  0  0  0  0  0  0
    4.4165   -1.3146   -0.8300 H   0  0  0  0  0  0  0  0  0  0  0  0
    5.8633   -0.4191   -0.0919 H   0  0  0  0  0  0  0  0  0  0  0  0
    4.3577    0.4483    1.6995 H   0  0  0  0  0  0  0  0  0  0  0  0
    4.6333   -1.3383    1.7345 H   0  0  0  0  0  0  0  0  0  0  0  0
    2.1599   -0.4844    1.9988 H   0  0  0  0  0  0  0  0  0  0  0  0
   -3.3385    1.7984    2.0269 H   0  0  0  0  0  0  0  0  0  0  0  0
   -2.4466    3.5950    0.9922 H   0  0  0  0  0  0  0  0  0  0  0  0
   -2.7202    3.9419   -1.0580 H   0  0  0  0  0  0  0  0  0  0  0  0
   -0.7921    2.5554   -0.3116 H   0  0  0  0  0  0  0  0  0  0  0  0
   -1.0486    1.7143    1.3212 H   0  0  0  0  0  0  0  0  0  0  0  0
   -1.9886    0.8837   -1.4635 H   0  0  0  0  0  0  0  0  0  0  0  0
   -2.5754   -0.5722    1.1780 H   0  0  0  0  0  0  0  0  0  0  0  0
   -3.7276    0.2239   -0.0548 H   0  0  0  0  0  0  0  0  0  0  0  0
   -2.6852   -1.3337   -1.7719 H   0  0  0  0  0  0  0  0  0  0  0  0
   -4.0502   -2.7251    0.6156 H   0  0  0  0  0  0  0  0  0  0  0  0
   -4.2877   -3.0514   -1.1302 H   0  0  0  0  0  0  0  0  0  0  0  0
   -4.9406   -1.5418   -0.4161 H   0  0  0  0  0  0  0  0  0  0  0  0
   -2.0062   -2.6165    0.9176 H   0  0  0  0  0  0  0  0  0  0  0  0
   -1.6266   -3.3404   -0.6374 H   0  0  0  0  0  0  0  0  0  0  0  0
   -0.0077   -1.6565    0.9799 H   0  0  0  0  0  0  0  0  0  0  0  0
    0.3739   -2.2158   -0.6644 H   0  0  0  0  0  0  0  0  0  0  0  0
    0.0274   -0.1687   -1.5939 H   0  0  0  0  0  0  0  0  0  0  0  0
    0.6763    1.4301    0.0272 H   0  0  0  0  0  0  0  0  0  0  0  0
    1.9573   -0.6709   -0.9839 H   0  0  0  0  0  0  0  0  0  0  0  0
    3.0196    1.6714    0.6308 H   0  0  0  0  0  0  0  0  0  0  0  0
    4.9630    1.6130   -0.5072 H   0  0  0  0  0  0  0  0  0  0  0  0
    4.3853    0.8104   -1.9683 H   0  0  0  0  0  0  0  0  0  0  0  0
    4.4165   -1.3146   -0.8300 H   0  0  0  0  0  0  0  0  0  0  0  0
    5.8633   -0.4191   -0.0919 H   0  0  0  0  0  0  0  0  0  0  0  0
    4.3577    0.4483    1.6995 H   0  0  0  0  0  0  0  0  0  0  0  0
    4.6333   -1.3383    1.7345 H   0  0  0  0  0  0  0  0  0  0  0  0
    2.1599   -0.4844    1.9988 H   0  0  0  0  0  0  0  0  0  0  0  0
  1  2  1  0
  2  3  1  0
  2  4  1  0
  4  5  1  0
  5  6  1  0
  6  7  1  0
  7  8  1  0
  7  9  1  0
  9 10  1  0
  5 11  1  0
 10 11  1  0
 11 12  1  0
 12 13  1  0
 13 14  1  0
 14 15  1  0
 14 16  1  0
 16 17  1  0
 17 18  1  0
 13 19  1  0
 18 19  1  0
 19 20  1  0
 21 22  1  0
 22 23  1  0
 22 24  1  0
 24 25  1  0
 25 26  1  0
 26 27  1  0
 27 28  1  0
 27 29  1  0
 29 30  1  0
 25 31  1  0
 30 31  1  0
 31 32  1  0
 32 33  1  0
 33 34  1  0
 34 35  1  0
 34 36  1  0
 36 37  1  0
 37 38  1  0
 33 39  1  0
 38 39  1  0
 39 40  1  0
  1 41  1  0
  2 42  1  0
  3 43  1  0
  4 44  1  0
  4 45  1  0
  5 46  1  0
  6 47  1  0
  6 48  1  0
  7 49  1  0
  8 50  1  0
  8 51  1  0
  8 52  1  0
  9 53  1  0
  9 54  1  0
 10 55  1  0
 10 56  1  0
 11 57  1  0
 12 58  1  0
 13 59  1  0
 14 60  1  0
 16 61  1  0
 16 62  1  0
 17 63  1  0
 17 64  1  0
 18 65  1  0
 18 66  1  0
 19 67  1  0
 21 68  1  0
 22 69  1  0
 23 70  1  0
 24 71  1  0
 24 72  1  0
 25 73  1  0
 26 74  1  0
 26 75  1  0
 27 76  1  0
 28 77  1  0
 28 78  1  0
 28 79  1  0
 29 80  1  0
 29 81  1  0
 30 82  1  0
 30 83  1  0
 31 84  1  0
 32 85  1  0
 33 86  1  0
 34 87  1  0
 36 88  1  0
 36 89  1  0
 37 90  1  0
 37 91  1  0
 38 92  1  0
 38 93  1  0
 39 94  1  0
M  END
>  <PDBID>  (1) 
4OTY

>  <PDB ID>  (1) 
4OTY

>  <Generic Name>  (1) 
Lumiracoxib

>  <Brand Name>  (1) 
Prexige

>  <DrugBank ID>  (1) 
DB01283

>  <ATC Codes>  (1) 
M01AH06

>  <Ligand ID>  (1) 
LUR

>  <Target Name>  (1) 
Prostaglandin G/H synthase 1

>  <UniProt ID>  (1) 
P23219

>  <PDB ID.1>  (1) 
4OTY

>  <Seq. Identity>  (1) 
62%

$$$$
