PDB_DB00730_00
     RDKit          3D

 33 35  0  0  0  0  0  0  0  0999 V2000
   -0.9899    0.7756    0.0911 C   0  0  0  0  0  0  0  0  0  0  0  0
    0.3311    0.8949   -0.4317 N   0  0  0  0  0  0  0  0  0  0  0  0
    0.9202   -0.4025   -0.3474 C   0  0  0  0  0  0  0  0  0  0  0  0
    2.2957   -0.4459    0.2070 C   0  0  0  0  0  0  0  0  0  0  0  0
    2.4459    0.0754    1.5968 C   0  0  0  0  0  0  0  0  0  0  0  0
    4.2895    0.0073    1.6841 S   0  0  0  0  0  0  0  0  0  0  0  0
    4.5588   -0.0476   -0.1337 C   0  0  0  0  0  0  0  0  0  0  0  0
    3.2322    0.3005   -0.6062 N   0  0  0  0  0  0  0  0  0  0  0  0
    0.0569   -1.2139    0.5201 N   0  0  0  0  0  0  0  0  0  0  0  0
   -1.2475   -0.7394    0.1108 C   0  0  0  0  0  0  0  0  0  0  0  0
   -2.3204   -0.9632    1.1129 C   0  0  0  0  0  0  0  0  0  0  0  0
   -3.4590   -0.0186    0.8211 C   0  0  0  0  0  0  0  0  0  0  0  0
   -3.3476    0.6384   -0.5269 C   0  0  0  0  0  0  0  0  0  0  0  0
   -2.0657    1.3694   -0.7440 C   0  0  0  0  0  0  0  0  0  0  0  0
   -1.0787    1.1561    1.1390 H   0  0  0  0  0  0  0  0  0  0  0  0
    0.8686    1.5423    0.1902 H   0  0  0  0  0  0  0  0  0  0  0  0
    0.9461   -0.8426   -1.3660 H   0  0  0  0  0  0  0  0  0  0  0  0
    2.6380   -1.5019    0.2012 H   0  0  0  0  0  0  0  0  0  0  0  0
    2.2057    1.1447    1.7050 H   0  0  0  0  0  0  0  0  0  0  0  0
    2.0179   -0.5675    2.3606 H   0  0  0  0  0  0  0  0  0  0  0  0
    4.9055   -1.0254   -0.4578 H   0  0  0  0  0  0  0  0  0  0  0  0
    5.2340    0.7879   -0.4219 H   0  0  0  0  0  0  0  0  0  0  0  0
    3.1540   -0.0800   -1.5802 H   0  0  0  0  0  0  0  0  0  0  0  0
    0.1622   -2.1957    0.1713 H   0  0  0  0  0  0  0  0  0  0  0  0
   -1.5049   -1.0471   -0.9052 H   0  0  0  0  0  0  0  0  0  0  0  0
   -1.9107   -0.6534    2.1177 H   0  0  0  0  0  0  0  0  0  0  0  0
   -2.6341   -2.0130    1.2226 H   0  0  0  0  0  0  0  0  0  0  0  0
   -3.6228    0.7333    1.6072 H   0  0  0  0  0  0  0  0  0  0  0  0
   -4.3895   -0.6489    0.7898 H   0  0  0  0  0  0  0  0  0  0  0  0
   -4.1755    1.3749   -0.5980 H   0  0  0  0  0  0  0  0  0  0  0  0
   -3.5672   -0.1167   -1.3360 H   0  0  0  0  0  0  0  0  0  0  0  0
   -2.1666    2.4760   -0.6031 H   0  0  0  0  0  0  0  0  0  0  0  0
   -1.7823    1.2469   -1.8267 H   0  0  0  0  0  0  0  0  0  0  0  0
  1  2  1  0
  2  3  1  0
  3  4  1  0
  4  5  1  0
  5  6  1  0
  6  7  1  0
  4  8  1  0
  7  8  1  0
  3  9  1  0
  1 10  1  0
  9 10  1  0
 10 11  1  0
 11 12  1  0
 12 13  1  0
  1 14  1  0
 13 14  1  0
  1 15  1  0
  2 16  1  0
  3 17  1  0
  4 18  1  0
  5 19  1  0
  5 20  1  0
  7 21  1  0
  7 22  1  0
  8 23  1  0
  9 24  1  0
 10 25  1  0
 11 26  1  0
 11 27  1  0
 12 28  1  0
 12 29  1  0
 13 30  1  0
 13 31  1  0
 14 32  1  0
 14 33  1  0
M  END
>  <PDBID>  (1) 
3SFE

>  <PDB ID>  (1) 
3SFE

>  <Generic Name>  (1) 
Thiabendazole

>  <Brand Name>  (1) 
Mintezol Chewable Tab 500mg#Mintezol

>  <DrugBank ID>  (1) 
DB00730

>  <ATC Codes>  (1) 
D01AC06#P02CA02

>  <Ligand ID>  (1) 
TMG

>  <Target Name>  (1) 
Fumarate reductase flavoprotein subunit

>  <UniProt ID>  (1) 
P00363

>  <PDB ID.1>  (1) 
3SFE

>  <Seq. Identity>  (1) 
38%

$$$$
