PDB_DB11363_07
     RDKit          3D

 90 95  0  0  0  0  0  0  0  0999 V2000
   -5.0007   -1.8579    0.3534 C   0  0  0  0  0  0  0  0  0  0  0  0
   -6.5429   -0.9072   -1.4121 C   0  0  0  0  0  0  0  0  0  0  0  0
   -6.4274   -1.7572   -0.2014 C   0  0  0  0  0  0  0  0  0  0  0  0
   -3.1358   -0.2580    1.0156 C   0  0  0  0  0  0  0  0  0  0  0  0
   -2.9817    1.1966    0.5432 C   0  0  0  0  0  0  0  0  0  0  0  0
    1.8303    0.1558    0.7473 C   0  0  0  0  0  0  0  0  0  0  0  0
    0.0061   -1.3319    1.5094 C   0  0  0  0  0  0  0  0  0  0  0  0
   -0.7267   -0.7007    0.3515 C   0  0  0  0  0  0  0  0  0  0  0  0
   -1.6030    1.6554    0.7115 C   0  0  0  0  0  0  0  0  0  0  0  0
   -1.4558    2.9928   -0.0298 C   0  0  0  0  0  0  0  0  0  0  0  0
   -1.3988    1.9999    2.1840 C   0  0  0  0  0  0  0  0  0  0  0  0
    1.6618   -2.4438    3.5969 C   0  0  0  0  0  0  0  0  0  0  0  0
    4.6860   -0.1219   -1.3387 C   0  0  0  0  0  0  0  0  0  0  0  0
    4.1955   -1.2854   -0.5251 C   0  0  0  0  0  0  0  0  0  0  0  0
   -8.1858    0.2705   -2.7777 N   0  0  0  0  0  0  0  0  0  0  0  0
   -8.0202   -0.5655   -1.5989 C   0  0  0  0  0  0  0  0  0  0  0  0
   -5.8375    0.4485   -1.2752 C   0  0  0  0  0  0  0  0  0  0  0  0
   -4.4238    0.1380   -0.8907 C   0  0  0  0  0  0  0  0  0  0  0  0
   -4.5320   -0.4720    0.5170 C   0  0  0  0  0  0  0  0  0  0  0  0
   -3.5531    1.2561   -0.7560 N   0  0  0  0  0  0  0  0  0  0  0  0
   -0.5367    0.7521    0.1708 C   0  0  0  0  0  0  0  0  0  0  0  0
   -2.1441   -1.1681    0.4014 C   0  0  0  0  0  0  0  0  0  0  0  0
   -2.1987   -2.3798    1.1350 O   0  0  0  0  0  0  0  0  0  0  0  0
    0.7816    1.2892    0.6738 C   0  0  0  0  0  0  0  0  0  0  0  0
    1.3190   -0.7067    1.8427 C   0  0  0  0  0  0  0  0  0  0  0  0
    2.3187   -1.6096    2.4837 C   0  0  0  0  0  0  0  0  0  0  0  0
    1.9237   -0.3594   -0.5467 N   0  0  0  0  0  0  0  0  0  0  0  0
    2.3980    0.6624   -1.4623 C   0  0  0  0  0  0  0  0  0  0  0  0
    3.8316    1.0837   -1.1505 C   0  0  0  0  0  0  0  0  0  0  0  0
    2.7063   -1.5071   -0.8190 C   0  0  0  0  0  0  0  0  0  0  0  0
    6.0651    0.0667   -1.1319 N   0  0  0  0  0  0  0  0  0  0  0  0
    6.9360   -0.9732   -1.5233 C   0  0  0  0  0  0  0  0  0  0  0  0
    8.3598   -0.5034   -1.6096 C   0  0  0  0  0  0  0  0  0  0  0  0
    8.7053    0.0267   -0.3674 O   0  0  0  0  0  0  0  0  0  0  0  0
    7.9598    1.2001   -0.2232 C   0  0  0  0  0  0  0  0  0  0  0  0
    6.4723    0.8892   -0.0611 C   0  0  0  0  0  0  0  0  0  0  0  0
   -5.0953   -2.3275    1.3605 H   0  0  0  0  0  0  0  0  0  0  0  0
   -4.3914   -2.4334   -0.3390 H   0  0  0  0  0  0  0  0  0  0  0  0
   -6.1923   -1.4356   -2.2972 H   0  0  0  0  0  0  0  0  0  0  0  0
   -6.7192   -2.7828   -0.4627 H   0  0  0  0  0  0  0  0  0  0  0  0
   -7.1304   -1.4090    0.5781 H   0  0  0  0  0  0  0  0  0  0  0  0
   -3.1595   -0.2584    2.1214 H   0  0  0  0  0  0  0  0  0  0  0  0
   -3.6443    1.7871    1.2329 H   0  0  0  0  0  0  0  0  0  0  0  0
    2.7501    0.6632    1.1378 H   0  0  0  0  0  0  0  0  0  0  0  0
   -0.7123   -1.3570    2.3685 H   0  0  0  0  0  0  0  0  0  0  0  0
    0.2056   -2.4164    1.2886 H   0  0  0  0  0  0  0  0  0  0  0  0
   -0.2811   -1.2234   -0.5553 H   0  0  0  0  0  0  0  0  0  0  0  0
   -0.5673    3.5068    0.3761 H   0  0  0  0  0  0  0  0  0  0  0  0
   -2.3915    3.5453    0.0825 H   0  0  0  0  0  0  0  0  0  0  0  0
   -1.2287    2.7378   -1.0871 H   0  0  0  0  0  0  0  0  0  0  0  0
   -0.7838    2.9294    2.2988 H   0  0  0  0  0  0  0  0  0  0  0  0
   -2.4002    2.2886    2.6248 H   0  0  0  0  0  0  0  0  0  0  0  0
   -1.0498    1.1591    2.7807 H   0  0  0  0  0  0  0  0  0  0  0  0
    2.4105   -2.8546    4.2728 H   0  0  0  0  0  0  0  0  0  0  0  0
    1.0960   -3.2879    3.1407 H   0  0  0  0  0  0  0  0  0  0  0  0
    0.8935   -1.8132    4.1022 H   0  0  0  0  0  0  0  0  0  0  0  0
    4.5475   -0.4368   -2.4180 H   0  0  0  0  0  0  0  0  0  0  0  0
    4.3922   -1.0940    0.5275 H   0  0  0  0  0  0  0  0  0  0  0  0
    4.7152   -2.2020   -0.9225 H   0  0  0  0  0  0  0  0  0  0  0  0
   -7.5028   -0.0806   -3.5037 H   0  0  0  0  0  0  0  0  0  0  0  0
   -9.1594    0.2446   -3.1385 H   0  0  0  0  0  0  0  0  0  0  0  0
   -8.6390   -1.4705   -1.7564 H   0  0  0  0  0  0  0  0  0  0  0  0
   -8.4287   -0.0466   -0.7175 H   0  0  0  0  0  0  0  0  0  0  0  0
   -5.8888    0.9097   -2.2832 H   0  0  0  0  0  0  0  0  0  0  0  0
   -6.3682    1.0760   -0.5419 H   0  0  0  0  0  0  0  0  0  0  0  0
   -4.0505   -0.6135   -1.6175 H   0  0  0  0  0  0  0  0  0  0  0  0
   -5.2427    0.1688    1.0621 H   0  0  0  0  0  0  0  0  0  0  0  0
   -3.9603    2.1642   -1.0261 H   0  0  0  0  0  0  0  0  0  0  0  0
   -0.5211    0.9623   -0.9450 H   0  0  0  0  0  0  0  0  0  0  0  0
   -2.5025   -1.4798   -0.6256 H   0  0  0  0  0  0  0  0  0  0  0  0
   -2.1529   -3.1666    0.5674 H   0  0  0  0  0  0  0  0  0  0  0  0
    0.6503    1.5910    1.7450 H   0  0  0  0  0  0  0  0  0  0  0  0
    1.1489    2.1777    0.1714 H   0  0  0  0  0  0  0  0  0  0  0  0
    1.0546    0.0165    2.6878 H   0  0  0  0  0  0  0  0  0  0  0  0
    2.8167   -2.3307    1.8411 H   0  0  0  0  0  0  0  0  0  0  0  0
    3.0511   -0.9544    3.0426 H   0  0  0  0  0  0  0  0  0  0  0  0
    2.4830    0.1295   -2.4589 H   0  0  0  0  0  0  0  0  0  0  0  0
    1.7167    1.4870   -1.6394 H   0  0  0  0  0  0  0  0  0  0  0  0
    3.9366    1.6141   -0.2106 H   0  0  0  0  0  0  0  0  0  0  0  0
    4.0978    1.8091   -1.9664 H   0  0  0  0  0  0  0  0  0  0  0  0
    2.3475   -2.4697   -0.4768 H   0  0  0  0  0  0  0  0  0  0  0  0
    2.7008   -1.6084   -1.9532 H   0  0  0  0  0  0  0  0  0  0  0  0
    6.5696   -1.3943   -2.4827 H   0  0  0  0  0  0  0  0  0  0  0  0
    6.8922   -1.7948   -0.7787 H   0  0  0  0  0  0  0  0  0  0  0  0
    8.4933    0.2983   -2.3509 H   0  0  0  0  0  0  0  0  0  0  0  0
    9.0460   -1.3372   -1.8080 H   0  0  0  0  0  0  0  0  0  0  0  0
    8.3161    1.7735    0.6560 H   0  0  0  0  0  0  0  0  0  0  0  0
    8.0350    1.8522   -1.1205 H   0  0  0  0  0  0  0  0  0  0  0  0
    5.9537    1.8476   -0.0343 H   0  0  0  0  0  0  0  0  0  0  0  0
    6.3916    0.3480    0.9140 H   0  0  0  0  0  0  0  0  0  0  0  0
  1  3  1  0
  2  3  1  0
  4  5  1  0
  7  8  1  0
  5  9  1  0
  9 10  1  0
  9 11  1  0
 13 14  1  0
  2 16  1  0
 15 16  1  0
  2 17  1  0
 17 18  1  0
  1 19  1  0
  4 19  1  0
 18 19  1  0
  5 20  1  0
 18 20  1  0
  8 21  1  0
  9 21  1  0
  4 22  1  0
  8 22  1  0
 22 23  1  0
  6 24  1  0
 21 24  1  0
  6 25  1  0
  7 25  1  0
 12 26  1  0
 25 26  1  0
  6 27  1  0
 27 28  1  0
 13 29  1  0
 28 29  1  0
 14 30  1  0
 27 30  1  0
 13 31  1  0
 31 32  1  0
 32 33  1  0
 33 34  1  0
 34 35  1  0
 31 36  1  0
 35 36  1  0
  1 37  1  0
  1 38  1  0
  2 39  1  0
  3 40  1  0
  3 41  1  0
  4 42  1  0
  5 43  1  0
  6 44  1  0
  7 45  1  0
  7 46  1  0
  8 47  1  0
 10 48  1  0
 10 49  1  0
 10 50  1  0
 11 51  1  0
 11 52  1  0
 11 53  1  0
 12 54  1  0
 12 55  1  0
 12 56  1  0
 13 57  1  0
 14 58  1  0
 14 59  1  0
 15 60  1  0
 15 61  1  0
 16 62  1  0
 16 63  1  0
 17 64  1  0
 17 65  1  0
 18 66  1  0
 19 67  1  0
 20 68  1  0
 21 69  1  0
 22 70  1  0
 23 71  1  0
 24 72  1  0
 24 73  1  0
 25 74  1  0
 26 75  1  0
 26 76  1  0
 28 77  1  0
 28 78  1  0
 29 79  1  0
 29 80  1  0
 30 81  1  0
 30 82  1  0
 32 83  1  0
 32 84  1  0
 33 85  1  0
 33 86  1  0
 35 87  1  0
 35 88  1  0
 36 89  1  0
 36 90  1  0
M  END
>  <PDBID>  (1) 
3AOX

>  <PDB ID>  (1) 
3AOX

>  <Generic Name>  (1) 
Alectinib

>  <Brand Name>  (1) 
Alecensa#Alecensaro

>  <DrugBank ID>  (1) 
DB11363

>  <ATC Codes>  (1) 
nan

>  <Ligand ID>  (1) 
EMH

>  <Target Name>  (1) 
ALK tyrosine kinase receptor

>  <UniProt ID>  (1) 
Q9UM73

>  <PDB ID.1>  (1) 
3AOX

>  <Seq. Identity>  (1) 
100%

$$$$
