PDB_DB00866_02
     RDKit          3D

 49 49  0  0  0  0  0  0  0  0999 V2000
    5.8017    0.7928   -1.1749 C   0  0  0  0  0  0  0  0  0  0  0  0
    3.7511    0.6094    0.1430 N   0  0  0  0  0  0  0  0  0  0  0  0
    1.1920    0.7173    1.4770 O   0  0  0  0  0  0  0  0  0  0  0  0
    5.1111    0.1118   -0.0217 C   0  0  0  0  0  0  0  0  0  0  0  0
   -0.7607   -1.2822    0.2940 O   0  0  0  0  0  0  0  0  0  0  0  0
    5.8706    0.1736    1.2640 C   0  0  0  0  0  0  0  0  0  0  0  0
    2.8339   -0.4974    0.3084 C   0  0  0  0  0  0  0  0  0  0  0  0
    1.3739   -0.0919    0.3923 C   0  0  1  0  0  0  0  0  0  0  0  0
    0.5835   -1.3463    0.3381 C   0  0  0  0  0  0  0  0  0  0  0  0
   -1.3389   -0.5760   -0.7530 C   0  0  0  0  0  0  0  0  0  0  0  0
   -2.1316   -1.6094   -1.5502 C   0  0  0  0  0  0  0  0  0  0  0  0
   -2.7985   -2.5110   -0.5405 C   0  0  0  0  0  0  0  0  0  0  0  0
   -3.6893   -1.7319    0.3670 C   0  0  0  0  0  0  0  0  0  0  0  0
   -3.0152   -0.5325    0.9873 C   0  0  0  0  0  0  0  0  0  0  0  0
   -2.3575    0.3413   -0.0658 C   0  0  0  0  0  0  0  0  0  0  0  0
   -3.3293    0.9728   -0.9810 C   0  0  0  0  0  0  0  0  0  0  0  0
   -4.2859    1.8767   -0.2258 C   0  0  0  0  0  0  0  0  0  0  0  0
   -3.6248    3.0278    0.4818 C   0  0  0  0  0  0  0  0  0  0  0  0
    6.3479    1.6888   -0.7545 H   0  0  0  0  0  0  0  0  0  0  0  0
    6.5225    0.1003   -1.6463 H   0  0  0  0  0  0  0  0  0  0  0  0
    5.0190    1.1246   -1.8882 H   0  0  0  0  0  0  0  0  0  0  0  0
    3.4931    1.2485   -0.6455 H   0  0  0  0  0  0  0  0  0  0  0  0
    1.1481    1.6597    1.1829 H   0  0  0  0  0  0  0  0  0  0  0  0
    5.0833   -0.9844   -0.3129 H   0  0  0  0  0  0  0  0  0  0  0  0
    6.5846    1.0215    1.2581 H   0  0  0  0  0  0  0  0  0  0  0  0
    6.4903   -0.7566    1.4185 H   0  0  0  0  0  0  0  0  0  0  0  0
    5.2104    0.2364    2.1450 H   0  0  0  0  0  0  0  0  0  0  0  0
    2.9850   -1.2452   -0.4644 H   0  0  0  0  0  0  0  0  0  0  0  0
    3.0531   -0.9569    1.3268 H   0  0  0  0  0  0  0  0  0  0  0  0
    1.1549    0.4867   -0.5690 H   0  0  0  0  0  0  0  0  0  0  0  0
    0.9781   -2.0276   -0.4374 H   0  0  0  0  0  0  0  0  0  0  0  0
    0.8299   -1.8928    1.3132 H   0  0  0  0  0  0  0  0  0  0  0  0
   -0.6593   -0.0712   -1.4272 H   0  0  0  0  0  0  0  0  0  0  0  0
   -2.8852   -1.1726   -2.2115 H   0  0  0  0  0  0  0  0  0  0  0  0
   -1.3877   -2.2030   -2.1639 H   0  0  0  0  0  0  0  0  0  0  0  0
   -1.9970   -3.0135    0.0434 H   0  0  0  0  0  0  0  0  0  0  0  0
   -3.4299   -3.2818   -1.0339 H   0  0  0  0  0  0  0  0  0  0  0  0
   -3.9431   -2.4233    1.2261 H   0  0  0  0  0  0  0  0  0  0  0  0
   -4.6435   -1.4971   -0.1072 H   0  0  0  0  0  0  0  0  0  0  0  0
   -2.2430   -0.8799    1.7202 H   0  0  0  0  0  0  0  0  0  0  0  0
   -3.7611    0.0643    1.5139 H   0  0  0  0  0  0  0  0  0  0  0  0
   -1.7472    1.0903    0.4489 H   0  0  0  0  0  0  0  0  0  0  0  0
   -3.9929    0.1327   -1.3808 H   0  0  0  0  0  0  0  0  0  0  0  0
   -2.9248    1.4812   -1.8630 H   0  0  0  0  0  0  0  0  0  0  0  0
   -5.0595    2.2786   -0.9567 H   0  0  0  0  0  0  0  0  0  0  0  0
   -4.9107    1.3325    0.5116 H   0  0  0  0  0  0  0  0  0  0  0  0
   -2.6054    2.7486    0.7838 H   0  0  0  0  0  0  0  0  0  0  0  0
   -4.2650    3.3164    1.3586 H   0  0  0  0  0  0  0  0  0  0  0  0
   -3.6311    3.9499   -0.1657 H   0  0  0  0  0  0  0  0  0  0  0  0
  1  4  1  0
  2  4  1  0
  4  6  1  0
  2  7  1  0
  3  8  1  0
  7  8  1  0
  5  9  1  0
  8  9  1  0
  5 10  1  0
 10 11  1  0
 11 12  1  0
 12 13  1  0
 13 14  1  0
 10 15  1  0
 14 15  1  0
 15 16  1  0
 16 17  1  0
 17 18  1  0
  1 19  1  0
  1 20  1  0
  1 21  1  0
  2 22  1  0
  3 23  1  0
  4 24  1  0
  6 25  1  0
  6 26  1  0
  6 27  1  0
  7 28  1  0
  7 29  1  0
  8 30  1  6
  9 31  1  0
  9 32  1  0
 10 33  1  0
 11 34  1  0
 11 35  1  0
 12 36  1  0
 12 37  1  0
 13 38  1  0
 13 39  1  0
 14 40  1  0
 14 41  1  0
 15 42  1  0
 16 43  1  0
 16 44  1  0
 17 45  1  0
 17 46  1  0
 18 47  1  0
 18 48  1  0
 18 49  1  0
M  END
>  <PDBID>  (1) 
3NYA

>  <PDB ID>  (1) 
3NYA

>  <Generic Name>  (1) 
Alprenolol

>  <Brand Name>  (1) 
Apllobal#Aptin#Aptine#Aptol Duriles#Atenenol#Elp#Gubernal#Regletin#Skajilol#Yobir

>  <DrugBank ID>  (1) 
DB00866

>  <ATC Codes>  (1) 
C07AA01

>  <Ligand ID>  (1) 
JTZ

>  <Target Name>  (1) 
Beta-1 adrenergic receptor

>  <UniProt ID>  (1) 
P08588

>  <PDB ID.1>  (1) 
3NYA

>  <Seq. Identity>  (1) 
67%

$$$$
