PDB_DB00299_02
     RDKit          3D

 82 84  0  0  0  0  0  0  0  0999 V2000
    3.1696    0.9529   -0.4249 C   0  0  0  0  0  0  0  0  0  0  0  0
    1.4107   -0.6211   -0.6824 C   0  0  0  0  0  0  0  0  0  0  0  0
    2.0233   -1.4426    0.4540 C   0  0  0  0  0  0  0  0  0  0  0  0
   -4.4619   -0.4169    0.1464 C   0  0  0  0  0  0  0  0  0  0  0  0
   -4.5069   -1.8026    0.0099 O   0  0  0  0  0  0  0  0  0  0  0  0
   -2.9570    1.4599    0.3603 C   0  0  0  0  0  0  0  0  0  0  0  0
   -3.6227    1.8601    1.5137 O   0  0  0  0  0  0  0  0  0  0  0  0
   -2.9536   -0.0468    0.2128 C   0  0  0  0  0  0  0  0  0  0  0  0
   -2.3006   -0.4119   -1.0745 C   0  0  0  0  0  0  0  0  0  0  0  0
   -0.8542   -0.1364   -1.2220 C   0  0  0  0  0  0  0  0  0  0  0  0
   -0.0191   -0.8427   -0.3468 N   0  0  0  0  0  0  0  0  0  0  0  0
    1.7622    0.7418   -0.4245 N   0  0  0  0  0  0  0  0  0  0  0  0
    3.4003    2.2700    0.1972 N   0  0  0  0  0  0  0  0  0  0  0  0
    3.9840    0.0258    0.2492 N   0  0  0  0  0  0  0  0  0  0  0  0
    3.5046   -1.2581    0.5353 C   0  0  0  0  0  0  0  0  0  0  0  0
    4.0784   -2.1764   -0.3750 O   0  0  0  0  0  0  0  0  0  0  0  0
    1.3219   -0.8183    1.5669 N   0  0  0  0  0  0  0  0  0  0  0  0
   -0.0626   -0.6279    1.0441 C   0  0  0  0  0  0  0  0  0  0  0  0
    3.1696    0.9529   -0.4249 C   0  0  0  0  0  0  0  0  0  0  0  0
    1.4107   -0.6211   -0.6824 C   0  0  0  0  0  0  0  0  0  0  0  0
    2.0233   -1.4426    0.4540 C   0  0  0  0  0  0  0  0  0  0  0  0
   -4.4619   -0.4169    0.1464 C   0  0  0  0  0  0  0  0  0  0  0  0
   -4.5069   -1.8026    0.0099 O   0  0  0  0  0  0  0  0  0  0  0  0
   -2.9570    1.4599    0.3603 C   0  0  0  0  0  0  0  0  0  0  0  0
   -3.6227    1.8601    1.5137 O   0  0  0  0  0  0  0  0  0  0  0  0
   -2.9536   -0.0468    0.2128 C   0  0  0  0  0  0  0  0  0  0  0  0
   -2.3006   -0.4119   -1.0745 C   0  0  0  0  0  0  0  0  0  0  0  0
   -0.8542   -0.1364   -1.2220 C   0  0  0  0  0  0  0  0  0  0  0  0
   -0.0191   -0.8427   -0.3468 N   0  0  0  0  0  0  0  0  0  0  0  0
    1.7622    0.7418   -0.4245 N   0  0  0  0  0  0  0  0  0  0  0  0
    3.4003    2.2700    0.1972 N   0  0  0  0  0  0  0  0  0  0  0  0
    3.9840    0.0258    0.2492 N   0  0  0  0  0  0  0  0  0  0  0  0
    3.5046   -1.2581    0.5353 C   0  0  0  0  0  0  0  0  0  0  0  0
    4.0784   -2.1764   -0.3750 O   0  0  0  0  0  0  0  0  0  0  0  0
    1.3219   -0.8183    1.5669 N   0  0  0  0  0  0  0  0  0  0  0  0
   -0.0626   -0.6279    1.0441 C   0  0  0  0  0  0  0  0  0  0  0  0
    3.5473    1.0819   -1.4830 H   0  0  0  0  0  0  0  0  0  0  0  0
    1.6540   -1.0030   -1.6723 H   0  0  0  0  0  0  0  0  0  0  0  0
    1.7859   -2.4938    0.3212 H   0  0  0  0  0  0  0  0  0  0  0  0
   -4.9079    0.1207   -0.7039 H   0  0  0  0  0  0  0  0  0  0  0  0
   -4.8929   -0.0743    1.0945 H   0  0  0  0  0  0  0  0  0  0  0  0
   -5.0374   -2.2004    0.7457 H   0  0  0  0  0  0  0  0  0  0  0  0
   -1.9347    1.8508    0.4022 H   0  0  0  0  0  0  0  0  0  0  0  0
   -3.4742    1.9437   -0.5062 H   0  0  0  0  0  0  0  0  0  0  0  0
   -3.3733    2.7834    1.7632 H   0  0  0  0  0  0  0  0  0  0  0  0
   -2.6067   -0.5159    1.1149 H   0  0  0  0  0  0  0  0  0  0  0  0
   -2.5220   -1.5329   -1.2007 H   0  0  0  0  0  0  0  0  0  0  0  0
   -2.8977    0.0025   -1.9519 H   0  0  0  0  0  0  0  0  0  0  0  0
   -0.7231    0.9805   -1.1771 H   0  0  0  0  0  0  0  0  0  0  0  0
   -0.5852   -0.3421   -2.3151 H   0  0  0  0  0  0  0  0  0  0  0  0
    1.3315    1.4231   -1.0694 H   0  0  0  0  0  0  0  0  0  0  0  0
    4.4186    2.3524    0.4003 H   0  0  0  0  0  0  0  0  0  0  0  0
    3.0365    3.0392   -0.3737 H   0  0  0  0  0  0  0  0  0  0  0  0
    4.7809    0.3810    0.7747 H   0  0  0  0  0  0  0  0  0  0  0  0
    3.8351   -1.6000    1.5393 H   0  0  0  0  0  0  0  0  0  0  0  0
    5.0115   -1.8535   -0.5006 H   0  0  0  0  0  0  0  0  0  0  0  0
    1.7061    0.1539    1.6485 H   0  0  0  0  0  0  0  0  0  0  0  0
   -0.4681    0.3080    1.4157 H   0  0  0  0  0  0  0  0  0  0  0  0
   -0.6005   -1.5139    1.5036 H   0  0  0  0  0  0  0  0  0  0  0  0
    3.5473    1.0819   -1.4830 H   0  0  0  0  0  0  0  0  0  0  0  0
    1.6540   -1.0030   -1.6723 H   0  0  0  0  0  0  0  0  0  0  0  0
    1.7859   -2.4938    0.3212 H   0  0  0  0  0  0  0  0  0  0  0  0
   -4.9079    0.1207   -0.7039 H   0  0  0  0  0  0  0  0  0  0  0  0
   -4.8929   -0.0743    1.0945 H   0  0  0  0  0  0  0  0  0  0  0  0
   -5.0374   -2.2004    0.7457 H   0  0  0  0  0  0  0  0  0  0  0  0
   -1.9347    1.8508    0.4022 H   0  0  0  0  0  0  0  0  0  0  0  0
   -3.4742    1.9437   -0.5062 H   0  0  0  0  0  0  0  0  0  0  0  0
   -3.3733    2.7834    1.7632 H   0  0  0  0  0  0  0  0  0  0  0  0
   -2.6067   -0.5159    1.1149 H   0  0  0  0  0  0  0  0  0  0  0  0
   -2.5220   -1.5329   -1.2007 H   0  0  0  0  0  0  0  0  0  0  0  0
   -2.8977    0.0025   -1.9519 H   0  0  0  0  0  0  0  0  0  0  0  0
   -0.7231    0.9805   -1.1771 H   0  0  0  0  0  0  0  0  0  0  0  0
   -0.5852   -0.3421   -2.3151 H   0  0  0  0  0  0  0  0  0  0  0  0
    1.3315    1.4231   -1.0694 H   0  0  0  0  0  0  0  0  0  0  0  0
    4.4186    2.3524    0.4003 H   0  0  0  0  0  0  0  0  0  0  0  0
    3.0365    3.0392   -0.3737 H   0  0  0  0  0  0  0  0  0  0  0  0
    4.7809    0.3810    0.7747 H   0  0  0  0  0  0  0  0  0  0  0  0
    3.8351   -1.6000    1.5393 H   0  0  0  0  0  0  0  0  0  0  0  0
    5.0115   -1.8535   -0.5006 H   0  0  0  0  0  0  0  0  0  0  0  0
    1.7061    0.1539    1.6485 H   0  0  0  0  0  0  0  0  0  0  0  0
   -0.4681    0.3080    1.4157 H   0  0  0  0  0  0  0  0  0  0  0  0
   -0.6005   -1.5139    1.5036 H   0  0  0  0  0  0  0  0  0  0  0  0
  2  3  1  0
  4  5  1  0
  6  7  1  0
  4  8  1  0
  6  8  1  0
  8  9  1  0
  9 10  1  0
  2 11  1  0
 10 11  1  0
  1 12  1  0
  2 12  1  0
  1 13  1  0
  1 14  1  0
  3 15  1  0
 14 15  1  0
 15 16  1  0
  3 17  1  0
 11 18  1  0
 17 18  1  0
 20 21  1  0
 22 23  1  0
 24 25  1  0
 22 26  1  0
 24 26  1  0
 26 27  1  0
 27 28  1  0
 20 29  1  0
 28 29  1  0
 19 30  1  0
 20 30  1  0
 19 31  1  0
 19 32  1  0
 21 33  1  0
 32 33  1  0
 33 34  1  0
 21 35  1  0
 29 36  1  0
 35 36  1  0
  1 37  1  0
  2 38  1  0
  3 39  1  0
  4 40  1  0
  4 41  1  0
  5 42  1  0
  6 43  1  0
  6 44  1  0
  7 45  1  0
  8 46  1  0
  9 47  1  0
  9 48  1  0
 10 49  1  0
 10 50  1  0
 12 51  1  0
 13 52  1  0
 13 53  1  0
 14 54  1  0
 15 55  1  0
 16 56  1  0
 17 57  1  0
 18 58  1  0
 18 59  1  0
 19 60  1  0
 20 61  1  0
 21 62  1  0
 22 63  1  0
 22 64  1  0
 23 65  1  0
 24 66  1  0
 24 67  1  0
 25 68  1  0
 26 69  1  0
 27 70  1  0
 27 71  1  0
 28 72  1  0
 28 73  1  0
 30 74  1  0
 31 75  1  0
 31 76  1  0
 32 77  1  0
 33 78  1  0
 34 79  1  0
 35 80  1  0
 36 81  1  0
 36 82  1  0
M  END
>  <PDBID>  (1) 
1KI3

>  <PDB ID>  (1) 
1KI3

>  <Generic Name>  (1) 
Penciclovir

>  <Brand Name>  (1) 
Denavir#Penciclovir

>  <DrugBank ID>  (1) 
DB00299

>  <ATC Codes>  (1) 
D06BB06#J05AB13

>  <Ligand ID>  (1) 
PE2

>  <Target Name>  (1) 
Thymidine kinase

>  <UniProt ID>  (1) 
P06478

>  <PDB ID.1>  (1) 
1KI3

>  <Seq. Identity>  (1) 
98%

$$$$
