PDB_DB01229_07
     RDKit          3D

290302  0  0  0  0  0  0  0  0999 V2000
   -0.9288    1.0593    2.2924 O   0  0  0  0  0  0  0  0  0  0  0  0
   -1.3984   -0.0574    1.4977 C   0  0  1  0  0  0  0  0  0  0  0  0
   -2.7506    0.4068    1.0530 C   0  0  1  0  0  0  0  0  0  0  0  0
   -2.6708    1.8237    1.0161 O   0  0  0  0  0  0  0  0  0  0  0  0
   -3.2135    2.4768    2.0610 C   0  0  0  0  0  0  0  0  0  0  0  0
   -2.3003    3.1914    2.8493 O   0  0  0  0  0  0  0  0  0  0  0  0
   -4.2456    3.4809    1.6441 C   0  0  0  0  0  0  0  0  0  0  0  0
   -3.6682    4.5301    0.7088 C   0  0  0  0  0  0  0  0  0  0  0  0
   -4.8330    5.3248    0.1600 C   0  0  0  0  0  0  0  0  0  0  0  0
   -5.6947    5.8811    1.2744 C   0  0  0  0  0  0  0  0  0  0  0  0
   -5.0526    5.6558    2.6269 C   0  0  0  0  0  0  0  0  0  0  0  0
   -4.8434    4.1805    2.8711 C   0  0  0  0  0  0  0  0  0  0  0  0
   -3.4359   -0.2074   -0.0921 C   0  0  2  0  0  0  0  0  0  0  0  0
   -4.0666    0.6647   -1.1110 C   0  0  2  0  0  0  0  0  0  0  0  0
   -3.2603    1.6167   -1.7339 O   0  0  0  0  0  0  0  0  0  0  0  0
   -2.2301    1.2101   -2.5006 C   0  0  0  0  0  0  0  0  0  0  0  0
   -1.0656    1.8714   -2.1350 O   0  0  0  0  0  0  0  0  0  0  0  0
   -2.4545    1.6641   -3.9832 C   0  0  0  0  0  0  0  0  0  0  0  0
   -5.3899    1.3021   -0.9613 C   0  0  0  0  0  0  0  0  0  0  0  0
   -5.9298    0.7202   -2.1029 O   0  0  0  0  0  0  0  0  0  0  0  0
   -4.7689   -0.0555   -2.2188 C   0  0  2  0  0  0  0  0  0  0  0  0
   -5.0878   -1.4797   -2.0975 C   0  0  0  0  0  0  0  0  0  0  0  0
   -4.3609   -2.2521   -1.0297 C   0  0  2  0  0  0  0  0  0  0  0  0
   -5.0613   -3.4397   -0.8254 O   0  0  0  0  0  0  0  0  0  0  0  0
   -4.2756   -1.4292    0.2347 C   0  0  2  0  0  0  0  0  0  0  0  0
   -5.6883   -1.1401    0.6737 C   0  0  0  0  0  0  0  0  0  0  0  0
   -3.7349   -2.2713    1.3627 C   0  0  0  0  0  0  0  0  0  0  0  0
   -4.7327   -3.3093    1.4395 O   0  0  0  0  0  0  0  0  0  0  0  0
   -2.4797   -2.9645    1.2401 C   0  0  2  0  0  0  0  0  0  0  0  0
   -2.6252   -4.3510    1.5373 O   0  0  0  0  0  0  0  0  0  0  0  0
   -2.4688   -5.2002    0.5014 C   0  0  0  0  0  0  0  0  0  0  0  0
   -3.6282   -5.9579    0.2142 O   0  0  0  0  0  0  0  0  0  0  0  0
   -1.3707   -6.2067    0.8122 C   0  0  0  0  0  0  0  0  0  0  0  0
   -1.2545   -2.4811    1.9200 C   0  0  1  0  0  0  0  0  0  0  0  0
   -0.0535   -2.6732    1.0147 C   0  0  0  0  0  0  0  0  0  0  0  0
    0.5634   -1.4165    0.5168 C   0  0  1  0  0  0  0  0  0  0  0  0
    0.9320   -1.6409   -0.8414 O   0  0  0  0  0  0  0  0  0  0  0  0
    2.3116   -1.5925   -1.0470 C   0  0  0  0  0  0  0  0  0  0  0  0
    2.6130   -2.9287   -1.4566 O   0  0  0  0  0  0  0  0  0  0  0  0
    2.6907   -0.6595   -2.1276 C   0  0  2  0  0  0  0  0  0  0  0  0
    2.1152   -1.1486   -3.3286 O   0  0  0  0  0  0  0  0  0  0  0  0
    4.0799   -0.2196   -2.2870 C   0  0  1  0  0  0  0  0  0  0  0  0
    4.6726    0.2775   -1.0435 N   0  0  0  0  0  0  0  0  0  0  0  0
    4.0434    1.4459   -0.5228 C   0  0  0  0  0  0  0  0  0  0  0  0
    3.3051    2.1539   -1.4859 O   0  0  0  0  0  0  0  0  0  0  0  0
    5.0040    2.3837    0.2008 C   0  0  0  0  0  0  0  0  0  0  0  0
    6.0959    2.8858   -0.6516 C   0  0  0  0  0  0  0  0  0  0  0  0
    7.4494    3.0329   -0.0707 C   0  0  0  0  0  0  0  0  0  0  0  0
    7.5249    2.9203    1.4316 C   0  0  0  0  0  0  0  0  0  0  0  0
    6.8371    1.5974    1.7618 C   0  0  0  0  0  0  0  0  0  0  0  0
    5.3867    1.7893    1.4986 C   0  0  0  0  0  0  0  0  0  0  0  0
    5.0562   -1.0768   -2.9910 C   0  0  0  0  0  0  0  0  0  0  0  0
    5.3608   -2.4141   -2.4181 C   0  0  0  0  0  0  0  0  0  0  0  0
    6.8634   -2.7571   -2.6167 C   0  0  0  0  0  0  0  0  0  0  0  0
    7.6964   -1.8664   -1.7209 C   0  0  0  0  0  0  0  0  0  0  0  0
    7.3296   -0.4364   -2.0815 C   0  0  0  0  0  0  0  0  0  0  0  0
    6.3687   -0.3469   -3.2292 C   0  0  0  0  0  0  0  0  0  0  0  0
   -0.3323   -0.2211    0.5001 C   0  0  0  0  0  0  0  0  0  0  0  0
    0.9464   -3.6644    1.5169 C   0  0  0  0  0  0  0  0  0  0  0  0
   -1.2839   -1.1152    2.5432 C   0  0  0  0  0  0  0  0  0  0  0  0
   -2.1447   -1.0044    3.7476 C   0  0  0  0  0  0  0  0  0  0  0  0
    0.1529   -0.9293    3.1238 C   0  0  0  0  0  0  0  0  0  0  0  0
   -0.9288    1.0593    2.2924 O   0  0  0  0  0  0  0  0  0  0  0  0
   -1.3984   -0.0574    1.4977 C   0  0  1  0  0  0  0  0  0  0  0  0
   -2.7506    0.4068    1.0530 C   0  0  1  0  0  0  0  0  0  0  0  0
   -2.6708    1.8237    1.0161 O   0  0  0  0  0  0  0  0  0  0  0  0
   -3.2135    2.4768    2.0610 C   0  0  0  0  0  0  0  0  0  0  0  0
   -2.3003    3.1914    2.8493 O   0  0  0  0  0  0  0  0  0  0  0  0
   -4.2456    3.4809    1.6441 C   0  0  0  0  0  0  0  0  0  0  0  0
   -3.6682    4.5301    0.7088 C   0  0  0  0  0  0  0  0  0  0  0  0
   -4.8330    5.3248    0.1600 C   0  0  0  0  0  0  0  0  0  0  0  0
   -5.6947    5.8811    1.2744 C   0  0  0  0  0  0  0  0  0  0  0  0
   -5.0526    5.6558    2.6269 C   0  0  0  0  0  0  0  0  0  0  0  0
   -4.8434    4.1805    2.8711 C   0  0  0  0  0  0  0  0  0  0  0  0
   -3.4359   -0.2074   -0.0921 C   0  0  2  0  0  0  0  0  0  0  0  0
   -4.0666    0.6647   -1.1110 C   0  0  2  0  0  0  0  0  0  0  0  0
   -3.2603    1.6167   -1.7339 O   0  0  0  0  0  0  0  0  0  0  0  0
   -2.2301    1.2101   -2.5006 C   0  0  0  0  0  0  0  0  0  0  0  0
   -1.0656    1.8714   -2.1350 O   0  0  0  0  0  0  0  0  0  0  0  0
   -2.4545    1.6641   -3.9832 C   0  0  0  0  0  0  0  0  0  0  0  0
   -5.3899    1.3021   -0.9613 C   0  0  0  0  0  0  0  0  0  0  0  0
   -5.9298    0.7202   -2.1029 O   0  0  0  0  0  0  0  0  0  0  0  0
   -4.7689   -0.0555   -2.2188 C   0  0  2  0  0  0  0  0  0  0  0  0
   -5.0878   -1.4797   -2.0975 C   0  0  0  0  0  0  0  0  0  0  0  0
   -4.3609   -2.2521   -1.0297 C   0  0  2  0  0  0  0  0  0  0  0  0
   -5.0613   -3.4397   -0.8254 O   0  0  0  0  0  0  0  0  0  0  0  0
   -4.2756   -1.4292    0.2347 C   0  0  2  0  0  0  0  0  0  0  0  0
   -5.6883   -1.1401    0.6737 C   0  0  0  0  0  0  0  0  0  0  0  0
   -3.7349   -2.2713    1.3627 C   0  0  0  0  0  0  0  0  0  0  0  0
   -4.7327   -3.3093    1.4395 O   0  0  0  0  0  0  0  0  0  0  0  0
   -2.4797   -2.9645    1.2401 C   0  0  2  0  0  0  0  0  0  0  0  0
   -2.6252   -4.3510    1.5373 O   0  0  0  0  0  0  0  0  0  0  0  0
   -2.4688   -5.2002    0.5014 C   0  0  0  0  0  0  0  0  0  0  0  0
   -3.6282   -5.9579    0.2142 O   0  0  0  0  0  0  0  0  0  0  0  0
   -1.3707   -6.2067    0.8122 C   0  0  0  0  0  0  0  0  0  0  0  0
   -1.2545   -2.4811    1.9200 C   0  0  1  0  0  0  0  0  0  0  0  0
   -0.0535   -2.6732    1.0147 C   0  0  0  0  0  0  0  0  0  0  0  0
    0.5634   -1.4165    0.5168 C   0  0  1  0  0  0  0  0  0  0  0  0
    0.9320   -1.6409   -0.8414 O   0  0  0  0  0  0  0  0  0  0  0  0
    2.3116   -1.5925   -1.0470 C   0  0  0  0  0  0  0  0  0  0  0  0
    2.6130   -2.9287   -1.4566 O   0  0  0  0  0  0  0  0  0  0  0  0
    2.6907   -0.6595   -2.1276 C   0  0  2  0  0  0  0  0  0  0  0  0
    2.1152   -1.1486   -3.3286 O   0  0  0  0  0  0  0  0  0  0  0  0
    4.0799   -0.2196   -2.2870 C   0  0  1  0  0  0  0  0  0  0  0  0
    4.6726    0.2775   -1.0435 N   0  0  0  0  0  0  0  0  0  0  0  0
    4.0434    1.4459   -0.5228 C   0  0  0  0  0  0  0  0  0  0  0  0
    3.3051    2.1539   -1.4859 O   0  0  0  0  0  0  0  0  0  0  0  0
    5.0040    2.3837    0.2008 C   0  0  0  0  0  0  0  0  0  0  0  0
    6.0959    2.8858   -0.6516 C   0  0  0  0  0  0  0  0  0  0  0  0
    7.4494    3.0329   -0.0707 C   0  0  0  0  0  0  0  0  0  0  0  0
    7.5249    2.9203    1.4316 C   0  0  0  0  0  0  0  0  0  0  0  0
    6.8371    1.5974    1.7618 C   0  0  0  0  0  0  0  0  0  0  0  0
    5.3867    1.7893    1.4986 C   0  0  0  0  0  0  0  0  0  0  0  0
    5.0562   -1.0768   -2.9910 C   0  0  0  0  0  0  0  0  0  0  0  0
    5.3608   -2.4141   -2.4181 C   0  0  0  0  0  0  0  0  0  0  0  0
    6.8634   -2.7571   -2.6167 C   0  0  0  0  0  0  0  0  0  0  0  0
    7.6964   -1.8664   -1.7209 C   0  0  0  0  0  0  0  0  0  0  0  0
    7.3296   -0.4364   -2.0815 C   0  0  0  0  0  0  0  0  0  0  0  0
    6.3687   -0.3469   -3.2292 C   0  0  0  0  0  0  0  0  0  0  0  0
   -0.3323   -0.2211    0.5001 C   0  0  0  0  0  0  0  0  0  0  0  0
    0.9464   -3.6644    1.5169 C   0  0  0  0  0  0  0  0  0  0  0  0
   -1.2839   -1.1152    2.5432 C   0  0  0  0  0  0  0  0  0  0  0  0
   -2.1447   -1.0044    3.7476 C   0  0  0  0  0  0  0  0  0  0  0  0
    0.1529   -0.9293    3.1238 C   0  0  0  0  0  0  0  0  0  0  0  0
   -0.3386    1.6283    1.7692 H   0  0  0  0  0  0  0  0  0  0  0  0
   -3.4081    0.2443    1.9594 H   0  0  0  0  0  0  0  0  0  0  0  0
   -3.6877    1.7500    2.7628 H   0  0  0  0  0  0  0  0  0  0  0  0
   -1.6813    3.7051    2.2675 H   0  0  0  0  0  0  0  0  0  0  0  0
   -5.0789    2.9940    1.1502 H   0  0  0  0  0  0  0  0  0  0  0  0
   -3.2183    3.9673   -0.1510 H   0  0  0  0  0  0  0  0  0  0  0  0
   -2.9733    5.2121    1.1977 H   0  0  0  0  0  0  0  0  0  0  0  0
   -5.4962    4.7128   -0.4684 H   0  0  0  0  0  0  0  0  0  0  0  0
   -4.4794    6.1711   -0.4635 H   0  0  0  0  0  0  0  0  0  0  0  0
   -6.6988    5.3963    1.3111 H   0  0  0  0  0  0  0  0  0  0  0  0
   -5.8809    6.9717    1.1649 H   0  0  0  0  0  0  0  0  0  0  0  0
   -5.7587    6.0383    3.3890 H   0  0  0  0  0  0  0  0  0  0  0  0
   -4.0847    6.2011    2.7049 H   0  0  0  0  0  0  0  0  0  0  0  0
   -4.1279    4.0635    3.7020 H   0  0  0  0  0  0  0  0  0  0  0  0
   -5.7816    3.6755    3.1777 H   0  0  0  0  0  0  0  0  0  0  0  0
   -2.5848   -0.6997   -0.6959 H   0  0  0  0  0  0  0  0  0  0  0  0
   -2.0404    0.1260   -2.5197 H   0  0  0  0  0  0  0  0  0  0  0  0
   -0.3157    1.7432   -2.7508 H   0  0  0  0  0  0  0  0  0  0  0  0
   -3.4115    2.2024   -4.0575 H   0  0  0  0  0  0  0  0  0  0  0  0
   -1.6415    2.2869   -4.3399 H   0  0  0  0  0  0  0  0  0  0  0  0
   -2.5049    0.7677   -4.6312 H   0  0  0  0  0  0  0  0  0  0  0  0
   -6.0306    1.1955   -0.1167 H   0  0  0  0  0  0  0  0  0  0  0  0
   -5.4080    2.4351   -1.1910 H   0  0  0  0  0  0  0  0  0  0  0  0
   -4.3749    0.1548   -3.2607 H   0  0  0  0  0  0  0  0  0  0  0  0
   -4.8688   -2.0573   -3.0568 H   0  0  0  0  0  0  0  0  0  0  0  0
   -6.2088   -1.6618   -2.0335 H   0  0  0  0  0  0  0  0  0  0  0  0
   -3.3712   -2.5073   -1.4590 H   0  0  0  0  0  0  0  0  0  0  0  0
   -4.7919   -4.0478   -1.5581 H   0  0  0  0  0  0  0  0  0  0  0  0
   -5.7377   -0.3999    1.5048 H   0  0  0  0  0  0  0  0  0  0  0  0
   -6.0767   -2.0763    1.2135 H   0  0  0  0  0  0  0  0  0  0  0  0
   -6.4307   -1.0495   -0.1112 H   0  0  0  0  0  0  0  0  0  0  0  0
   -3.9633   -1.6964    2.2735 H   0  0  0  0  0  0  0  0  0  0  0  0
   -4.6927   -3.7703    2.2876 H   0  0  0  0  0  0  0  0  0  0  0  0
   -2.2616   -3.0209    0.1515 H   0  0  0  0  0  0  0  0  0  0  0  0
   -2.2537   -4.6547   -0.4384 H   0  0  0  0  0  0  0  0  0  0  0  0
   -4.2135   -5.9656    1.0025 H   0  0  0  0  0  0  0  0  0  0  0  0
   -1.7886   -7.2295    0.7667 H   0  0  0  0  0  0  0  0  0  0  0  0
   -0.9700   -6.0608    1.8380 H   0  0  0  0  0  0  0  0  0  0  0  0
   -0.5253   -6.1538    0.1256 H   0  0  0  0  0  0  0  0  0  0  0  0
   -1.0668   -3.1559    2.7933 H   0  0  0  0  0  0  0  0  0  0  0  0
   -0.4625   -3.1785    0.0793 H   0  0  0  0  0  0  0  0  0  0  0  0
    1.5464   -1.2773    1.0022 H   0  0  0  0  0  0  0  0  0  0  0  0
    2.8034   -1.3543   -0.1226 H   0  0  0  0  0  0  0  0  0  0  0  0
    2.2992   -3.0766   -2.3817 H   0  0  0  0  0  0  0  0  0  0  0  0
    2.0315    0.2784   -1.9470 H   0  0  0  0  0  0  0  0  0  0  0  0
    2.2589   -0.4951   -4.0402 H   0  0  0  0  0  0  0  0  0  0  0  0
    4.0149    0.7388   -2.9192 H   0  0  0  0  0  0  0  0  0  0  0  0
    4.6709   -0.5322   -0.3839 H   0  0  0  0  0  0  0  0  0  0  0  0
    3.3065    1.1360    0.2441 H   0  0  0  0  0  0  0  0  0  0  0  0
    3.8757    2.6169   -2.1310 H   0  0  0  0  0  0  0  0  0  0  0  0
    4.3312    3.2659    0.4578 H   0  0  0  0  0  0  0  0  0  0  0  0
    5.7915    3.9038   -1.0559 H   0  0  0  0  0  0  0  0  0  0  0  0
    6.2100    2.2906   -1.5932 H   0  0  0  0  0  0  0  0  0  0  0  0
    8.1975    2.3163   -0.4806 H   0  0  0  0  0  0  0  0  0  0  0  0
    7.8605    4.0346   -0.3241 H   0  0  0  0  0  0  0  0  0  0  0  0
    6.9844    3.7876    1.8530 H   0  0  0  0  0  0  0  0  0  0  0  0
    8.5911    2.8858    1.7024 H   0  0  0  0  0  0  0  0  0  0  0  0
    6.9909    1.3220    2.8065 H   0  0  0  0  0  0  0  0  0  0  0  0
    7.3131    0.8220    1.1364 H   0  0  0  0  0  0  0  0  0  0  0  0
    4.9127    0.7659    1.5808 H   0  0  0  0  0  0  0  0  0  0  0  0
    4.9668    2.3331    2.3819 H   0  0  0  0  0  0  0  0  0  0  0  0
    4.6881   -1.2727   -4.0680 H   0  0  0  0  0  0  0  0  0  0  0  0
    4.8552   -3.2724   -2.8987 H   0  0  0  0  0  0  0  0  0  0  0  0
    5.2327   -2.5086   -1.3279 H   0  0  0  0  0  0  0  0  0  0  0  0
    7.1477   -2.7267   -3.6659 H   0  0  0  0  0  0  0  0  0  0  0  0
    6.9757   -3.7958   -2.2491 H   0  0  0  0  0  0  0  0  0  0  0  0
    8.7484   -2.1109   -1.8914 H   0  0  0  0  0  0  0  0  0  0  0  0
    7.4549   -2.0964   -0.6663 H   0  0  0  0  0  0  0  0  0  0  0  0
    8.2791    0.0262   -2.4342 H   0  0  0  0  0  0  0  0  0  0  0  0
    7.0237    0.0735   -1.1678 H   0  0  0  0  0  0  0  0  0  0  0  0
    6.1512    0.7312   -3.3860 H   0  0  0  0  0  0  0  0  0  0  0  0
    6.8744   -0.7600   -4.1279 H   0  0  0  0  0  0  0  0  0  0  0  0
   -0.7888   -0.1349   -0.5004 H   0  0  0  0  0  0  0  0  0  0  0  0
    0.4133    0.6444    0.4542 H   0  0  0  0  0  0  0  0  0  0  0  0
    1.9522   -3.2648    1.7148 H   0  0  0  0  0  0  0  0  0  0  0  0
    1.0944   -4.5507    0.8295 H   0  0  0  0  0  0  0  0  0  0  0  0
    0.5506   -4.1209    2.4468 H   0  0  0  0  0  0  0  0  0  0  0  0
   -2.8951   -0.2190    3.7866 H   0  0  0  0  0  0  0  0  0  0  0  0
   -1.5597   -0.7320    4.7013 H   0  0  0  0  0  0  0  0  0  0  0  0
   -2.5250   -2.0108    4.1071 H   0  0  0  0  0  0  0  0  0  0  0  0
    0.6380   -0.0256    2.7491 H   0  0  0  0  0  0  0  0  0  0  0  0
    0.7146   -1.8510    3.1481 H   0  0  0  0  0  0  0  0  0  0  0  0
    0.0925   -0.6739    4.2362 H   0  0  0  0  0  0  0  0  0  0  0  0
   -0.3386    1.6283    1.7692 H   0  0  0  0  0  0  0  0  0  0  0  0
   -3.4081    0.2443    1.9594 H   0  0  0  0  0  0  0  0  0  0  0  0
   -3.6877    1.7500    2.7628 H   0  0  0  0  0  0  0  0  0  0  0  0
   -1.6813    3.7051    2.2675 H   0  0  0  0  0  0  0  0  0  0  0  0
   -5.0789    2.9940    1.1502 H   0  0  0  0  0  0  0  0  0  0  0  0
   -3.2183    3.9673   -0.1510 H   0  0  0  0  0  0  0  0  0  0  0  0
   -2.9733    5.2121    1.1977 H   0  0  0  0  0  0  0  0  0  0  0  0
   -5.4962    4.7128   -0.4684 H   0  0  0  0  0  0  0  0  0  0  0  0
   -4.4794    6.1711   -0.4635 H   0  0  0  0  0  0  0  0  0  0  0  0
   -6.6988    5.3963    1.3111 H   0  0  0  0  0  0  0  0  0  0  0  0
   -5.8809    6.9717    1.1649 H   0  0  0  0  0  0  0  0  0  0  0  0
   -5.7587    6.0383    3.3890 H   0  0  0  0  0  0  0  0  0  0  0  0
   -4.0847    6.2011    2.7049 H   0  0  0  0  0  0  0  0  0  0  0  0
   -4.1279    4.0635    3.7020 H   0  0  0  0  0  0  0  0  0  0  0  0
   -5.7816    3.6755    3.1777 H   0  0  0  0  0  0  0  0  0  0  0  0
   -2.5848   -0.6997   -0.6959 H   0  0  0  0  0  0  0  0  0  0  0  0
   -2.0404    0.1260   -2.5197 H   0  0  0  0  0  0  0  0  0  0  0  0
   -0.3157    1.7432   -2.7508 H   0  0  0  0  0  0  0  0  0  0  0  0
   -3.4115    2.2024   -4.0575 H   0  0  0  0  0  0  0  0  0  0  0  0
   -1.6415    2.2869   -4.3399 H   0  0  0  0  0  0  0  0  0  0  0  0
   -2.5049    0.7677   -4.6312 H   0  0  0  0  0  0  0  0  0  0  0  0
   -6.0306    1.1955   -0.1167 H   0  0  0  0  0  0  0  0  0  0  0  0
   -5.4080    2.4351   -1.1910 H   0  0  0  0  0  0  0  0  0  0  0  0
   -4.3749    0.1548   -3.2607 H   0  0  0  0  0  0  0  0  0  0  0  0
   -4.8688   -2.0573   -3.0568 H   0  0  0  0  0  0  0  0  0  0  0  0
   -6.2088   -1.6618   -2.0335 H   0  0  0  0  0  0  0  0  0  0  0  0
   -3.3712   -2.5073   -1.4590 H   0  0  0  0  0  0  0  0  0  0  0  0
   -4.7919   -4.0478   -1.5581 H   0  0  0  0  0  0  0  0  0  0  0  0
   -5.7377   -0.3999    1.5048 H   0  0  0  0  0  0  0  0  0  0  0  0
   -6.0767   -2.0763    1.2135 H   0  0  0  0  0  0  0  0  0  0  0  0
   -6.4307   -1.0495   -0.1112 H   0  0  0  0  0  0  0  0  0  0  0  0
   -3.9633   -1.6964    2.2735 H   0  0  0  0  0  0  0  0  0  0  0  0
   -4.6927   -3.7703    2.2876 H   0  0  0  0  0  0  0  0  0  0  0  0
   -2.2616   -3.0209    0.1515 H   0  0  0  0  0  0  0  0  0  0  0  0
   -2.2537   -4.6547   -0.4384 H   0  0  0  0  0  0  0  0  0  0  0  0
   -4.2135   -5.9656    1.0025 H   0  0  0  0  0  0  0  0  0  0  0  0
   -1.7886   -7.2295    0.7667 H   0  0  0  0  0  0  0  0  0  0  0  0
   -0.9700   -6.0608    1.8380 H   0  0  0  0  0  0  0  0  0  0  0  0
   -0.5253   -6.1538    0.1256 H   0  0  0  0  0  0  0  0  0  0  0  0
   -1.0668   -3.1559    2.7933 H   0  0  0  0  0  0  0  0  0  0  0  0
   -0.4625   -3.1785    0.0793 H   0  0  0  0  0  0  0  0  0  0  0  0
    1.5464   -1.2773    1.0022 H   0  0  0  0  0  0  0  0  0  0  0  0
    2.8034   -1.3543   -0.1226 H   0  0  0  0  0  0  0  0  0  0  0  0
    2.2992   -3.0766   -2.3817 H   0  0  0  0  0  0  0  0  0  0  0  0
    2.0315    0.2784   -1.9470 H   0  0  0  0  0  0  0  0  0  0  0  0
    2.2589   -0.4951   -4.0402 H   0  0  0  0  0  0  0  0  0  0  0  0
    4.0149    0.7388   -2.9192 H   0  0  0  0  0  0  0  0  0  0  0  0
    4.6709   -0.5322   -0.3839 H   0  0  0  0  0  0  0  0  0  0  0  0
    3.3065    1.1360    0.2441 H   0  0  0  0  0  0  0  0  0  0  0  0
    3.8757    2.6169   -2.1310 H   0  0  0  0  0  0  0  0  0  0  0  0
    4.3312    3.2659    0.4578 H   0  0  0  0  0  0  0  0  0  0  0  0
    5.7915    3.9038   -1.0559 H   0  0  0  0  0  0  0  0  0  0  0  0
    6.2100    2.2906   -1.5932 H   0  0  0  0  0  0  0  0  0  0  0  0
    8.1975    2.3163   -0.4806 H   0  0  0  0  0  0  0  0  0  0  0  0
    7.8605    4.0346   -0.3241 H   0  0  0  0  0  0  0  0  0  0  0  0
    6.9844    3.7876    1.8530 H   0  0  0  0  0  0  0  0  0  0  0  0
    8.5911    2.8858    1.7024 H   0  0  0  0  0  0  0  0  0  0  0  0
    6.9909    1.3220    2.8065 H   0  0  0  0  0  0  0  0  0  0  0  0
    7.3131    0.8220    1.1364 H   0  0  0  0  0  0  0  0  0  0  0  0
    4.9127    0.7659    1.5808 H   0  0  0  0  0  0  0  0  0  0  0  0
    4.9668    2.3331    2.3819 H   0  0  0  0  0  0  0  0  0  0  0  0
    4.6881   -1.2727   -4.0680 H   0  0  0  0  0  0  0  0  0  0  0  0
    4.8552   -3.2724   -2.8987 H   0  0  0  0  0  0  0  0  0  0  0  0
    5.2327   -2.5086   -1.3279 H   0  0  0  0  0  0  0  0  0  0  0  0
    7.1477   -2.7267   -3.6659 H   0  0  0  0  0  0  0  0  0  0  0  0
    6.9757   -3.7958   -2.2491 H   0  0  0  0  0  0  0  0  0  0  0  0
    8.7484   -2.1109   -1.8914 H   0  0  0  0  0  0  0  0  0  0  0  0
    7.4549   -2.0964   -0.6663 H   0  0  0  0  0  0  0  0  0  0  0  0
    8.2791    0.0262   -2.4342 H   0  0  0  0  0  0  0  0  0  0  0  0
    7.0237    0.0735   -1.1678 H   0  0  0  0  0  0  0  0  0  0  0  0
    6.1512    0.7312   -3.3860 H   0  0  0  0  0  0  0  0  0  0  0  0
    6.8744   -0.7600   -4.1279 H   0  0  0  0  0  0  0  0  0  0  0  0
   -0.7888   -0.1349   -0.5004 H   0  0  0  0  0  0  0  0  0  0  0  0
    0.4133    0.6444    0.4542 H   0  0  0  0  0  0  0  0  0  0  0  0
    1.9522   -3.2648    1.7148 H   0  0  0  0  0  0  0  0  0  0  0  0
    1.0944   -4.5507    0.8295 H   0  0  0  0  0  0  0  0  0  0  0  0
    0.5506   -4.1209    2.4468 H   0  0  0  0  0  0  0  0  0  0  0  0
   -2.8951   -0.2190    3.7866 H   0  0  0  0  0  0  0  0  0  0  0  0
   -1.5597   -0.7320    4.7013 H   0  0  0  0  0  0  0  0  0  0  0  0
   -2.5250   -2.0108    4.1071 H   0  0  0  0  0  0  0  0  0  0  0  0
    0.6380   -0.0256    2.7491 H   0  0  0  0  0  0  0  0  0  0  0  0
    0.7146   -1.8510    3.1481 H   0  0  0  0  0  0  0  0  0  0  0  0
    0.0925   -0.6739    4.2362 H   0  0  0  0  0  0  0  0  0  0  0  0
  2  1  1  1
  2  3  1  0
  3  4  1  0
  4  5  1  0
  5  6  1  0
  5  7  1  0
  7  8  1  0
  8  9  1  0
  9 10  1  0
 10 11  1  0
  7 12  1  0
 11 12  1  0
  3 13  1  0
 13 14  1  0
 14 15  1  6
 15 16  1  0
 16 17  1  0
 16 18  1  0
 14 19  1  0
 19 20  1  0
 14 21  1  0
 20 21  1  0
 21 22  1  0
 22 23  1  0
 23 24  1  0
 13 25  1  0
 23 25  1  0
 25 26  1  1
 25 27  1  0
 27 28  1  0
 27 29  1  0
 29 30  1  0
 30 31  1  0
 31 32  1  0
 31 33  1  0
 29 34  1  0
 34 35  1  0
 35 36  1  0
 36 37  1  0
 37 38  1  0
 38 39  1  0
 38 40  1  0
 40 41  1  0
 40 42  1  0
 42 43  1  0
 43 44  1  0
 44 45  1  0
 44 46  1  0
 46 47  1  0
 47 48  1  0
 48 49  1  0
 49 50  1  0
 46 51  1  0
 50 51  1  0
 42 52  1  0
 52 53  1  0
 53 54  1  0
 54 55  1  0
 55 56  1  0
 52 57  1  0
 56 57  1  0
  2 58  1  0
 36 58  1  0
 35 59  1  0
  2 60  1  0
 34 60  1  0
 60 61  1  0
 60 62  1  0
 64 63  1  1
 64 65  1  0
 65 66  1  0
 66 67  1  0
 67 68  1  0
 67 69  1  0
 69 70  1  0
 70 71  1  0
 71 72  1  0
 72 73  1  0
 69 74  1  0
 73 74  1  0
 65 75  1  0
 75 76  1  0
 76 77  1  6
 77 78  1  0
 78 79  1  0
 78 80  1  0
 76 81  1  0
 81 82  1  0
 76 83  1  0
 82 83  1  0
 83 84  1  0
 84 85  1  0
 85 86  1  0
 75 87  1  0
 85 87  1  0
 87 88  1  1
 87 89  1  0
 89 90  1  0
 89 91  1  0
 91 92  1  0
 92 93  1  0
 93 94  1  0
 93 95  1  0
 91 96  1  0
 96 97  1  0
 97 98  1  0
 98 99  1  0
 99100  1  0
100101  1  0
100102  1  0
102103  1  0
102104  1  0
104105  1  0
105106  1  0
106107  1  0
106108  1  0
108109  1  0
109110  1  0
110111  1  0
111112  1  0
108113  1  0
112113  1  0
104114  1  0
114115  1  0
115116  1  0
116117  1  0
117118  1  0
114119  1  0
118119  1  0
 64120  1  0
 98120  1  0
 97121  1  0
 64122  1  0
 96122  1  0
122123  1  0
122124  1  0
  1125  1  0
  3126  1  1
  5127  1  0
  6128  1  0
  7129  1  0
  8130  1  0
  8131  1  0
  9132  1  0
  9133  1  0
 10134  1  0
 10135  1  0
 11136  1  0
 11137  1  0
 12138  1  0
 12139  1  0
 13140  1  6
 16141  1  0
 17142  1  0
 18143  1  0
 18144  1  0
 18145  1  0
 19146  1  0
 19147  1  0
 21148  1  6
 22149  1  0
 22150  1  0
 23151  1  6
 24152  1  0
 26153  1  0
 26154  1  0
 26155  1  0
 27156  1  0
 28157  1  0
 29158  1  6
 31159  1  0
 32160  1  0
 33161  1  0
 33162  1  0
 33163  1  0
 34164  1  1
 35165  1  0
 36166  1  1
 38167  1  0
 39168  1  0
 40169  1  1
 41170  1  0
 42171  1  6
 43172  1  0
 44173  1  0
 45174  1  0
 46175  1  0
 47176  1  0
 47177  1  0
 48178  1  0
 48179  1  0
 49180  1  0
 49181  1  0
 50182  1  0
 50183  1  0
 51184  1  0
 51185  1  0
 52186  1  0
 53187  1  0
 53188  1  0
 54189  1  0
 54190  1  0
 55191  1  0
 55192  1  0
 56193  1  0
 56194  1  0
 57195  1  0
 57196  1  0
 58197  1  0
 58198  1  0
 59199  1  0
 59200  1  0
 59201  1  0
 61202  1  0
 61203  1  0
 61204  1  0
 62205  1  0
 62206  1  0
 62207  1  0
 63208  1  0
 65209  1  1
 67210  1  0
 68211  1  0
 69212  1  0
 70213  1  0
 70214  1  0
 71215  1  0
 71216  1  0
 72217  1  0
 72218  1  0
 73219  1  0
 73220  1  0
 74221  1  0
 74222  1  0
 75223  1  6
 78224  1  0
 79225  1  0
 80226  1  0
 80227  1  0
 80228  1  0
 81229  1  0
 81230  1  0
 83231  1  6
 84232  1  0
 84233  1  0
 85234  1  6
 86235  1  0
 88236  1  0
 88237  1  0
 88238  1  0
 89239  1  0
 90240  1  0
 91241  1  6
 93242  1  0
 94243  1  0
 95244  1  0
 95245  1  0
 95246  1  0
 96247  1  1
 97248  1  0
 98249  1  1
100250  1  0
101251  1  0
102252  1  1
103253  1  0
104254  1  6
105255  1  0
106256  1  0
107257  1  0
108258  1  0
109259  1  0
109260  1  0
110261  1  0
110262  1  0
111263  1  0
111264  1  0
112265  1  0
112266  1  0
113267  1  0
113268  1  0
114269  1  0
115270  1  0
115271  1  0
116272  1  0
116273  1  0
117274  1  0
117275  1  0
118276  1  0
118277  1  0
119278  1  0
119279  1  0
120280  1  0
120281  1  0
121282  1  0
121283  1  0
121284  1  0
123285  1  0
123286  1  0
123287  1  0
124288  1  0
124289  1  0
124290  1  0
M  END
>  <PDBID>  (1) 
5M50

>  <PDB ID>  (1) 
5M50

>  <Generic Name>  (1) 
Paclitaxel

>  <Brand Name>  (1) 
Abraxane#Abraxane for Injectable Suspension#Aj-paclitaxel#Apo-paclitaxel Injectable#Paclitaxel#Paclitaxel Injection#Paclitaxel Injection USP#Paclitaxel Injection, USP#Paclitaxel Paclitaxel#Paclitaxel for Injection#Paclitaxel for Injection USP#Paxene#Taxol#Teva-paclitaxel for Injection#Onxol#Paxceed

>  <DrugBank ID>  (1) 
DB01229

>  <ATC Codes>  (1) 
L01CD01

>  <Ligand ID>  (1) 
TA1

>  <Target Name>  (1) 
Tubulin beta-1 chain

>  <UniProt ID>  (1) 
Q9H4B7

>  <PDB ID.1>  (1) 
5M50

>  <Seq. Identity>  (1) 
78%

$$$$
