PDB_DB04839_06
     RDKit          3D

 68 72  0  0  0  0  0  0  0  0999 V2000
    4.8028    0.5597    0.5362 C   0  0  0  0  0  0  0  0  0  0  0  0
   -0.8578    0.5736    0.8923 C   0  0  1  0  0  0  0  0  0  0  0  0
    3.3674    0.9209    0.5292 C   0  0  2  0  0  0  0  0  0  0  0  0
    2.7527    0.9573    1.9148 C   0  0  0  0  0  0  0  0  0  0  0  0
    0.3682   -0.5251   -1.3504 C   0  0  0  0  0  0  0  0  0  0  0  0
    1.3195    1.4669    1.7281 C   0  0  0  0  0  0  0  0  0  0  0  0
    0.5795    0.3234    1.0059 C   0  0  2  0  0  0  0  0  0  0  0  0
    1.1247    0.3196   -0.4139 C   0  0  1  0  0  0  0  0  0  0  0  0
    2.6076    0.0240   -0.4062 C   0  0  2  0  0  0  0  0  0  0  0  0
   -1.0643   -0.7432   -1.1002 C   0  0  0  0  0  0  0  0  0  0  0  0
   -1.5254   -0.6902    0.3275 C   0  0  1  0  0  0  0  0  0  0  0  0
    5.3800    0.1070   -0.7403 C   0  0  0  0  0  0  0  0  0  0  0  0
    2.8011   -1.4295   -0.1173 C   0  0  0  0  0  0  0  0  0  0  0  0
    3.0886    0.2668   -1.8126 C   0  0  1  0  0  0  0  0  0  0  0  0
    3.7725    1.4557   -2.2726 C   0  0  0  0  0  0  0  0  0  0  0  0
    4.5304    0.1872   -1.9438 C   0  0  1  0  0  0  0  0  0  0  0  0
    6.5267    0.9046   -0.9897 O   0  0  0  0  0  0  0  0  0  0  0  0
    2.8256   -0.5691    2.7551 Cl  0  0  0  0  0  0  0  0  0  0  0  0
   -1.1159   -1.9066    1.0591 C   0  0  0  0  0  0  0  0  0  0  0  0
   -1.6416    0.7324    2.1394 C   0  0  0  0  0  0  0  0  0  0  0  0
   -3.0322    0.7945    1.5554 C   0  0  0  0  0  0  0  0  0  0  0  0
   -2.9793   -0.2942    0.4472 C   0  0  2  0  0  0  0  0  0  0  0  0
   -3.8671   -1.3777    1.0084 C   0  0  0  0  0  0  0  0  0  0  0  0
   -4.0794   -2.5436    0.0664 C   0  0  0  0  0  0  0  0  0  0  0  0
   -5.1448   -0.8391    1.3404 O   0  0  0  0  0  0  0  0  0  0  0  0
   -3.3540    0.2365   -0.7435 O   0  0  0  0  0  0  0  0  0  0  0  0
   -4.5659    0.7305   -0.9835 C   0  0  0  0  0  0  0  0  0  0  0  0
   -4.5138    2.1759   -1.5289 C   0  0  0  0  0  0  0  0  0  0  0  0
   -5.1550    0.0231   -2.0714 O   0  0  0  0  0  0  0  0  0  0  0  0
    5.3643    1.4230    1.0014 H   0  0  0  0  0  0  0  0  0  0  0  0
    4.9383   -0.2699    1.2918 H   0  0  0  0  0  0  0  0  0  0  0  0
   -1.0509    1.4153    0.2274 H   0  0  0  0  0  0  0  0  0  0  0  0
    3.2596    1.9631    0.1443 H   0  0  0  0  0  0  0  0  0  0  0  0
    3.3116    1.7203    2.4951 H   0  0  0  0  0  0  0  0  0  0  0  0
    0.8640   -1.5309   -1.4971 H   0  0  0  0  0  0  0  0  0  0  0  0
    0.4543   -0.0537   -2.3774 H   0  0  0  0  0  0  0  0  0  0  0  0
    0.8411    1.6554    2.7099 H   0  0  0  0  0  0  0  0  0  0  0  0
    1.3352    2.3342    1.0703 H   0  0  0  0  0  0  0  0  0  0  0  0
    0.8834   -0.5718    1.5674 H   0  0  0  0  0  0  0  0  0  0  0  0
    1.0430    1.3966   -0.7499 H   0  0  0  0  0  0  0  0  0  0  0  0
   -1.6889    0.0054   -1.6702 H   0  0  0  0  0  0  0  0  0  0  0  0
   -1.3766   -1.7298   -1.5426 H   0  0  0  0  0  0  0  0  0  0  0  0
    5.8057   -0.9398   -0.7025 H   0  0  0  0  0  0  0  0  0  0  0  0
    3.7801   -1.6596    0.3500 H   0  0  0  0  0  0  0  0  0  0  0  0
    2.0461   -1.8834    0.5526 H   0  0  0  0  0  0  0  0  0  0  0  0
    2.7860   -2.0513   -1.0604 H   0  0  0  0  0  0  0  0  0  0  0  0
    2.4645   -0.3017   -2.5644 H   0  0  0  0  0  0  0  0  0  0  0  0
    4.0744    2.3158   -1.6832 H   0  0  0  0  0  0  0  0  0  0  0  0
    3.6501    1.7212   -3.3644 H   0  0  0  0  0  0  0  0  0  0  0  0
    4.9338   -0.3406   -2.8332 H   0  0  0  0  0  0  0  0  0  0  0  0
    7.2985    0.5225   -0.5052 H   0  0  0  0  0  0  0  0  0  0  0  0
   -1.8997   -2.6622    1.0720 H   0  0  0  0  0  0  0  0  0  0  0  0
   -0.6585   -1.7420    2.0628 H   0  0  0  0  0  0  0  0  0  0  0  0
   -0.2825   -2.3937    0.4633 H   0  0  0  0  0  0  0  0  0  0  0  0
   -1.3820    1.6656    2.6893 H   0  0  0  0  0  0  0  0  0  0  0  0
   -1.6273   -0.1491    2.8052 H   0  0  0  0  0  0  0  0  0  0  0  0
   -3.8328    0.6309    2.2670 H   0  0  0  0  0  0  0  0  0  0  0  0
   -3.1050    1.7980    1.0634 H   0  0  0  0  0  0  0  0  0  0  0  0
   -3.4473   -1.6931    1.9772 H   0  0  0  0  0  0  0  0  0  0  0  0
   -5.1491   -2.4722   -0.3011 H   0  0  0  0  0  0  0  0  0  0  0  0
   -3.3981   -2.6054   -0.7705 H   0  0  0  0  0  0  0  0  0  0  0  0
   -4.1048   -3.4686    0.7018 H   0  0  0  0  0  0  0  0  0  0  0  0
   -5.6218   -1.4961    1.9011 H   0  0  0  0  0  0  0  0  0  0  0  0
   -5.3335    0.7535   -0.2231 H   0  0  0  0  0  0  0  0  0  0  0  0
   -4.3069    2.1617   -2.6218 H   0  0  0  0  0  0  0  0  0  0  0  0
   -5.4972    2.6746   -1.3962 H   0  0  0  0  0  0  0  0  0  0  0  0
   -3.7300    2.7592   -1.0472 H   0  0  0  0  0  0  0  0  0  0  0  0
   -4.5915   -0.7425   -2.3340 H   0  0  0  0  0  0  0  0  0  0  0  0
  1  3  1  0
  3  4  1  0
  4  6  1  0
  2  7  1  0
  6  7  1  0
  5  8  1  0
  7  8  1  0
  3  9  1  0
  8  9  1  0
  5 10  1  0
  2 11  1  0
 10 11  1  0
  1 12  1  0
  9 13  1  1
  9 14  1  0
 14 15  1  0
 12 16  1  0
 14 16  1  0
 15 16  1  0
 12 17  1  0
  4 18  1  0
 11 19  1  1
  2 20  1  0
 20 21  1  0
 11 22  1  0
 21 22  1  0
 22 23  1  0
 23 24  1  0
 23 25  1  0
 22 26  1  6
 26 27  1  0
 27 28  1  0
 27 29  1  0
  1 30  1  0
  1 31  1  0
  2 32  1  6
  3 33  1  6
  4 34  1  0
  5 35  1  0
  5 36  1  0
  6 37  1  0
  6 38  1  0
  7 39  1  1
  8 40  1  6
 10 41  1  0
 10 42  1  0
 12 43  1  0
 13 44  1  0
 13 45  1  0
 13 46  1  0
 14 47  1  6
 15 48  1  0
 15 49  1  0
 16 50  1  6
 17 51  1  0
 19 52  1  0
 19 53  1  0
 19 54  1  0
 20 55  1  0
 20 56  1  0
 21 57  1  0
 21 58  1  0
 23 59  1  0
 24 60  1  0
 24 61  1  0
 24 62  1  0
 25 63  1  0
 27 64  1  0
 28 65  1  0
 28 66  1  0
 28 67  1  0
 29 68  1  0
M  END
>  <PDBID>  (1) 
2OZ7

>  <PDB ID>  (1) 
2OZ7

>  <Generic Name>  (1) 
Cyproterone acetate

>  <Brand Name>  (1) 
Alti-cpa#Androcur#Androcur Depot#ClÃ©o -35#Cyestra-35#Cyproterone#Diane-35#Med-cyproterone#Mylan-cyproterone#Novo-cyproterone#Novo-cyproterone/ethinyl Estradiol#Ran-cyproterone/ethinyl Estradiol#Riva-cyproterone#Riva-cyproterone 50 mg#Cyprostat

>  <DrugBank ID>  (1) 
DB04839

>  <ATC Codes>  (1) 
G03HB01#G03HA01

>  <Ligand ID>  (1) 
CA4

>  <Target Name>  (1) 
Androgen receptor

>  <UniProt ID>  (1) 
P10275

>  <PDB ID.1>  (1) 
2OZ7

>  <Seq. Identity>  (1) 
100%

$$$$
