PDB_DB01268_08
     RDKit          3D

 72 74  0  0  0  0  0  0  0  0999 V2000
    1.5285   -1.4790    2.5612 C   0  0  0  0  0  0  0  0  0  0  0  0
   -7.3771   -0.1616   -1.0621 C   0  0  0  0  0  0  0  0  0  0  0  0
   -6.4155   -0.9902   -1.8252 C   0  0  0  0  0  0  0  0  0  0  0  0
   -5.4985    0.5867    0.3777 C   0  0  0  0  0  0  0  0  0  0  0  0
   -0.4934    1.0386    0.8794 C   0  0  0  0  0  0  0  0  0  0  0  0
   -6.9993    0.2098    0.3318 C   0  0  0  0  0  0  0  0  0  0  0  0
   -4.7811   -0.6835    0.0807 C   0  0  0  0  0  0  0  0  0  0  0  0
   -3.2475   -0.5425    0.0536 C   0  0  0  0  0  0  0  0  0  0  0  0
   -3.1116    0.3869   -1.1066 C   0  0  0  0  0  0  0  0  0  0  0  0
    1.9484    1.5652    0.9379 C   0  0  0  0  0  0  0  0  0  0  0  0
   -0.7994    2.4567    1.3401 C   0  0  0  0  0  0  0  0  0  0  0  0
   -2.6937   -0.1854    1.3518 C   0  0  0  0  0  0  0  0  0  0  0  0
    0.9358   -0.7738    1.3377 C   0  0  0  0  0  0  0  0  0  0  0  0
   -4.9974   -0.9803   -1.4060 C   0  0  0  0  0  0  0  0  0  0  0  0
   -1.2661   -0.0137    1.5799 C   0  0  0  0  0  0  0  0  0  0  0  0
    0.9178    0.6879    1.4838 C   0  0  0  0  0  0  0  0  0  0  0  0
   -0.4852   -1.2196    1.2657 N   0  0  0  0  0  0  0  0  0  0  0  0
   -4.1828    0.0122   -2.0329 N   0  0  0  0  0  0  0  0  0  0  0  0
    3.2374    1.3718    1.3892 N   0  0  0  0  0  0  0  0  0  0  0  0
   -3.1580    1.7154   -0.7963 O   0  0  0  0  0  0  0  0  0  0  0  0
    1.8511    1.6921   -0.4747 O   0  0  0  0  0  0  0  0  0  0  0  0
   -7.2866   -0.7628    1.2673 F   0  0  0  0  0  0  0  0  0  0  0  0
    4.1038    0.3360    1.0700 C   0  0  0  0  0  0  0  0  0  0  0  0
    4.6361    0.5588   -0.3541 C   0  0  0  0  0  0  0  0  0  0  0  0
    5.5452   -0.4562   -0.7827 N   0  0  0  0  0  0  0  0  0  0  0  0
    4.9317   -1.7284   -0.9909 C   0  0  0  0  0  0  0  0  0  0  0  0
    6.3391    0.0164   -1.8973 C   0  0  0  0  0  0  0  0  0  0  0  0
    7.2653    1.0926   -1.3951 C   0  0  0  0  0  0  0  0  0  0  0  0
    5.9955   -2.7147   -1.4404 C   0  0  0  0  0  0  0  0  0  0  0  0
    2.0644   -0.7582    3.2082 H   0  0  0  0  0  0  0  0  0  0  0  0
    0.6904   -1.9108    3.1318 H   0  0  0  0  0  0  0  0  0  0  0  0
    2.1812   -2.3338    2.2493 H   0  0  0  0  0  0  0  0  0  0  0  0
   -8.3292   -0.7684   -0.9696 H   0  0  0  0  0  0  0  0  0  0  0  0
   -7.6977    0.7604   -1.6015 H   0  0  0  0  0  0  0  0  0  0  0  0
   -6.7710   -2.0502   -1.9531 H   0  0  0  0  0  0  0  0  0  0  0  0
   -6.4366   -0.5987   -2.8864 H   0  0  0  0  0  0  0  0  0  0  0  0
   -5.3886    1.3070   -0.4650 H   0  0  0  0  0  0  0  0  0  0  0  0
   -5.3379    1.0223    1.3500 H   0  0  0  0  0  0  0  0  0  0  0  0
   -0.4227    0.9839   -0.1956 H   0  0  0  0  0  0  0  0  0  0  0  0
   -7.5918    1.1017    0.6197 H   0  0  0  0  0  0  0  0  0  0  0  0
   -5.0846   -1.5129    0.7222 H   0  0  0  0  0  0  0  0  0  0  0  0
   -2.8936   -1.5413   -0.3326 H   0  0  0  0  0  0  0  0  0  0  0  0
   -2.1504    0.1858   -1.6646 H   0  0  0  0  0  0  0  0  0  0  0  0
    1.6468    2.6455    1.2626 H   0  0  0  0  0  0  0  0  0  0  0  0
   -1.8712    2.5994    1.3850 H   0  0  0  0  0  0  0  0  0  0  0  0
   -0.2687    2.7039    2.2803 H   0  0  0  0  0  0  0  0  0  0  0  0
   -0.3694    3.1217    0.5570 H   0  0  0  0  0  0  0  0  0  0  0  0
   -3.0536   -0.9013    2.1716 H   0  0  0  0  0  0  0  0  0  0  0  0
   -3.2012    0.7816    1.6805 H   0  0  0  0  0  0  0  0  0  0  0  0
    1.4801   -1.1014    0.4354 H   0  0  0  0  0  0  0  0  0  0  0  0
   -4.5794   -2.0176   -1.5976 H   0  0  0  0  0  0  0  0  0  0  0  0
   -1.1078    0.1313    2.6887 H   0  0  0  0  0  0  0  0  0  0  0  0
    0.7852    0.9759    2.5777 H   0  0  0  0  0  0  0  0  0  0  0  0
   -0.7046   -1.6370    0.3666 H   0  0  0  0  0  0  0  0  0  0  0  0
   -3.7831   -0.3410   -2.9382 H   0  0  0  0  0  0  0  0  0  0  0  0
    3.5180    1.8824    2.2727 H   0  0  0  0  0  0  0  0  0  0  0  0
   -3.5099    2.2033   -1.6105 H   0  0  0  0  0  0  0  0  0  0  0  0
    1.4684    0.8320   -0.7707 H   0  0  0  0  0  0  0  0  0  0  0  0
    3.6843   -0.6513    1.1715 H   0  0  0  0  0  0  0  0  0  0  0  0
    5.0305    0.3308    1.7567 H   0  0  0  0  0  0  0  0  0  0  0  0
    3.7988    0.7054   -1.0455 H   0  0  0  0  0  0  0  0  0  0  0  0
    5.1668    1.5592   -0.2716 H   0  0  0  0  0  0  0  0  0  0  0  0
    4.5204   -2.0858   -0.0504 H   0  0  0  0  0  0  0  0  0  0  0  0
    4.1785   -1.6560   -1.8119 H   0  0  0  0  0  0  0  0  0  0  0  0
    5.6306    0.5118   -2.6334 H   0  0  0  0  0  0  0  0  0  0  0  0
    6.8994   -0.7945   -2.3984 H   0  0  0  0  0  0  0  0  0  0  0  0
    7.6936    0.8081   -0.4003 H   0  0  0  0  0  0  0  0  0  0  0  0
    8.0946    1.2185   -2.1523 H   0  0  0  0  0  0  0  0  0  0  0  0
    6.8180    2.0812   -1.2915 H   0  0  0  0  0  0  0  0  0  0  0  0
    6.9488   -2.4314   -0.9375 H   0  0  0  0  0  0  0  0  0  0  0  0
    5.7043   -3.7566   -1.1267 H   0  0  0  0  0  0  0  0  0  0  0  0
    6.1074   -2.6400   -2.5265 H   0  0  0  0  0  0  0  0  0  0  0  0
  2  3  1  0
  2  6  1  0
  4  6  1  0
  4  7  1  0
  7  8  1  0
  8  9  1  0
  5 11  1  0
  8 12  1  0
  1 13  1  0
  3 14  1  0
  7 14  1  0
  5 15  1  0
 12 15  1  0
  5 16  1  0
 10 16  1  0
 13 16  1  0
 13 17  1  0
 15 17  1  0
  9 18  1  0
 14 18  1  0
 10 19  1  0
  9 20  1  0
 10 21  1  0
  6 22  1  0
 19 23  1  0
 23 24  1  0
 24 25  1  0
 25 26  1  0
 25 27  1  0
 27 28  1  0
 26 29  1  0
  1 30  1  0
  1 31  1  0
  1 32  1  0
  2 33  1  0
  2 34  1  0
  3 35  1  0
  3 36  1  0
  4 37  1  0
  4 38  1  0
  5 39  1  0
  6 40  1  0
  7 41  1  0
  8 42  1  0
  9 43  1  0
 10 44  1  0
 11 45  1  0
 11 46  1  0
 11 47  1  0
 12 48  1  0
 12 49  1  0
 13 50  1  0
 14 51  1  0
 15 52  1  0
 16 53  1  0
 17 54  1  0
 18 55  1  0
 19 56  1  0
 20 57  1  0
 21 58  1  0
 23 59  1  0
 23 60  1  0
 24 61  1  0
 24 62  1  0
 26 63  1  0
 26 64  1  0
 27 65  1  0
 27 66  1  0
 28 67  1  0
 28 68  1  0
 28 69  1  0
 29 70  1  0
 29 71  1  0
 29 72  1  0
M  END
>  <PDBID>  (1) 
4AGD

>  <PDB ID>  (1) 
4AGD

>  <Generic Name>  (1) 
Sunitinib

>  <Brand Name>  (1) 
Sutent

>  <DrugBank ID>  (1) 
DB01268

>  <ATC Codes>  (1) 
L01XE04

>  <Ligand ID>  (1) 
B49

>  <Target Name>  (1) 
Vascular endothelial growth factor receptor 3

>  <UniProt ID>  (1) 
P35916

>  <PDB ID.1>  (1) 
4AGD

>  <Seq. Identity>  (1) 
66%

$$$$
