PDB_DB00559_03
     RDKit          3D

 94 97  0  0  0  0  0  0  0  0999 V2000
    4.7779    0.5074    1.6389 C   0  0  0  0  0  0  0  0  0  0  0  0
   -0.9401    0.1395   -0.8795 C   0  0  0  0  0  0  0  0  0  0  0  0
   -2.9856    1.0154    0.0878 C   0  0  0  0  0  0  0  0  0  0  0  0
   -2.0160    3.6221   -1.4965 C   0  0  0  0  0  0  0  0  0  0  0  0
   -2.4492    6.1412   -1.4530 C   0  0  0  0  0  0  0  0  0  0  0  0
   -4.3386    1.6474    1.8450 C   0  0  0  0  0  0  0  0  0  0  0  0
    7.6469   -0.2450    1.5185 C   0  0  0  0  0  0  0  0  0  0  0  0
    6.6226   -0.7754    0.5365 C   0  0  0  0  0  0  0  0  0  0  0  0
    6.1692   -2.1091    1.0222 C   0  0  0  0  0  0  0  0  0  0  0  0
    7.3249   -0.9658   -0.7910 C   0  0  0  0  0  0  0  0  0  0  0  0
    5.4883    0.2253    0.3573 C   0  0  0  0  0  0  0  0  0  0  0  0
    4.6323   -0.0775   -0.8172 C   0  0  0  0  0  0  0  0  0  0  0  0
    3.3051   -0.6879   -0.5443 C   0  0  0  0  0  0  0  0  0  0  0  0
    2.6484    0.0275    0.5981 C   0  0  0  0  0  0  0  0  0  0  0  0
    3.4921   -0.2298    1.8265 C   0  0  0  0  0  0  0  0  0  0  0  0
    0.9824   -0.3896    0.8164 S   0  0  0  0  0  0  0  0  0  0  0  0
    0.3183    0.3590    2.0149 O   0  0  0  0  0  0  0  0  0  0  0  0
    1.1622   -2.0646    1.5056 O   0  0  0  0  0  0  0  0  0  0  0  0
    0.2762   -0.5419   -0.5209 N   0  0  0  0  0  0  0  0  0  0  0  0
   -2.0954   -0.1945    0.0453 C   0  0  0  0  0  0  0  0  0  0  0  0
   -3.1235    1.5169   -1.2672 N   0  0  0  0  0  0  0  0  0  0  0  0
   -1.8815    2.1301   -1.6391 C   0  0  0  0  0  0  0  0  0  0  0  0
   -0.7406    1.5846   -0.9821 N   0  0  0  0  0  0  0  0  0  0  0  0
   -0.8236    4.3332   -1.8453 N   0  0  0  0  0  0  0  0  0  0  0  0
   -1.0024    5.7324   -1.6088 C   0  0  0  0  0  0  0  0  0  0  0  0
   -3.1456    5.3280   -0.3842 C   0  0  0  0  0  0  0  0  0  0  0  0
   -2.5142    4.0290   -0.2061 N   0  0  0  0  0  0  0  0  0  0  0  0
   -4.1795    0.8231    0.7208 O   0  0  0  0  0  0  0  0  0  0  0  0
   -5.7007    1.3668    2.4928 C   0  0  0  0  0  0  0  0  0  0  0  0
   -6.7320    1.6173    1.6115 O   0  0  0  0  0  0  0  0  0  0  0  0
   -2.7200   -1.3156   -0.4738 O   0  0  0  0  0  0  0  0  0  0  0  0
   -2.7098   -2.4091    0.3396 C   0  0  0  0  0  0  0  0  0  0  0  0
   -4.1488   -2.8835    0.5073 C   0  0  0  0  0  0  0  0  0  0  0  0
   -4.2216   -3.9618    1.5481 C   0  0  0  0  0  0  0  0  0  0  0  0
   -3.4411   -5.1600    1.0146 C   0  0  0  0  0  0  0  0  0  0  0  0
   -2.0322   -4.6909    0.7579 C   0  0  0  0  0  0  0  0  0  0  0  0
   -1.9918   -3.6069   -0.3011 C   0  0  0  0  0  0  0  0  0  0  0  0
   -2.7180   -3.9356   -1.4283 O   0  0  0  0  0  0  0  0  0  0  0  0
   -1.9724   -3.8992   -2.5992 C   0  0  0  0  0  0  0  0  0  0  0  0
    4.5241    1.6065    1.7007 H   0  0  0  0  0  0  0  0  0  0  0  0
    5.4914    0.3402    2.4749 H   0  0  0  0  0  0  0  0  0  0  0  0
   -1.2023   -0.1916   -1.9135 H   0  0  0  0  0  0  0  0  0  0  0  0
   -2.4300    1.8058    0.6508 H   0  0  0  0  0  0  0  0  0  0  0  0
   -2.8049    3.9329   -2.2434 H   0  0  0  0  0  0  0  0  0  0  0  0
   -2.4455    7.1975   -1.1022 H   0  0  0  0  0  0  0  0  0  0  0  0
   -2.9979    6.1373   -2.4190 H   0  0  0  0  0  0  0  0  0  0  0  0
   -4.3491    2.7191    1.5716 H   0  0  0  0  0  0  0  0  0  0  0  0
   -3.5367    1.4781    2.5842 H   0  0  0  0  0  0  0  0  0  0  0  0
    7.3772   -0.4772    2.5733 H   0  0  0  0  0  0  0  0  0  0  0  0
    7.8636    0.8310    1.3706 H   0  0  0  0  0  0  0  0  0  0  0  0
    8.5954   -0.7885    1.3136 H   0  0  0  0  0  0  0  0  0  0  0  0
    5.8813   -2.0747    2.1064 H   0  0  0  0  0  0  0  0  0  0  0  0
    5.4436   -2.6245    0.3913 H   0  0  0  0  0  0  0  0  0  0  0  0
    7.0902   -2.7655    1.0156 H   0  0  0  0  0  0  0  0  0  0  0  0
    6.9046   -1.8632   -1.2941 H   0  0  0  0  0  0  0  0  0  0  0  0
    7.2004   -0.0834   -1.4515 H   0  0  0  0  0  0  0  0  0  0  0  0
    8.4158   -1.0904   -0.6355 H   0  0  0  0  0  0  0  0  0  0  0  0
    6.0477    1.1822    0.1055 H   0  0  0  0  0  0  0  0  0  0  0  0
    5.2527   -0.6849   -1.5323 H   0  0  0  0  0  0  0  0  0  0  0  0
    4.4260    0.8699   -1.4000 H   0  0  0  0  0  0  0  0  0  0  0  0
    2.7027   -0.6049   -1.4845 H   0  0  0  0  0  0  0  0  0  0  0  0
    3.3191   -1.7634   -0.3023 H   0  0  0  0  0  0  0  0  0  0  0  0
    2.6958    1.1189    0.4074 H   0  0  0  0  0  0  0  0  0  0  0  0
    2.9611    0.2446    2.6893 H   0  0  0  0  0  0  0  0  0  0  0  0
    3.6139   -1.3015    2.0045 H   0  0  0  0  0  0  0  0  0  0  0  0
    0.9196    0.9823    2.5113 H   0  0  0  0  0  0  0  0  0  0  0  0
    1.9052   -2.4359    1.0036 H   0  0  0  0  0  0  0  0  0  0  0  0
    0.4715   -1.3839   -1.1163 H   0  0  0  0  0  0  0  0  0  0  0  0
   -1.6824   -0.3572    1.0433 H   0  0  0  0  0  0  0  0  0  0  0  0
   -3.4356    0.7728   -1.9233 H   0  0  0  0  0  0  0  0  0  0  0  0
   -1.7490    1.9341   -2.7438 H   0  0  0  0  0  0  0  0  0  0  0  0
   -0.4853    2.0207   -0.0916 H   0  0  0  0  0  0  0  0  0  0  0  0
   -0.6266    4.1372   -2.8676 H   0  0  0  0  0  0  0  0  0  0  0  0
   -0.5796    6.3161   -2.4507 H   0  0  0  0  0  0  0  0  0  0  0  0
   -0.4487    6.0653   -0.7023 H   0  0  0  0  0  0  0  0  0  0  0  0
   -3.1669    5.8468    0.5749 H   0  0  0  0  0  0  0  0  0  0  0  0
   -4.1931    5.1826   -0.7124 H   0  0  0  0  0  0  0  0  0  0  0  0
   -1.7426    4.1069    0.4890 H   0  0  0  0  0  0  0  0  0  0  0  0
   -5.7636    0.2817    2.7687 H   0  0  0  0  0  0  0  0  0  0  0  0
   -5.8143    1.9233    3.4310 H   0  0  0  0  0  0  0  0  0  0  0  0
   -6.5884    1.0620    0.7941 H   0  0  0  0  0  0  0  0  0  0  0  0
   -2.2052   -2.2665    1.3112 H   0  0  0  0  0  0  0  0  0  0  0  0
   -4.4115   -3.3691   -0.4771 H   0  0  0  0  0  0  0  0  0  0  0  0
   -4.8551   -2.0686    0.6544 H   0  0  0  0  0  0  0  0  0  0  0  0
   -5.2793   -4.2204    1.7001 H   0  0  0  0  0  0  0  0  0  0  0  0
   -3.7471   -3.5677    2.4781 H   0  0  0  0  0  0  0  0  0  0  0  0
   -3.4218   -5.9068    1.8172 H   0  0  0  0  0  0  0  0  0  0  0  0
   -3.9695   -5.4926    0.1105 H   0  0  0  0  0  0  0  0  0  0  0  0
   -1.3311   -5.5136    0.5522 H   0  0  0  0  0  0  0  0  0  0  0  0
   -1.6836   -4.2116    1.7106 H   0  0  0  0  0  0  0  0  0  0  0  0
   -0.9317   -3.3661   -0.5033 H   0  0  0  0  0  0  0  0  0  0  0  0
   -2.6611   -4.1790   -3.4239 H   0  0  0  0  0  0  0  0  0  0  0  0
   -1.1367   -4.5964   -2.6193 H   0  0  0  0  0  0  0  0  0  0  0  0
   -1.6496   -2.8487   -2.8273 H   0  0  0  0  0  0  0  0  0  0  0  0
  8  7  1  0
  8  9  1  0
  8 10  1  0
  1 11  1  0
  8 11  1  0
 11 12  1  0
 12 13  1  0
 13 14  1  0
  1 15  1  0
 14 15  1  0
 14 16  1  0
 16 17  1  0
 16 18  1  0
  2 19  1  0
 16 19  1  0
  2 20  1  0
  3 20  1  0
  3 21  1  0
  4 22  1  0
 21 22  1  0
  2 23  1  0
 22 23  1  0
  4 24  1  0
  5 25  1  0
 24 25  1  0
  5 26  1  0
  4 27  1  0
 26 27  1  0
  3 28  1  0
  6 28  1  0
  6 29  1  0
 29 30  1  0
 20 31  1  0
 31 32  1  0
 32 33  1  0
 33 34  1  0
 34 35  1  0
 35 36  1  0
 32 37  1  0
 36 37  1  0
 37 38  1  0
 38 39  1  0
  1 40  1  0
  1 41  1  0
  2 42  1  0
  3 43  1  0
  4 44  1  0
  5 45  1  0
  5 46  1  0
  6 47  1  0
  6 48  1  0
  7 49  1  0
  7 50  1  0
  7 51  1  0
  9 52  1  0
  9 53  1  0
  9 54  1  0
 10 55  1  0
 10 56  1  0
 10 57  1  0
 11 58  1  0
 12 59  1  0
 12 60  1  0
 13 61  1  0
 13 62  1  0
 14 63  1  0
 15 64  1  0
 15 65  1  0
 17 66  1  0
 18 67  1  0
 19 68  1  0
 20 69  1  0
 21 70  1  0
 22 71  1  0
 23 72  1  0
 24 73  1  0
 25 74  1  0
 25 75  1  0
 26 76  1  0
 26 77  1  0
 27 78  1  0
 29 79  1  0
 29 80  1  0
 30 81  1  0
 32 82  1  0
 33 83  1  0
 33 84  1  0
 34 85  1  0
 34 86  1  0
 35 87  1  0
 35 88  1  0
 36 89  1  0
 36 90  1  0
 37 91  1  0
 39 92  1  0
 39 93  1  0
 39 94  1  0
M  END
>  <PDBID>  (1) 
5XPR

>  <PDB ID>  (1) 
5XPR

>  <Generic Name>  (1) 
Bosentan

>  <Brand Name>  (1) 
Accel-bosentan#Act Bosentan#Apo-bosentan#Bosentan Tablets#Ipg-bosentan#Mar-bosentan#Mylan-bosentan#PMS-bosentan#Sandoz Bosentan#Teva-bosentan#Tracleer

>  <DrugBank ID>  (1) 
DB00559

>  <ATC Codes>  (1) 
C02KX01

>  <Ligand ID>  (1) 
K86

>  <Target Name>  (1) 
Endothelin B receptor

>  <UniProt ID>  (1) 
P24530

>  <PDB ID.1>  (1) 
5XPR

>  <Seq. Identity>  (1) 
85%

$$$$
