PDB_DB04868_01
     RDKit          3D

 91 95  0  0  0  0  0  0  0  0999 V2000
   -2.5944    1.2956    0.7070 O   0  0  0  0  0  0  0  0  0  0  0  0
   -2.1143   -0.0335    0.7884 C   0  0  1  0  0  0  0  0  0  0  0  0
   -2.1680   -0.6437   -0.4946 N   0  0  0  0  0  0  0  0  0  0  0  0
   -3.4722   -1.1731   -0.8401 C   0  0  2  0  0  0  0  0  0  0  0  0
   -4.5228   -0.0856   -0.9090 C   0  0  0  0  0  0  0  0  0  0  0  0
   -5.7816   -0.6943   -1.4511 C   0  0  0  0  0  0  0  0  0  0  0  0
   -6.8648    0.2437   -1.5716 N   0  0  0  0  0  0  0  0  0  0  0  0
   -7.3031    0.8129   -0.3467 C   0  0  0  0  0  0  0  0  0  0  0  0
   -7.1850    2.3088   -0.4494 C   0  0  0  0  0  0  0  0  0  0  0  0
   -8.5346    2.9698   -0.3531 C   0  0  0  0  0  0  0  0  0  0  0  0
   -6.5256    2.5441   -1.6995 N   0  0  0  0  0  0  0  0  0  0  0  0
   -6.5940    1.3302   -2.4518 C   0  0  0  0  0  0  0  0  0  0  0  0
   -6.1795   -1.8590   -0.5980 C   0  0  0  0  0  0  0  0  0  0  0  0
   -3.8716   -2.3422   -0.0033 C   0  0  0  0  0  0  0  0  0  0  0  0
   -5.2419   -2.0651    0.5754 C   0  0  0  0  0  0  0  0  0  0  0  0
   -5.7567   -3.2554    1.3693 C   0  0  0  0  0  0  0  0  0  0  0  0
   -4.8986   -3.4328    2.4288 F   0  0  0  0  0  0  0  0  0  0  0  0
   -5.8795   -4.3683    0.5844 F   0  0  0  0  0  0  0  0  0  0  0  0
   -7.0052   -2.9609    1.8817 F   0  0  0  0  0  0  0  0  0  0  0  0
   -0.6699    0.0865    1.2251 C   0  0  1  0  0  0  0  0  0  0  0  0
   -0.0587   -1.2891    1.3410 C   0  0  0  0  0  0  0  0  0  0  0  0
    0.6511   -1.6852    0.0908 C   0  0  0  0  0  0  0  0  0  0  0  0
    1.8720   -0.7862   -0.1087 C   0  0  0  0  0  0  0  0  0  0  0  0
    2.0522   -0.6641   -1.5881 C   0  0  0  0  0  0  0  0  0  0  0  0
    1.6352    0.5611    0.5663 C   0  0  2  0  0  0  0  0  0  0  0  0
    0.1762    0.8966    0.2695 C   0  0  0  0  0  0  0  0  0  0  0  0
    2.5359    1.5675    0.1729 N   0  0  0  0  0  0  0  0  0  0  0  0
    3.9198    1.3684    0.4836 C   0  0  0  0  0  0  0  0  0  0  0  0
    4.2305    1.2169    1.8444 N   0  0  0  0  0  0  0  0  0  0  0  0
    4.5121   -0.0555    2.3675 C   0  0  0  0  0  0  0  0  0  0  0  0
    5.5624   -0.8056    1.5928 C   0  0  0  0  0  0  0  0  0  0  0  0
    5.7548   -0.2049    0.2067 C   0  0  0  0  0  0  0  0  0  0  0  0
    4.5685    0.3629   -0.3129 N   0  0  0  0  0  0  0  0  0  0  0  0
    6.9324    0.7375    0.2863 C   0  0  0  0  0  0  0  0  0  0  0  0
    8.1630   -0.0154    0.7343 C   0  0  0  0  0  0  0  0  0  0  0  0
    9.3139    0.1619   -0.2269 C   0  0  0  0  0  0  0  0  0  0  0  0
    8.8490   -0.0447   -1.6483 C   0  0  0  0  0  0  0  0  0  0  0  0
    7.9139    0.9695   -1.9830 N   0  0  0  0  0  0  0  0  0  0  0  0
    7.1605    1.5523   -0.9424 C   0  0  0  0  0  0  0  0  0  0  0  0
   -2.4817    1.6561    1.6387 H   0  0  0  0  0  0  0  0  0  0  0  0
   -2.7400   -0.5095    1.5550 H   0  0  0  0  0  0  0  0  0  0  0  0
   -1.9818    0.1023   -1.2113 H   0  0  0  0  0  0  0  0  0  0  0  0
   -3.3674   -1.5499   -1.9011 H   0  0  0  0  0  0  0  0  0  0  0  0
   -4.6627    0.4271    0.0601 H   0  0  0  0  0  0  0  0  0  0  0  0
   -4.1542    0.6773   -1.6259 H   0  0  0  0  0  0  0  0  0  0  0  0
   -5.5502   -1.0509   -2.4854 H   0  0  0  0  0  0  0  0  0  0  0  0
   -8.3821    0.5126   -0.2029 H   0  0  0  0  0  0  0  0  0  0  0  0
   -6.7566    0.4948    0.5468 H   0  0  0  0  0  0  0  0  0  0  0  0
   -6.5529    2.7343    0.3815 H   0  0  0  0  0  0  0  0  0  0  0  0
   -8.4393    3.9565    0.1683 H   0  0  0  0  0  0  0  0  0  0  0  0
   -9.2323    2.3507    0.2631 H   0  0  0  0  0  0  0  0  0  0  0  0
   -9.0198    3.1348   -1.3259 H   0  0  0  0  0  0  0  0  0  0  0  0
   -5.5931    2.9679   -1.6166 H   0  0  0  0  0  0  0  0  0  0  0  0
   -7.4780    1.4178   -3.1491 H   0  0  0  0  0  0  0  0  0  0  0  0
   -5.7185    1.1706   -3.1143 H   0  0  0  0  0  0  0  0  0  0  0  0
   -6.1298   -2.8050   -1.1958 H   0  0  0  0  0  0  0  0  0  0  0  0
   -7.2482   -1.7956   -0.2629 H   0  0  0  0  0  0  0  0  0  0  0  0
   -3.1331   -2.5916    0.7912 H   0  0  0  0  0  0  0  0  0  0  0  0
   -3.9787   -3.2946   -0.6013 H   0  0  0  0  0  0  0  0  0  0  0  0
   -5.2255   -1.2074    1.2691 H   0  0  0  0  0  0  0  0  0  0  0  0
   -0.6194    0.5329    2.2577 H   0  0  0  0  0  0  0  0  0  0  0  0
   -0.8238   -2.0641    1.5656 H   0  0  0  0  0  0  0  0  0  0  0  0
    0.6666   -1.3243    2.1744 H   0  0  0  0  0  0  0  0  0  0  0  0
   -0.0000   -1.6714   -0.8089 H   0  0  0  0  0  0  0  0  0  0  0  0
    1.0338   -2.7208    0.1613 H   0  0  0  0  0  0  0  0  0  0  0  0
    2.7372   -1.3202    0.3231 H   0  0  0  0  0  0  0  0  0  0  0  0
    2.2272    0.4203   -1.8360 H   0  0  0  0  0  0  0  0  0  0  0  0
    2.9237   -1.2436   -1.9037 H   0  0  0  0  0  0  0  0  0  0  0  0
    1.1593   -1.0147   -2.1731 H   0  0  0  0  0  0  0  0  0  0  0  0
    1.6810    0.3656    1.6603 H   0  0  0  0  0  0  0  0  0  0  0  0
   -0.0915    0.6488   -0.7604 H   0  0  0  0  0  0  0  0  0  0  0  0
   -0.0068    1.9899    0.3895 H   0  0  0  0  0  0  0  0  0  0  0  0
    2.3279    2.0949   -0.6747 H   0  0  0  0  0  0  0  0  0  0  0  0
    4.4167    2.3426    0.1611 H   0  0  0  0  0  0  0  0  0  0  0  0
    4.1737    2.0162    2.4619 H   0  0  0  0  0  0  0  0  0  0  0  0
    4.8787    0.0628    3.4083 H   0  0  0  0  0  0  0  0  0  0  0  0
    3.6385   -0.7460    2.4614 H   0  0  0  0  0  0  0  0  0  0  0  0
    6.5154   -0.7300    2.1506 H   0  0  0  0  0  0  0  0  0  0  0  0
    5.3381   -1.8974    1.5254 H   0  0  0  0  0  0  0  0  0  0  0  0
    6.0366   -1.0678   -0.4507 H   0  0  0  0  0  0  0  0  0  0  0  0
    4.6402    0.5956   -1.3194 H   0  0  0  0  0  0  0  0  0  0  0  0
    6.6957    1.4579    1.1151 H   0  0  0  0  0  0  0  0  0  0  0  0
    8.4790    0.2418    1.7583 H   0  0  0  0  0  0  0  0  0  0  0  0
    7.9185   -1.0965    0.7245 H   0  0  0  0  0  0  0  0  0  0  0  0
    9.6982    1.1955   -0.1465 H   0  0  0  0  0  0  0  0  0  0  0  0
   10.1427   -0.5238    0.0211 H   0  0  0  0  0  0  0  0  0  0  0  0
    9.7554    0.0840   -2.2969 H   0  0  0  0  0  0  0  0  0  0  0  0
    8.4883   -1.0761   -1.8357 H   0  0  0  0  0  0  0  0  0  0  0  0
    7.3503    0.7345   -2.8188 H   0  0  0  0  0  0  0  0  0  0  0  0
    6.1849    1.8773   -1.3527 H   0  0  0  0  0  0  0  0  0  0  0  0
    7.6782    2.5167   -0.6576 H   0  0  0  0  0  0  0  0  0  0  0  0
  1  2  1  0
  2  3  1  0
  3  4  1  0
  4  5  1  0
  5  6  1  0
  6  7  1  0
  7  8  1  0
  8  9  1  0
  9 10  1  0
  9 11  1  0
  7 12  1  0
 11 12  1  0
  6 13  1  0
  4 14  1  0
 13 15  1  0
 14 15  1  0
 15 16  1  0
 16 17  1  0
 16 18  1  0
 16 19  1  0
  2 20  1  0
 20 21  1  0
 21 22  1  0
 22 23  1  0
 23 24  1  0
 23 25  1  0
 20 26  1  0
 25 26  1  0
 25 27  1  0
 27 28  1  0
 28 29  1  0
 29 30  1  0
 30 31  1  0
 31 32  1  0
 28 33  1  0
 32 33  1  0
 32 34  1  0
 34 35  1  0
 35 36  1  0
 36 37  1  0
 37 38  1  0
 34 39  1  0
 38 39  1  0
  1 40  1  0
  2 41  1  1
  3 42  1  0
  4 43  1  6
  5 44  1  0
  5 45  1  0
  6 46  1  0
  8 47  1  0
  8 48  1  0
  9 49  1  0
 10 50  1  0
 10 51  1  0
 10 52  1  0
 11 53  1  0
 12 54  1  0
 12 55  1  0
 13 56  1  0
 13 57  1  0
 14 58  1  0
 14 59  1  0
 15 60  1  0
 20 61  1  1
 21 62  1  0
 21 63  1  0
 22 64  1  0
 22 65  1  0
 23 66  1  0
 24 67  1  0
 24 68  1  0
 24 69  1  0
 25 70  1  1
 26 71  1  0
 26 72  1  0
 27 73  1  0
 28 74  1  0
 29 75  1  0
 30 76  1  0
 30 77  1  0
 31 78  1  0
 31 79  1  0
 32 80  1  0
 33 81  1  0
 34 82  1  0
 35 83  1  0
 35 84  1  0
 36 85  1  0
 36 86  1  0
 37 87  1  0
 37 88  1  0
 38 89  1  0
 39 90  1  0
 39 91  1  0
M  END
>  <PDBID>  (1) 
5MO4

>  <PDB ID>  (1) 
5MO4

>  <Generic Name>  (1) 
Nilotinib

>  <Brand Name>  (1) 
Tasigna

>  <DrugBank ID>  (1) 
DB04868

>  <ATC Codes>  (1) 
L01XE08

>  <Ligand ID>  (1) 
NIL

>  <Target Name>  (1) 
Tyrosine-protein kinase ABL1

>  <UniProt ID>  (1) 
P00519

>  <PDB ID.1>  (1) 
5MO4

>  <Seq. Identity>  (1) 
97%

$$$$
