PDB_DB01136_06
     RDKit          3D

148154  0  0  0  0  0  0  0  0999 V2000
    0.3324    0.4972    0.0262 O   0  0  0  0  0  0  0  0  0  0  0  0
   -0.2891    0.9251   -1.0943 C   0  0  2  0  0  0  0  0  0  0  0  0
   -1.1449   -0.0256   -1.8470 C   0  0  0  0  0  0  0  0  0  0  0  0
   -2.2442   -0.5633   -1.3602 O   0  0  0  0  0  0  0  0  0  0  0  0
   -2.3879   -1.3242   -0.2846 C   0  0  2  0  0  0  0  0  0  0  0  0
   -2.4923   -2.8236   -0.8053 C   0  0  0  0  0  0  0  0  0  0  0  0
   -3.0891   -3.6925    0.2613 C   0  0  0  0  0  0  0  0  0  0  0  0
   -4.5873   -3.3851    0.4370 C   0  0  0  0  0  0  0  0  0  0  0  0
   -4.7180   -1.9619   -0.0381 C   0  0  0  0  0  0  0  0  0  0  0  0
   -3.5569   -1.1815    0.5868 C   0  0  0  0  0  0  0  0  0  0  0  0
   -4.1356    0.1112    0.9242 C   0  0  0  0  0  0  0  0  0  0  0  0
   -3.4418    1.3471    0.5428 C   0  0  0  0  0  0  0  0  0  0  0  0
   -4.2743    2.5123    1.0390 C   0  0  0  0  0  0  0  0  0  0  0  0
   -5.6937    2.4660    0.5722 C   0  0  0  0  0  0  0  0  0  0  0  0
   -6.3413    1.1079    0.8787 C   0  0  0  0  0  0  0  0  0  0  0  0
   -5.4815    0.0900    0.2242 C   0  0  0  0  0  0  0  0  0  0  0  0
   -5.8674   -1.2831    0.5234 N   0  0  0  0  0  0  0  0  0  0  0  0
    0.6887    1.5887   -2.0303 C   0  0  0  0  0  0  0  0  0  0  0  0
    1.7592    0.8772   -2.5526 N   0  0  0  0  0  0  0  0  0  0  0  0
    2.8347    0.4609   -1.7238 C   0  0  0  0  0  0  0  0  0  0  0  0
    3.5699    1.6801   -1.2310 C   0  0  0  0  0  0  0  0  0  0  0  0
    4.6395    1.4409   -0.4187 O   0  0  0  0  0  0  0  0  0  0  0  0
    4.3873    0.7325    0.7383 C   0  0  0  0  0  0  0  0  0  0  0  0
    4.8186    1.5092    1.9806 C   0  0  0  0  0  0  0  0  0  0  0  0
    6.1622    2.1093    1.6344 C   0  0  0  0  0  0  0  0  0  0  0  0
    7.1574    1.0388    1.2483 C   0  0  0  0  0  0  0  0  0  0  0  0
    6.5956   -0.3388    1.3437 C   0  0  0  0  0  0  0  0  0  0  0  0
    5.2369   -0.5190    0.7157 C   0  0  0  0  0  0  0  0  0  0  0  0
    5.3206   -1.0639   -0.5610 O   0  0  0  0  0  0  0  0  0  0  0  0
    4.7322   -2.3104   -0.6534 C   0  0  0  0  0  0  0  0  0  0  0  0
    0.7185   -1.9338   -2.9508 O   0  0  0  0  0  0  0  0  0  0  0  0
    0.6470   -0.6990   -2.3108 C   0  0  2  0  0  0  0  0  0  0  0  0
   -0.7966   -0.2046   -2.3177 C   0  0  0  0  0  0  0  0  0  0  0  0
   -1.6163   -1.1132   -1.6450 O   0  0  0  0  0  0  0  0  0  0  0  0
   -2.9502   -0.6867   -1.6465 C   0  0  1  0  0  0  0  0  0  0  0  0
   -3.7070   -1.7942   -2.3954 C   0  0  0  0  0  0  0  0  0  0  0  0
   -3.6449   -3.0999   -1.6138 C   0  0  0  0  0  0  0  0  0  0  0  0
   -4.2286   -2.9365   -0.2071 C   0  0  0  0  0  0  0  0  0  0  0  0
   -4.6783   -1.5222   -0.1019 C   0  0  0  0  0  0  0  0  0  0  0  0
   -3.4331   -0.6554   -0.2333 C   0  0  2  0  0  0  0  0  0  0  0  0
   -3.9716    0.6867    0.2134 C   0  0  2  0  0  0  0  0  0  0  0  0
   -2.9531    1.5739    0.7966 C   0  0  0  0  0  0  0  0  0  0  0  0
   -3.0755    1.9479    2.2233 C   0  0  0  0  0  0  0  0  0  0  0  0
   -4.5412    2.2872    2.5019 C   0  0  0  0  0  0  0  0  0  0  0  0
   -5.2713    0.9650    2.3761 C   0  0  0  0  0  0  0  0  0  0  0  0
   -5.1512    0.3514    1.0398 C   0  0  0  0  0  0  0  0  0  0  0  0
   -5.1262   -1.1170    1.2170 N   0  0  0  0  0  0  0  0  0  0  0  0
    1.5398    0.2630   -3.0730 C   0  0  0  0  0  0  0  0  0  0  0  0
    2.9060   -0.1640   -3.1241 N   0  0  0  0  0  0  0  0  0  0  0  0
    3.5496   -0.1254   -1.8483 C   0  0  0  0  0  0  0  0  0  0  0  0
    3.7536    1.2651   -1.3958 C   0  0  0  0  0  0  0  0  0  0  0  0
    4.3717    1.3965   -0.1647 O   0  0  0  0  0  0  0  0  0  0  0  0
    3.6776    0.8176    0.8757 C   0  0  0  0  0  0  0  0  0  0  0  0
    3.4509    1.8578    1.9855 C   0  0  0  0  0  0  0  0  0  0  0  0
    4.7331    2.6816    2.0063 C   0  0  0  0  0  0  0  0  0  0  0  0
    5.9527    1.7947    2.0720 C   0  0  0  0  0  0  0  0  0  0  0  0
    5.6072    0.3703    2.4243 C   0  0  0  0  0  0  0  0  0  0  0  0
    4.5736   -0.2299    1.5015 C   0  0  0  0  0  0  0  0  0  0  0  0
    5.0842   -1.1463    0.6252 O   0  0  0  0  0  0  0  0  0  0  0  0
    4.6184   -2.4381    0.8254 C   0  0  0  0  0  0  0  0  0  0  0  0
    0.5393   -0.4294    0.1445 H   0  0  0  0  0  0  0  0  0  0  0  0
   -0.9880    1.7703   -0.7652 H   0  0  0  0  0  0  0  0  0  0  0  0
   -1.4602    0.5716   -2.7850 H   0  0  0  0  0  0  0  0  0  0  0  0
   -0.4615   -0.8024   -2.3747 H   0  0  0  0  0  0  0  0  0  0  0  0
   -1.4593   -1.4013    0.3405 H   0  0  0  0  0  0  0  0  0  0  0  0
   -3.0860   -2.8513   -1.7113 H   0  0  0  0  0  0  0  0  0  0  0  0
   -1.4643   -3.1787   -0.9911 H   0  0  0  0  0  0  0  0  0  0  0  0
   -3.0274   -4.7337   -0.1092 H   0  0  0  0  0  0  0  0  0  0  0  0
   -2.5533   -3.6193    1.2207 H   0  0  0  0  0  0  0  0  0  0  0  0
   -5.2271   -4.0983   -0.0801 H   0  0  0  0  0  0  0  0  0  0  0  0
   -4.7706   -3.3904    1.5331 H   0  0  0  0  0  0  0  0  0  0  0  0
   -4.7448   -1.8611   -1.1367 H   0  0  0  0  0  0  0  0  0  0  0  0
   -3.3243   -1.7153    1.5624 H   0  0  0  0  0  0  0  0  0  0  0  0
   -4.3509    0.1927    2.0388 H   0  0  0  0  0  0  0  0  0  0  0  0
   -3.3689    1.4708   -0.5706 H   0  0  0  0  0  0  0  0  0  0  0  0
   -2.4417    1.4701    1.0335 H   0  0  0  0  0  0  0  0  0  0  0  0
   -4.1798    2.6288    2.1389 H   0  0  0  0  0  0  0  0  0  0  0  0
   -3.8229    3.4308    0.6033 H   0  0  0  0  0  0  0  0  0  0  0  0
   -5.7649    2.7035   -0.4940 H   0  0  0  0  0  0  0  0  0  0  0  0
   -6.2603    3.2103    1.1667 H   0  0  0  0  0  0  0  0  0  0  0  0
   -7.3601    1.1792    0.4463 H   0  0  0  0  0  0  0  0  0  0  0  0
   -6.3339    0.9614    1.9670 H   0  0  0  0  0  0  0  0  0  0  0  0
   -5.3415    0.2080   -0.8512 H   0  0  0  0  0  0  0  0  0  0  0  0
   -5.9323   -1.4006    1.5480 H   0  0  0  0  0  0  0  0  0  0  0  0
    0.0797    1.9819   -2.8981 H   0  0  0  0  0  0  0  0  0  0  0  0
    1.0253    2.5137   -1.4384 H   0  0  0  0  0  0  0  0  0  0  0  0
    1.6767    0.3817   -3.4392 H   0  0  0  0  0  0  0  0  0  0  0  0
    3.5890   -0.0656   -2.3932 H   0  0  0  0  0  0  0  0  0  0  0  0
    2.4980   -0.2068   -0.9496 H   0  0  0  0  0  0  0  0  0  0  0  0
    2.9220    2.4208   -0.7187 H   0  0  0  0  0  0  0  0  0  0  0  0
    3.9625    2.2016   -2.1416 H   0  0  0  0  0  0  0  0  0  0  0  0
    3.3302    0.4155    0.8268 H   0  0  0  0  0  0  0  0  0  0  0  0
    4.9288    0.7770    2.8095 H   0  0  0  0  0  0  0  0  0  0  0  0
    4.1345    2.3142    2.2342 H   0  0  0  0  0  0  0  0  0  0  0  0
    5.9764    2.7707    0.7491 H   0  0  0  0  0  0  0  0  0  0  0  0
    6.4797    2.7463    2.4693 H   0  0  0  0  0  0  0  0  0  0  0  0
    7.9848    1.1071    2.0143 H   0  0  0  0  0  0  0  0  0  0  0  0
    7.6283    1.2931    0.2902 H   0  0  0  0  0  0  0  0  0  0  0  0
    7.3505   -1.0126    0.8388 H   0  0  0  0  0  0  0  0  0  0  0  0
    6.6284   -0.6466    2.4179 H   0  0  0  0  0  0  0  0  0  0  0  0
    4.7014   -1.2755    1.3353 H   0  0  0  0  0  0  0  0  0  0  0  0
    4.7795   -2.7521   -1.6459 H   0  0  0  0  0  0  0  0  0  0  0  0
    5.3217   -2.9894    0.0322 H   0  0  0  0  0  0  0  0  0  0  0  0
    3.6974   -2.3120   -0.2215 H   0  0  0  0  0  0  0  0  0  0  0  0
    0.2556   -2.6408   -2.4407 H   0  0  0  0  0  0  0  0  0  0  0  0
    0.9612   -0.8469   -1.2647 H   0  0  0  0  0  0  0  0  0  0  0  0
   -0.8445    0.7435   -1.7446 H   0  0  0  0  0  0  0  0  0  0  0  0
   -1.1059   -0.0021   -3.3418 H   0  0  0  0  0  0  0  0  0  0  0  0
   -3.0912    0.2575   -2.1692 H   0  0  0  0  0  0  0  0  0  0  0  0
   -4.7214   -1.4988   -2.6648 H   0  0  0  0  0  0  0  0  0  0  0  0
   -3.1790   -2.0069   -3.3548 H   0  0  0  0  0  0  0  0  0  0  0  0
   -2.5856   -3.3643   -1.5182 H   0  0  0  0  0  0  0  0  0  0  0  0
   -4.2360   -3.8313   -2.1877 H   0  0  0  0  0  0  0  0  0  0  0  0
   -5.0634   -3.6538   -0.0966 H   0  0  0  0  0  0  0  0  0  0  0  0
   -3.4245   -3.0912    0.5522 H   0  0  0  0  0  0  0  0  0  0  0  0
   -5.4790   -1.2409   -0.7976 H   0  0  0  0  0  0  0  0  0  0  0  0
   -2.6999   -1.0686    0.4904 H   0  0  0  0  0  0  0  0  0  0  0  0
   -4.3552    1.1654   -0.7380 H   0  0  0  0  0  0  0  0  0  0  0  0
   -2.8413    2.5243    0.1972 H   0  0  0  0  0  0  0  0  0  0  0  0
   -1.9498    1.0638    0.6791 H   0  0  0  0  0  0  0  0  0  0  0  0
   -2.8046    1.1475    2.9414 H   0  0  0  0  0  0  0  0  0  0  0  0
   -2.4968    2.8919    2.3993 H   0  0  0  0  0  0  0  0  0  0  0  0
   -4.9357    2.9635    1.6891 H   0  0  0  0  0  0  0  0  0  0  0  0
   -4.7048    2.6852    3.5020 H   0  0  0  0  0  0  0  0  0  0  0  0
   -6.3503    1.0914    2.6514 H   0  0  0  0  0  0  0  0  0  0  0  0
   -4.8422    0.2877    3.1599 H   0  0  0  0  0  0  0  0  0  0  0  0
   -6.1231    0.5193    0.4859 H   0  0  0  0  0  0  0  0  0  0  0  0
   -4.2930   -1.2766    1.8558 H   0  0  0  0  0  0  0  0  0  0  0  0
    1.1216    0.4586   -4.0929 H   0  0  0  0  0  0  0  0  0  0  0  0
    1.4559    1.2313   -2.5523 H   0  0  0  0  0  0  0  0  0  0  0  0
    2.9841   -1.1291   -3.5201 H   0  0  0  0  0  0  0  0  0  0  0  0
    4.5615   -0.5936   -2.0023 H   0  0  0  0  0  0  0  0  0  0  0  0
    2.9566   -0.7544   -1.1504 H   0  0  0  0  0  0  0  0  0  0  0  0
    2.8581    1.9063   -1.3933 H   0  0  0  0  0  0  0  0  0  0  0  0
    4.4561    1.7480   -2.1389 H   0  0  0  0  0  0  0  0  0  0  0  0
    2.7462    0.3347    0.5868 H   0  0  0  0  0  0  0  0  0  0  0  0
    3.3593    1.3367    2.9402 H   0  0  0  0  0  0  0  0  0  0  0  0
    2.6287    2.5338    1.7512 H   0  0  0  0  0  0  0  0  0  0  0  0
    4.7538    3.2274    1.0264 H   0  0  0  0  0  0  0  0  0  0  0  0
    4.7144    3.4615    2.7907 H   0  0  0  0  0  0  0  0  0  0  0  0
    6.5829    2.1851    2.9002 H   0  0  0  0  0  0  0  0  0  0  0  0
    6.5636    1.8730    1.1530 H   0  0  0  0  0  0  0  0  0  0  0  0
    6.5471   -0.2151    2.4102 H   0  0  0  0  0  0  0  0  0  0  0  0
    5.2768    0.3772    3.4905 H   0  0  0  0  0  0  0  0  0  0  0  0
    3.8801   -0.8117    2.1835 H   0  0  0  0  0  0  0  0  0  0  0  0
    5.0241   -3.1669    0.1299 H   0  0  0  0  0  0  0  0  0  0  0  0
    4.9040   -2.7379    1.8544 H   0  0  0  0  0  0  0  0  0  0  0  0
    3.4965   -2.4765    0.8147 H   0  0  0  0  0  0  0  0  0  0  0  0
  1  2  1  0
  2  3  1  0
  3  4  1  0
  4  5  1  0
  5  6  1  0
  6  7  1  0
  7  8  1  0
  8  9  1  0
  5 10  1  0
  9 10  1  0
 10 11  1  0
 11 12  1  0
 12 13  1  0
 13 14  1  0
 14 15  1  0
 11 16  1  0
 15 16  1  0
  9 17  1  0
 16 17  1  0
  2 18  1  0
 18 19  1  0
 19 20  1  0
 20 21  1  0
 21 22  1  0
 22 23  1  0
 23 24  1  0
 24 25  1  0
 25 26  1  0
 26 27  1  0
 23 28  1  0
 27 28  1  0
 28 29  1  0
 29 30  1  0
 31 32  1  0
 32 33  1  0
 33 34  1  0
 34 35  1  0
 35 36  1  0
 36 37  1  0
 37 38  1  0
 38 39  1  0
 35 40  1  0
 39 40  1  0
 40 41  1  0
 41 42  1  0
 42 43  1  0
 43 44  1  0
 44 45  1  0
 41 46  1  0
 45 46  1  0
 39 47  1  0
 46 47  1  0
 32 48  1  0
 48 49  1  0
 49 50  1  0
 50 51  1  0
 51 52  1  0
 52 53  1  0
 53 54  1  0
 54 55  1  0
 55 56  1  0
 56 57  1  0
 53 58  1  0
 57 58  1  0
 58 59  1  0
 59 60  1  0
  1 61  1  0
  2 62  1  1
  3 63  1  0
  3 64  1  0
  5 65  1  1
  6 66  1  0
  6 67  1  0
  7 68  1  0
  7 69  1  0
  8 70  1  0
  8 71  1  0
  9 72  1  0
 10 73  1  0
 11 74  1  0
 12 75  1  0
 12 76  1  0
 13 77  1  0
 13 78  1  0
 14 79  1  0
 14 80  1  0
 15 81  1  0
 15 82  1  0
 16 83  1  0
 17 84  1  0
 18 85  1  0
 18 86  1  0
 19 87  1  0
 20 88  1  0
 20 89  1  0
 21 90  1  0
 21 91  1  0
 23 92  1  0
 24 93  1  0
 24 94  1  0
 25 95  1  0
 25 96  1  0
 26 97  1  0
 26 98  1  0
 27 99  1  0
 27100  1  0
 28101  1  0
 30102  1  0
 30103  1  0
 30104  1  0
 31105  1  0
 32106  1  1
 33107  1  0
 33108  1  0
 35109  1  6
 36110  1  0
 36111  1  0
 37112  1  0
 37113  1  0
 38114  1  0
 38115  1  0
 39116  1  0
 40117  1  1
 41118  1  6
 42119  1  0
 42120  1  0
 43121  1  0
 43122  1  0
 44123  1  0
 44124  1  0
 45125  1  0
 45126  1  0
 46127  1  0
 47128  1  0
 48129  1  0
 48130  1  0
 49131  1  0
 50132  1  0
 50133  1  0
 51134  1  0
 51135  1  0
 53136  1  0
 54137  1  0
 54138  1  0
 55139  1  0
 55140  1  0
 56141  1  0
 56142  1  0
 57143  1  0
 57144  1  0
 58145  1  0
 60146  1  0
 60147  1  0
 60148  1  0
M  END
>  <PDBID>  (1) 
4AMJ

>  <PDB ID>  (1) 
4AMJ

>  <Generic Name>  (1) 
Carvedilol

>  <Brand Name>  (1) 
Apo-carvedilol#Auro-carvedilol#Ava-carvedilol#Carvedilol#Coreg#Coreg (carvedilol) Tablets, 12.5mg#Coreg (carvedilol) Tablets, 25mg#Coreg (carvedilol) Tablets, 3.125 mg#Coreg (carvedilol) Tablets, 6.25mg#Coreg 12.5mg#Coreg 25mg#Coreg 3.125mg#Coreg 6.25mg#Coreg CR#Coregcr CR#Dilatrend - Tab 25mg#Dilatrend - Tab 50mg#Dom-carvedilol#Hypertenevide-12.5#Jamp-carvedilol#Mylan-carvedilol#Novo-carvedilol Tablets#Ntp-carvedilol#Nu-carvedilol#PMS-carvedilol#Ran-carvedilol#Ratio-carvedilol#Zym-carvedilol#COREGCR

>  <DrugBank ID>  (1) 
DB01136

>  <ATC Codes>  (1) 
C07AG02

>  <Ligand ID>  (1) 
CVD

>  <Target Name>  (1) 
Beta-1 adrenergic receptor

>  <UniProt ID>  (1) 
P08588

>  <PDB ID.1>  (1) 
4AMJ

>  <Seq. Identity>  (1) 
63%

$$$$
