PDB_DB00159_09
     RDKit          3D

 64 63  0  0  0  0  0  0  0  0999 V2000
   -8.1720   -0.1888    0.0590 C   0  0  0  0  0  0  0  0  0  0  0  0
   -7.5058    1.0006    0.1753 O   0  0  0  0  0  0  0  0  0  0  0  0
   -8.6652   -0.2516   -1.2656 O   0  0  0  0  0  0  0  0  0  0  0  0
   -7.3193   -1.4228    0.2372 C   0  0  0  0  0  0  0  0  0  0  0  0
   -6.2241   -1.5282   -0.7465 C   0  0  0  0  0  0  0  0  0  0  0  0
   -5.2163   -0.4396   -0.7784 C   0  0  0  0  0  0  0  0  0  0  0  0
   -4.4606   -0.2118    0.4715 C   0  0  0  0  0  0  0  0  0  0  0  0
   -3.4646    0.9217    0.3362 C   0  0  0  0  0  0  0  0  0  0  0  0
   -2.4378    0.7086   -0.7145 C   0  0  0  0  0  0  0  0  0  0  0  0
   -1.5052    1.8903   -0.7695 C   0  0  0  0  0  0  0  0  0  0  0  0
   -0.7601    2.1474    0.5127 C   0  0  0  0  0  0  0  0  0  0  0  0
    0.0508    0.9085    0.8448 C   0  0  0  0  0  0  0  0  0  0  0  0
    1.0303    0.5941   -0.2315 C   0  0  0  0  0  0  0  0  0  0  0  0
    1.8096   -0.6458    0.1223 C   0  0  0  0  0  0  0  0  0  0  0  0
    2.5698   -0.4630    1.4015 C   0  0  0  0  0  0  0  0  0  0  0  0
    3.3390   -1.7322    1.6910 C   0  0  0  0  0  0  0  0  0  0  0  0
    4.3173   -2.0737    0.6198 C   0  0  0  0  0  0  0  0  0  0  0  0
    5.3416   -0.9121    0.4671 C   0  0  0  0  0  0  0  0  0  0  0  0
    6.3033   -1.2688   -0.5994 C   0  0  0  0  0  0  0  0  0  0  0  0
    7.3940   -0.3223   -0.8542 C   0  0  0  0  0  0  0  0  0  0  0  0
    7.0141    1.0399   -1.2637 C   0  0  0  0  0  0  0  0  0  0  0  0
    6.2593    1.8423   -0.2478 C   0  0  0  0  0  0  0  0  0  0  0  0
   -9.0372   -0.1979    0.7529 H   0  0  0  0  0  0  0  0  0  0  0  0
   -7.8308    1.7210   -0.3910 H   0  0  0  0  0  0  0  0  0  0  0  0
   -7.9876    0.0397   -1.9179 H   0  0  0  0  0  0  0  0  0  0  0  0
   -7.0112   -1.5704    1.2932 H   0  0  0  0  0  0  0  0  0  0  0  0
   -8.0240   -2.2878    0.0421 H   0  0  0  0  0  0  0  0  0  0  0  0
   -5.6752   -2.4951   -0.6482 H   0  0  0  0  0  0  0  0  0  0  0  0
   -6.7024   -1.5983   -1.7692 H   0  0  0  0  0  0  0  0  0  0  0  0
   -4.4402   -0.6635   -1.5755 H   0  0  0  0  0  0  0  0  0  0  0  0
   -5.6583    0.5159   -1.1215 H   0  0  0  0  0  0  0  0  0  0  0  0
   -3.8369   -1.1336    0.6661 H   0  0  0  0  0  0  0  0  0  0  0  0
   -5.0788    0.0327    1.3546 H   0  0  0  0  0  0  0  0  0  0  0  0
   -4.0714    1.8207    0.0357 H   0  0  0  0  0  0  0  0  0  0  0  0
   -2.9893    1.1271    1.3245 H   0  0  0  0  0  0  0  0  0  0  0  0
   -1.8698   -0.2275   -0.6158 H   0  0  0  0  0  0  0  0  0  0  0  0
   -2.9233    0.6597   -1.7332 H   0  0  0  0  0  0  0  0  0  0  0  0
   -2.0832    2.8454   -0.9617 H   0  0  0  0  0  0  0  0  0  0  0  0
   -0.8205    1.8472   -1.6665 H   0  0  0  0  0  0  0  0  0  0  0  0
   -1.4639    2.4109    1.2965 H   0  0  0  0  0  0  0  0  0  0  0  0
   -0.0689    3.0096    0.2908 H   0  0  0  0  0  0  0  0  0  0  0  0
   -0.6010    0.0315    0.9908 H   0  0  0  0  0  0  0  0  0  0  0  0
    0.5810    1.0871    1.8225 H   0  0  0  0  0  0  0  0  0  0  0  0
    0.4902    0.3947   -1.1916 H   0  0  0  0  0  0  0  0  0  0  0  0
    1.7607    1.4255   -0.4014 H   0  0  0  0  0  0  0  0  0  0  0  0
    2.4615   -0.9346   -0.7351 H   0  0  0  0  0  0  0  0  0  0  0  0
    1.0981   -1.5086    0.2898 H   0  0  0  0  0  0  0  0  0  0  0  0
    1.8088   -0.4016    2.2344 H   0  0  0  0  0  0  0  0  0  0  0  0
    3.2041    0.4354    1.3959 H   0  0  0  0  0  0  0  0  0  0  0  0
    3.8528   -1.6441    2.6538 H   0  0  0  0  0  0  0  0  0  0  0  0
    2.5938   -2.5575    1.7364 H   0  0  0  0  0  0  0  0  0  0  0  0
    4.8957   -2.9822    0.9509 H   0  0  0  0  0  0  0  0  0  0  0  0
    3.9071   -2.2738   -0.3636 H   0  0  0  0  0  0  0  0  0  0  0  0
    4.7266   -0.0338    0.1202 H   0  0  0  0  0  0  0  0  0  0  0  0
    5.7695   -0.7560    1.4540 H   0  0  0  0  0  0  0  0  0  0  0  0
    6.7330   -2.2857   -0.3356 H   0  0  0  0  0  0  0  0  0  0  0  0
    5.7805   -1.4734   -1.5796 H   0  0  0  0  0  0  0  0  0  0  0  0
    8.0998   -0.7687   -1.6294 H   0  0  0  0  0  0  0  0  0  0  0  0
    8.0549   -0.2826    0.0733 H   0  0  0  0  0  0  0  0  0  0  0  0
    7.9398    1.6074   -1.6015 H   0  0  0  0  0  0  0  0  0  0  0  0
    6.3838    1.0351   -2.1983 H   0  0  0  0  0  0  0  0  0  0  0  0
    5.2185    2.1010   -0.5506 H   0  0  0  0  0  0  0  0  0  0  0  0
    6.3484    1.4581    0.7848 H   0  0  0  0  0  0  0  0  0  0  0  0
    6.7671    2.8782   -0.1630 H   0  0  0  0  0  0  0  0  0  0  0  0
  1  2  1  0
  1  3  1  0
  1  4  1  0
  4  5  1  0
  5  6  1  0
  6  7  1  0
  7  8  1  0
  8  9  1  0
  9 10  1  0
 10 11  1  0
 11 12  1  0
 12 13  1  0
 13 14  1  0
 14 15  1  0
 15 16  1  0
 16 17  1  0
 17 18  1  0
 18 19  1  0
 19 20  1  0
 20 21  1  0
 21 22  1  0
  1 23  1  0
  2 24  1  0
  3 25  1  0
  4 26  1  0
  4 27  1  0
  5 28  1  0
  5 29  1  0
  6 30  1  0
  6 31  1  0
  7 32  1  0
  7 33  1  0
  8 34  1  0
  8 35  1  0
  9 36  1  0
  9 37  1  0
 10 38  1  0
 10 39  1  0
 11 40  1  0
 11 41  1  0
 12 42  1  0
 12 43  1  0
 13 44  1  0
 13 45  1  0
 14 46  1  0
 14 47  1  0
 15 48  1  0
 15 49  1  0
 16 50  1  0
 16 51  1  0
 17 52  1  0
 17 53  1  0
 18 54  1  0
 18 55  1  0
 19 56  1  0
 19 57  1  0
 20 58  1  0
 20 59  1  0
 21 60  1  0
 21 61  1  0
 22 62  1  0
 22 63  1  0
 22 64  1  0
M  END
>  <PDBID>  (1) 
1IGX

>  <PDB ID>  (1) 
1IGX

>  <Generic Name>  (1) 
Icosapent

>  <Brand Name>  (1) 
Animi-3#Animi-3 With Vitamin D#Citranatal Assure#Folcaps Care One#Folcaps Omega-3#Gesticare DHA#Herbalifeline#Natelle One#Prenate Essential#Se-tan DHA#Ultimatecare One Nf#Virt-PN Plus#Virt-bal DHA Plus#Vp-CH-pnv

>  <DrugBank ID>  (1) 
DB00159

>  <ATC Codes>  (1) 
nan

>  <Ligand ID>  (1) 
EPA

>  <Target Name>  (1) 
Prostaglandin G/H synthase 1

>  <UniProt ID>  (1) 
P23219

>  <PDB ID.1>  (1) 
1IGX

>  <Seq. Identity>  (1) 
89%

$$$$
