PDB_DB01015_07
     RDKit          3D

 40 41  0  0  0  0  0  0  0  0999 V2000
   -0.1098    0.8966   -1.4143 O   0  0  0  0  0  0  0  0  0  0  0  0
   -0.2940   -0.2327   -0.4618 S   0  0  0  0  0  0  0  0  0  0  0  0
   -0.6480   -1.6682   -1.4213 O   0  0  0  0  0  0  0  0  0  0  0  0
    1.4093   -0.7062    0.1341 C   0  0  0  0  0  0  0  0  0  0  0  0
    2.1580   -1.2218   -1.0181 C   0  0  0  0  0  0  0  0  0  0  0  0
    3.6010   -0.9180   -1.0932 C   0  0  0  0  0  0  0  0  0  0  0  0
    1.9581    0.4317    0.8793 C   0  0  0  0  0  0  0  0  0  0  0  0
    3.2643    0.9759    0.3670 C   0  0  0  0  0  0  0  0  0  0  0  0
    4.1677   -0.2373    0.1161 C   0  0  0  0  0  0  0  0  0  0  0  0
    5.4672    0.3151   -0.2664 N   0  0  0  0  0  0  0  0  0  0  0  0
   -1.2050   -0.2718    0.7457 N   0  0  0  0  0  0  0  0  0  0  0  0
   -2.2406    0.7318    0.8538 C   0  0  0  0  0  0  0  0  0  0  0  0
   -2.9758    0.5202    2.0456 N   0  0  0  0  0  0  0  0  0  0  0  0
   -4.2692    0.5398    1.8191 O   0  0  0  0  0  0  0  0  0  0  0  0
   -4.5394    0.9088    0.5373 C   0  0  0  0  0  0  0  0  0  0  0  0
   -3.2693    0.5954   -0.2452 C   0  0  0  0  0  0  0  0  0  0  0  0
   -5.7326    0.1776   -0.0444 C   0  0  0  0  0  0  0  0  0  0  0  0
   -0.3383    1.8363   -1.3387 H   0  0  0  0  0  0  0  0  0  0  0  0
   -0.4235   -2.3852   -0.7749 H   0  0  0  0  0  0  0  0  0  0  0  0
    1.2143   -1.5573    0.8457 H   0  0  0  0  0  0  0  0  0  0  0  0
    1.6718   -0.8364   -1.9625 H   0  0  0  0  0  0  0  0  0  0  0  0
    2.0370   -2.3419   -1.1021 H   0  0  0  0  0  0  0  0  0  0  0  0
    3.8536   -0.2638   -1.9791 H   0  0  0  0  0  0  0  0  0  0  0  0
    4.2312   -1.8400   -1.2629 H   0  0  0  0  0  0  0  0  0  0  0  0
    2.1322    0.1816    1.9678 H   0  0  0  0  0  0  0  0  0  0  0  0
    1.2430    1.2957    0.9098 H   0  0  0  0  0  0  0  0  0  0  0  0
    3.1629    1.5384   -0.5713 H   0  0  0  0  0  0  0  0  0  0  0  0
    3.7207    1.6041    1.1521 H   0  0  0  0  0  0  0  0  0  0  0  0
    4.2396   -0.8735    1.0032 H   0  0  0  0  0  0  0  0  0  0  0  0
    6.2240   -0.3764   -0.0973 H   0  0  0  0  0  0  0  0  0  0  0  0
    5.4347    0.6556   -1.2352 H   0  0  0  0  0  0  0  0  0  0  0  0
   -1.5090   -1.1840    1.1530 H   0  0  0  0  0  0  0  0  0  0  0  0
   -1.8015    1.7607    0.8905 H   0  0  0  0  0  0  0  0  0  0  0  0
   -2.7087   -0.3344    2.5774 H   0  0  0  0  0  0  0  0  0  0  0  0
   -4.7108    2.0085    0.4912 H   0  0  0  0  0  0  0  0  0  0  0  0
   -3.1256    1.3331   -1.0580 H   0  0  0  0  0  0  0  0  0  0  0  0
   -3.2423   -0.4555   -0.5916 H   0  0  0  0  0  0  0  0  0  0  0  0
   -6.3330   -0.2291    0.7922 H   0  0  0  0  0  0  0  0  0  0  0  0
   -6.3701    0.8689   -0.6108 H   0  0  0  0  0  0  0  0  0  0  0  0
   -5.3446   -0.5875   -0.7318 H   0  0  0  0  0  0  0  0  0  0  0  0
  2  1  1  0
  2  3  1  0
  2  4  1  0
  4  5  1  0
  5  6  1  0
  4  7  1  0
  7  8  1  0
  6  9  1  0
  8  9  1  0
  9 10  1  0
  2 11  1  0
 11 12  1  0
 12 13  1  0
 13 14  1  0
 14 15  1  0
 12 16  1  0
 15 16  1  0
 15 17  1  0
  1 18  1  0
  3 19  1  0
  4 20  1  0
  5 21  1  0
  5 22  1  0
  6 23  1  0
  6 24  1  0
  7 25  1  0
  7 26  1  0
  8 27  1  0
  8 28  1  0
  9 29  1  0
 10 30  1  0
 10 31  1  0
 11 32  1  0
 12 33  1  0
 13 34  1  0
 15 35  1  0
 16 36  1  0
 16 37  1  0
 17 38  1  0
 17 39  1  0
 17 40  1  0
M  END
>  <PDBID>  (1) 
3TZF

>  <PDB ID>  (1) 
3TZF

>  <Generic Name>  (1) 
Sulfamethoxazole

>  <Brand Name>  (1) 
Apo Sulfamethoxazole Tab 500mg#Apo Sulfatrim DS Tab#Apo Sulfatrim Pediatric#Apo Sulfatrim Tab#Apo-sulfatrim Oral Suspension#Bactrim#Bactrim DS#Bactrim DS Roche Tab#Bactrim Roche Inj#Bactrim Roche Suspension Paediatric#Bactrim Roche Tab#Nu-cotrimox Sus 40/8mg/ml#Nu-cotrimox Tab 400/80mg#Nu-cotrimox-DS Tab 800/160mg#Protrin Df Tab#Protrin Tab#Riva-sep DS#Roubac Tab 160/800#Roubac Tab 80/400#Septra#Septra DS Tablets#Septra Injection#Septra Pediatric Suspension#Sulfamethoxazole Tab 500mg#Sulfamethoxazole and Trimethoprim#Sulfamethoxazole and Trimethoprim (double Strength)#Sulfamethoxazole and Trimethoprim DS#Sulfamethoxazole and Trimethoprim Double Strength#Sulfamethoxazole and Trimethoprim Tablets#Sulfatrim#Teva-trimel#Teva-trimel DS#Trisulfa DS Tab#Trisulfa S Suspension#Trisulfa Tab#Gantanol#Sinomin#Urobak

>  <DrugBank ID>  (1) 
DB01015

>  <ATC Codes>  (1) 
J01EE01#J01EC01

>  <Ligand ID>  (1) 
08D

>  <Target Name>  (1) 
Dihydropteroate synthase

>  <UniProt ID>  (1) 
P0AC13

>  <PDB ID.1>  (1) 
3TZF

>  <Seq. Identity>  (1) 
75%

$$$$
