PDB_DB00814_06
     RDKit          3D

104109  0  0  0  0  0  0  0  0999 V2000
    6.7316    0.1236   -0.7267 C   0  0  0  0  0  0  0  0  0  0  0  0
    5.7525   -0.6286    0.1216 C   0  0  0  0  0  0  0  0  0  0  0  0
    4.6195   -1.5870   -0.9674 S   0  0  0  0  0  0  0  0  0  0  0  0
    4.7062    0.3371    0.6991 C   0  0  0  0  0  0  0  0  0  0  0  0
    3.8919    0.7733   -0.3838 N   0  0  0  0  0  0  0  0  0  0  0  0
    3.2731   -0.3394   -1.0145 C   0  0  0  0  0  0  0  0  0  0  0  0
    2.0933   -0.8338   -0.3387 N   0  0  0  0  0  0  0  0  0  0  0  0
    1.0985    0.2193   -0.4322 C   0  0  1  0  0  0  0  0  0  0  0  0
    0.9314    0.6561   -1.7440 O   0  0  0  0  0  0  0  0  0  0  0  0
   -0.2134   -0.1646    0.2206 C   0  0  1  0  0  0  0  0  0  0  0  0
   -1.0251    1.0301    0.4191 C   0  0  2  0  0  0  0  0  0  0  0  0
   -0.5658    1.6832    1.5920 O   0  0  0  0  0  0  0  0  0  0  0  0
   -2.4847    0.9180    0.5285 C   0  0  1  0  0  0  0  0  0  0  0  0
   -3.0964    2.3036    0.3064 C   0  0  0  0  0  0  0  0  0  0  0  0
   -4.4271    2.1519   -0.4138 C   0  0  0  0  0  0  0  0  0  0  0  0
   -5.1979    1.0766    0.3408 C   0  0  0  0  0  0  0  0  0  0  0  0
   -4.5811   -0.2538   -0.0893 C   0  0  0  0  0  0  0  0  0  0  0  0
   -3.1499   -0.0284   -0.4050 C   0  0  2  0  0  0  0  0  0  0  0  0
   -2.3538   -1.6442    0.0198 S   0  0  0  0  0  0  0  0  0  0  0  0
   -3.0986   -2.9582   -0.7537 O   0  0  0  0  0  0  0  0  0  0  0  0
   -2.3950   -1.9038    1.8050 O   0  0  0  0  0  0  0  0  0  0  0  0
   -0.7884   -1.2231   -0.5566 N   0  0  0  0  0  0  0  0  0  0  0  0
   -0.0153   -2.4170   -0.5448 C   0  0  0  0  0  0  0  0  0  0  0  0
    5.8267    1.6346   -0.9455 C   0  0  0  0  0  0  0  0  0  0  0  0
    5.2756    0.4417   -1.6469 C   0  0  0  0  0  0  0  0  0  0  0  0
    3.6096    0.7730   -2.3515 S   0  0  0  0  0  0  0  0  0  0  0  0
    4.9278   -0.6928   -0.7094 C   0  0  0  0  0  0  0  0  0  0  0  0
    3.6520   -0.4400   -0.1460 N   0  0  0  0  0  0  0  0  0  0  0  0
    2.6815   -0.3098   -1.1945 C   0  0  1  0  0  0  0  0  0  0  0  0
    1.4630    0.3327   -0.7609 N   0  0  0  0  0  0  0  0  0  0  0  0
    0.7953   -0.5422    0.1318 C   0  0  1  0  0  0  0  0  0  0  0  0
    1.6203   -0.8288    1.1995 O   0  0  0  0  0  0  0  0  0  0  0  0
   -0.5181   -0.0218    0.6815 C   0  0  2  0  0  0  0  0  0  0  0  0
   -1.3207   -1.1086    1.2616 C   0  0  2  0  0  0  0  0  0  0  0  0
   -0.6799   -2.3127    1.3934 O   0  0  0  0  0  0  0  0  0  0  0  0
   -2.3952   -1.2423    0.2431 C   0  0  1  0  0  0  0  0  0  0  0  0
   -3.4929   -2.0883    0.7797 C   0  0  0  0  0  0  0  0  0  0  0  0
   -4.7438   -1.9483   -0.0269 C   0  0  0  0  0  0  0  0  0  0  0  0
   -4.6797   -0.7993   -1.0087 C   0  0  0  0  0  0  0  0  0  0  0  0
   -4.1656    0.4706   -0.3169 C   0  0  0  0  0  0  0  0  0  0  0  0
   -2.8605    0.1993    0.2658 C   0  0  2  0  0  0  0  0  0  0  0  0
   -1.4402    1.2820    0.1402 S   0  0  0  0  0  0  0  0  0  0  0  0
   -2.2231    2.9237    0.4898 O   0  0  0  0  0  0  0  0  0  0  0  0
   -0.6312    2.4755   -1.1376 O   0  0  0  0  0  0  0  0  0  0  0  0
   -0.2607    1.0393    1.3706 N   0  0  0  0  0  0  0  0  0  0  0  0
    0.7613    1.8056    1.7869 C   0  0  0  0  0  0  0  0  0  0  0  0
    7.0638    1.0796   -0.2993 H   0  0  0  0  0  0  0  0  0  0  0  0
    6.2126    0.3598   -1.6952 H   0  0  0  0  0  0  0  0  0  0  0  0
    7.5702   -0.5435   -0.9869 H   0  0  0  0  0  0  0  0  0  0  0  0
    6.1870   -1.2472    0.9002 H   0  0  0  0  0  0  0  0  0  0  0  0
    5.2308    1.1942    1.1225 H   0  0  0  0  0  0  0  0  0  0  0  0
    4.1293   -0.2476    1.4397 H   0  0  0  0  0  0  0  0  0  0  0  0
    4.4319    1.3599   -1.0266 H   0  0  0  0  0  0  0  0  0  0  0  0
    3.0961   -0.0999   -2.0828 H   0  0  0  0  0  0  0  0  0  0  0  0
    2.3458   -1.0727    0.6215 H   0  0  0  0  0  0  0  0  0  0  0  0
    1.5681    1.0970    0.1073 H   0  0  0  0  0  0  0  0  0  0  0  0
   -0.0141    0.4951   -1.9864 H   0  0  0  0  0  0  0  0  0  0  0  0
    0.0694   -0.6134    1.2139 H   0  0  0  0  0  0  0  0  0  0  0  0
   -0.7935    1.7760   -0.4001 H   0  0  0  0  0  0  0  0  0  0  0  0
   -0.4928    0.9461    2.2770 H   0  0  0  0  0  0  0  0  0  0  0  0
   -2.7664    0.6349    1.5681 H   0  0  0  0  0  0  0  0  0  0  0  0
   -2.4196    2.8159   -0.4298 H   0  0  0  0  0  0  0  0  0  0  0  0
   -3.1858    2.8601    1.2461 H   0  0  0  0  0  0  0  0  0  0  0  0
   -4.9691    3.0960   -0.4248 H   0  0  0  0  0  0  0  0  0  0  0  0
   -4.1799    1.7800   -1.4408 H   0  0  0  0  0  0  0  0  0  0  0  0
   -5.0182    1.1943    1.4299 H   0  0  0  0  0  0  0  0  0  0  0  0
   -6.2744    1.1072    0.0750 H   0  0  0  0  0  0  0  0  0  0  0  0
   -4.7604   -1.0490    0.6555 H   0  0  0  0  0  0  0  0  0  0  0  0
   -5.1409   -0.5483   -1.0231 H   0  0  0  0  0  0  0  0  0  0  0  0
   -2.9023    0.0967   -1.4556 H   0  0  0  0  0  0  0  0  0  0  0  0
   -3.3525   -2.7195   -1.6780 H   0  0  0  0  0  0  0  0  0  0  0  0
   -1.8367   -2.6908    1.9290 H   0  0  0  0  0  0  0  0  0  0  0  0
    0.4618   -2.5834    0.4559 H   0  0  0  0  0  0  0  0  0  0  0  0
    0.7286   -2.4856   -1.3634 H   0  0  0  0  0  0  0  0  0  0  0  0
   -0.6939   -3.2829   -0.6925 H   0  0  0  0  0  0  0  0  0  0  0  0
    5.2252    2.5613   -1.1351 H   0  0  0  0  0  0  0  0  0  0  0  0
    5.9069    1.4867    0.1644 H   0  0  0  0  0  0  0  0  0  0  0  0
    6.8571    1.8629   -1.2894 H   0  0  0  0  0  0  0  0  0  0  0  0
    5.9422    0.0342   -2.4364 H   0  0  0  0  0  0  0  0  0  0  0  0
    5.6775   -0.6802    0.0996 H   0  0  0  0  0  0  0  0  0  0  0  0
    4.9580   -1.6753   -1.1995 H   0  0  0  0  0  0  0  0  0  0  0  0
    3.6246    0.3006    0.5575 H   0  0  0  0  0  0  0  0  0  0  0  0
    2.4961   -1.2657   -1.6934 H   0  0  0  0  0  0  0  0  0  0  0  0
    0.8657    0.3900   -1.6433 H   0  0  0  0  0  0  0  0  0  0  0  0
    0.6050   -1.5284   -0.3854 H   0  0  0  0  0  0  0  0  0  0  0  0
    1.1662   -0.8030    2.0770 H   0  0  0  0  0  0  0  0  0  0  0  0
   -1.8192   -0.8082    2.2326 H   0  0  0  0  0  0  0  0  0  0  0  0
   -0.9841   -3.0169    0.7535 H   0  0  0  0  0  0  0  0  0  0  0  0
   -2.0164   -1.5481   -0.7412 H   0  0  0  0  0  0  0  0  0  0  0  0
   -3.6517   -1.7839    1.8531 H   0  0  0  0  0  0  0  0  0  0  0  0
   -3.1231   -3.1525    0.7565 H   0  0  0  0  0  0  0  0  0  0  0  0
   -5.5806   -1.7554    0.6898 H   0  0  0  0  0  0  0  0  0  0  0  0
   -4.8951   -2.8767   -0.6133 H   0  0  0  0  0  0  0  0  0  0  0  0
   -5.7151   -0.6052   -1.3545 H   0  0  0  0  0  0  0  0  0  0  0  0
   -3.9887   -1.1061   -1.8191 H   0  0  0  0  0  0  0  0  0  0  0  0
   -4.9668    0.8894    0.2822 H   0  0  0  0  0  0  0  0  0  0  0  0
   -4.0283    1.1971   -1.1757 H   0  0  0  0  0  0  0  0  0  0  0  0
   -3.1514    0.2091    1.3789 H   0  0  0  0  0  0  0  0  0  0  0  0
   -1.5303    0.7479   -1.6707 H   0  0  0  0  0  0  0  0  0  0  0  0
   -2.5796    2.9673    1.3170 H   0  0  0  0  0  0  0  0  0  0  0  0
    0.2789    2.5931   -0.9230 H   0  0  0  0  0  0  0  0  0  0  0  0
    1.8033    1.5610    1.4726 H   0  0  0  0  0  0  0  0  0  0  0  0
    0.6279    2.8795    1.4462 H   0  0  0  0  0  0  0  0  0  0  0  0
    0.7945    1.8823    2.8918 H   0  0  0  0  0  0  0  0  0  0  0  0
  1  2  1  0
  2  3  1  0
  2  4  1  0
  4  5  1  0
  3  6  1  0
  5  6  1  0
  6  7  1  0
  7  8  1  0
  8  9  1  0
  8 10  1  0
 10 11  1  0
 11 12  1  0
 11 13  1  0
 13 14  1  0
 14 15  1  0
 15 16  1  0
 16 17  1  0
 13 18  1  0
 17 18  1  0
 18 19  1  0
 19 20  1  0
 19 21  1  0
 10 22  1  0
 19 22  1  0
 22 23  1  0
 24 25  1  0
 25 26  1  0
 25 27  1  0
 27 28  1  0
 26 29  1  0
 28 29  1  0
 29 30  1  0
 30 31  1  0
 31 32  1  0
 31 33  1  0
 33 34  1  0
 34 35  1  0
 34 36  1  0
 36 37  1  0
 37 38  1  0
 38 39  1  0
 39 40  1  0
 36 41  1  0
 40 41  1  0
 41 42  1  0
 42 33  1  0
 42 43  1  0
 42 44  1  0
 33 45  1  1
 42 45  1  0
 45 46  1  0
  1 47  1  0
  1 48  1  0
  1 49  1  0
  2 50  1  0
  4 51  1  0
  4 52  1  0
  5 53  1  0
  6 54  1  0
  7 55  1  0
  8 56  1  1
  9 57  1  0
 10 58  1  1
 11 59  1  6
 12 60  1  0
 13 61  1  1
 14 62  1  0
 14 63  1  0
 15 64  1  0
 15 65  1  0
 16 66  1  0
 16 67  1  0
 17 68  1  0
 17 69  1  0
 18 70  1  6
 20 71  1  0
 21 72  1  0
 23 73  1  0
 23 74  1  0
 23 75  1  0
 24 76  1  0
 24 77  1  0
 24 78  1  0
 25 79  1  0
 27 80  1  0
 27 81  1  0
 28 82  1  0
 29 83  1  6
 30 84  1  0
 31 85  1  6
 32 86  1  0
 34 87  1  1
 35 88  1  0
 36 89  1  6
 37 90  1  0
 37 91  1  0
 38 92  1  0
 38 93  1  0
 39 94  1  0
 39 95  1  0
 40 96  1  0
 40 97  1  0
 41 98  1  1
 42 99  1  0
 43100  1  0
 44101  1  0
 46102  1  0
 46103  1  0
 46104  1  0
M  END
>  <PDBID>  (1) 
4O1Z

>  <PDB ID>  (1) 
4O1Z

>  <Generic Name>  (1) 
Meloxicam

>  <Brand Name>  (1) 
Act Meloxicam#Apo-meloxicam#Auro-meloxicam#Ava-meloxicam#Comfort Pac With Meloxicam#Dom-meloxicam#Meloxicam#Mobic#Mobicox#Mylan-meloxicam#Nu-meloxicam#PHL-meloxicam#PMS-meloxicam#Ratio-meloxicam#Teva-meloxicam#Trepoxicam-7.5#Vivlodex#Achefree#Acticam#Aflamid#Afloxx#Aglan#Ainecox#Aldoron#Alentum#Algiflex#Aliviodol#Anaxicam#Anposel#Antrend#Aponip#Areloger#Aremil#Armex#Arrox#Arsitec#Artex#Arthrobic#Arthrox#Articam#Artipro#Artriclox#Artrifilm#Artriflam#Artrilom#Artrilox#Artrox#Aspicam#Atiflam#Atrozan#Auroxicam#Axius

>  <DrugBank ID>  (1) 
DB00814

>  <ATC Codes>  (1) 
M01AC56#M01AC06

>  <Ligand ID>  (1) 
MXM

>  <Target Name>  (1) 
Prostaglandin G/H synthase 2

>  <UniProt ID>  (1) 
P35354

>  <PDB ID.1>  (1) 
4O1Z

>  <Seq. Identity>  (1) 
61%

$$$$
