PDB_DB01011_05
     RDKit          3D

 45 46  0  0  0  0  0  0  0  0999 V2000
   -3.7573    0.6360   -0.6828 N   0  0  0  0  0  0  0  0  0  0  0  0
   -2.4953   -0.0596   -0.8208 C   0  0  0  0  0  0  0  0  0  0  0  0
   -1.5884    0.0182    0.3540 C   0  0  0  0  0  0  0  0  0  0  0  0
   -2.3952   -0.1693    1.6235 C   0  0  0  0  0  0  0  0  0  0  0  0
   -3.5382    0.8173    1.6721 C   0  0  0  0  0  0  0  0  0  0  0  0
   -4.4633    0.3931    0.5252 C   0  0  0  0  0  0  0  0  0  0  0  0
   -0.5161   -1.0070    0.2970 C   0  0  0  0  0  0  0  0  0  0  0  0
   -1.0330   -2.3140    0.2518 O   0  0  0  0  0  0  0  0  0  0  0  0
    1.5392   -2.0151   -0.4617 C   0  0  0  0  0  0  0  0  0  0  0  0
    0.5970   -0.8022   -0.6822 C   0  0  0  0  0  0  0  0  0  0  0  0
    0.2156   -0.8806   -2.1272 C   0  0  0  0  0  0  0  0  0  0  0  0
    1.4065    0.4232   -0.3629 C   0  0  0  0  0  0  0  0  0  0  0  0
    2.5286    0.6562   -1.3202 C   0  0  0  0  0  0  0  0  0  0  0  0
    3.8137    0.4455   -0.7414 N   0  0  0  0  0  0  0  0  0  0  0  0
    4.0971    1.3268    0.3733 C   0  0  0  0  0  0  0  0  0  0  0  0
    2.8328    1.7180    1.1103 C   0  0  0  0  0  0  0  0  0  0  0  0
    1.9284    0.4722    1.0500 C   0  0  0  0  0  0  0  0  0  0  0  0
   -3.6983    1.6375   -0.9120 H   0  0  0  0  0  0  0  0  0  0  0  0
   -2.7618   -1.1198   -1.0516 H   0  0  0  0  0  0  0  0  0  0  0  0
   -2.0091    0.4503   -1.7088 H   0  0  0  0  0  0  0  0  0  0  0  0
   -1.1345    1.0458    0.3468 H   0  0  0  0  0  0  0  0  0  0  0  0
   -2.8465   -1.1837    1.5813 H   0  0  0  0  0  0  0  0  0  0  0  0
   -1.7737   -0.1254    2.5327 H   0  0  0  0  0  0  0  0  0  0  0  0
   -3.2051    1.8584    1.4213 H   0  0  0  0  0  0  0  0  0  0  0  0
   -4.0450    0.7737    2.6466 H   0  0  0  0  0  0  0  0  0  0  0  0
   -4.6582   -0.6848    0.6747 H   0  0  0  0  0  0  0  0  0  0  0  0
   -5.4036    0.9353    0.5210 H   0  0  0  0  0  0  0  0  0  0  0  0
    0.0070   -0.9923    1.3191 H   0  0  0  0  0  0  0  0  0  0  0  0
   -1.3225   -2.5775   -0.6366 H   0  0  0  0  0  0  0  0  0  0  0  0
    0.9114   -2.9228   -0.6702 H   0  0  0  0  0  0  0  0  0  0  0  0
    2.3523   -2.0338   -1.1856 H   0  0  0  0  0  0  0  0  0  0  0  0
    1.8276   -2.1004    0.6013 H   0  0  0  0  0  0  0  0  0  0  0  0
    0.9748   -1.5067   -2.6864 H   0  0  0  0  0  0  0  0  0  0  0  0
   -0.7218   -1.4535   -2.2318 H   0  0  0  0  0  0  0  0  0  0  0  0
    0.1014    0.1047   -2.6235 H   0  0  0  0  0  0  0  0  0  0  0  0
    0.7104    1.2956   -0.4508 H   0  0  0  0  0  0  0  0  0  0  0  0
    2.5045    1.7085   -1.7134 H   0  0  0  0  0  0  0  0  0  0  0  0
    2.4654    0.0196   -2.2313 H   0  0  0  0  0  0  0  0  0  0  0  0
    4.1120   -0.5218   -0.6083 H   0  0  0  0  0  0  0  0  0  0  0  0
    4.7242    0.7573    1.0902 H   0  0  0  0  0  0  0  0  0  0  0  0
    4.6406    2.2200    0.0042 H   0  0  0  0  0  0  0  0  0  0  0  0
    2.3427    2.5855    0.6288 H   0  0  0  0  0  0  0  0  0  0  0  0
    2.9904    1.9428    2.1649 H   0  0  0  0  0  0  0  0  0  0  0  0
    2.6098   -0.3649    1.3035 H   0  0  0  0  0  0  0  0  0  0  0  0
    1.1336    0.5937    1.8159 H   0  0  0  0  0  0  0  0  0  0  0  0
  1  2  1  0
  2  3  1  0
  3  4  1  0
  4  5  1  0
  1  6  1  0
  5  6  1  0
  3  7  1  0
  7  8  1  0
 10  7  1  0
  9 10  1  0
 10 11  1  0
 10 12  1  0
 12 13  1  0
 13 14  1  0
 14 15  1  0
 15 16  1  0
 12 17  1  0
 16 17  1  0
  1 18  1  0
  2 19  1  0
  2 20  1  0
  3 21  1  0
  4 22  1  0
  4 23  1  0
  5 24  1  0
  5 25  1  0
  6 26  1  0
  6 27  1  0
  7 28  1  0
  8 29  1  0
  9 30  1  0
  9 31  1  0
  9 32  1  0
 11 33  1  0
 11 34  1  0
 11 35  1  0
 12 36  1  0
 13 37  1  0
 13 38  1  0
 14 39  1  0
 15 40  1  0
 15 41  1  0
 16 42  1  0
 16 43  1  0
 17 44  1  0
 17 45  1  0
M  END
>  <PDBID>  (1) 
1W0G

>  <PDB ID>  (1) 
1W0G

>  <Generic Name>  (1) 
Metyrapone

>  <Brand Name>  (1) 
Metopirone#Metopiron

>  <DrugBank ID>  (1) 
DB01011

>  <ATC Codes>  (1) 
V04CD01

>  <Ligand ID>  (1) 
MYT

>  <Target Name>  (1) 
Cytochrome P450 11B1, mitochondrial

>  <UniProt ID>  (1) 
P15538

>  <PDB ID.1>  (1) 
1W0G

>  <Seq. Identity>  (1) 
32%

$$$$
