PDB_DB00843_04
     RDKit          3D

142148  0  0  0  0  0  0  0  0999 V2000
   -4.8768    0.8908   -1.4520 C   0  0  0  0  0  0  0  0  0  0  0  0
   -5.8370    0.4204   -0.3883 C   0  0  0  0  0  0  0  0  0  0  0  0
   -5.0645    0.3529    0.9190 C   0  0  0  0  0  0  0  0  0  0  0  0
   -3.9143   -0.6204    0.8147 C   0  0  0  0  0  0  0  0  0  0  0  0
   -3.7042   -1.1486   -0.5652 C   0  0  0  0  0  0  0  0  0  0  0  0
   -3.7979   -0.1228   -1.6448 C   0  0  0  0  0  0  0  0  0  0  0  0
   -2.2505   -1.6264   -0.5119 C   0  0  0  0  0  0  0  0  0  0  0  0
   -1.5869   -0.5135    0.2750 C   0  0  1  0  0  0  0  0  0  0  0  0
   -2.6100   -0.0188    1.2438 C   0  0  0  0  0  0  0  0  0  0  0  0
   -0.3333   -1.0346    0.9373 C   0  0  0  0  0  0  0  0  0  0  0  0
    0.3009    0.0803    1.7074 C   0  0  0  0  0  0  0  0  0  0  0  0
    0.6939    1.2629    0.8768 C   0  0  0  0  0  0  0  0  0  0  0  0
    1.7525    0.8003   -0.0810 C   0  0  0  0  0  0  0  0  0  0  0  0
    2.8658    0.1544    0.4896 N   0  0  0  0  0  0  0  0  0  0  0  0
    2.7548   -0.5189    1.7031 C   0  0  0  0  0  0  0  0  0  0  0  0
    1.5010   -0.3545    2.4996 C   0  0  0  0  0  0  0  0  0  0  0  0
    4.0934    0.7508    0.1210 C   0  0  0  0  0  0  0  0  0  0  0  0
    5.3382    0.1445    0.6581 C   0  0  0  0  0  0  0  0  0  0  0  0
    6.4990    0.9850    0.0977 C   0  0  0  0  0  0  0  0  0  0  0  0
    6.8955    0.4498   -1.2771 C   0  0  0  0  0  0  0  0  0  0  0  0
    7.7303   -0.7941   -1.0109 C   0  0  0  0  0  0  0  0  0  0  0  0
    7.1087   -1.5133    0.1419 C   0  0  0  0  0  0  0  0  0  0  0  0
    5.5963   -1.2665    0.2332 C   0  0  0  0  0  0  0  0  0  0  0  0
   -2.1791   -2.8386    0.1564 O   0  0  0  0  0  0  0  0  0  0  0  0
   -5.5347    1.1540   -2.6599 O   0  0  0  0  0  0  0  0  0  0  0  0
   -5.4185    2.4855   -3.0000 C   0  0  0  0  0  0  0  0  0  0  0  0
   -6.3315   -0.8469   -0.6310 O   0  0  0  0  0  0  0  0  0  0  0  0
   -7.7101   -0.9069   -0.6167 C   0  0  0  0  0  0  0  0  0  0  0  0
   -4.8768    0.8908   -1.4520 C   0  0  0  0  0  0  0  0  0  0  0  0
   -5.8370    0.4204   -0.3883 C   0  0  0  0  0  0  0  0  0  0  0  0
   -5.0645    0.3529    0.9190 C   0  0  0  0  0  0  0  0  0  0  0  0
   -3.9143   -0.6204    0.8147 C   0  0  0  0  0  0  0  0  0  0  0  0
   -3.7042   -1.1486   -0.5652 C   0  0  0  0  0  0  0  0  0  0  0  0
   -3.7979   -0.1228   -1.6448 C   0  0  0  0  0  0  0  0  0  0  0  0
   -2.2505   -1.6264   -0.5119 C   0  0  0  0  0  0  0  0  0  0  0  0
   -1.5869   -0.5135    0.2750 C   0  0  1  0  0  0  0  0  0  0  0  0
   -2.6100   -0.0188    1.2438 C   0  0  0  0  0  0  0  0  0  0  0  0
   -0.3333   -1.0346    0.9373 C   0  0  0  0  0  0  0  0  0  0  0  0
    0.3009    0.0803    1.7074 C   0  0  0  0  0  0  0  0  0  0  0  0
    0.6939    1.2629    0.8768 C   0  0  0  0  0  0  0  0  0  0  0  0
    1.7525    0.8003   -0.0810 C   0  0  0  0  0  0  0  0  0  0  0  0
    2.8658    0.1544    0.4896 N   0  0  0  0  0  0  0  0  0  0  0  0
    2.7548   -0.5189    1.7031 C   0  0  0  0  0  0  0  0  0  0  0  0
    1.5010   -0.3545    2.4996 C   0  0  0  0  0  0  0  0  0  0  0  0
    4.0934    0.7508    0.1210 C   0  0  0  0  0  0  0  0  0  0  0  0
    5.3382    0.1445    0.6581 C   0  0  0  0  0  0  0  0  0  0  0  0
    6.4990    0.9850    0.0977 C   0  0  0  0  0  0  0  0  0  0  0  0
    6.8955    0.4498   -1.2771 C   0  0  0  0  0  0  0  0  0  0  0  0
    7.7303   -0.7941   -1.0109 C   0  0  0  0  0  0  0  0  0  0  0  0
    7.1087   -1.5133    0.1419 C   0  0  0  0  0  0  0  0  0  0  0  0
    5.5963   -1.2665    0.2332 C   0  0  0  0  0  0  0  0  0  0  0  0
   -2.1791   -2.8386    0.1564 O   0  0  0  0  0  0  0  0  0  0  0  0
   -5.5347    1.1540   -2.6599 O   0  0  0  0  0  0  0  0  0  0  0  0
   -5.4185    2.4855   -3.0000 C   0  0  0  0  0  0  0  0  0  0  0  0
   -6.3315   -0.8469   -0.6310 O   0  0  0  0  0  0  0  0  0  0  0  0
   -7.7101   -0.9069   -0.6167 C   0  0  0  0  0  0  0  0  0  0  0  0
   -4.4269    1.8461   -1.0813 H   0  0  0  0  0  0  0  0  0  0  0  0
   -6.6760    1.1161   -0.2338 H   0  0  0  0  0  0  0  0  0  0  0  0
   -4.6185    1.3697    1.0556 H   0  0  0  0  0  0  0  0  0  0  0  0
   -5.7252    0.1638    1.7708 H   0  0  0  0  0  0  0  0  0  0  0  0
   -4.1677   -1.4903    1.4787 H   0  0  0  0  0  0  0  0  0  0  0  0
   -4.3062   -2.0616   -0.7743 H   0  0  0  0  0  0  0  0  0  0  0  0
   -3.9261   -0.6828   -2.6172 H   0  0  0  0  0  0  0  0  0  0  0  0
   -2.8251    0.4206   -1.7762 H   0  0  0  0  0  0  0  0  0  0  0  0
   -1.8351   -1.7540   -1.5150 H   0  0  0  0  0  0  0  0  0  0  0  0
   -1.2585    0.2712   -0.4621 H   0  0  0  0  0  0  0  0  0  0  0  0
   -2.6302    1.0886    1.1851 H   0  0  0  0  0  0  0  0  0  0  0  0
   -2.3594   -0.2996    2.3011 H   0  0  0  0  0  0  0  0  0  0  0  0
   -0.5714   -1.8643    1.6124 H   0  0  0  0  0  0  0  0  0  0  0  0
    0.3173   -1.4311    0.1306 H   0  0  0  0  0  0  0  0  0  0  0  0
   -0.4591    0.4361    2.4504 H   0  0  0  0  0  0  0  0  0  0  0  0
    1.1623    2.0003    1.5614 H   0  0  0  0  0  0  0  0  0  0  0  0
   -0.1124    1.7502    0.3318 H   0  0  0  0  0  0  0  0  0  0  0  0
    2.1097    1.7078   -0.6370 H   0  0  0  0  0  0  0  0  0  0  0  0
    1.3170    0.1420   -0.8763 H   0  0  0  0  0  0  0  0  0  0  0  0
    2.9447   -1.6183    1.5164 H   0  0  0  0  0  0  0  0  0  0  0  0
    3.5861   -0.2199    2.3892 H   0  0  0  0  0  0  0  0  0  0  0  0
    1.2579   -1.3296    2.9681 H   0  0  0  0  0  0  0  0  0  0  0  0
    1.6283    0.3660    3.3384 H   0  0  0  0  0  0  0  0  0  0  0  0
    4.1665    0.6928   -1.0063 H   0  0  0  0  0  0  0  0  0  0  0  0
    4.1342    1.8433    0.3328 H   0  0  0  0  0  0  0  0  0  0  0  0
    5.4363    0.2747    1.7642 H   0  0  0  0  0  0  0  0  0  0  0  0
    6.1827    2.0635    0.0161 H   0  0  0  0  0  0  0  0  0  0  0  0
    7.3659    0.9737    0.7808 H   0  0  0  0  0  0  0  0  0  0  0  0
    5.9926    0.1077   -1.8206 H   0  0  0  0  0  0  0  0  0  0  0  0
    7.4683    1.2099   -1.8222 H   0  0  0  0  0  0  0  0  0  0  0  0
    7.8716   -1.4127   -1.9095 H   0  0  0  0  0  0  0  0  0  0  0  0
    8.7552   -0.4106   -0.7307 H   0  0  0  0  0  0  0  0  0  0  0  0
    7.5588   -1.2468    1.1259 H   0  0  0  0  0  0  0  0  0  0  0  0
    7.2381   -2.6330    0.0701 H   0  0  0  0  0  0  0  0  0  0  0  0
    5.1016   -1.5133   -0.7055 H   0  0  0  0  0  0  0  0  0  0  0  0
    5.2463   -2.0247    0.9933 H   0  0  0  0  0  0  0  0  0  0  0  0
   -2.5002   -2.7831    1.0942 H   0  0  0  0  0  0  0  0  0  0  0  0
   -5.9676    2.6185   -3.9731 H   0  0  0  0  0  0  0  0  0  0  0  0
   -5.8132    3.1826   -2.2498 H   0  0  0  0  0  0  0  0  0  0  0  0
   -4.3659    2.7816   -3.2200 H   0  0  0  0  0  0  0  0  0  0  0  0
   -8.1762   -0.2413   -1.3922 H   0  0  0  0  0  0  0  0  0  0  0  0
   -8.0238   -1.9300   -0.8592 H   0  0  0  0  0  0  0  0  0  0  0  0
   -8.0775   -0.5508    0.3589 H   0  0  0  0  0  0  0  0  0  0  0  0
   -4.4269    1.8461   -1.0813 H   0  0  0  0  0  0  0  0  0  0  0  0
   -6.6760    1.1161   -0.2338 H   0  0  0  0  0  0  0  0  0  0  0  0
   -4.6185    1.3697    1.0556 H   0  0  0  0  0  0  0  0  0  0  0  0
   -5.7252    0.1638    1.7708 H   0  0  0  0  0  0  0  0  0  0  0  0
   -4.1677   -1.4903    1.4787 H   0  0  0  0  0  0  0  0  0  0  0  0
   -4.3062   -2.0616   -0.7743 H   0  0  0  0  0  0  0  0  0  0  0  0
   -3.9261   -0.6828   -2.6172 H   0  0  0  0  0  0  0  0  0  0  0  0
   -2.8251    0.4206   -1.7762 H   0  0  0  0  0  0  0  0  0  0  0  0
   -1.8351   -1.7540   -1.5150 H   0  0  0  0  0  0  0  0  0  0  0  0
   -1.2585    0.2712   -0.4621 H   0  0  0  0  0  0  0  0  0  0  0  0
   -2.6302    1.0886    1.1851 H   0  0  0  0  0  0  0  0  0  0  0  0
   -2.3594   -0.2996    2.3011 H   0  0  0  0  0  0  0  0  0  0  0  0
   -0.5714   -1.8643    1.6124 H   0  0  0  0  0  0  0  0  0  0  0  0
    0.3173   -1.4311    0.1306 H   0  0  0  0  0  0  0  0  0  0  0  0
   -0.4591    0.4361    2.4504 H   0  0  0  0  0  0  0  0  0  0  0  0
    1.1623    2.0003    1.5614 H   0  0  0  0  0  0  0  0  0  0  0  0
   -0.1124    1.7502    0.3318 H   0  0  0  0  0  0  0  0  0  0  0  0
    2.1097    1.7078   -0.6370 H   0  0  0  0  0  0  0  0  0  0  0  0
    1.3170    0.1420   -0.8763 H   0  0  0  0  0  0  0  0  0  0  0  0
    2.9447   -1.6183    1.5164 H   0  0  0  0  0  0  0  0  0  0  0  0
    3.5861   -0.2199    2.3892 H   0  0  0  0  0  0  0  0  0  0  0  0
    1.2579   -1.3296    2.9681 H   0  0  0  0  0  0  0  0  0  0  0  0
    1.6283    0.3660    3.3384 H   0  0  0  0  0  0  0  0  0  0  0  0
    4.1665    0.6928   -1.0063 H   0  0  0  0  0  0  0  0  0  0  0  0
    4.1342    1.8433    0.3328 H   0  0  0  0  0  0  0  0  0  0  0  0
    5.4363    0.2747    1.7642 H   0  0  0  0  0  0  0  0  0  0  0  0
    6.1827    2.0635    0.0161 H   0  0  0  0  0  0  0  0  0  0  0  0
    7.3659    0.9737    0.7808 H   0  0  0  0  0  0  0  0  0  0  0  0
    5.9926    0.1077   -1.8206 H   0  0  0  0  0  0  0  0  0  0  0  0
    7.4683    1.2099   -1.8222 H   0  0  0  0  0  0  0  0  0  0  0  0
    7.8716   -1.4127   -1.9095 H   0  0  0  0  0  0  0  0  0  0  0  0
    8.7552   -0.4106   -0.7307 H   0  0  0  0  0  0  0  0  0  0  0  0
    7.5588   -1.2468    1.1259 H   0  0  0  0  0  0  0  0  0  0  0  0
    7.2381   -2.6330    0.0701 H   0  0  0  0  0  0  0  0  0  0  0  0
    5.1016   -1.5133   -0.7055 H   0  0  0  0  0  0  0  0  0  0  0  0
    5.2463   -2.0247    0.9933 H   0  0  0  0  0  0  0  0  0  0  0  0
   -2.5002   -2.7831    1.0942 H   0  0  0  0  0  0  0  0  0  0  0  0
   -5.9676    2.6185   -3.9731 H   0  0  0  0  0  0  0  0  0  0  0  0
   -5.8132    3.1826   -2.2498 H   0  0  0  0  0  0  0  0  0  0  0  0
   -4.3659    2.7816   -3.2200 H   0  0  0  0  0  0  0  0  0  0  0  0
   -8.1762   -0.2413   -1.3922 H   0  0  0  0  0  0  0  0  0  0  0  0
   -8.0238   -1.9300   -0.8592 H   0  0  0  0  0  0  0  0  0  0  0  0
   -8.0775   -0.5508    0.3589 H   0  0  0  0  0  0  0  0  0  0  0  0
  1  2  1  0
  2  3  1  0
  3  4  1  0
  4  5  1  0
  1  6  1  0
  5  6  1  0
  5  7  1  0
  7  8  1  0
  4  9  1  0
  8  9  1  0
  8 10  1  0
 10 11  1  0
 11 12  1  0
 12 13  1  0
 13 14  1  0
 14 15  1  0
 11 16  1  0
 15 16  1  0
 14 17  1  0
 17 18  1  0
 18 19  1  0
 19 20  1  0
 20 21  1  0
 21 22  1  0
 18 23  1  0
 22 23  1  0
  7 24  1  0
  1 25  1  0
 25 26  1  0
  2 27  1  0
 27 28  1  0
 29 30  1  0
 30 31  1  0
 31 32  1  0
 32 33  1  0
 29 34  1  0
 33 34  1  0
 33 35  1  0
 35 36  1  0
 32 37  1  0
 36 37  1  0
 36 38  1  0
 38 39  1  0
 39 40  1  0
 40 41  1  0
 41 42  1  0
 42 43  1  0
 39 44  1  0
 43 44  1  0
 42 45  1  0
 45 46  1  0
 46 47  1  0
 47 48  1  0
 48 49  1  0
 49 50  1  0
 46 51  1  0
 50 51  1  0
 35 52  1  0
 29 53  1  0
 53 54  1  0
 30 55  1  0
 55 56  1  0
  1 57  1  0
  2 58  1  0
  3 59  1  0
  3 60  1  0
  4 61  1  0
  5 62  1  0
  6 63  1  0
  6 64  1  0
  7 65  1  0
  8 66  1  6
  9 67  1  0
  9 68  1  0
 10 69  1  0
 10 70  1  0
 11 71  1  0
 12 72  1  0
 12 73  1  0
 13 74  1  0
 13 75  1  0
 15 76  1  0
 15 77  1  0
 16 78  1  0
 16 79  1  0
 17 80  1  0
 17 81  1  0
 18 82  1  0
 19 83  1  0
 19 84  1  0
 20 85  1  0
 20 86  1  0
 21 87  1  0
 21 88  1  0
 22 89  1  0
 22 90  1  0
 23 91  1  0
 23 92  1  0
 24 93  1  0
 26 94  1  0
 26 95  1  0
 26 96  1  0
 28 97  1  0
 28 98  1  0
 28 99  1  0
 29100  1  0
 30101  1  0
 31102  1  0
 31103  1  0
 32104  1  0
 33105  1  0
 34106  1  0
 34107  1  0
 35108  1  0
 36109  1  6
 37110  1  0
 37111  1  0
 38112  1  0
 38113  1  0
 39114  1  0
 40115  1  0
 40116  1  0
 41117  1  0
 41118  1  0
 43119  1  0
 43120  1  0
 44121  1  0
 44122  1  0
 45123  1  0
 45124  1  0
 46125  1  0
 47126  1  0
 47127  1  0
 48128  1  0
 48129  1  0
 49130  1  0
 49131  1  0
 50132  1  0
 50133  1  0
 51134  1  0
 51135  1  0
 52136  1  0
 54137  1  0
 54138  1  0
 54139  1  0
 56140  1  0
 56141  1  0
 56142  1  0
M  END
>  <PDBID>  (1) 
4EY7

>  <PDB ID>  (1) 
4EY7

>  <Generic Name>  (1) 
Donepezil

>  <Brand Name>  (1) 
Accel-donepezil#Act Donepezil#Act Donepezil ODT#Ag-donepezil#Apo-donepezil#Aricept#Aricept ODT#Aricept Rdt#Auro-donepezil#Bio-donepezil#Dom-donepezil#Donepezil#Donepezil Hydrochloride#Donepezil Hydrochloride 10 mg#Donepezil Hydrochloride 10mg#Donepezil Hydrochloride 5 mg#Donepezil Hydrochloride ODT#Donepezil Hydrochloride Tablets#Donepezil Hydrochloride Tablets USP#Donepezil Hyrochloride 5mg#Ecl-donepezil#Ipg-donepezil#Jamp-donepezil#Jamp-donepezil Tablets#Mar-donepezil#Mint-donepezil#Mylan-donepezil#Namzaric#Nat-donepezil#PMS-donepezil#Priva-donepezil#Ran-donepezil#Riva-donepezil#Sandoz Donepezil#Sandoz Donepezil ODT#Septa Donepezil#Teva-donepezil#Van-donepezil#Alzepil#Davia#Depzil#Donecept#Donecil#Donep#Donepex#Donesyn#Dopezil#Eranz#Memac#Nomi-Nox#Pezale#Redumas#Zolpezil

>  <DrugBank ID>  (1) 
DB00843

>  <ATC Codes>  (1) 
N06DA02#N06DA52#N06DA53

>  <Ligand ID>  (1) 
E20

>  <Target Name>  (1) 
Acetylcholinesterase

>  <UniProt ID>  (1) 
P22303

>  <PDB ID.1>  (1) 
4EY7

>  <Seq. Identity>  (1) 
97%

$$$$
