PDB_DB06228_07
     RDKit          3D

 63 66  0  0  0  0  0  0  0  0999 V2000
   -5.6009    1.7544   -0.8053 C   0  0  0  0  0  0  0  0  0  0  0  0
   -5.3238    0.3662   -0.7308 N   0  0  0  0  0  0  0  0  0  0  0  0
   -7.0148    2.0333   -0.2827 C   0  0  0  0  0  0  0  0  0  0  0  0
   -6.2878   -0.4735   -0.1407 C   0  0  0  0  0  0  0  0  0  0  0  0
   -7.0832    1.5072    0.9834 O   0  0  0  0  0  0  0  0  0  0  0  0
   -7.0327    0.1174    1.0162 C   0  0  0  0  0  0  0  0  0  0  0  0
   -1.3945   -0.7023   -0.3481 C   0  0  0  0  0  0  0  0  0  0  0  0
   -2.2612   -1.8165   -0.7836 C   0  0  0  0  0  0  0  0  0  0  0  0
   -2.0787   -0.0755    0.9047 C   0  0  0  0  0  0  0  0  0  0  0  0
   -3.4998   -1.1506   -1.4476 C   0  0  0  0  0  0  0  0  0  0  0  0
   -3.5697   -0.2652    0.8598 C   0  0  0  0  0  0  0  0  0  0  0  0
   -3.9720   -0.0252   -0.5832 C   0  0  0  0  0  0  0  0  0  0  0  0
   -7.1656   -0.9337   -1.1274 O   0  0  0  0  0  0  0  0  0  0  0  0
   -0.0760   -0.9937    0.0799 N   0  0  0  0  0  0  0  0  0  0  0  0
    0.8450   -1.5717   -0.8206 C   0  0  0  0  0  0  0  0  0  0  0  0
    0.5192    0.3451    0.3564 C   0  0  0  0  0  0  0  0  0  0  0  0
    2.1085   -0.9904   -0.5869 O   0  0  0  0  0  0  0  0  0  0  0  0
    1.9573   -0.0224    0.3595 C   0  0  1  0  0  0  0  0  0  0  0  0
    1.0204   -2.9368   -0.4481 O   0  0  0  0  0  0  0  0  0  0  0  0
    2.9140    1.1283    0.3105 C   0  0  0  0  0  0  0  0  0  0  0  0
    4.2474    0.8666    0.6240 N   0  0  0  0  0  0  0  0  0  0  0  0
    5.0980    0.0938   -0.1900 C   0  0  0  0  0  0  0  0  0  0  0  0
    7.0889    1.5339    1.0476 S   0  0  0  0  0  0  0  0  0  0  0  0
    8.6530    1.3702    0.1262 C   0  0  0  0  0  0  0  0  0  0  0  0
    6.3649   -0.1139    0.6567 C   0  0  0  0  0  0  0  0  0  0  0  0
    8.2710    0.2559   -0.8266 C   0  0  0  0  0  0  0  0  0  0  0  0
    7.4918   -0.7678   -0.0583 C   0  0  0  0  0  0  0  0  0  0  0  0
    5.3733    0.6496   -1.4265 O   0  0  0  0  0  0  0  0  0  0  0  0
    8.9534    2.8625   -0.7925 Cl  0  0  0  0  0  0  0  0  0  0  0  0
   -5.4094    2.2348   -1.7687 H   0  0  0  0  0  0  0  0  0  0  0  0
   -4.9372    2.2645   -0.0377 H   0  0  0  0  0  0  0  0  0  0  0  0
   -7.7640    1.6229   -0.9824 H   0  0  0  0  0  0  0  0  0  0  0  0
   -7.1127    3.1315   -0.2025 H   0  0  0  0  0  0  0  0  0  0  0  0
   -5.7729   -1.4023    0.2317 H   0  0  0  0  0  0  0  0  0  0  0  0
   -6.6139   -0.1968    1.9817 H   0  0  0  0  0  0  0  0  0  0  0  0
   -8.0779   -0.2478    0.9648 H   0  0  0  0  0  0  0  0  0  0  0  0
   -1.4081    0.0963   -1.1263 H   0  0  0  0  0  0  0  0  0  0  0  0
   -2.6965   -2.4308    0.0577 H   0  0  0  0  0  0  0  0  0  0  0  0
   -1.8333   -2.4839   -1.5592 H   0  0  0  0  0  0  0  0  0  0  0  0
   -1.8412    0.9892    0.9487 H   0  0  0  0  0  0  0  0  0  0  0  0
   -1.7085   -0.6659    1.7636 H   0  0  0  0  0  0  0  0  0  0  0  0
   -3.1929   -0.7469   -2.4262 H   0  0  0  0  0  0  0  0  0  0  0  0
   -4.3201   -1.8916   -1.5647 H   0  0  0  0  0  0  0  0  0  0  0  0
   -4.0139    0.5181    1.5200 H   0  0  0  0  0  0  0  0  0  0  0  0
   -3.8778   -1.2581    1.2129 H   0  0  0  0  0  0  0  0  0  0  0  0
   -3.3530    0.8828   -0.8917 H   0  0  0  0  0  0  0  0  0  0  0  0
   -6.9071   -0.6228   -2.0245 H   0  0  0  0  0  0  0  0  0  0  0  0
    0.6151   -1.4495   -1.8798 H   0  0  0  0  0  0  0  0  0  0  0  0
    0.1363    0.7162    1.3381 H   0  0  0  0  0  0  0  0  0  0  0  0
    0.2870    0.9765   -0.4977 H   0  0  0  0  0  0  0  0  0  0  0  0
    2.1192   -0.5251    1.4101 H   0  0  0  0  0  0  0  0  0  0  0  0
    1.4792   -2.8753    0.4314 H   0  0  0  0  0  0  0  0  0  0  0  0
    2.8897    1.6024   -0.7383 H   0  0  0  0  0  0  0  0  0  0  0  0
    2.5430    1.9309    1.0267 H   0  0  0  0  0  0  0  0  0  0  0  0
    4.3439    0.5219    1.6237 H   0  0  0  0  0  0  0  0  0  0  0  0
    4.7287   -0.9575   -0.3653 H   0  0  0  0  0  0  0  0  0  0  0  0
    9.4976    1.0906    0.7483 H   0  0  0  0  0  0  0  0  0  0  0  0
    6.0652   -0.5674    1.5981 H   0  0  0  0  0  0  0  0  0  0  0  0
    9.2291   -0.2196   -1.1331 H   0  0  0  0  0  0  0  0  0  0  0  0
    7.7758    0.5887   -1.7446 H   0  0  0  0  0  0  0  0  0  0  0  0
    7.1203   -1.5250   -0.7432 H   0  0  0  0  0  0  0  0  0  0  0  0
    8.1841   -1.1795    0.7191 H   0  0  0  0  0  0  0  0  0  0  0  0
    5.2815    0.0333   -2.1937 H   0  0  0  0  0  0  0  0  0  0  0  0
  1  2  1  0
  1  3  1  0
  2  4  1  0
  3  5  1  0
  4  6  1  0
  5  6  1  0
  7  8  1  0
  7  9  1  0
  8 10  1  0
  9 11  1  0
  2 12  1  0
 10 12  1  0
 11 12  1  0
  4 13  1  0
  7 14  1  0
 14 15  1  0
 14 16  1  0
 15 17  1  0
 16 18  1  0
 17 18  1  0
 15 19  1  0
 18 20  1  0
 20 21  1  0
 21 22  1  0
 23 24  1  0
 22 25  1  0
 23 25  1  0
 24 26  1  0
 25 27  1  0
 26 27  1  0
 22 28  1  0
 24 29  1  0
  1 30  1  0
  1 31  1  0
  3 32  1  0
  3 33  1  0
  4 34  1  0
  6 35  1  0
  6 36  1  0
  7 37  1  0
  8 38  1  0
  8 39  1  0
  9 40  1  0
  9 41  1  0
 10 42  1  0
 10 43  1  0
 11 44  1  0
 11 45  1  0
 12 46  1  0
 13 47  1  0
 15 48  1  0
 16 49  1  0
 16 50  1  0
 18 51  1  1
 19 52  1  0
 20 53  1  0
 20 54  1  0
 21 55  1  0
 22 56  1  0
 24 57  1  0
 25 58  1  0
 26 59  1  0
 26 60  1  0
 27 61  1  0
 27 62  1  0
 28 63  1  0
M  END
>  <PDBID>  (1) 
2W26

>  <PDB ID>  (1) 
2W26

>  <Generic Name>  (1) 
Rivaroxaban

>  <Brand Name>  (1) 
Xarelto

>  <DrugBank ID>  (1) 
DB06228

>  <ATC Codes>  (1) 
B01AF01

>  <Ligand ID>  (1) 
RIV

>  <Target Name>  (1) 
Coagulation factor X

>  <UniProt ID>  (1) 
P00742

>  <PDB ID.1>  (1) 
2W26

>  <Seq. Identity>  (1) 
100%

$$$$
