PDB_DB00443_04
     RDKit          3D

130136  0  0  0  0  0  0  0  0999 V2000
   -3.0977   -0.9554    1.0458 C   0  0  0  0  0  0  0  0  0  0  0  0
   -4.5825   -1.1128    0.9848 C   0  0  0  0  0  0  0  0  0  0  0  0
   -5.1914    0.1112    0.3829 C   0  0  0  0  0  0  0  0  0  0  0  0
   -4.6336    0.3577   -0.9696 C   0  0  0  0  0  0  0  0  0  0  0  0
   -3.1469    0.4172   -1.0479 C   0  0  0  0  0  0  0  0  0  0  0  0
   -2.6819    1.7575   -0.6084 C   0  0  0  0  0  0  0  0  0  0  0  0
   -1.3806    1.7820    0.1136 C   0  0  0  0  0  0  0  0  0  0  0  0
   -0.4670    0.7722   -0.5021 C   0  0  2  0  0  0  0  0  0  0  0  0
   -1.0166   -0.6440   -0.2727 C   0  0  1  0  0  0  0  0  0  0  0  0
   -2.4822   -0.7375   -0.3401 C   0  0  1  0  0  0  0  0  0  0  0  0
   -0.2388   -1.5524   -1.1527 C   0  0  2  0  0  0  0  0  0  0  0  0
    1.1903   -1.6081   -0.5861 C   0  0  0  0  0  0  0  0  0  0  0  0
    1.7783   -0.2476   -0.6378 C   0  0  1  0  0  0  0  0  0  0  0  0
    0.8760    0.7650    0.0826 C   0  0  1  0  0  0  0  0  0  0  0  0
    1.7026    1.9768    0.0146 C   0  0  0  0  0  0  0  0  0  0  0  0
    3.0546    1.4205    0.4943 C   0  0  2  0  0  0  0  0  0  0  0  0
    3.0097   -0.0755    0.2229 C   0  0  2  0  0  0  0  0  0  0  0  0
    2.1347    0.2167   -2.0237 C   0  0  0  0  0  0  0  0  0  0  0  0
   -2.8958   -2.0093   -1.0951 C   0  0  0  0  0  0  0  0  0  0  0  0
    4.2569   -0.5816   -0.4395 C   0  0  0  0  0  0  0  0  0  0  0  0
    5.4499   -0.5285    0.5110 C   0  0  0  0  0  0  0  0  0  0  0  0
    3.1202    1.6268    1.9934 C   0  0  0  0  0  0  0  0  0  0  0  0
   -0.6241   -0.9575    1.0415 F   0  0  0  0  0  0  0  0  0  0  0  0
   -5.1014    1.1911    1.2495 O   0  0  0  0  0  0  0  0  0  0  0  0
   -0.1347   -1.2118   -2.4628 O   0  0  0  0  0  0  0  0  0  0  0  0
    2.7749   -0.7906    1.4004 O   0  0  0  0  0  0  0  0  0  0  0  0
    4.0600   -1.9319   -0.7252 O   0  0  0  0  0  0  0  0  0  0  0  0
    5.7428    0.7874    0.8694 O   0  0  0  0  0  0  0  0  0  0  0  0
    0.8155    0.4255    1.1398 H   0  0  0  0  0  0  0  0  0  0  0  0
   -3.3486   -0.5356    1.1397 C   0  0  0  0  0  0  0  0  0  0  0  0
   -4.8140   -0.6363    0.8702 C   0  0  0  0  0  0  0  0  0  0  0  0
   -5.3214    0.2771   -0.1892 C   0  0  0  0  0  0  0  0  0  0  0  0
   -4.4475    0.4094   -1.3862 C   0  0  0  0  0  0  0  0  0  0  0  0
   -2.9817    0.4363   -1.0773 C   0  0  0  0  0  0  0  0  0  0  0  0
   -2.6208    1.7877   -0.5635 C   0  0  0  0  0  0  0  0  0  0  0  0
   -1.3042    1.8674    0.1305 C   0  0  0  0  0  0  0  0  0  0  0  0
   -0.4611    0.7021   -0.3349 C   0  0  2  0  0  0  0  0  0  0  0  0
   -1.1028   -0.6338    0.0347 C   0  0  1  0  0  0  0  0  0  0  0  0
   -2.5553   -0.6893   -0.1661 C   0  0  1  0  0  0  0  0  0  0  0  0
   -0.3157   -1.6878   -0.7125 C   0  0  2  0  0  0  0  0  0  0  0  0
    1.1329   -1.6575   -0.3660 C   0  0  0  0  0  0  0  0  0  0  0  0
    1.7558   -0.3138   -0.5191 C   0  0  1  0  0  0  0  0  0  0  0  0
    0.8863    0.6611    0.2494 C   0  0  1  0  0  0  0  0  0  0  0  0
    1.6975    1.8787    0.2660 C   0  0  0  0  0  0  0  0  0  0  0  0
    3.0797    1.3200    0.6344 C   0  0  2  0  0  0  0  0  0  0  0  0
    3.0529   -0.1528    0.2460 C   0  0  2  0  0  0  0  0  0  0  0  0
    2.0118    0.1070   -1.9286 C   0  0  0  0  0  0  0  0  0  0  0  0
   -3.0696   -1.9932   -0.7435 C   0  0  0  0  0  0  0  0  0  0  0  0
    4.2572   -0.4191   -0.6018 C   0  0  0  0  0  0  0  0  0  0  0  0
    5.4851   -0.2008    0.2632 C   0  0  0  0  0  0  0  0  0  0  0  0
    3.2058    1.3694    2.1417 C   0  0  0  0  0  0  0  0  0  0  0  0
   -0.8108   -0.8210    1.3875 F   0  0  0  0  0  0  0  0  0  0  0  0
   -5.6425    1.5056    0.3916 O   0  0  0  0  0  0  0  0  0  0  0  0
   -0.4058   -1.4731   -2.1078 O   0  0  0  0  0  0  0  0  0  0  0  0
    3.1060   -0.9867    1.3495 O   0  0  0  0  0  0  0  0  0  0  0  0
    4.3097   -1.7408   -1.0415 O   0  0  0  0  0  0  0  0  0  0  0  0
    6.6336   -0.4351   -0.5219 O   0  0  0  0  0  0  0  0  0  0  0  0
   -2.7968   -0.2120    1.7719 H   0  0  0  0  0  0  0  0  0  0  0  0
   -2.6762   -1.9419    1.3925 H   0  0  0  0  0  0  0  0  0  0  0  0
   -4.9386   -1.1688    2.0443 H   0  0  0  0  0  0  0  0  0  0  0  0
   -4.9167   -2.0504    0.5100 H   0  0  0  0  0  0  0  0  0  0  0  0
   -6.2890   -0.0954    0.2614 H   0  0  0  0  0  0  0  0  0  0  0  0
   -5.0235    1.3527   -1.3364 H   0  0  0  0  0  0  0  0  0  0  0  0
   -5.0864   -0.3916   -1.6765 H   0  0  0  0  0  0  0  0  0  0  0  0
   -2.8784    0.2930   -2.1395 H   0  0  0  0  0  0  0  0  0  0  0  0
   -2.5855    2.4362   -1.5073 H   0  0  0  0  0  0  0  0  0  0  0  0
   -3.4312    2.2937    0.0426 H   0  0  0  0  0  0  0  0  0  0  0  0
   -0.8977    2.7899   -0.0578 H   0  0  0  0  0  0  0  0  0  0  0  0
   -1.4603    1.6990    1.2153 H   0  0  0  0  0  0  0  0  0  0  0  0
   -0.4079    1.0005   -1.5847 H   0  0  0  0  0  0  0  0  0  0  0  0
   -0.6105   -2.6068   -1.0584 H   0  0  0  0  0  0  0  0  0  0  0  0
    1.0886   -1.9268    0.4548 H   0  0  0  0  0  0  0  0  0  0  0  0
    1.7979   -2.3139   -1.1492 H   0  0  0  0  0  0  0  0  0  0  0  0
    1.3765    2.8094    0.6703 H   0  0  0  0  0  0  0  0  0  0  0  0
    1.7868    2.4065   -1.0041 H   0  0  0  0  0  0  0  0  0  0  0  0
    3.8859    1.9118   -0.0417 H   0  0  0  0  0  0  0  0  0  0  0  0
    1.3115    0.6172   -2.6074 H   0  0  0  0  0  0  0  0  0  0  0  0
    2.9146    1.0247   -1.9905 H   0  0  0  0  0  0  0  0  0  0  0  0
    2.5588   -0.6545   -2.5605 H   0  0  0  0  0  0  0  0  0  0  0  0
   -2.3533   -2.1592   -2.0174 H   0  0  0  0  0  0  0  0  0  0  0  0
   -3.9649   -2.0498   -1.2924 H   0  0  0  0  0  0  0  0  0  0  0  0
   -2.6453   -2.8724   -0.4184 H   0  0  0  0  0  0  0  0  0  0  0  0
    4.5061   -0.0788   -1.3705 H   0  0  0  0  0  0  0  0  0  0  0  0
    6.3495   -0.9364    0.0074 H   0  0  0  0  0  0  0  0  0  0  0  0
    5.2750   -1.1702    1.4005 H   0  0  0  0  0  0  0  0  0  0  0  0
    3.8312    2.4789    2.1637 H   0  0  0  0  0  0  0  0  0  0  0  0
    3.5198    0.7414    2.5219 H   0  0  0  0  0  0  0  0  0  0  0  0
    2.1461    1.9658    2.4118 H   0  0  0  0  0  0  0  0  0  0  0  0
   -5.6689    1.9390    0.9360 H   0  0  0  0  0  0  0  0  0  0  0  0
   -0.7549   -0.5738   -2.8318 H   0  0  0  0  0  0  0  0  0  0  0  0
    3.0574   -1.7210    1.2876 H   0  0  0  0  0  0  0  0  0  0  0  0
    4.9615   -2.3706   -0.7573 H   0  0  0  0  0  0  0  0  0  0  0  0
    6.7278    0.8714    1.0132 H   0  0  0  0  0  0  0  0  0  0  0  0
   -3.0452    0.3240    1.7214 H   0  0  0  0  0  0  0  0  0  0  0  0
   -3.0654   -1.4482    1.7421 H   0  0  0  0  0  0  0  0  0  0  0  0
   -5.3370   -0.3490    1.8303 H   0  0  0  0  0  0  0  0  0  0  0  0
   -5.1048   -1.7094    0.7197 H   0  0  0  0  0  0  0  0  0  0  0  0
   -6.3070   -0.1449   -0.5449 H   0  0  0  0  0  0  0  0  0  0  0  0
   -4.6894    1.4058   -1.8622 H   0  0  0  0  0  0  0  0  0  0  0  0
   -4.6944   -0.3332   -2.2008 H   0  0  0  0  0  0  0  0  0  0  0  0
   -2.4415    0.2654   -2.0507 H   0  0  0  0  0  0  0  0  0  0  0  0
   -3.3874    2.2293    0.1057 H   0  0  0  0  0  0  0  0  0  0  0  0
   -2.5914    2.4792   -1.4571 H   0  0  0  0  0  0  0  0  0  0  0  0
   -1.3597    1.9563    1.2270 H   0  0  0  0  0  0  0  0  0  0  0  0
   -0.7413    2.7867   -0.2081 H   0  0  0  0  0  0  0  0  0  0  0  0
   -0.4922    0.7337   -1.4574 H   0  0  0  0  0  0  0  0  0  0  0  0
   -0.7258   -2.6795   -0.4312 H   0  0  0  0  0  0  0  0  0  0  0  0
    1.6434   -2.4402   -0.9758 H   0  0  0  0  0  0  0  0  0  0  0  0
    1.2750   -1.9813    0.6989 H   0  0  0  0  0  0  0  0  0  0  0  0
    0.8155    0.2537    1.2857 H   0  0  0  0  0  0  0  0  0  0  0  0
    1.7193    2.4772   -0.6391 H   0  0  0  0  0  0  0  0  0  0  0  0
    1.3782    2.5634    1.0975 H   0  0  0  0  0  0  0  0  0  0  0  0
    3.8406    1.8904    0.1065 H   0  0  0  0  0  0  0  0  0  0  0  0
    2.6939   -0.6163   -2.3872 H   0  0  0  0  0  0  0  0  0  0  0  0
    2.5390    1.0802   -1.9021 H   0  0  0  0  0  0  0  0  0  0  0  0
    1.1408    0.2171   -2.5623 H   0  0  0  0  0  0  0  0  0  0  0  0
   -2.4825   -2.3878   -1.5606 H   0  0  0  0  0  0  0  0  0  0  0  0
   -4.1095   -1.9117   -1.0490 H   0  0  0  0  0  0  0  0  0  0  0  0
   -3.0126   -2.7365    0.1032 H   0  0  0  0  0  0  0  0  0  0  0  0
    4.3613    0.2754   -1.4639 H   0  0  0  0  0  0  0  0  0  0  0  0
    5.4848   -0.9204    1.0842 H   0  0  0  0  0  0  0  0  0  0  0  0
    5.5565    0.8251    0.6406 H   0  0  0  0  0  0  0  0  0  0  0  0
    3.8017    2.2141    2.5046 H   0  0  0  0  0  0  0  0  0  0  0  0
    3.6694    0.4323    2.5462 H   0  0  0  0  0  0  0  0  0  0  0  0
    2.2077    1.4301    2.6429 H   0  0  0  0  0  0  0  0  0  0  0  0
   -5.3661    1.5541    1.3408 H   0  0  0  0  0  0  0  0  0  0  0  0
   -0.0854   -2.3209   -2.5269 H   0  0  0  0  0  0  0  0  0  0  0  0
    3.4695   -1.8613    1.0274 H   0  0  0  0  0  0  0  0  0  0  0  0
    5.1935   -1.8467   -1.5013 H   0  0  0  0  0  0  0  0  0  0  0  0
    6.8357    0.3490   -1.1025 H   0  0  0  0  0  0  0  0  0  0  0  0
  1  2  1  0
  2  3  1  0
  3  4  1  0
  4  5  1  0
  5  6  1  0
  6  7  1  0
  7  8  1  0
  8  9  1  0
  1 10  1  0
  5 10  1  0
  9 10  1  0
  9 11  1  0
 11 12  1  0
 12 13  1  0
  8 14  1  0
 13 14  1  0
 14 15  1  0
 15 16  1  0
 13 17  1  0
 16 17  1  0
 13 18  1  6
 10 19  1  6
 17 20  1  0
 20 21  1  0
 16 22  1  0
  9 23  1  1
  3 24  1  0
 11 25  1  0
 17 26  1  1
 20 27  1  0
 21 28  1  0
 14 29  1  1
 30 31  1  0
 31 32  1  0
 32 33  1  0
 33 34  1  0
 34 35  1  0
 35 36  1  0
 36 37  1  0
 37 38  1  0
 30 39  1  0
 34 39  1  0
 38 39  1  0
 38 40  1  0
 40 41  1  0
 41 42  1  0
 37 43  1  0
 42 43  1  0
 43 44  1  0
 44 45  1  0
 42 46  1  0
 45 46  1  0
 42 47  1  6
 39 48  1  6
 46 49  1  0
 49 50  1  0
 45 51  1  0
 38 52  1  1
 32 53  1  0
 40 54  1  0
 46 55  1  1
 49 56  1  0
 50 57  1  0
  1 58  1  0
  1 59  1  0
  2 60  1  0
  2 61  1  0
  3 62  1  0
  4 63  1  0
  4 64  1  0
  5 65  1  0
  6 66  1  0
  6 67  1  0
  7 68  1  0
  7 69  1  0
  8 70  1  6
 11 71  1  6
 12 72  1  0
 12 73  1  0
 15 74  1  0
 15 75  1  0
 16 76  1  6
 18 77  1  0
 18 78  1  0
 18 79  1  0
 19 80  1  0
 19 81  1  0
 19 82  1  0
 20 83  1  0
 21 84  1  0
 21 85  1  0
 22 86  1  0
 22 87  1  0
 22 88  1  0
 24 89  1  0
 25 90  1  0
 26 91  1  0
 27 92  1  0
 28 93  1  0
 30 94  1  0
 30 95  1  0
 31 96  1  0
 31 97  1  0
 32 98  1  0
 33 99  1  0
 33100  1  0
 34101  1  0
 35102  1  0
 35103  1  0
 36104  1  0
 36105  1  0
 37106  1  6
 40107  1  6
 41108  1  0
 41109  1  0
 43110  1  1
 44111  1  0
 44112  1  0
 45113  1  6
 47114  1  0
 47115  1  0
 47116  1  0
 48117  1  0
 48118  1  0
 48119  1  0
 49120  1  0
 50121  1  0
 50122  1  0
 51123  1  0
 51124  1  0
 51125  1  0
 53126  1  0
 54127  1  0
 55128  1  0
 56129  1  0
 57130  1  0
M  END
>  <PDBID>  (1) 
1M2Z

>  <PDB ID>  (1) 
1M2Z

>  <Generic Name>  (1) 
Betamethasone

>  <Brand Name>  (1) 
Beben Gel 0.025%#Beta 1 Kit#Betacort Scalp Lotion 0.1%#Betaderm Crm 0.05%#Betaderm Crm 0.1%#Betaderm Lotion 0.1%#Betaderm Ont 0.05%#Betaderm Ont 0.1%#Betagel - 0.1%#Betaject#Betaloan Suik#Betamethasone#Betamethasone Clotrimazole#Betamethasone Combo 6mg/ml PF#Betamethasone Combo 7mg/ml#Betamethasone Dipropionate#Betamethasone Dipropionate Augmented#Betamethasone Sodium Phosphate and Betamethasone Acetate#Betamethasone Sp 24mg/2ml PF#Betamethasone Valerate#Betamethasone Valerate Lot 0.1% USP#Betamycin Ophthalmic/otic Solution#Betaprolene Cream 0.05%#Betaprolene Ointment 0.05%#Betaprone Cream 0.05%#Betaprone Lotion 0.05%#Betaprone Ointment 0.05%#Beteflam#Betnesol Eye and Ear Drops#Betnesol Eye and Ear Drops 0.1%#Betnesol Pellets 0.1mg#Betnesol Retention Enema 5mg/100ml#Betnesol Retention Enemas#Betnesol Tab 0.5mg#Betnesol Tablets#Betnovate 1/2 Crm 0.05%#Betnovate 1/2 Lot 0.05%#Betnovate 1/2 Ont 0.05%#Betnovate Crm 0.1%#Betnovate Lot 0.1%#Betnovate Lotion 0.1%#Betnovate Ont 0.1%#Calcipotriene 0.005% and Betamethasone Dipropionate 0.064%#Calcipotriene and Betamethasone Dipropionate#Celestoderm V#Celestoderm V Crm 0.1%#Celestoderm V Ont 0.1%#Celestoderm V/2#Celestoderm V/2 Cream .05%#Celestoderm V/2 Ointment 0.05%#Celestone Repetabs 1mg#Celestone Soluspan#Celestone Tab 0.5mg#Clotrimazole and Betamethasone Dipropionate#Dermacinrx Therazole Pak#Diprogen Cream#Diprogen Ointment#Diprolene#Diprolene AF#Diprosalic#Diprosone Cream 0.05%#Diprosone Lotion 0.05%#Diprosone Ointment 0.05%#Dom-gentamicin-betamethasone#Dovobet Gel#Dovobet Ointment#Dr. Throwers Beta#Dr. Throwers Pbc No. 1#Enstilar#Garasone Ophthalmic Ointment#Garasone Ophthalmic and Otic Solution#Lotriderm Cream#Lotrisone#Luxiq#Marbeta 25 Kit#Occlucort Film Forming Lot 0.05#PMS-clotrimazole-betamethasone#PMS-gentamicin-betamethasone#Prevex B Cream 0.1%#Pro-lene Glycol Cream - 0.05%#Pro-lene Glycol Lotion - 0.05%#Pro-lene Glycol Ointment - 0.05%#Pro-sone Cream - 0.05%#Pro-sone Lotion -  0.05%#Pro-sone Ointment - 0.05%#Ratio-ectosone#Ratio-ectosone Mild Cream 0.05%#Ratio-ectosone Mild Lotion 0.05%#Ratio-ectosone Regular Cream 0.1%#Ratio-ectosone Regular Lotion 0.1%#Ratio-topilene#Ratio-topisalic#Ratio-topisone#Readysharp Betamethasone#Rhoprolene Glycol Cream 0.5mg/gm#Rhoprolene Glycol Lotion 0.5mg/gm#Rhoprolene Glycol Ointment 0.5mg/gm#Rhoprosone Cream 0.05%#Rhoprosone Lotion 0.05%#Rhoprosone Oint 0.05%#Rivasone Scalp Lot 0.1%#Rolene Cream 0.05%#Rolene Lotion 0.05%#Rolene Ointment 0.05%#Rosone Cream 0.05%#Rosone Lotion 0.05%#Rosone Ointment 0.05%#Sandoz Pentasone#Sernivo#Taclonex#Taclonex Scalp#Taro Sone Lot 0.05%#Taro Sone Ont#Taro-sone Cream 0.05%#Valisone Scalp Lotion#Valisone-G Cream#Valisone-G Ointment#Bentelan#Betnovate#Celestamine#Celestone#Diprosone#Fucibet#Procort#Rinderon

>  <DrugBank ID>  (1) 
DB00443

>  <ATC Codes>  (1) 
S01BB04#R03BA04#S01CA05#H02AB01#R01AD06#D07BC01#C05AA05#D07CC01#D07AC01#S01CB04#D07XC01#S02BA07#A07EA04#S03BA03#S01BA06#S03CA06

>  <Ligand ID>  (1) 
DEX

>  <Target Name>  (1) 
Glucocorticoid receptor

>  <UniProt ID>  (1) 
P04150

>  <PDB ID.1>  (1) 
1M2Z

>  <Seq. Identity>  (1) 
100%

$$$$
