PDB_DB00819_09
     RDKit          3D

 27 27  0  0  0  0  0  0  0  0999 V2000
   -1.7747   -0.6045    0.5870 C   0  0  2  0  0  0  0  0  0  0  0  0
    0.6375    0.6077    0.9396 C   0  0  2  0  0  0  0  0  0  0  0  0
    2.6809   -0.0049    0.0058 C   0  0  0  0  0  0  0  0  0  0  0  0
    4.0869   -0.3976    0.4485 C   0  0  0  0  0  0  0  0  0  0  0  0
   -2.9302    1.7685   -0.0084 N   0  0  0  0  0  0  0  0  0  0  0  0
   -0.0522    0.6080   -0.3519 N   0  0  0  0  0  0  0  0  0  0  0  0
   -0.7708   -0.5409   -0.4747 N   0  0  0  0  0  0  0  0  0  0  0  0
    1.6986   -0.3522    0.9983 N   0  0  0  0  0  0  0  0  0  0  0  0
   -4.4844   -0.4357    0.3892 O   0  0  0  0  0  0  0  0  0  0  0  0
   -3.0571   -0.1680   -1.7680 O   0  0  0  0  0  0  0  0  0  0  0  0
    2.4613   -0.6004   -1.2284 O   0  0  0  0  0  0  0  0  0  0  0  0
   -3.1430    0.2710    0.1875 S   0  0  0  0  0  0  0  0  0  0  0  0
   -0.7987    0.0587    1.9610 S   0  0  0  0  0  0  0  0  0  0  0  0
   -1.9835   -1.6893    0.8181 H   0  0  0  0  0  0  0  0  0  0  0  0
    0.9464    1.6191    1.1833 H   0  0  0  0  0  0  0  0  0  0  0  0
    2.6994    1.1229   -0.0717 H   0  0  0  0  0  0  0  0  0  0  0  0
    4.3436   -1.3961    0.0226 H   0  0  0  0  0  0  0  0  0  0  0  0
    4.1551   -0.4745    1.5429 H   0  0  0  0  0  0  0  0  0  0  0  0
    4.8238    0.3170    0.0519 H   0  0  0  0  0  0  0  0  0  0  0  0
   -2.7593    2.2283   -0.9156 H   0  0  0  0  0  0  0  0  0  0  0  0
   -3.4533    2.4360    0.6172 H   0  0  0  0  0  0  0  0  0  0  0  0
    0.5539    0.7593   -1.1536 H   0  0  0  0  0  0  0  0  0  0  0  0
   -0.2317   -1.4220   -0.5866 H   0  0  0  0  0  0  0  0  0  0  0  0
    1.3228   -1.2905    0.7272 H   0  0  0  0  0  0  0  0  0  0  0  0
   -4.6568   -1.3085   -0.0855 H   0  0  0  0  0  0  0  0  0  0  0  0
   -3.0361   -1.1207   -1.5924 H   0  0  0  0  0  0  0  0  0  0  0  0
    2.7217    0.0094   -1.9570 H   0  0  0  0  0  0  0  0  0  0  0  0
  3  4  1  0
  2  6  1  0
  1  7  1  0
  6  7  1  0
  2  8  1  0
  3  8  1  0
  3 11  1  0
  1 12  1  0
  5 12  1  0
 12  9  1  0
 10 12  1  0
  1 13  1  0
  2 13  1  0
  1 14  1  1
  2 15  1  1
  3 16  1  0
  4 17  1  0
  4 18  1  0
  4 19  1  0
  5 20  1  0
  5 21  1  0
  6 22  1  0
  7 23  1  0
  8 24  1  0
  9 25  1  0
 10 26  1  0
 11 27  1  0
M  END
>  <PDBID>  (1) 
1AZM

>  <PDB ID>  (1) 
1AZM

>  <Generic Name>  (1) 
Acetazolamide

>  <Brand Name>  (1) 
Acetazolam#Acetazolamide#Acetazolamide for Injection, USP#Diamox IV 500mg#Diamox Pws 500mg/vial#Diamox Sequels#Diamox Src 500mg#Diamox Tab 250mg#Diamox Tablets 250mg#Novo-zolamide Tab 250mg#Acemit#Acemox#Acetak#Acetamide#Acetazolamax#Azm#Azol#Azomid#Carbinib#Defiltran#Diabo#Diacarb#Diamox#Diamox Depot#Diazomid#Diluran#Diuramid#Défiltran#Edemox#Glaumox#Glaupax#Glupax#Huma-Zolamide#Iopar-SR#Medene#Oculten#Uramox#Zolmide#Ödemin

>  <DrugBank ID>  (1) 
DB00819

>  <ATC Codes>  (1) 
S01EC01

>  <Ligand ID>  (1) 
AZM

>  <Target Name>  (1) 
Carbonic anhydrase 1

>  <UniProt ID>  (1) 
P00915

>  <PDB ID.1>  (1) 
1AZM

>  <Seq. Identity>  (1) 
100%

$$$$
