PDB_DB00862_04
     RDKit          3D

164170  0  0  0  0  0  0  0  0999 V2000
   -2.6609    4.7159   -0.5676 C   0  0  0  0  0  0  0  0  0  0  0  0
   -1.9819    4.3704    0.7181 C   0  0  0  0  0  0  0  0  0  0  0  0
   -0.7524    3.7558    0.5157 O   0  0  0  0  0  0  0  0  0  0  0  0
   -0.8505    2.5768   -0.1950 C   0  0  0  0  0  0  0  0  0  0  0  0
   -0.0950    2.6715   -1.4650 C   0  0  0  0  0  0  0  0  0  0  0  0
    1.2475    2.0016   -1.4743 C   0  0  0  0  0  0  0  0  0  0  0  0
    1.8131    2.0362   -0.0945 C   0  0  0  0  0  0  0  0  0  0  0  0
    0.9686    1.1037    0.7541 C   0  0  0  0  0  0  0  0  0  0  0  0
   -0.4795    1.4282    0.7024 C   0  0  0  0  0  0  0  0  0  0  0  0
    3.4615    1.5514    0.0019 S   0  0  0  0  0  0  0  0  0  0  0  0
    3.6130    1.6002    1.8252 O   0  0  0  0  0  0  0  0  0  0  0  0
    4.4024    2.9165   -0.2916 O   0  0  0  0  0  0  0  0  0  0  0  0
    7.4692   -2.3268    1.4146 C   0  0  0  0  0  0  0  0  0  0  0  0
    3.9816    0.3483   -0.5661 N   0  0  0  0  0  0  0  0  0  0  0  0
    3.5149   -0.9819   -0.3672 C   0  0  0  0  0  0  0  0  0  0  0  0
    4.4928   -2.0550   -0.7940 C   0  0  0  0  0  0  0  0  0  0  0  0
    5.8306   -1.8284   -0.3445 N   0  0  0  0  0  0  0  0  0  0  0  0
    6.2549   -0.4732   -0.3994 C   0  0  0  0  0  0  0  0  0  0  0  0
    5.2701    0.3109   -1.2733 C   0  0  0  0  0  0  0  0  0  0  0  0
    6.0913   -2.5143    0.8788 C   0  0  0  0  0  0  0  0  0  0  0  0
   -1.2272    0.1623    0.2546 C   0  0  0  0  0  0  0  0  0  0  0  0
   -0.8415   -0.8787    1.1295 N   0  0  0  0  0  0  0  0  0  0  0  0
   -1.7982   -1.9033    1.4002 C   0  0  0  0  0  0  0  0  0  0  0  0
   -3.1436   -1.2745    1.5240 C   0  0  0  0  0  0  0  0  0  0  0  0
   -3.3955   -0.6556    0.2238 N   0  0  0  0  0  0  0  0  0  0  0  0
   -2.6143    0.4971    0.2179 N   0  0  0  0  0  0  0  0  0  0  0  0
   -1.4263   -2.6076    2.5394 O   0  0  0  0  0  0  0  0  0  0  0  0
   -4.2854   -2.2321    1.6527 C   0  0  0  0  0  0  0  0  0  0  0  0
   -5.3347   -1.5780    0.9455 N   0  0  0  0  0  0  0  0  0  0  0  0
   -4.7988   -0.4436    0.2368 C   0  0  0  0  0  0  0  0  0  0  0  0
   -3.9747   -3.6136    1.1664 C   0  0  0  0  0  0  0  0  0  0  0  0
   -5.2774   -0.3886   -1.1857 C   0  0  0  0  0  0  0  0  0  0  0  0
   -4.9877   -1.6472   -1.9523 C   0  0  0  0  0  0  0  0  0  0  0  0
   -5.4998   -1.5015   -3.3706 C   0  0  0  0  0  0  0  0  0  0  0  0
   -2.6609    4.7159   -0.5676 C   0  0  0  0  0  0  0  0  0  0  0  0
   -1.9819    4.3704    0.7181 C   0  0  0  0  0  0  0  0  0  0  0  0
   -0.7524    3.7558    0.5157 O   0  0  0  0  0  0  0  0  0  0  0  0
   -0.8505    2.5768   -0.1950 C   0  0  0  0  0  0  0  0  0  0  0  0
   -0.0950    2.6715   -1.4650 C   0  0  0  0  0  0  0  0  0  0  0  0
    1.2475    2.0016   -1.4743 C   0  0  0  0  0  0  0  0  0  0  0  0
    1.8131    2.0362   -0.0945 C   0  0  0  0  0  0  0  0  0  0  0  0
    0.9686    1.1037    0.7541 C   0  0  0  0  0  0  0  0  0  0  0  0
   -0.4795    1.4282    0.7024 C   0  0  0  0  0  0  0  0  0  0  0  0
    3.4615    1.5514    0.0019 S   0  0  0  0  0  0  0  0  0  0  0  0
    3.6130    1.6002    1.8252 O   0  0  0  0  0  0  0  0  0  0  0  0
    4.4024    2.9165   -0.2916 O   0  0  0  0  0  0  0  0  0  0  0  0
    7.4692   -2.3268    1.4146 C   0  0  0  0  0  0  0  0  0  0  0  0
    3.9816    0.3483   -0.5661 N   0  0  0  0  0  0  0  0  0  0  0  0
    3.5149   -0.9819   -0.3672 C   0  0  0  0  0  0  0  0  0  0  0  0
    4.4928   -2.0550   -0.7940 C   0  0  0  0  0  0  0  0  0  0  0  0
    5.8306   -1.8284   -0.3445 N   0  0  0  0  0  0  0  0  0  0  0  0
    6.2549   -0.4732   -0.3994 C   0  0  0  0  0  0  0  0  0  0  0  0
    5.2701    0.3109   -1.2733 C   0  0  0  0  0  0  0  0  0  0  0  0
    6.0913   -2.5143    0.8788 C   0  0  0  0  0  0  0  0  0  0  0  0
   -1.2272    0.1623    0.2546 C   0  0  0  0  0  0  0  0  0  0  0  0
   -0.8415   -0.8787    1.1295 N   0  0  0  0  0  0  0  0  0  0  0  0
   -1.7982   -1.9033    1.4002 C   0  0  0  0  0  0  0  0  0  0  0  0
   -3.1436   -1.2745    1.5240 C   0  0  0  0  0  0  0  0  0  0  0  0
   -3.3955   -0.6556    0.2238 N   0  0  0  0  0  0  0  0  0  0  0  0
   -2.6143    0.4971    0.2179 N   0  0  0  0  0  0  0  0  0  0  0  0
   -1.4263   -2.6076    2.5394 O   0  0  0  0  0  0  0  0  0  0  0  0
   -4.2854   -2.2321    1.6527 C   0  0  0  0  0  0  0  0  0  0  0  0
   -5.3347   -1.5780    0.9455 N   0  0  0  0  0  0  0  0  0  0  0  0
   -4.7988   -0.4436    0.2368 C   0  0  0  0  0  0  0  0  0  0  0  0
   -3.9747   -3.6136    1.1664 C   0  0  0  0  0  0  0  0  0  0  0  0
   -5.2774   -0.3886   -1.1857 C   0  0  0  0  0  0  0  0  0  0  0  0
   -4.9877   -1.6472   -1.9523 C   0  0  0  0  0  0  0  0  0  0  0  0
   -5.4998   -1.5015   -3.3706 C   0  0  0  0  0  0  0  0  0  0  0  0
   -2.2639    4.1749   -1.4433 H   0  0  0  0  0  0  0  0  0  0  0  0
   -2.5927    5.8262   -0.7106 H   0  0  0  0  0  0  0  0  0  0  0  0
   -3.7665    4.5267   -0.4563 H   0  0  0  0  0  0  0  0  0  0  0  0
   -2.6180    3.6006    1.2461 H   0  0  0  0  0  0  0  0  0  0  0  0
   -1.9418    5.2301    1.3800 H   0  0  0  0  0  0  0  0  0  0  0  0
   -1.9405    2.4396   -0.4236 H   0  0  0  0  0  0  0  0  0  0  0  0
    0.0567    3.7125   -1.8250 H   0  0  0  0  0  0  0  0  0  0  0  0
   -0.7003    2.1870   -2.2845 H   0  0  0  0  0  0  0  0  0  0  0  0
    1.0807    0.9216   -1.7582 H   0  0  0  0  0  0  0  0  0  0  0  0
    1.9033    2.4938   -2.2234 H   0  0  0  0  0  0  0  0  0  0  0  0
    1.6759    3.0464    0.3545 H   0  0  0  0  0  0  0  0  0  0  0  0
    1.1551    0.0450    0.4721 H   0  0  0  0  0  0  0  0  0  0  0  0
    1.3284    1.2258    1.8076 H   0  0  0  0  0  0  0  0  0  0  0  0
   -0.8483    1.5943    1.7444 H   0  0  0  0  0  0  0  0  0  0  0  0
    3.4954    0.6446    2.0524 H   0  0  0  0  0  0  0  0  0  0  0  0
    4.0009    3.7001    0.1672 H   0  0  0  0  0  0  0  0  0  0  0  0
    7.4990   -1.4901    2.1361 H   0  0  0  0  0  0  0  0  0  0  0  0
    7.7281   -3.2520    1.9988 H   0  0  0  0  0  0  0  0  0  0  0  0
    8.2485   -2.2443    0.6316 H   0  0  0  0  0  0  0  0  0  0  0  0
    2.6102   -1.1235   -1.0289 H   0  0  0  0  0  0  0  0  0  0  0  0
    3.1845   -1.2208    0.6550 H   0  0  0  0  0  0  0  0  0  0  0  0
    4.4208   -2.1702   -1.8932 H   0  0  0  0  0  0  0  0  0  0  0  0
    4.1334   -3.0103   -0.3528 H   0  0  0  0  0  0  0  0  0  0  0  0
    7.2468   -0.4447   -0.9338 H   0  0  0  0  0  0  0  0  0  0  0  0
    6.3031    0.0522    0.5620 H   0  0  0  0  0  0  0  0  0  0  0  0
    5.6037    1.3716   -1.3775 H   0  0  0  0  0  0  0  0  0  0  0  0
    5.1048   -0.1848   -2.2391 H   0  0  0  0  0  0  0  0  0  0  0  0
    5.8955   -3.6039    0.7082 H   0  0  0  0  0  0  0  0  0  0  0  0
    5.3672   -2.2131    1.6778 H   0  0  0  0  0  0  0  0  0  0  0  0
   -0.9057   -0.0137   -0.8041 H   0  0  0  0  0  0  0  0  0  0  0  0
   -0.2420   -0.6118    1.9172 H   0  0  0  0  0  0  0  0  0  0  0  0
   -1.8290   -2.5801    0.4976 H   0  0  0  0  0  0  0  0  0  0  0  0
   -3.1171   -0.5036    2.3242 H   0  0  0  0  0  0  0  0  0  0  0  0
   -2.8453    1.0296    1.0864 H   0  0  0  0  0  0  0  0  0  0  0  0
   -0.9548   -1.9884    3.1314 H   0  0  0  0  0  0  0  0  0  0  0  0
   -4.5603   -2.3067    2.7294 H   0  0  0  0  0  0  0  0  0  0  0  0
   -5.8906   -2.2153    0.3851 H   0  0  0  0  0  0  0  0  0  0  0  0
   -4.9964    0.5144    0.7743 H   0  0  0  0  0  0  0  0  0  0  0  0
   -3.1804   -4.0340    1.8202 H   0  0  0  0  0  0  0  0  0  0  0  0
   -4.8791   -4.2341    1.3122 H   0  0  0  0  0  0  0  0  0  0  0  0
   -3.5954   -3.6415    0.1312 H   0  0  0  0  0  0  0  0  0  0  0  0
   -4.7296    0.4336   -1.7067 H   0  0  0  0  0  0  0  0  0  0  0  0
   -6.3610   -0.1226   -1.2648 H   0  0  0  0  0  0  0  0  0  0  0  0
   -5.3797   -2.5694   -1.5183 H   0  0  0  0  0  0  0  0  0  0  0  0
   -3.8788   -1.7741   -2.0212 H   0  0  0  0  0  0  0  0  0  0  0  0
   -5.9559   -0.4851   -3.5258 H   0  0  0  0  0  0  0  0  0  0  0  0
   -4.7144   -1.6490   -4.1223 H   0  0  0  0  0  0  0  0  0  0  0  0
   -6.3408   -2.2271   -3.5496 H   0  0  0  0  0  0  0  0  0  0  0  0
   -2.2639    4.1749   -1.4433 H   0  0  0  0  0  0  0  0  0  0  0  0
   -2.5927    5.8262   -0.7106 H   0  0  0  0  0  0  0  0  0  0  0  0
   -3.7665    4.5267   -0.4563 H   0  0  0  0  0  0  0  0  0  0  0  0
   -2.6180    3.6006    1.2461 H   0  0  0  0  0  0  0  0  0  0  0  0
   -1.9418    5.2301    1.3800 H   0  0  0  0  0  0  0  0  0  0  0  0
   -1.9405    2.4396   -0.4236 H   0  0  0  0  0  0  0  0  0  0  0  0
    0.0567    3.7125   -1.8250 H   0  0  0  0  0  0  0  0  0  0  0  0
   -0.7003    2.1870   -2.2845 H   0  0  0  0  0  0  0  0  0  0  0  0
    1.0807    0.9216   -1.7582 H   0  0  0  0  0  0  0  0  0  0  0  0
    1.9033    2.4938   -2.2234 H   0  0  0  0  0  0  0  0  0  0  0  0
    1.6759    3.0464    0.3545 H   0  0  0  0  0  0  0  0  0  0  0  0
    1.1551    0.0450    0.4721 H   0  0  0  0  0  0  0  0  0  0  0  0
    1.3284    1.2258    1.8076 H   0  0  0  0  0  0  0  0  0  0  0  0
   -0.8483    1.5943    1.7444 H   0  0  0  0  0  0  0  0  0  0  0  0
    3.4954    0.6446    2.0524 H   0  0  0  0  0  0  0  0  0  0  0  0
    4.0009    3.7001    0.1672 H   0  0  0  0  0  0  0  0  0  0  0  0
    7.4990   -1.4901    2.1361 H   0  0  0  0  0  0  0  0  0  0  0  0
    7.7281   -3.2520    1.9988 H   0  0  0  0  0  0  0  0  0  0  0  0
    8.2485   -2.2443    0.6316 H   0  0  0  0  0  0  0  0  0  0  0  0
    2.6102   -1.1235   -1.0289 H   0  0  0  0  0  0  0  0  0  0  0  0
    3.1845   -1.2208    0.6550 H   0  0  0  0  0  0  0  0  0  0  0  0
    4.4208   -2.1702   -1.8932 H   0  0  0  0  0  0  0  0  0  0  0  0
    4.1334   -3.0103   -0.3528 H   0  0  0  0  0  0  0  0  0  0  0  0
    7.2468   -0.4447   -0.9338 H   0  0  0  0  0  0  0  0  0  0  0  0
    6.3031    0.0522    0.5620 H   0  0  0  0  0  0  0  0  0  0  0  0
    5.6037    1.3716   -1.3775 H   0  0  0  0  0  0  0  0  0  0  0  0
    5.1048   -0.1848   -2.2391 H   0  0  0  0  0  0  0  0  0  0  0  0
    5.8955   -3.6039    0.7082 H   0  0  0  0  0  0  0  0  0  0  0  0
    5.3672   -2.2131    1.6778 H   0  0  0  0  0  0  0  0  0  0  0  0
   -0.9057   -0.0137   -0.8041 H   0  0  0  0  0  0  0  0  0  0  0  0
   -0.2420   -0.6118    1.9172 H   0  0  0  0  0  0  0  0  0  0  0  0
   -1.8290   -2.5801    0.4976 H   0  0  0  0  0  0  0  0  0  0  0  0
   -3.1171   -0.5036    2.3242 H   0  0  0  0  0  0  0  0  0  0  0  0
   -2.8453    1.0296    1.0864 H   0  0  0  0  0  0  0  0  0  0  0  0
   -0.9548   -1.9884    3.1314 H   0  0  0  0  0  0  0  0  0  0  0  0
   -4.5603   -2.3067    2.7294 H   0  0  0  0  0  0  0  0  0  0  0  0
   -5.8906   -2.2153    0.3851 H   0  0  0  0  0  0  0  0  0  0  0  0
   -4.9964    0.5144    0.7743 H   0  0  0  0  0  0  0  0  0  0  0  0
   -3.1804   -4.0340    1.8202 H   0  0  0  0  0  0  0  0  0  0  0  0
   -4.8791   -4.2341    1.3122 H   0  0  0  0  0  0  0  0  0  0  0  0
   -3.5954   -3.6415    0.1312 H   0  0  0  0  0  0  0  0  0  0  0  0
   -4.7296    0.4336   -1.7067 H   0  0  0  0  0  0  0  0  0  0  0  0
   -6.3610   -0.1226   -1.2648 H   0  0  0  0  0  0  0  0  0  0  0  0
   -5.3797   -2.5694   -1.5183 H   0  0  0  0  0  0  0  0  0  0  0  0
   -3.8788   -1.7741   -2.0212 H   0  0  0  0  0  0  0  0  0  0  0  0
   -5.9559   -0.4851   -3.5258 H   0  0  0  0  0  0  0  0  0  0  0  0
   -4.7144   -1.6490   -4.1223 H   0  0  0  0  0  0  0  0  0  0  0  0
   -6.3408   -2.2271   -3.5496 H   0  0  0  0  0  0  0  0  0  0  0  0
  1  2  1  0
  2  3  1  0
  3  4  1  0
  4  5  1  0
  5  6  1  0
  6  7  1  0
  7  8  1  0
  4  9  1  0
  8  9  1  0
  7 10  1  0
 10 11  1  0
 10 12  1  0
 10 14  1  0
 14 15  1  0
 15 16  1  0
 16 17  1  0
 17 18  1  0
 14 19  1  0
 18 19  1  0
 13 20  1  0
 17 20  1  0
  9 21  1  0
 21 22  1  0
 22 23  1  0
 23 24  1  0
 24 25  1  0
 21 26  1  0
 25 26  1  0
 23 27  1  0
 24 28  1  0
 28 29  1  0
 25 30  1  0
 29 30  1  0
 28 31  1  0
 30 32  1  0
 32 33  1  0
 33 34  1  0
 35 36  1  0
 36 37  1  0
 37 38  1  0
 38 39  1  0
 39 40  1  0
 40 41  1  0
 41 42  1  0
 38 43  1  0
 42 43  1  0
 41 44  1  0
 44 45  1  0
 44 46  1  0
 44 48  1  0
 48 49  1  0
 49 50  1  0
 50 51  1  0
 51 52  1  0
 48 53  1  0
 52 53  1  0
 47 54  1  0
 51 54  1  0
 43 55  1  0
 55 56  1  0
 56 57  1  0
 57 58  1  0
 58 59  1  0
 55 60  1  0
 59 60  1  0
 57 61  1  0
 58 62  1  0
 62 63  1  0
 59 64  1  0
 63 64  1  0
 62 65  1  0
 64 66  1  0
 66 67  1  0
 67 68  1  0
  1 69  1  0
  1 70  1  0
  1 71  1  0
  2 72  1  0
  2 73  1  0
  4 74  1  0
  5 75  1  0
  5 76  1  0
  6 77  1  0
  6 78  1  0
  7 79  1  0
  8 80  1  0
  8 81  1  0
  9 82  1  0
 11 83  1  0
 12 84  1  0
 13 85  1  0
 13 86  1  0
 13 87  1  0
 15 88  1  0
 15 89  1  0
 16 90  1  0
 16 91  1  0
 18 92  1  0
 18 93  1  0
 19 94  1  0
 19 95  1  0
 20 96  1  0
 20 97  1  0
 21 98  1  0
 22 99  1  0
 23100  1  0
 24101  1  0
 26102  1  0
 27103  1  0
 28104  1  0
 29105  1  0
 30106  1  0
 31107  1  0
 31108  1  0
 31109  1  0
 32110  1  0
 32111  1  0
 33112  1  0
 33113  1  0
 34114  1  0
 34115  1  0
 34116  1  0
 35117  1  0
 35118  1  0
 35119  1  0
 36120  1  0
 36121  1  0
 38122  1  0
 39123  1  0
 39124  1  0
 40125  1  0
 40126  1  0
 41127  1  0
 42128  1  0
 42129  1  0
 43130  1  0
 45131  1  0
 46132  1  0
 47133  1  0
 47134  1  0
 47135  1  0
 49136  1  0
 49137  1  0
 50138  1  0
 50139  1  0
 52140  1  0
 52141  1  0
 53142  1  0
 53143  1  0
 54144  1  0
 54145  1  0
 55146  1  0
 56147  1  0
 57148  1  0
 58149  1  0
 60150  1  0
 61151  1  0
 62152  1  0
 63153  1  0
 64154  1  0
 65155  1  0
 65156  1  0
 65157  1  0
 66158  1  0
 66159  1  0
 67160  1  0
 67161  1  0
 68162  1  0
 68163  1  0
 68164  1  0
M  END
>  <PDBID>  (1) 
3B2R

>  <PDB ID>  (1) 
3B2R

>  <Generic Name>  (1) 
Vardenafil

>  <Brand Name>  (1) 
Levitra#Staxyn#Vivanza

>  <DrugBank ID>  (1) 
DB00862

>  <ATC Codes>  (1) 
G04BE09

>  <Ligand ID>  (1) 
VDN

>  <Target Name>  (1) 
cGMP-specific 3',5'-cyclic phosphodiesterase

>  <UniProt ID>  (1) 
O76074

>  <PDB ID.1>  (1) 
3B2R

>  <Seq. Identity>  (1) 
94%

$$$$
