PDB_DB00476_04
     RDKit          3D

 54 56  0  0  0  0  0  0  0  0999 V2000
   -5.2715    2.2442    1.4180 C   0  0  0  0  0  0  0  0  0  0  0  0
   -4.1358    1.6360    0.7058 N   0  0  0  0  0  0  0  0  0  0  0  0
   -3.0364    1.5696    1.6395 C   0  0  0  0  0  0  0  0  0  0  0  0
   -1.7149    1.2465    1.0845 C   0  0  0  0  0  0  0  0  0  0  0  0
   -1.2905   -0.0031    0.4520 C   0  0  1  0  0  0  0  0  0  0  0  0
   -2.2808   -0.3794   -0.7619 C   0  0  0  0  0  0  0  0  0  0  0  0
   -3.9139   -0.7630   -0.2021 S   0  0  0  0  0  0  0  0  0  0  0  0
   -3.9399   -2.5634   -0.6356 C   0  0  0  0  0  0  0  0  0  0  0  0
   -2.9168   -2.5271   -1.7567 C   0  0  0  0  0  0  0  0  0  0  0  0
   -1.7688   -1.6720   -1.3188 C   0  0  0  0  0  0  0  0  0  0  0  0
   -0.1297   -0.0266   -0.1038 O   0  0  0  0  0  0  0  0  0  0  0  0
    0.9693   -0.0577   -0.6282 C   0  0  0  0  0  0  0  0  0  0  0  0
    2.1461    0.2747    0.3226 C   0  0  0  0  0  0  0  0  0  0  0  0
    2.1850   -0.9345    1.2670 C   0  0  0  0  0  0  0  0  0  0  0  0
    3.3794   -1.0272    2.1167 C   0  0  0  0  0  0  0  0  0  0  0  0
    4.6938   -0.6160    1.4953 C   0  0  0  0  0  0  0  0  0  0  0  0
    4.5426    0.5952    0.6159 C   0  0  0  0  0  0  0  0  0  0  0  0
    3.4675    0.2204   -0.3955 C   0  0  0  0  0  0  0  0  0  0  0  0
    3.5647    0.9592   -1.6812 C   0  0  0  0  0  0  0  0  0  0  0  0
    2.4105    0.4518   -2.5451 C   0  0  0  0  0  0  0  0  0  0  0  0
    1.1558    0.8629   -1.8424 C   0  0  0  0  0  0  0  0  0  0  0  0
   -4.9930    2.5544    2.4378 H   0  0  0  0  0  0  0  0  0  0  0  0
   -6.1635    1.6174    1.4359 H   0  0  0  0  0  0  0  0  0  0  0  0
   -5.5673    3.1853    0.8687 H   0  0  0  0  0  0  0  0  0  0  0  0
   -3.9430    2.1859   -0.1234 H   0  0  0  0  0  0  0  0  0  0  0  0
   -3.3595    0.8161    2.4077 H   0  0  0  0  0  0  0  0  0  0  0  0
   -3.0336    2.5319    2.2233 H   0  0  0  0  0  0  0  0  0  0  0  0
   -0.9899    1.4792    1.9510 H   0  0  0  0  0  0  0  0  0  0  0  0
   -1.5173    2.1114    0.3132 H   0  0  0  0  0  0  0  0  0  0  0  0
   -1.5022   -0.8907    1.0477 H   0  0  0  0  0  0  0  0  0  0  0  0
   -2.2693    0.4251   -1.4832 H   0  0  0  0  0  0  0  0  0  0  0  0
   -4.8920   -2.8812   -1.0457 H   0  0  0  0  0  0  0  0  0  0  0  0
   -3.5770   -3.1661    0.2119 H   0  0  0  0  0  0  0  0  0  0  0  0
   -2.4864   -3.5333   -1.9860 H   0  0  0  0  0  0  0  0  0  0  0  0
   -3.3689   -2.0586   -2.6494 H   0  0  0  0  0  0  0  0  0  0  0  0
   -1.2182   -2.2751   -0.5523 H   0  0  0  0  0  0  0  0  0  0  0  0
   -1.1566   -1.5203   -2.2254 H   0  0  0  0  0  0  0  0  0  0  0  0
    1.3344   -1.0865   -0.9606 H   0  0  0  0  0  0  0  0  0  0  0  0
    1.9775    1.1840    0.8558 H   0  0  0  0  0  0  0  0  0  0  0  0
    1.2798   -0.8984    1.8945 H   0  0  0  0  0  0  0  0  0  0  0  0
    2.0339   -1.8408    0.6245 H   0  0  0  0  0  0  0  0  0  0  0  0
    3.5351   -2.1220    2.3904 H   0  0  0  0  0  0  0  0  0  0  0  0
    3.2304   -0.5493    3.1389 H   0  0  0  0  0  0  0  0  0  0  0  0
    5.3982   -0.3645    2.3117 H   0  0  0  0  0  0  0  0  0  0  0  0
    5.1263   -1.4314    0.8929 H   0  0  0  0  0  0  0  0  0  0  0  0
    4.1485    1.4305    1.2046 H   0  0  0  0  0  0  0  0  0  0  0  0
    5.5013    0.7818    0.1415 H   0  0  0  0  0  0  0  0  0  0  0  0
    3.6835   -0.8740   -0.6531 H   0  0  0  0  0  0  0  0  0  0  0  0
    3.5458    2.0612   -1.5681 H   0  0  0  0  0  0  0  0  0  0  0  0
    4.4750    0.6676   -2.2219 H   0  0  0  0  0  0  0  0  0  0  0  0
    2.4766    0.8894   -3.5697 H   0  0  0  0  0  0  0  0  0  0  0  0
    2.4995   -0.6488   -2.5587 H   0  0  0  0  0  0  0  0  0  0  0  0
    1.3465    1.9191   -1.4594 H   0  0  0  0  0  0  0  0  0  0  0  0
    0.3299    0.8100   -2.5413 H   0  0  0  0  0  0  0  0  0  0  0  0
  1  2  1  0
  2  3  1  0
  3  4  1  0
  4  5  1  0
  5  6  1  0
  6  7  1  0
  7  8  1  0
  8  9  1  0
  6 10  1  0
  9 10  1  0
  5 11  1  0
 11 12  1  0
 12 13  1  0
 13 14  1  0
 14 15  1  0
 15 16  1  0
 16 17  1  0
 13 18  1  0
 17 18  1  0
 18 19  1  0
 19 20  1  0
 12 21  1  0
 20 21  1  0
  1 22  1  0
  1 23  1  0
  1 24  1  0
  2 25  1  0
  3 26  1  0
  3 27  1  0
  4 28  1  0
  4 29  1  0
  5 30  1  1
  6 31  1  0
  8 32  1  0
  8 33  1  0
  9 34  1  0
  9 35  1  0
 10 36  1  0
 10 37  1  0
 12 38  1  0
 13 39  1  0
 14 40  1  0
 14 41  1  0
 15 42  1  0
 15 43  1  0
 16 44  1  0
 16 45  1  0
 17 46  1  0
 17 47  1  0
 18 48  1  0
 19 49  1  0
 19 50  1  0
 20 51  1  0
 20 52  1  0
 21 53  1  0
 21 54  1  0
M  END
>  <PDBID>  (1) 
4MM6

>  <PDB ID>  (1) 
4MM6

>  <Generic Name>  (1) 
Duloxetine

>  <Brand Name>  (1) 
Act Duloxetine#Apo-duloxetine#Auro-duloxetine#Cymbalta#Dom-duloxetine#Duloxetine#Duloxetine Delayed-release#Duloxetine Dr#Duloxetine Hydrochloride#Duloxetine Hydrochloride 20 mg#Duloxetine Hydrochloride 30 mg#Duloxetine Hydrochloride 60 mg#Ipg-duloxetine#Irenka#Jamp-duloxetine#Mar-duloxetine#Mint-duloxetine#Mylan-duloxetine#PMS-duloxetine#Ran-duloxetine#Riva-duloxetine#Sandoz Duloxetine#Taro-duloxetine#Teva-duloxetine Dr#Torrent-duloxetine#Ariclaim#Dulane#Duzela#Xeristar#Yentreve

>  <DrugBank ID>  (1) 
DB00476

>  <ATC Codes>  (1) 
N06AX21

>  <Ligand ID>  (1) 
29E

>  <Target Name>  (1) 
Sodium-dependent noradrenaline transporter

>  <UniProt ID>  (1) 
P23975

>  <PDB ID.1>  (1) 
4MM6

>  <Seq. Identity>  (1) 
30%

$$$$
