PDB_DB12332_05
     RDKit          3D

116122  0  0  0  0  0  0  0  0999 V2000
   -4.6586    1.4990    0.3135 O   0  0  0  0  0  0  0  0  0  0  0  0
   -4.0142    1.4322   -0.9190 C   0  0  1  0  0  0  0  0  0  0  0  0
   -2.8925    2.3063   -1.0167 N   0  0  0  0  0  0  0  0  0  0  0  0
   -2.2571    2.3348    0.2675 C   0  0  0  0  0  0  0  0  0  0  0  0
   -1.0989    1.3688    0.3679 C   0  0  0  0  0  0  0  0  0  0  0  0
   -1.1432    0.2113   -0.5586 C   0  0  0  0  0  0  0  0  0  0  0  0
   -2.4470   -0.5345   -0.6025 C   0  0  0  0  0  0  0  0  0  0  0  0
   -3.6260    0.0331   -1.1931 C   0  0  0  0  0  0  0  0  0  0  0  0
   -4.8171   -0.8367   -0.7531 C   0  0  0  0  0  0  0  0  0  0  0  0
   -4.3683   -2.2028   -0.3114 C   0  0  0  0  0  0  0  0  0  0  0  0
   -3.9351   -2.9907   -1.3677 F   0  0  0  0  0  0  0  0  0  0  0  0
   -3.4199   -2.1995    0.8475 C   0  0  0  0  0  0  0  0  0  0  0  0
   -2.5381   -0.9777    0.8445 C   0  0  0  0  0  0  0  0  0  0  0  0
   -1.1640   -1.2549    1.1796 N   0  0  0  0  0  0  0  0  0  0  0  0
   -0.3511   -0.9343    0.0257 C   0  0  2  0  0  0  0  0  0  0  0  0
    1.0710   -0.8013    0.2746 C   0  0  0  0  0  0  0  0  0  0  0  0
    1.9491   -0.4658   -0.8706 C   0  0  0  0  0  0  0  0  0  0  0  0
    3.0163    0.5893   -0.5586 C   0  0  0  0  0  0  0  0  0  0  0  0
    1.4635   -0.0494    1.5319 C   0  0  0  0  0  0  0  0  0  0  0  0
    2.9419   -0.4447    1.7364 C   0  0  0  0  0  0  0  0  0  0  0  0
    3.6845    0.4329    0.7461 C   0  0  0  0  0  0  0  0  0  0  0  0
    5.1192    0.0706    0.6098 C   0  0  0  0  0  0  0  0  0  0  0  0
    5.8165    1.1111   -0.1049 N   0  0  0  0  0  0  0  0  0  0  0  0
    7.2433    0.7855   -0.2355 C   0  0  0  0  0  0  0  0  0  0  0  0
   -4.6586    1.4990    0.3135 O   0  0  0  0  0  0  0  0  0  0  0  0
   -4.0142    1.4322   -0.9190 C   0  0  1  0  0  0  0  0  0  0  0  0
   -2.8925    2.3063   -1.0167 N   0  0  0  0  0  0  0  0  0  0  0  0
   -2.2571    2.3348    0.2675 C   0  0  0  0  0  0  0  0  0  0  0  0
   -1.0989    1.3688    0.3679 C   0  0  0  0  0  0  0  0  0  0  0  0
   -1.1432    0.2113   -0.5586 C   0  0  0  0  0  0  0  0  0  0  0  0
   -2.4470   -0.5345   -0.6025 C   0  0  0  0  0  0  0  0  0  0  0  0
   -3.6260    0.0331   -1.1931 C   0  0  0  0  0  0  0  0  0  0  0  0
   -4.8171   -0.8367   -0.7531 C   0  0  0  0  0  0  0  0  0  0  0  0
   -4.3683   -2.2028   -0.3114 C   0  0  0  0  0  0  0  0  0  0  0  0
   -3.9351   -2.9907   -1.3677 F   0  0  0  0  0  0  0  0  0  0  0  0
   -3.4199   -2.1995    0.8475 C   0  0  0  0  0  0  0  0  0  0  0  0
   -2.5381   -0.9777    0.8445 C   0  0  0  0  0  0  0  0  0  0  0  0
   -1.1640   -1.2549    1.1796 N   0  0  0  0  0  0  0  0  0  0  0  0
   -0.3511   -0.9343    0.0257 C   0  0  2  0  0  0  0  0  0  0  0  0
    1.0710   -0.8013    0.2746 C   0  0  0  0  0  0  0  0  0  0  0  0
    1.9491   -0.4658   -0.8706 C   0  0  0  0  0  0  0  0  0  0  0  0
    3.0163    0.5893   -0.5586 C   0  0  0  0  0  0  0  0  0  0  0  0
    1.4635   -0.0494    1.5319 C   0  0  0  0  0  0  0  0  0  0  0  0
    2.9419   -0.4447    1.7364 C   0  0  0  0  0  0  0  0  0  0  0  0
    3.6845    0.4329    0.7461 C   0  0  0  0  0  0  0  0  0  0  0  0
    5.1192    0.0706    0.6098 C   0  0  0  0  0  0  0  0  0  0  0  0
    5.8165    1.1111   -0.1049 N   0  0  0  0  0  0  0  0  0  0  0  0
    7.2433    0.7855   -0.2355 C   0  0  0  0  0  0  0  0  0  0  0  0
   -5.1102    2.3757    0.4495 H   0  0  0  0  0  0  0  0  0  0  0  0
   -4.7935    1.7277   -1.6803 H   0  0  0  0  0  0  0  0  0  0  0  0
   -2.2492    1.9982   -1.7751 H   0  0  0  0  0  0  0  0  0  0  0  0
   -1.9300    3.4045    0.4317 H   0  0  0  0  0  0  0  0  0  0  0  0
   -2.9475    2.1230    1.0956 H   0  0  0  0  0  0  0  0  0  0  0  0
   -0.9362    1.0371    1.4051 H   0  0  0  0  0  0  0  0  0  0  0  0
   -0.2185    1.9894    0.0831 H   0  0  0  0  0  0  0  0  0  0  0  0
   -0.8438    0.4464   -1.5973 H   0  0  0  0  0  0  0  0  0  0  0  0
   -2.2123   -1.4924   -1.1659 H   0  0  0  0  0  0  0  0  0  0  0  0
   -3.5947   -0.0936   -2.3080 H   0  0  0  0  0  0  0  0  0  0  0  0
   -5.3479   -0.3670    0.0857 H   0  0  0  0  0  0  0  0  0  0  0  0
   -5.5376   -0.9776   -1.5752 H   0  0  0  0  0  0  0  0  0  0  0  0
   -5.3077   -2.7130    0.0559 H   0  0  0  0  0  0  0  0  0  0  0  0
   -2.7677   -3.0936    0.7747 H   0  0  0  0  0  0  0  0  0  0  0  0
   -3.9599   -2.2694    1.8137 H   0  0  0  0  0  0  0  0  0  0  0  0
   -3.0099   -0.2348    1.4866 H   0  0  0  0  0  0  0  0  0  0  0  0
   -1.0152   -2.2752    1.4074 H   0  0  0  0  0  0  0  0  0  0  0  0
   -0.5392   -1.7949   -0.6889 H   0  0  0  0  0  0  0  0  0  0  0  0
    1.4054   -1.8698    0.5595 H   0  0  0  0  0  0  0  0  0  0  0  0
    1.3932   -0.0538   -1.7562 H   0  0  0  0  0  0  0  0  0  0  0  0
    2.5271   -1.3254   -1.2979 H   0  0  0  0  0  0  0  0  0  0  0  0
    2.4278    1.5548   -0.5689 H   0  0  0  0  0  0  0  0  0  0  0  0
    3.6649    0.6185   -1.4449 H   0  0  0  0  0  0  0  0  0  0  0  0
    0.8529   -0.4698    2.3516 H   0  0  0  0  0  0  0  0  0  0  0  0
    1.4482    1.0317    1.4482 H   0  0  0  0  0  0  0  0  0  0  0  0
    3.0515   -1.5049    1.4540 H   0  0  0  0  0  0  0  0  0  0  0  0
    3.2671   -0.2542    2.7659 H   0  0  0  0  0  0  0  0  0  0  0  0
    3.6830    1.4545    1.2516 H   0  0  0  0  0  0  0  0  0  0  0  0
    5.2756   -0.9059    0.0877 H   0  0  0  0  0  0  0  0  0  0  0  0
    5.5859   -0.0001    1.6160 H   0  0  0  0  0  0  0  0  0  0  0  0
    5.4819    1.2772   -1.0601 H   0  0  0  0  0  0  0  0  0  0  0  0
    7.7236    0.8789    0.7743 H   0  0  0  0  0  0  0  0  0  0  0  0
    7.2915   -0.2466   -0.6149 H   0  0  0  0  0  0  0  0  0  0  0  0
    7.6670    1.5416   -0.9105 H   0  0  0  0  0  0  0  0  0  0  0  0
   -5.1102    2.3757    0.4495 H   0  0  0  0  0  0  0  0  0  0  0  0
   -4.7935    1.7277   -1.6803 H   0  0  0  0  0  0  0  0  0  0  0  0
   -2.2492    1.9982   -1.7751 H   0  0  0  0  0  0  0  0  0  0  0  0
   -1.9300    3.4045    0.4317 H   0  0  0  0  0  0  0  0  0  0  0  0
   -2.9475    2.1230    1.0956 H   0  0  0  0  0  0  0  0  0  0  0  0
   -0.9362    1.0371    1.4051 H   0  0  0  0  0  0  0  0  0  0  0  0
   -0.2185    1.9894    0.0831 H   0  0  0  0  0  0  0  0  0  0  0  0
   -0.8438    0.4464   -1.5973 H   0  0  0  0  0  0  0  0  0  0  0  0
   -2.2123   -1.4924   -1.1659 H   0  0  0  0  0  0  0  0  0  0  0  0
   -3.5947   -0.0936   -2.3080 H   0  0  0  0  0  0  0  0  0  0  0  0
   -5.3479   -0.3670    0.0857 H   0  0  0  0  0  0  0  0  0  0  0  0
   -5.5376   -0.9776   -1.5752 H   0  0  0  0  0  0  0  0  0  0  0  0
   -5.3077   -2.7130    0.0559 H   0  0  0  0  0  0  0  0  0  0  0  0
   -2.7677   -3.0936    0.7747 H   0  0  0  0  0  0  0  0  0  0  0  0
   -3.9599   -2.2694    1.8137 H   0  0  0  0  0  0  0  0  0  0  0  0
   -3.0099   -0.2348    1.4866 H   0  0  0  0  0  0  0  0  0  0  0  0
   -1.0152   -2.2752    1.4074 H   0  0  0  0  0  0  0  0  0  0  0  0
   -0.5392   -1.7949   -0.6889 H   0  0  0  0  0  0  0  0  0  0  0  0
    1.4054   -1.8698    0.5595 H   0  0  0  0  0  0  0  0  0  0  0  0
    1.3932   -0.0538   -1.7562 H   0  0  0  0  0  0  0  0  0  0  0  0
    2.5271   -1.3254   -1.2979 H   0  0  0  0  0  0  0  0  0  0  0  0
    2.4278    1.5548   -0.5689 H   0  0  0  0  0  0  0  0  0  0  0  0
    3.6649    0.6185   -1.4449 H   0  0  0  0  0  0  0  0  0  0  0  0
    0.8529   -0.4698    2.3516 H   0  0  0  0  0  0  0  0  0  0  0  0
    1.4482    1.0317    1.4482 H   0  0  0  0  0  0  0  0  0  0  0  0
    3.0515   -1.5049    1.4540 H   0  0  0  0  0  0  0  0  0  0  0  0
    3.2671   -0.2542    2.7659 H   0  0  0  0  0  0  0  0  0  0  0  0
    3.6830    1.4545    1.2516 H   0  0  0  0  0  0  0  0  0  0  0  0
    5.2756   -0.9059    0.0877 H   0  0  0  0  0  0  0  0  0  0  0  0
    5.5859   -0.0001    1.6160 H   0  0  0  0  0  0  0  0  0  0  0  0
    5.4819    1.2772   -1.0601 H   0  0  0  0  0  0  0  0  0  0  0  0
    7.7236    0.8789    0.7743 H   0  0  0  0  0  0  0  0  0  0  0  0
    7.2915   -0.2466   -0.6149 H   0  0  0  0  0  0  0  0  0  0  0  0
    7.6670    1.5416   -0.9105 H   0  0  0  0  0  0  0  0  0  0  0  0
  1  2  1  0
  2  3  1  0
  3  4  1  0
  4  5  1  0
  5  6  1  0
  6  7  1  0
  2  8  1  0
  7  8  1  0
  8  9  1  0
  9 10  1  0
 10 11  1  0
 10 12  1  0
  7 13  1  0
 12 13  1  0
 13 14  1  0
  6 15  1  0
 14 15  1  0
 15 16  1  0
 16 17  1  0
 17 18  1  0
 16 19  1  0
 19 20  1  0
 18 21  1  0
 20 21  1  0
 21 22  1  0
 22 23  1  0
 23 24  1  0
 25 26  1  0
 26 27  1  0
 27 28  1  0
 28 29  1  0
 29 30  1  0
 30 31  1  0
 26 32  1  0
 31 32  1  0
 32 33  1  0
 33 34  1  0
 34 35  1  0
 34 36  1  0
 31 37  1  0
 36 37  1  0
 37 38  1  0
 30 39  1  0
 38 39  1  0
 39 40  1  0
 40 41  1  0
 41 42  1  0
 40 43  1  0
 43 44  1  0
 42 45  1  0
 44 45  1  0
 45 46  1  0
 46 47  1  0
 47 48  1  0
  1 49  1  0
  2 50  1  6
  3 51  1  0
  4 52  1  0
  4 53  1  0
  5 54  1  0
  5 55  1  0
  6 56  1  0
  7 57  1  0
  8 58  1  0
  9 59  1  0
  9 60  1  0
 10 61  1  0
 12 62  1  0
 12 63  1  0
 13 64  1  0
 14 65  1  0
 15 66  1  6
 16 67  1  0
 17 68  1  0
 17 69  1  0
 18 70  1  0
 18 71  1  0
 19 72  1  0
 19 73  1  0
 20 74  1  0
 20 75  1  0
 21 76  1  0
 22 77  1  0
 22 78  1  0
 23 79  1  0
 24 80  1  0
 24 81  1  0
 24 82  1  0
 25 83  1  0
 26 84  1  6
 27 85  1  0
 28 86  1  0
 28 87  1  0
 29 88  1  0
 29 89  1  0
 30 90  1  0
 31 91  1  0
 32 92  1  0
 33 93  1  0
 33 94  1  0
 34 95  1  0
 36 96  1  0
 36 97  1  0
 37 98  1  0
 38 99  1  0
 39100  1  6
 40101  1  0
 41102  1  0
 41103  1  0
 42104  1  0
 42105  1  0
 43106  1  0
 43107  1  0
 44108  1  0
 44109  1  0
 45110  1  0
 46111  1  0
 46112  1  0
 47113  1  0
 48114  1  0
 48115  1  0
 48116  1  0
M  END
>  <PDBID>  (1) 
4RV6

>  <PDB ID>  (1) 
4RV6

>  <Generic Name>  (1) 
Rucaparib

>  <Brand Name>  (1) 
Rubraca

>  <DrugBank ID>  (1) 
DB12332

>  <ATC Codes>  (1) 
nan

>  <Ligand ID>  (1) 
RPB

>  <Target Name>  (1) 
Poly [ADP-ribose] polymerase 1

>  <UniProt ID>  (1) 
P09874

>  <PDB ID.1>  (1) 
4RV6

>  <Seq. Identity>  (1) 
100%

$$$$
