PDB_DB12332_09
     RDKit          3D

116122  0  0  0  0  0  0  0  0999 V2000
   -5.7998   -0.3536    1.2479 O   0  0  0  0  0  0  0  0  0  0  0  0
   -4.4483   -0.0517    1.2424 C   0  0  1  0  0  0  0  0  0  0  0  0
   -3.7809   -0.9501    2.1284 N   0  0  0  0  0  0  0  0  0  0  0  0
   -2.3865   -0.6775    2.3508 C   0  0  0  0  0  0  0  0  0  0  0  0
   -1.5067   -1.4317    1.3456 C   0  0  0  0  0  0  0  0  0  0  0  0
   -1.3832   -0.7480    0.0514 C   0  0  0  0  0  0  0  0  0  0  0  0
   -2.4720    0.3321   -0.1002 C   0  0  0  0  0  0  0  0  0  0  0  0
   -3.8424   -0.2071   -0.1602 C   0  0  0  0  0  0  0  0  0  0  0  0
   -4.6268    0.6360   -1.1669 C   0  0  0  0  0  0  0  0  0  0  0  0
   -4.1296    2.0665   -1.1928 C   0  0  0  0  0  0  0  0  0  0  0  0
   -4.2196    2.6618    0.0267 F   0  0  0  0  0  0  0  0  0  0  0  0
   -2.6939    2.1669   -1.6732 C   0  0  0  0  0  0  0  0  0  0  0  0
   -2.0437    0.8472   -1.4713 C   0  0  0  0  0  0  0  0  0  0  0  0
   -0.6203    0.8529   -1.4150 N   0  0  0  0  0  0  0  0  0  0  0  0
   -0.2018    0.1067   -0.2133 C   0  0  2  0  0  0  0  0  0  0  0  0
    1.0795   -0.5464   -0.5447 C   0  0  0  0  0  0  0  0  0  0  0  0
    2.0956    0.5674   -0.8365 C   0  0  0  0  0  0  0  0  0  0  0  0
    2.7379    0.9626    0.4707 C   0  0  0  0  0  0  0  0  0  0  0  0
    1.7135   -1.3825    0.5187 C   0  0  0  0  0  0  0  0  0  0  0  0
    3.2495   -1.4039    0.3509 C   0  0  0  0  0  0  0  0  0  0  0  0
    3.8183   -0.0578    0.7601 C   0  0  0  0  0  0  0  0  0  0  0  0
    5.0025    0.2374   -0.1203 C   0  0  0  0  0  0  0  0  0  0  0  0
    6.0148   -0.7683    0.1947 N   0  0  0  0  0  0  0  0  0  0  0  0
    7.1957   -0.5654   -0.6050 C   0  0  0  0  0  0  0  0  0  0  0  0
   -5.7998   -0.3536    1.2479 O   0  0  0  0  0  0  0  0  0  0  0  0
   -4.4483   -0.0517    1.2424 C   0  0  1  0  0  0  0  0  0  0  0  0
   -3.7809   -0.9501    2.1284 N   0  0  0  0  0  0  0  0  0  0  0  0
   -2.3865   -0.6775    2.3508 C   0  0  0  0  0  0  0  0  0  0  0  0
   -1.5067   -1.4317    1.3456 C   0  0  0  0  0  0  0  0  0  0  0  0
   -1.3832   -0.7480    0.0514 C   0  0  0  0  0  0  0  0  0  0  0  0
   -2.4720    0.3321   -0.1002 C   0  0  0  0  0  0  0  0  0  0  0  0
   -3.8424   -0.2071   -0.1602 C   0  0  0  0  0  0  0  0  0  0  0  0
   -4.6268    0.6360   -1.1669 C   0  0  0  0  0  0  0  0  0  0  0  0
   -4.1296    2.0665   -1.1928 C   0  0  0  0  0  0  0  0  0  0  0  0
   -4.2196    2.6618    0.0267 F   0  0  0  0  0  0  0  0  0  0  0  0
   -2.6939    2.1669   -1.6732 C   0  0  0  0  0  0  0  0  0  0  0  0
   -2.0437    0.8472   -1.4713 C   0  0  0  0  0  0  0  0  0  0  0  0
   -0.6203    0.8529   -1.4150 N   0  0  0  0  0  0  0  0  0  0  0  0
   -0.2018    0.1067   -0.2133 C   0  0  2  0  0  0  0  0  0  0  0  0
    1.0795   -0.5464   -0.5447 C   0  0  0  0  0  0  0  0  0  0  0  0
    2.0956    0.5674   -0.8365 C   0  0  0  0  0  0  0  0  0  0  0  0
    2.7379    0.9626    0.4707 C   0  0  0  0  0  0  0  0  0  0  0  0
    1.7135   -1.3825    0.5187 C   0  0  0  0  0  0  0  0  0  0  0  0
    3.2495   -1.4039    0.3509 C   0  0  0  0  0  0  0  0  0  0  0  0
    3.8183   -0.0578    0.7601 C   0  0  0  0  0  0  0  0  0  0  0  0
    5.0025    0.2374   -0.1203 C   0  0  0  0  0  0  0  0  0  0  0  0
    6.0148   -0.7683    0.1947 N   0  0  0  0  0  0  0  0  0  0  0  0
    7.1957   -0.5654   -0.6050 C   0  0  0  0  0  0  0  0  0  0  0  0
   -6.2497    0.3762    1.7777 H   0  0  0  0  0  0  0  0  0  0  0  0
   -4.2431    0.9831    1.5900 H   0  0  0  0  0  0  0  0  0  0  0  0
   -3.9120   -1.9457    1.9370 H   0  0  0  0  0  0  0  0  0  0  0  0
   -2.1475   -1.1494    3.3503 H   0  0  0  0  0  0  0  0  0  0  0  0
   -2.1225    0.3729    2.4521 H   0  0  0  0  0  0  0  0  0  0  0  0
   -0.6130   -1.7755    1.8499 H   0  0  0  0  0  0  0  0  0  0  0  0
   -2.1088   -2.3778    1.1515 H   0  0  0  0  0  0  0  0  0  0  0  0
   -1.5313   -1.4113   -0.8378 H   0  0  0  0  0  0  0  0  0  0  0  0
   -2.3175    1.1686    0.5924 H   0  0  0  0  0  0  0  0  0  0  0  0
   -3.8957   -1.2623   -0.4365 H   0  0  0  0  0  0  0  0  0  0  0  0
   -5.6948    0.6747   -0.9008 H   0  0  0  0  0  0  0  0  0  0  0  0
   -4.5559    0.2100   -2.1823 H   0  0  0  0  0  0  0  0  0  0  0  0
   -4.7538    2.5985   -1.9358 H   0  0  0  0  0  0  0  0  0  0  0  0
   -2.1294    2.9188   -1.0478 H   0  0  0  0  0  0  0  0  0  0  0  0
   -2.6295    2.5570   -2.7093 H   0  0  0  0  0  0  0  0  0  0  0  0
   -2.4422    0.1538   -2.2681 H   0  0  0  0  0  0  0  0  0  0  0  0
   -0.2758    0.3038   -2.2341 H   0  0  0  0  0  0  0  0  0  0  0  0
   -0.0967    0.8882    0.5916 H   0  0  0  0  0  0  0  0  0  0  0  0
    0.9365   -1.1328   -1.4853 H   0  0  0  0  0  0  0  0  0  0  0  0
    1.5824    1.4746   -1.2155 H   0  0  0  0  0  0  0  0  0  0  0  0
    2.7906    0.2328   -1.6051 H   0  0  0  0  0  0  0  0  0  0  0  0
    3.1602    1.9890    0.3751 H   0  0  0  0  0  0  0  0  0  0  0  0
    1.9686    0.9763    1.2700 H   0  0  0  0  0  0  0  0  0  0  0  0
    1.5723   -0.9876    1.5399 H   0  0  0  0  0  0  0  0  0  0  0  0
    1.4019   -2.4365    0.3848 H   0  0  0  0  0  0  0  0  0  0  0  0
    3.6166   -2.1477    1.0856 H   0  0  0  0  0  0  0  0  0  0  0  0
    3.5452   -1.7169   -0.6495 H   0  0  0  0  0  0  0  0  0  0  0  0
    4.0606   -0.0159    1.8308 H   0  0  0  0  0  0  0  0  0  0  0  0
    4.7720    0.1201   -1.1967 H   0  0  0  0  0  0  0  0  0  0  0  0
    5.3939    1.2575    0.0092 H   0  0  0  0  0  0  0  0  0  0  0  0
    5.6742   -1.7235    0.0350 H   0  0  0  0  0  0  0  0  0  0  0  0
    7.1103    0.4486   -1.0857 H   0  0  0  0  0  0  0  0  0  0  0  0
    8.0643   -0.5473    0.1156 H   0  0  0  0  0  0  0  0  0  0  0  0
    7.3180   -1.3676   -1.3369 H   0  0  0  0  0  0  0  0  0  0  0  0
   -6.2497    0.3762    1.7777 H   0  0  0  0  0  0  0  0  0  0  0  0
   -4.2431    0.9831    1.5900 H   0  0  0  0  0  0  0  0  0  0  0  0
   -3.9120   -1.9457    1.9370 H   0  0  0  0  0  0  0  0  0  0  0  0
   -2.1475   -1.1494    3.3503 H   0  0  0  0  0  0  0  0  0  0  0  0
   -2.1225    0.3729    2.4521 H   0  0  0  0  0  0  0  0  0  0  0  0
   -0.6130   -1.7755    1.8499 H   0  0  0  0  0  0  0  0  0  0  0  0
   -2.1088   -2.3778    1.1515 H   0  0  0  0  0  0  0  0  0  0  0  0
   -1.5313   -1.4113   -0.8378 H   0  0  0  0  0  0  0  0  0  0  0  0
   -2.3175    1.1686    0.5924 H   0  0  0  0  0  0  0  0  0  0  0  0
   -3.8957   -1.2623   -0.4365 H   0  0  0  0  0  0  0  0  0  0  0  0
   -5.6948    0.6747   -0.9008 H   0  0  0  0  0  0  0  0  0  0  0  0
   -4.5559    0.2100   -2.1823 H   0  0  0  0  0  0  0  0  0  0  0  0
   -4.7538    2.5985   -1.9358 H   0  0  0  0  0  0  0  0  0  0  0  0
   -2.1294    2.9188   -1.0478 H   0  0  0  0  0  0  0  0  0  0  0  0
   -2.6295    2.5570   -2.7093 H   0  0  0  0  0  0  0  0  0  0  0  0
   -2.4422    0.1538   -2.2681 H   0  0  0  0  0  0  0  0  0  0  0  0
   -0.2758    0.3038   -2.2341 H   0  0  0  0  0  0  0  0  0  0  0  0
   -0.0967    0.8882    0.5916 H   0  0  0  0  0  0  0  0  0  0  0  0
    0.9365   -1.1328   -1.4853 H   0  0  0  0  0  0  0  0  0  0  0  0
    1.5824    1.4746   -1.2155 H   0  0  0  0  0  0  0  0  0  0  0  0
    2.7906    0.2328   -1.6051 H   0  0  0  0  0  0  0  0  0  0  0  0
    3.1602    1.9890    0.3751 H   0  0  0  0  0  0  0  0  0  0  0  0
    1.9686    0.9763    1.2700 H   0  0  0  0  0  0  0  0  0  0  0  0
    1.5723   -0.9876    1.5399 H   0  0  0  0  0  0  0  0  0  0  0  0
    1.4019   -2.4365    0.3848 H   0  0  0  0  0  0  0  0  0  0  0  0
    3.6166   -2.1477    1.0856 H   0  0  0  0  0  0  0  0  0  0  0  0
    3.5452   -1.7169   -0.6495 H   0  0  0  0  0  0  0  0  0  0  0  0
    4.0606   -0.0159    1.8308 H   0  0  0  0  0  0  0  0  0  0  0  0
    4.7720    0.1201   -1.1967 H   0  0  0  0  0  0  0  0  0  0  0  0
    5.3939    1.2575    0.0092 H   0  0  0  0  0  0  0  0  0  0  0  0
    5.6742   -1.7235    0.0350 H   0  0  0  0  0  0  0  0  0  0  0  0
    7.1103    0.4486   -1.0857 H   0  0  0  0  0  0  0  0  0  0  0  0
    8.0643   -0.5473    0.1156 H   0  0  0  0  0  0  0  0  0  0  0  0
    7.3180   -1.3676   -1.3369 H   0  0  0  0  0  0  0  0  0  0  0  0
  1  2  1  0
  2  3  1  0
  3  4  1  0
  4  5  1  0
  5  6  1  0
  6  7  1  0
  2  8  1  0
  7  8  1  0
  8  9  1  0
  9 10  1  0
 10 11  1  0
 10 12  1  0
  7 13  1  0
 12 13  1  0
 13 14  1  0
  6 15  1  0
 14 15  1  0
 15 16  1  0
 16 17  1  0
 17 18  1  0
 16 19  1  0
 19 20  1  0
 18 21  1  0
 20 21  1  0
 21 22  1  0
 22 23  1  0
 23 24  1  0
 25 26  1  0
 26 27  1  0
 27 28  1  0
 28 29  1  0
 29 30  1  0
 30 31  1  0
 26 32  1  0
 31 32  1  0
 32 33  1  0
 33 34  1  0
 34 35  1  0
 34 36  1  0
 31 37  1  0
 36 37  1  0
 37 38  1  0
 30 39  1  0
 38 39  1  0
 39 40  1  0
 40 41  1  0
 41 42  1  0
 40 43  1  0
 43 44  1  0
 42 45  1  0
 44 45  1  0
 45 46  1  0
 46 47  1  0
 47 48  1  0
  1 49  1  0
  2 50  1  1
  3 51  1  0
  4 52  1  0
  4 53  1  0
  5 54  1  0
  5 55  1  0
  6 56  1  0
  7 57  1  0
  8 58  1  0
  9 59  1  0
  9 60  1  0
 10 61  1  0
 12 62  1  0
 12 63  1  0
 13 64  1  0
 14 65  1  0
 15 66  1  1
 16 67  1  0
 17 68  1  0
 17 69  1  0
 18 70  1  0
 18 71  1  0
 19 72  1  0
 19 73  1  0
 20 74  1  0
 20 75  1  0
 21 76  1  0
 22 77  1  0
 22 78  1  0
 23 79  1  0
 24 80  1  0
 24 81  1  0
 24 82  1  0
 25 83  1  0
 26 84  1  1
 27 85  1  0
 28 86  1  0
 28 87  1  0
 29 88  1  0
 29 89  1  0
 30 90  1  0
 31 91  1  0
 32 92  1  0
 33 93  1  0
 33 94  1  0
 34 95  1  0
 36 96  1  0
 36 97  1  0
 37 98  1  0
 38 99  1  0
 39100  1  1
 40101  1  0
 41102  1  0
 41103  1  0
 42104  1  0
 42105  1  0
 43106  1  0
 43107  1  0
 44108  1  0
 44109  1  0
 45110  1  0
 46111  1  0
 46112  1  0
 47113  1  0
 48114  1  0
 48115  1  0
 48116  1  0
M  END
>  <PDBID>  (1) 
4RV6

>  <PDB ID>  (1) 
4RV6

>  <Generic Name>  (1) 
Rucaparib

>  <Brand Name>  (1) 
Rubraca

>  <DrugBank ID>  (1) 
DB12332

>  <ATC Codes>  (1) 
nan

>  <Ligand ID>  (1) 
RPB

>  <Target Name>  (1) 
Poly [ADP-ribose] polymerase 1

>  <UniProt ID>  (1) 
P09874

>  <PDB ID.1>  (1) 
4RV6

>  <Seq. Identity>  (1) 
100%

$$$$
