PDB_DB01157_04
     RDKit          3D

264272  0  0  0  0  0  0  0  0999 V2000
   -5.0383    1.6945   -0.7633 N   0  0  0  0  0  0  0  0  0  0  0  0
   -6.0638    0.8228   -0.2339 C   0  0  1  0  0  0  0  0  0  0  0  0
   -5.5761    0.0542    0.9024 N   0  0  0  0  0  0  0  0  0  0  0  0
   -4.6965   -0.9886    0.3880 C   0  0  2  0  0  0  0  0  0  0  0  0
   -3.7249    1.1766   -0.4066 C   0  0  0  0  0  0  0  0  0  0  0  0
   -3.6988   -0.3277   -0.5378 C   0  0  0  0  0  0  0  0  0  0  0  0
   -2.2800   -0.7810   -0.2080 C   0  0  0  0  0  0  0  0  0  0  0  0
   -1.4110   -0.4108   -1.3610 C   0  0  0  0  0  0  0  0  0  0  0  0
   -1.9980    0.7141   -2.1582 C   0  0  0  0  0  0  0  0  0  0  0  0
   -2.6416    1.7665   -1.2710 C   0  0  0  0  0  0  0  0  0  0  0  0
   -0.0078    0.0020   -0.9449 C   0  0  0  0  0  0  0  0  0  0  0  0
    0.6880   -1.0240   -0.2543 N   0  0  0  0  0  0  0  0  0  0  0  0
    2.0043   -0.7385    0.1899 C   0  0  0  0  0  0  0  0  0  0  0  0
    2.8839   -0.4625   -0.9813 C   0  0  0  0  0  0  0  0  0  0  0  0
    4.3135   -0.2069   -0.6467 C   0  0  0  0  0  0  0  0  0  0  0  0
    4.6202    0.3671    0.6777 C   0  0  0  0  0  0  0  0  0  0  0  0
    3.5320    0.3450    1.7089 C   0  0  0  0  0  0  0  0  0  0  0  0
    2.1369    0.3930    1.1726 C   0  0  0  0  0  0  0  0  0  0  0  0
   -2.3301   -2.2965   -0.0026 C   0  0  0  0  0  0  0  0  0  0  0  0
    5.0120   -1.4012   -0.8112 O   0  0  0  0  0  0  0  0  0  0  0  0
    5.7288   -0.2724    1.2216 O   0  0  0  0  0  0  0  0  0  0  0  0
    3.6650    1.3981    2.6122 O   0  0  0  0  0  0  0  0  0  0  0  0
    5.9118   -1.3441   -1.8660 C   0  0  0  0  0  0  0  0  0  0  0  0
    6.7366    0.6664    1.3905 C   0  0  0  0  0  0  0  0  0  0  0  0
    3.8296    0.9564    3.9230 C   0  0  0  0  0  0  0  0  0  0  0  0
   -7.2242    1.5704    0.2381 N   0  0  0  0  0  0  0  0  0  0  0  0
   -5.5529   -1.8747   -0.3966 N   0  0  0  0  0  0  0  0  0  0  0  0
   -5.5096    0.1618    1.0737 N   0  0  0  0  0  0  0  0  0  0  0  0
   -6.1305    0.6415   -0.0859 C   0  0  1  0  0  0  0  0  0  0  0  0
   -5.6953    0.1619   -1.3474 N   0  0  0  0  0  0  0  0  0  0  0  0
   -4.4549   -0.5616   -1.3382 C   0  0  0  0  0  0  0  0  0  0  0  0
   -4.1549   -0.2316    1.0252 C   0  0  0  0  0  0  0  0  0  0  0  0
   -3.5820    0.1493   -0.3156 C   0  0  0  0  0  0  0  0  0  0  0  0
   -2.1231   -0.1210   -0.4660 C   0  0  1  0  0  0  0  0  0  0  0  0
   -1.4368    0.5787    0.6786 C   0  0  0  0  0  0  0  0  0  0  0  0
   -1.8655   -0.0468    1.9659 C   0  0  0  0  0  0  0  0  0  0  0  0
   -3.3426    0.2928    2.1732 C   0  0  0  0  0  0  0  0  0  0  0  0
    0.0483    0.7084    0.5260 C   0  0  0  0  0  0  0  0  0  0  0  0
    0.6633   -0.5633    0.4263 N   0  0  0  0  0  0  0  0  0  0  0  0
    2.0984   -0.5698    0.2808 C   0  0  0  0  0  0  0  0  0  0  0  0
    2.4103    0.1371   -1.0030 C   0  0  0  0  0  0  0  0  0  0  0  0
    3.8609   -0.0354   -1.4120 C   0  0  0  0  0  0  0  0  0  0  0  0
    4.7978    0.2383   -0.2734 C   0  0  0  0  0  0  0  0  0  0  0  0
    4.1169    0.7200    0.9708 C   0  0  0  0  0  0  0  0  0  0  0  0
    2.8632    0.0637    1.3727 C   0  0  0  0  0  0  0  0  0  0  0  0
   -1.7455   -1.5511   -0.6353 C   0  0  0  0  0  0  0  0  0  0  0  0
    4.1259   -1.2573   -2.0060 O   0  0  0  0  0  0  0  0  0  0  0  0
    5.5162   -0.9187   -0.0000 O   0  0  0  0  0  0  0  0  0  0  0  0
    3.8417    2.1050    0.8548 O   0  0  0  0  0  0  0  0  0  0  0  0
    4.5126   -1.1681   -3.3265 C   0  0  0  0  0  0  0  0  0  0  0  0
    6.8799   -0.7593   -0.1571 C   0  0  0  0  0  0  0  0  0  0  0  0
    4.5444    2.8421    1.7916 C   0  0  0  0  0  0  0  0  0  0  0  0
   -7.5720    0.3518    0.0082 N   0  0  0  0  0  0  0  0  0  0  0  0
   -4.7670   -1.9076   -0.8607 N   0  0  0  0  0  0  0  0  0  0  0  0
   -5.4275   -0.8526    0.7812 N   0  0  0  0  0  0  0  0  0  0  0  0
   -6.1312   -0.4068   -0.3784 C   0  0  0  0  0  0  0  0  0  0  0  0
   -5.3538   -0.4776   -1.5953 N   0  0  0  0  0  0  0  0  0  0  0  0
   -4.1688    0.3260   -1.4884 C   0  0  2  0  0  0  0  0  0  0  0  0
   -3.9951   -0.9732    0.5909 C   0  0  0  0  0  0  0  0  0  0  0  0
   -3.4893    0.2458   -0.1579 C   0  0  0  0  0  0  0  0  0  0  0  0
   -1.9802    0.1348   -0.2879 C   0  0  1  0  0  0  0  0  0  0  0  0
   -1.4167    0.2832    1.0986 C   0  0  0  0  0  0  0  0  0  0  0  0
   -1.8867   -0.8137    1.9859 C   0  0  0  0  0  0  0  0  0  0  0  0
   -3.3510   -1.0920    1.9362 C   0  0  0  0  0  0  0  0  0  0  0  0
    0.0705    0.4051    1.0689 C   0  0  0  0  0  0  0  0  0  0  0  0
    0.6869   -0.7474    0.5070 N   0  0  0  0  0  0  0  0  0  0  0  0
    2.0980   -0.5996    0.2003 C   0  0  0  0  0  0  0  0  0  0  0  0
    2.2845    0.4429   -0.8969 C   0  0  0  0  0  0  0  0  0  0  0  0
    3.6955    0.2149   -1.4063 C   0  0  0  0  0  0  0  0  0  0  0  0
    4.6226    0.6873   -0.3277 C   0  0  0  0  0  0  0  0  0  0  0  0
    3.9937    0.7726    1.0157 C   0  0  0  0  0  0  0  0  0  0  0  0
    2.9822   -0.2635    1.3255 C   0  0  0  0  0  0  0  0  0  0  0  0
   -1.5491   -1.1370   -0.9320 C   0  0  0  0  0  0  0  0  0  0  0  0
    3.7743   -1.1786   -1.6074 O   0  0  0  0  0  0  0  0  0  0  0  0
    5.6419   -0.2909   -0.2556 O   0  0  0  0  0  0  0  0  0  0  0  0
    3.4447    2.0181    1.2495 O   0  0  0  0  0  0  0  0  0  0  0  0
    4.0464   -1.4938   -2.9178 C   0  0  0  0  0  0  0  0  0  0  0  0
    6.8711    0.2193   -0.6497 C   0  0  0  0  0  0  0  0  0  0  0  0
    4.0105    2.7347    2.2707 C   0  0  0  0  0  0  0  0  0  0  0  0
   -7.3280   -1.1811   -0.5375 N   0  0  0  0  0  0  0  0  0  0  0  0
   -4.5859    1.7253   -1.6695 N   0  0  0  0  0  0  0  0  0  0  0  0
   -5.4275   -0.8526    0.7812 N   0  0  0  0  0  0  0  0  0  0  0  0
   -6.1312   -0.4068   -0.3784 C   0  0  0  0  0  0  0  0  0  0  0  0
   -5.3538   -0.4776   -1.5953 N   0  0  0  0  0  0  0  0  0  0  0  0
   -4.1688    0.3260   -1.4884 C   0  0  2  0  0  0  0  0  0  0  0  0
   -3.9951   -0.9732    0.5909 C   0  0  0  0  0  0  0  0  0  0  0  0
   -3.4893    0.2458   -0.1579 C   0  0  0  0  0  0  0  0  0  0  0  0
   -1.9802    0.1348   -0.2879 C   0  0  1  0  0  0  0  0  0  0  0  0
   -1.4167    0.2832    1.0986 C   0  0  0  0  0  0  0  0  0  0  0  0
   -1.8867   -0.8137    1.9859 C   0  0  0  0  0  0  0  0  0  0  0  0
   -3.3510   -1.0920    1.9362 C   0  0  0  0  0  0  0  0  0  0  0  0
    0.0705    0.4051    1.0689 C   0  0  0  0  0  0  0  0  0  0  0  0
    0.6869   -0.7474    0.5070 N   0  0  0  0  0  0  0  0  0  0  0  0
    2.0980   -0.5996    0.2003 C   0  0  0  0  0  0  0  0  0  0  0  0
    2.2845    0.4429   -0.8969 C   0  0  0  0  0  0  0  0  0  0  0  0
    3.6955    0.2149   -1.4063 C   0  0  0  0  0  0  0  0  0  0  0  0
    4.6226    0.6873   -0.3277 C   0  0  0  0  0  0  0  0  0  0  0  0
    3.9937    0.7726    1.0157 C   0  0  0  0  0  0  0  0  0  0  0  0
    2.9822   -0.2635    1.3255 C   0  0  0  0  0  0  0  0  0  0  0  0
   -1.5491   -1.1370   -0.9320 C   0  0  0  0  0  0  0  0  0  0  0  0
    3.7743   -1.1786   -1.6074 O   0  0  0  0  0  0  0  0  0  0  0  0
    5.6419   -0.2909   -0.2556 O   0  0  0  0  0  0  0  0  0  0  0  0
    3.4447    2.0181    1.2495 O   0  0  0  0  0  0  0  0  0  0  0  0
    4.0464   -1.4938   -2.9178 C   0  0  0  0  0  0  0  0  0  0  0  0
    6.8711    0.2193   -0.6497 C   0  0  0  0  0  0  0  0  0  0  0  0
    4.0105    2.7347    2.2707 C   0  0  0  0  0  0  0  0  0  0  0  0
   -7.3280   -1.1811   -0.5375 N   0  0  0  0  0  0  0  0  0  0  0  0
   -4.5859    1.7253   -1.6695 N   0  0  0  0  0  0  0  0  0  0  0  0
   -5.1414    1.9105   -1.7607 H   0  0  0  0  0  0  0  0  0  0  0  0
   -6.3821    0.1494   -1.0507 H   0  0  0  0  0  0  0  0  0  0  0  0
   -5.1251    0.6793    1.5820 H   0  0  0  0  0  0  0  0  0  0  0  0
   -4.1950   -1.5173    1.2016 H   0  0  0  0  0  0  0  0  0  0  0  0
   -3.4854    1.4429    0.6409 H   0  0  0  0  0  0  0  0  0  0  0  0
   -3.9416   -0.5703   -1.5921 H   0  0  0  0  0  0  0  0  0  0  0  0
   -1.8979   -0.2671    0.6912 H   0  0  0  0  0  0  0  0  0  0  0  0
   -1.2873   -1.2914   -2.0409 H   0  0  0  0  0  0  0  0  0  0  0  0
   -2.6993    0.3612   -2.9247 H   0  0  0  0  0  0  0  0  0  0  0  0
   -1.1688    1.2513   -2.7041 H   0  0  0  0  0  0  0  0  0  0  0  0
   -1.8306    2.2374   -0.6767 H   0  0  0  0  0  0  0  0  0  0  0  0
   -3.1139    2.5060   -1.9460 H   0  0  0  0  0  0  0  0  0  0  0  0
   -0.1058    0.8768   -0.2703 H   0  0  0  0  0  0  0  0  0  0  0  0
    0.4698    0.3324   -1.8842 H   0  0  0  0  0  0  0  0  0  0  0  0
    0.0896   -1.5190    0.4258 H   0  0  0  0  0  0  0  0  0  0  0  0
    2.3504   -1.6584    0.7528 H   0  0  0  0  0  0  0  0  0  0  0  0
    2.7701   -1.2951   -1.7051 H   0  0  0  0  0  0  0  0  0  0  0  0
    2.4495    0.4376   -1.5065 H   0  0  0  0  0  0  0  0  0  0  0  0
    4.7018    0.4797   -1.4497 H   0  0  0  0  0  0  0  0  0  0  0  0
    4.8967    1.4345    0.5520 H   0  0  0  0  0  0  0  0  0  0  0  0
    3.6008   -0.5975    2.3287 H   0  0  0  0  0  0  0  0  0  0  0  0
    1.9633    1.3803    0.7387 H   0  0  0  0  0  0  0  0  0  0  0  0
    1.4528    0.1611    2.0160 H   0  0  0  0  0  0  0  0  0  0  0  0
   -3.3345   -2.7099   -0.2128 H   0  0  0  0  0  0  0  0  0  0  0  0
   -1.6061   -2.7996   -0.6812 H   0  0  0  0  0  0  0  0  0  0  0  0
   -2.0208   -2.4956    1.0419 H   0  0  0  0  0  0  0  0  0  0  0  0
    6.4716   -2.2598   -2.0214 H   0  0  0  0  0  0  0  0  0  0  0  0
    5.3419   -1.1418   -2.8180 H   0  0  0  0  0  0  0  0  0  0  0  0
    6.5426   -0.4414   -1.7212 H   0  0  0  0  0  0  0  0  0  0  0  0
    7.6574    0.2254    1.8228 H   0  0  0  0  0  0  0  0  0  0  0  0
    7.0527    1.0440    0.3750 H   0  0  0  0  0  0  0  0  0  0  0  0
    6.3748    1.5432    1.9290 H   0  0  0  0  0  0  0  0  0  0  0  0
    4.7266    0.3233    4.0582 H   0  0  0  0  0  0  0  0  0  0  0  0
    3.8755    1.8283    4.6005 H   0  0  0  0  0  0  0  0  0  0  0  0
    2.9578    0.3479    4.2681 H   0  0  0  0  0  0  0  0  0  0  0  0
   -8.0535    0.9742    0.0825 H   0  0  0  0  0  0  0  0  0  0  0  0
   -7.2789    2.4504   -0.3447 H   0  0  0  0  0  0  0  0  0  0  0  0
   -5.3471   -1.8264   -1.4045 H   0  0  0  0  0  0  0  0  0  0  0  0
   -6.5489   -1.7847   -0.1373 H   0  0  0  0  0  0  0  0  0  0  0  0
   -5.6073    0.8740    1.8597 H   0  0  0  0  0  0  0  0  0  0  0  0
   -6.0703    1.7693   -0.1009 H   0  0  0  0  0  0  0  0  0  0  0  0
   -6.4201   -0.2104   -1.9647 H   0  0  0  0  0  0  0  0  0  0  0  0
   -4.0005   -0.6273   -2.3253 H   0  0  0  0  0  0  0  0  0  0  0  0
   -4.0912   -1.3576    1.0776 H   0  0  0  0  0  0  0  0  0  0  0  0
   -3.7142    1.2587   -0.4955 H   0  0  0  0  0  0  0  0  0  0  0  0
   -1.7937    0.4112   -1.3990 H   0  0  0  0  0  0  0  0  0  0  0  0
   -1.8595    1.6279    0.6828 H   0  0  0  0  0  0  0  0  0  0  0  0
   -1.7827   -1.1303    2.0218 H   0  0  0  0  0  0  0  0  0  0  0  0
   -1.3254    0.3647    2.8499 H   0  0  0  0  0  0  0  0  0  0  0  0
   -3.7081   -0.2467    3.0901 H   0  0  0  0  0  0  0  0  0  0  0  0
   -3.4591    1.3807    2.3324 H   0  0  0  0  0  0  0  0  0  0  0  0
    0.1980    1.2845   -0.4376 H   0  0  0  0  0  0  0  0  0  0  0  0
    0.3955    1.3826    1.3082 H   0  0  0  0  0  0  0  0  0  0  0  0
    0.3057   -1.2888    1.0622 H   0  0  0  0  0  0  0  0  0  0  0  0
    2.3882   -1.6492    0.2510 H   0  0  0  0  0  0  0  0  0  0  0  0
    1.7506   -0.1819   -1.8360 H   0  0  0  0  0  0  0  0  0  0  0  0
    2.1925    1.2138   -0.8410 H   0  0  0  0  0  0  0  0  0  0  0  0
    4.0357    0.7240   -2.1961 H   0  0  0  0  0  0  0  0  0  0  0  0
    5.5518    0.9968   -0.5544 H   0  0  0  0  0  0  0  0  0  0  0  0
    4.8451    0.6544    1.8150 H   0  0  0  0  0  0  0  0  0  0  0  0
    2.2182    0.7981    1.9037 H   0  0  0  0  0  0  0  0  0  0  0  0
    3.1283   -0.6891    2.1900 H   0  0  0  0  0  0  0  0  0  0  0  0
   -2.4635   -2.0015   -1.3650 H   0  0  0  0  0  0  0  0  0  0  0  0
   -0.7634   -1.5879   -1.1571 H   0  0  0  0  0  0  0  0  0  0  0  0
   -1.7936   -2.1652    0.2663 H   0  0  0  0  0  0  0  0  0  0  0  0
    4.7244   -2.1168   -3.8074 H   0  0  0  0  0  0  0  0  0  0  0  0
    3.7975   -0.6144   -3.9668 H   0  0  0  0  0  0  0  0  0  0  0  0
    5.4507   -0.5702   -3.3355 H   0  0  0  0  0  0  0  0  0  0  0  0
    7.3905   -1.7155    0.0747 H   0  0  0  0  0  0  0  0  0  0  0  0
    7.1875   -0.4518   -1.1640 H   0  0  0  0  0  0  0  0  0  0  0  0
    7.2664   -0.0376    0.6213 H   0  0  0  0  0  0  0  0  0  0  0  0
    4.3212    3.9220    1.6952 H   0  0  0  0  0  0  0  0  0  0  0  0
    4.3210    2.5536    2.8341 H   0  0  0  0  0  0  0  0  0  0  0  0
    5.6452    2.7263    1.6543 H   0  0  0  0  0  0  0  0  0  0  0  0
   -7.6456   -0.6520    0.2968 H   0  0  0  0  0  0  0  0  0  0  0  0
   -8.0152    0.3931   -0.9488 H   0  0  0  0  0  0  0  0  0  0  0  0
   -5.7004   -1.9391   -0.4031 H   0  0  0  0  0  0  0  0  0  0  0  0
   -4.7998   -2.5635   -1.6725 H   0  0  0  0  0  0  0  0  0  0  0  0
   -5.6309   -0.2730    1.6114 H   0  0  0  0  0  0  0  0  0  0  0  0
   -6.4380    0.6713   -0.2418 H   0  0  0  0  0  0  0  0  0  0  0  0
   -5.9403   -0.0743   -2.3747 H   0  0  0  0  0  0  0  0  0  0  0  0
   -3.5061    0.0640   -2.3456 H   0  0  0  0  0  0  0  0  0  0  0  0
   -3.8101   -1.9051    0.0408 H   0  0  0  0  0  0  0  0  0  0  0  0
   -3.6686    1.1252    0.4949 H   0  0  0  0  0  0  0  0  0  0  0  0
   -1.6448    0.9725   -0.9290 H   0  0  0  0  0  0  0  0  0  0  0  0
   -1.7944    1.2476    1.5449 H   0  0  0  0  0  0  0  0  0  0  0  0
   -1.3521   -1.7841    1.7880 H   0  0  0  0  0  0  0  0  0  0  0  0
   -1.6810   -0.4892    3.0544 H   0  0  0  0  0  0  0  0  0  0  0  0
   -3.5082   -2.1603    2.2664 H   0  0  0  0  0  0  0  0  0  0  0  0
   -3.8915   -0.4752    2.7148 H   0  0  0  0  0  0  0  0  0  0  0  0
    0.4013    1.3561    0.5503 H   0  0  0  0  0  0  0  0  0  0  0  0
    0.4730    0.5429    2.1177 H   0  0  0  0  0  0  0  0  0  0  0  0
    0.6224   -1.5336    1.2142 H   0  0  0  0  0  0  0  0  0  0  0  0
    2.4140   -1.5984   -0.2236 H   0  0  0  0  0  0  0  0  0  0  0  0
    1.5363    0.2755   -1.7160 H   0  0  0  0  0  0  0  0  0  0  0  0
    2.1914    1.4614   -0.5129 H   0  0  0  0  0  0  0  0  0  0  0  0
    3.8892    0.7714   -2.3411 H   0  0  0  0  0  0  0  0  0  0  0  0
    5.1017    1.6066   -0.6747 H   0  0  0  0  0  0  0  0  0  0  0  0
    4.8183    0.6656    1.7815 H   0  0  0  0  0  0  0  0  0  0  0  0
    2.3781   -0.0288    2.2324 H   0  0  0  0  0  0  0  0  0  0  0  0
    3.5473   -1.1978    1.6436 H   0  0  0  0  0  0  0  0  0  0  0  0
   -2.2567   -1.4113   -1.7588 H   0  0  0  0  0  0  0  0  0  0  0  0
   -0.5752   -0.9556   -1.4569 H   0  0  0  0  0  0  0  0  0  0  0  0
   -1.4111   -1.9817   -0.2329 H   0  0  0  0  0  0  0  0  0  0  0  0
    5.0150   -1.0626   -3.2379 H   0  0  0  0  0  0  0  0  0  0  0  0
    4.1745   -2.5931   -2.9787 H   0  0  0  0  0  0  0  0  0  0  0  0
    3.2200   -1.2209   -3.6102 H   0  0  0  0  0  0  0  0  0  0  0  0
    7.5923   -0.6152   -0.5539 H   0  0  0  0  0  0  0  0  0  0  0  0
    6.8277    0.4465   -1.7381 H   0  0  0  0  0  0  0  0  0  0  0  0
    7.2519    1.0461   -0.0537 H   0  0  0  0  0  0  0  0  0  0  0  0
    3.4701    3.7189    2.3603 H   0  0  0  0  0  0  0  0  0  0  0  0
    3.7980    2.1867    3.2168 H   0  0  0  0  0  0  0  0  0  0  0  0
    5.0889    2.8653    2.2032 H   0  0  0  0  0  0  0  0  0  0  0  0
   -7.3211   -2.0269    0.0696 H   0  0  0  0  0  0  0  0  0  0  0  0
   -8.2007   -0.6509   -0.3119 H   0  0  0  0  0  0  0  0  0  0  0  0
   -3.7422    2.2859   -1.9335 H   0  0  0  0  0  0  0  0  0  0  0  0
   -4.9980    2.0262   -0.7648 H   0  0  0  0  0  0  0  0  0  0  0  0
   -5.6309   -0.2730    1.6114 H   0  0  0  0  0  0  0  0  0  0  0  0
   -6.4380    0.6713   -0.2418 H   0  0  0  0  0  0  0  0  0  0  0  0
   -5.9403   -0.0743   -2.3747 H   0  0  0  0  0  0  0  0  0  0  0  0
   -3.5061    0.0640   -2.3456 H   0  0  0  0  0  0  0  0  0  0  0  0
   -3.8101   -1.9051    0.0408 H   0  0  0  0  0  0  0  0  0  0  0  0
   -3.6686    1.1252    0.4949 H   0  0  0  0  0  0  0  0  0  0  0  0
   -1.6448    0.9725   -0.9290 H   0  0  0  0  0  0  0  0  0  0  0  0
   -1.7944    1.2476    1.5449 H   0  0  0  0  0  0  0  0  0  0  0  0
   -1.3521   -1.7841    1.7880 H   0  0  0  0  0  0  0  0  0  0  0  0
   -1.6810   -0.4892    3.0544 H   0  0  0  0  0  0  0  0  0  0  0  0
   -3.5082   -2.1603    2.2664 H   0  0  0  0  0  0  0  0  0  0  0  0
   -3.8915   -0.4752    2.7148 H   0  0  0  0  0  0  0  0  0  0  0  0
    0.4013    1.3561    0.5503 H   0  0  0  0  0  0  0  0  0  0  0  0
    0.4730    0.5429    2.1177 H   0  0  0  0  0  0  0  0  0  0  0  0
    0.6224   -1.5336    1.2142 H   0  0  0  0  0  0  0  0  0  0  0  0
    2.4140   -1.5984   -0.2236 H   0  0  0  0  0  0  0  0  0  0  0  0
    1.5363    0.2755   -1.7160 H   0  0  0  0  0  0  0  0  0  0  0  0
    2.1914    1.4614   -0.5129 H   0  0  0  0  0  0  0  0  0  0  0  0
    3.8892    0.7714   -2.3411 H   0  0  0  0  0  0  0  0  0  0  0  0
    5.1017    1.6066   -0.6747 H   0  0  0  0  0  0  0  0  0  0  0  0
    4.8183    0.6656    1.7815 H   0  0  0  0  0  0  0  0  0  0  0  0
    2.3781   -0.0288    2.2324 H   0  0  0  0  0  0  0  0  0  0  0  0
    3.5473   -1.1978    1.6436 H   0  0  0  0  0  0  0  0  0  0  0  0
   -2.2567   -1.4113   -1.7588 H   0  0  0  0  0  0  0  0  0  0  0  0
   -0.5752   -0.9556   -1.4569 H   0  0  0  0  0  0  0  0  0  0  0  0
   -1.4111   -1.9817   -0.2329 H   0  0  0  0  0  0  0  0  0  0  0  0
    5.0150   -1.0626   -3.2379 H   0  0  0  0  0  0  0  0  0  0  0  0
    4.1745   -2.5931   -2.9787 H   0  0  0  0  0  0  0  0  0  0  0  0
    3.2200   -1.2209   -3.6102 H   0  0  0  0  0  0  0  0  0  0  0  0
    7.5923   -0.6152   -0.5539 H   0  0  0  0  0  0  0  0  0  0  0  0
    6.8277    0.4465   -1.7381 H   0  0  0  0  0  0  0  0  0  0  0  0
    7.2519    1.0461   -0.0537 H   0  0  0  0  0  0  0  0  0  0  0  0
    3.4701    3.7189    2.3603 H   0  0  0  0  0  0  0  0  0  0  0  0
    3.7980    2.1867    3.2168 H   0  0  0  0  0  0  0  0  0  0  0  0
    5.0889    2.8653    2.2032 H   0  0  0  0  0  0  0  0  0  0  0  0
   -7.3211   -2.0269    0.0696 H   0  0  0  0  0  0  0  0  0  0  0  0
   -8.2007   -0.6509   -0.3119 H   0  0  0  0  0  0  0  0  0  0  0  0
   -3.7422    2.2859   -1.9335 H   0  0  0  0  0  0  0  0  0  0  0  0
   -4.9980    2.0262   -0.7648 H   0  0  0  0  0  0  0  0  0  0  0  0
  1  2  1  0
  2  3  1  0
  3  4  1  0
  1  5  1  0
  4  6  1  0
  5  6  1  0
  6  7  1  0
  7  8  1  0
  8  9  1  0
  5 10  1  0
  9 10  1  0
  8 11  1  0
 11 12  1  0
 12 13  1  0
 13 14  1  0
 14 15  1  0
 15 16  1  0
 16 17  1  0
 13 18  1  0
 17 18  1  0
  7 19  1  0
 15 20  1  0
 16 21  1  0
 17 22  1  0
 20 23  1  0
 21 24  1  0
 22 25  1  0
  2 26  1  0
  4 27  1  0
 28 29  1  0
 29 30  1  0
 30 31  1  0
 28 32  1  0
 31 33  1  0
 32 33  1  0
 33 34  1  0
 34 35  1  0
 35 36  1  0
 32 37  1  0
 36 37  1  0
 35 38  1  0
 38 39  1  0
 39 40  1  0
 40 41  1  0
 41 42  1  0
 42 43  1  0
 43 44  1  0
 40 45  1  0
 44 45  1  0
 34 46  1  0
 42 47  1  0
 43 48  1  0
 44 49  1  0
 47 50  1  0
 48 51  1  0
 49 52  1  0
 29 53  1  0
 31 54  1  0
 55 56  1  0
 56 57  1  0
 57 58  1  0
 55 59  1  0
 58 60  1  0
 59 60  1  0
 60 61  1  0
 61 62  1  0
 62 63  1  0
 59 64  1  0
 63 64  1  0
 62 65  1  0
 65 66  1  0
 66 67  1  0
 67 68  1  0
 68 69  1  0
 69 70  1  0
 70 71  1  0
 67 72  1  0
 71 72  1  0
 61 73  1  0
 69 74  1  0
 70 75  1  0
 71 76  1  0
 74 77  1  0
 75 78  1  0
 76 79  1  0
 56 80  1  0
 58 81  1  0
 82 83  1  0
 83 84  1  0
 84 85  1  0
 82 86  1  0
 85 87  1  0
 86 87  1  0
 87 88  1  0
 88 89  1  0
 89 90  1  0
 86 91  1  0
 90 91  1  0
 89 92  1  0
 92 93  1  0
 93 94  1  0
 94 95  1  0
 95 96  1  0
 96 97  1  0
 97 98  1  0
 94 99  1  0
 98 99  1  0
 88100  1  0
 96101  1  0
 97102  1  0
 98103  1  0
101104  1  0
102105  1  0
103106  1  0
 83107  1  0
 85108  1  0
  1109  1  0
  2110  1  6
  3111  1  0
  4112  1  1
  5113  1  0
  6114  1  0
  7115  1  0
  8116  1  0
  9117  1  0
  9118  1  0
 10119  1  0
 10120  1  0
 11121  1  0
 11122  1  0
 12123  1  0
 13124  1  0
 14125  1  0
 14126  1  0
 15127  1  0
 16128  1  0
 17129  1  0
 18130  1  0
 18131  1  0
 19132  1  0
 19133  1  0
 19134  1  0
 23135  1  0
 23136  1  0
 23137  1  0
 24138  1  0
 24139  1  0
 24140  1  0
 25141  1  0
 25142  1  0
 25143  1  0
 26144  1  0
 26145  1  0
 27146  1  0
 27147  1  0
 28148  1  0
 29149  1  6
 30150  1  0
 31151  1  0
 32152  1  0
 33153  1  0
 34154  1  6
 35155  1  0
 36156  1  0
 36157  1  0
 37158  1  0
 37159  1  0
 38160  1  0
 38161  1  0
 39162  1  0
 40163  1  0
 41164  1  0
 41165  1  0
 42166  1  0
 43167  1  0
 44168  1  0
 45169  1  0
 45170  1  0
 46171  1  0
 46172  1  0
 46173  1  0
 50174  1  0
 50175  1  0
 50176  1  0
 51177  1  0
 51178  1  0
 51179  1  0
 52180  1  0
 52181  1  0
 52182  1  0
 53183  1  0
 53184  1  0
 54185  1  0
 54186  1  0
 55187  1  0
 56188  1  0
 57189  1  0
 58190  1  6
 59191  1  0
 60192  1  0
 61193  1  6
 62194  1  0
 63195  1  0
 63196  1  0
 64197  1  0
 64198  1  0
 65199  1  0
 65200  1  0
 66201  1  0
 67202  1  0
 68203  1  0
 68204  1  0
 69205  1  0
 70206  1  0
 71207  1  0
 72208  1  0
 72209  1  0
 73210  1  0
 73211  1  0
 73212  1  0
 77213  1  0
 77214  1  0
 77215  1  0
 78216  1  0
 78217  1  0
 78218  1  0
 79219  1  0
 79220  1  0
 79221  1  0
 80222  1  0
 80223  1  0
 81224  1  0
 81225  1  0
 82226  1  0
 83227  1  0
 84228  1  0
 85229  1  6
 86230  1  0
 87231  1  0
 88232  1  6
 89233  1  0
 90234  1  0
 90235  1  0
 91236  1  0
 91237  1  0
 92238  1  0
 92239  1  0
 93240  1  0
 94241  1  0
 95242  1  0
 95243  1  0
 96244  1  0
 97245  1  0
 98246  1  0
 99247  1  0
 99248  1  0
100249  1  0
100250  1  0
100251  1  0
104252  1  0
104253  1  0
104254  1  0
105255  1  0
105256  1  0
105257  1  0
106258  1  0
106259  1  0
106260  1  0
107261  1  0
107262  1  0
108263  1  0
108264  1  0
M  END
>  <PDBID>  (1) 
4M2X

>  <PDB ID>  (1) 
4M2X

>  <Generic Name>  (1) 
Trimetrexate

>  <Brand Name>  (1) 
Neutrexin Pws IV 25mg/vial#Neutrexin

>  <DrugBank ID>  (1) 
DB01157

>  <ATC Codes>  (1) 
P01AX07

>  <Ligand ID>  (1) 
TMQ

>  <Target Name>  (1) 
Dihydrofolate reductase

>  <UniProt ID>  (1) 
P00374

>  <PDB ID.1>  (1) 
4M2X

>  <Seq. Identity>  (1) 
31%

$$$$
