PDB_DB00523_00
     RDKit          3D

 62 62  0  0  0  0  0  0  0  0999 V2000
   -4.1139    0.9779    0.4690 C   0  0  0  0  0  0  0  0  0  0  0  0
   -5.2045    0.1554   -0.1438 C   0  0  0  0  0  0  0  0  0  0  0  0
   -5.2723   -1.2508    0.3609 C   0  0  0  0  0  0  0  0  0  0  0  0
   -4.0133   -1.7679    0.9350 C   0  0  0  0  0  0  0  0  0  0  0  0
   -2.8532   -1.1423    0.1061 C   0  0  2  0  0  0  0  0  0  0  0  0
   -2.7629    0.2645    0.5201 C   0  0  1  0  0  0  0  0  0  0  0  0
   -1.7010    1.0665   -0.0901 C   0  0  0  0  0  0  0  0  0  0  0  0
   -0.2961    0.6656   -0.1787 C   0  0  0  0  0  0  0  0  0  0  0  0
    0.1809   -0.4570   -0.9760 C   0  0  0  0  0  0  0  0  0  0  0  0
    1.7353   -0.6122   -0.8822 C   0  0  0  0  0  0  0  0  0  0  0  0
    2.2029   -0.8531    0.4917 C   0  0  0  0  0  0  0  0  0  0  0  0
    3.6373   -1.0547    0.7550 C   0  0  0  0  0  0  0  0  0  0  0  0
    4.5891    0.0417    0.4116 C   0  0  0  0  0  0  0  0  0  0  0  0
    6.0212   -0.3536    0.8286 C   0  0  0  0  0  0  0  0  0  0  0  0
    6.9213    0.8049    0.5024 C   0  0  0  0  0  0  0  0  0  0  0  0
   -4.5433    1.3674    1.8662 C   0  0  0  0  0  0  0  0  0  0  0  0
   -4.0548    2.2647   -0.3295 C   0  0  0  0  0  0  0  0  0  0  0  0
   -2.9961   -1.4566   -1.3254 C   0  0  0  0  0  0  0  0  0  0  0  0
   -0.0637   -0.3008   -2.4715 C   0  0  0  0  0  0  0  0  0  0  0  0
    4.6649    0.0795   -1.1267 C   0  0  0  0  0  0  0  0  0  0  0  0
    6.4404    1.9041    1.2466 O   0  0  0  0  0  0  0  0  0  0  0  0
    8.2424    0.5554    0.9023 O   0  0  0  0  0  0  0  0  0  0  0  0
   -5.1597    0.1646   -1.2509 H   0  0  0  0  0  0  0  0  0  0  0  0
   -6.1766    0.6410    0.1149 H   0  0  0  0  0  0  0  0  0  0  0  0
   -5.6373   -1.9447   -0.4179 H   0  0  0  0  0  0  0  0  0  0  0  0
   -6.0577   -1.3429    1.1772 H   0  0  0  0  0  0  0  0  0  0  0  0
   -3.8216   -1.5131    1.9854 H   0  0  0  0  0  0  0  0  0  0  0  0
   -3.9304   -2.8624    0.7351 H   0  0  0  0  0  0  0  0  0  0  0  0
   -1.9469   -1.6846    0.5155 H   0  0  0  0  0  0  0  0  0  0  0  0
   -2.4998    0.2127    1.6347 H   0  0  0  0  0  0  0  0  0  0  0  0
   -1.6803    2.1295    0.3355 H   0  0  0  0  0  0  0  0  0  0  0  0
   -2.0032    1.3296   -1.1838 H   0  0  0  0  0  0  0  0  0  0  0  0
    0.3801    1.5561   -0.4339 H   0  0  0  0  0  0  0  0  0  0  0  0
    0.0191    0.4502    0.9158 H   0  0  0  0  0  0  0  0  0  0  0  0
   -0.1933   -1.4332   -0.6938 H   0  0  0  0  0  0  0  0  0  0  0  0
    1.9275   -1.4466   -1.5912 H   0  0  0  0  0  0  0  0  0  0  0  0
    2.1283    0.3456   -1.2738 H   0  0  0  0  0  0  0  0  0  0  0  0
    1.6664   -1.7388    0.9669 H   0  0  0  0  0  0  0  0  0  0  0  0
    1.8691   -0.0045    1.1809 H   0  0  0  0  0  0  0  0  0  0  0  0
    3.9676   -2.0315    0.2811 H   0  0  0  0  0  0  0  0  0  0  0  0
    3.7590   -1.2759    1.8571 H   0  0  0  0  0  0  0  0  0  0  0  0
    4.3833    1.0131    0.8511 H   0  0  0  0  0  0  0  0  0  0  0  0
    6.3264   -1.2028    0.1553 H   0  0  0  0  0  0  0  0  0  0  0  0
    6.0658   -0.6454    1.8767 H   0  0  0  0  0  0  0  0  0  0  0  0
    6.9113    1.1021   -0.5361 H   0  0  0  0  0  0  0  0  0  0  0  0
   -3.9226    0.8049    2.6094 H   0  0  0  0  0  0  0  0  0  0  0  0
   -5.5882    1.1020    2.0731 H   0  0  0  0  0  0  0  0  0  0  0  0
   -4.3483    2.4421    2.0685 H   0  0  0  0  0  0  0  0  0  0  0  0
   -3.8673    2.0967   -1.4095 H   0  0  0  0  0  0  0  0  0  0  0  0
   -3.4708    3.0576    0.1295 H   0  0  0  0  0  0  0  0  0  0  0  0
   -5.1219    2.6462   -0.3083 H   0  0  0  0  0  0  0  0  0  0  0  0
   -2.1983   -2.1431   -1.7168 H   0  0  0  0  0  0  0  0  0  0  0  0
   -3.0342   -0.6108   -2.0185 H   0  0  0  0  0  0  0  0  0  0  0  0
   -3.9535   -2.0350   -1.4834 H   0  0  0  0  0  0  0  0  0  0  0  0
    0.7953    0.2692   -2.8803 H   0  0  0  0  0  0  0  0  0  0  0  0
   -0.0794   -1.2755   -2.9995 H   0  0  0  0  0  0  0  0  0  0  0  0
   -0.9523    0.3320   -2.6852 H   0  0  0  0  0  0  0  0  0  0  0  0
    5.7246   -0.0561   -1.4886 H   0  0  0  0  0  0  0  0  0  0  0  0
    4.3574    1.0553   -1.5330 H   0  0  0  0  0  0  0  0  0  0  0  0
    4.1414   -0.7976   -1.5712 H   0  0  0  0  0  0  0  0  0  0  0  0
    6.1697    1.6155    2.1638 H   0  0  0  0  0  0  0  0  0  0  0  0
    8.2908    0.7799    1.8654 H   0  0  0  0  0  0  0  0  0  0  0  0
  1  2  1  0
  2  3  1  0
  3  4  1  0
  4  5  1  0
  1  6  1  0
  5  6  1  0
  6  7  1  0
  7  8  1  0
  8  9  1  0
  9 10  1  0
 10 11  1  0
 11 12  1  0
 12 13  1  0
 13 14  1  0
 14 15  1  0
  1 16  1  0
  1 17  1  0
  5 18  1  0
  9 19  1  0
 13 20  1  0
 15 21  1  0
 15 22  1  0
  2 23  1  0
  2 24  1  0
  3 25  1  0
  3 26  1  0
  4 27  1  0
  4 28  1  0
  5 29  1  1
  6 30  1  1
  7 31  1  0
  7 32  1  0
  8 33  1  0
  8 34  1  0
  9 35  1  0
 10 36  1  0
 10 37  1  0
 11 38  1  0
 11 39  1  0
 12 40  1  0
 12 41  1  0
 13 42  1  0
 14 43  1  0
 14 44  1  0
 15 45  1  0
 16 46  1  0
 16 47  1  0
 16 48  1  0
 17 49  1  0
 17 50  1  0
 17 51  1  0
 18 52  1  0
 18 53  1  0
 18 54  1  0
 19 55  1  0
 19 56  1  0
 19 57  1  0
 20 58  1  0
 20 59  1  0
 20 60  1  0
 21 61  1  0
 22 62  1  0
M  END
>  <PDBID>  (1) 
3OAP

>  <PDB ID>  (1) 
3OAP

>  <Generic Name>  (1) 
Alitretinoin

>  <Brand Name>  (1) 
Panretin#Toctino

>  <DrugBank ID>  (1) 
DB00523

>  <ATC Codes>  (1) 
D11AH04#L01XX22

>  <Ligand ID>  (1) 
9CR

>  <Target Name>  (1) 
Retinoic acid receptor RXR-beta

>  <UniProt ID>  (1) 
P28702

>  <PDB ID.1>  (1) 
3OAP

>  <Seq. Identity>  (1) 
87%

$$$$
