PDB_DB09078_02
     RDKit          3D

 69 72  0  0  0  0  0  0  0  0999 V2000
   -4.4988    2.8520   -2.5646 C   0  0  0  0  0  0  0  0  0  0  0  0
   -4.5325    1.7875   -1.6932 O   0  0  0  0  0  0  0  0  0  0  0  0
   -3.2412    1.4233   -1.2404 C   0  0  0  0  0  0  0  0  0  0  0  0
   -2.9535    0.0767   -1.7831 C   0  0  0  0  0  0  0  0  0  0  0  0
   -1.8514   -0.5617   -0.9755 C   0  0  0  0  0  0  0  0  0  0  0  0
   -1.3316   -1.7674   -1.5115 N   0  0  0  0  0  0  0  0  0  0  0  0
   -1.9555   -2.9647   -1.0213 C   0  0  0  0  0  0  0  0  0  0  0  0
   -1.9919   -3.0725    0.4611 C   0  0  0  0  0  0  0  0  0  0  0  0
   -1.6230   -1.7384    1.1320 C   0  0  2  0  0  0  0  0  0  0  0  0
   -2.4247   -0.7020    0.4230 C   0  0  0  0  0  0  0  0  0  0  0  0
   -2.3717    0.6717    1.0231 C   0  0  0  0  0  0  0  0  0  0  0  0
   -3.2430    1.6023    0.2293 C   0  0  2  0  0  0  0  0  0  0  0  0
   -4.6707    1.6356    0.7842 C   0  0  2  0  0  0  0  0  0  0  0  0
   -4.6323    1.8119    2.1743 O   0  0  0  0  0  0  0  0  0  0  0  0
   -5.3951    0.4374    0.5325 N   0  0  0  0  0  0  0  0  0  0  0  0
   -0.2826   -1.5230    0.8595 O   0  0  0  0  0  0  0  0  0  0  0  0
    0.5114   -1.4955    1.9742 C   0  0  1  0  0  0  0  0  0  0  0  0
    1.6298   -2.5124    1.8862 C   0  0  0  0  0  0  0  0  0  0  0  0
    2.7745   -1.9955    0.9990 C   0  0  1  0  0  0  0  0  0  0  0  0
    3.5067   -0.9209    1.7217 C   0  0  2  0  0  0  0  0  0  0  0  0
    2.5570   -0.2506    2.6952 C   0  0  0  0  0  0  0  0  0  0  0  0
    1.2047   -0.1353    2.0188 C   0  0  0  0  0  0  0  0  0  0  0  0
    4.0387    0.0572    0.8342 N   0  0  0  0  0  0  0  0  0  0  0  0
    5.0100   -0.4185   -0.1010 C   0  0  0  0  0  0  0  0  0  0  0  0
    4.4569   -1.3038   -1.0226 O   0  0  0  0  0  0  0  0  0  0  0  0
    5.7163    0.6150   -0.8116 N   0  0  0  0  0  0  0  0  0  0  0  0
    4.8856    1.4809   -1.5957 C   0  0  0  0  0  0  0  0  0  0  0  0
    5.5832    2.6181   -2.3531 C   0  0  0  0  0  0  0  0  0  0  0  0
    4.7356    2.9162   -1.1649 C   0  0  0  0  0  0  0  0  0  0  0  0
    3.9066   -3.3831    0.7931 Cl  0  0  0  0  0  0  0  0  0  0  0  0
   -3.8924    2.6406   -3.4795 H   0  0  0  0  0  0  0  0  0  0  0  0
   -4.1494    3.7819   -2.0659 H   0  0  0  0  0  0  0  0  0  0  0  0
   -5.5388    3.0317   -2.8993 H   0  0  0  0  0  0  0  0  0  0  0  0
   -2.5380    2.1456   -1.7514 H   0  0  0  0  0  0  0  0  0  0  0  0
   -3.8432   -0.5971   -1.8387 H   0  0  0  0  0  0  0  0  0  0  0  0
   -2.5981    0.1693   -2.8314 H   0  0  0  0  0  0  0  0  0  0  0  0
   -1.0278    0.1762   -0.9179 H   0  0  0  0  0  0  0  0  0  0  0  0
   -1.3121   -1.7998   -2.5335 H   0  0  0  0  0  0  0  0  0  0  0  0
   -1.3335   -3.8269   -1.4007 H   0  0  0  0  0  0  0  0  0  0  0  0
   -2.9355   -3.0653   -1.5141 H   0  0  0  0  0  0  0  0  0  0  0  0
   -1.4031   -3.9101    0.8761 H   0  0  0  0  0  0  0  0  0  0  0  0
   -3.0510   -3.2673    0.7710 H   0  0  0  0  0  0  0  0  0  0  0  0
   -1.8269   -1.8358    2.2185 H   0  0  0  0  0  0  0  0  0  0  0  0
   -3.4610   -1.0857    0.3158 H   0  0  0  0  0  0  0  0  0  0  0  0
   -2.7760    0.6305    2.0440 H   0  0  0  0  0  0  0  0  0  0  0  0
   -1.3201    0.9906    1.0754 H   0  0  0  0  0  0  0  0  0  0  0  0
   -2.8476    2.6339    0.4283 H   0  0  0  0  0  0  0  0  0  0  0  0
   -5.2276    2.4914    0.3647 H   0  0  0  0  0  0  0  0  0  0  0  0
   -4.5798    2.7934    2.3855 H   0  0  0  0  0  0  0  0  0  0  0  0
   -5.5505   -0.1704    1.3551 H   0  0  0  0  0  0  0  0  0  0  0  0
   -6.1866    0.5079   -0.1164 H   0  0  0  0  0  0  0  0  0  0  0  0
   -0.0877   -1.6572    2.9007 H   0  0  0  0  0  0  0  0  0  0  0  0
    2.0930   -2.7120    2.8627 H   0  0  0  0  0  0  0  0  0  0  0  0
    1.2848   -3.4629    1.3931 H   0  0  0  0  0  0  0  0  0  0  0  0
    2.4132   -1.7278    0.0062 H   0  0  0  0  0  0  0  0  0  0  0  0
    4.2810   -1.4069    2.3597 H   0  0  0  0  0  0  0  0  0  0  0  0
    2.4413   -0.8516    3.5947 H   0  0  0  0  0  0  0  0  0  0  0  0
    2.9089    0.7865    2.8948 H   0  0  0  0  0  0  0  0  0  0  0  0
    0.5306    0.5488    2.5444 H   0  0  0  0  0  0  0  0  0  0  0  0
    1.3094    0.2176    0.9794 H   0  0  0  0  0  0  0  0  0  0  0  0
    4.3919    0.9062    1.3170 H   0  0  0  0  0  0  0  0  0  0  0  0
    5.8311   -1.0041    0.4400 H   0  0  0  0  0  0  0  0  0  0  0  0
    5.1383   -1.6294   -1.6581 H   0  0  0  0  0  0  0  0  0  0  0  0
    6.3518    1.1374   -0.1805 H   0  0  0  0  0  0  0  0  0  0  0  0
    4.0832    1.0125   -2.1928 H   0  0  0  0  0  0  0  0  0  0  0  0
    5.2504    2.8547   -3.3824 H   0  0  0  0  0  0  0  0  0  0  0  0
    6.6881    2.7205   -2.2133 H   0  0  0  0  0  0  0  0  0  0  0  0
    5.2354    3.2262   -0.2373 H   0  0  0  0  0  0  0  0  0  0  0  0
    3.7369    3.3668   -1.3524 H   0  0  0  0  0  0  0  0  0  0  0  0
  1  2  1  0
  2  3  1  0
  3  4  1  0
  4  5  1  0
  5  6  1  0
  6  7  1  0
  7  8  1  0
  8  9  1  0
  5 10  1  0
  9 10  1  0
 10 11  1  0
  3 12  1  0
 11 12  1  0
 12 13  1  0
 13 14  1  0
 13 15  1  0
  9 16  1  0
 16 17  1  0
 17 18  1  0
 18 19  1  0
 19 20  1  0
 20 21  1  0
 17 22  1  0
 21 22  1  0
 20 23  1  0
 23 24  1  0
 24 25  1  0
 24 26  1  0
 26 27  1  0
 27 28  1  0
 27 29  1  0
 28 29  1  0
 19 30  1  0
  1 31  1  0
  1 32  1  0
  1 33  1  0
  3 34  1  0
  4 35  1  0
  4 36  1  0
  5 37  1  0
  6 38  1  0
  7 39  1  0
  7 40  1  0
  8 41  1  0
  8 42  1  0
  9 43  1  1
 10 44  1  0
 11 45  1  0
 11 46  1  0
 12 47  1  6
 13 48  1  6
 14 49  1  0
 15 50  1  0
 15 51  1  0
 17 52  1  1
 18 53  1  0
 18 54  1  0
 19 55  1  6
 20 56  1  1
 21 57  1  0
 21 58  1  0
 22 59  1  0
 22 60  1  0
 23 61  1  0
 24 62  1  0
 25 63  1  0
 26 64  1  0
 27 65  1  0
 28 66  1  0
 28 67  1  0
 29 68  1  0
 29 69  1  0
M  END
>  <PDBID>  (1) 
3WZD

>  <PDB ID>  (1) 
3WZD

>  <Generic Name>  (1) 
Lenvatinib

>  <Brand Name>  (1) 
Lenvima

>  <DrugBank ID>  (1) 
DB09078

>  <ATC Codes>  (1) 
L01XE29

>  <Ligand ID>  (1) 
LEV

>  <Target Name>  (1) 
Vascular endothelial growth factor receptor 3

>  <UniProt ID>  (1) 
P35916

>  <PDB ID.1>  (1) 
3WZD

>  <Seq. Identity>  (1) 
67%

$$$$
