PDB_DB04868_07
     RDKit          3D

 91 95  0  0  0  0  0  0  0  0999 V2000
    1.4003    0.7556   -1.6310 O   0  0  0  0  0  0  0  0  0  0  0  0
    1.1156   -0.4876   -1.0145 C   0  0  1  0  0  0  0  0  0  0  0  0
    2.1300   -1.4028   -1.1181 N   0  0  0  0  0  0  0  0  0  0  0  0
    3.3511   -1.3869   -0.4329 C   0  0  2  0  0  0  0  0  0  0  0  0
    4.2376   -0.2275   -0.7188 C   0  0  0  0  0  0  0  0  0  0  0  0
    5.6770   -0.6341   -0.8456 C   0  0  0  0  0  0  0  0  0  0  0  0
    6.4840    0.5577   -0.9470 N   0  0  0  0  0  0  0  0  0  0  0  0
    6.5066    1.4381    0.1404 C   0  0  0  0  0  0  0  0  0  0  0  0
    7.9330    1.5205    0.6685 C   0  0  0  0  0  0  0  0  0  0  0  0
    8.5454    2.8651    0.2661 C   0  0  0  0  0  0  0  0  0  0  0  0
    8.5490    0.4295   -0.0235 N   0  0  0  0  0  0  0  0  0  0  0  0
    7.8476    0.2661   -1.2738 C   0  0  0  0  0  0  0  0  0  0  0  0
    6.1738   -1.5990    0.1698 C   0  0  0  0  0  0  0  0  0  0  0  0
    4.1469   -2.6813   -0.7462 C   0  0  0  0  0  0  0  0  0  0  0  0
    5.2276   -2.7478    0.3058 C   0  0  0  0  0  0  0  0  0  0  0  0
    5.9527   -4.0813    0.2168 C   0  0  0  0  0  0  0  0  0  0  0  0
    5.0655   -5.1228    0.3516 F   0  0  0  0  0  0  0  0  0  0  0  0
    6.9006   -4.1860    1.1974 F   0  0  0  0  0  0  0  0  0  0  0  0
    6.6126   -4.1230   -0.9931 F   0  0  0  0  0  0  0  0  0  0  0  0
    0.3554   -0.2912    0.2643 C   0  0  1  0  0  0  0  0  0  0  0  0
    1.0458    0.5542    1.2292 C   0  0  0  0  0  0  0  0  0  0  0  0
    0.2123    1.2319    2.2900 C   0  0  0  0  0  0  0  0  0  0  0  0
   -1.0089    1.8247    1.7014 C   0  0  0  0  0  0  0  0  0  0  0  0
   -0.6957    2.9377    0.6970 C   0  0  0  0  0  0  0  0  0  0  0  0
   -1.7967    0.7058    1.0491 C   0  0  2  0  0  0  0  0  0  0  0  0
   -1.0443    0.1125   -0.1050 C   0  0  0  0  0  0  0  0  0  0  0  0
   -3.0959    1.1752    0.7477 N   0  0  0  0  0  0  0  0  0  0  0  0
   -3.8000    0.4002   -0.2474 C   0  0  0  0  0  0  0  0  0  0  0  0
   -3.8738   -0.9862    0.0510 N   0  0  0  0  0  0  0  0  0  0  0  0
   -4.3839   -1.7793   -1.0183 C   0  0  0  0  0  0  0  0  0  0  0  0
   -5.6732   -1.1136   -1.5211 C   0  0  0  0  0  0  0  0  0  0  0  0
   -6.0676   -0.1647   -0.3799 C   0  0  0  0  0  0  0  0  0  0  0  0
   -5.1589    0.9499   -0.4149 N   0  0  0  0  0  0  0  0  0  0  0  0
   -7.5118    0.1860   -0.4984 C   0  0  0  0  0  0  0  0  0  0  0  0
   -7.8958    1.0976    0.6477 C   0  0  0  0  0  0  0  0  0  0  0  0
   -9.3660    1.2512    0.8391 C   0  0  0  0  0  0  0  0  0  0  0  0
  -10.1304    0.1966    0.0932 C   0  0  0  0  0  0  0  0  0  0  0  0
   -9.4730   -1.0643    0.3313 N   0  0  0  0  0  0  0  0  0  0  0  0
   -8.3055   -1.1040   -0.5039 C   0  0  0  0  0  0  0  0  0  0  0  0
    1.6500    0.6049   -2.5898 H   0  0  0  0  0  0  0  0  0  0  0  0
    0.3094   -0.8837   -1.8070 H   0  0  0  0  0  0  0  0  0  0  0  0
    1.9563   -2.2593   -1.7081 H   0  0  0  0  0  0  0  0  0  0  0  0
    3.1414   -1.3868    0.6699 H   0  0  0  0  0  0  0  0  0  0  0  0
    3.9085    0.3479   -1.6282 H   0  0  0  0  0  0  0  0  0  0  0  0
    4.1469    0.4939    0.1488 H   0  0  0  0  0  0  0  0  0  0  0  0
    5.7766   -1.1626   -1.8458 H   0  0  0  0  0  0  0  0  0  0  0  0
    5.8077    1.2390    0.9783 H   0  0  0  0  0  0  0  0  0  0  0  0
    6.2121    2.4612   -0.2418 H   0  0  0  0  0  0  0  0  0  0  0  0
    7.9904    1.4573    1.7571 H   0  0  0  0  0  0  0  0  0  0  0  0
    9.6476    2.7960    0.4238 H   0  0  0  0  0  0  0  0  0  0  0  0
    8.0890    3.6209    0.9597 H   0  0  0  0  0  0  0  0  0  0  0  0
    8.2792    3.0342   -0.7820 H   0  0  0  0  0  0  0  0  0  0  0  0
    8.7082   -0.4246    0.5087 H   0  0  0  0  0  0  0  0  0  0  0  0
    8.2658    0.9841   -2.0215 H   0  0  0  0  0  0  0  0  0  0  0  0
    7.8851   -0.7801   -1.6617 H   0  0  0  0  0  0  0  0  0  0  0  0
    7.1230   -2.0271   -0.2410 H   0  0  0  0  0  0  0  0  0  0  0  0
    6.4382   -1.1857    1.1465 H   0  0  0  0  0  0  0  0  0  0  0  0
    4.5106   -2.6613   -1.7640 H   0  0  0  0  0  0  0  0  0  0  0  0
    3.4436   -3.5473   -0.6491 H   0  0  0  0  0  0  0  0  0  0  0  0
    4.7099   -2.7528    1.2975 H   0  0  0  0  0  0  0  0  0  0  0  0
    0.2973   -1.3364    0.7207 H   0  0  0  0  0  0  0  0  0  0  0  0
    1.6520    1.3526    0.7319 H   0  0  0  0  0  0  0  0  0  0  0  0
    1.8053   -0.0186    1.8465 H   0  0  0  0  0  0  0  0  0  0  0  0
    0.8863    1.9923    2.7626 H   0  0  0  0  0  0  0  0  0  0  0  0
   -0.0652    0.5325    3.0933 H   0  0  0  0  0  0  0  0  0  0  0  0
   -1.6492    2.2248    2.5219 H   0  0  0  0  0  0  0  0  0  0  0  0
    0.3942    3.0338    0.5232 H   0  0  0  0  0  0  0  0  0  0  0  0
   -1.2482    2.8132   -0.2487 H   0  0  0  0  0  0  0  0  0  0  0  0
   -1.0794    3.9081    1.1256 H   0  0  0  0  0  0  0  0  0  0  0  0
   -1.8637   -0.0894    1.8428 H   0  0  0  0  0  0  0  0  0  0  0  0
   -1.5826   -0.7888   -0.4466 H   0  0  0  0  0  0  0  0  0  0  0  0
   -1.0620    0.8449   -0.9368 H   0  0  0  0  0  0  0  0  0  0  0  0
   -3.1467    2.1862    0.5864 H   0  0  0  0  0  0  0  0  0  0  0  0
   -3.2870    0.5489   -1.2170 H   0  0  0  0  0  0  0  0  0  0  0  0
   -4.0643   -1.2736    1.0032 H   0  0  0  0  0  0  0  0  0  0  0  0
   -4.5807   -2.8225   -0.7436 H   0  0  0  0  0  0  0  0  0  0  0  0
   -3.6441   -1.7555   -1.8548 H   0  0  0  0  0  0  0  0  0  0  0  0
   -6.4466   -1.8549   -1.7321 H   0  0  0  0  0  0  0  0  0  0  0  0
   -5.4142   -0.4911   -2.4059 H   0  0  0  0  0  0  0  0  0  0  0  0
   -5.9744   -0.7901    0.5496 H   0  0  0  0  0  0  0  0  0  0  0  0
   -5.3315    1.6381    0.3362 H   0  0  0  0  0  0  0  0  0  0  0  0
   -7.7544    0.7288   -1.4448 H   0  0  0  0  0  0  0  0  0  0  0  0
   -7.4733    2.1063    0.3913 H   0  0  0  0  0  0  0  0  0  0  0  0
   -7.3593    0.8010    1.5765 H   0  0  0  0  0  0  0  0  0  0  0  0
   -9.7625    2.2603    0.5787 H   0  0  0  0  0  0  0  0  0  0  0  0
   -9.6544    1.1257    1.9261 H   0  0  0  0  0  0  0  0  0  0  0  0
  -10.1221    0.3470   -1.0041 H   0  0  0  0  0  0  0  0  0  0  0  0
  -11.1688    0.0708    0.4912 H   0  0  0  0  0  0  0  0  0  0  0  0
   -9.2932   -1.2848    1.3142 H   0  0  0  0  0  0  0  0  0  0  0  0
   -7.6674   -1.9375   -0.1059 H   0  0  0  0  0  0  0  0  0  0  0  0
   -8.5289   -1.4127   -1.5557 H   0  0  0  0  0  0  0  0  0  0  0  0
  1  2  1  0
  2  3  1  0
  3  4  1  0
  4  5  1  0
  5  6  1  0
  6  7  1  0
  7  8  1  0
  8  9  1  0
  9 10  1  0
  9 11  1  0
  7 12  1  0
 11 12  1  0
  6 13  1  0
  4 14  1  0
 13 15  1  0
 14 15  1  0
 15 16  1  0
 16 17  1  0
 16 18  1  0
 16 19  1  0
  2 20  1  0
 20 21  1  0
 21 22  1  0
 22 23  1  0
 23 24  1  0
 23 25  1  0
 20 26  1  0
 25 26  1  0
 25 27  1  0
 27 28  1  0
 28 29  1  0
 29 30  1  0
 30 31  1  0
 31 32  1  0
 28 33  1  0
 32 33  1  0
 32 34  1  0
 34 35  1  0
 35 36  1  0
 36 37  1  0
 37 38  1  0
 34 39  1  0
 38 39  1  0
  1 40  1  0
  2 41  1  6
  3 42  1  0
  4 43  1  1
  5 44  1  0
  5 45  1  0
  6 46  1  0
  8 47  1  0
  8 48  1  0
  9 49  1  0
 10 50  1  0
 10 51  1  0
 10 52  1  0
 11 53  1  0
 12 54  1  0
 12 55  1  0
 13 56  1  0
 13 57  1  0
 14 58  1  0
 14 59  1  0
 15 60  1  0
 20 61  1  1
 21 62  1  0
 21 63  1  0
 22 64  1  0
 22 65  1  0
 23 66  1  0
 24 67  1  0
 24 68  1  0
 24 69  1  0
 25 70  1  1
 26 71  1  0
 26 72  1  0
 27 73  1  0
 28 74  1  0
 29 75  1  0
 30 76  1  0
 30 77  1  0
 31 78  1  0
 31 79  1  0
 32 80  1  0
 33 81  1  0
 34 82  1  0
 35 83  1  0
 35 84  1  0
 36 85  1  0
 36 86  1  0
 37 87  1  0
 37 88  1  0
 38 89  1  0
 39 90  1  0
 39 91  1  0
M  END
>  <PDBID>  (1) 
5MO4

>  <PDB ID>  (1) 
5MO4

>  <Generic Name>  (1) 
Nilotinib

>  <Brand Name>  (1) 
Tasigna

>  <DrugBank ID>  (1) 
DB04868

>  <ATC Codes>  (1) 
L01XE08

>  <Ligand ID>  (1) 
NIL

>  <Target Name>  (1) 
Tyrosine-protein kinase ABL1

>  <UniProt ID>  (1) 
P00519

>  <PDB ID.1>  (1) 
5MO4

>  <Seq. Identity>  (1) 
97%

$$$$
