PDB_DB08910_06
     RDKit          3D

180188  0  0  0  0  0  0  0  0999 V2000
   -4.0145   -0.3123    0.1840 C   0  0  0  0  0  0  0  0  0  0  0  0
   -3.7802   -0.4460   -1.2895 C   0  0  0  0  0  0  0  0  0  0  0  0
   -2.3520   -0.8463   -1.5288 C   0  0  0  0  0  0  0  0  0  0  0  0
   -1.4799    0.2824   -1.0473 C   0  0  0  0  0  0  0  0  0  0  0  0
   -1.6557    0.5447    0.4123 C   0  0  0  0  0  0  0  0  0  0  0  0
   -3.0636    0.5951    0.8868 C   0  0  0  0  0  0  0  0  0  0  0  0
   -0.0351   -0.2064   -1.1202 C   0  0  0  0  0  0  0  0  0  0  0  0
    0.2212   -0.7742    0.1321 N   0  0  0  0  0  0  0  0  0  0  0  0
   -0.8227   -0.5359    1.0499 C   0  0  0  0  0  0  0  0  0  0  0  0
   -3.5319    1.9805    0.8832 N   0  0  0  0  0  0  0  0  0  0  0  0
   -0.4283   -0.2098    2.3360 O   0  0  0  0  0  0  0  0  0  0  0  0
    1.5600   -0.6993    0.6373 C   0  0  1  0  0  0  0  0  0  0  0  0
    0.8257    0.7982   -1.5291 O   0  0  0  0  0  0  0  0  0  0  0  0
    2.4343   -1.5389   -0.2202 C   0  0  0  0  0  0  0  0  0  0  0  0
    2.0344    0.6758    0.9455 C   0  0  0  0  0  0  0  0  0  0  0  0
    3.1839    1.1465    0.2861 N   0  0  0  0  0  0  0  0  0  0  0  0
    4.2104    0.1964    0.0163 C   0  0  0  0  0  0  0  0  0  0  0  0
    3.5945   -0.8596   -0.8588 C   0  0  0  0  0  0  0  0  0  0  0  0
    2.2383    0.8956    2.3281 O   0  0  0  0  0  0  0  0  0  0  0  0
    5.2315    0.8178   -0.6947 O   0  0  0  0  0  0  0  0  0  0  0  0
   -4.0145   -0.3123    0.1840 C   0  0  0  0  0  0  0  0  0  0  0  0
   -3.7802   -0.4460   -1.2895 C   0  0  0  0  0  0  0  0  0  0  0  0
   -2.3520   -0.8463   -1.5288 C   0  0  0  0  0  0  0  0  0  0  0  0
   -1.4799    0.2824   -1.0473 C   0  0  0  0  0  0  0  0  0  0  0  0
   -1.6557    0.5447    0.4123 C   0  0  0  0  0  0  0  0  0  0  0  0
   -3.0636    0.5951    0.8868 C   0  0  0  0  0  0  0  0  0  0  0  0
   -0.0351   -0.2064   -1.1202 C   0  0  0  0  0  0  0  0  0  0  0  0
    0.2212   -0.7742    0.1321 N   0  0  0  0  0  0  0  0  0  0  0  0
   -0.8227   -0.5359    1.0499 C   0  0  0  0  0  0  0  0  0  0  0  0
   -3.5319    1.9805    0.8832 N   0  0  0  0  0  0  0  0  0  0  0  0
   -0.4283   -0.2098    2.3360 O   0  0  0  0  0  0  0  0  0  0  0  0
    1.5600   -0.6993    0.6373 C   0  0  1  0  0  0  0  0  0  0  0  0
    0.8257    0.7982   -1.5291 O   0  0  0  0  0  0  0  0  0  0  0  0
    2.4343   -1.5389   -0.2202 C   0  0  0  0  0  0  0  0  0  0  0  0
    2.0344    0.6758    0.9455 C   0  0  0  0  0  0  0  0  0  0  0  0
    3.1839    1.1465    0.2861 N   0  0  0  0  0  0  0  0  0  0  0  0
    4.2104    0.1964    0.0163 C   0  0  0  0  0  0  0  0  0  0  0  0
    3.5945   -0.8596   -0.8588 C   0  0  0  0  0  0  0  0  0  0  0  0
    2.2383    0.8956    2.3281 O   0  0  0  0  0  0  0  0  0  0  0  0
    5.2315    0.8178   -0.6947 O   0  0  0  0  0  0  0  0  0  0  0  0
   -4.0145   -0.3123    0.1840 C   0  0  0  0  0  0  0  0  0  0  0  0
   -3.7802   -0.4460   -1.2895 C   0  0  0  0  0  0  0  0  0  0  0  0
   -2.3520   -0.8463   -1.5288 C   0  0  0  0  0  0  0  0  0  0  0  0
   -1.4799    0.2824   -1.0473 C   0  0  0  0  0  0  0  0  0  0  0  0
   -1.6557    0.5447    0.4123 C   0  0  0  0  0  0  0  0  0  0  0  0
   -3.0636    0.5951    0.8868 C   0  0  0  0  0  0  0  0  0  0  0  0
   -0.0351   -0.2064   -1.1202 C   0  0  0  0  0  0  0  0  0  0  0  0
    0.2212   -0.7742    0.1321 N   0  0  0  0  0  0  0  0  0  0  0  0
   -0.8227   -0.5359    1.0499 C   0  0  0  0  0  0  0  0  0  0  0  0
   -3.5319    1.9805    0.8832 N   0  0  0  0  0  0  0  0  0  0  0  0
   -0.4283   -0.2098    2.3360 O   0  0  0  0  0  0  0  0  0  0  0  0
    1.5600   -0.6993    0.6373 C   0  0  1  0  0  0  0  0  0  0  0  0
    0.8257    0.7982   -1.5291 O   0  0  0  0  0  0  0  0  0  0  0  0
    2.4343   -1.5389   -0.2202 C   0  0  0  0  0  0  0  0  0  0  0  0
    2.0344    0.6758    0.9455 C   0  0  0  0  0  0  0  0  0  0  0  0
    3.1839    1.1465    0.2861 N   0  0  0  0  0  0  0  0  0  0  0  0
    4.2104    0.1964    0.0163 C   0  0  0  0  0  0  0  0  0  0  0  0
    3.5945   -0.8596   -0.8588 C   0  0  0  0  0  0  0  0  0  0  0  0
    2.2383    0.8956    2.3281 O   0  0  0  0  0  0  0  0  0  0  0  0
    5.2315    0.8178   -0.6947 O   0  0  0  0  0  0  0  0  0  0  0  0
   -4.0145   -0.3123    0.1840 C   0  0  0  0  0  0  0  0  0  0  0  0
   -3.7802   -0.4460   -1.2895 C   0  0  0  0  0  0  0  0  0  0  0  0
   -2.3520   -0.8463   -1.5288 C   0  0  0  0  0  0  0  0  0  0  0  0
   -1.4799    0.2824   -1.0473 C   0  0  0  0  0  0  0  0  0  0  0  0
   -1.6557    0.5447    0.4123 C   0  0  0  0  0  0  0  0  0  0  0  0
   -3.0636    0.5951    0.8868 C   0  0  0  0  0  0  0  0  0  0  0  0
   -0.0351   -0.2064   -1.1202 C   0  0  0  0  0  0  0  0  0  0  0  0
    0.2212   -0.7742    0.1321 N   0  0  0  0  0  0  0  0  0  0  0  0
   -0.8227   -0.5359    1.0499 C   0  0  0  0  0  0  0  0  0  0  0  0
   -3.5319    1.9805    0.8832 N   0  0  0  0  0  0  0  0  0  0  0  0
   -0.4283   -0.2098    2.3360 O   0  0  0  0  0  0  0  0  0  0  0  0
    1.5600   -0.6993    0.6373 C   0  0  1  0  0  0  0  0  0  0  0  0
    0.8257    0.7982   -1.5291 O   0  0  0  0  0  0  0  0  0  0  0  0
    2.4343   -1.5389   -0.2202 C   0  0  0  0  0  0  0  0  0  0  0  0
    2.0344    0.6758    0.9455 C   0  0  0  0  0  0  0  0  0  0  0  0
    3.1839    1.1465    0.2861 N   0  0  0  0  0  0  0  0  0  0  0  0
    4.2104    0.1964    0.0163 C   0  0  0  0  0  0  0  0  0  0  0  0
    3.5945   -0.8596   -0.8588 C   0  0  0  0  0  0  0  0  0  0  0  0
    2.2383    0.8956    2.3281 O   0  0  0  0  0  0  0  0  0  0  0  0
    5.2315    0.8178   -0.6947 O   0  0  0  0  0  0  0  0  0  0  0  0
   -5.0385    0.1299    0.3055 H   0  0  0  0  0  0  0  0  0  0  0  0
   -4.0651   -1.2980    0.6940 H   0  0  0  0  0  0  0  0  0  0  0  0
   -4.4492   -1.2613   -1.6547 H   0  0  0  0  0  0  0  0  0  0  0  0
   -3.9573    0.5189   -1.7859 H   0  0  0  0  0  0  0  0  0  0  0  0
   -2.0535   -1.7658   -1.0051 H   0  0  0  0  0  0  0  0  0  0  0  0
   -2.1958   -0.9945   -2.6073 H   0  0  0  0  0  0  0  0  0  0  0  0
   -1.6023    1.1673   -1.6898 H   0  0  0  0  0  0  0  0  0  0  0  0
   -1.1915    1.5346    0.6501 H   0  0  0  0  0  0  0  0  0  0  0  0
   -3.0618    0.2937    1.9675 H   0  0  0  0  0  0  0  0  0  0  0  0
    0.0323   -1.0055   -1.8986 H   0  0  0  0  0  0  0  0  0  0  0  0
   -1.4757   -1.4488    1.0810 H   0  0  0  0  0  0  0  0  0  0  0  0
   -3.5825    2.2736   -0.1125 H   0  0  0  0  0  0  0  0  0  0  0  0
   -2.7652    2.5380    1.3224 H   0  0  0  0  0  0  0  0  0  0  0  0
   -0.5171   -1.0323    2.8973 H   0  0  0  0  0  0  0  0  0  0  0  0
    1.5052   -1.2307    1.6383 H   0  0  0  0  0  0  0  0  0  0  0  0
    0.4000    1.6923   -1.5651 H   0  0  0  0  0  0  0  0  0  0  0  0
    2.8559   -2.4389    0.3210 H   0  0  0  0  0  0  0  0  0  0  0  0
    1.8531   -2.0104   -1.0651 H   0  0  0  0  0  0  0  0  0  0  0  0
    1.1935    1.3757    0.6962 H   0  0  0  0  0  0  0  0  0  0  0  0
    3.0683    1.9004   -0.4020 H   0  0  0  0  0  0  0  0  0  0  0  0
    4.6145   -0.1872    0.9652 H   0  0  0  0  0  0  0  0  0  0  0  0
    4.3981   -1.5978   -1.0853 H   0  0  0  0  0  0  0  0  0  0  0  0
    3.3439   -0.3772   -1.8301 H   0  0  0  0  0  0  0  0  0  0  0  0
    2.7322    0.0980    2.6654 H   0  0  0  0  0  0  0  0  0  0  0  0
    5.5883    1.6220   -0.2550 H   0  0  0  0  0  0  0  0  0  0  0  0
   -5.0385    0.1299    0.3055 H   0  0  0  0  0  0  0  0  0  0  0  0
   -4.0651   -1.2980    0.6940 H   0  0  0  0  0  0  0  0  0  0  0  0
   -4.4492   -1.2613   -1.6547 H   0  0  0  0  0  0  0  0  0  0  0  0
   -3.9573    0.5189   -1.7859 H   0  0  0  0  0  0  0  0  0  0  0  0
   -2.0535   -1.7658   -1.0051 H   0  0  0  0  0  0  0  0  0  0  0  0
   -2.1958   -0.9945   -2.6073 H   0  0  0  0  0  0  0  0  0  0  0  0
   -1.6023    1.1673   -1.6898 H   0  0  0  0  0  0  0  0  0  0  0  0
   -1.1915    1.5346    0.6501 H   0  0  0  0  0  0  0  0  0  0  0  0
   -3.0618    0.2937    1.9675 H   0  0  0  0  0  0  0  0  0  0  0  0
    0.0323   -1.0055   -1.8986 H   0  0  0  0  0  0  0  0  0  0  0  0
   -1.4757   -1.4488    1.0810 H   0  0  0  0  0  0  0  0  0  0  0  0
   -3.5825    2.2736   -0.1125 H   0  0  0  0  0  0  0  0  0  0  0  0
   -2.7652    2.5380    1.3224 H   0  0  0  0  0  0  0  0  0  0  0  0
   -0.5171   -1.0323    2.8973 H   0  0  0  0  0  0  0  0  0  0  0  0
    1.5052   -1.2307    1.6383 H   0  0  0  0  0  0  0  0  0  0  0  0
    0.4000    1.6923   -1.5651 H   0  0  0  0  0  0  0  0  0  0  0  0
    2.8559   -2.4389    0.3210 H   0  0  0  0  0  0  0  0  0  0  0  0
    1.8531   -2.0104   -1.0651 H   0  0  0  0  0  0  0  0  0  0  0  0
    1.1935    1.3757    0.6962 H   0  0  0  0  0  0  0  0  0  0  0  0
    3.0683    1.9004   -0.4020 H   0  0  0  0  0  0  0  0  0  0  0  0
    4.6145   -0.1872    0.9652 H   0  0  0  0  0  0  0  0  0  0  0  0
    4.3981   -1.5978   -1.0853 H   0  0  0  0  0  0  0  0  0  0  0  0
    3.3439   -0.3772   -1.8301 H   0  0  0  0  0  0  0  0  0  0  0  0
    2.7322    0.0980    2.6654 H   0  0  0  0  0  0  0  0  0  0  0  0
    5.5883    1.6220   -0.2550 H   0  0  0  0  0  0  0  0  0  0  0  0
   -5.0385    0.1299    0.3055 H   0  0  0  0  0  0  0  0  0  0  0  0
   -4.0651   -1.2980    0.6940 H   0  0  0  0  0  0  0  0  0  0  0  0
   -4.4492   -1.2613   -1.6547 H   0  0  0  0  0  0  0  0  0  0  0  0
   -3.9573    0.5189   -1.7859 H   0  0  0  0  0  0  0  0  0  0  0  0
   -2.0535   -1.7658   -1.0051 H   0  0  0  0  0  0  0  0  0  0  0  0
   -2.1958   -0.9945   -2.6073 H   0  0  0  0  0  0  0  0  0  0  0  0
   -1.6023    1.1673   -1.6898 H   0  0  0  0  0  0  0  0  0  0  0  0
   -1.1915    1.5346    0.6501 H   0  0  0  0  0  0  0  0  0  0  0  0
   -3.0618    0.2937    1.9675 H   0  0  0  0  0  0  0  0  0  0  0  0
    0.0323   -1.0055   -1.8986 H   0  0  0  0  0  0  0  0  0  0  0  0
   -1.4757   -1.4488    1.0810 H   0  0  0  0  0  0  0  0  0  0  0  0
   -3.5825    2.2736   -0.1125 H   0  0  0  0  0  0  0  0  0  0  0  0
   -2.7652    2.5380    1.3224 H   0  0  0  0  0  0  0  0  0  0  0  0
   -0.5171   -1.0323    2.8973 H   0  0  0  0  0  0  0  0  0  0  0  0
    1.5052   -1.2307    1.6383 H   0  0  0  0  0  0  0  0  0  0  0  0
    0.4000    1.6923   -1.5651 H   0  0  0  0  0  0  0  0  0  0  0  0
    2.8559   -2.4389    0.3210 H   0  0  0  0  0  0  0  0  0  0  0  0
    1.8531   -2.0104   -1.0651 H   0  0  0  0  0  0  0  0  0  0  0  0
    1.1935    1.3757    0.6962 H   0  0  0  0  0  0  0  0  0  0  0  0
    3.0683    1.9004   -0.4020 H   0  0  0  0  0  0  0  0  0  0  0  0
    4.6145   -0.1872    0.9652 H   0  0  0  0  0  0  0  0  0  0  0  0
    4.3981   -1.5978   -1.0853 H   0  0  0  0  0  0  0  0  0  0  0  0
    3.3439   -0.3772   -1.8301 H   0  0  0  0  0  0  0  0  0  0  0  0
    2.7322    0.0980    2.6654 H   0  0  0  0  0  0  0  0  0  0  0  0
    5.5883    1.6220   -0.2550 H   0  0  0  0  0  0  0  0  0  0  0  0
   -5.0385    0.1299    0.3055 H   0  0  0  0  0  0  0  0  0  0  0  0
   -4.0651   -1.2980    0.6940 H   0  0  0  0  0  0  0  0  0  0  0  0
   -4.4492   -1.2613   -1.6547 H   0  0  0  0  0  0  0  0  0  0  0  0
   -3.9573    0.5189   -1.7859 H   0  0  0  0  0  0  0  0  0  0  0  0
   -2.0535   -1.7658   -1.0051 H   0  0  0  0  0  0  0  0  0  0  0  0
   -2.1958   -0.9945   -2.6073 H   0  0  0  0  0  0  0  0  0  0  0  0
   -1.6023    1.1673   -1.6898 H   0  0  0  0  0  0  0  0  0  0  0  0
   -1.1915    1.5346    0.6501 H   0  0  0  0  0  0  0  0  0  0  0  0
   -3.0618    0.2937    1.9675 H   0  0  0  0  0  0  0  0  0  0  0  0
    0.0323   -1.0055   -1.8986 H   0  0  0  0  0  0  0  0  0  0  0  0
   -1.4757   -1.4488    1.0810 H   0  0  0  0  0  0  0  0  0  0  0  0
   -3.5825    2.2736   -0.1125 H   0  0  0  0  0  0  0  0  0  0  0  0
   -2.7652    2.5380    1.3224 H   0  0  0  0  0  0  0  0  0  0  0  0
   -0.5171   -1.0323    2.8973 H   0  0  0  0  0  0  0  0  0  0  0  0
    1.5052   -1.2307    1.6383 H   0  0  0  0  0  0  0  0  0  0  0  0
    0.4000    1.6923   -1.5651 H   0  0  0  0  0  0  0  0  0  0  0  0
    2.8559   -2.4389    0.3210 H   0  0  0  0  0  0  0  0  0  0  0  0
    1.8531   -2.0104   -1.0651 H   0  0  0  0  0  0  0  0  0  0  0  0
    1.1935    1.3757    0.6962 H   0  0  0  0  0  0  0  0  0  0  0  0
    3.0683    1.9004   -0.4020 H   0  0  0  0  0  0  0  0  0  0  0  0
    4.6145   -0.1872    0.9652 H   0  0  0  0  0  0  0  0  0  0  0  0
    4.3981   -1.5978   -1.0853 H   0  0  0  0  0  0  0  0  0  0  0  0
    3.3439   -0.3772   -1.8301 H   0  0  0  0  0  0  0  0  0  0  0  0
    2.7322    0.0980    2.6654 H   0  0  0  0  0  0  0  0  0  0  0  0
    5.5883    1.6220   -0.2550 H   0  0  0  0  0  0  0  0  0  0  0  0
  1  2  1  0
  2  3  1  0
  3  4  1  0
  4  5  1  0
  1  6  1  0
  5  6  1  0
  4  7  1  0
  7  8  1  0
  5  9  1  0
  8  9  1  0
  6 10  1  0
  9 11  1  0
  8 12  1  0
  7 13  1  0
 12 14  1  0
 12 15  1  0
 15 16  1  0
 16 17  1  0
 14 18  1  0
 17 18  1  0
 15 19  1  0
 17 20  1  0
 21 22  1  0
 22 23  1  0
 23 24  1  0
 24 25  1  0
 21 26  1  0
 25 26  1  0
 24 27  1  0
 27 28  1  0
 25 29  1  0
 28 29  1  0
 26 30  1  0
 29 31  1  0
 28 32  1  0
 27 33  1  0
 32 34  1  0
 32 35  1  0
 35 36  1  0
 36 37  1  0
 34 38  1  0
 37 38  1  0
 35 39  1  0
 37 40  1  0
 41 42  1  0
 42 43  1  0
 43 44  1  0
 44 45  1  0
 41 46  1  0
 45 46  1  0
 44 47  1  0
 47 48  1  0
 45 49  1  0
 48 49  1  0
 46 50  1  0
 49 51  1  0
 48 52  1  0
 47 53  1  0
 52 54  1  0
 52 55  1  0
 55 56  1  0
 56 57  1  0
 54 58  1  0
 57 58  1  0
 55 59  1  0
 57 60  1  0
 61 62  1  0
 62 63  1  0
 63 64  1  0
 64 65  1  0
 61 66  1  0
 65 66  1  0
 64 67  1  0
 67 68  1  0
 65 69  1  0
 68 69  1  0
 66 70  1  0
 69 71  1  0
 68 72  1  0
 67 73  1  0
 72 74  1  0
 72 75  1  0
 75 76  1  0
 76 77  1  0
 74 78  1  0
 77 78  1  0
 75 79  1  0
 77 80  1  0
  1 81  1  0
  1 82  1  0
  2 83  1  0
  2 84  1  0
  3 85  1  0
  3 86  1  0
  4 87  1  0
  5 88  1  0
  6 89  1  0
  7 90  1  0
  9 91  1  0
 10 92  1  0
 10 93  1  0
 11 94  1  0
 12 95  1  1
 13 96  1  0
 14 97  1  0
 14 98  1  0
 15 99  1  0
 16100  1  0
 17101  1  0
 18102  1  0
 18103  1  0
 19104  1  0
 20105  1  0
 21106  1  0
 21107  1  0
 22108  1  0
 22109  1  0
 23110  1  0
 23111  1  0
 24112  1  0
 25113  1  0
 26114  1  0
 27115  1  0
 29116  1  0
 30117  1  0
 30118  1  0
 31119  1  0
 32120  1  1
 33121  1  0
 34122  1  0
 34123  1  0
 35124  1  0
 36125  1  0
 37126  1  0
 38127  1  0
 38128  1  0
 39129  1  0
 40130  1  0
 41131  1  0
 41132  1  0
 42133  1  0
 42134  1  0
 43135  1  0
 43136  1  0
 44137  1  0
 45138  1  0
 46139  1  0
 47140  1  0
 49141  1  0
 50142  1  0
 50143  1  0
 51144  1  0
 52145  1  1
 53146  1  0
 54147  1  0
 54148  1  0
 55149  1  0
 56150  1  0
 57151  1  0
 58152  1  0
 58153  1  0
 59154  1  0
 60155  1  0
 61156  1  0
 61157  1  0
 62158  1  0
 62159  1  0
 63160  1  0
 63161  1  0
 64162  1  0
 65163  1  0
 66164  1  0
 67165  1  0
 69166  1  0
 70167  1  0
 70168  1  0
 71169  1  0
 72170  1  1
 73171  1  0
 74172  1  0
 74173  1  0
 75174  1  0
 76175  1  0
 77176  1  0
 78177  1  0
 78178  1  0
 79179  1  0
 80180  1  0
M  END
>  <PDBID>  (1) 
4TZU

>  <PDB ID>  (1) 
4TZU

>  <Generic Name>  (1) 
Pomalidomide

>  <Brand Name>  (1) 
Pomalyst#Imnovid

>  <DrugBank ID>  (1) 
DB08910

>  <ATC Codes>  (1) 
L04AX06

>  <Ligand ID>  (1) 
Y70

>  <Target Name>  (1) 
Protein cereblon

>  <UniProt ID>  (1) 
Q96SW2

>  <PDB ID.1>  (1) 
4TZU

>  <Seq. Identity>  (1) 
97%

$$$$
