PDB_DB06290_07
     RDKit          3D

492516  0  0  0  0  0  0  0  0999 V2000
   -0.1879   -1.0598   -1.5773 C   0  0  0  0  0  0  0  0  0  0  0  0
   -1.5106   -1.6369   -1.1983 C   0  0  2  0  0  0  0  0  0  0  0  0
   -1.8833   -0.9961    0.1383 C   0  0  1  0  0  0  0  0  0  0  0  0
   -0.5309   -0.7806    0.8252 C   0  0  0  0  0  0  0  0  0  0  0  0
    0.4684   -0.6547   -0.3048 C   0  0  1  0  0  0  0  0  0  0  0  0
   -2.5676    0.3211   -0.0760 C   0  0  1  0  0  0  0  0  0  0  0  0
   -2.7897    0.4772   -1.4419 O   0  0  0  0  0  0  0  0  0  0  0  0
   -3.5956    0.6427    0.7948 N   0  0  0  0  0  0  0  0  0  0  0  0
   -1.3520   -3.1420   -1.0513 C   0  0  0  0  0  0  0  0  0  0  0  0
   -1.6979   -3.4539    0.2761 O   0  0  0  0  0  0  0  0  0  0  0  0
   -5.3059   -0.4955   -0.5079 C   0  0  1  0  0  0  0  0  0  0  0  0
   -5.8291    1.5633    1.0421 C   0  0  0  0  0  0  0  0  0  0  0  0
   -2.2164   -3.8973   -1.9356 N   0  0  0  0  0  0  0  0  0  0  0  0
   -3.5040   -4.1167   -1.2956 C   0  0  0  0  0  0  0  0  0  0  0  0
   -1.6091   -5.2377   -2.0272 C   0  0  0  0  0  0  0  0  0  0  0  0
   -4.9533    0.3703    0.5735 C   0  0  2  0  0  0  0  0  0  0  0  0
   -5.5038   -0.9201    0.9527 C   0  0  0  0  0  0  0  0  0  0  0  0
   -6.5627   -0.3600   -1.2551 C   0  0  0  0  0  0  0  0  0  0  0  0
   -4.6519   -3.8171   -2.2734 C   0  0  0  0  0  0  0  0  0  0  0  0
   -5.8876   -3.6881   -1.4405 C   0  0  0  0  0  0  0  0  0  0  0  0
   -6.9323   -2.7687   -1.9264 C   0  0  0  0  0  0  0  0  0  0  0  0
   -6.5839   -1.4138   -2.3449 C   0  0  0  0  0  0  0  0  0  0  0  0
    1.5706   -1.4040    0.0587 O   0  0  0  0  0  0  0  0  0  0  0  0
    5.2740    0.7485    3.3210 C   0  0  0  0  0  0  0  0  0  0  0  0
    4.1892    1.4584    2.5513 C   0  0  0  0  0  0  0  0  0  0  0  0
    2.9562    0.6489    2.3229 C   0  0  0  0  0  0  0  0  0  0  0  0
    3.1869   -0.6801    1.6666 C   0  0  0  0  0  0  0  0  0  0  0  0
    4.6524   -1.0362    1.7862 C   0  0  0  0  0  0  0  0  0  0  0  0
    5.1311   -0.7574    3.1864 C   0  0  0  0  0  0  0  0  0  0  0  0
    2.7311   -0.7146    0.2177 C   0  0  0  0  0  0  0  0  0  0  0  0
    3.8492   -1.0983   -0.6983 C   0  0  0  0  0  0  0  0  0  0  0  0
    4.9961   -0.1282   -0.4227 C   0  0  1  0  0  0  0  0  0  0  0  0
    5.4899   -0.2275    0.9089 N   0  0  0  0  0  0  0  0  0  0  0  0
    6.1425   -0.3485   -1.3780 C   0  0  1  0  0  0  0  0  0  0  0  0
    5.5841   -0.1138   -3.1146 S   0  0  0  0  0  0  0  0  0  0  0  0
    6.9620    0.9867   -3.6376 C   0  0  0  0  0  0  0  0  0  0  0  0
    7.9058    0.7640   -2.4469 C   0  0  2  0  0  0  0  0  0  0  0  0
    7.0711    0.7624   -1.2736 N   0  0  0  0  0  0  0  0  0  0  0  0
    8.8779    1.9008   -2.3233 C   0  0  0  0  0  0  0  0  0  0  0  0
    9.7355    2.0746   -3.5411 C   0  0  0  0  0  0  0  0  0  0  0  0
    8.2442    3.1890   -1.8705 C   0  0  0  0  0  0  0  0  0  0  0  0
    5.3611    1.1524    4.6290 O   0  0  0  0  0  0  0  0  0  0  0  0
    6.6055    1.7269    4.8584 C   0  0  0  0  0  0  0  0  0  0  0  0
    4.2955   -1.3594    4.2665 C   0  0  0  0  0  0  0  0  0  0  0  0
   -5.4388    2.7685    0.3856 N   0  0  0  0  0  0  0  0  0  0  0  0
   -7.1488    1.2184    0.8243 O   0  0  0  0  0  0  0  0  0  0  0  0
   -6.1586    4.0901    0.9575 S   0  0  0  0  0  0  0  0  0  0  0  0
   -7.8378    4.0427    1.0668 C   0  0  0  0  0  0  0  0  0  0  0  0
   -5.5227    4.8164    2.1456 O   0  0  0  0  0  0  0  0  0  0  0  0
   -5.9746    5.2095   -0.4417 O   0  0  0  0  0  0  0  0  0  0  0  0
   -8.5489    3.6560    2.3484 C   0  0  0  0  0  0  0  0  0  0  0  0
   -8.4433    5.0989    2.0117 C   0  0  0  0  0  0  0  0  0  0  0  0
    0.3056   -1.6406   -1.4982 C   0  0  0  0  0  0  0  0  0  0  0  0
   -1.1620   -1.6066   -1.2183 C   0  0  2  0  0  0  0  0  0  0  0  0
   -1.3659   -0.5977   -0.1369 C   0  0  1  0  0  0  0  0  0  0  0  0
   -0.0388   -0.1777    0.3934 C   0  0  0  0  0  0  0  0  0  0  0  0
    1.0010   -0.7040   -0.5235 C   0  0  1  0  0  0  0  0  0  0  0  0
   -2.1296    0.6312   -0.6492 C   0  0  0  0  0  0  0  0  0  0  0  0
   -1.2049    1.5539   -1.1930 O   0  0  0  0  0  0  0  0  0  0  0  0
   -2.7488    1.2472    0.4708 N   0  0  0  0  0  0  0  0  0  0  0  0
   -1.6222   -2.9958   -0.7906 C   0  0  0  0  0  0  0  0  0  0  0  0
   -2.5088   -2.8488    0.2722 O   0  0  0  0  0  0  0  0  0  0  0  0
   -4.8163    0.1343   -0.0076 C   0  0  1  0  0  0  0  0  0  0  0  0
   -4.6502    2.7496   -0.0427 C   0  0  2  0  0  0  0  0  0  0  0  0
   -2.2695   -3.6594   -1.8736 N   0  0  0  0  0  0  0  0  0  0  0  0
   -3.5882   -3.1798   -2.1189 C   0  0  0  0  0  0  0  0  0  0  0  0
   -2.1280   -5.0825   -1.8867 C   0  0  0  0  0  0  0  0  0  0  0  0
   -4.2190    1.4069    0.3213 C   0  0  2  0  0  0  0  0  0  0  0  0
   -4.9438    0.6673    1.4170 C   0  0  0  0  0  0  0  0  0  0  0  0
   -6.1201    0.0608   -0.7221 C   0  0  0  0  0  0  0  0  0  0  0  0
   -4.6818   -3.8234   -1.3290 C   0  0  0  0  0  0  0  0  0  0  0  0
   -5.8616   -2.8853   -1.0959 C   0  0  0  0  0  0  0  0  0  0  0  0
   -6.1563   -1.9859   -2.2255 C   0  0  0  0  0  0  0  0  0  0  0  0
   -5.9304   -0.5353   -2.0738 C   0  0  0  0  0  0  0  0  0  0  0  0
    1.9377   -1.4355    0.1631 O   0  0  0  0  0  0  0  0  0  0  0  0
    5.2786    0.4875    3.5108 C   0  0  0  0  0  0  0  0  0  0  0  0
    3.7740    0.4958    3.4297 C   0  0  0  0  0  0  0  0  0  0  0  0
    3.2854    0.4684    1.9858 C   0  0  0  0  0  0  0  0  0  0  0  0
    3.8755   -0.7815    1.3316 C   0  0  0  0  0  0  0  0  0  0  0  0
    5.3640   -0.5624    1.3123 C   0  0  0  0  0  0  0  0  0  0  0  0
    5.8651   -0.6801    2.7458 C   0  0  0  0  0  0  0  0  0  0  0  0
    3.2532   -1.0050   -0.0024 C   0  0  0  0  0  0  0  0  0  0  0  0
    4.0336   -2.1173   -0.7167 C   0  0  0  0  0  0  0  0  0  0  0  0
    5.4760   -1.7306   -0.7763 C   0  0  0  0  0  0  0  0  0  0  0  0
    6.0286   -1.5718    0.5567 N   0  0  0  0  0  0  0  0  0  0  0  0
    5.6790   -0.4480   -1.5648 C   0  0  0  0  0  0  0  0  0  0  0  0
    5.0683   -0.6987   -3.2799 S   0  0  0  0  0  0  0  0  0  0  0  0
    6.5077    0.0898   -4.1118 C   0  0  0  0  0  0  0  0  0  0  0  0
    7.2933    0.5642   -2.9279 C   0  0  0  0  0  0  0  0  0  0  0  0
    7.0699   -0.2878   -1.8176 N   0  0  0  0  0  0  0  0  0  0  0  0
    7.1288    2.0317   -2.6544 C   0  0  0  0  0  0  0  0  0  0  0  0
    7.9593    2.4041   -1.4427 C   0  0  0  0  0  0  0  0  0  0  0  0
    5.7220    2.5116   -2.5827 C   0  0  0  0  0  0  0  0  0  0  0  0
    5.6643    0.4936    4.8281 O   0  0  0  0  0  0  0  0  0  0  0  0
    6.4035    1.6335    5.0875 C   0  0  0  0  0  0  0  0  0  0  0  0
    5.4871   -2.0168    3.2876 C   0  0  0  0  0  0  0  0  0  0  0  0
   -6.0296    3.1148    0.0770 N   0  0  0  0  0  0  0  0  0  0  0  0
   -4.1143    3.1901   -1.2859 O   0  0  0  0  0  0  0  0  0  0  0  0
   -6.6743    3.2127    1.4364 S   0  0  0  0  0  0  0  0  0  0  0  0
   -8.1854    2.8121    1.8017 C   0  0  0  0  0  0  0  0  0  0  0  0
   -5.7579    3.5017    2.7283 O   0  0  0  0  0  0  0  0  0  0  0  0
   -7.0463    5.2887    1.3063 O   0  0  0  0  0  0  0  0  0  0  0  0
   -8.7871    3.3623    3.1393 C   0  0  0  0  0  0  0  0  0  0  0  0
   -9.3455    3.8194    1.8435 C   0  0  0  0  0  0  0  0  0  0  0  0
    0.3450   -0.5672   -1.6969 C   0  0  0  0  0  0  0  0  0  0  0  0
   -0.9936   -0.9184   -1.1170 C   0  0  2  0  0  0  0  0  0  0  0  0
   -1.1666   -0.1380    0.1303 C   0  0  1  0  0  0  0  0  0  0  0  0
    0.1155    0.5702    0.3816 C   0  0  0  0  0  0  0  0  0  0  0  0
    1.1561   -0.0094   -0.5333 C   0  0  1  0  0  0  0  0  0  0  0  0
   -2.2659    0.8969   -0.1043 C   0  0  0  0  0  0  0  0  0  0  0  0
   -1.7569    2.1789   -0.1794 O   0  0  0  0  0  0  0  0  0  0  0  0
   -3.1648    0.8316    1.0022 N   0  0  0  0  0  0  0  0  0  0  0  0
   -0.9748   -2.4288   -0.8503 C   0  0  0  0  0  0  0  0  0  0  0  0
   -1.7993   -2.7387    0.2201 O   0  0  0  0  0  0  0  0  0  0  0  0
   -4.9599   -0.5704    0.2760 C   0  0  1  0  0  0  0  0  0  0  0  0
   -5.1985    2.0543    0.3636 C   0  0  2  0  0  0  0  0  0  0  0  0
   -1.4237   -3.0828   -2.0241 N   0  0  0  0  0  0  0  0  0  0  0  0
   -2.8024   -3.0093   -2.3424 C   0  0  0  0  0  0  0  0  0  0  0  0
   -0.7570   -4.2868   -2.3680 C   0  0  0  0  0  0  0  0  0  0  0  0
   -4.5784    0.7443    0.6118 C   0  0  2  0  0  0  0  0  0  0  0  0
   -5.3512   -0.0765    1.6791 C   0  0  0  0  0  0  0  0  0  0  0  0
   -6.1309   -0.9360   -0.5378 C   0  0  0  0  0  0  0  0  0  0  0  0
   -3.6830   -4.0383   -1.6792 C   0  0  0  0  0  0  0  0  0  0  0  0
   -5.1268   -3.5423   -1.5155 C   0  0  0  0  0  0  0  0  0  0  0  0
   -5.5290   -2.4899   -2.4546 C   0  0  0  0  0  0  0  0  0  0  0  0
   -5.7886   -1.1210   -1.9715 C   0  0  0  0  0  0  0  0  0  0  0  0
    1.7822   -1.0661    0.0653 O   0  0  0  0  0  0  0  0  0  0  0  0
    5.0389   -0.2749    3.8598 C   0  0  0  0  0  0  0  0  0  0  0  0
    3.5538   -0.2104    3.8198 C   0  0  0  0  0  0  0  0  0  0  0  0
    2.9185   -0.3430    2.4827 C   0  0  0  0  0  0  0  0  0  0  0  0
    3.6329   -1.2028    1.5097 C   0  0  0  0  0  0  0  0  0  0  0  0
    5.1190   -0.9218    1.5343 C   0  0  0  0  0  0  0  0  0  0  0  0
    5.6037   -1.3255    2.9173 C   0  0  0  0  0  0  0  0  0  0  0  0
    3.1463   -0.9955    0.1013 C   0  0  0  0  0  0  0  0  0  0  0  0
    3.7858   -2.1629   -0.6774 C   0  0  0  0  0  0  0  0  0  0  0  0
    5.2780   -2.0056   -0.6484 C   0  0  0  0  0  0  0  0  0  0  0  0
    5.8702   -1.5858    0.5507 N   0  0  0  0  0  0  0  0  0  0  0  0
    5.6977   -1.2732   -1.8835 C   0  0  0  0  0  0  0  0  0  0  0  0
    7.5228   -1.0250   -1.9147 S   0  0  0  0  0  0  0  0  0  0  0  0
    7.4688    0.6111   -2.7666 C   0  0  0  0  0  0  0  0  0  0  0  0
    5.9839    0.6243   -3.1066 C   0  0  1  0  0  0  0  0  0  0  0  0
    5.2767    0.1091   -1.9471 N   0  0  0  0  0  0  0  0  0  0  0  0
    5.5260    2.0145   -3.4880 C   0  0  0  0  0  0  0  0  0  0  0  0
    5.7524    2.9945   -2.3538 C   0  0  0  0  0  0  0  0  0  0  0  0
    4.0872    2.0172   -3.9436 C   0  0  0  0  0  0  0  0  0  0  0  0
    5.4495   -0.6042    5.1502 O   0  0  0  0  0  0  0  0  0  0  0  0
    6.2871    0.3898    5.6680 C   0  0  0  0  0  0  0  0  0  0  0  0
    5.0467   -2.6862    3.2999 C   0  0  0  0  0  0  0  0  0  0  0  0
   -5.1462    2.8692    1.5979 N   0  0  0  0  0  0  0  0  0  0  0  0
   -6.5185    2.0505   -0.0167 O   0  0  0  0  0  0  0  0  0  0  0  0
   -5.7655    4.2888    1.4811 S   0  0  0  0  0  0  0  0  0  0  0  0
   -7.3765    4.4987    1.3887 C   0  0  0  0  0  0  0  0  0  0  0  0
   -4.9316    5.5286    1.9246 O   0  0  0  0  0  0  0  0  0  0  0  0
   -5.4858    4.5024   -0.5025 O   0  0  0  0  0  0  0  0  0  0  0  0
   -8.1711    4.7799    2.6781 C   0  0  0  0  0  0  0  0  0  0  0  0
   -7.9509    5.9039    1.7663 C   0  0  0  0  0  0  0  0  0  0  0  0
   -0.0515   -0.6286   -1.5504 C   0  0  0  0  0  0  0  0  0  0  0  0
   -1.2586   -1.4886   -1.2399 C   0  0  2  0  0  0  0  0  0  0  0  0
   -1.7993   -0.8054   -0.0210 C   0  0  1  0  0  0  0  0  0  0  0  0
   -0.5767   -0.3657    0.7534 C   0  0  0  0  0  0  0  0  0  0  0  0
    0.5710   -0.3315   -0.2045 C   0  0  1  0  0  0  0  0  0  0  0  0
   -2.6316    0.4295   -0.3270 C   0  0  0  0  0  0  0  0  0  0  0  0
   -1.7086    1.5185   -0.3688 O   0  0  0  0  0  0  0  0  0  0  0  0
   -3.5651    0.7558    0.6732 N   0  0  0  0  0  0  0  0  0  0  0  0
   -0.8757   -2.9343   -1.0222 C   0  0  0  0  0  0  0  0  0  0  0  0
   -0.7475   -3.2415    0.3288 O   0  0  0  0  0  0  0  0  0  0  0  0
   -5.3577   -0.4161   -0.5782 C   0  0  1  0  0  0  0  0  0  0  0  0
   -5.7628    1.8086    0.7818 C   0  0  0  0  0  0  0  0  0  0  0  0
   -1.7239   -3.8779   -1.7271 N   0  0  0  0  0  0  0  0  0  0  0  0
   -3.0492   -3.4048   -1.9425 C   0  0  0  0  0  0  0  0  0  0  0  0
   -1.6569   -5.1998   -1.1553 C   0  0  0  0  0  0  0  0  0  0  0  0
   -4.9762    0.5731    0.3880 C   0  0  2  0  0  0  0  0  0  0  0  0
   -5.4820   -0.7245    0.9031 C   0  0  0  0  0  0  0  0  0  0  0  0
   -6.6635   -0.4454   -1.2583 C   0  0  0  0  0  0  0  0  0  0  0  0
   -4.1474   -4.4121   -1.9585 C   0  0  0  0  0  0  0  0  0  0  0  0
   -5.4836   -3.8106   -1.5567 C   0  0  0  0  0  0  0  0  0  0  0  0
   -5.8580   -2.5941   -2.3878 C   0  0  0  0  0  0  0  0  0  0  0  0
   -6.9737   -1.8134   -1.8169 C   0  0  0  0  0  0  0  0  0  0  0  0
    1.5034   -1.2633    0.1675 O   0  0  0  0  0  0  0  0  0  0  0  0
    4.5789    0.6135    3.9026 C   0  0  0  0  0  0  0  0  0  0  0  0
    3.1791    0.0922    3.9856 C   0  0  0  0  0  0  0  0  0  0  0  0
    2.5328   -0.2214    2.6868 C   0  0  0  0  0  0  0  0  0  0  0  0
    3.3934   -0.9415    1.6743 C   0  0  0  0  0  0  0  0  0  0  0  0
    4.7472   -0.2916    1.6596 C   0  0  0  0  0  0  0  0  0  0  0  0
    5.4188   -0.2449    3.0159 C   0  0  0  0  0  0  0  0  0  0  0  0
    2.7996   -0.8089    0.2931 C   0  0  0  0  0  0  0  0  0  0  0  0
    3.7155   -1.4074   -0.7555 C   0  0  0  0  0  0  0  0  0  0  0  0
    5.0222   -0.6277   -0.6110 C   0  0  1  0  0  0  0  0  0  0  0  0
    5.6169   -0.9162    0.6790 N   0  0  0  0  0  0  0  0  0  0  0  0
    5.9829   -0.8900   -1.7503 C   0  0  1  0  0  0  0  0  0  0  0  0
    5.2497   -0.4155   -3.3457 S   0  0  0  0  0  0  0  0  0  0  0  0
    6.6066    0.6869   -3.8816 C   0  0  0  0  0  0  0  0  0  0  0  0
    7.6391    0.4062   -2.8303 C   0  0  0  0  0  0  0  0  0  0  0  0
    7.0421    0.0368   -1.6242 N   0  0  0  0  0  0  0  0  0  0  0  0
    8.3756    1.7325   -2.5763 C   0  0  0  0  0  0  0  0  0  0  0  0
    9.0412    2.2530   -3.8103 C   0  0  0  0  0  0  0  0  0  0  0  0
    7.4402    2.7462   -1.9498 C   0  0  0  0  0  0  0  0  0  0  0  0
    4.5062    1.9330    3.4780 O   0  0  0  0  0  0  0  0  0  0  0  0
    4.9777    2.8553    4.3717 C   0  0  0  0  0  0  0  0  0  0  0  0
    5.5477   -1.6257    3.6224 C   0  0  0  0  0  0  0  0  0  0  0  0
   -5.1449    3.0102    0.3206 N   0  0  0  0  0  0  0  0  0  0  0  0
   -7.1065    1.7395    0.5047 O   0  0  0  0  0  0  0  0  0  0  0  0
   -5.7930    4.4021    0.8325 S   0  0  0  0  0  0  0  0  0  0  0  0
   -7.4157    4.2301    1.3783 C   0  0  0  0  0  0  0  0  0  0  0  0
   -4.9642    5.2104    1.8766 O   0  0  0  0  0  0  0  0  0  0  0  0
   -5.9584    5.3761   -0.5523 O   0  0  0  0  0  0  0  0  0  0  0  0
   -7.7099    3.8012    2.7720 C   0  0  0  0  0  0  0  0  0  0  0  0
   -7.8750    5.2323    2.4251 C   0  0  0  0  0  0  0  0  0  0  0  0
    0.4488   -1.7640   -2.1391 H   0  0  0  0  0  0  0  0  0  0  0  0
   -0.3903   -0.2090   -2.2648 H   0  0  0  0  0  0  0  0  0  0  0  0
   -2.2912   -1.4673   -1.9566 H   0  0  0  0  0  0  0  0  0  0  0  0
   -2.4358   -1.6799    0.8020 H   0  0  0  0  0  0  0  0  0  0  0  0
   -0.2996   -1.6067    1.5175 H   0  0  0  0  0  0  0  0  0  0  0  0
   -0.5759    0.1504    1.4363 H   0  0  0  0  0  0  0  0  0  0  0  0
    0.7017    0.4290   -0.4001 H   0  0  0  0  0  0  0  0  0  0  0  0
   -1.7531    1.1061    0.1174 H   0  0  0  0  0  0  0  0  0  0  0  0
   -2.6259    1.3706   -1.7812 H   0  0  0  0  0  0  0  0  0  0  0  0
   -3.2966    1.0965    1.6477 H   0  0  0  0  0  0  0  0  0  0  0  0
   -0.2863   -3.4319   -1.1677 H   0  0  0  0  0  0  0  0  0  0  0  0
   -0.9346   -3.8142    0.7842 H   0  0  0  0  0  0  0  0  0  0  0  0
   -4.4864   -0.9817   -1.0801 H   0  0  0  0  0  0  0  0  0  0  0  0
   -5.6822    1.5901    2.1410 H   0  0  0  0  0  0  0  0  0  0  0  0
   -3.6139   -5.1038   -0.8512 H   0  0  0  0  0  0  0  0  0  0  0  0
   -3.6014   -3.3066   -0.5150 H   0  0  0  0  0  0  0  0  0  0  0  0
   -1.9403   -5.8416   -1.1302 H   0  0  0  0  0  0  0  0  0  0  0  0
   -1.9322   -5.7778   -2.9296 H   0  0  0  0  0  0  0  0  0  0  0  0
   -0.4992   -5.1665   -1.9316 H   0  0  0  0  0  0  0  0  0  0  0  0
   -6.5323   -0.9670    1.3503 H   0  0  0  0  0  0  0  0  0  0  0  0
   -4.9437   -1.8351    1.1690 H   0  0  0  0  0  0  0  0  0  0  0  0
   -7.5033   -0.4833   -0.7008 H   0  0  0  0  0  0  0  0  0  0  0  0
   -6.6053    0.6678   -1.7253 H   0  0  0  0  0  0  0  0  0  0  0  0
   -4.3683   -2.9445   -2.8593 H   0  0  0  0  0  0  0  0  0  0  0  0
   -4.6740   -4.6854   -2.9708 H   0  0  0  0  0  0  0  0  0  0  0  0
   -6.3514   -4.7245   -1.4517 H   0  0  0  0  0  0  0  0  0  0  0  0
   -5.6525   -3.5474   -0.3463 H   0  0  0  0  0  0  0  0  0  0  0  0
   -7.7336   -2.7390   -1.1343 H   0  0  0  0  0  0  0  0  0  0  0  0
   -7.4493   -3.2813   -2.7929 H   0  0  0  0  0  0  0  0  0  0  0  0
   -7.3851   -1.0536   -3.0592 H   0  0  0  0  0  0  0  0  0  0  0  0
   -5.6641   -1.4100   -2.9605 H   0  0  0  0  0  0  0  0  0  0  0  0
    6.2290    0.9997    2.8068 H   0  0  0  0  0  0  0  0  0  0  0  0
    3.8932    2.3389    3.1739 H   0  0  0  0  0  0  0  0  0  0  0  0
    4.5631    1.9099    1.5961 H   0  0  0  0  0  0  0  0  0  0  0  0
    2.3384    1.2413    1.5821 H   0  0  0  0  0  0  0  0  0  0  0  0
    2.3021    0.5967    3.2213 H   0  0  0  0  0  0  0  0  0  0  0  0
    2.6133   -1.4667    2.1916 H   0  0  0  0  0  0  0  0  0  0  0  0
    4.7938   -2.1224    1.5902 H   0  0  0  0  0  0  0  0  0  0  0  0
    6.1697   -1.1871    3.2618 H   0  0  0  0  0  0  0  0  0  0  0  0
    2.4849    0.3657   -0.0177 H   0  0  0  0  0  0  0  0  0  0  0  0
    3.5291   -0.8651   -1.7473 H   0  0  0  0  0  0  0  0  0  0  0  0
    4.2472   -2.1015   -0.5845 H   0  0  0  0  0  0  0  0  0  0  0  0
    4.5841    0.8904   -0.5742 H   0  0  0  0  0  0  0  0  0  0  0  0
    6.4380   -0.6710    0.9351 H   0  0  0  0  0  0  0  0  0  0  0  0
    6.6239   -1.3209   -1.2692 H   0  0  0  0  0  0  0  0  0  0  0  0
    6.6532    2.0218   -3.7517 H   0  0  0  0  0  0  0  0  0  0  0  0
    7.4063    0.5226   -4.5412 H   0  0  0  0  0  0  0  0  0  0  0  0
    8.4570   -0.1704   -2.5624 H   0  0  0  0  0  0  0  0  0  0  0  0
    6.4982    1.6305   -1.2550 H   0  0  0  0  0  0  0  0  0  0  0  0
    9.5861    1.6026   -1.4936 H   0  0  0  0  0  0  0  0  0  0  0  0
    9.1696    2.5744   -4.3526 H   0  0  0  0  0  0  0  0  0  0  0  0
   10.5815    2.7500   -3.2555 H   0  0  0  0  0  0  0  0  0  0  0  0
   10.1616    1.1117   -3.8339 H   0  0  0  0  0  0  0  0  0  0  0  0
    8.9998    4.0048   -2.0307 H   0  0  0  0  0  0  0  0  0  0  0  0
    8.0995    3.1523   -0.7651 H   0  0  0  0  0  0  0  0  0  0  0  0
    7.3325    3.4141   -2.4315 H   0  0  0  0  0  0  0  0  0  0  0  0
    7.3830    0.9360    4.6353 H   0  0  0  0  0  0  0  0  0  0  0  0
    6.7942    2.5041    4.0709 H   0  0  0  0  0  0  0  0  0  0  0  0
    6.7574    2.1097    5.8652 H   0  0  0  0  0  0  0  0  0  0  0  0
    3.7366   -0.5284    4.7734 H   0  0  0  0  0  0  0  0  0  0  0  0
    4.9686   -1.7614    5.0776 H   0  0  0  0  0  0  0  0  0  0  0  0
    3.6495   -2.1922    3.9614 H   0  0  0  0  0  0  0  0  0  0  0  0
   -5.5875    2.6427   -0.6420 H   0  0  0  0  0  0  0  0  0  0  0  0
   -7.5639    1.7537    0.1378 H   0  0  0  0  0  0  0  0  0  0  0  0
   -8.4880    3.9031    0.1696 H   0  0  0  0  0  0  0  0  0  0  0  0
   -4.5214    4.8637    2.1881 H   0  0  0  0  0  0  0  0  0  0  0  0
   -6.5522    4.7154   -1.0995 H   0  0  0  0  0  0  0  0  0  0  0  0
   -7.9388    3.2693    3.2022 H   0  0  0  0  0  0  0  0  0  0  0  0
   -9.5529    3.2113    2.3142 H   0  0  0  0  0  0  0  0  0  0  0  0
   -7.7400    5.6840    2.6530 H   0  0  0  0  0  0  0  0  0  0  0  0
   -9.2936    5.6977    1.6713 H   0  0  0  0  0  0  0  0  0  0  0  0
    0.6832   -2.6747   -1.3884 H   0  0  0  0  0  0  0  0  0  0  0  0
    0.4786   -1.3282   -2.5509 H   0  0  0  0  0  0  0  0  0  0  0  0
   -1.7549   -1.3485   -2.1257 H   0  0  0  0  0  0  0  0  0  0  0  0
   -1.9388   -1.0862    0.6892 H   0  0  0  0  0  0  0  0  0  0  0  0
    0.0882   -0.5716    1.4466 H   0  0  0  0  0  0  0  0  0  0  0  0
    0.0400    0.9378    0.5422 H   0  0  0  0  0  0  0  0  0  0  0  0
    1.4512    0.1624   -1.0905 H   0  0  0  0  0  0  0  0  0  0  0  0
   -2.8069    0.3774   -1.4799 H   0  0  0  0  0  0  0  0  0  0  0  0
   -1.4165    2.4691   -0.8667 H   0  0  0  0  0  0  0  0  0  0  0  0
   -2.3274    2.1525    0.7520 H   0  0  0  0  0  0  0  0  0  0  0  0
   -0.7574   -3.5803   -0.3851 H   0  0  0  0  0  0  0  0  0  0  0  0
   -2.2880   -3.4076    1.0494 H   0  0  0  0  0  0  0  0  0  0  0  0
   -4.1135   -0.7075   -0.2065 H   0  0  0  0  0  0  0  0  0  0  0  0
   -4.1244    3.4794    0.6680 H   0  0  0  0  0  0  0  0  0  0  0  0
   -3.5881   -2.0894   -2.0750 H   0  0  0  0  0  0  0  0  0  0  0  0
   -3.8026   -3.4160   -3.2098 H   0  0  0  0  0  0  0  0  0  0  0  0
   -3.0471   -5.6433   -2.0629 H   0  0  0  0  0  0  0  0  0  0  0  0
   -1.4416   -5.3311   -2.7493 H   0  0  0  0  0  0  0  0  0  0  0  0
   -1.5617   -5.4635   -0.9875 H   0  0  0  0  0  0  0  0  0  0  0  0
   -5.9310    0.9264    1.7743 H   0  0  0  0  0  0  0  0  0  0  0  0
   -4.3615    0.0793    2.1655 H   0  0  0  0  0  0  0  0  0  0  0  0
   -6.6352    1.0421   -0.8437 H   0  0  0  0  0  0  0  0  0  0  0  0
   -6.8806   -0.5324   -0.1209 H   0  0  0  0  0  0  0  0  0  0  0  0
   -5.0214   -4.7506   -1.8749 H   0  0  0  0  0  0  0  0  0  0  0  0
   -4.2785   -4.1962   -0.3688 H   0  0  0  0  0  0  0  0  0  0  0  0
   -6.7321   -3.6014   -0.9599 H   0  0  0  0  0  0  0  0  0  0  0  0
   -5.7356   -2.4447   -0.1072 H   0  0  0  0  0  0  0  0  0  0  0  0
   -7.2004   -2.1813   -2.6216 H   0  0  0  0  0  0  0  0  0  0  0  0
   -5.5173   -2.3261   -3.0973 H   0  0  0  0  0  0  0  0  0  0  0  0
   -6.6342   -0.0230   -2.8043 H   0  0  0  0  0  0  0  0  0  0  0  0
   -4.9287   -0.1655   -2.4476 H   0  0  0  0  0  0  0  0  0  0  0  0
    5.6501    1.3991    2.9854 H   0  0  0  0  0  0  0  0  0  0  0  0
    3.3327   -0.4032    3.9198 H   0  0  0  0  0  0  0  0  0  0  0  0
    3.4086    1.4148    3.9371 H   0  0  0  0  0  0  0  0  0  0  0  0
    3.6488    1.3454    1.4395 H   0  0  0  0  0  0  0  0  0  0  0  0
    2.2027    0.3751    2.0412 H   0  0  0  0  0  0  0  0  0  0  0  0
    3.6192   -1.6541    1.9707 H   0  0  0  0  0  0  0  0  0  0  0  0
    5.5663    0.4655    0.9673 H   0  0  0  0  0  0  0  0  0  0  0  0
    6.9561   -0.5670    2.7425 H   0  0  0  0  0  0  0  0  0  0  0  0
    3.2611   -0.1042   -0.6148 H   0  0  0  0  0  0  0  0  0  0  0  0
    3.6681   -2.2907   -1.7369 H   0  0  0  0  0  0  0  0  0  0  0  0
    3.9040   -3.0309   -0.1382 H   0  0  0  0  0  0  0  0  0  0  0  0
    6.0406   -2.5318   -1.2810 H   0  0  0  0  0  0  0  0  0  0  0  0
    7.0254   -1.3021    0.4564 H   0  0  0  0  0  0  0  0  0  0  0  0
    5.1794    0.4012   -1.0802 H   0  0  0  0  0  0  0  0  0  0  0  0
    6.0900    0.9680   -4.6728 H   0  0  0  0  0  0  0  0  0  0  0  0
    7.0167   -0.6281   -4.7545 H   0  0  0  0  0  0  0  0  0  0  0  0
    8.3808    0.4302   -3.2185 H   0  0  0  0  0  0  0  0  0  0  0  0
    7.6517    0.0098   -1.0346 H   0  0  0  0  0  0  0  0  0  0  0  0
    7.6122    2.5805   -3.5178 H   0  0  0  0  0  0  0  0  0  0  0  0
    8.2256    3.4797   -1.5061 H   0  0  0  0  0  0  0  0  0  0  0  0
    7.4052    2.2685   -0.4925 H   0  0  0  0  0  0  0  0  0  0  0  0
    8.8418    1.7337   -1.4217 H   0  0  0  0  0  0  0  0  0  0  0  0
    5.4639    2.7430   -1.5145 H   0  0  0  0  0  0  0  0  0  0  0  0
    4.9634    1.8395   -2.9848 H   0  0  0  0  0  0  0  0  0  0  0  0
    5.5653    3.4976   -3.1125 H   0  0  0  0  0  0  0  0  0  0  0  0
    7.3240    1.6609    4.4320 H   0  0  0  0  0  0  0  0  0  0  0  0
    5.8683    2.5824    4.8965 H   0  0  0  0  0  0  0  0  0  0  0  0
    6.7376    1.6199    6.1551 H   0  0  0  0  0  0  0  0  0  0  0  0
    4.5212   -2.0604    3.7978 H   0  0  0  0  0  0  0  0  0  0  0  0
    6.2431   -2.4329    4.0051 H   0  0  0  0  0  0  0  0  0  0  0  0
    5.4471   -2.7581    2.4440 H   0  0  0  0  0  0  0  0  0  0  0  0
   -6.4318    3.4668   -0.8307 H   0  0  0  0  0  0  0  0  0  0  0  0
   -4.4820    2.5506   -1.9480 H   0  0  0  0  0  0  0  0  0  0  0  0
   -8.5547    1.7583    1.6198 H   0  0  0  0  0  0  0  0  0  0  0  0
   -6.1448    3.3067    3.6156 H   0  0  0  0  0  0  0  0  0  0  0  0
   -7.4563    5.1004    0.4504 H   0  0  0  0  0  0  0  0  0  0  0  0
   -8.1483    4.1137    3.6689 H   0  0  0  0  0  0  0  0  0  0  0  0
   -9.4102    2.6954    3.7307 H   0  0  0  0  0  0  0  0  0  0  0  0
   -9.1386    4.8543    1.5135 H   0  0  0  0  0  0  0  0  0  0  0  0
  -10.3448    3.4706    1.5108 H   0  0  0  0  0  0  0  0  0  0  0  0
    0.8179   -1.4750   -2.1217 H   0  0  0  0  0  0  0  0  0  0  0  0
    0.1807    0.2031   -2.4782 H   0  0  0  0  0  0  0  0  0  0  0  0
   -1.7829   -0.6588   -1.8589 H   0  0  0  0  0  0  0  0  0  0  0  0
   -1.4576   -0.8075    0.9915 H   0  0  0  0  0  0  0  0  0  0  0  0
    0.3576    0.4747    1.4633 H   0  0  0  0  0  0  0  0  0  0  0  0
    0.0109    1.6835    0.2261 H   0  0  0  0  0  0  0  0  0  0  0  0
    1.8250    0.8015   -0.8724 H   0  0  0  0  0  0  0  0  0  0  0  0
   -2.8365    0.6534   -1.0317 H   0  0  0  0  0  0  0  0  0  0  0  0
   -1.8289    2.6391    0.6966 H   0  0  0  0  0  0  0  0  0  0  0  0
   -3.0360    1.5698    1.7174 H   0  0  0  0  0  0  0  0  0  0  0  0
    0.0770   -2.7209   -0.6239 H   0  0  0  0  0  0  0  0  0  0  0  0
   -1.2749   -2.8998    1.0555 H   0  0  0  0  0  0  0  0  0  0  0  0
   -4.1436   -1.3440    0.2397 H   0  0  0  0  0  0  0  0  0  0  0  0
   -4.6549    2.6571   -0.3914 H   0  0  0  0  0  0  0  0  0  0  0  0
   -3.1951   -2.0272   -2.0152 H   0  0  0  0  0  0  0  0  0  0  0  0
   -2.8590   -3.1106   -3.4725 H   0  0  0  0  0  0  0  0  0  0  0  0
   -1.3763   -5.1872   -2.4088 H   0  0  0  0  0  0  0  0  0  0  0  0
   -0.2163   -4.1004   -3.3395 H   0  0  0  0  0  0  0  0  0  0  0  0
    0.0583   -4.4727   -1.6251 H   0  0  0  0  0  0  0  0  0  0  0  0
   -6.4028    0.1957    1.8755 H   0  0  0  0  0  0  0  0  0  0  0  0
   -4.8205   -0.5590    2.4883 H   0  0  0  0  0  0  0  0  0  0  0  0
   -6.9723   -0.1845   -0.4888 H   0  0  0  0  0  0  0  0  0  0  0  0
   -6.6426   -1.8827   -0.1863 H   0  0  0  0  0  0  0  0  0  0  0  0
   -3.6332   -4.9654   -2.2885 H   0  0  0  0  0  0  0  0  0  0  0  0
   -3.2429   -4.3175   -0.6934 H   0  0  0  0  0  0  0  0  0  0  0  0
   -5.7395   -4.4867   -1.6649 H   0  0  0  0  0  0  0  0  0  0  0  0
   -5.2549   -3.3378   -0.4384 H   0  0  0  0  0  0  0  0  0  0  0  0
   -6.4242   -2.8628   -3.0443 H   0  0  0  0  0  0  0  0  0  0  0  0
   -4.7454   -2.4205   -3.2681 H   0  0  0  0  0  0  0  0  0  0  0  0
   -6.5995   -0.6777   -2.6322 H   0  0  0  0  0  0  0  0  0  0  0  0
   -4.9310   -0.4122   -2.1862 H   0  0  0  0  0  0  0  0  0  0  0  0
    5.4973    0.7025    3.5811 H   0  0  0  0  0  0  0  0  0  0  0  0
    3.1257   -0.9236    4.5791 H   0  0  0  0  0  0  0  0  0  0  0  0
    3.2612    0.8031    4.2261 H   0  0  0  0  0  0  0  0  0  0  0  0
    2.6818    0.6385    2.0228 H   0  0  0  0  0  0  0  0  0  0  0  0
    1.9141   -0.8390    2.6628 H   0  0  0  0  0  0  0  0  0  0  0  0
    3.5240   -2.2889    1.7198 H   0  0  0  0  0  0  0  0  0  0  0  0
    5.2194    0.2034    1.5003 H   0  0  0  0  0  0  0  0  0  0  0  0
    6.6947   -1.2934    3.0095 H   0  0  0  0  0  0  0  0  0  0  0  0
    3.5147   -0.0614   -0.3553 H   0  0  0  0  0  0  0  0  0  0  0  0
    3.4756   -2.1476   -1.7420 H   0  0  0  0  0  0  0  0  0  0  0  0
    3.5060   -3.1141   -0.1761 H   0  0  0  0  0  0  0  0  0  0  0  0
    5.6615   -3.0713   -0.8213 H   0  0  0  0  0  0  0  0  0  0  0  0
    6.7609   -1.0836    0.3686 H   0  0  0  0  0  0  0  0  0  0  0  0
    5.4146   -1.8250   -2.7842 H   0  0  0  0  0  0  0  0  0  0  0  0
    7.7829    1.4181   -2.1083 H   0  0  0  0  0  0  0  0  0  0  0  0
    8.0133    0.5516   -3.7271 H   0  0  0  0  0  0  0  0  0  0  0  0
    5.8592   -0.0658   -3.9640 H   0  0  0  0  0  0  0  0  0  0  0  0
    5.7065    0.6117   -1.1211 H   0  0  0  0  0  0  0  0  0  0  0  0
    6.1579    2.3468   -4.3361 H   0  0  0  0  0  0  0  0  0  0  0  0
    6.8475    3.2125   -2.3346 H   0  0  0  0  0  0  0  0  0  0  0  0
    5.3612    2.6226   -1.3998 H   0  0  0  0  0  0  0  0  0  0  0  0
    5.2345    3.9473   -2.6658 H   0  0  0  0  0  0  0  0  0  0  0  0
    3.4508    2.3027   -3.0746 H   0  0  0  0  0  0  0  0  0  0  0  0
    3.9260    2.8318   -4.7085 H   0  0  0  0  0  0  0  0  0  0  0  0
    3.7656    1.0831   -4.4136 H   0  0  0  0  0  0  0  0  0  0  0  0
    7.1748    0.4778    5.0026 H   0  0  0  0  0  0  0  0  0  0  0  0
    5.7885    1.3855    5.6981 H   0  0  0  0  0  0  0  0  0  0  0  0
    6.5402    0.1291    6.7113 H   0  0  0  0  0  0  0  0  0  0  0  0
    4.0128   -2.6143    3.7046 H   0  0  0  0  0  0  0  0  0  0  0  0
    5.6614   -3.0679    4.1672 H   0  0  0  0  0  0  0  0  0  0  0  0
    5.1304   -3.4206    2.4725 H   0  0  0  0  0  0  0  0  0  0  0  0
   -5.2890    2.2552    2.4289 H   0  0  0  0  0  0  0  0  0  0  0  0
   -6.6516    2.3928   -0.9385 H   0  0  0  0  0  0  0  0  0  0  0  0
   -7.9697    4.0378    0.5531 H   0  0  0  0  0  0  0  0  0  0  0  0
   -3.9947    5.6230    1.6649 H   0  0  0  0  0  0  0  0  0  0  0  0
   -5.8658    5.3954   -0.4846 H   0  0  0  0  0  0  0  0  0  0  0  0
   -7.5981    4.7643    3.6334 H   0  0  0  0  0  0  0  0  0  0  0  0
   -9.1913    4.3625    2.7388 H   0  0  0  0  0  0  0  0  0  0  0  0
   -7.2005    6.6572    2.0524 H   0  0  0  0  0  0  0  0  0  0  0  0
   -8.8083    6.2713    1.1973 H   0  0  0  0  0  0  0  0  0  0  0  0
    0.6673   -1.1938   -2.1596 H   0  0  0  0  0  0  0  0  0  0  0  0
   -0.4361    0.2862   -2.0449 H   0  0  0  0  0  0  0  0  0  0  0  0
   -1.9984   -1.4341   -2.0750 H   0  0  0  0  0  0  0  0  0  0  0  0
   -2.3949   -1.4241    0.6527 H   0  0  0  0  0  0  0  0  0  0  0  0
   -0.4143   -1.0795    1.6144 H   0  0  0  0  0  0  0  0  0  0  0  0
   -0.6875    0.6288    1.2006 H   0  0  0  0  0  0  0  0  0  0  0  0
    1.1045    0.6575   -0.2492 H   0  0  0  0  0  0  0  0  0  0  0  0
   -2.9650    0.3490   -1.3566 H   0  0  0  0  0  0  0  0  0  0  0  0
   -2.1750    2.3358   -0.6742 H   0  0  0  0  0  0  0  0  0  0  0  0
   -3.3360    0.3183    1.5811 H   0  0  0  0  0  0  0  0  0  0  0  0
    0.1450   -3.0692   -1.4590 H   0  0  0  0  0  0  0  0  0  0  0  0
   -0.0910   -3.9263    0.5404 H   0  0  0  0  0  0  0  0  0  0  0  0
   -4.5338   -0.8364   -1.1852 H   0  0  0  0  0  0  0  0  0  0  0  0
   -5.6798    1.8340    1.9193 H   0  0  0  0  0  0  0  0  0  0  0  0
   -3.2827   -2.6567   -1.1537 H   0  0  0  0  0  0  0  0  0  0  0  0
   -3.0822   -2.8784   -2.9140 H   0  0  0  0  0  0  0  0  0  0  0  0
   -2.2399   -5.2979   -0.2231 H   0  0  0  0  0  0  0  0  0  0  0  0
   -1.9736   -5.9249   -1.9289 H   0  0  0  0  0  0  0  0  0  0  0  0
   -0.5839   -5.4106   -0.9296 H   0  0  0  0  0  0  0  0  0  0  0  0
   -6.4599   -0.7123    1.3878 H   0  0  0  0  0  0  0  0  0  0  0  0
   -4.8281   -1.5485    1.2179 H   0  0  0  0  0  0  0  0  0  0  0  0
   -7.5324   -0.2552   -0.5486 H   0  0  0  0  0  0  0  0  0  0  0  0
   -6.7829    0.3058   -2.0641 H   0  0  0  0  0  0  0  0  0  0  0  0
   -4.2399   -4.8119   -2.9963 H   0  0  0  0  0  0  0  0  0  0  0  0
   -3.9944   -5.2774   -1.2838 H   0  0  0  0  0  0  0  0  0  0  0  0
   -6.2397   -4.6001   -1.7523 H   0  0  0  0  0  0  0  0  0  0  0  0
   -5.5307   -3.6134   -0.4669 H   0  0  0  0  0  0  0  0  0  0  0  0
   -6.2307   -3.0173   -3.3828 H   0  0  0  0  0  0  0  0  0  0  0  0
   -4.9738   -2.0126   -2.7190 H   0  0  0  0  0  0  0  0  0  0  0  0
   -7.4807   -2.4410   -1.0512 H   0  0  0  0  0  0  0  0  0  0  0  0
   -7.7421   -1.6325   -2.6193 H   0  0  0  0  0  0  0  0  0  0  0  0
    5.0283    0.6378    4.9206 H   0  0  0  0  0  0  0  0  0  0  0  0
    3.1553   -0.8217    4.6229 H   0  0  0  0  0  0  0  0  0  0  0  0
    2.5292    0.8296    4.5127 H   0  0  0  0  0  0  0  0  0  0  0  0
    2.2294    0.7478    2.2101 H   0  0  0  0  0  0  0  0  0  0  0  0
    1.5772   -0.7949    2.8157 H   0  0  0  0  0  0  0  0  0  0  0  0
    3.5268   -2.0066    1.9683 H   0  0  0  0  0  0  0  0  0  0  0  0
    4.6137    0.7594    1.3257 H   0  0  0  0  0  0  0  0  0  0  0  0
    6.4355    0.1326    2.8538 H   0  0  0  0  0  0  0  0  0  0  0  0
    2.7836    0.2834    0.0586 H   0  0  0  0  0  0  0  0  0  0  0  0
    3.3243   -1.2169   -1.7536 H   0  0  0  0  0  0  0  0  0  0  0  0
    3.9579   -2.4530   -0.5674 H   0  0  0  0  0  0  0  0  0  0  0  0
    4.7163    0.4390   -0.5791 H   0  0  0  0  0  0  0  0  0  0  0  0
    5.5884   -1.9402    0.8790 H   0  0  0  0  0  0  0  0  0  0  0  0
    6.2922   -1.9334   -1.7983 H   0  0  0  0  0  0  0  0  0  0  0  0
    6.2833    1.7251   -3.9512 H   0  0  0  0  0  0  0  0  0  0  0  0
    6.9849    0.2723   -4.8378 H   0  0  0  0  0  0  0  0  0  0  0  0
    8.4410   -0.3021   -3.1840 H   0  0  0  0  0  0  0  0  0  0  0  0
    7.0246    0.6970   -0.8458 H   0  0  0  0  0  0  0  0  0  0  0  0
    9.1750    1.5295   -1.8305 H   0  0  0  0  0  0  0  0  0  0  0  0
    8.2621    2.6302   -4.4918 H   0  0  0  0  0  0  0  0  0  0  0  0
    9.7119    3.0847   -3.4814 H   0  0  0  0  0  0  0  0  0  0  0  0
    9.6212    1.4156   -4.2547 H   0  0  0  0  0  0  0  0  0  0  0  0
    7.7114    2.9543   -0.8756 H   0  0  0  0  0  0  0  0  0  0  0  0
    6.3969    2.3386   -1.8887 H   0  0  0  0  0  0  0  0  0  0  0  0
    7.5094    3.6771   -2.5135 H   0  0  0  0  0  0  0  0  0  0  0  0
    6.0649    2.7013    4.6341 H   0  0  0  0  0  0  0  0  0  0  0  0
    4.9876    3.8443    3.8235 H   0  0  0  0  0  0  0  0  0  0  0  0
    4.3454    3.0092    5.2535 H   0  0  0  0  0  0  0  0  0  0  0  0
    4.9612   -1.7558    4.5540 H   0  0  0  0  0  0  0  0  0  0  0  0
    6.6125   -1.8393    3.9336 H   0  0  0  0  0  0  0  0  0  0  0  0
    5.3183   -2.4167    2.8747 H   0  0  0  0  0  0  0  0  0  0  0  0
   -4.9090    2.9924   -0.6945 H   0  0  0  0  0  0  0  0  0  0  0  0
   -7.2096    2.0510   -0.4575 H   0  0  0  0  0  0  0  0  0  0  0  0
   -8.1510    3.8854    0.6297 H   0  0  0  0  0  0  0  0  0  0  0  0
   -4.3396    4.6933    2.4354 H   0  0  0  0  0  0  0  0  0  0  0  0
   -6.1652    4.7758   -1.3223 H   0  0  0  0  0  0  0  0  0  0  0  0
   -6.8891    3.5675    3.4857 H   0  0  0  0  0  0  0  0  0  0  0  0
   -8.6277    3.2322    2.9754 H   0  0  0  0  0  0  0  0  0  0  0  0
   -7.1631    5.9778    2.7955 H   0  0  0  0  0  0  0  0  0  0  0  0
   -8.8931    5.6405    2.2158 H   0  0  0  0  0  0  0  0  0  0  0  0
  1  2  1  0
  2  3  1  0
  3  4  1  0
  1  5  1  0
  4  5  1  0
  3  6  1  0
  6  7  1  0
  6  8  1  0
  2  9  1  0
  9 10  1  0
  9 13  1  0
 13 14  1  0
 13 15  1  0
  8 16  1  0
 11 16  1  0
 16 12  1  6
 11 17  1  0
 16 17  1  0
 11 18  1  0
 14 19  1  0
 19 20  1  0
 20 21  1  0
 18 22  1  0
 21 22  1  0
  5 23  1  0
 24 25  1  0
 25 26  1  0
 26 27  1  0
 27 28  1  0
 24 29  1  0
 28 29  1  0
 23 30  1  0
 27 30  1  0
 30 31  1  0
 31 32  1  0
 28 33  1  0
 32 33  1  0
 32 34  1  0
 34 35  1  0
 35 36  1  0
 36 37  1  0
 34 38  1  0
 37 38  1  0
 37 39  1  0
 39 40  1  0
 39 41  1  0
 24 42  1  0
 42 43  1  0
 29 44  1  0
 12 45  1  0
 12 46  1  0
 45 47  1  0
 47 48  1  0
 47 49  1  0
 47 50  1  0
 48 51  1  0
 48 52  1  0
 51 52  1  0
 53 54  1  0
 54 55  1  0
 55 56  1  0
 53 57  1  0
 56 57  1  0
 55 58  1  0
 58 59  1  0
 58 60  1  0
 54 61  1  0
 61 62  1  0
 61 65  1  0
 65 66  1  0
 65 67  1  0
 68 60  1  1
 63 68  1  0
 64 68  1  0
 63 69  1  0
 68 69  1  0
 63 70  1  0
 66 71  1  0
 71 72  1  0
 72 73  1  0
 70 74  1  0
 73 74  1  0
 57 75  1  0
 76 77  1  0
 77 78  1  0
 78 79  1  0
 79 80  1  0
 76 81  1  0
 80 81  1  0
 75 82  1  0
 79 82  1  0
 82 83  1  0
 83 84  1  0
 80 85  1  0
 84 85  1  0
 84 86  1  0
 86 87  1  0
 87 88  1  0
 88 89  1  0
 86 90  1  0
 89 90  1  0
 89 91  1  0
 91 92  1  0
 91 93  1  0
 76 94  1  0
 94 95  1  0
 81 96  1  0
 64 97  1  0
 64 98  1  0
 97 99  1  0
 99100  1  0
 99101  1  0
 99102  1  0
100103  1  0
100104  1  0
103104  1  0
105106  1  0
106107  1  0
107108  1  0
105109  1  0
108109  1  0
107110  1  0
110111  1  0
110112  1  0
106113  1  0
113114  1  0
113117  1  0
117118  1  0
117119  1  0
120112  1  1
115120  1  0
116120  1  0
115121  1  0
120121  1  0
115122  1  0
118123  1  0
123124  1  0
124125  1  0
122126  1  0
125126  1  0
109127  1  0
128129  1  0
129130  1  0
130131  1  0
131132  1  0
128133  1  0
132133  1  0
127134  1  0
131134  1  0
134135  1  0
135136  1  0
132137  1  0
136137  1  0
136138  1  0
138139  1  0
139140  1  0
140141  1  0
138142  1  0
141142  1  0
141143  1  0
143144  1  0
143145  1  0
128146  1  0
146147  1  0
133148  1  0
116149  1  0
116150  1  0
149151  1  0
151152  1  0
151153  1  0
151154  1  0
152155  1  0
152156  1  0
155156  1  0
157158  1  0
158159  1  0
159160  1  0
157161  1  0
160161  1  0
159162  1  0
162163  1  0
162164  1  0
158165  1  0
165166  1  0
165169  1  0
169170  1  0
169171  1  0
164172  1  0
167172  1  0
172168  1  6
167173  1  0
172173  1  0
167174  1  0
170175  1  0
175176  1  0
176177  1  0
174178  1  0
177178  1  0
161179  1  0
180181  1  0
181182  1  0
182183  1  0
183184  1  0
180185  1  0
184185  1  0
179186  1  0
183186  1  0
186187  1  0
187188  1  0
184189  1  0
188189  1  0
188190  1  0
190191  1  0
191192  1  0
192193  1  0
190194  1  0
193194  1  0
193195  1  0
195196  1  0
195197  1  0
180198  1  0
198199  1  0
185200  1  0
168201  1  0
168202  1  0
201203  1  0
203204  1  0
203205  1  0
203206  1  0
204207  1  0
204208  1  0
207208  1  0
  1209  1  0
  1210  1  0
  2211  1  6
  3212  1  1
  4213  1  0
  4214  1  0
  5215  1  6
  6216  1  1
  7217  1  0
  8218  1  0
  9219  1  0
 10220  1  0
 11221  1  6
 12222  1  0
 14223  1  0
 14224  1  0
 15225  1  0
 15226  1  0
 15227  1  0
 17228  1  0
 17229  1  0
 18230  1  0
 18231  1  0
 19232  1  0
 19233  1  0
 20234  1  0
 20235  1  0
 21236  1  0
 21237  1  0
 22238  1  0
 22239  1  0
 24240  1  0
 25241  1  0
 25242  1  0
 26243  1  0
 26244  1  0
 27245  1  0
 28246  1  0
 29247  1  0
 30248  1  0
 31249  1  0
 31250  1  0
 32251  1  1
 33252  1  0
 34253  1  6
 36254  1  0
 36255  1  0
 37256  1  6
 38257  1  0
 39258  1  0
 40259  1  0
 40260  1  0
 40261  1  0
 41262  1  0
 41263  1  0
 41264  1  0
 43265  1  0
 43266  1  0
 43267  1  0
 44268  1  0
 44269  1  0
 44270  1  0
 45271  1  0
 46272  1  0
 48273  1  0
 49274  1  0
 50275  1  0
 51276  1  0
 51277  1  0
 52278  1  0
 52279  1  0
 53280  1  0
 53281  1  0
 54282  1  6
 55283  1  1
 56284  1  0
 56285  1  0
 57286  1  6
 58287  1  0
 59288  1  0
 60289  1  0
 61290  1  0
 62291  1  0
 63292  1  1
 64293  1  1
 66294  1  0
 66295  1  0
 67296  1  0
 67297  1  0
 67298  1  0
 69299  1  0
 69300  1  0
 70301  1  0
 70302  1  0
 71303  1  0
 71304  1  0
 72305  1  0
 72306  1  0
 73307  1  0
 73308  1  0
 74309  1  0
 74310  1  0
 76311  1  0
 77312  1  0
 77313  1  0
 78314  1  0
 78315  1  0
 79316  1  0
 80317  1  0
 81318  1  0
 82319  1  0
 83320  1  0
 83321  1  0
 84322  1  0
 85323  1  0
 86324  1  0
 88325  1  0
 88326  1  0
 89327  1  0
 90328  1  0
 91329  1  0
 92330  1  0
 92331  1  0
 92332  1  0
 93333  1  0
 93334  1  0
 93335  1  0
 95336  1  0
 95337  1  0
 95338  1  0
 96339  1  0
 96340  1  0
 96341  1  0
 97342  1  0
 98343  1  0
100344  1  0
101345  1  0
102346  1  0
103347  1  0
103348  1  0
104349  1  0
104350  1  0
105351  1  0
105352  1  0
106353  1  6
107354  1  1
108355  1  0
108356  1  0
109357  1  6
110358  1  0
111359  1  0
112360  1  0
113361  1  0
114362  1  0
115363  1  1
116364  1  6
118365  1  0
118366  1  0
119367  1  0
119368  1  0
119369  1  0
121370  1  0
121371  1  0
122372  1  0
122373  1  0
123374  1  0
123375  1  0
124376  1  0
124377  1  0
125378  1  0
125379  1  0
126380  1  0
126381  1  0
128382  1  0
129383  1  0
129384  1  0
130385  1  0
130386  1  0
131387  1  0
132388  1  0
133389  1  0
134390  1  0
135391  1  0
135392  1  0
136393  1  0
137394  1  0
138395  1  0
140396  1  0
140397  1  0
141398  1  6
142399  1  0
143400  1  0
144401  1  0
144402  1  0
144403  1  0
145404  1  0
145405  1  0
145406  1  0
147407  1  0
147408  1  0
147409  1  0
148410  1  0
148411  1  0
148412  1  0
149413  1  0
150414  1  0
152415  1  0
153416  1  0
154417  1  0
155418  1  0
155419  1  0
156420  1  0
156421  1  0
157422  1  0
157423  1  0
158424  1  6
159425  1  1
160426  1  0
160427  1  0
161428  1  6
162429  1  0
163430  1  0
164431  1  0
165432  1  0
166433  1  0
167434  1  6
168435  1  0
170436  1  0
170437  1  0
171438  1  0
171439  1  0
171440  1  0
173441  1  0
173442  1  0
174443  1  0
174444  1  0
175445  1  0
175446  1  0
176447  1  0
176448  1  0
177449  1  0
177450  1  0
178451  1  0
178452  1  0
180453  1  0
181454  1  0
181455  1  0
182456  1  0
182457  1  0
183458  1  0
184459  1  0
185460  1  0
186461  1  0
187462  1  0
187463  1  0
188464  1  1
189465  1  0
190466  1  6
192467  1  0
192468  1  0
193469  1  0
194470  1  0
195471  1  0
196472  1  0
196473  1  0
196474  1  0
197475  1  0
197476  1  0
197477  1  0
199478  1  0
199479  1  0
199480  1  0
200481  1  0
200482  1  0
200483  1  0
201484  1  0
202485  1  0
204486  1  0
205487  1  0
206488  1  0
207489  1  0
207490  1  0
208491  1  0
208492  1  0
M  END
>  <PDBID>  (1) 
3KEE

>  <PDB ID>  (1) 
3KEE

>  <Generic Name>  (1) 
Simeprevir

>  <Brand Name>  (1) 
Galexos#Olysio

>  <DrugBank ID>  (1) 
DB06290

>  <ATC Codes>  (1) 
J05AE14

>  <Ligand ID>  (1) 
30B

>  <Target Name>  (1) 
NS3 protease

>  <UniProt ID>  (1) 
Q91RS4

>  <PDB ID.1>  (1) 
3KEE

>  <Seq. Identity>  (1) 
82%

$$$$
