PDB_DB08901_06
     RDKit          3D

184192  0  0  0  0  0  0  0  0999 V2000
    7.3026    1.7114   -1.0163 N   0  0  0  0  0  0  0  0  0  0  0  0
   -6.5483    0.5523   -0.5719 N   0  0  0  0  0  0  0  0  0  0  0  0
    4.5767   -0.9085   -0.5410 C   0  0  0  0  0  0  0  0  0  0  0  0
    3.2407   -0.7255    0.1257 C   0  0  0  0  0  0  0  0  0  0  0  0
    2.9342    0.7204    0.3021 C   0  0  0  0  0  0  0  0  0  0  0  0
    1.5099    0.9590    0.7611 C   0  0  0  0  0  0  0  0  0  0  0  0
    0.5163    0.2255   -0.1077 C   0  0  0  0  0  0  0  0  0  0  0  0
    2.2314   -1.4820   -0.7003 C   0  0  0  0  0  0  0  0  0  0  0  0
   -2.2402   -1.7526    0.3499 C   0  0  0  0  0  0  0  0  0  0  0  0
   -4.3670   -1.3109   -0.9383 C   0  0  0  0  0  0  0  0  0  0  0  0
   -4.5372   -1.9965    1.3754 C   0  0  0  0  0  0  0  0  0  0  0  0
   -5.7866    0.0283    0.5479 C   0  0  0  0  0  0  0  0  0  0  0  0
   -7.0157    1.8779   -0.2124 C   0  0  0  0  0  0  0  0  0  0  0  0
   -8.2595    1.8336    0.6267 C   0  0  0  0  0  0  0  0  0  0  0  0
   -7.6945   -0.2492   -0.8970 C   0  0  0  0  0  0  0  0  0  0  0  0
    9.1575    2.2031    0.5317 C   0  0  0  0  0  0  0  0  0  0  0  0
    9.9364    1.3273    1.5142 C   0  0  0  0  0  0  0  0  0  0  0  0
    8.9829    0.5796    2.4223 C   0  0  0  0  0  0  0  0  0  0  0  0
    8.1889   -0.4017    1.6714 N   0  0  0  0  0  0  0  0  0  0  0  0
    8.1327    0.0575    0.3754 N   0  0  0  0  0  0  0  0  0  0  0  0
    7.8491    1.4757    0.2843 C   0  0  0  0  0  0  0  0  0  0  0  0
    7.1274    0.3917   -1.6332 C   0  0  0  0  0  0  0  0  0  0  0  0
    7.0578   -0.5123   -0.4209 C   0  0  0  0  0  0  0  0  0  0  0  0
    5.7152   -0.3169    0.2395 C   0  0  0  0  0  0  0  0  0  0  0  0
    0.8130   -1.2208   -0.2346 C   0  0  0  0  0  0  0  0  0  0  0  0
    3.1396    1.5569   -0.9373 C   0  0  0  0  0  0  0  0  0  0  0  0
   -0.1909   -2.0499   -0.9810 C   0  0  0  0  0  0  0  0  0  0  0  0
   -0.4000   -1.6179   -2.2893 O   0  0  0  0  0  0  0  0  0  0  0  0
   -1.2835   -2.5618   -0.2802 N   0  0  0  0  0  0  0  0  0  0  0  0
   -2.9576   -0.8885   -0.6339 C   0  0  0  0  0  0  0  0  0  0  0  0
   -5.2704   -1.3455    0.2742 C   0  0  0  0  0  0  0  0  0  0  0  0
   -3.2801   -2.7001    0.9519 C   0  0  0  0  0  0  0  0  0  0  0  0
   -4.2635   -1.1576    2.5820 C   0  0  0  0  0  0  0  0  0  0  0  0
   -3.5219   -0.0391    2.3721 F   0  0  0  0  0  0  0  0  0  0  0  0
   -3.5213   -1.9634    3.4621 F   0  0  0  0  0  0  0  0  0  0  0  0
   -5.4409   -0.8796    3.2909 F   0  0  0  0  0  0  0  0  0  0  0  0
   -8.9030    0.5812   -1.2740 C   0  0  0  0  0  0  0  0  0  0  0  0
  -10.1174    2.5515   -0.6014 C   0  0  0  0  0  0  0  0  0  0  0  0
   -9.3719    1.3860   -0.1865 N   0  0  0  0  0  0  0  0  0  0  0  0
    7.5899    2.3719   -0.0378 N   0  0  0  0  0  0  0  0  0  0  0  0
   -6.6307   -0.2920   -1.3252 N   0  0  0  0  0  0  0  0  0  0  0  0
    4.3059   -0.7615    0.5150 C   0  0  0  0  0  0  0  0  0  0  0  0
    3.2639    0.2735    0.6232 C   0  0  0  0  0  0  0  0  0  0  0  0
    3.0955    1.2573   -0.4619 C   0  0  0  0  0  0  0  0  0  0  0  0
    1.5776    1.6586   -0.4414 C   0  0  0  0  0  0  0  0  0  0  0  0
    0.8184    0.4642   -0.9238 C   0  0  0  0  0  0  0  0  0  0  0  0
    1.9540   -0.3123    1.1564 C   0  0  0  0  0  0  0  0  0  0  0  0
   -2.6578   -1.0114   -0.0811 C   0  0  0  0  0  0  0  0  0  0  0  0
   -4.6084   -2.2500   -0.9669 C   0  0  0  0  0  0  0  0  0  0  0  0
   -4.5238   -1.7392    1.4367 C   0  0  0  0  0  0  0  0  0  0  0  0
   -5.7739   -0.2260   -0.1622 C   0  0  0  0  0  0  0  0  0  0  0  0
   -6.9157    0.9872   -1.9186 C   0  0  0  0  0  0  0  0  0  0  0  0
   -8.0492    1.7117   -1.2628 C   0  0  0  0  0  0  0  0  0  0  0  0
   -7.9183   -0.9165   -1.0650 C   0  0  0  0  0  0  0  0  0  0  0  0
    9.6123    1.4855    1.0227 C   0  0  0  0  0  0  0  0  0  0  0  0
   10.3823    0.2208    0.7411 C   0  0  0  0  0  0  0  0  0  0  0  0
    9.5297   -1.0123    0.9882 C   0  0  0  0  0  0  0  0  0  0  0  0
    8.3446   -1.0576    0.1530 N   0  0  0  0  0  0  0  0  0  0  0  0
    7.9306    0.1937   -0.2259 N   0  0  0  0  0  0  0  0  0  0  0  0
    8.1653    1.2458    0.7239 C   0  0  0  0  0  0  0  0  0  0  0  0
    6.2722    1.7824   -0.3119 C   0  0  0  0  0  0  0  0  0  0  0  0
    6.4733    0.2843   -0.4773 C   0  0  0  0  0  0  0  0  0  0  0  0
    5.7422   -0.5433    0.4956 C   0  0  0  0  0  0  0  0  0  0  0  0
    0.9886   -0.6758    0.0573 C   0  0  0  0  0  0  0  0  0  0  0  0
    3.3151    0.7562   -1.8524 C   0  0  0  0  0  0  0  0  0  0  0  0
   -0.3620   -0.9344    0.6985 C   0  0  1  0  0  0  0  0  0  0  0  0
   -0.8755    0.1352    1.3789 O   0  0  0  0  0  0  0  0  0  0  0  0
   -1.2589   -1.3175   -0.3623 N   0  0  0  0  0  0  0  0  0  0  0  0
   -3.4336   -1.3892   -1.3047 C   0  0  0  0  0  0  0  0  0  0  0  0
   -5.3731   -1.6251    0.2143 C   0  0  0  0  0  0  0  0  0  0  0  0
   -3.0458   -1.7442    1.1469 C   0  0  0  0  0  0  0  0  0  0  0  0
   -4.8543   -0.7793    2.5414 C   0  0  0  0  0  0  0  0  0  0  0  0
   -4.7416    0.5398    2.2216 F   0  0  0  0  0  0  0  0  0  0  0  0
   -3.9562   -1.0358    3.5775 F   0  0  0  0  0  0  0  0  0  0  0  0
   -6.1113   -1.0649    3.0981 F   0  0  0  0  0  0  0  0  0  0  0  0
   -8.7616   -0.1700   -0.0647 C   0  0  0  0  0  0  0  0  0  0  0  0
   -9.1138    2.0384    0.8386 C   0  0  0  0  0  0  0  0  0  0  0  0
   -8.2977    1.1749    0.0487 N   0  0  0  0  0  0  0  0  0  0  0  0
    6.3617    2.1528   -0.9998 H   0  0  0  0  0  0  0  0  0  0  0  0
    4.5964   -0.5724   -1.5766 H   0  0  0  0  0  0  0  0  0  0  0  0
    4.7943   -2.0216   -0.5816 H   0  0  0  0  0  0  0  0  0  0  0  0
    3.3222   -1.1823    1.1340 H   0  0  0  0  0  0  0  0  0  0  0  0
    3.6349    1.1154    1.0780 H   0  0  0  0  0  0  0  0  0  0  0  0
    1.4168    0.5509    1.7867 H   0  0  0  0  0  0  0  0  0  0  0  0
    1.2949    2.0359    0.8121 H   0  0  0  0  0  0  0  0  0  0  0  0
   -0.5091    0.3904    0.2386 H   0  0  0  0  0  0  0  0  0  0  0  0
    0.5648    0.6829   -1.1217 H   0  0  0  0  0  0  0  0  0  0  0  0
    2.3194   -1.1427   -1.7524 H   0  0  0  0  0  0  0  0  0  0  0  0
    2.4946   -2.5424   -0.6591 H   0  0  0  0  0  0  0  0  0  0  0  0
   -1.8310   -1.2197    1.2352 H   0  0  0  0  0  0  0  0  0  0  0  0
   -4.3265   -2.3373   -1.3407 H   0  0  0  0  0  0  0  0  0  0  0  0
   -4.7493   -0.6260   -1.7211 H   0  0  0  0  0  0  0  0  0  0  0  0
   -5.1997   -2.8360    1.7587 H   0  0  0  0  0  0  0  0  0  0  0  0
   -6.3975    0.1306    1.4374 H   0  0  0  0  0  0  0  0  0  0  0  0
   -4.9192    0.7413    0.6715 H   0  0  0  0  0  0  0  0  0  0  0  0
   -6.1855    2.4043    0.2933 H   0  0  0  0  0  0  0  0  0  0  0  0
   -7.3013    2.3709   -1.1804 H   0  0  0  0  0  0  0  0  0  0  0  0
   -8.4347    2.8294    1.0583 H   0  0  0  0  0  0  0  0  0  0  0  0
   -8.1858    1.1284    1.4787 H   0  0  0  0  0  0  0  0  0  0  0  0
   -7.5023   -0.9674   -1.7238 H   0  0  0  0  0  0  0  0  0  0  0  0
   -7.9770   -0.8234    0.0175 H   0  0  0  0  0  0  0  0  0  0  0  0
    9.7090    2.3388   -0.4180 H   0  0  0  0  0  0  0  0  0  0  0  0
    8.9054    3.1653    1.0136 H   0  0  0  0  0  0  0  0  0  0  0  0
   10.5192    2.0058    2.1479 H   0  0  0  0  0  0  0  0  0  0  0  0
   10.6060    0.6391    0.9700 H   0  0  0  0  0  0  0  0  0  0  0  0
    9.6219    0.0531    3.1797 H   0  0  0  0  0  0  0  0  0  0  0  0
    8.3393    1.2873    2.9442 H   0  0  0  0  0  0  0  0  0  0  0  0
    8.7397   -1.2897    1.6923 H   0  0  0  0  0  0  0  0  0  0  0  0
    7.1546    1.7233    1.1249 H   0  0  0  0  0  0  0  0  0  0  0  0
    6.2439    0.3069   -2.2511 H   0  0  0  0  0  0  0  0  0  0  0  0
    8.0731    0.1413   -2.1717 H   0  0  0  0  0  0  0  0  0  0  0  0
    7.2493   -1.5695   -0.6774 H   0  0  0  0  0  0  0  0  0  0  0  0
    5.7762   -0.7319    1.2719 H   0  0  0  0  0  0  0  0  0  0  0  0
    5.5138    0.7841    0.3959 H   0  0  0  0  0  0  0  0  0  0  0  0
    0.7997   -1.6291    0.8243 H   0  0  0  0  0  0  0  0  0  0  0  0
    2.2466    2.2117   -1.1629 H   0  0  0  0  0  0  0  0  0  0  0  0
    3.9775    2.2747   -0.8245 H   0  0  0  0  0  0  0  0  0  0  0  0
    3.2975    0.9686   -1.8516 H   0  0  0  0  0  0  0  0  0  0  0  0
    0.4414   -3.0234   -1.2065 H   0  0  0  0  0  0  0  0  0  0  0  0
    0.1615   -0.8543   -2.5490 H   0  0  0  0  0  0  0  0  0  0  0  0
   -0.9596   -3.2945    0.4159 H   0  0  0  0  0  0  0  0  0  0  0  0
   -2.9083    0.1592   -0.2393 H   0  0  0  0  0  0  0  0  0  0  0  0
   -2.4519   -0.8214   -1.6249 H   0  0  0  0  0  0  0  0  0  0  0  0
   -6.1692   -1.9486   -0.0611 H   0  0  0  0  0  0  0  0  0  0  0  0
   -2.8155   -3.1482    1.8504 H   0  0  0  0  0  0  0  0  0  0  0  0
   -3.4664   -3.4897    0.2107 H   0  0  0  0  0  0  0  0  0  0  0  0
   -9.7092   -0.1305   -1.5550 H   0  0  0  0  0  0  0  0  0  0  0  0
   -8.6706    1.1604   -2.1899 H   0  0  0  0  0  0  0  0  0  0  0  0
   -9.7022    3.4791   -0.1601 H   0  0  0  0  0  0  0  0  0  0  0  0
  -10.0883    2.5709   -1.7107 H   0  0  0  0  0  0  0  0  0  0  0  0
  -11.1562    2.4602   -0.2130 H   0  0  0  0  0  0  0  0  0  0  0  0
    7.5390    3.2089    0.5443 H   0  0  0  0  0  0  0  0  0  0  0  0
    4.0930   -1.3930   -0.4526 H   0  0  0  0  0  0  0  0  0  0  0  0
    4.0700   -1.6054    1.2826 H   0  0  0  0  0  0  0  0  0  0  0  0
    3.6012    0.9162    1.5380 H   0  0  0  0  0  0  0  0  0  0  0  0
    3.6035    2.2413   -0.3288 H   0  0  0  0  0  0  0  0  0  0  0  0
    1.3868    1.8945    0.5963 H   0  0  0  0  0  0  0  0  0  0  0  0
    1.4239    2.4999   -1.1530 H   0  0  0  0  0  0  0  0  0  0  0  0
   -0.2608    0.7791   -1.0340 H   0  0  0  0  0  0  0  0  0  0  0  0
    1.1058    0.1167   -1.9167 H   0  0  0  0  0  0  0  0  0  0  0  0
    2.2296   -1.2618    1.6697 H   0  0  0  0  0  0  0  0  0  0  0  0
    1.4778    0.3419    1.8909 H   0  0  0  0  0  0  0  0  0  0  0  0
   -2.6595    0.1024    0.0717 H   0  0  0  0  0  0  0  0  0  0  0  0
   -4.2210   -3.2135   -0.5835 H   0  0  0  0  0  0  0  0  0  0  0  0
   -5.3094   -2.3808   -1.7984 H   0  0  0  0  0  0  0  0  0  0  0  0
   -4.7478   -2.7639    1.8615 H   0  0  0  0  0  0  0  0  0  0  0  0
   -6.3496    0.2038    0.6674 H   0  0  0  0  0  0  0  0  0  0  0  0
   -4.9242    0.4259   -0.4636 H   0  0  0  0  0  0  0  0  0  0  0  0
   -7.1388    0.8348   -2.9998 H   0  0  0  0  0  0  0  0  0  0  0  0
   -6.0171    1.6665   -1.9080 H   0  0  0  0  0  0  0  0  0  0  0  0
   -7.7936    2.8014   -1.0906 H   0  0  0  0  0  0  0  0  0  0  0  0
   -8.9426    1.6419   -1.9215 H   0  0  0  0  0  0  0  0  0  0  0  0
   -8.4706   -0.7928   -2.0529 H   0  0  0  0  0  0  0  0  0  0  0  0
   -7.8817   -1.9930   -0.9099 H   0  0  0  0  0  0  0  0  0  0  0  0
    9.6992    1.7952    2.0940 H   0  0  0  0  0  0  0  0  0  0  0  0
   10.0360    2.3247    0.4229 H   0  0  0  0  0  0  0  0  0  0  0  0
   11.1813    0.1688    1.5383 H   0  0  0  0  0  0  0  0  0  0  0  0
   10.8226    0.1945   -0.2580 H   0  0  0  0  0  0  0  0  0  0  0  0
   10.1656   -1.8841    0.7505 H   0  0  0  0  0  0  0  0  0  0  0  0
    9.2974   -1.0431    2.0731 H   0  0  0  0  0  0  0  0  0  0  0  0
    8.6384   -1.5585   -0.7448 H   0  0  0  0  0  0  0  0  0  0  0  0
    7.5991    1.1040    1.6448 H   0  0  0  0  0  0  0  0  0  0  0  0
    5.8095    2.2723   -1.1643 H   0  0  0  0  0  0  0  0  0  0  0  0
    5.6956    1.9867    0.6434 H   0  0  0  0  0  0  0  0  0  0  0  0
    6.3100   -0.0241   -1.5189 H   0  0  0  0  0  0  0  0  0  0  0  0
    6.0772   -0.2292    1.5722 H   0  0  0  0  0  0  0  0  0  0  0  0
    6.2072   -1.6054    0.3829 H   0  0  0  0  0  0  0  0  0  0  0  0
    1.3106   -1.6170   -0.4054 H   0  0  0  0  0  0  0  0  0  0  0  0
    4.3028    0.9443   -2.2778 H   0  0  0  0  0  0  0  0  0  0  0  0
    3.0681   -0.3223   -1.9681 H   0  0  0  0  0  0  0  0  0  0  0  0
    2.6032    1.2970   -2.5479 H   0  0  0  0  0  0  0  0  0  0  0  0
   -0.2565   -1.7890    1.4294 H   0  0  0  0  0  0  0  0  0  0  0  0
   -0.7918    0.9497    0.8687 H   0  0  0  0  0  0  0  0  0  0  0  0
   -1.1646   -2.3428   -0.5664 H   0  0  0  0  0  0  0  0  0  0  0  0
   -3.7069   -0.4597   -1.8551 H   0  0  0  0  0  0  0  0  0  0  0  0
   -2.8104   -1.9684   -2.0489 H   0  0  0  0  0  0  0  0  0  0  0  0
   -6.3028   -2.2221    0.2940 H   0  0  0  0  0  0  0  0  0  0  0  0
   -2.5586   -1.2783    2.0234 H   0  0  0  0  0  0  0  0  0  0  0  0
   -2.6423   -2.7888    1.1240 H   0  0  0  0  0  0  0  0  0  0  0  0
   -9.8367   -0.1007   -0.4124 H   0  0  0  0  0  0  0  0  0  0  0  0
   -8.7991   -0.7187    0.9021 H   0  0  0  0  0  0  0  0  0  0  0  0
  -10.1925    1.8628    0.7466 H   0  0  0  0  0  0  0  0  0  0  0  0
   -8.7823    1.9636    1.9044 H   0  0  0  0  0  0  0  0  0  0  0  0
   -8.8918    3.0941    0.5338 H   0  0  0  0  0  0  0  0  0  0  0  0
  3  4  1  0
  4  5  1  0
  5  6  1  0
  6  7  1  0
  4  8  1  0
  2 12  1  0
  2 13  1  0
 13 14  1  0
  2 15  1  0
 16 17  1  0
 17 18  1  0
 18 19  1  0
 19 20  1  0
  1 21  1  0
 16 21  1  0
 20 21  1  0
  1 22  1  0
 20 23  1  0
 22 23  1  0
  3 24  1  0
 23 24  1  0
  7 25  1  0
  8 25  1  0
  5 26  1  0
 25 27  1  0
 27 28  1  0
  9 29  1  0
 27 29  1  0
  9 30  1  0
 10 30  1  0
 10 31  1  0
 11 31  1  0
 12 31  1  0
  9 32  1  0
 11 32  1  0
 11 33  1  0
 33 34  1  0
 33 35  1  0
 33 36  1  0
 15 37  1  0
 14 39  1  0
 37 39  1  0
 38 39  1  0
 42 43  1  0
 43 44  1  0
 44 45  1  0
 45 46  1  0
 43 47  1  0
 41 51  1  0
 41 52  1  0
 52 53  1  0
 41 54  1  0
 55 56  1  0
 56 57  1  0
 57 58  1  0
 58 59  1  0
 40 60  1  0
 55 60  1  0
 59 60  1  0
 40 61  1  0
 59 62  1  0
 61 62  1  0
 42 63  1  0
 62 63  1  0
 46 64  1  0
 47 64  1  0
 44 65  1  0
 64 66  1  0
 66 67  1  0
 48 68  1  0
 66 68  1  0
 48 69  1  0
 49 69  1  0
 49 70  1  0
 50 70  1  0
 51 70  1  0
 48 71  1  0
 50 71  1  0
 50 72  1  0
 72 73  1  0
 72 74  1  0
 72 75  1  0
 54 76  1  0
 53 78  1  0
 76 78  1  0
 77 78  1  0
  1 79  1  0
  3 80  1  0
  3 81  1  0
  4 82  1  0
  5 83  1  0
  6 84  1  0
  6 85  1  0
  7 86  1  0
  7 87  1  0
  8 88  1  0
  8 89  1  0
  9 90  1  0
 10 91  1  0
 10 92  1  0
 11 93  1  0
 12 94  1  0
 12 95  1  0
 13 96  1  0
 13 97  1  0
 14 98  1  0
 14 99  1  0
 15100  1  0
 15101  1  0
 16102  1  0
 16103  1  0
 17104  1  0
 17105  1  0
 18106  1  0
 18107  1  0
 19108  1  0
 21109  1  0
 22110  1  0
 22111  1  0
 23112  1  0
 24113  1  0
 24114  1  0
 25115  1  0
 26116  1  0
 26117  1  0
 26118  1  0
 27119  1  0
 28120  1  0
 29121  1  0
 30122  1  0
 30123  1  0
 31124  1  0
 32125  1  0
 32126  1  0
 37127  1  0
 37128  1  0
 38129  1  0
 38130  1  0
 38131  1  0
 40132  1  0
 42133  1  0
 42134  1  0
 43135  1  0
 44136  1  0
 45137  1  0
 45138  1  0
 46139  1  0
 46140  1  0
 47141  1  0
 47142  1  0
 48143  1  0
 49144  1  0
 49145  1  0
 50146  1  0
 51147  1  0
 51148  1  0
 52149  1  0
 52150  1  0
 53151  1  0
 53152  1  0
 54153  1  0
 54154  1  0
 55155  1  0
 55156  1  0
 56157  1  0
 56158  1  0
 57159  1  0
 57160  1  0
 58161  1  0
 60162  1  0
 61163  1  0
 61164  1  0
 62165  1  0
 63166  1  0
 63167  1  0
 64168  1  0
 65169  1  0
 65170  1  0
 65171  1  0
 66172  1  1
 67173  1  0
 68174  1  0
 69175  1  0
 69176  1  0
 70177  1  0
 71178  1  0
 71179  1  0
 76180  1  0
 76181  1  0
 77182  1  0
 77183  1  0
 77184  1  0
M  END
>  <PDBID>  (1) 
3IK3

>  <PDB ID>  (1) 
3IK3

>  <Generic Name>  (1) 
Ponatinib

>  <Brand Name>  (1) 
Iclusig

>  <DrugBank ID>  (1) 
DB08901

>  <ATC Codes>  (1) 
L01XE24

>  <Ligand ID>  (1) 
0LI

>  <Target Name>  (1) 
Tyrosine-protein kinase ABL1

>  <UniProt ID>  (1) 
P00519

>  <PDB ID.1>  (1) 
3IK3

>  <Seq. Identity>  (1) 
95%

$$$$
