PDB_DB00819_07
     RDKit          3D

 27 27  0  0  0  0  0  0  0  0999 V2000
   -1.6109    0.0826   -0.6688 C   0  0  2  0  0  0  0  0  0  0  0  0
    0.8964    0.9550   -0.0709 C   0  0  2  0  0  0  0  0  0  0  0  0
    3.1699    0.2336   -0.3483 C   0  0  0  0  0  0  0  0  0  0  0  0
    2.8207   -1.2179   -0.3094 C   0  0  0  0  0  0  0  0  0  0  0  0
   -3.2390   -2.1050   -0.1875 N   0  0  0  0  0  0  0  0  0  0  0  0
   -0.1182    1.8144   -0.6994 N   0  0  0  0  0  0  0  0  0  0  0  0
   -1.3599    1.4311   -0.2073 N   0  0  0  0  0  0  0  0  0  0  0  0
    2.0746    1.0193   -0.8732 N   0  0  0  0  0  0  0  0  0  0  0  0
   -2.1921   -0.8166    1.8570 O   0  0  0  0  0  0  0  0  0  0  0  0
   -4.0876    0.3478    0.3208 O   0  0  0  0  0  0  0  0  0  0  0  0
    3.5733    0.6957    0.8985 O   0  0  0  0  0  0  0  0  0  0  0  0
   -2.8903   -0.6087    0.1906 S   0  0  0  0  0  0  0  0  0  0  0  0
    0.0309   -0.6571   -0.2957 S   0  0  0  0  0  0  0  0  0  0  0  0
   -1.7641    0.1195   -1.7602 H   0  0  0  0  0  0  0  0  0  0  0  0
    1.0229    1.1648    0.9902 H   0  0  0  0  0  0  0  0  0  0  0  0
    4.0417    0.4097   -1.0414 H   0  0  0  0  0  0  0  0  0  0  0  0
    2.2723   -1.4284    0.6289 H   0  0  0  0  0  0  0  0  0  0  0  0
    2.2476   -1.5396   -1.1903 H   0  0  0  0  0  0  0  0  0  0  0  0
    3.7759   -1.8146   -0.3028 H   0  0  0  0  0  0  0  0  0  0  0  0
   -3.6325   -2.6708    0.6152 H   0  0  0  0  0  0  0  0  0  0  0  0
   -2.5692   -2.6554   -0.7477 H   0  0  0  0  0  0  0  0  0  0  0  0
    0.0617    2.7766   -0.2957 H   0  0  0  0  0  0  0  0  0  0  0  0
   -1.3662    1.4634    0.8376 H   0  0  0  0  0  0  0  0  0  0  0  0
    2.4206    1.9904   -1.0217 H   0  0  0  0  0  0  0  0  0  0  0  0
   -2.7416   -0.2059    2.4000 H   0  0  0  0  0  0  0  0  0  0  0  0
   -3.9955    1.0659    1.0184 H   0  0  0  0  0  0  0  0  0  0  0  0
    3.1589    0.1500    1.6038 H   0  0  0  0  0  0  0  0  0  0  0  0
  3  4  1  0
  2  6  1  0
  1  7  1  0
  6  7  1  0
  2  8  1  0
  3  8  1  0
  3 11  1  0
  1 12  1  0
  5 12  1  0
 12  9  1  0
 10 12  1  0
  1 13  1  0
  2 13  1  0
  1 14  1  6
  2 15  1  1
  3 16  1  0
  4 17  1  0
  4 18  1  0
  4 19  1  0
  5 20  1  0
  5 21  1  0
  6 22  1  0
  7 23  1  0
  8 24  1  0
  9 25  1  0
 10 26  1  0
 11 27  1  0
M  END
>  <PDBID>  (1) 
1AZM

>  <PDB ID>  (1) 
1AZM

>  <Generic Name>  (1) 
Acetazolamide

>  <Brand Name>  (1) 
Acetazolam#Acetazolamide#Acetazolamide for Injection, USP#Diamox IV 500mg#Diamox Pws 500mg/vial#Diamox Sequels#Diamox Src 500mg#Diamox Tab 250mg#Diamox Tablets 250mg#Novo-zolamide Tab 250mg#Acemit#Acemox#Acetak#Acetamide#Acetazolamax#Azm#Azol#Azomid#Carbinib#Defiltran#Diabo#Diacarb#Diamox#Diamox Depot#Diazomid#Diluran#Diuramid#Défiltran#Edemox#Glaumox#Glaupax#Glupax#Huma-Zolamide#Iopar-SR#Medene#Oculten#Uramox#Zolmide#Ödemin

>  <DrugBank ID>  (1) 
DB00819

>  <ATC Codes>  (1) 
S01EC01

>  <Ligand ID>  (1) 
AZM

>  <Target Name>  (1) 
Carbonic anhydrase 1

>  <UniProt ID>  (1) 
P00915

>  <PDB ID.1>  (1) 
1AZM

>  <Seq. Identity>  (1) 
100%

$$$$
