PDB_DB01229_03
     RDKit          3D

290302  0  0  0  0  0  0  0  0999 V2000
   -1.6547    0.5347    3.1996 O   0  0  0  0  0  0  0  0  0  0  0  0
   -1.8016   -0.0440    1.9039 C   0  0  1  0  0  0  0  0  0  0  0  0
   -3.0567    0.6185    1.3193 C   0  0  1  0  0  0  0  0  0  0  0  0
   -3.1985    1.9036    1.8284 O   0  0  0  0  0  0  0  0  0  0  0  0
   -4.0552    2.0726    2.8647 C   0  0  0  0  0  0  0  0  0  0  0  0
   -3.2485    2.4058    3.9951 O   0  0  0  0  0  0  0  0  0  0  0  0
   -5.1570    3.0784    2.7442 C   0  0  0  0  0  0  0  0  0  0  0  0
   -6.0087    3.1013    4.0101 C   0  0  0  0  0  0  0  0  0  0  0  0
   -6.8736    4.2888    4.1284 C   0  0  0  0  0  0  0  0  0  0  0  0
   -6.3051    5.6024    3.7168 C   0  0  0  0  0  0  0  0  0  0  0  0
   -5.7114    5.4706    2.3339 C   0  0  0  0  0  0  0  0  0  0  0  0
   -4.5944    4.4474    2.4687 C   0  0  0  0  0  0  0  0  0  0  0  0
   -3.3191    0.3530   -0.0974 C   0  0  2  0  0  0  0  0  0  0  0  0
   -3.2862    1.3760   -1.1469 C   0  0  2  0  0  0  0  0  0  0  0  0
   -2.2740    1.4641   -2.0653 O   0  0  0  0  0  0  0  0  0  0  0  0
   -1.8898    0.5161   -2.8877 C   0  0  0  0  0  0  0  0  0  0  0  0
   -2.2898    0.7551   -4.2472 O   0  0  0  0  0  0  0  0  0  0  0  0
   -0.4010    0.3962   -2.9345 C   0  0  0  0  0  0  0  0  0  0  0  0
   -3.4179    2.8496   -0.7126 C   0  0  0  0  0  0  0  0  0  0  0  0
   -4.7170    2.5971   -0.4862 O   0  0  0  0  0  0  0  0  0  0  0  0
   -4.6435    1.8426   -1.6540 C   0  0  2  0  0  0  0  0  0  0  0  0
   -5.6880    0.8373   -1.7875 C   0  0  0  0  0  0  0  0  0  0  0  0
   -5.1307   -0.5365   -1.6223 C   0  0  2  0  0  0  0  0  0  0  0  0
   -6.2742   -1.3803   -1.5366 O   0  0  0  0  0  0  0  0  0  0  0  0
   -4.4463   -0.6959   -0.2700 C   0  0  2  0  0  0  0  0  0  0  0  0
   -5.6052   -0.4114    0.6974 C   0  0  0  0  0  0  0  0  0  0  0  0
   -4.0403   -2.1004    0.0069 C   0  0  0  0  0  0  0  0  0  0  0  0
   -4.7260   -2.8559   -0.9994 O   0  0  0  0  0  0  0  0  0  0  0  0
   -2.6750   -2.5704   -0.0441 C   0  0  2  0  0  0  0  0  0  0  0  0
   -2.7920   -3.9870   -0.2319 O   0  0  0  0  0  0  0  0  0  0  0  0
   -2.3961   -4.4495   -1.4419 C   0  0  0  0  0  0  0  0  0  0  0  0
   -1.2906   -5.3317   -1.3458 O   0  0  0  0  0  0  0  0  0  0  0  0
   -3.5117   -5.2582   -2.0603 C   0  0  0  0  0  0  0  0  0  0  0  0
   -1.6500   -2.3556    0.9593 C   0  0  1  0  0  0  0  0  0  0  0  0
   -0.2902   -2.0373    0.3052 C   0  0  0  0  0  0  0  0  0  0  0  0
    0.3722   -0.7981    0.8300 C   0  0  1  0  0  0  0  0  0  0  0  0
    1.1358   -0.2403   -0.2316 O   0  0  0  0  0  0  0  0  0  0  0  0
    2.4952   -0.2522   -0.0465 C   0  0  0  0  0  0  0  0  0  0  0  0
    2.9577    1.0282    0.3508 O   0  0  0  0  0  0  0  0  0  0  0  0
    3.2683   -0.7510   -1.2072 C   0  0  2  0  0  0  0  0  0  0  0  0
    2.9696   -2.0167   -1.6212 O   0  0  0  0  0  0  0  0  0  0  0  0
    4.7657   -0.4923   -1.1548 C   0  0  1  0  0  0  0  0  0  0  0  0
    5.0086    0.7844   -0.6802 N   0  0  0  0  0  0  0  0  0  0  0  0
    6.2382    1.3672   -0.4550 C   0  0  0  0  0  0  0  0  0  0  0  0
    5.9927    2.6003    0.2304 O   0  0  0  0  0  0  0  0  0  0  0  0
    7.1218    1.7151   -1.5955 C   0  0  0  0  0  0  0  0  0  0  0  0
    7.6003    0.7008   -2.5310 C   0  0  0  0  0  0  0  0  0  0  0  0
    8.4966    1.4365   -3.5557 C   0  0  0  0  0  0  0  0  0  0  0  0
    8.9726    2.7505   -3.0455 C   0  0  0  0  0  0  0  0  0  0  0  0
    7.8851    3.7314   -2.7179 C   0  0  0  0  0  0  0  0  0  0  0  0
    6.6289    2.9179   -2.3804 C   0  0  0  0  0  0  0  0  0  0  0  0
    5.5700   -1.5923   -0.5420 C   0  0  0  0  0  0  0  0  0  0  0  0
    5.2967   -1.9873    0.8475 C   0  0  0  0  0  0  0  0  0  0  0  0
    6.5947   -2.6242    1.3888 C   0  0  0  0  0  0  0  0  0  0  0  0
    6.8185   -3.8648    0.5674 C   0  0  0  0  0  0  0  0  0  0  0  0
    6.8699   -3.5855   -0.9129 C   0  0  0  0  0  0  0  0  0  0  0  0
    5.6024   -2.8579   -1.3775 C   0  0  0  0  0  0  0  0  0  0  0  0
   -0.5775    0.2965    1.1678 C   0  0  0  0  0  0  0  0  0  0  0  0
    0.6132   -3.2181    0.2345 C   0  0  0  0  0  0  0  0  0  0  0  0
   -1.8921   -1.5016    2.1883 C   0  0  0  0  0  0  0  0  0  0  0  0
   -3.0124   -2.0105    2.9996 C   0  0  0  0  0  0  0  0  0  0  0  0
   -0.6529   -1.7718    3.0963 C   0  0  0  0  0  0  0  0  0  0  0  0
   -1.6547    0.5347    3.1996 O   0  0  0  0  0  0  0  0  0  0  0  0
   -1.8016   -0.0440    1.9039 C   0  0  1  0  0  0  0  0  0  0  0  0
   -3.0567    0.6185    1.3193 C   0  0  1  0  0  0  0  0  0  0  0  0
   -3.1985    1.9036    1.8284 O   0  0  0  0  0  0  0  0  0  0  0  0
   -4.0552    2.0726    2.8647 C   0  0  0  0  0  0  0  0  0  0  0  0
   -3.2485    2.4058    3.9951 O   0  0  0  0  0  0  0  0  0  0  0  0
   -5.1570    3.0784    2.7442 C   0  0  0  0  0  0  0  0  0  0  0  0
   -6.0087    3.1013    4.0101 C   0  0  0  0  0  0  0  0  0  0  0  0
   -6.8736    4.2888    4.1284 C   0  0  0  0  0  0  0  0  0  0  0  0
   -6.3051    5.6024    3.7168 C   0  0  0  0  0  0  0  0  0  0  0  0
   -5.7114    5.4706    2.3339 C   0  0  0  0  0  0  0  0  0  0  0  0
   -4.5944    4.4474    2.4687 C   0  0  0  0  0  0  0  0  0  0  0  0
   -3.3191    0.3530   -0.0974 C   0  0  2  0  0  0  0  0  0  0  0  0
   -3.2862    1.3760   -1.1469 C   0  0  2  0  0  0  0  0  0  0  0  0
   -2.2740    1.4641   -2.0653 O   0  0  0  0  0  0  0  0  0  0  0  0
   -1.8898    0.5161   -2.8877 C   0  0  0  0  0  0  0  0  0  0  0  0
   -2.2898    0.7551   -4.2472 O   0  0  0  0  0  0  0  0  0  0  0  0
   -0.4010    0.3962   -2.9345 C   0  0  0  0  0  0  0  0  0  0  0  0
   -3.4179    2.8496   -0.7126 C   0  0  0  0  0  0  0  0  0  0  0  0
   -4.7170    2.5971   -0.4862 O   0  0  0  0  0  0  0  0  0  0  0  0
   -4.6435    1.8426   -1.6540 C   0  0  2  0  0  0  0  0  0  0  0  0
   -5.6880    0.8373   -1.7875 C   0  0  0  0  0  0  0  0  0  0  0  0
   -5.1307   -0.5365   -1.6223 C   0  0  2  0  0  0  0  0  0  0  0  0
   -6.2742   -1.3803   -1.5366 O   0  0  0  0  0  0  0  0  0  0  0  0
   -4.4463   -0.6959   -0.2700 C   0  0  2  0  0  0  0  0  0  0  0  0
   -5.6052   -0.4114    0.6974 C   0  0  0  0  0  0  0  0  0  0  0  0
   -4.0403   -2.1004    0.0069 C   0  0  0  0  0  0  0  0  0  0  0  0
   -4.7260   -2.8559   -0.9994 O   0  0  0  0  0  0  0  0  0  0  0  0
   -2.6750   -2.5704   -0.0441 C   0  0  2  0  0  0  0  0  0  0  0  0
   -2.7920   -3.9870   -0.2319 O   0  0  0  0  0  0  0  0  0  0  0  0
   -2.3961   -4.4495   -1.4419 C   0  0  0  0  0  0  0  0  0  0  0  0
   -1.2906   -5.3317   -1.3458 O   0  0  0  0  0  0  0  0  0  0  0  0
   -3.5117   -5.2582   -2.0603 C   0  0  0  0  0  0  0  0  0  0  0  0
   -1.6500   -2.3556    0.9593 C   0  0  1  0  0  0  0  0  0  0  0  0
   -0.2902   -2.0373    0.3052 C   0  0  0  0  0  0  0  0  0  0  0  0
    0.3722   -0.7981    0.8300 C   0  0  1  0  0  0  0  0  0  0  0  0
    1.1358   -0.2403   -0.2316 O   0  0  0  0  0  0  0  0  0  0  0  0
    2.4952   -0.2522   -0.0465 C   0  0  0  0  0  0  0  0  0  0  0  0
    2.9577    1.0282    0.3508 O   0  0  0  0  0  0  0  0  0  0  0  0
    3.2683   -0.7510   -1.2072 C   0  0  2  0  0  0  0  0  0  0  0  0
    2.9696   -2.0167   -1.6212 O   0  0  0  0  0  0  0  0  0  0  0  0
    4.7657   -0.4923   -1.1548 C   0  0  1  0  0  0  0  0  0  0  0  0
    5.0086    0.7844   -0.6802 N   0  0  0  0  0  0  0  0  0  0  0  0
    6.2382    1.3672   -0.4550 C   0  0  0  0  0  0  0  0  0  0  0  0
    5.9927    2.6003    0.2304 O   0  0  0  0  0  0  0  0  0  0  0  0
    7.1218    1.7151   -1.5955 C   0  0  0  0  0  0  0  0  0  0  0  0
    7.6003    0.7008   -2.5310 C   0  0  0  0  0  0  0  0  0  0  0  0
    8.4966    1.4365   -3.5557 C   0  0  0  0  0  0  0  0  0  0  0  0
    8.9726    2.7505   -3.0455 C   0  0  0  0  0  0  0  0  0  0  0  0
    7.8851    3.7314   -2.7179 C   0  0  0  0  0  0  0  0  0  0  0  0
    6.6289    2.9179   -2.3804 C   0  0  0  0  0  0  0  0  0  0  0  0
    5.5700   -1.5923   -0.5420 C   0  0  0  0  0  0  0  0  0  0  0  0
    5.2967   -1.9873    0.8475 C   0  0  0  0  0  0  0  0  0  0  0  0
    6.5947   -2.6242    1.3888 C   0  0  0  0  0  0  0  0  0  0  0  0
    6.8185   -3.8648    0.5674 C   0  0  0  0  0  0  0  0  0  0  0  0
    6.8699   -3.5855   -0.9129 C   0  0  0  0  0  0  0  0  0  0  0  0
    5.6024   -2.8579   -1.3775 C   0  0  0  0  0  0  0  0  0  0  0  0
   -0.5775    0.2965    1.1678 C   0  0  0  0  0  0  0  0  0  0  0  0
    0.6132   -3.2181    0.2345 C   0  0  0  0  0  0  0  0  0  0  0  0
   -1.8921   -1.5016    2.1883 C   0  0  0  0  0  0  0  0  0  0  0  0
   -3.0124   -2.0105    2.9996 C   0  0  0  0  0  0  0  0  0  0  0  0
   -0.6529   -1.7718    3.0963 C   0  0  0  0  0  0  0  0  0  0  0  0
   -0.9238    1.1791    3.2196 H   0  0  0  0  0  0  0  0  0  0  0  0
   -3.8658    0.0939    1.9312 H   0  0  0  0  0  0  0  0  0  0  0  0
   -4.5586    1.1296    3.2008 H   0  0  0  0  0  0  0  0  0  0  0  0
   -2.7166    3.1890    3.6843 H   0  0  0  0  0  0  0  0  0  0  0  0
   -5.8506    2.7915    1.9398 H   0  0  0  0  0  0  0  0  0  0  0  0
   -5.3184    2.9840    4.8644 H   0  0  0  0  0  0  0  0  0  0  0  0
   -6.6467    2.1934    3.9875 H   0  0  0  0  0  0  0  0  0  0  0  0
   -7.8532    4.0699    3.6440 H   0  0  0  0  0  0  0  0  0  0  0  0
   -7.1467    4.4027    5.2254 H   0  0  0  0  0  0  0  0  0  0  0  0
   -7.1356    6.3440    3.7403 H   0  0  0  0  0  0  0  0  0  0  0  0
   -5.5019    5.8949    4.4582 H   0  0  0  0  0  0  0  0  0  0  0  0
   -5.2724    6.4149    2.0085 H   0  0  0  0  0  0  0  0  0  0  0  0
   -6.5068    5.0827    1.6875 H   0  0  0  0  0  0  0  0  0  0  0  0
   -3.8944    4.8012    3.2315 H   0  0  0  0  0  0  0  0  0  0  0  0
   -4.0829    4.4369    1.5004 H   0  0  0  0  0  0  0  0  0  0  0  0
   -2.4481   -0.3135   -0.4169 H   0  0  0  0  0  0  0  0  0  0  0  0
   -2.3508   -0.4653   -2.6583 H   0  0  0  0  0  0  0  0  0  0  0  0
   -3.1557    1.2251   -4.1578 H   0  0  0  0  0  0  0  0  0  0  0  0
    0.0879    1.2003   -2.3128 H   0  0  0  0  0  0  0  0  0  0  0  0
   -0.0571    0.6513   -3.9815 H   0  0  0  0  0  0  0  0  0  0  0  0
   -0.0057   -0.6122   -2.7054 H   0  0  0  0  0  0  0  0  0  0  0  0
   -3.3832    3.4916   -1.6448 H   0  0  0  0  0  0  0  0  0  0  0  0
   -2.7113    3.2231   -0.0261 H   0  0  0  0  0  0  0  0  0  0  0  0
   -4.5033    2.5307   -2.5131 H   0  0  0  0  0  0  0  0  0  0  0  0
   -6.5027    0.9941   -1.0674 H   0  0  0  0  0  0  0  0  0  0  0  0
   -6.1519    0.9020   -2.7952 H   0  0  0  0  0  0  0  0  0  0  0  0
   -4.5976   -0.9505   -2.4634 H   0  0  0  0  0  0  0  0  0  0  0  0
   -6.5139   -1.7522   -2.4245 H   0  0  0  0  0  0  0  0  0  0  0  0
   -5.6811    0.6092    1.0271 H   0  0  0  0  0  0  0  0  0  0  0  0
   -5.6564   -1.1733    1.5200 H   0  0  0  0  0  0  0  0  0  0  0  0
   -6.6019   -0.6048    0.1883 H   0  0  0  0  0  0  0  0  0  0  0  0
   -4.5210   -2.5135    0.9435 H   0  0  0  0  0  0  0  0  0  0  0  0
   -5.4562   -3.3861   -0.6749 H   0  0  0  0  0  0  0  0  0  0  0  0
   -2.2488   -2.2679   -1.0569 H   0  0  0  0  0  0  0  0  0  0  0  0
   -2.0244   -3.6539   -2.1420 H   0  0  0  0  0  0  0  0  0  0  0  0
   -1.5402   -6.1611   -0.8764 H   0  0  0  0  0  0  0  0  0  0  0  0
   -4.1802   -5.5956   -1.2397 H   0  0  0  0  0  0  0  0  0  0  0  0
   -4.0360   -4.7203   -2.8778 H   0  0  0  0  0  0  0  0  0  0  0  0
   -3.0756   -6.1530   -2.5338 H   0  0  0  0  0  0  0  0  0  0  0  0
   -1.4279   -3.3507    1.4719 H   0  0  0  0  0  0  0  0  0  0  0  0
   -0.5473   -1.8034   -0.7612 H   0  0  0  0  0  0  0  0  0  0  0  0
    1.1776   -1.0126    1.5570 H   0  0  0  0  0  0  0  0  0  0  0  0
    2.6808   -0.8481    0.8464 H   0  0  0  0  0  0  0  0  0  0  0  0
    2.2007    1.6428    0.4966 H   0  0  0  0  0  0  0  0  0  0  0  0
    2.9218   -0.0793   -2.0766 H   0  0  0  0  0  0  0  0  0  0  0  0
    2.9941   -2.1203   -2.6133 H   0  0  0  0  0  0  0  0  0  0  0  0
    5.0383   -0.5507   -2.2393 H   0  0  0  0  0  0  0  0  0  0  0  0
    4.4554    1.4701   -1.3067 H   0  0  0  0  0  0  0  0  0  0  0  0
    6.8872    0.8227    0.2979 H   0  0  0  0  0  0  0  0  0  0  0  0
    6.0189    2.4710    1.2133 H   0  0  0  0  0  0  0  0  0  0  0  0
    8.0754    2.1201   -1.0755 H   0  0  0  0  0  0  0  0  0  0  0  0
    8.2249   -0.0411   -1.9838 H   0  0  0  0  0  0  0  0  0  0  0  0
    6.8915    0.1651   -3.1573 H   0  0  0  0  0  0  0  0  0  0  0  0
    9.3431    0.7863   -3.7746 H   0  0  0  0  0  0  0  0  0  0  0  0
    7.8759    1.6490   -4.4756 H   0  0  0  0  0  0  0  0  0  0  0  0
    9.5697    3.2209   -3.8676 H   0  0  0  0  0  0  0  0  0  0  0  0
    9.6752    2.6131   -2.1991 H   0  0  0  0  0  0  0  0  0  0  0  0
    7.6510    4.4527   -3.5017 H   0  0  0  0  0  0  0  0  0  0  0  0
    8.1047    4.2915   -1.7650 H   0  0  0  0  0  0  0  0  0  0  0  0
    6.1663    2.6482   -3.3463 H   0  0  0  0  0  0  0  0  0  0  0  0
    5.9238    3.5353   -1.7753 H   0  0  0  0  0  0  0  0  0  0  0  0
    6.6422   -1.2145   -0.6010 H   0  0  0  0  0  0  0  0  0  0  0  0
    4.9237   -1.2252    1.5424 H   0  0  0  0  0  0  0  0  0  0  0  0
    4.5809   -2.8614    0.8700 H   0  0  0  0  0  0  0  0  0  0  0  0
    7.4175   -1.9051    1.3527 H   0  0  0  0  0  0  0  0  0  0  0  0
    6.4219   -2.9367    2.4397 H   0  0  0  0  0  0  0  0  0  0  0  0
    6.1544   -4.6718    0.8654 H   0  0  0  0  0  0  0  0  0  0  0  0
    7.8583   -4.2287    0.8242 H   0  0  0  0  0  0  0  0  0  0  0  0
    7.7349   -2.8763   -1.0652 H   0  0  0  0  0  0  0  0  0  0  0  0
    7.0634   -4.5083   -1.4449 H   0  0  0  0  0  0  0  0  0  0  0  0
    4.7797   -3.5583   -1.1519 H   0  0  0  0  0  0  0  0  0  0  0  0
    5.7105   -2.6399   -2.4526 H   0  0  0  0  0  0  0  0  0  0  0  0
    0.0428    1.1014    1.6724 H   0  0  0  0  0  0  0  0  0  0  0  0
   -0.8943    0.8232    0.2178 H   0  0  0  0  0  0  0  0  0  0  0  0
    1.5791   -3.0988    0.7460 H   0  0  0  0  0  0  0  0  0  0  0  0
    0.0740   -4.0880    0.6783 H   0  0  0  0  0  0  0  0  0  0  0  0
    0.8622   -3.5420   -0.8054 H   0  0  0  0  0  0  0  0  0  0  0  0
   -3.1035   -3.1156    2.7446 H   0  0  0  0  0  0  0  0  0  0  0  0
   -2.7385   -2.1116    4.1114 H   0  0  0  0  0  0  0  0  0  0  0  0
   -3.9551   -1.5274    3.0559 H   0  0  0  0  0  0  0  0  0  0  0  0
   -0.1651   -0.8640    3.4384 H   0  0  0  0  0  0  0  0  0  0  0  0
   -0.0336   -2.5841    2.7127 H   0  0  0  0  0  0  0  0  0  0  0  0
   -0.9862   -2.2222    4.0946 H   0  0  0  0  0  0  0  0  0  0  0  0
   -0.9238    1.1791    3.2196 H   0  0  0  0  0  0  0  0  0  0  0  0
   -3.8658    0.0939    1.9312 H   0  0  0  0  0  0  0  0  0  0  0  0
   -4.5586    1.1296    3.2008 H   0  0  0  0  0  0  0  0  0  0  0  0
   -2.7166    3.1890    3.6843 H   0  0  0  0  0  0  0  0  0  0  0  0
   -5.8506    2.7915    1.9398 H   0  0  0  0  0  0  0  0  0  0  0  0
   -5.3184    2.9840    4.8644 H   0  0  0  0  0  0  0  0  0  0  0  0
   -6.6467    2.1934    3.9875 H   0  0  0  0  0  0  0  0  0  0  0  0
   -7.8532    4.0699    3.6440 H   0  0  0  0  0  0  0  0  0  0  0  0
   -7.1467    4.4027    5.2254 H   0  0  0  0  0  0  0  0  0  0  0  0
   -7.1356    6.3440    3.7403 H   0  0  0  0  0  0  0  0  0  0  0  0
   -5.5019    5.8949    4.4582 H   0  0  0  0  0  0  0  0  0  0  0  0
   -5.2724    6.4149    2.0085 H   0  0  0  0  0  0  0  0  0  0  0  0
   -6.5068    5.0827    1.6875 H   0  0  0  0  0  0  0  0  0  0  0  0
   -3.8944    4.8012    3.2315 H   0  0  0  0  0  0  0  0  0  0  0  0
   -4.0829    4.4369    1.5004 H   0  0  0  0  0  0  0  0  0  0  0  0
   -2.4481   -0.3135   -0.4169 H   0  0  0  0  0  0  0  0  0  0  0  0
   -2.3508   -0.4653   -2.6583 H   0  0  0  0  0  0  0  0  0  0  0  0
   -3.1557    1.2251   -4.1578 H   0  0  0  0  0  0  0  0  0  0  0  0
    0.0879    1.2003   -2.3128 H   0  0  0  0  0  0  0  0  0  0  0  0
   -0.0571    0.6513   -3.9815 H   0  0  0  0  0  0  0  0  0  0  0  0
   -0.0057   -0.6122   -2.7054 H   0  0  0  0  0  0  0  0  0  0  0  0
   -3.3832    3.4916   -1.6448 H   0  0  0  0  0  0  0  0  0  0  0  0
   -2.7113    3.2231   -0.0261 H   0  0  0  0  0  0  0  0  0  0  0  0
   -4.5033    2.5307   -2.5131 H   0  0  0  0  0  0  0  0  0  0  0  0
   -6.5027    0.9941   -1.0674 H   0  0  0  0  0  0  0  0  0  0  0  0
   -6.1519    0.9020   -2.7952 H   0  0  0  0  0  0  0  0  0  0  0  0
   -4.5976   -0.9505   -2.4634 H   0  0  0  0  0  0  0  0  0  0  0  0
   -6.5139   -1.7522   -2.4245 H   0  0  0  0  0  0  0  0  0  0  0  0
   -5.6811    0.6092    1.0271 H   0  0  0  0  0  0  0  0  0  0  0  0
   -5.6564   -1.1733    1.5200 H   0  0  0  0  0  0  0  0  0  0  0  0
   -6.6019   -0.6048    0.1883 H   0  0  0  0  0  0  0  0  0  0  0  0
   -4.5210   -2.5135    0.9435 H   0  0  0  0  0  0  0  0  0  0  0  0
   -5.4562   -3.3861   -0.6749 H   0  0  0  0  0  0  0  0  0  0  0  0
   -2.2488   -2.2679   -1.0569 H   0  0  0  0  0  0  0  0  0  0  0  0
   -2.0244   -3.6539   -2.1420 H   0  0  0  0  0  0  0  0  0  0  0  0
   -1.5402   -6.1611   -0.8764 H   0  0  0  0  0  0  0  0  0  0  0  0
   -4.1802   -5.5956   -1.2397 H   0  0  0  0  0  0  0  0  0  0  0  0
   -4.0360   -4.7203   -2.8778 H   0  0  0  0  0  0  0  0  0  0  0  0
   -3.0756   -6.1530   -2.5338 H   0  0  0  0  0  0  0  0  0  0  0  0
   -1.4279   -3.3507    1.4719 H   0  0  0  0  0  0  0  0  0  0  0  0
   -0.5473   -1.8034   -0.7612 H   0  0  0  0  0  0  0  0  0  0  0  0
    1.1776   -1.0126    1.5570 H   0  0  0  0  0  0  0  0  0  0  0  0
    2.6808   -0.8481    0.8464 H   0  0  0  0  0  0  0  0  0  0  0  0
    2.2007    1.6428    0.4966 H   0  0  0  0  0  0  0  0  0  0  0  0
    2.9218   -0.0793   -2.0766 H   0  0  0  0  0  0  0  0  0  0  0  0
    2.9941   -2.1203   -2.6133 H   0  0  0  0  0  0  0  0  0  0  0  0
    5.0383   -0.5507   -2.2393 H   0  0  0  0  0  0  0  0  0  0  0  0
    4.4554    1.4701   -1.3067 H   0  0  0  0  0  0  0  0  0  0  0  0
    6.8872    0.8227    0.2979 H   0  0  0  0  0  0  0  0  0  0  0  0
    6.0189    2.4710    1.2133 H   0  0  0  0  0  0  0  0  0  0  0  0
    8.0754    2.1201   -1.0755 H   0  0  0  0  0  0  0  0  0  0  0  0
    8.2249   -0.0411   -1.9838 H   0  0  0  0  0  0  0  0  0  0  0  0
    6.8915    0.1651   -3.1573 H   0  0  0  0  0  0  0  0  0  0  0  0
    9.3431    0.7863   -3.7746 H   0  0  0  0  0  0  0  0  0  0  0  0
    7.8759    1.6490   -4.4756 H   0  0  0  0  0  0  0  0  0  0  0  0
    9.5697    3.2209   -3.8676 H   0  0  0  0  0  0  0  0  0  0  0  0
    9.6752    2.6131   -2.1991 H   0  0  0  0  0  0  0  0  0  0  0  0
    7.6510    4.4527   -3.5017 H   0  0  0  0  0  0  0  0  0  0  0  0
    8.1047    4.2915   -1.7650 H   0  0  0  0  0  0  0  0  0  0  0  0
    6.1663    2.6482   -3.3463 H   0  0  0  0  0  0  0  0  0  0  0  0
    5.9238    3.5353   -1.7753 H   0  0  0  0  0  0  0  0  0  0  0  0
    6.6422   -1.2145   -0.6010 H   0  0  0  0  0  0  0  0  0  0  0  0
    4.9237   -1.2252    1.5424 H   0  0  0  0  0  0  0  0  0  0  0  0
    4.5809   -2.8614    0.8700 H   0  0  0  0  0  0  0  0  0  0  0  0
    7.4175   -1.9051    1.3527 H   0  0  0  0  0  0  0  0  0  0  0  0
    6.4219   -2.9367    2.4397 H   0  0  0  0  0  0  0  0  0  0  0  0
    6.1544   -4.6718    0.8654 H   0  0  0  0  0  0  0  0  0  0  0  0
    7.8583   -4.2287    0.8242 H   0  0  0  0  0  0  0  0  0  0  0  0
    7.7349   -2.8763   -1.0652 H   0  0  0  0  0  0  0  0  0  0  0  0
    7.0634   -4.5083   -1.4449 H   0  0  0  0  0  0  0  0  0  0  0  0
    4.7797   -3.5583   -1.1519 H   0  0  0  0  0  0  0  0  0  0  0  0
    5.7105   -2.6399   -2.4526 H   0  0  0  0  0  0  0  0  0  0  0  0
    0.0428    1.1014    1.6724 H   0  0  0  0  0  0  0  0  0  0  0  0
   -0.8943    0.8232    0.2178 H   0  0  0  0  0  0  0  0  0  0  0  0
    1.5791   -3.0988    0.7460 H   0  0  0  0  0  0  0  0  0  0  0  0
    0.0740   -4.0880    0.6783 H   0  0  0  0  0  0  0  0  0  0  0  0
    0.8622   -3.5420   -0.8054 H   0  0  0  0  0  0  0  0  0  0  0  0
   -3.1035   -3.1156    2.7446 H   0  0  0  0  0  0  0  0  0  0  0  0
   -2.7385   -2.1116    4.1114 H   0  0  0  0  0  0  0  0  0  0  0  0
   -3.9551   -1.5274    3.0559 H   0  0  0  0  0  0  0  0  0  0  0  0
   -0.1651   -0.8640    3.4384 H   0  0  0  0  0  0  0  0  0  0  0  0
   -0.0336   -2.5841    2.7127 H   0  0  0  0  0  0  0  0  0  0  0  0
   -0.9862   -2.2222    4.0946 H   0  0  0  0  0  0  0  0  0  0  0  0
  2  1  1  1
  2  3  1  0
  3  4  1  0
  4  5  1  0
  5  6  1  0
  5  7  1  0
  7  8  1  0
  8  9  1  0
  9 10  1  0
 10 11  1  0
  7 12  1  0
 11 12  1  0
  3 13  1  0
 13 14  1  0
 14 15  1  6
 15 16  1  0
 16 17  1  0
 16 18  1  0
 14 19  1  0
 19 20  1  0
 14 21  1  0
 20 21  1  0
 21 22  1  0
 22 23  1  0
 23 24  1  0
 13 25  1  0
 23 25  1  0
 25 26  1  1
 25 27  1  0
 27 28  1  0
 27 29  1  0
 29 30  1  0
 30 31  1  0
 31 32  1  0
 31 33  1  0
 29 34  1  0
 34 35  1  0
 35 36  1  0
 36 37  1  0
 37 38  1  0
 38 39  1  0
 38 40  1  0
 40 41  1  0
 40 42  1  0
 42 43  1  0
 43 44  1  0
 44 45  1  0
 44 46  1  0
 46 47  1  0
 47 48  1  0
 48 49  1  0
 49 50  1  0
 46 51  1  0
 50 51  1  0
 42 52  1  0
 52 53  1  0
 53 54  1  0
 54 55  1  0
 55 56  1  0
 52 57  1  0
 56 57  1  0
  2 58  1  0
 36 58  1  0
 35 59  1  0
  2 60  1  0
 34 60  1  0
 60 61  1  0
 60 62  1  0
 64 63  1  1
 64 65  1  0
 65 66  1  0
 66 67  1  0
 67 68  1  0
 67 69  1  0
 69 70  1  0
 70 71  1  0
 71 72  1  0
 72 73  1  0
 69 74  1  0
 73 74  1  0
 65 75  1  0
 75 76  1  0
 76 77  1  6
 77 78  1  0
 78 79  1  0
 78 80  1  0
 76 81  1  0
 81 82  1  0
 76 83  1  0
 82 83  1  0
 83 84  1  0
 84 85  1  0
 85 86  1  0
 75 87  1  0
 85 87  1  0
 87 88  1  1
 87 89  1  0
 89 90  1  0
 89 91  1  0
 91 92  1  0
 92 93  1  0
 93 94  1  0
 93 95  1  0
 91 96  1  0
 96 97  1  0
 97 98  1  0
 98 99  1  0
 99100  1  0
100101  1  0
100102  1  0
102103  1  0
102104  1  0
104105  1  0
105106  1  0
106107  1  0
106108  1  0
108109  1  0
109110  1  0
110111  1  0
111112  1  0
108113  1  0
112113  1  0
104114  1  0
114115  1  0
115116  1  0
116117  1  0
117118  1  0
114119  1  0
118119  1  0
 64120  1  0
 98120  1  0
 97121  1  0
 64122  1  0
 96122  1  0
122123  1  0
122124  1  0
  1125  1  0
  3126  1  1
  5127  1  0
  6128  1  0
  7129  1  0
  8130  1  0
  8131  1  0
  9132  1  0
  9133  1  0
 10134  1  0
 10135  1  0
 11136  1  0
 11137  1  0
 12138  1  0
 12139  1  0
 13140  1  6
 16141  1  0
 17142  1  0
 18143  1  0
 18144  1  0
 18145  1  0
 19146  1  0
 19147  1  0
 21148  1  6
 22149  1  0
 22150  1  0
 23151  1  6
 24152  1  0
 26153  1  0
 26154  1  0
 26155  1  0
 27156  1  0
 28157  1  0
 29158  1  6
 31159  1  0
 32160  1  0
 33161  1  0
 33162  1  0
 33163  1  0
 34164  1  1
 35165  1  0
 36166  1  1
 38167  1  0
 39168  1  0
 40169  1  6
 41170  1  0
 42171  1  6
 43172  1  0
 44173  1  0
 45174  1  0
 46175  1  0
 47176  1  0
 47177  1  0
 48178  1  0
 48179  1  0
 49180  1  0
 49181  1  0
 50182  1  0
 50183  1  0
 51184  1  0
 51185  1  0
 52186  1  0
 53187  1  0
 53188  1  0
 54189  1  0
 54190  1  0
 55191  1  0
 55192  1  0
 56193  1  0
 56194  1  0
 57195  1  0
 57196  1  0
 58197  1  0
 58198  1  0
 59199  1  0
 59200  1  0
 59201  1  0
 61202  1  0
 61203  1  0
 61204  1  0
 62205  1  0
 62206  1  0
 62207  1  0
 63208  1  0
 65209  1  1
 67210  1  0
 68211  1  0
 69212  1  0
 70213  1  0
 70214  1  0
 71215  1  0
 71216  1  0
 72217  1  0
 72218  1  0
 73219  1  0
 73220  1  0
 74221  1  0
 74222  1  0
 75223  1  6
 78224  1  0
 79225  1  0
 80226  1  0
 80227  1  0
 80228  1  0
 81229  1  0
 81230  1  0
 83231  1  6
 84232  1  0
 84233  1  0
 85234  1  6
 86235  1  0
 88236  1  0
 88237  1  0
 88238  1  0
 89239  1  0
 90240  1  0
 91241  1  6
 93242  1  0
 94243  1  0
 95244  1  0
 95245  1  0
 95246  1  0
 96247  1  1
 97248  1  0
 98249  1  1
100250  1  0
101251  1  0
102252  1  6
103253  1  0
104254  1  6
105255  1  0
106256  1  0
107257  1  0
108258  1  0
109259  1  0
109260  1  0
110261  1  0
110262  1  0
111263  1  0
111264  1  0
112265  1  0
112266  1  0
113267  1  0
113268  1  0
114269  1  0
115270  1  0
115271  1  0
116272  1  0
116273  1  0
117274  1  0
117275  1  0
118276  1  0
118277  1  0
119278  1  0
119279  1  0
120280  1  0
120281  1  0
121282  1  0
121283  1  0
121284  1  0
123285  1  0
123286  1  0
123287  1  0
124288  1  0
124289  1  0
124290  1  0
M  END
>  <PDBID>  (1) 
5M50

>  <PDB ID>  (1) 
5M50

>  <Generic Name>  (1) 
Paclitaxel

>  <Brand Name>  (1) 
Abraxane#Abraxane for Injectable Suspension#Aj-paclitaxel#Apo-paclitaxel Injectable#Paclitaxel#Paclitaxel Injection#Paclitaxel Injection USP#Paclitaxel Injection, USP#Paclitaxel Paclitaxel#Paclitaxel for Injection#Paclitaxel for Injection USP#Paxene#Taxol#Teva-paclitaxel for Injection#Onxol#Paxceed

>  <DrugBank ID>  (1) 
DB01229

>  <ATC Codes>  (1) 
L01CD01

>  <Ligand ID>  (1) 
TA1

>  <Target Name>  (1) 
Tubulin beta-1 chain

>  <UniProt ID>  (1) 
Q9H4B7

>  <PDB ID.1>  (1) 
5M50

>  <Seq. Identity>  (1) 
78%

$$$$
