PDB_DB01394_04
     RDKit          3D

 70 72  0  0  0  0  0  0  0  0999 V2000
   -4.4103   -3.4722    1.4083 O   0  0  0  0  0  0  0  0  0  0  0  0
   -3.4411   -2.9373    0.4981 C   0  0  0  0  0  0  0  0  0  0  0  0
   -3.0941   -4.1311   -0.3802 C   0  0  0  0  0  0  0  0  0  0  0  0
   -2.4331   -2.3544    1.2352 N   0  0  0  0  0  0  0  0  0  0  0  0
   -1.3101   -1.6927    0.6939 C   0  0  2  0  0  0  0  0  0  0  0  0
   -1.5646   -0.4424   -0.0875 C   0  0  0  0  0  0  0  0  0  0  0  0
   -2.8868    0.1346    0.2937 C   0  0  0  0  0  0  0  0  0  0  0  0
   -0.5094   -2.6510   -0.1721 C   0  0  0  0  0  0  0  0  0  0  0  0
    0.9628   -2.3771    0.0564 C   0  0  0  0  0  0  0  0  0  0  0  0
    1.3031   -1.1099   -0.7176 C   0  0  2  0  0  0  0  0  0  0  0  0
    2.7495   -1.1690   -1.1030 C   0  0  0  0  0  0  0  0  0  0  0  0
    3.6843   -0.7604   -0.0078 C   0  0  0  0  0  0  0  0  0  0  0  0
    3.1948    0.3857    0.8189 C   0  0  0  0  0  0  0  0  0  0  0  0
    1.9916    1.0766    0.1314 C   0  0  0  0  0  0  0  0  0  0  0  0
    2.4891    1.4864   -1.0725 O   0  0  0  0  0  0  0  0  0  0  0  0
    2.6347    2.8702   -1.1432 C   0  0  0  0  0  0  0  0  0  0  0  0
    4.1777    1.3278    1.0785 O   0  0  0  0  0  0  0  0  0  0  0  0
    4.3852    1.4685    2.4582 C   0  0  0  0  0  0  0  0  0  0  0  0
    4.8957   -0.3890   -0.5738 O   0  0  0  0  0  0  0  0  0  0  0  0
    5.9372   -1.2330   -0.2025 C   0  0  0  0  0  0  0  0  0  0  0  0
    0.9135    0.0554    0.1257 C   0  0  1  0  0  0  0  0  0  0  0  0
   -0.4556    0.5705   -0.0866 C   0  0  0  0  0  0  0  0  0  0  0  0
   -0.6498    1.4136   -1.3172 C   0  0  0  0  0  0  0  0  0  0  0  0
   -1.2620    2.7656   -0.9225 C   0  0  0  0  0  0  0  0  0  0  0  0
   -2.6962    2.4909   -0.5942 C   0  0  1  0  0  0  0  0  0  0  0  0
   -2.9092    1.6128    0.5987 C   0  0  0  0  0  0  0  0  0  0  0  0
   -4.2757    1.8421    0.9496 O   0  0  0  0  0  0  0  0  0  0  0  0
   -3.3231    3.7076   -0.3142 O   0  0  0  0  0  0  0  0  0  0  0  0
   -4.3886    3.9442   -1.1860 C   0  0  0  0  0  0  0  0  0  0  0  0
   -4.3391   -3.0289    2.2726 H   0  0  0  0  0  0  0  0  0  0  0  0
   -4.0181   -2.2031   -0.1021 H   0  0  0  0  0  0  0  0  0  0  0  0
   -4.0632   -4.6120   -0.7460 H   0  0  0  0  0  0  0  0  0  0  0  0
   -2.6149   -4.9576    0.1782 H   0  0  0  0  0  0  0  0  0  0  0  0
   -2.5966   -3.8146   -1.2882 H   0  0  0  0  0  0  0  0  0  0  0  0
   -2.1331   -2.9622    2.0342 H   0  0  0  0  0  0  0  0  0  0  0  0
   -0.6706   -1.4419    1.6139 H   0  0  0  0  0  0  0  0  0  0  0  0
   -1.6637   -0.7743   -1.1690 H   0  0  0  0  0  0  0  0  0  0  0  0
   -3.3353   -0.3573    1.1774 H   0  0  0  0  0  0  0  0  0  0  0  0
   -3.6596    0.0362   -0.5327 H   0  0  0  0  0  0  0  0  0  0  0  0
   -0.7089   -2.4225   -1.2250 H   0  0  0  0  0  0  0  0  0  0  0  0
   -0.6542   -3.7034    0.0589 H   0  0  0  0  0  0  0  0  0  0  0  0
    1.0714   -2.1273    1.1296 H   0  0  0  0  0  0  0  0  0  0  0  0
    1.6108   -3.2144   -0.1953 H   0  0  0  0  0  0  0  0  0  0  0  0
    0.7166   -1.1332   -1.6769 H   0  0  0  0  0  0  0  0  0  0  0  0
    3.0005   -2.2279   -1.3774 H   0  0  0  0  0  0  0  0  0  0  0  0
    2.9468   -0.5944   -2.0594 H   0  0  0  0  0  0  0  0  0  0  0  0
    3.8534   -1.6724    0.6294 H   0  0  0  0  0  0  0  0  0  0  0  0
    2.8225   -0.0121    1.7770 H   0  0  0  0  0  0  0  0  0  0  0  0
    1.7799    1.9708    0.7822 H   0  0  0  0  0  0  0  0  0  0  0  0
    3.3300    3.2631   -0.3705 H   0  0  0  0  0  0  0  0  0  0  0  0
    1.6335    3.3325   -1.0858 H   0  0  0  0  0  0  0  0  0  0  0  0
    3.0581    3.1063   -2.1384 H   0  0  0  0  0  0  0  0  0  0  0  0
    5.1680    2.2089    2.6425 H   0  0  0  0  0  0  0  0  0  0  0  0
    3.4293    1.7572    2.9774 H   0  0  0  0  0  0  0  0  0  0  0  0
    4.7001    0.4917    2.9085 H   0  0  0  0  0  0  0  0  0  0  0  0
    6.1020   -1.2528    0.8843 H   0  0  0  0  0  0  0  0  0  0  0  0
    5.6469   -2.2528   -0.5961 H   0  0  0  0  0  0  0  0  0  0  0  0
    6.8383   -0.9530   -0.7816 H   0  0  0  0  0  0  0  0  0  0  0  0
    0.9166   -0.3117    1.2082 H   0  0  0  0  0  0  0  0  0  0  0  0
   -0.6444    1.2370    0.8091 H   0  0  0  0  0  0  0  0  0  0  0  0
   -1.4331    0.9724   -2.0075 H   0  0  0  0  0  0  0  0  0  0  0  0
    0.2127    1.5648   -1.9469 H   0  0  0  0  0  0  0  0  0  0  0  0
   -1.1997    3.5048   -1.7214 H   0  0  0  0  0  0  0  0  0  0  0  0
   -0.7232    3.0726    0.0087 H   0  0  0  0  0  0  0  0  0  0  0  0
   -3.2194    2.0121   -1.4554 H   0  0  0  0  0  0  0  0  0  0  0  0
   -2.3835    1.9080    1.5142 H   0  0  0  0  0  0  0  0  0  0  0  0
   -4.5023    1.1756    1.6535 H   0  0  0  0  0  0  0  0  0  0  0  0
   -3.9413    3.9707   -2.2139 H   0  0  0  0  0  0  0  0  0  0  0  0
   -4.8932    4.8789   -0.9107 H   0  0  0  0  0  0  0  0  0  0  0  0
   -5.1490    3.1326   -1.1256 H   0  0  0  0  0  0  0  0  0  0  0  0
  1  2  1  0
  2  3  1  0
  2  4  1  0
  4  5  1  0
  5  6  1  0
  6  7  1  0
  5  8  1  0
  8  9  1  0
  9 10  1  0
 10 11  1  0
 11 12  1  0
 12 13  1  0
 13 14  1  0
 14 15  1  0
 15 16  1  0
 13 17  1  0
 17 18  1  0
 12 19  1  0
 19 20  1  0
 10 21  1  0
 14 21  1  0
  6 22  1  0
 21 22  1  0
 22 23  1  0
 23 24  1  0
 24 25  1  0
  7 26  1  0
 25 26  1  0
 26 27  1  0
 25 28  1  0
 28 29  1  0
  1 30  1  0
  2 31  1  0
  3 32  1  0
  3 33  1  0
  3 34  1  0
  4 35  1  0
  5 36  1  1
  6 37  1  0
  7 38  1  0
  7 39  1  0
  8 40  1  0
  8 41  1  0
  9 42  1  0
  9 43  1  0
 10 44  1  6
 11 45  1  0
 11 46  1  0
 12 47  1  0
 13 48  1  0
 14 49  1  0
 16 50  1  0
 16 51  1  0
 16 52  1  0
 18 53  1  0
 18 54  1  0
 18 55  1  0
 20 56  1  0
 20 57  1  0
 20 58  1  0
 21 59  1  1
 22 60  1  0
 23 61  1  0
 23 62  1  0
 24 63  1  0
 24 64  1  0
 25 65  1  6
 26 66  1  0
 27 67  1  0
 29 68  1  0
 29 69  1  0
 29 70  1  0
M  END
>  <PDBID>  (1) 
5EYP

>  <PDB ID>  (1) 
5EYP

>  <Generic Name>  (1) 
Colchicine

>  <Brand Name>  (1) 
Colchicine#Colchicine Tab 0.6mg#Colchicine Tab 1mg#Colcrys#Euro-colchicine#Jamp-colchicine#Mitigare#PMS-colchicine#Probenecid and Colchicine#Verban Ont

>  <DrugBank ID>  (1) 
DB01394

>  <ATC Codes>  (1) 
M04AC01

>  <Ligand ID>  (1) 
LOC

>  <Target Name>  (1) 
Tubulin beta-1 chain

>  <UniProt ID>  (1) 
Q9H4B7

>  <PDB ID.1>  (1) 
5EYP

>  <Seq. Identity>  (1) 
78%

$$$$
