PDB_DB00176_03
     RDKit          3D

 51 51  0  0  0  0  0  0  0  0999 V2000
    6.4367   -1.9349    0.1822 C   0  0  0  0  0  0  0  0  0  0  0  0
    5.3584   -1.0728    0.5284 O   0  0  0  0  0  0  0  0  0  0  0  0
    4.4229   -1.2297   -0.4061 C   0  0  0  0  0  0  0  0  0  0  0  0
    3.1241   -0.4533   -0.4260 C   0  0  0  0  0  0  0  0  0  0  0  0
    2.1949   -0.8660    0.6600 C   0  0  0  0  0  0  0  0  0  0  0  0
    0.7550   -0.7858    0.4037 C   0  0  0  0  0  0  0  0  0  0  0  0
   -0.0770    0.4146    0.3899 C   0  0  0  0  0  0  0  0  0  0  0  0
    0.0969    1.4325   -0.5002 N   0  0  0  0  0  0  0  0  0  0  0  0
   -0.4524    2.5349   -0.6153 O   0  0  0  0  0  0  0  0  0  0  0  0
   -0.7942    3.3898    0.3905 C   0  0  0  0  0  0  0  0  0  0  0  0
    0.0702    4.6243   -0.0851 C   0  0  0  0  0  0  0  0  0  0  0  0
   -0.0528    5.7562    0.6519 N   0  0  0  0  0  0  0  0  0  0  0  0
   -1.5737    0.0063    0.2957 C   0  0  0  0  0  0  0  0  0  0  0  0
   -1.6946   -0.8427   -0.9276 C   0  0  0  0  0  0  0  0  0  0  0  0
   -3.1447   -1.2208   -1.1574 C   0  0  0  0  0  0  0  0  0  0  0  0
   -3.8772   -1.4398    0.1420 C   0  0  0  0  0  0  0  0  0  0  0  0
   -2.8331   -1.8646    1.1903 C   0  0  0  0  0  0  0  0  0  0  0  0
   -2.0647   -0.5927    1.5534 C   0  0  0  0  0  0  0  0  0  0  0  0
   -4.8186   -2.6328    0.0325 C   0  0  0  0  0  0  0  0  0  0  0  0
   -5.7201   -2.4968   -0.9801 F   0  0  0  0  0  0  0  0  0  0  0  0
   -4.0707   -3.7759   -0.0040 F   0  0  0  0  0  0  0  0  0  0  0  0
   -5.5260   -2.6003    1.2587 F   0  0  0  0  0  0  0  0  0  0  0  0
    6.7683   -1.6456   -0.8385 H   0  0  0  0  0  0  0  0  0  0  0  0
    6.1840   -2.9732    0.1840 H   0  0  0  0  0  0  0  0  0  0  0  0
    7.2990   -1.7699    0.8639 H   0  0  0  0  0  0  0  0  0  0  0  0
    3.9769   -2.3320   -0.0430 H   0  0  0  0  0  0  0  0  0  0  0  0
    4.8059   -1.4952   -1.4060 H   0  0  0  0  0  0  0  0  0  0  0  0
    3.5426    0.6197   -0.2041 H   0  0  0  0  0  0  0  0  0  0  0  0
    2.7376   -0.3446   -1.4418 H   0  0  0  0  0  0  0  0  0  0  0  0
    2.3968   -0.0237    1.5078 H   0  0  0  0  0  0  0  0  0  0  0  0
    2.5769   -1.7474    1.1903 H   0  0  0  0  0  0  0  0  0  0  0  0
    0.7151   -1.1191   -0.8203 H   0  0  0  0  0  0  0  0  0  0  0  0
    0.2283   -1.6689    0.7564 H   0  0  0  0  0  0  0  0  0  0  0  0
   -0.0182    0.7954    1.4916 H   0  0  0  0  0  0  0  0  0  0  0  0
    0.5150    1.0968   -1.4277 H   0  0  0  0  0  0  0  0  0  0  0  0
   -0.6736    3.1779    1.4027 H   0  0  0  0  0  0  0  0  0  0  0  0
   -1.8326    3.8232    0.2258 H   0  0  0  0  0  0  0  0  0  0  0  0
    1.1165    4.1527    0.2138 H   0  0  0  0  0  0  0  0  0  0  0  0
    0.0273    4.6646   -1.1491 H   0  0  0  0  0  0  0  0  0  0  0  0
   -0.7402    6.4535    0.2138 H   0  0  0  0  0  0  0  0  0  0  0  0
   -0.0952    5.7232    1.6674 H   0  0  0  0  0  0  0  0  0  0  0  0
   -2.1345    0.9612    0.0556 H   0  0  0  0  0  0  0  0  0  0  0  0
   -1.2273   -0.3342   -1.7734 H   0  0  0  0  0  0  0  0  0  0  0  0
   -1.1613   -1.8204   -0.8095 H   0  0  0  0  0  0  0  0  0  0  0  0
   -3.2012   -2.1040   -1.7876 H   0  0  0  0  0  0  0  0  0  0  0  0
   -3.6009   -0.3117   -1.6619 H   0  0  0  0  0  0  0  0  0  0  0  0
   -4.3697   -0.5357    0.4722 H   0  0  0  0  0  0  0  0  0  0  0  0
   -3.3777   -2.2384    2.0716 H   0  0  0  0  0  0  0  0  0  0  0  0
   -2.1616   -2.6439    0.8267 H   0  0  0  0  0  0  0  0  0  0  0  0
   -1.2238   -0.7868    2.2321 H   0  0  0  0  0  0  0  0  0  0  0  0
   -2.8317    0.0767    2.0582 H   0  0  0  0  0  0  0  0  0  0  0  0
  1  2  1  0
  2  3  1  0
  3  4  1  0
  4  5  1  0
  5  6  1  0
  6  7  1  0
  7  8  1  0
  8  9  1  0
  9 10  1  0
 10 11  1  0
 11 12  1  0
  7 13  1  0
 13 14  1  0
 14 15  1  0
 15 16  1  0
 16 17  1  0
 13 18  1  0
 17 18  1  0
 16 19  1  0
 19 20  1  0
 19 21  1  0
 19 22  1  0
  1 23  1  0
  1 24  1  0
  1 25  1  0
  3 26  1  0
  3 27  1  0
  4 28  1  0
  4 29  1  0
  5 30  1  0
  5 31  1  0
  6 32  1  0
  6 33  1  0
  7 34  1  0
  8 35  1  0
 10 36  1  0
 10 37  1  0
 11 38  1  0
 11 39  1  0
 12 40  1  0
 12 41  1  0
 13 42  1  0
 14 43  1  0
 14 44  1  0
 15 45  1  0
 15 46  1  0
 16 47  1  0
 17 48  1  0
 17 49  1  0
 18 50  1  0
 18 51  1  0
M  END
>  <PDBID>  (1) 
6AWP

>  <PDB ID>  (1) 
6AWP

>  <Generic Name>  (1) 
Fluvoxamine

>  <Brand Name>  (1) 
Act Fluvoxamine#Apo-fluvoxamine Tablets#Ava-fluvoxamine#Bci Fluvoxamine Tablets#Dom-fluvoxamine#Fluvoxamine Maleate#Fluvoxamine Maleate Extended-release#Fluvoxamine Tablets#Fluvoxamine-100#Fluvoxamine-50#Gen-fluvoxamine 100mg#Gen-fluvoxamine 50mg#Luvox#Luvox CR#Novo-fluvoxamine#Nu-fluvoxamine 100 Mg Tab#Nu-fluvoxamine 50 Mg Tab#PHL-fluvoxamine#PMS-fluvoxamine#Ratio-fluvoxamine#Riva-fluvox#Riva-fluvox 100mg Tablets#Riva-fluvox 50mg Tablets#Sandoz Fluvoxamine#Dumirox#Faverin#Fevarin#Floxyfral#Maveral

>  <DrugBank ID>  (1) 
DB00176

>  <ATC Codes>  (1) 
N06AB08

>  <Ligand ID>  (1) 
FVX

>  <Target Name>  (1) 
Sodium-dependent serotonin transporter

>  <UniProt ID>  (1) 
P31645

>  <PDB ID.1>  (1) 
6AWP

>  <Seq. Identity>  (1) 
99%

$$$$
