PDB_DB01011_02
     RDKit          3D

 45 46  0  0  0  0  0  0  0  0999 V2000
   -4.0862   -1.2087   -0.1410 N   0  0  0  0  0  0  0  0  0  0  0  0
   -2.9683   -0.8739    0.7183 C   0  0  0  0  0  0  0  0  0  0  0  0
   -1.9548   -0.1638   -0.2128 C   0  0  0  0  0  0  0  0  0  0  0  0
   -2.5379    1.2410   -0.3286 C   0  0  0  0  0  0  0  0  0  0  0  0
   -4.0520    1.2422   -0.2278 C   0  0  0  0  0  0  0  0  0  0  0  0
   -4.6730   -0.0303   -0.7381 C   0  0  0  0  0  0  0  0  0  0  0  0
   -0.6023   -0.1695    0.4282 C   0  0  0  0  0  0  0  0  0  0  0  0
   -0.6332    0.5179    1.6413 O   0  0  0  0  0  0  0  0  0  0  0  0
    0.4526    1.6134   -0.9791 C   0  0  0  0  0  0  0  0  0  0  0  0
    0.5459    0.2165   -0.4202 C   0  0  0  0  0  0  0  0  0  0  0  0
    0.6275   -0.7603   -1.5800 C   0  0  0  0  0  0  0  0  0  0  0  0
    1.8544    0.1734    0.3733 C   0  0  0  0  0  0  0  0  0  0  0  0
    2.1489   -1.1869    0.9242 C   0  0  0  0  0  0  0  0  0  0  0  0
    3.3409   -1.0646    1.7542 N   0  0  0  0  0  0  0  0  0  0  0  0
    4.4991   -0.6814    1.0101 C   0  0  0  0  0  0  0  0  0  0  0  0
    4.1936   -0.3399   -0.4172 C   0  0  0  0  0  0  0  0  0  0  0  0
    2.9800    0.5506   -0.5701 C   0  0  0  0  0  0  0  0  0  0  0  0
   -3.7013   -1.8226   -0.8994 H   0  0  0  0  0  0  0  0  0  0  0  0
   -2.5175   -1.7950    1.1010 H   0  0  0  0  0  0  0  0  0  0  0  0
   -3.2506   -0.1590    1.5188 H   0  0  0  0  0  0  0  0  0  0  0  0
   -1.9806   -0.7144   -1.1699 H   0  0  0  0  0  0  0  0  0  0  0  0
   -2.1951    1.7867   -1.2145 H   0  0  0  0  0  0  0  0  0  0  0  0
   -2.1900    1.7989    0.5666 H   0  0  0  0  0  0  0  0  0  0  0  0
   -4.4085    2.0729   -0.8724 H   0  0  0  0  0  0  0  0  0  0  0  0
   -4.4152    1.4398    0.7915 H   0  0  0  0  0  0  0  0  0  0  0  0
   -4.5965   -0.0637   -1.8397 H   0  0  0  0  0  0  0  0  0  0  0  0
   -5.7509    0.0093   -0.4828 H   0  0  0  0  0  0  0  0  0  0  0  0
   -0.4373   -1.2679    0.7122 H   0  0  0  0  0  0  0  0  0  0  0  0
   -0.9546   -0.0777    2.3644 H   0  0  0  0  0  0  0  0  0  0  0  0
   -0.0630    2.3212   -0.3318 H   0  0  0  0  0  0  0  0  0  0  0  0
    1.4982    2.0357   -1.1384 H   0  0  0  0  0  0  0  0  0  0  0  0
    0.0181    1.6180   -2.0143 H   0  0  0  0  0  0  0  0  0  0  0  0
    1.6185   -1.2599   -1.6441 H   0  0  0  0  0  0  0  0  0  0  0  0
   -0.1487   -1.5387   -1.5049 H   0  0  0  0  0  0  0  0  0  0  0  0
    0.4777   -0.2280   -2.5283 H   0  0  0  0  0  0  0  0  0  0  0  0
    1.7441    0.8853    1.2152 H   0  0  0  0  0  0  0  0  0  0  0  0
    1.3395   -1.4959    1.6179 H   0  0  0  0  0  0  0  0  0  0  0  0
    2.2610   -1.9597    0.1600 H   0  0  0  0  0  0  0  0  0  0  0  0
    3.1189   -0.3330    2.4833 H   0  0  0  0  0  0  0  0  0  0  0  0
    5.0168    0.1968    1.4637 H   0  0  0  0  0  0  0  0  0  0  0  0
    5.2629   -1.4938    0.9942 H   0  0  0  0  0  0  0  0  0  0  0  0
    4.0890   -1.2908   -0.9757 H   0  0  0  0  0  0  0  0  0  0  0  0
    5.0509    0.2057   -0.8704 H   0  0  0  0  0  0  0  0  0  0  0  0
    2.6814    0.4750   -1.6293 H   0  0  0  0  0  0  0  0  0  0  0  0
    3.2975    1.5789   -0.3036 H   0  0  0  0  0  0  0  0  0  0  0  0
  1  2  1  0
  2  3  1  0
  3  4  1  0
  4  5  1  0
  1  6  1  0
  5  6  1  0
  3  7  1  0
  7  8  1  0
 10  7  1  0
  9 10  1  0
 10 11  1  0
 10 12  1  0
 12 13  1  0
 13 14  1  0
 14 15  1  0
 15 16  1  0
 12 17  1  0
 16 17  1  0
  1 18  1  0
  2 19  1  0
  2 20  1  0
  3 21  1  0
  4 22  1  0
  4 23  1  0
  5 24  1  0
  5 25  1  0
  6 26  1  0
  6 27  1  0
  7 28  1  0
  8 29  1  0
  9 30  1  0
  9 31  1  0
  9 32  1  0
 11 33  1  0
 11 34  1  0
 11 35  1  0
 12 36  1  0
 13 37  1  0
 13 38  1  0
 14 39  1  0
 15 40  1  0
 15 41  1  0
 16 42  1  0
 16 43  1  0
 17 44  1  0
 17 45  1  0
M  END
>  <PDBID>  (1) 
1W0G

>  <PDB ID>  (1) 
1W0G

>  <Generic Name>  (1) 
Metyrapone

>  <Brand Name>  (1) 
Metopirone#Metopiron

>  <DrugBank ID>  (1) 
DB01011

>  <ATC Codes>  (1) 
V04CD01

>  <Ligand ID>  (1) 
MYT

>  <Target Name>  (1) 
Cytochrome P450 11B1, mitochondrial

>  <UniProt ID>  (1) 
P15538

>  <PDB ID.1>  (1) 
1W0G

>  <Seq. Identity>  (1) 
32%

$$$$
