PDB_DB01076_03
     RDKit          3D

408420  0  0  0  0  0  0  0  0999 V2000
   -2.5913   -2.2360   -1.9644 C   0  0  0  0  0  0  0  0  0  0  0  0
   -2.8050   -2.0335   -0.5168 C   0  0  0  0  0  0  0  0  0  0  0  0
   -3.3666   -3.2248    0.1983 C   0  0  0  0  0  0  0  0  0  0  0  0
   -3.0337   -4.5376   -0.4397 C   0  0  0  0  0  0  0  0  0  0  0  0
   -3.2268   -4.5695   -1.9174 C   0  0  0  0  0  0  0  0  0  0  0  0
   -3.7061   -3.2156   -2.3982 C   0  0  0  0  0  0  0  0  0  0  0  0
    0.8099   -5.4361    0.9622 C   0  0  0  0  0  0  0  0  0  0  0  0
    0.7896   -4.1885    0.1276 C   0  0  0  0  0  0  0  0  0  0  0  0
    0.0213   -3.1436    0.9579 C   0  0  0  0  0  0  0  0  0  0  0  0
    1.1340   -2.7691    1.9841 C   0  0  0  0  0  0  0  0  0  0  0  0
    1.3221   -3.9246    2.9038 C   0  0  0  0  0  0  0  0  0  0  0  0
    0.7328   -5.2053    2.4439 C   0  0  0  0  0  0  0  0  0  0  0  0
   -0.5470   -5.3577    2.9560 F   0  0  0  0  0  0  0  0  0  0  0  0
   -0.3908   -1.9672    0.1754 C   0  0  0  0  0  0  0  0  0  0  0  0
   -2.9315    3.3898   -0.5881 C   0  0  0  0  0  0  0  0  0  0  0  0
   -2.1841    4.6745   -0.1879 C   0  0  0  0  0  0  0  0  0  0  0  0
   -3.1428    5.8239    0.0303 C   0  0  0  0  0  0  0  0  0  0  0  0
   -4.5619    5.4166   -0.2741 C   0  0  0  0  0  0  0  0  0  0  0  0
   -4.9191    4.2536    0.5953 C   0  0  0  0  0  0  0  0  0  0  0  0
   -3.9491    3.0957    0.4950 C   0  0  0  0  0  0  0  0  0  0  0  0
    6.8450    4.3644   -2.5722 O   0  0  0  0  0  0  0  0  0  0  0  0
    7.5052    3.8216   -0.4406 O   0  0  0  0  0  0  0  0  0  0  0  0
    5.2780    2.6969   -0.1559 O   0  0  0  0  0  0  0  0  0  0  0  0
    7.4474    3.4211   -1.7777 C   0  0  0  0  0  0  0  0  0  0  0  0
    6.6989    2.1119   -1.9209 C   0  0  0  0  0  0  0  0  0  0  0  0
    5.2392    2.2811   -1.4937 C   0  0  1  0  0  0  0  0  0  0  0  0
    4.6004    0.9416   -1.6236 C   0  0  0  0  0  0  0  0  0  0  0  0
    3.1361    0.9184   -1.1270 C   0  0  1  0  0  0  0  0  0  0  0  0
    2.6949   -0.4763   -1.3066 C   0  0  0  0  0  0  0  0  0  0  0  0
    1.3742   -0.9648   -1.0384 C   0  0  0  0  0  0  0  0  0  0  0  0
    0.6638   -0.8987    0.2108 N   0  0  0  0  0  0  0  0  0  0  0  0
   -1.6981   -1.3344    0.2494 C   0  0  0  0  0  0  0  0  0  0  0  0
   -1.3811    0.0324   -0.2995 C   0  0  0  0  0  0  0  0  0  0  0  0
   -2.3953    1.0757   -0.1903 C   0  0  0  0  0  0  0  0  0  0  0  0
   -1.9374    2.3699   -0.7422 N   0  0  0  0  0  0  0  0  0  0  0  0
   -3.4441    0.7951   -1.1197 O   0  0  0  0  0  0  0  0  0  0  0  0
   -0.0659    0.3014    0.4322 C   0  0  0  0  0  0  0  0  0  0  0  0
   -0.2715    0.8358    1.7653 C   0  0  0  0  0  0  0  0  0  0  0  0
   -1.0068    0.1531    2.8392 C   0  0  0  0  0  0  0  0  0  0  0  0
    1.0563    1.2613    2.3881 C   0  0  0  0  0  0  0  0  0  0  0  0
    3.2533    1.1465    0.2660 O   0  0  0  0  0  0  0  0  0  0  0  0
   -2.5913   -2.2360   -1.9644 C   0  0  0  0  0  0  0  0  0  0  0  0
   -2.8050   -2.0335   -0.5168 C   0  0  0  0  0  0  0  0  0  0  0  0
   -3.3666   -3.2248    0.1983 C   0  0  0  0  0  0  0  0  0  0  0  0
   -3.0337   -4.5376   -0.4397 C   0  0  0  0  0  0  0  0  0  0  0  0
   -3.2268   -4.5695   -1.9174 C   0  0  0  0  0  0  0  0  0  0  0  0
   -3.7061   -3.2156   -2.3982 C   0  0  0  0  0  0  0  0  0  0  0  0
    0.8099   -5.4361    0.9622 C   0  0  0  0  0  0  0  0  0  0  0  0
    0.7896   -4.1885    0.1276 C   0  0  0  0  0  0  0  0  0  0  0  0
    0.0213   -3.1436    0.9579 C   0  0  0  0  0  0  0  0  0  0  0  0
    1.1340   -2.7691    1.9841 C   0  0  0  0  0  0  0  0  0  0  0  0
    1.3221   -3.9246    2.9038 C   0  0  0  0  0  0  0  0  0  0  0  0
    0.7328   -5.2053    2.4439 C   0  0  0  0  0  0  0  0  0  0  0  0
   -0.5470   -5.3577    2.9560 F   0  0  0  0  0  0  0  0  0  0  0  0
   -0.3908   -1.9672    0.1754 C   0  0  0  0  0  0  0  0  0  0  0  0
   -2.9315    3.3898   -0.5881 C   0  0  0  0  0  0  0  0  0  0  0  0
   -2.1841    4.6745   -0.1879 C   0  0  0  0  0  0  0  0  0  0  0  0
   -3.1428    5.8239    0.0303 C   0  0  0  0  0  0  0  0  0  0  0  0
   -4.5619    5.4166   -0.2741 C   0  0  0  0  0  0  0  0  0  0  0  0
   -4.9191    4.2536    0.5953 C   0  0  0  0  0  0  0  0  0  0  0  0
   -3.9491    3.0957    0.4950 C   0  0  0  0  0  0  0  0  0  0  0  0
    6.8450    4.3644   -2.5722 O   0  0  0  0  0  0  0  0  0  0  0  0
    7.5052    3.8216   -0.4406 O   0  0  0  0  0  0  0  0  0  0  0  0
    5.2780    2.6969   -0.1559 O   0  0  0  0  0  0  0  0  0  0  0  0
    7.4474    3.4211   -1.7777 C   0  0  0  0  0  0  0  0  0  0  0  0
    6.6989    2.1119   -1.9209 C   0  0  0  0  0  0  0  0  0  0  0  0
    5.2392    2.2811   -1.4937 C   0  0  1  0  0  0  0  0  0  0  0  0
    4.6004    0.9416   -1.6236 C   0  0  0  0  0  0  0  0  0  0  0  0
    3.1361    0.9184   -1.1270 C   0  0  1  0  0  0  0  0  0  0  0  0
    2.6949   -0.4763   -1.3066 C   0  0  0  0  0  0  0  0  0  0  0  0
    1.3742   -0.9648   -1.0384 C   0  0  0  0  0  0  0  0  0  0  0  0
    0.6638   -0.8987    0.2108 N   0  0  0  0  0  0  0  0  0  0  0  0
   -1.6981   -1.3344    0.2494 C   0  0  0  0  0  0  0  0  0  0  0  0
   -1.3811    0.0324   -0.2995 C   0  0  0  0  0  0  0  0  0  0  0  0
   -2.3953    1.0757   -0.1903 C   0  0  0  0  0  0  0  0  0  0  0  0
   -1.9374    2.3699   -0.7422 N   0  0  0  0  0  0  0  0  0  0  0  0
   -3.4441    0.7951   -1.1197 O   0  0  0  0  0  0  0  0  0  0  0  0
   -0.0659    0.3014    0.4322 C   0  0  0  0  0  0  0  0  0  0  0  0
   -0.2715    0.8358    1.7653 C   0  0  0  0  0  0  0  0  0  0  0  0
   -1.0068    0.1531    2.8392 C   0  0  0  0  0  0  0  0  0  0  0  0
    1.0563    1.2613    2.3881 C   0  0  0  0  0  0  0  0  0  0  0  0
    3.2533    1.1465    0.2660 O   0  0  0  0  0  0  0  0  0  0  0  0
   -2.5913   -2.2360   -1.9644 C   0  0  0  0  0  0  0  0  0  0  0  0
   -2.8050   -2.0335   -0.5168 C   0  0  0  0  0  0  0  0  0  0  0  0
   -3.3666   -3.2248    0.1983 C   0  0  0  0  0  0  0  0  0  0  0  0
   -3.0337   -4.5376   -0.4397 C   0  0  0  0  0  0  0  0  0  0  0  0
   -3.2268   -4.5695   -1.9174 C   0  0  0  0  0  0  0  0  0  0  0  0
   -3.7061   -3.2156   -2.3982 C   0  0  0  0  0  0  0  0  0  0  0  0
    0.8099   -5.4361    0.9622 C   0  0  0  0  0  0  0  0  0  0  0  0
    0.7896   -4.1885    0.1276 C   0  0  0  0  0  0  0  0  0  0  0  0
    0.0213   -3.1436    0.9579 C   0  0  0  0  0  0  0  0  0  0  0  0
    1.1340   -2.7691    1.9841 C   0  0  0  0  0  0  0  0  0  0  0  0
    1.3221   -3.9246    2.9038 C   0  0  0  0  0  0  0  0  0  0  0  0
    0.7328   -5.2053    2.4439 C   0  0  0  0  0  0  0  0  0  0  0  0
   -0.5470   -5.3577    2.9560 F   0  0  0  0  0  0  0  0  0  0  0  0
   -0.3908   -1.9672    0.1754 C   0  0  0  0  0  0  0  0  0  0  0  0
   -2.9315    3.3898   -0.5881 C   0  0  0  0  0  0  0  0  0  0  0  0
   -2.1841    4.6745   -0.1879 C   0  0  0  0  0  0  0  0  0  0  0  0
   -3.1428    5.8239    0.0303 C   0  0  0  0  0  0  0  0  0  0  0  0
   -4.5619    5.4166   -0.2741 C   0  0  0  0  0  0  0  0  0  0  0  0
   -4.9191    4.2536    0.5953 C   0  0  0  0  0  0  0  0  0  0  0  0
   -3.9491    3.0957    0.4950 C   0  0  0  0  0  0  0  0  0  0  0  0
    6.8450    4.3644   -2.5722 O   0  0  0  0  0  0  0  0  0  0  0  0
    7.5052    3.8216   -0.4406 O   0  0  0  0  0  0  0  0  0  0  0  0
    5.2780    2.6969   -0.1559 O   0  0  0  0  0  0  0  0  0  0  0  0
    7.4474    3.4211   -1.7777 C   0  0  0  0  0  0  0  0  0  0  0  0
    6.6989    2.1119   -1.9209 C   0  0  0  0  0  0  0  0  0  0  0  0
    5.2392    2.2811   -1.4937 C   0  0  1  0  0  0  0  0  0  0  0  0
    4.6004    0.9416   -1.6236 C   0  0  0  0  0  0  0  0  0  0  0  0
    3.1361    0.9184   -1.1270 C   0  0  1  0  0  0  0  0  0  0  0  0
    2.6949   -0.4763   -1.3066 C   0  0  0  0  0  0  0  0  0  0  0  0
    1.3742   -0.9648   -1.0384 C   0  0  0  0  0  0  0  0  0  0  0  0
    0.6638   -0.8987    0.2108 N   0  0  0  0  0  0  0  0  0  0  0  0
   -1.6981   -1.3344    0.2494 C   0  0  0  0  0  0  0  0  0  0  0  0
   -1.3811    0.0324   -0.2995 C   0  0  0  0  0  0  0  0  0  0  0  0
   -2.3953    1.0757   -0.1903 C   0  0  0  0  0  0  0  0  0  0  0  0
   -1.9374    2.3699   -0.7422 N   0  0  0  0  0  0  0  0  0  0  0  0
   -3.4441    0.7951   -1.1197 O   0  0  0  0  0  0  0  0  0  0  0  0
   -0.0659    0.3014    0.4322 C   0  0  0  0  0  0  0  0  0  0  0  0
   -0.2715    0.8358    1.7653 C   0  0  0  0  0  0  0  0  0  0  0  0
   -1.0068    0.1531    2.8392 C   0  0  0  0  0  0  0  0  0  0  0  0
    1.0563    1.2613    2.3881 C   0  0  0  0  0  0  0  0  0  0  0  0
    3.2533    1.1465    0.2660 O   0  0  0  0  0  0  0  0  0  0  0  0
   -2.5913   -2.2360   -1.9644 C   0  0  0  0  0  0  0  0  0  0  0  0
   -2.8050   -2.0335   -0.5168 C   0  0  0  0  0  0  0  0  0  0  0  0
   -3.3666   -3.2248    0.1983 C   0  0  0  0  0  0  0  0  0  0  0  0
   -3.0337   -4.5376   -0.4397 C   0  0  0  0  0  0  0  0  0  0  0  0
   -3.2268   -4.5695   -1.9174 C   0  0  0  0  0  0  0  0  0  0  0  0
   -3.7061   -3.2156   -2.3982 C   0  0  0  0  0  0  0  0  0  0  0  0
    0.8099   -5.4361    0.9622 C   0  0  0  0  0  0  0  0  0  0  0  0
    0.7896   -4.1885    0.1276 C   0  0  0  0  0  0  0  0  0  0  0  0
    0.0213   -3.1436    0.9579 C   0  0  0  0  0  0  0  0  0  0  0  0
    1.1340   -2.7691    1.9841 C   0  0  0  0  0  0  0  0  0  0  0  0
    1.3221   -3.9246    2.9038 C   0  0  0  0  0  0  0  0  0  0  0  0
    0.7328   -5.2053    2.4439 C   0  0  0  0  0  0  0  0  0  0  0  0
   -0.5470   -5.3577    2.9560 F   0  0  0  0  0  0  0  0  0  0  0  0
   -0.3908   -1.9672    0.1754 C   0  0  0  0  0  0  0  0  0  0  0  0
   -2.9315    3.3898   -0.5881 C   0  0  0  0  0  0  0  0  0  0  0  0
   -2.1841    4.6745   -0.1879 C   0  0  0  0  0  0  0  0  0  0  0  0
   -3.1428    5.8239    0.0303 C   0  0  0  0  0  0  0  0  0  0  0  0
   -4.5619    5.4166   -0.2741 C   0  0  0  0  0  0  0  0  0  0  0  0
   -4.9191    4.2536    0.5953 C   0  0  0  0  0  0  0  0  0  0  0  0
   -3.9491    3.0957    0.4950 C   0  0  0  0  0  0  0  0  0  0  0  0
    6.8450    4.3644   -2.5722 O   0  0  0  0  0  0  0  0  0  0  0  0
    7.5052    3.8216   -0.4406 O   0  0  0  0  0  0  0  0  0  0  0  0
    5.2780    2.6969   -0.1559 O   0  0  0  0  0  0  0  0  0  0  0  0
    7.4474    3.4211   -1.7777 C   0  0  0  0  0  0  0  0  0  0  0  0
    6.6989    2.1119   -1.9209 C   0  0  0  0  0  0  0  0  0  0  0  0
    5.2392    2.2811   -1.4937 C   0  0  1  0  0  0  0  0  0  0  0  0
    4.6004    0.9416   -1.6236 C   0  0  0  0  0  0  0  0  0  0  0  0
    3.1361    0.9184   -1.1270 C   0  0  1  0  0  0  0  0  0  0  0  0
    2.6949   -0.4763   -1.3066 C   0  0  0  0  0  0  0  0  0  0  0  0
    1.3742   -0.9648   -1.0384 C   0  0  0  0  0  0  0  0  0  0  0  0
    0.6638   -0.8987    0.2108 N   0  0  0  0  0  0  0  0  0  0  0  0
   -1.6981   -1.3344    0.2494 C   0  0  0  0  0  0  0  0  0  0  0  0
   -1.3811    0.0324   -0.2995 C   0  0  0  0  0  0  0  0  0  0  0  0
   -2.3953    1.0757   -0.1903 C   0  0  0  0  0  0  0  0  0  0  0  0
   -1.9374    2.3699   -0.7422 N   0  0  0  0  0  0  0  0  0  0  0  0
   -3.4441    0.7951   -1.1197 O   0  0  0  0  0  0  0  0  0  0  0  0
   -0.0659    0.3014    0.4322 C   0  0  0  0  0  0  0  0  0  0  0  0
   -0.2715    0.8358    1.7653 C   0  0  0  0  0  0  0  0  0  0  0  0
   -1.0068    0.1531    2.8392 C   0  0  0  0  0  0  0  0  0  0  0  0
    1.0563    1.2613    2.3881 C   0  0  0  0  0  0  0  0  0  0  0  0
    3.2533    1.1465    0.2660 O   0  0  0  0  0  0  0  0  0  0  0  0
   -2.7335   -1.3486   -2.6121 H   0  0  0  0  0  0  0  0  0  0  0  0
   -1.6708   -2.7662   -2.2663 H   0  0  0  0  0  0  0  0  0  0  0  0
   -3.6608   -1.2868   -0.4527 H   0  0  0  0  0  0  0  0  0  0  0  0
   -3.0411   -3.2122    1.2489 H   0  0  0  0  0  0  0  0  0  0  0  0
   -4.5002   -3.1972    0.2767 H   0  0  0  0  0  0  0  0  0  0  0  0
   -3.7350   -5.2997   -0.0017 H   0  0  0  0  0  0  0  0  0  0  0  0
   -2.0314   -4.8895   -0.1207 H   0  0  0  0  0  0  0  0  0  0  0  0
   -2.2183   -4.7297   -2.3876 H   0  0  0  0  0  0  0  0  0  0  0  0
   -3.9189   -5.3831   -2.2426 H   0  0  0  0  0  0  0  0  0  0  0  0
   -4.6375   -2.9503   -1.8605 H   0  0  0  0  0  0  0  0  0  0  0  0
   -3.8595   -3.1840   -3.4971 H   0  0  0  0  0  0  0  0  0  0  0  0
   -0.0932   -6.0344    0.6908 H   0  0  0  0  0  0  0  0  0  0  0  0
    1.6813   -6.0530    0.6703 H   0  0  0  0  0  0  0  0  0  0  0  0
    0.3982   -4.3133   -0.8768 H   0  0  0  0  0  0  0  0  0  0  0  0
    1.8270   -3.8269    0.0409 H   0  0  0  0  0  0  0  0  0  0  0  0
   -0.7693   -3.5869    1.5186 H   0  0  0  0  0  0  0  0  0  0  0  0
    1.0229   -1.7954    2.4096 H   0  0  0  0  0  0  0  0  0  0  0  0
    2.0793   -2.7696    1.3342 H   0  0  0  0  0  0  0  0  0  0  0  0
    2.4201   -4.0800    3.1385 H   0  0  0  0  0  0  0  0  0  0  0  0
    0.8870   -3.6569    3.9027 H   0  0  0  0  0  0  0  0  0  0  0  0
    1.3392   -6.0356    2.9171 H   0  0  0  0  0  0  0  0  0  0  0  0
   -0.2397   -2.3488   -0.9367 H   0  0  0  0  0  0  0  0  0  0  0  0
   -3.4752    3.5370   -1.5466 H   0  0  0  0  0  0  0  0  0  0  0  0
   -1.5922    4.4252    0.7049 H   0  0  0  0  0  0  0  0  0  0  0  0
   -1.4875    4.8793   -1.0253 H   0  0  0  0  0  0  0  0  0  0  0  0
   -3.0917    6.0783    1.1217 H   0  0  0  0  0  0  0  0  0  0  0  0
   -2.7926    6.6832   -0.5511 H   0  0  0  0  0  0  0  0  0  0  0  0
   -5.2111    6.2627    0.0193 H   0  0  0  0  0  0  0  0  0  0  0  0
   -4.6429    5.1944   -1.3512 H   0  0  0  0  0  0  0  0  0  0  0  0
   -5.9615    3.9485    0.2811 H   0  0  0  0  0  0  0  0  0  0  0  0
   -5.0243    4.6130    1.6379 H   0  0  0  0  0  0  0  0  0  0  0  0
   -3.4681    3.0017    1.4853 H   0  0  0  0  0  0  0  0  0  0  0  0
   -4.5431    2.2131    0.2804 H   0  0  0  0  0  0  0  0  0  0  0  0
    6.7661    5.2052   -2.0443 H   0  0  0  0  0  0  0  0  0  0  0  0
    7.3758    4.8193   -0.4368 H   0  0  0  0  0  0  0  0  0  0  0  0
    5.6253    1.9466    0.4155 H   0  0  0  0  0  0  0  0  0  0  0  0
    8.4746    3.2173   -2.1703 H   0  0  0  0  0  0  0  0  0  0  0  0
    6.7819    1.8066   -2.9797 H   0  0  0  0  0  0  0  0  0  0  0  0
    7.2007    1.3277   -1.2904 H   0  0  0  0  0  0  0  0  0  0  0  0
    4.7962    3.0550   -2.1232 H   0  0  0  0  0  0  0  0  0  0  0  0
    4.5878    0.6688   -2.7084 H   0  0  0  0  0  0  0  0  0  0  0  0
    5.1889    0.1854   -1.0748 H   0  0  0  0  0  0  0  0  0  0  0  0
    2.5403    1.7087   -1.5723 H   0  0  0  0  0  0  0  0  0  0  0  0
    3.5293   -1.1221   -0.8606 H   0  0  0  0  0  0  0  0  0  0  0  0
    2.8940   -0.6988   -2.4323 H   0  0  0  0  0  0  0  0  0  0  0  0
    1.2550   -2.0587   -1.4140 H   0  0  0  0  0  0  0  0  0  0  0  0
    0.6703   -0.4423   -1.7995 H   0  0  0  0  0  0  0  0  0  0  0  0
   -2.0875   -1.3443    1.2824 H   0  0  0  0  0  0  0  0  0  0  0  0
   -1.1361   -0.1012   -1.3661 H   0  0  0  0  0  0  0  0  0  0  0  0
   -2.8744    1.2018    0.7723 H   0  0  0  0  0  0  0  0  0  0  0  0
   -1.7560    2.2333   -1.7550 H   0  0  0  0  0  0  0  0  0  0  0  0
   -3.2538    1.1166   -2.0110 H   0  0  0  0  0  0  0  0  0  0  0  0
    0.4145    1.1184   -0.1768 H   0  0  0  0  0  0  0  0  0  0  0  0
   -0.7897    1.8655    1.6954 H   0  0  0  0  0  0  0  0  0  0  0  0
   -0.7232    0.7383    3.7985 H   0  0  0  0  0  0  0  0  0  0  0  0
   -0.8074   -0.8590    3.1176 H   0  0  0  0  0  0  0  0  0  0  0  0
   -2.1249    0.3940    2.8376 H   0  0  0  0  0  0  0  0  0  0  0  0
    1.3765    2.2136    1.9568 H   0  0  0  0  0  0  0  0  0  0  0  0
    1.7559    0.4344    2.3731 H   0  0  0  0  0  0  0  0  0  0  0  0
    0.8527    1.4834    3.4719 H   0  0  0  0  0  0  0  0  0  0  0  0
    3.1649    2.0994    0.4639 H   0  0  0  0  0  0  0  0  0  0  0  0
   -2.7335   -1.3486   -2.6121 H   0  0  0  0  0  0  0  0  0  0  0  0
   -1.6708   -2.7662   -2.2663 H   0  0  0  0  0  0  0  0  0  0  0  0
   -3.6608   -1.2868   -0.4527 H   0  0  0  0  0  0  0  0  0  0  0  0
   -3.0411   -3.2122    1.2489 H   0  0  0  0  0  0  0  0  0  0  0  0
   -4.5002   -3.1972    0.2767 H   0  0  0  0  0  0  0  0  0  0  0  0
   -3.7350   -5.2997   -0.0017 H   0  0  0  0  0  0  0  0  0  0  0  0
   -2.0314   -4.8895   -0.1207 H   0  0  0  0  0  0  0  0  0  0  0  0
   -2.2183   -4.7297   -2.3876 H   0  0  0  0  0  0  0  0  0  0  0  0
   -3.9189   -5.3831   -2.2426 H   0  0  0  0  0  0  0  0  0  0  0  0
   -4.6375   -2.9503   -1.8605 H   0  0  0  0  0  0  0  0  0  0  0  0
   -3.8595   -3.1840   -3.4971 H   0  0  0  0  0  0  0  0  0  0  0  0
   -0.0932   -6.0344    0.6908 H   0  0  0  0  0  0  0  0  0  0  0  0
    1.6813   -6.0530    0.6703 H   0  0  0  0  0  0  0  0  0  0  0  0
    0.3982   -4.3133   -0.8768 H   0  0  0  0  0  0  0  0  0  0  0  0
    1.8270   -3.8269    0.0409 H   0  0  0  0  0  0  0  0  0  0  0  0
   -0.7693   -3.5869    1.5186 H   0  0  0  0  0  0  0  0  0  0  0  0
    1.0229   -1.7954    2.4096 H   0  0  0  0  0  0  0  0  0  0  0  0
    2.0793   -2.7696    1.3342 H   0  0  0  0  0  0  0  0  0  0  0  0
    2.4201   -4.0800    3.1385 H   0  0  0  0  0  0  0  0  0  0  0  0
    0.8870   -3.6569    3.9027 H   0  0  0  0  0  0  0  0  0  0  0  0
    1.3392   -6.0356    2.9171 H   0  0  0  0  0  0  0  0  0  0  0  0
   -0.2397   -2.3488   -0.9367 H   0  0  0  0  0  0  0  0  0  0  0  0
   -3.4752    3.5370   -1.5466 H   0  0  0  0  0  0  0  0  0  0  0  0
   -1.5922    4.4252    0.7049 H   0  0  0  0  0  0  0  0  0  0  0  0
   -1.4875    4.8793   -1.0253 H   0  0  0  0  0  0  0  0  0  0  0  0
   -3.0917    6.0783    1.1217 H   0  0  0  0  0  0  0  0  0  0  0  0
   -2.7926    6.6832   -0.5511 H   0  0  0  0  0  0  0  0  0  0  0  0
   -5.2111    6.2627    0.0193 H   0  0  0  0  0  0  0  0  0  0  0  0
   -4.6429    5.1944   -1.3512 H   0  0  0  0  0  0  0  0  0  0  0  0
   -5.9615    3.9485    0.2811 H   0  0  0  0  0  0  0  0  0  0  0  0
   -5.0243    4.6130    1.6379 H   0  0  0  0  0  0  0  0  0  0  0  0
   -3.4681    3.0017    1.4853 H   0  0  0  0  0  0  0  0  0  0  0  0
   -4.5431    2.2131    0.2804 H   0  0  0  0  0  0  0  0  0  0  0  0
    6.7661    5.2052   -2.0443 H   0  0  0  0  0  0  0  0  0  0  0  0
    7.3758    4.8193   -0.4368 H   0  0  0  0  0  0  0  0  0  0  0  0
    5.6253    1.9466    0.4155 H   0  0  0  0  0  0  0  0  0  0  0  0
    8.4746    3.2173   -2.1703 H   0  0  0  0  0  0  0  0  0  0  0  0
    6.7819    1.8066   -2.9797 H   0  0  0  0  0  0  0  0  0  0  0  0
    7.2007    1.3277   -1.2904 H   0  0  0  0  0  0  0  0  0  0  0  0
    4.7962    3.0550   -2.1232 H   0  0  0  0  0  0  0  0  0  0  0  0
    4.5878    0.6688   -2.7084 H   0  0  0  0  0  0  0  0  0  0  0  0
    5.1889    0.1854   -1.0748 H   0  0  0  0  0  0  0  0  0  0  0  0
    2.5403    1.7087   -1.5723 H   0  0  0  0  0  0  0  0  0  0  0  0
    3.5293   -1.1221   -0.8606 H   0  0  0  0  0  0  0  0  0  0  0  0
    2.8940   -0.6988   -2.4323 H   0  0  0  0  0  0  0  0  0  0  0  0
    1.2550   -2.0587   -1.4140 H   0  0  0  0  0  0  0  0  0  0  0  0
    0.6703   -0.4423   -1.7995 H   0  0  0  0  0  0  0  0  0  0  0  0
   -2.0875   -1.3443    1.2824 H   0  0  0  0  0  0  0  0  0  0  0  0
   -1.1361   -0.1012   -1.3661 H   0  0  0  0  0  0  0  0  0  0  0  0
   -2.8744    1.2018    0.7723 H   0  0  0  0  0  0  0  0  0  0  0  0
   -1.7560    2.2333   -1.7550 H   0  0  0  0  0  0  0  0  0  0  0  0
   -3.2538    1.1166   -2.0110 H   0  0  0  0  0  0  0  0  0  0  0  0
    0.4145    1.1184   -0.1768 H   0  0  0  0  0  0  0  0  0  0  0  0
   -0.7897    1.8655    1.6954 H   0  0  0  0  0  0  0  0  0  0  0  0
   -0.7232    0.7383    3.7985 H   0  0  0  0  0  0  0  0  0  0  0  0
   -0.8074   -0.8590    3.1176 H   0  0  0  0  0  0  0  0  0  0  0  0
   -2.1249    0.3940    2.8376 H   0  0  0  0  0  0  0  0  0  0  0  0
    1.3765    2.2136    1.9568 H   0  0  0  0  0  0  0  0  0  0  0  0
    1.7559    0.4344    2.3731 H   0  0  0  0  0  0  0  0  0  0  0  0
    0.8527    1.4834    3.4719 H   0  0  0  0  0  0  0  0  0  0  0  0
    3.1649    2.0994    0.4639 H   0  0  0  0  0  0  0  0  0  0  0  0
   -2.7335   -1.3486   -2.6121 H   0  0  0  0  0  0  0  0  0  0  0  0
   -1.6708   -2.7662   -2.2663 H   0  0  0  0  0  0  0  0  0  0  0  0
   -3.6608   -1.2868   -0.4527 H   0  0  0  0  0  0  0  0  0  0  0  0
   -3.0411   -3.2122    1.2489 H   0  0  0  0  0  0  0  0  0  0  0  0
   -4.5002   -3.1972    0.2767 H   0  0  0  0  0  0  0  0  0  0  0  0
   -3.7350   -5.2997   -0.0017 H   0  0  0  0  0  0  0  0  0  0  0  0
   -2.0314   -4.8895   -0.1207 H   0  0  0  0  0  0  0  0  0  0  0  0
   -2.2183   -4.7297   -2.3876 H   0  0  0  0  0  0  0  0  0  0  0  0
   -3.9189   -5.3831   -2.2426 H   0  0  0  0  0  0  0  0  0  0  0  0
   -4.6375   -2.9503   -1.8605 H   0  0  0  0  0  0  0  0  0  0  0  0
   -3.8595   -3.1840   -3.4971 H   0  0  0  0  0  0  0  0  0  0  0  0
   -0.0932   -6.0344    0.6908 H   0  0  0  0  0  0  0  0  0  0  0  0
    1.6813   -6.0530    0.6703 H   0  0  0  0  0  0  0  0  0  0  0  0
    0.3982   -4.3133   -0.8768 H   0  0  0  0  0  0  0  0  0  0  0  0
    1.8270   -3.8269    0.0409 H   0  0  0  0  0  0  0  0  0  0  0  0
   -0.7693   -3.5869    1.5186 H   0  0  0  0  0  0  0  0  0  0  0  0
    1.0229   -1.7954    2.4096 H   0  0  0  0  0  0  0  0  0  0  0  0
    2.0793   -2.7696    1.3342 H   0  0  0  0  0  0  0  0  0  0  0  0
    2.4201   -4.0800    3.1385 H   0  0  0  0  0  0  0  0  0  0  0  0
    0.8870   -3.6569    3.9027 H   0  0  0  0  0  0  0  0  0  0  0  0
    1.3392   -6.0356    2.9171 H   0  0  0  0  0  0  0  0  0  0  0  0
   -0.2397   -2.3488   -0.9367 H   0  0  0  0  0  0  0  0  0  0  0  0
   -3.4752    3.5370   -1.5466 H   0  0  0  0  0  0  0  0  0  0  0  0
   -1.5922    4.4252    0.7049 H   0  0  0  0  0  0  0  0  0  0  0  0
   -1.4875    4.8793   -1.0253 H   0  0  0  0  0  0  0  0  0  0  0  0
   -3.0917    6.0783    1.1217 H   0  0  0  0  0  0  0  0  0  0  0  0
   -2.7926    6.6832   -0.5511 H   0  0  0  0  0  0  0  0  0  0  0  0
   -5.2111    6.2627    0.0193 H   0  0  0  0  0  0  0  0  0  0  0  0
   -4.6429    5.1944   -1.3512 H   0  0  0  0  0  0  0  0  0  0  0  0
   -5.9615    3.9485    0.2811 H   0  0  0  0  0  0  0  0  0  0  0  0
   -5.0243    4.6130    1.6379 H   0  0  0  0  0  0  0  0  0  0  0  0
   -3.4681    3.0017    1.4853 H   0  0  0  0  0  0  0  0  0  0  0  0
   -4.5431    2.2131    0.2804 H   0  0  0  0  0  0  0  0  0  0  0  0
    6.7661    5.2052   -2.0443 H   0  0  0  0  0  0  0  0  0  0  0  0
    7.3758    4.8193   -0.4368 H   0  0  0  0  0  0  0  0  0  0  0  0
    5.6253    1.9466    0.4155 H   0  0  0  0  0  0  0  0  0  0  0  0
    8.4746    3.2173   -2.1703 H   0  0  0  0  0  0  0  0  0  0  0  0
    6.7819    1.8066   -2.9797 H   0  0  0  0  0  0  0  0  0  0  0  0
    7.2007    1.3277   -1.2904 H   0  0  0  0  0  0  0  0  0  0  0  0
    4.7962    3.0550   -2.1232 H   0  0  0  0  0  0  0  0  0  0  0  0
    4.5878    0.6688   -2.7084 H   0  0  0  0  0  0  0  0  0  0  0  0
    5.1889    0.1854   -1.0748 H   0  0  0  0  0  0  0  0  0  0  0  0
    2.5403    1.7087   -1.5723 H   0  0  0  0  0  0  0  0  0  0  0  0
    3.5293   -1.1221   -0.8606 H   0  0  0  0  0  0  0  0  0  0  0  0
    2.8940   -0.6988   -2.4323 H   0  0  0  0  0  0  0  0  0  0  0  0
    1.2550   -2.0587   -1.4140 H   0  0  0  0  0  0  0  0  0  0  0  0
    0.6703   -0.4423   -1.7995 H   0  0  0  0  0  0  0  0  0  0  0  0
   -2.0875   -1.3443    1.2824 H   0  0  0  0  0  0  0  0  0  0  0  0
   -1.1361   -0.1012   -1.3661 H   0  0  0  0  0  0  0  0  0  0  0  0
   -2.8744    1.2018    0.7723 H   0  0  0  0  0  0  0  0  0  0  0  0
   -1.7560    2.2333   -1.7550 H   0  0  0  0  0  0  0  0  0  0  0  0
   -3.2538    1.1166   -2.0110 H   0  0  0  0  0  0  0  0  0  0  0  0
    0.4145    1.1184   -0.1768 H   0  0  0  0  0  0  0  0  0  0  0  0
   -0.7897    1.8655    1.6954 H   0  0  0  0  0  0  0  0  0  0  0  0
   -0.7232    0.7383    3.7985 H   0  0  0  0  0  0  0  0  0  0  0  0
   -0.8074   -0.8590    3.1176 H   0  0  0  0  0  0  0  0  0  0  0  0
   -2.1249    0.3940    2.8376 H   0  0  0  0  0  0  0  0  0  0  0  0
    1.3765    2.2136    1.9568 H   0  0  0  0  0  0  0  0  0  0  0  0
    1.7559    0.4344    2.3731 H   0  0  0  0  0  0  0  0  0  0  0  0
    0.8527    1.4834    3.4719 H   0  0  0  0  0  0  0  0  0  0  0  0
    3.1649    2.0994    0.4639 H   0  0  0  0  0  0  0  0  0  0  0  0
   -2.7335   -1.3486   -2.6121 H   0  0  0  0  0  0  0  0  0  0  0  0
   -1.6708   -2.7662   -2.2663 H   0  0  0  0  0  0  0  0  0  0  0  0
   -3.6608   -1.2868   -0.4527 H   0  0  0  0  0  0  0  0  0  0  0  0
   -3.0411   -3.2122    1.2489 H   0  0  0  0  0  0  0  0  0  0  0  0
   -4.5002   -3.1972    0.2767 H   0  0  0  0  0  0  0  0  0  0  0  0
   -3.7350   -5.2997   -0.0017 H   0  0  0  0  0  0  0  0  0  0  0  0
   -2.0314   -4.8895   -0.1207 H   0  0  0  0  0  0  0  0  0  0  0  0
   -2.2183   -4.7297   -2.3876 H   0  0  0  0  0  0  0  0  0  0  0  0
   -3.9189   -5.3831   -2.2426 H   0  0  0  0  0  0  0  0  0  0  0  0
   -4.6375   -2.9503   -1.8605 H   0  0  0  0  0  0  0  0  0  0  0  0
   -3.8595   -3.1840   -3.4971 H   0  0  0  0  0  0  0  0  0  0  0  0
   -0.0932   -6.0344    0.6908 H   0  0  0  0  0  0  0  0  0  0  0  0
    1.6813   -6.0530    0.6703 H   0  0  0  0  0  0  0  0  0  0  0  0
    0.3982   -4.3133   -0.8768 H   0  0  0  0  0  0  0  0  0  0  0  0
    1.8270   -3.8269    0.0409 H   0  0  0  0  0  0  0  0  0  0  0  0
   -0.7693   -3.5869    1.5186 H   0  0  0  0  0  0  0  0  0  0  0  0
    1.0229   -1.7954    2.4096 H   0  0  0  0  0  0  0  0  0  0  0  0
    2.0793   -2.7696    1.3342 H   0  0  0  0  0  0  0  0  0  0  0  0
    2.4201   -4.0800    3.1385 H   0  0  0  0  0  0  0  0  0  0  0  0
    0.8870   -3.6569    3.9027 H   0  0  0  0  0  0  0  0  0  0  0  0
    1.3392   -6.0356    2.9171 H   0  0  0  0  0  0  0  0  0  0  0  0
   -0.2397   -2.3488   -0.9367 H   0  0  0  0  0  0  0  0  0  0  0  0
   -3.4752    3.5370   -1.5466 H   0  0  0  0  0  0  0  0  0  0  0  0
   -1.5922    4.4252    0.7049 H   0  0  0  0  0  0  0  0  0  0  0  0
   -1.4875    4.8793   -1.0253 H   0  0  0  0  0  0  0  0  0  0  0  0
   -3.0917    6.0783    1.1217 H   0  0  0  0  0  0  0  0  0  0  0  0
   -2.7926    6.6832   -0.5511 H   0  0  0  0  0  0  0  0  0  0  0  0
   -5.2111    6.2627    0.0193 H   0  0  0  0  0  0  0  0  0  0  0  0
   -4.6429    5.1944   -1.3512 H   0  0  0  0  0  0  0  0  0  0  0  0
   -5.9615    3.9485    0.2811 H   0  0  0  0  0  0  0  0  0  0  0  0
   -5.0243    4.6130    1.6379 H   0  0  0  0  0  0  0  0  0  0  0  0
   -3.4681    3.0017    1.4853 H   0  0  0  0  0  0  0  0  0  0  0  0
   -4.5431    2.2131    0.2804 H   0  0  0  0  0  0  0  0  0  0  0  0
    6.7661    5.2052   -2.0443 H   0  0  0  0  0  0  0  0  0  0  0  0
    7.3758    4.8193   -0.4368 H   0  0  0  0  0  0  0  0  0  0  0  0
    5.6253    1.9466    0.4155 H   0  0  0  0  0  0  0  0  0  0  0  0
    8.4746    3.2173   -2.1703 H   0  0  0  0  0  0  0  0  0  0  0  0
    6.7819    1.8066   -2.9797 H   0  0  0  0  0  0  0  0  0  0  0  0
    7.2007    1.3277   -1.2904 H   0  0  0  0  0  0  0  0  0  0  0  0
    4.7962    3.0550   -2.1232 H   0  0  0  0  0  0  0  0  0  0  0  0
    4.5878    0.6688   -2.7084 H   0  0  0  0  0  0  0  0  0  0  0  0
    5.1889    0.1854   -1.0748 H   0  0  0  0  0  0  0  0  0  0  0  0
    2.5403    1.7087   -1.5723 H   0  0  0  0  0  0  0  0  0  0  0  0
    3.5293   -1.1221   -0.8606 H   0  0  0  0  0  0  0  0  0  0  0  0
    2.8940   -0.6988   -2.4323 H   0  0  0  0  0  0  0  0  0  0  0  0
    1.2550   -2.0587   -1.4140 H   0  0  0  0  0  0  0  0  0  0  0  0
    0.6703   -0.4423   -1.7995 H   0  0  0  0  0  0  0  0  0  0  0  0
   -2.0875   -1.3443    1.2824 H   0  0  0  0  0  0  0  0  0  0  0  0
   -1.1361   -0.1012   -1.3661 H   0  0  0  0  0  0  0  0  0  0  0  0
   -2.8744    1.2018    0.7723 H   0  0  0  0  0  0  0  0  0  0  0  0
   -1.7560    2.2333   -1.7550 H   0  0  0  0  0  0  0  0  0  0  0  0
   -3.2538    1.1166   -2.0110 H   0  0  0  0  0  0  0  0  0  0  0  0
    0.4145    1.1184   -0.1768 H   0  0  0  0  0  0  0  0  0  0  0  0
   -0.7897    1.8655    1.6954 H   0  0  0  0  0  0  0  0  0  0  0  0
   -0.7232    0.7383    3.7985 H   0  0  0  0  0  0  0  0  0  0  0  0
   -0.8074   -0.8590    3.1176 H   0  0  0  0  0  0  0  0  0  0  0  0
   -2.1249    0.3940    2.8376 H   0  0  0  0  0  0  0  0  0  0  0  0
    1.3765    2.2136    1.9568 H   0  0  0  0  0  0  0  0  0  0  0  0
    1.7559    0.4344    2.3731 H   0  0  0  0  0  0  0  0  0  0  0  0
    0.8527    1.4834    3.4719 H   0  0  0  0  0  0  0  0  0  0  0  0
    3.1649    2.0994    0.4639 H   0  0  0  0  0  0  0  0  0  0  0  0
  1  2  1  0
  2  3  1  0
  3  4  1  0
  4  5  1  0
  1  6  1  0
  5  6  1  0
  7  8  1  0
  8  9  1  0
  9 10  1  0
 10 11  1  0
  7 12  1  0
 11 12  1  0
 12 13  1  0
  9 14  1  0
 15 16  1  0
 16 17  1  0
 17 18  1  0
 18 19  1  0
 15 20  1  0
 19 20  1  0
 21 24  1  0
 22 24  1  0
 24 25  1  0
 23 26  1  0
 25 26  1  0
 26 27  1  0
 27 28  1  0
 28 29  1  0
 29 30  1  0
 14 31  1  0
 30 31  1  0
  2 32  1  0
 14 32  1  0
 32 33  1  0
 33 34  1  0
 15 35  1  0
 34 35  1  0
 34 36  1  0
 31 37  1  0
 33 37  1  0
 37 38  1  0
 38 39  1  0
 38 40  1  0
 28 41  1  0
 42 43  1  0
 43 44  1  0
 44 45  1  0
 45 46  1  0
 42 47  1  0
 46 47  1  0
 48 49  1  0
 49 50  1  0
 50 51  1  0
 51 52  1  0
 48 53  1  0
 52 53  1  0
 53 54  1  0
 50 55  1  0
 56 57  1  0
 57 58  1  0
 58 59  1  0
 59 60  1  0
 56 61  1  0
 60 61  1  0
 62 65  1  0
 63 65  1  0
 65 66  1  0
 64 67  1  0
 66 67  1  0
 67 68  1  0
 68 69  1  0
 69 70  1  0
 70 71  1  0
 55 72  1  0
 71 72  1  0
 43 73  1  0
 55 73  1  0
 73 74  1  0
 74 75  1  0
 56 76  1  0
 75 76  1  0
 75 77  1  0
 72 78  1  0
 74 78  1  0
 78 79  1  0
 79 80  1  0
 79 81  1  0
 69 82  1  0
 83 84  1  0
 84 85  1  0
 85 86  1  0
 86 87  1  0
 83 88  1  0
 87 88  1  0
 89 90  1  0
 90 91  1  0
 91 92  1  0
 92 93  1  0
 89 94  1  0
 93 94  1  0
 94 95  1  0
 91 96  1  0
 97 98  1  0
 98 99  1  0
 99100  1  0
100101  1  0
 97102  1  0
101102  1  0
103106  1  0
104106  1  0
106107  1  0
105108  1  0
107108  1  0
108109  1  0
109110  1  0
110111  1  0
111112  1  0
 96113  1  0
112113  1  0
 84114  1  0
 96114  1  0
114115  1  0
115116  1  0
 97117  1  0
116117  1  0
116118  1  0
113119  1  0
115119  1  0
119120  1  0
120121  1  0
120122  1  0
110123  1  0
124125  1  0
125126  1  0
126127  1  0
127128  1  0
124129  1  0
128129  1  0
130131  1  0
131132  1  0
132133  1  0
133134  1  0
130135  1  0
134135  1  0
135136  1  0
132137  1  0
138139  1  0
139140  1  0
140141  1  0
141142  1  0
138143  1  0
142143  1  0
144147  1  0
145147  1  0
147148  1  0
146149  1  0
148149  1  0
149150  1  0
150151  1  0
151152  1  0
152153  1  0
137154  1  0
153154  1  0
125155  1  0
137155  1  0
155156  1  0
156157  1  0
138158  1  0
157158  1  0
157159  1  0
154160  1  0
156160  1  0
160161  1  0
161162  1  0
161163  1  0
151164  1  0
  1165  1  0
  1166  1  0
  2167  1  0
  3168  1  0
  3169  1  0
  4170  1  0
  4171  1  0
  5172  1  0
  5173  1  0
  6174  1  0
  6175  1  0
  7176  1  0
  7177  1  0
  8178  1  0
  8179  1  0
  9180  1  0
 10181  1  0
 10182  1  0
 11183  1  0
 11184  1  0
 12185  1  0
 14186  1  0
 15187  1  0
 16188  1  0
 16189  1  0
 17190  1  0
 17191  1  0
 18192  1  0
 18193  1  0
 19194  1  0
 19195  1  0
 20196  1  0
 20197  1  0
 21198  1  0
 22199  1  0
 23200  1  0
 24201  1  0
 25202  1  0
 25203  1  0
 26204  1  6
 27205  1  0
 27206  1  0
 28207  1  6
 29208  1  0
 29209  1  0
 30210  1  0
 30211  1  0
 32212  1  0
 33213  1  0
 34214  1  0
 35215  1  0
 36216  1  0
 37217  1  0
 38218  1  0
 39219  1  0
 39220  1  0
 39221  1  0
 40222  1  0
 40223  1  0
 40224  1  0
 41225  1  0
 42226  1  0
 42227  1  0
 43228  1  0
 44229  1  0
 44230  1  0
 45231  1  0
 45232  1  0
 46233  1  0
 46234  1  0
 47235  1  0
 47236  1  0
 48237  1  0
 48238  1  0
 49239  1  0
 49240  1  0
 50241  1  0
 51242  1  0
 51243  1  0
 52244  1  0
 52245  1  0
 53246  1  0
 55247  1  0
 56248  1  0
 57249  1  0
 57250  1  0
 58251  1  0
 58252  1  0
 59253  1  0
 59254  1  0
 60255  1  0
 60256  1  0
 61257  1  0
 61258  1  0
 62259  1  0
 63260  1  0
 64261  1  0
 65262  1  0
 66263  1  0
 66264  1  0
 67265  1  6
 68266  1  0
 68267  1  0
 69268  1  6
 70269  1  0
 70270  1  0
 71271  1  0
 71272  1  0
 73273  1  0
 74274  1  0
 75275  1  0
 76276  1  0
 77277  1  0
 78278  1  0
 79279  1  0
 80280  1  0
 80281  1  0
 80282  1  0
 81283  1  0
 81284  1  0
 81285  1  0
 82286  1  0
 83287  1  0
 83288  1  0
 84289  1  0
 85290  1  0
 85291  1  0
 86292  1  0
 86293  1  0
 87294  1  0
 87295  1  0
 88296  1  0
 88297  1  0
 89298  1  0
 89299  1  0
 90300  1  0
 90301  1  0
 91302  1  0
 92303  1  0
 92304  1  0
 93305  1  0
 93306  1  0
 94307  1  0
 96308  1  0
 97309  1  0
 98310  1  0
 98311  1  0
 99312  1  0
 99313  1  0
100314  1  0
100315  1  0
101316  1  0
101317  1  0
102318  1  0
102319  1  0
103320  1  0
104321  1  0
105322  1  0
106323  1  0
107324  1  0
107325  1  0
108326  1  6
109327  1  0
109328  1  0
110329  1  6
111330  1  0
111331  1  0
112332  1  0
112333  1  0
114334  1  0
115335  1  0
116336  1  0
117337  1  0
118338  1  0
119339  1  0
120340  1  0
121341  1  0
121342  1  0
121343  1  0
122344  1  0
122345  1  0
122346  1  0
123347  1  0
124348  1  0
124349  1  0
125350  1  0
126351  1  0
126352  1  0
127353  1  0
127354  1  0
128355  1  0
128356  1  0
129357  1  0
129358  1  0
130359  1  0
130360  1  0
131361  1  0
131362  1  0
132363  1  0
133364  1  0
133365  1  0
134366  1  0
134367  1  0
135368  1  0
137369  1  0
138370  1  0
139371  1  0
139372  1  0
140373  1  0
140374  1  0
141375  1  0
141376  1  0
142377  1  0
142378  1  0
143379  1  0
143380  1  0
144381  1  0
145382  1  0
146383  1  0
147384  1  0
148385  1  0
148386  1  0
149387  1  6
150388  1  0
150389  1  0
151390  1  6
152391  1  0
152392  1  0
153393  1  0
153394  1  0
155395  1  0
156396  1  0
157397  1  0
158398  1  0
159399  1  0
160400  1  0
161401  1  0
162402  1  0
162403  1  0
162404  1  0
163405  1  0
163406  1  0
163407  1  0
164408  1  0
M  END
>  <PDBID>  (1) 
1HWK

>  <PDB ID>  (1) 
1HWK

>  <Generic Name>  (1) 
Atorvastatin

>  <Brand Name>  (1) 
Ach-atorvastatin Calcium#Act Atorvastatin#Amlodipine Besylate and Atorvastatin Calcium#Amlodipine Besylate/atorvastatin Calcium#Apo-amlodipine-atorvastatin#Apo-atorvastatin#Atorvastatin#Atorvastatin Calcium#Atorvastatin-10#Atorvastatin-20#Atorvastatin-40#Atorvastatin-80#Auro-atorvastatin#Ava-atorvastatin#Caduet#Dom-atorvastatin#Gd-amlodipine/atorvastatin#Gd-atorvastatin#Jamp-atorvastatin#Lipitor#Liptruzet#Mar-atorvastatin#Mylan-amlodipine/atorvastatin#Mylan-atorvastatin#Novo-atorvastatin#Ntp-atorvastatin#PMS-amlodipine-atorvastatin#PMS-atorvastatin#Pendo-amlodipine-atorvastatin#Q-gen Atorvastatin#Ran-atorvastatin#Ratio-atorvastatin#Rbx-atorvastatin#Reddy-atorvastatin#Riva-atorvastatin#Sandoz Atorvastatin#Atogal#Cardyl#Faboxim#Hipolixan#Lipotropic#Liprimar#Lowden#Normalip#Sincol#Sortis#Torvacard#Torvast#Totalip#Tulip#Vastina#Xanator#Xarator#Zurinel

>  <DrugBank ID>  (1) 
DB01076

>  <ATC Codes>  (1) 
C10AA05#C10BA05#C10BX06#C10BX11#C10BX03#C10BX08

>  <Ligand ID>  (1) 
117

>  <Target Name>  (1) 
3-hydroxy-3-methylglutaryl-coenzyme A reductase

>  <UniProt ID>  (1) 
P04035

>  <PDB ID.1>  (1) 
1HWK

>  <Seq. Identity>  (1) 
97%

$$$$
