PDB_DB00715_00
     RDKit          3D

 56 59  0  0  0  0  0  0  0  0999 V2000
   -5.5767    2.8112   -1.1504 F   0  0  0  0  0  0  0  0  0  0  0  0
   -5.0243    0.7080   -0.2417 C   0  0  0  0  0  0  0  0  0  0  0  0
   -3.4509    2.6877   -0.2015 C   0  0  0  0  0  0  0  0  0  0  0  0
    3.1865    1.2015    0.9351 C   0  0  0  0  0  0  0  0  0  0  0  0
   -3.8553   -0.1631    0.0337 C   0  0  0  0  0  0  0  0  0  0  0  0
   -2.3955    1.7289    0.2960 C   0  0  0  0  0  0  0  0  0  0  0  0
    4.3517    1.8008    0.2381 C   0  0  0  0  0  0  0  0  0  0  0  0
    2.9731   -0.0808   -1.2012 C   0  0  0  0  0  0  0  0  0  0  0  0
   -1.8196   -2.9492   -0.3863 C   0  0  0  0  0  0  0  0  0  0  0  0
   -1.6017   -1.7019   -1.1619 C   0  0  0  0  0  0  0  0  0  0  0  0
   -1.5379   -1.8674    1.7486 C   0  0  0  0  0  0  0  0  0  0  0  0
    5.9736   -0.7273    0.4797 C   0  0  0  0  0  0  0  0  0  0  0  0
    0.5948   -0.9494    1.0135 C   0  0  0  0  0  0  0  0  0  0  0  0
   -2.2314   -2.8029    0.9493 N   0  0  0  0  0  0  0  0  0  0  0  0
    1.1491    0.1463    0.3547 O   0  0  0  0  0  0  0  0  0  0  0  0
    6.3116    0.4708   -0.1293 O   0  0  0  0  0  0  0  0  0  0  0  0
    4.8169   -1.1941   -0.1208 O   0  0  0  0  0  0  0  0  0  0  0  0
   -4.8329    2.1579   -0.1563 C   0  0  0  0  0  0  0  0  0  0  0  0
    2.5187    0.0697    0.2461 C   0  0  0  0  0  0  0  0  0  0  0  0
   -2.5759    0.4444   -0.4424 C   0  0  0  0  0  0  0  0  0  0  0  0
    5.1110    0.9598   -0.6883 C   0  0  0  0  0  0  0  0  0  0  0  0
    4.4629   -0.3201   -1.1202 C   0  0  0  0  0  0  0  0  0  0  0  0
   -0.9223   -0.7188    1.0541 C   0  0  1  0  0  0  0  0  0  0  0  0
   -1.3901   -0.4708   -0.3463 C   0  0  1  0  0  0  0  0  0  0  0  0
   -5.8738    0.3528    0.4132 H   0  0  0  0  0  0  0  0  0  0  0  0
   -5.3894    0.4567   -1.2829 H   0  0  0  0  0  0  0  0  0  0  0  0
   -3.3198    3.6319    0.3689 H   0  0  0  0  0  0  0  0  0  0  0  0
   -3.1500    2.9461   -1.2559 H   0  0  0  0  0  0  0  0  0  0  0  0
    3.4498    0.8839    1.9663 H   0  0  0  0  0  0  0  0  0  0  0  0
    2.4098    2.0108    1.0792 H   0  0  0  0  0  0  0  0  0  0  0  0
   -3.7750   -0.3030    1.1317 H   0  0  0  0  0  0  0  0  0  0  0  0
   -3.9610   -1.1516   -0.5031 H   0  0  0  0  0  0  0  0  0  0  0  0
   -1.4097    2.2080    0.0764 H   0  0  0  0  0  0  0  0  0  0  0  0
   -2.5583    1.6338    1.3998 H   0  0  0  0  0  0  0  0  0  0  0  0
    5.0554    2.1908    1.0293 H   0  0  0  0  0  0  0  0  0  0  0  0
    4.0313    2.7375   -0.3082 H   0  0  0  0  0  0  0  0  0  0  0  0
    2.8266    0.8605   -1.7745 H   0  0  0  0  0  0  0  0  0  0  0  0
    2.4208   -0.9388   -1.6147 H   0  0  0  0  0  0  0  0  0  0  0  0
   -2.5950   -3.5570   -0.9314 H   0  0  0  0  0  0  0  0  0  0  0  0
   -0.9046   -3.6111   -0.4035 H   0  0  0  0  0  0  0  0  0  0  0  0
   -2.4654   -1.5089   -1.8644 H   0  0  0  0  0  0  0  0  0  0  0  0
   -0.7387   -1.8985   -1.8664 H   0  0  0  0  0  0  0  0  0  0  0  0
   -2.2519   -1.5012    2.5444 H   0  0  0  0  0  0  0  0  0  0  0  0
   -0.7658   -2.4383    2.3460 H   0  0  0  0  0  0  0  0  0  0  0  0
    6.8171   -1.4585    0.4146 H   0  0  0  0  0  0  0  0  0  0  0  0
    5.8052   -0.4863    1.5661 H   0  0  0  0  0  0  0  0  0  0  0  0
    0.8323   -1.8962    0.5070 H   0  0  0  0  0  0  0  0  0  0  0  0
    1.0062   -0.9373    2.0478 H   0  0  0  0  0  0  0  0  0  0  0  0
   -3.2215   -2.9620    1.1658 H   0  0  0  0  0  0  0  0  0  0  0  0
   -5.3048    2.5247    0.8042 H   0  0  0  0  0  0  0  0  0  0  0  0
    2.8226   -0.8998    0.7416 H   0  0  0  0  0  0  0  0  0  0  0  0
   -2.7013    0.6979   -1.5251 H   0  0  0  0  0  0  0  0  0  0  0  0
    5.4235    1.5022   -1.6183 H   0  0  0  0  0  0  0  0  0  0  0  0
    4.9043   -0.6430   -2.0781 H   0  0  0  0  0  0  0  0  0  0  0  0
   -1.1109    0.2155    1.6333 H   0  0  0  0  0  0  0  0  0  0  0  0
   -0.5439    0.0973   -0.8448 H   0  0  0  0  0  0  0  0  0  0  0  0
  2  5  1  0
  3  6  1  0
  4  7  1  0
  9 10  1  0
  9 14  1  0
 11 14  1  0
 13 15  1  0
 12 16  1  0
 12 17  1  0
  1 18  1  0
  2 18  1  0
  3 18  1  0
  4 19  1  0
  8 19  1  0
 15 19  1  0
  5 20  1  0
  6 20  1  0
  7 21  1  0
 16 21  1  0
  8 22  1  0
 17 22  1  0
 21 22  1  0
 11 23  1  0
 13 23  1  0
 10 24  1  0
 20 24  1  0
 23 24  1  0
  2 25  1  0
  2 26  1  0
  3 27  1  0
  3 28  1  0
  4 29  1  0
  4 30  1  0
  5 31  1  0
  5 32  1  0
  6 33  1  0
  6 34  1  0
  7 35  1  0
  7 36  1  0
  8 37  1  0
  8 38  1  0
  9 39  1  0
  9 40  1  0
 10 41  1  0
 10 42  1  0
 11 43  1  0
 11 44  1  0
 12 45  1  0
 12 46  1  0
 13 47  1  0
 13 48  1  0
 14 49  1  0
 18 50  1  0
 19 51  1  0
 20 52  1  0
 21 53  1  0
 22 54  1  0
 23 55  1  1
 24 56  1  6
M  END
>  <PDBID>  (1) 
5I6X

>  <PDB ID>  (1) 
5I6X

>  <Generic Name>  (1) 
Paroxetine

>  <Brand Name>  (1) 
Act Paroxetine#Apo-paroxetine#Auro-paroxetine#Bio-paroxetine#Brisdelle#Dom-paroxetine#Ipg-paroxetine#Jamp-paroxetine#Mar-paroxetine#Mint-paroxetine#Mylan-paroxetine#Ntp-paroxetine#Nu-paroxetine#PMS-paroxetine#Paroxetine#Paroxetine Hydrochloride#Paroxetine Hydrochloride Anhydrous#Paroxetine-10#Paroxetine-20#Paroxetine-30#Paxil#Paxil CR#Paxil Tab 10mg#Paxil Tab 20mg#Paxil Tab 30mg#Paxilcr CR#Pexeva#Priva-paroxetine#Q-paroxetine#Ratio-paroxetine#Riva-paroxetine#Sandoz Paroxetine#Sandoz Paroxetine Tablets#Teva-paroxetine#Aropax#PAXILCR#Sereupin#Seroxat#Seroxat CR

>  <DrugBank ID>  (1) 
DB00715

>  <ATC Codes>  (1) 
N06AB05

>  <Ligand ID>  (1) 
8PR

>  <Target Name>  (1) 
Sodium-dependent serotonin transporter

>  <UniProt ID>  (1) 
P31645

>  <PDB ID.1>  (1) 
5I6X

>  <Seq. Identity>  (1) 
99%

$$$$
