PDB_DB01076_08
     RDKit          3D

408420  0  0  0  0  0  0  0  0999 V2000
   -2.3190   -2.8116   -0.7499 C   0  0  0  0  0  0  0  0  0  0  0  0
   -2.1089   -1.3027   -0.9352 C   0  0  0  0  0  0  0  0  0  0  0  0
   -2.1599   -1.0957   -2.4247 C   0  0  0  0  0  0  0  0  0  0  0  0
   -3.5894   -1.3607   -2.8524 C   0  0  0  0  0  0  0  0  0  0  0  0
   -4.0163   -2.7774   -2.4954 C   0  0  0  0  0  0  0  0  0  0  0  0
   -3.7973   -3.1051   -1.0334 C   0  0  0  0  0  0  0  0  0  0  0  0
    0.9060   -4.3383    1.3551 C   0  0  0  0  0  0  0  0  0  0  0  0
    0.8234   -2.8568    1.2040 C   0  0  0  0  0  0  0  0  0  0  0  0
    0.9956   -2.3235   -0.1699 C   0  0  0  0  0  0  0  0  0  0  0  0
    1.0432   -3.2647   -1.3117 C   0  0  0  0  0  0  0  0  0  0  0  0
    0.7150   -4.6855   -1.0049 C   0  0  0  0  0  0  0  0  0  0  0  0
    1.5943   -5.0368    0.2121 C   0  0  0  0  0  0  0  0  0  0  0  0
    2.8839   -4.6463    0.0221 F   0  0  0  0  0  0  0  0  0  0  0  0
    0.4006   -0.9986   -0.4920 C   0  0  0  0  0  0  0  0  0  0  0  0
   -3.6093    2.4758    1.7299 C   0  0  0  0  0  0  0  0  0  0  0  0
   -4.7160    2.9212    0.7925 C   0  0  0  0  0  0  0  0  0  0  0  0
   -5.2946    4.2007    1.4109 C   0  0  0  0  0  0  0  0  0  0  0  0
   -6.0461    3.7960    2.6382 C   0  0  0  0  0  0  0  0  0  0  0  0
   -5.1583    3.0845    3.6100 C   0  0  0  0  0  0  0  0  0  0  0  0
   -4.3267    2.0032    2.9999 C   0  0  0  0  0  0  0  0  0  0  0  0
    7.4253   -0.6341    0.1211 O   0  0  0  0  0  0  0  0  0  0  0  0
    7.6922    1.4331    0.9312 O   0  0  0  0  0  0  0  0  0  0  0  0
    6.3321    1.0313   -3.5707 O   0  0  0  0  0  0  0  0  0  0  0  0
    6.8572    0.6586    0.0974 C   0  0  0  0  0  0  0  0  0  0  0  0
    6.9508    1.2601   -1.2763 C   0  0  0  0  0  0  0  0  0  0  0  0
    6.2340    0.4426   -2.3172 C   0  0  1  0  0  0  0  0  0  0  0  0
    4.8145    0.0874   -1.9629 C   0  0  0  0  0  0  0  0  0  0  0  0
    3.9436    1.2854   -1.9599 C   0  0  1  0  0  0  0  0  0  0  0  0
    2.4780    0.9981   -1.6322 C   0  0  0  0  0  0  0  0  0  0  0  0
    2.3774    0.4011   -0.2816 C   0  0  0  0  0  0  0  0  0  0  0  0
    1.0875    0.0607    0.1966 N   0  0  0  0  0  0  0  0  0  0  0  0
   -1.0137   -0.7123   -0.1832 C   0  0  0  0  0  0  0  0  0  0  0  0
   -1.0000    0.7924   -0.2558 C   0  0  0  0  0  0  0  0  0  0  0  0
   -2.2522    1.5222   -0.0241 C   0  0  0  0  0  0  0  0  0  0  0  0
   -2.9345    1.3745    1.1929 N   0  0  0  0  0  0  0  0  0  0  0  0
   -3.1748    1.3828   -1.0494 O   0  0  0  0  0  0  0  0  0  0  0  0
    0.2144    1.1854    0.4150 C   0  0  0  0  0  0  0  0  0  0  0  0
    0.3580    1.5541    1.8188 C   0  0  0  0  0  0  0  0  0  0  0  0
   -0.0024    0.4886    2.8368 C   0  0  0  0  0  0  0  0  0  0  0  0
   -0.1864    2.8322    2.3080 C   0  0  0  0  0  0  0  0  0  0  0  0
    4.3660    2.2621   -1.0706 O   0  0  0  0  0  0  0  0  0  0  0  0
   -2.3190   -2.8116   -0.7499 C   0  0  0  0  0  0  0  0  0  0  0  0
   -2.1089   -1.3027   -0.9352 C   0  0  0  0  0  0  0  0  0  0  0  0
   -2.1599   -1.0957   -2.4247 C   0  0  0  0  0  0  0  0  0  0  0  0
   -3.5894   -1.3607   -2.8524 C   0  0  0  0  0  0  0  0  0  0  0  0
   -4.0163   -2.7774   -2.4954 C   0  0  0  0  0  0  0  0  0  0  0  0
   -3.7973   -3.1051   -1.0334 C   0  0  0  0  0  0  0  0  0  0  0  0
    0.9060   -4.3383    1.3551 C   0  0  0  0  0  0  0  0  0  0  0  0
    0.8234   -2.8568    1.2040 C   0  0  0  0  0  0  0  0  0  0  0  0
    0.9956   -2.3235   -0.1699 C   0  0  0  0  0  0  0  0  0  0  0  0
    1.0432   -3.2647   -1.3117 C   0  0  0  0  0  0  0  0  0  0  0  0
    0.7150   -4.6855   -1.0049 C   0  0  0  0  0  0  0  0  0  0  0  0
    1.5943   -5.0368    0.2121 C   0  0  0  0  0  0  0  0  0  0  0  0
    2.8839   -4.6463    0.0221 F   0  0  0  0  0  0  0  0  0  0  0  0
    0.4006   -0.9986   -0.4920 C   0  0  0  0  0  0  0  0  0  0  0  0
   -3.6093    2.4758    1.7299 C   0  0  0  0  0  0  0  0  0  0  0  0
   -4.7160    2.9212    0.7925 C   0  0  0  0  0  0  0  0  0  0  0  0
   -5.2946    4.2007    1.4109 C   0  0  0  0  0  0  0  0  0  0  0  0
   -6.0461    3.7960    2.6382 C   0  0  0  0  0  0  0  0  0  0  0  0
   -5.1583    3.0845    3.6100 C   0  0  0  0  0  0  0  0  0  0  0  0
   -4.3267    2.0032    2.9999 C   0  0  0  0  0  0  0  0  0  0  0  0
    7.4253   -0.6341    0.1211 O   0  0  0  0  0  0  0  0  0  0  0  0
    7.6922    1.4331    0.9312 O   0  0  0  0  0  0  0  0  0  0  0  0
    6.3321    1.0313   -3.5707 O   0  0  0  0  0  0  0  0  0  0  0  0
    6.8572    0.6586    0.0974 C   0  0  0  0  0  0  0  0  0  0  0  0
    6.9508    1.2601   -1.2763 C   0  0  0  0  0  0  0  0  0  0  0  0
    6.2340    0.4426   -2.3172 C   0  0  1  0  0  0  0  0  0  0  0  0
    4.8145    0.0874   -1.9629 C   0  0  0  0  0  0  0  0  0  0  0  0
    3.9436    1.2854   -1.9599 C   0  0  1  0  0  0  0  0  0  0  0  0
    2.4780    0.9981   -1.6322 C   0  0  0  0  0  0  0  0  0  0  0  0
    2.3774    0.4011   -0.2816 C   0  0  0  0  0  0  0  0  0  0  0  0
    1.0875    0.0607    0.1966 N   0  0  0  0  0  0  0  0  0  0  0  0
   -1.0137   -0.7123   -0.1832 C   0  0  0  0  0  0  0  0  0  0  0  0
   -1.0000    0.7924   -0.2558 C   0  0  0  0  0  0  0  0  0  0  0  0
   -2.2522    1.5222   -0.0241 C   0  0  0  0  0  0  0  0  0  0  0  0
   -2.9345    1.3745    1.1929 N   0  0  0  0  0  0  0  0  0  0  0  0
   -3.1748    1.3828   -1.0494 O   0  0  0  0  0  0  0  0  0  0  0  0
    0.2144    1.1854    0.4150 C   0  0  0  0  0  0  0  0  0  0  0  0
    0.3580    1.5541    1.8188 C   0  0  0  0  0  0  0  0  0  0  0  0
   -0.0024    0.4886    2.8368 C   0  0  0  0  0  0  0  0  0  0  0  0
   -0.1864    2.8322    2.3080 C   0  0  0  0  0  0  0  0  0  0  0  0
    4.3660    2.2621   -1.0706 O   0  0  0  0  0  0  0  0  0  0  0  0
   -2.3190   -2.8116   -0.7499 C   0  0  0  0  0  0  0  0  0  0  0  0
   -2.1089   -1.3027   -0.9352 C   0  0  0  0  0  0  0  0  0  0  0  0
   -2.1599   -1.0957   -2.4247 C   0  0  0  0  0  0  0  0  0  0  0  0
   -3.5894   -1.3607   -2.8524 C   0  0  0  0  0  0  0  0  0  0  0  0
   -4.0163   -2.7774   -2.4954 C   0  0  0  0  0  0  0  0  0  0  0  0
   -3.7973   -3.1051   -1.0334 C   0  0  0  0  0  0  0  0  0  0  0  0
    0.9060   -4.3383    1.3551 C   0  0  0  0  0  0  0  0  0  0  0  0
    0.8234   -2.8568    1.2040 C   0  0  0  0  0  0  0  0  0  0  0  0
    0.9956   -2.3235   -0.1699 C   0  0  0  0  0  0  0  0  0  0  0  0
    1.0432   -3.2647   -1.3117 C   0  0  0  0  0  0  0  0  0  0  0  0
    0.7150   -4.6855   -1.0049 C   0  0  0  0  0  0  0  0  0  0  0  0
    1.5943   -5.0368    0.2121 C   0  0  0  0  0  0  0  0  0  0  0  0
    2.8839   -4.6463    0.0221 F   0  0  0  0  0  0  0  0  0  0  0  0
    0.4006   -0.9986   -0.4920 C   0  0  0  0  0  0  0  0  0  0  0  0
   -3.6093    2.4758    1.7299 C   0  0  0  0  0  0  0  0  0  0  0  0
   -4.7160    2.9212    0.7925 C   0  0  0  0  0  0  0  0  0  0  0  0
   -5.2946    4.2007    1.4109 C   0  0  0  0  0  0  0  0  0  0  0  0
   -6.0461    3.7960    2.6382 C   0  0  0  0  0  0  0  0  0  0  0  0
   -5.1583    3.0845    3.6100 C   0  0  0  0  0  0  0  0  0  0  0  0
   -4.3267    2.0032    2.9999 C   0  0  0  0  0  0  0  0  0  0  0  0
    7.4253   -0.6341    0.1211 O   0  0  0  0  0  0  0  0  0  0  0  0
    7.6922    1.4331    0.9312 O   0  0  0  0  0  0  0  0  0  0  0  0
    6.3321    1.0313   -3.5707 O   0  0  0  0  0  0  0  0  0  0  0  0
    6.8572    0.6586    0.0974 C   0  0  0  0  0  0  0  0  0  0  0  0
    6.9508    1.2601   -1.2763 C   0  0  0  0  0  0  0  0  0  0  0  0
    6.2340    0.4426   -2.3172 C   0  0  1  0  0  0  0  0  0  0  0  0
    4.8145    0.0874   -1.9629 C   0  0  0  0  0  0  0  0  0  0  0  0
    3.9436    1.2854   -1.9599 C   0  0  1  0  0  0  0  0  0  0  0  0
    2.4780    0.9981   -1.6322 C   0  0  0  0  0  0  0  0  0  0  0  0
    2.3774    0.4011   -0.2816 C   0  0  0  0  0  0  0  0  0  0  0  0
    1.0875    0.0607    0.1966 N   0  0  0  0  0  0  0  0  0  0  0  0
   -1.0137   -0.7123   -0.1832 C   0  0  0  0  0  0  0  0  0  0  0  0
   -1.0000    0.7924   -0.2558 C   0  0  0  0  0  0  0  0  0  0  0  0
   -2.2522    1.5222   -0.0241 C   0  0  0  0  0  0  0  0  0  0  0  0
   -2.9345    1.3745    1.1929 N   0  0  0  0  0  0  0  0  0  0  0  0
   -3.1748    1.3828   -1.0494 O   0  0  0  0  0  0  0  0  0  0  0  0
    0.2144    1.1854    0.4150 C   0  0  0  0  0  0  0  0  0  0  0  0
    0.3580    1.5541    1.8188 C   0  0  0  0  0  0  0  0  0  0  0  0
   -0.0024    0.4886    2.8368 C   0  0  0  0  0  0  0  0  0  0  0  0
   -0.1864    2.8322    2.3080 C   0  0  0  0  0  0  0  0  0  0  0  0
    4.3660    2.2621   -1.0706 O   0  0  0  0  0  0  0  0  0  0  0  0
   -2.3190   -2.8116   -0.7499 C   0  0  0  0  0  0  0  0  0  0  0  0
   -2.1089   -1.3027   -0.9352 C   0  0  0  0  0  0  0  0  0  0  0  0
   -2.1599   -1.0957   -2.4247 C   0  0  0  0  0  0  0  0  0  0  0  0
   -3.5894   -1.3607   -2.8524 C   0  0  0  0  0  0  0  0  0  0  0  0
   -4.0163   -2.7774   -2.4954 C   0  0  0  0  0  0  0  0  0  0  0  0
   -3.7973   -3.1051   -1.0334 C   0  0  0  0  0  0  0  0  0  0  0  0
    0.9060   -4.3383    1.3551 C   0  0  0  0  0  0  0  0  0  0  0  0
    0.8234   -2.8568    1.2040 C   0  0  0  0  0  0  0  0  0  0  0  0
    0.9956   -2.3235   -0.1699 C   0  0  0  0  0  0  0  0  0  0  0  0
    1.0432   -3.2647   -1.3117 C   0  0  0  0  0  0  0  0  0  0  0  0
    0.7150   -4.6855   -1.0049 C   0  0  0  0  0  0  0  0  0  0  0  0
    1.5943   -5.0368    0.2121 C   0  0  0  0  0  0  0  0  0  0  0  0
    2.8839   -4.6463    0.0221 F   0  0  0  0  0  0  0  0  0  0  0  0
    0.4006   -0.9986   -0.4920 C   0  0  0  0  0  0  0  0  0  0  0  0
   -3.6093    2.4758    1.7299 C   0  0  0  0  0  0  0  0  0  0  0  0
   -4.7160    2.9212    0.7925 C   0  0  0  0  0  0  0  0  0  0  0  0
   -5.2946    4.2007    1.4109 C   0  0  0  0  0  0  0  0  0  0  0  0
   -6.0461    3.7960    2.6382 C   0  0  0  0  0  0  0  0  0  0  0  0
   -5.1583    3.0845    3.6100 C   0  0  0  0  0  0  0  0  0  0  0  0
   -4.3267    2.0032    2.9999 C   0  0  0  0  0  0  0  0  0  0  0  0
    7.4253   -0.6341    0.1211 O   0  0  0  0  0  0  0  0  0  0  0  0
    7.6922    1.4331    0.9312 O   0  0  0  0  0  0  0  0  0  0  0  0
    6.3321    1.0313   -3.5707 O   0  0  0  0  0  0  0  0  0  0  0  0
    6.8572    0.6586    0.0974 C   0  0  0  0  0  0  0  0  0  0  0  0
    6.9508    1.2601   -1.2763 C   0  0  0  0  0  0  0  0  0  0  0  0
    6.2340    0.4426   -2.3172 C   0  0  1  0  0  0  0  0  0  0  0  0
    4.8145    0.0874   -1.9629 C   0  0  0  0  0  0  0  0  0  0  0  0
    3.9436    1.2854   -1.9599 C   0  0  1  0  0  0  0  0  0  0  0  0
    2.4780    0.9981   -1.6322 C   0  0  0  0  0  0  0  0  0  0  0  0
    2.3774    0.4011   -0.2816 C   0  0  0  0  0  0  0  0  0  0  0  0
    1.0875    0.0607    0.1966 N   0  0  0  0  0  0  0  0  0  0  0  0
   -1.0137   -0.7123   -0.1832 C   0  0  0  0  0  0  0  0  0  0  0  0
   -1.0000    0.7924   -0.2558 C   0  0  0  0  0  0  0  0  0  0  0  0
   -2.2522    1.5222   -0.0241 C   0  0  0  0  0  0  0  0  0  0  0  0
   -2.9345    1.3745    1.1929 N   0  0  0  0  0  0  0  0  0  0  0  0
   -3.1748    1.3828   -1.0494 O   0  0  0  0  0  0  0  0  0  0  0  0
    0.2144    1.1854    0.4150 C   0  0  0  0  0  0  0  0  0  0  0  0
    0.3580    1.5541    1.8188 C   0  0  0  0  0  0  0  0  0  0  0  0
   -0.0024    0.4886    2.8368 C   0  0  0  0  0  0  0  0  0  0  0  0
   -0.1864    2.8322    2.3080 C   0  0  0  0  0  0  0  0  0  0  0  0
    4.3660    2.2621   -1.0706 O   0  0  0  0  0  0  0  0  0  0  0  0
   -1.9785   -3.1655    0.2073 H   0  0  0  0  0  0  0  0  0  0  0  0
   -1.7928   -3.3070   -1.5814 H   0  0  0  0  0  0  0  0  0  0  0  0
   -3.0790   -0.8781   -0.5454 H   0  0  0  0  0  0  0  0  0  0  0  0
   -1.8405   -0.1376   -2.8004 H   0  0  0  0  0  0  0  0  0  0  0  0
   -1.5683   -1.8649   -2.9756 H   0  0  0  0  0  0  0  0  0  0  0  0
   -4.2886   -0.6974   -2.3420 H   0  0  0  0  0  0  0  0  0  0  0  0
   -3.6786   -1.3100   -3.9653 H   0  0  0  0  0  0  0  0  0  0  0  0
   -3.5397   -3.5286   -3.1315 H   0  0  0  0  0  0  0  0  0  0  0  0
   -5.1147   -2.8231   -2.6713 H   0  0  0  0  0  0  0  0  0  0  0  0
   -3.9163   -4.1996   -0.9235 H   0  0  0  0  0  0  0  0  0  0  0  0
   -4.4780   -2.6104   -0.3452 H   0  0  0  0  0  0  0  0  0  0  0  0
   -0.1109   -4.7970    1.4282 H   0  0  0  0  0  0  0  0  0  0  0  0
    1.4298   -4.6691    2.2817 H   0  0  0  0  0  0  0  0  0  0  0  0
    1.5634   -2.4544    1.9547 H   0  0  0  0  0  0  0  0  0  0  0  0
   -0.1632   -2.5590    1.6652 H   0  0  0  0  0  0  0  0  0  0  0  0
    2.1320   -2.0208   -0.1230 H   0  0  0  0  0  0  0  0  0  0  0  0
    0.3985   -2.9192   -2.1445 H   0  0  0  0  0  0  0  0  0  0  0  0
    2.0671   -3.3274   -1.8266 H   0  0  0  0  0  0  0  0  0  0  0  0
    1.0673   -5.3194   -1.8406 H   0  0  0  0  0  0  0  0  0  0  0  0
   -0.3159   -4.9127   -0.7456 H   0  0  0  0  0  0  0  0  0  0  0  0
    1.4554   -6.1287    0.3584 H   0  0  0  0  0  0  0  0  0  0  0  0
    0.5552   -0.8202   -1.5784 H   0  0  0  0  0  0  0  0  0  0  0  0
   -2.9923    3.3599    1.9148 H   0  0  0  0  0  0  0  0  0  0  0  0
   -4.3393    3.2228   -0.2004 H   0  0  0  0  0  0  0  0  0  0  0  0
   -5.5587    2.2113    0.7502 H   0  0  0  0  0  0  0  0  0  0  0  0
   -6.0178    4.6480    0.6965 H   0  0  0  0  0  0  0  0  0  0  0  0
   -4.4483    4.8859    1.6373 H   0  0  0  0  0  0  0  0  0  0  0  0
   -6.9384    3.2213    2.3428 H   0  0  0  0  0  0  0  0  0  0  0  0
   -6.4298    4.7089    3.1552 H   0  0  0  0  0  0  0  0  0  0  0  0
   -4.5421    3.7979    4.1781 H   0  0  0  0  0  0  0  0  0  0  0  0
   -5.8300    2.5896    4.3610 H   0  0  0  0  0  0  0  0  0  0  0  0
   -3.5493    1.6833    3.7024 H   0  0  0  0  0  0  0  0  0  0  0  0
   -4.9424    1.1258    2.7136 H   0  0  0  0  0  0  0  0  0  0  0  0
    8.3560   -0.5913   -0.2134 H   0  0  0  0  0  0  0  0  0  0  0  0
    8.1229    0.8601    1.6263 H   0  0  0  0  0  0  0  0  0  0  0  0
    5.9934    1.9606   -3.5385 H   0  0  0  0  0  0  0  0  0  0  0  0
    5.8482    0.5845    0.5030 H   0  0  0  0  0  0  0  0  0  0  0  0
    8.0545    1.2648   -1.5248 H   0  0  0  0  0  0  0  0  0  0  0  0
    6.6093    2.2994   -1.2407 H   0  0  0  0  0  0  0  0  0  0  0  0
    6.8448   -0.5252   -2.3690 H   0  0  0  0  0  0  0  0  0  0  0  0
    4.4533   -0.6809   -2.6825 H   0  0  0  0  0  0  0  0  0  0  0  0
    4.8912   -0.4373   -0.9776 H   0  0  0  0  0  0  0  0  0  0  0  0
    4.0065    1.7555   -2.9827 H   0  0  0  0  0  0  0  0  0  0  0  0
    1.9174    1.9235   -1.7705 H   0  0  0  0  0  0  0  0  0  0  0  0
    2.1477    0.2911   -2.4355 H   0  0  0  0  0  0  0  0  0  0  0  0
    3.1137   -0.3935   -0.1276 H   0  0  0  0  0  0  0  0  0  0  0  0
    2.7290    1.2210    0.4380 H   0  0  0  0  0  0  0  0  0  0  0  0
   -1.2565   -0.8925    0.9132 H   0  0  0  0  0  0  0  0  0  0  0  0
   -0.8041    0.9496   -1.3781 H   0  0  0  0  0  0  0  0  0  0  0  0
   -1.9469    2.6243   -0.1640 H   0  0  0  0  0  0  0  0  0  0  0  0
   -3.0499    0.4599    1.5901 H   0  0  0  0  0  0  0  0  0  0  0  0
   -2.8394    1.8180   -1.8473 H   0  0  0  0  0  0  0  0  0  0  0  0
    0.6857    2.0208   -0.2117 H   0  0  0  0  0  0  0  0  0  0  0  0
    1.4917    1.6253    1.9755 H   0  0  0  0  0  0  0  0  0  0  0  0
    0.5979   -0.4295    2.7018 H   0  0  0  0  0  0  0  0  0  0  0  0
   -1.0780    0.3127    2.9486 H   0  0  0  0  0  0  0  0  0  0  0  0
    0.3106    0.8380    3.8764 H   0  0  0  0  0  0  0  0  0  0  0  0
   -1.0258    2.6253    3.0300 H   0  0  0  0  0  0  0  0  0  0  0  0
    0.5613    3.3470    2.9474 H   0  0  0  0  0  0  0  0  0  0  0  0
   -0.4790    3.5624    1.5376 H   0  0  0  0  0  0  0  0  0  0  0  0
    3.7418    3.0176   -1.0703 H   0  0  0  0  0  0  0  0  0  0  0  0
   -1.9785   -3.1655    0.2073 H   0  0  0  0  0  0  0  0  0  0  0  0
   -1.7928   -3.3070   -1.5814 H   0  0  0  0  0  0  0  0  0  0  0  0
   -3.0790   -0.8781   -0.5454 H   0  0  0  0  0  0  0  0  0  0  0  0
   -1.8405   -0.1376   -2.8004 H   0  0  0  0  0  0  0  0  0  0  0  0
   -1.5683   -1.8649   -2.9756 H   0  0  0  0  0  0  0  0  0  0  0  0
   -4.2886   -0.6974   -2.3420 H   0  0  0  0  0  0  0  0  0  0  0  0
   -3.6786   -1.3100   -3.9653 H   0  0  0  0  0  0  0  0  0  0  0  0
   -3.5397   -3.5286   -3.1315 H   0  0  0  0  0  0  0  0  0  0  0  0
   -5.1147   -2.8231   -2.6713 H   0  0  0  0  0  0  0  0  0  0  0  0
   -3.9163   -4.1996   -0.9235 H   0  0  0  0  0  0  0  0  0  0  0  0
   -4.4780   -2.6104   -0.3452 H   0  0  0  0  0  0  0  0  0  0  0  0
   -0.1109   -4.7970    1.4282 H   0  0  0  0  0  0  0  0  0  0  0  0
    1.4298   -4.6691    2.2817 H   0  0  0  0  0  0  0  0  0  0  0  0
    1.5634   -2.4544    1.9547 H   0  0  0  0  0  0  0  0  0  0  0  0
   -0.1632   -2.5590    1.6652 H   0  0  0  0  0  0  0  0  0  0  0  0
    2.1320   -2.0208   -0.1230 H   0  0  0  0  0  0  0  0  0  0  0  0
    0.3985   -2.9192   -2.1445 H   0  0  0  0  0  0  0  0  0  0  0  0
    2.0671   -3.3274   -1.8266 H   0  0  0  0  0  0  0  0  0  0  0  0
    1.0673   -5.3194   -1.8406 H   0  0  0  0  0  0  0  0  0  0  0  0
   -0.3159   -4.9127   -0.7456 H   0  0  0  0  0  0  0  0  0  0  0  0
    1.4554   -6.1287    0.3584 H   0  0  0  0  0  0  0  0  0  0  0  0
    0.5552   -0.8202   -1.5784 H   0  0  0  0  0  0  0  0  0  0  0  0
   -2.9923    3.3599    1.9148 H   0  0  0  0  0  0  0  0  0  0  0  0
   -4.3393    3.2228   -0.2004 H   0  0  0  0  0  0  0  0  0  0  0  0
   -5.5587    2.2113    0.7502 H   0  0  0  0  0  0  0  0  0  0  0  0
   -6.0178    4.6480    0.6965 H   0  0  0  0  0  0  0  0  0  0  0  0
   -4.4483    4.8859    1.6373 H   0  0  0  0  0  0  0  0  0  0  0  0
   -6.9384    3.2213    2.3428 H   0  0  0  0  0  0  0  0  0  0  0  0
   -6.4298    4.7089    3.1552 H   0  0  0  0  0  0  0  0  0  0  0  0
   -4.5421    3.7979    4.1781 H   0  0  0  0  0  0  0  0  0  0  0  0
   -5.8300    2.5896    4.3610 H   0  0  0  0  0  0  0  0  0  0  0  0
   -3.5493    1.6833    3.7024 H   0  0  0  0  0  0  0  0  0  0  0  0
   -4.9424    1.1258    2.7136 H   0  0  0  0  0  0  0  0  0  0  0  0
    8.3560   -0.5913   -0.2134 H   0  0  0  0  0  0  0  0  0  0  0  0
    8.1229    0.8601    1.6263 H   0  0  0  0  0  0  0  0  0  0  0  0
    5.9934    1.9606   -3.5385 H   0  0  0  0  0  0  0  0  0  0  0  0
    5.8482    0.5845    0.5030 H   0  0  0  0  0  0  0  0  0  0  0  0
    8.0545    1.2648   -1.5248 H   0  0  0  0  0  0  0  0  0  0  0  0
    6.6093    2.2994   -1.2407 H   0  0  0  0  0  0  0  0  0  0  0  0
    6.8448   -0.5252   -2.3690 H   0  0  0  0  0  0  0  0  0  0  0  0
    4.4533   -0.6809   -2.6825 H   0  0  0  0  0  0  0  0  0  0  0  0
    4.8912   -0.4373   -0.9776 H   0  0  0  0  0  0  0  0  0  0  0  0
    4.0065    1.7555   -2.9827 H   0  0  0  0  0  0  0  0  0  0  0  0
    1.9174    1.9235   -1.7705 H   0  0  0  0  0  0  0  0  0  0  0  0
    2.1477    0.2911   -2.4355 H   0  0  0  0  0  0  0  0  0  0  0  0
    3.1137   -0.3935   -0.1276 H   0  0  0  0  0  0  0  0  0  0  0  0
    2.7290    1.2210    0.4380 H   0  0  0  0  0  0  0  0  0  0  0  0
   -1.2565   -0.8925    0.9132 H   0  0  0  0  0  0  0  0  0  0  0  0
   -0.8041    0.9496   -1.3781 H   0  0  0  0  0  0  0  0  0  0  0  0
   -1.9469    2.6243   -0.1640 H   0  0  0  0  0  0  0  0  0  0  0  0
   -3.0499    0.4599    1.5901 H   0  0  0  0  0  0  0  0  0  0  0  0
   -2.8394    1.8180   -1.8473 H   0  0  0  0  0  0  0  0  0  0  0  0
    0.6857    2.0208   -0.2117 H   0  0  0  0  0  0  0  0  0  0  0  0
    1.4917    1.6253    1.9755 H   0  0  0  0  0  0  0  0  0  0  0  0
    0.5979   -0.4295    2.7018 H   0  0  0  0  0  0  0  0  0  0  0  0
   -1.0780    0.3127    2.9486 H   0  0  0  0  0  0  0  0  0  0  0  0
    0.3106    0.8380    3.8764 H   0  0  0  0  0  0  0  0  0  0  0  0
   -1.0258    2.6253    3.0300 H   0  0  0  0  0  0  0  0  0  0  0  0
    0.5613    3.3470    2.9474 H   0  0  0  0  0  0  0  0  0  0  0  0
   -0.4790    3.5624    1.5376 H   0  0  0  0  0  0  0  0  0  0  0  0
    3.7418    3.0176   -1.0703 H   0  0  0  0  0  0  0  0  0  0  0  0
   -1.9785   -3.1655    0.2073 H   0  0  0  0  0  0  0  0  0  0  0  0
   -1.7928   -3.3070   -1.5814 H   0  0  0  0  0  0  0  0  0  0  0  0
   -3.0790   -0.8781   -0.5454 H   0  0  0  0  0  0  0  0  0  0  0  0
   -1.8405   -0.1376   -2.8004 H   0  0  0  0  0  0  0  0  0  0  0  0
   -1.5683   -1.8649   -2.9756 H   0  0  0  0  0  0  0  0  0  0  0  0
   -4.2886   -0.6974   -2.3420 H   0  0  0  0  0  0  0  0  0  0  0  0
   -3.6786   -1.3100   -3.9653 H   0  0  0  0  0  0  0  0  0  0  0  0
   -3.5397   -3.5286   -3.1315 H   0  0  0  0  0  0  0  0  0  0  0  0
   -5.1147   -2.8231   -2.6713 H   0  0  0  0  0  0  0  0  0  0  0  0
   -3.9163   -4.1996   -0.9235 H   0  0  0  0  0  0  0  0  0  0  0  0
   -4.4780   -2.6104   -0.3452 H   0  0  0  0  0  0  0  0  0  0  0  0
   -0.1109   -4.7970    1.4282 H   0  0  0  0  0  0  0  0  0  0  0  0
    1.4298   -4.6691    2.2817 H   0  0  0  0  0  0  0  0  0  0  0  0
    1.5634   -2.4544    1.9547 H   0  0  0  0  0  0  0  0  0  0  0  0
   -0.1632   -2.5590    1.6652 H   0  0  0  0  0  0  0  0  0  0  0  0
    2.1320   -2.0208   -0.1230 H   0  0  0  0  0  0  0  0  0  0  0  0
    0.3985   -2.9192   -2.1445 H   0  0  0  0  0  0  0  0  0  0  0  0
    2.0671   -3.3274   -1.8266 H   0  0  0  0  0  0  0  0  0  0  0  0
    1.0673   -5.3194   -1.8406 H   0  0  0  0  0  0  0  0  0  0  0  0
   -0.3159   -4.9127   -0.7456 H   0  0  0  0  0  0  0  0  0  0  0  0
    1.4554   -6.1287    0.3584 H   0  0  0  0  0  0  0  0  0  0  0  0
    0.5552   -0.8202   -1.5784 H   0  0  0  0  0  0  0  0  0  0  0  0
   -2.9923    3.3599    1.9148 H   0  0  0  0  0  0  0  0  0  0  0  0
   -4.3393    3.2228   -0.2004 H   0  0  0  0  0  0  0  0  0  0  0  0
   -5.5587    2.2113    0.7502 H   0  0  0  0  0  0  0  0  0  0  0  0
   -6.0178    4.6480    0.6965 H   0  0  0  0  0  0  0  0  0  0  0  0
   -4.4483    4.8859    1.6373 H   0  0  0  0  0  0  0  0  0  0  0  0
   -6.9384    3.2213    2.3428 H   0  0  0  0  0  0  0  0  0  0  0  0
   -6.4298    4.7089    3.1552 H   0  0  0  0  0  0  0  0  0  0  0  0
   -4.5421    3.7979    4.1781 H   0  0  0  0  0  0  0  0  0  0  0  0
   -5.8300    2.5896    4.3610 H   0  0  0  0  0  0  0  0  0  0  0  0
   -3.5493    1.6833    3.7024 H   0  0  0  0  0  0  0  0  0  0  0  0
   -4.9424    1.1258    2.7136 H   0  0  0  0  0  0  0  0  0  0  0  0
    8.3560   -0.5913   -0.2134 H   0  0  0  0  0  0  0  0  0  0  0  0
    8.1229    0.8601    1.6263 H   0  0  0  0  0  0  0  0  0  0  0  0
    5.9934    1.9606   -3.5385 H   0  0  0  0  0  0  0  0  0  0  0  0
    5.8482    0.5845    0.5030 H   0  0  0  0  0  0  0  0  0  0  0  0
    8.0545    1.2648   -1.5248 H   0  0  0  0  0  0  0  0  0  0  0  0
    6.6093    2.2994   -1.2407 H   0  0  0  0  0  0  0  0  0  0  0  0
    6.8448   -0.5252   -2.3690 H   0  0  0  0  0  0  0  0  0  0  0  0
    4.4533   -0.6809   -2.6825 H   0  0  0  0  0  0  0  0  0  0  0  0
    4.8912   -0.4373   -0.9776 H   0  0  0  0  0  0  0  0  0  0  0  0
    4.0065    1.7555   -2.9827 H   0  0  0  0  0  0  0  0  0  0  0  0
    1.9174    1.9235   -1.7705 H   0  0  0  0  0  0  0  0  0  0  0  0
    2.1477    0.2911   -2.4355 H   0  0  0  0  0  0  0  0  0  0  0  0
    3.1137   -0.3935   -0.1276 H   0  0  0  0  0  0  0  0  0  0  0  0
    2.7290    1.2210    0.4380 H   0  0  0  0  0  0  0  0  0  0  0  0
   -1.2565   -0.8925    0.9132 H   0  0  0  0  0  0  0  0  0  0  0  0
   -0.8041    0.9496   -1.3781 H   0  0  0  0  0  0  0  0  0  0  0  0
   -1.9469    2.6243   -0.1640 H   0  0  0  0  0  0  0  0  0  0  0  0
   -3.0499    0.4599    1.5901 H   0  0  0  0  0  0  0  0  0  0  0  0
   -2.8394    1.8180   -1.8473 H   0  0  0  0  0  0  0  0  0  0  0  0
    0.6857    2.0208   -0.2117 H   0  0  0  0  0  0  0  0  0  0  0  0
    1.4917    1.6253    1.9755 H   0  0  0  0  0  0  0  0  0  0  0  0
    0.5979   -0.4295    2.7018 H   0  0  0  0  0  0  0  0  0  0  0  0
   -1.0780    0.3127    2.9486 H   0  0  0  0  0  0  0  0  0  0  0  0
    0.3106    0.8380    3.8764 H   0  0  0  0  0  0  0  0  0  0  0  0
   -1.0258    2.6253    3.0300 H   0  0  0  0  0  0  0  0  0  0  0  0
    0.5613    3.3470    2.9474 H   0  0  0  0  0  0  0  0  0  0  0  0
   -0.4790    3.5624    1.5376 H   0  0  0  0  0  0  0  0  0  0  0  0
    3.7418    3.0176   -1.0703 H   0  0  0  0  0  0  0  0  0  0  0  0
   -1.9785   -3.1655    0.2073 H   0  0  0  0  0  0  0  0  0  0  0  0
   -1.7928   -3.3070   -1.5814 H   0  0  0  0  0  0  0  0  0  0  0  0
   -3.0790   -0.8781   -0.5454 H   0  0  0  0  0  0  0  0  0  0  0  0
   -1.8405   -0.1376   -2.8004 H   0  0  0  0  0  0  0  0  0  0  0  0
   -1.5683   -1.8649   -2.9756 H   0  0  0  0  0  0  0  0  0  0  0  0
   -4.2886   -0.6974   -2.3420 H   0  0  0  0  0  0  0  0  0  0  0  0
   -3.6786   -1.3100   -3.9653 H   0  0  0  0  0  0  0  0  0  0  0  0
   -3.5397   -3.5286   -3.1315 H   0  0  0  0  0  0  0  0  0  0  0  0
   -5.1147   -2.8231   -2.6713 H   0  0  0  0  0  0  0  0  0  0  0  0
   -3.9163   -4.1996   -0.9235 H   0  0  0  0  0  0  0  0  0  0  0  0
   -4.4780   -2.6104   -0.3452 H   0  0  0  0  0  0  0  0  0  0  0  0
   -0.1109   -4.7970    1.4282 H   0  0  0  0  0  0  0  0  0  0  0  0
    1.4298   -4.6691    2.2817 H   0  0  0  0  0  0  0  0  0  0  0  0
    1.5634   -2.4544    1.9547 H   0  0  0  0  0  0  0  0  0  0  0  0
   -0.1632   -2.5590    1.6652 H   0  0  0  0  0  0  0  0  0  0  0  0
    2.1320   -2.0208   -0.1230 H   0  0  0  0  0  0  0  0  0  0  0  0
    0.3985   -2.9192   -2.1445 H   0  0  0  0  0  0  0  0  0  0  0  0
    2.0671   -3.3274   -1.8266 H   0  0  0  0  0  0  0  0  0  0  0  0
    1.0673   -5.3194   -1.8406 H   0  0  0  0  0  0  0  0  0  0  0  0
   -0.3159   -4.9127   -0.7456 H   0  0  0  0  0  0  0  0  0  0  0  0
    1.4554   -6.1287    0.3584 H   0  0  0  0  0  0  0  0  0  0  0  0
    0.5552   -0.8202   -1.5784 H   0  0  0  0  0  0  0  0  0  0  0  0
   -2.9923    3.3599    1.9148 H   0  0  0  0  0  0  0  0  0  0  0  0
   -4.3393    3.2228   -0.2004 H   0  0  0  0  0  0  0  0  0  0  0  0
   -5.5587    2.2113    0.7502 H   0  0  0  0  0  0  0  0  0  0  0  0
   -6.0178    4.6480    0.6965 H   0  0  0  0  0  0  0  0  0  0  0  0
   -4.4483    4.8859    1.6373 H   0  0  0  0  0  0  0  0  0  0  0  0
   -6.9384    3.2213    2.3428 H   0  0  0  0  0  0  0  0  0  0  0  0
   -6.4298    4.7089    3.1552 H   0  0  0  0  0  0  0  0  0  0  0  0
   -4.5421    3.7979    4.1781 H   0  0  0  0  0  0  0  0  0  0  0  0
   -5.8300    2.5896    4.3610 H   0  0  0  0  0  0  0  0  0  0  0  0
   -3.5493    1.6833    3.7024 H   0  0  0  0  0  0  0  0  0  0  0  0
   -4.9424    1.1258    2.7136 H   0  0  0  0  0  0  0  0  0  0  0  0
    8.3560   -0.5913   -0.2134 H   0  0  0  0  0  0  0  0  0  0  0  0
    8.1229    0.8601    1.6263 H   0  0  0  0  0  0  0  0  0  0  0  0
    5.9934    1.9606   -3.5385 H   0  0  0  0  0  0  0  0  0  0  0  0
    5.8482    0.5845    0.5030 H   0  0  0  0  0  0  0  0  0  0  0  0
    8.0545    1.2648   -1.5248 H   0  0  0  0  0  0  0  0  0  0  0  0
    6.6093    2.2994   -1.2407 H   0  0  0  0  0  0  0  0  0  0  0  0
    6.8448   -0.5252   -2.3690 H   0  0  0  0  0  0  0  0  0  0  0  0
    4.4533   -0.6809   -2.6825 H   0  0  0  0  0  0  0  0  0  0  0  0
    4.8912   -0.4373   -0.9776 H   0  0  0  0  0  0  0  0  0  0  0  0
    4.0065    1.7555   -2.9827 H   0  0  0  0  0  0  0  0  0  0  0  0
    1.9174    1.9235   -1.7705 H   0  0  0  0  0  0  0  0  0  0  0  0
    2.1477    0.2911   -2.4355 H   0  0  0  0  0  0  0  0  0  0  0  0
    3.1137   -0.3935   -0.1276 H   0  0  0  0  0  0  0  0  0  0  0  0
    2.7290    1.2210    0.4380 H   0  0  0  0  0  0  0  0  0  0  0  0
   -1.2565   -0.8925    0.9132 H   0  0  0  0  0  0  0  0  0  0  0  0
   -0.8041    0.9496   -1.3781 H   0  0  0  0  0  0  0  0  0  0  0  0
   -1.9469    2.6243   -0.1640 H   0  0  0  0  0  0  0  0  0  0  0  0
   -3.0499    0.4599    1.5901 H   0  0  0  0  0  0  0  0  0  0  0  0
   -2.8394    1.8180   -1.8473 H   0  0  0  0  0  0  0  0  0  0  0  0
    0.6857    2.0208   -0.2117 H   0  0  0  0  0  0  0  0  0  0  0  0
    1.4917    1.6253    1.9755 H   0  0  0  0  0  0  0  0  0  0  0  0
    0.5979   -0.4295    2.7018 H   0  0  0  0  0  0  0  0  0  0  0  0
   -1.0780    0.3127    2.9486 H   0  0  0  0  0  0  0  0  0  0  0  0
    0.3106    0.8380    3.8764 H   0  0  0  0  0  0  0  0  0  0  0  0
   -1.0258    2.6253    3.0300 H   0  0  0  0  0  0  0  0  0  0  0  0
    0.5613    3.3470    2.9474 H   0  0  0  0  0  0  0  0  0  0  0  0
   -0.4790    3.5624    1.5376 H   0  0  0  0  0  0  0  0  0  0  0  0
    3.7418    3.0176   -1.0703 H   0  0  0  0  0  0  0  0  0  0  0  0
  1  2  1  0
  2  3  1  0
  3  4  1  0
  4  5  1  0
  1  6  1  0
  5  6  1  0
  7  8  1  0
  8  9  1  0
  9 10  1  0
 10 11  1  0
  7 12  1  0
 11 12  1  0
 12 13  1  0
  9 14  1  0
 15 16  1  0
 16 17  1  0
 17 18  1  0
 18 19  1  0
 15 20  1  0
 19 20  1  0
 21 24  1  0
 22 24  1  0
 24 25  1  0
 23 26  1  0
 25 26  1  0
 26 27  1  0
 27 28  1  0
 28 29  1  0
 29 30  1  0
 14 31  1  0
 30 31  1  0
  2 32  1  0
 14 32  1  0
 32 33  1  0
 33 34  1  0
 15 35  1  0
 34 35  1  0
 34 36  1  0
 31 37  1  0
 33 37  1  0
 37 38  1  0
 38 39  1  0
 38 40  1  0
 28 41  1  0
 42 43  1  0
 43 44  1  0
 44 45  1  0
 45 46  1  0
 42 47  1  0
 46 47  1  0
 48 49  1  0
 49 50  1  0
 50 51  1  0
 51 52  1  0
 48 53  1  0
 52 53  1  0
 53 54  1  0
 50 55  1  0
 56 57  1  0
 57 58  1  0
 58 59  1  0
 59 60  1  0
 56 61  1  0
 60 61  1  0
 62 65  1  0
 63 65  1  0
 65 66  1  0
 64 67  1  0
 66 67  1  0
 67 68  1  0
 68 69  1  0
 69 70  1  0
 70 71  1  0
 55 72  1  0
 71 72  1  0
 43 73  1  0
 55 73  1  0
 73 74  1  0
 74 75  1  0
 56 76  1  0
 75 76  1  0
 75 77  1  0
 72 78  1  0
 74 78  1  0
 78 79  1  0
 79 80  1  0
 79 81  1  0
 69 82  1  0
 83 84  1  0
 84 85  1  0
 85 86  1  0
 86 87  1  0
 83 88  1  0
 87 88  1  0
 89 90  1  0
 90 91  1  0
 91 92  1  0
 92 93  1  0
 89 94  1  0
 93 94  1  0
 94 95  1  0
 91 96  1  0
 97 98  1  0
 98 99  1  0
 99100  1  0
100101  1  0
 97102  1  0
101102  1  0
103106  1  0
104106  1  0
106107  1  0
105108  1  0
107108  1  0
108109  1  0
109110  1  0
110111  1  0
111112  1  0
 96113  1  0
112113  1  0
 84114  1  0
 96114  1  0
114115  1  0
115116  1  0
 97117  1  0
116117  1  0
116118  1  0
113119  1  0
115119  1  0
119120  1  0
120121  1  0
120122  1  0
110123  1  0
124125  1  0
125126  1  0
126127  1  0
127128  1  0
124129  1  0
128129  1  0
130131  1  0
131132  1  0
132133  1  0
133134  1  0
130135  1  0
134135  1  0
135136  1  0
132137  1  0
138139  1  0
139140  1  0
140141  1  0
141142  1  0
138143  1  0
142143  1  0
144147  1  0
145147  1  0
147148  1  0
146149  1  0
148149  1  0
149150  1  0
150151  1  0
151152  1  0
152153  1  0
137154  1  0
153154  1  0
125155  1  0
137155  1  0
155156  1  0
156157  1  0
138158  1  0
157158  1  0
157159  1  0
154160  1  0
156160  1  0
160161  1  0
161162  1  0
161163  1  0
151164  1  0
  1165  1  0
  1166  1  0
  2167  1  0
  3168  1  0
  3169  1  0
  4170  1  0
  4171  1  0
  5172  1  0
  5173  1  0
  6174  1  0
  6175  1  0
  7176  1  0
  7177  1  0
  8178  1  0
  8179  1  0
  9180  1  0
 10181  1  0
 10182  1  0
 11183  1  0
 11184  1  0
 12185  1  0
 14186  1  0
 15187  1  0
 16188  1  0
 16189  1  0
 17190  1  0
 17191  1  0
 18192  1  0
 18193  1  0
 19194  1  0
 19195  1  0
 20196  1  0
 20197  1  0
 21198  1  0
 22199  1  0
 23200  1  0
 24201  1  0
 25202  1  0
 25203  1  0
 26204  1  6
 27205  1  0
 27206  1  0
 28207  1  6
 29208  1  0
 29209  1  0
 30210  1  0
 30211  1  0
 32212  1  0
 33213  1  0
 34214  1  0
 35215  1  0
 36216  1  0
 37217  1  0
 38218  1  0
 39219  1  0
 39220  1  0
 39221  1  0
 40222  1  0
 40223  1  0
 40224  1  0
 41225  1  0
 42226  1  0
 42227  1  0
 43228  1  0
 44229  1  0
 44230  1  0
 45231  1  0
 45232  1  0
 46233  1  0
 46234  1  0
 47235  1  0
 47236  1  0
 48237  1  0
 48238  1  0
 49239  1  0
 49240  1  0
 50241  1  0
 51242  1  0
 51243  1  0
 52244  1  0
 52245  1  0
 53246  1  0
 55247  1  0
 56248  1  0
 57249  1  0
 57250  1  0
 58251  1  0
 58252  1  0
 59253  1  0
 59254  1  0
 60255  1  0
 60256  1  0
 61257  1  0
 61258  1  0
 62259  1  0
 63260  1  0
 64261  1  0
 65262  1  0
 66263  1  0
 66264  1  0
 67265  1  6
 68266  1  0
 68267  1  0
 69268  1  6
 70269  1  0
 70270  1  0
 71271  1  0
 71272  1  0
 73273  1  0
 74274  1  0
 75275  1  0
 76276  1  0
 77277  1  0
 78278  1  0
 79279  1  0
 80280  1  0
 80281  1  0
 80282  1  0
 81283  1  0
 81284  1  0
 81285  1  0
 82286  1  0
 83287  1  0
 83288  1  0
 84289  1  0
 85290  1  0
 85291  1  0
 86292  1  0
 86293  1  0
 87294  1  0
 87295  1  0
 88296  1  0
 88297  1  0
 89298  1  0
 89299  1  0
 90300  1  0
 90301  1  0
 91302  1  0
 92303  1  0
 92304  1  0
 93305  1  0
 93306  1  0
 94307  1  0
 96308  1  0
 97309  1  0
 98310  1  0
 98311  1  0
 99312  1  0
 99313  1  0
100314  1  0
100315  1  0
101316  1  0
101317  1  0
102318  1  0
102319  1  0
103320  1  0
104321  1  0
105322  1  0
106323  1  0
107324  1  0
107325  1  0
108326  1  6
109327  1  0
109328  1  0
110329  1  6
111330  1  0
111331  1  0
112332  1  0
112333  1  0
114334  1  0
115335  1  0
116336  1  0
117337  1  0
118338  1  0
119339  1  0
120340  1  0
121341  1  0
121342  1  0
121343  1  0
122344  1  0
122345  1  0
122346  1  0
123347  1  0
124348  1  0
124349  1  0
125350  1  0
126351  1  0
126352  1  0
127353  1  0
127354  1  0
128355  1  0
128356  1  0
129357  1  0
129358  1  0
130359  1  0
130360  1  0
131361  1  0
131362  1  0
132363  1  0
133364  1  0
133365  1  0
134366  1  0
134367  1  0
135368  1  0
137369  1  0
138370  1  0
139371  1  0
139372  1  0
140373  1  0
140374  1  0
141375  1  0
141376  1  0
142377  1  0
142378  1  0
143379  1  0
143380  1  0
144381  1  0
145382  1  0
146383  1  0
147384  1  0
148385  1  0
148386  1  0
149387  1  6
150388  1  0
150389  1  0
151390  1  6
152391  1  0
152392  1  0
153393  1  0
153394  1  0
155395  1  0
156396  1  0
157397  1  0
158398  1  0
159399  1  0
160400  1  0
161401  1  0
162402  1  0
162403  1  0
162404  1  0
163405  1  0
163406  1  0
163407  1  0
164408  1  0
M  END
>  <PDBID>  (1) 
1HWK

>  <PDB ID>  (1) 
1HWK

>  <Generic Name>  (1) 
Atorvastatin

>  <Brand Name>  (1) 
Ach-atorvastatin Calcium#Act Atorvastatin#Amlodipine Besylate and Atorvastatin Calcium#Amlodipine Besylate/atorvastatin Calcium#Apo-amlodipine-atorvastatin#Apo-atorvastatin#Atorvastatin#Atorvastatin Calcium#Atorvastatin-10#Atorvastatin-20#Atorvastatin-40#Atorvastatin-80#Auro-atorvastatin#Ava-atorvastatin#Caduet#Dom-atorvastatin#Gd-amlodipine/atorvastatin#Gd-atorvastatin#Jamp-atorvastatin#Lipitor#Liptruzet#Mar-atorvastatin#Mylan-amlodipine/atorvastatin#Mylan-atorvastatin#Novo-atorvastatin#Ntp-atorvastatin#PMS-amlodipine-atorvastatin#PMS-atorvastatin#Pendo-amlodipine-atorvastatin#Q-gen Atorvastatin#Ran-atorvastatin#Ratio-atorvastatin#Rbx-atorvastatin#Reddy-atorvastatin#Riva-atorvastatin#Sandoz Atorvastatin#Atogal#Cardyl#Faboxim#Hipolixan#Lipotropic#Liprimar#Lowden#Normalip#Sincol#Sortis#Torvacard#Torvast#Totalip#Tulip#Vastina#Xanator#Xarator#Zurinel

>  <DrugBank ID>  (1) 
DB01076

>  <ATC Codes>  (1) 
C10AA05#C10BA05#C10BX06#C10BX11#C10BX03#C10BX08

>  <Ligand ID>  (1) 
117

>  <Target Name>  (1) 
3-hydroxy-3-methylglutaryl-coenzyme A reductase

>  <UniProt ID>  (1) 
P04035

>  <PDB ID.1>  (1) 
1HWK

>  <Seq. Identity>  (1) 
97%

$$$$
