PDB_DB00255_00
     RDKit          3D

108110  0  0  0  0  0  0  0  0999 V2000
    1.7086   -2.7586    1.2500 C   0  0  0  0  0  0  0  0  0  0  0  0
    0.7770   -2.3015    0.1567 C   0  0  0  0  0  0  0  0  0  0  0  0
    0.3020   -0.8696    0.3707 C   0  0  0  0  0  0  0  0  0  0  0  0
    1.5612   -0.0424    0.4031 C   0  0  0  0  0  0  0  0  0  0  0  0
    2.3412   -0.0719   -0.8633 C   0  0  0  0  0  0  0  0  0  0  0  0
    3.7892    0.1618   -0.5130 C   0  0  0  0  0  0  0  0  0  0  0  0
    4.0664    1.1711    0.5114 C   0  0  0  0  0  0  0  0  0  0  0  0
    4.5084    2.3502   -0.1361 O   0  0  0  0  0  0  0  0  0  0  0  0
    3.0161    1.5445    1.4677 C   0  0  0  0  0  0  0  0  0  0  0  0
    1.5806    1.3194    0.9235 C   0  0  0  0  0  0  0  0  0  0  0  0
   -0.7210   -0.4744   -0.6315 C   0  0  0  0  0  0  0  0  0  0  0  0
   -1.3227    0.8837   -0.4614 C   0  0  0  0  0  0  0  0  0  0  0  0
   -2.3291    1.2386   -1.5324 C   0  0  0  0  0  0  0  0  0  0  0  0
   -3.7421    0.8987   -1.2850 C   0  0  0  0  0  0  0  0  0  0  0  0
   -3.9976    0.5082    0.1591 C   0  0  0  0  0  0  0  0  0  0  0  0
   -5.3485    0.7201    0.4821 O   0  0  0  0  0  0  0  0  0  0  0  0
   -3.2014    1.4854    0.9890 C   0  0  0  0  0  0  0  0  0  0  0  0
   -1.7142    1.2621    0.9189 C   0  0  0  0  0  0  0  0  0  0  0  0
   -1.5677   -1.5183   -1.2666 C   0  0  0  0  0  0  0  0  0  0  0  0
   -0.8607   -2.5293   -2.1385 C   0  0  0  0  0  0  0  0  0  0  0  0
    1.7086   -2.7586    1.2500 C   0  0  0  0  0  0  0  0  0  0  0  0
    0.7770   -2.3015    0.1567 C   0  0  0  0  0  0  0  0  0  0  0  0
    0.3020   -0.8696    0.3707 C   0  0  0  0  0  0  0  0  0  0  0  0
    1.5612   -0.0424    0.4031 C   0  0  0  0  0  0  0  0  0  0  0  0
    2.3412   -0.0719   -0.8633 C   0  0  0  0  0  0  0  0  0  0  0  0
    3.7892    0.1618   -0.5130 C   0  0  0  0  0  0  0  0  0  0  0  0
    4.0664    1.1711    0.5114 C   0  0  0  0  0  0  0  0  0  0  0  0
    4.5084    2.3502   -0.1361 O   0  0  0  0  0  0  0  0  0  0  0  0
    3.0161    1.5445    1.4677 C   0  0  0  0  0  0  0  0  0  0  0  0
    1.5806    1.3194    0.9235 C   0  0  0  0  0  0  0  0  0  0  0  0
   -0.7210   -0.4744   -0.6315 C   0  0  0  0  0  0  0  0  0  0  0  0
   -1.3227    0.8837   -0.4614 C   0  0  0  0  0  0  0  0  0  0  0  0
   -2.3291    1.2386   -1.5324 C   0  0  0  0  0  0  0  0  0  0  0  0
   -3.7421    0.8987   -1.2850 C   0  0  0  0  0  0  0  0  0  0  0  0
   -3.9976    0.5082    0.1591 C   0  0  0  0  0  0  0  0  0  0  0  0
   -5.3485    0.7201    0.4821 O   0  0  0  0  0  0  0  0  0  0  0  0
   -3.2014    1.4854    0.9890 C   0  0  0  0  0  0  0  0  0  0  0  0
   -1.7142    1.2621    0.9189 C   0  0  0  0  0  0  0  0  0  0  0  0
   -1.5677   -1.5183   -1.2666 C   0  0  0  0  0  0  0  0  0  0  0  0
   -0.8607   -2.5293   -2.1385 C   0  0  0  0  0  0  0  0  0  0  0  0
    1.6072   -3.8564    1.3887 H   0  0  0  0  0  0  0  0  0  0  0  0
    1.4793   -2.3056    2.2378 H   0  0  0  0  0  0  0  0  0  0  0  0
    2.7681   -2.5645    1.0488 H   0  0  0  0  0  0  0  0  0  0  0  0
    1.2095   -2.4521   -0.7879 H   0  0  0  0  0  0  0  0  0  0  0  0
   -0.1439   -2.9178    0.3345 H   0  0  0  0  0  0  0  0  0  0  0  0
   -0.1356   -0.8580    1.3799 H   0  0  0  0  0  0  0  0  0  0  0  0
    2.1945   -0.6168    1.2247 H   0  0  0  0  0  0  0  0  0  0  0  0
    1.9712    0.8091   -1.4741 H   0  0  0  0  0  0  0  0  0  0  0  0
    2.2387   -0.9262   -1.5129 H   0  0  0  0  0  0  0  0  0  0  0  0
    4.1856   -0.8569   -0.2228 H   0  0  0  0  0  0  0  0  0  0  0  0
    4.3078    0.3701   -1.4915 H   0  0  0  0  0  0  0  0  0  0  0  0
    4.9730    0.8360    1.1006 H   0  0  0  0  0  0  0  0  0  0  0  0
    4.9880    2.1415   -0.9725 H   0  0  0  0  0  0  0  0  0  0  0  0
    3.0293    2.6121    1.7670 H   0  0  0  0  0  0  0  0  0  0  0  0
    3.0514    0.9618    2.4116 H   0  0  0  0  0  0  0  0  0  0  0  0
    0.9537    1.5728    1.7856 H   0  0  0  0  0  0  0  0  0  0  0  0
    1.5008    2.1576    0.1866 H   0  0  0  0  0  0  0  0  0  0  0  0
    0.0111   -0.2592   -1.5640 H   0  0  0  0  0  0  0  0  0  0  0  0
   -0.4744    1.6207   -0.6881 H   0  0  0  0  0  0  0  0  0  0  0  0
   -2.2419    2.3378   -1.7864 H   0  0  0  0  0  0  0  0  0  0  0  0
   -1.9928    0.7326   -2.4847 H   0  0  0  0  0  0  0  0  0  0  0  0
   -4.3433    1.8661   -1.4304 H   0  0  0  0  0  0  0  0  0  0  0  0
   -4.2264    0.2233   -2.0069 H   0  0  0  0  0  0  0  0  0  0  0  0
   -3.6985   -0.5082    0.4174 H   0  0  0  0  0  0  0  0  0  0  0  0
   -5.5743    1.6211    0.1004 H   0  0  0  0  0  0  0  0  0  0  0  0
   -3.5949    1.5172    2.0210 H   0  0  0  0  0  0  0  0  0  0  0  0
   -3.4200    2.5071    0.5605 H   0  0  0  0  0  0  0  0  0  0  0  0
   -1.4133    0.5828    1.7332 H   0  0  0  0  0  0  0  0  0  0  0  0
   -1.2774    2.2577    1.2601 H   0  0  0  0  0  0  0  0  0  0  0  0
   -2.3539   -1.0827   -1.9055 H   0  0  0  0  0  0  0  0  0  0  0  0
   -2.1795   -2.0868   -0.4949 H   0  0  0  0  0  0  0  0  0  0  0  0
   -1.5420   -2.7848   -3.0469 H   0  0  0  0  0  0  0  0  0  0  0  0
    0.0138   -2.1055   -2.6844 H   0  0  0  0  0  0  0  0  0  0  0  0
   -0.7164   -3.5238   -1.7062 H   0  0  0  0  0  0  0  0  0  0  0  0
    1.6072   -3.8564    1.3887 H   0  0  0  0  0  0  0  0  0  0  0  0
    1.4793   -2.3056    2.2378 H   0  0  0  0  0  0  0  0  0  0  0  0
    2.7681   -2.5645    1.0488 H   0  0  0  0  0  0  0  0  0  0  0  0
    1.2095   -2.4521   -0.7879 H   0  0  0  0  0  0  0  0  0  0  0  0
   -0.1439   -2.9178    0.3345 H   0  0  0  0  0  0  0  0  0  0  0  0
   -0.1356   -0.8580    1.3799 H   0  0  0  0  0  0  0  0  0  0  0  0
    2.1945   -0.6168    1.2247 H   0  0  0  0  0  0  0  0  0  0  0  0
    1.9712    0.8091   -1.4741 H   0  0  0  0  0  0  0  0  0  0  0  0
    2.2387   -0.9262   -1.5129 H   0  0  0  0  0  0  0  0  0  0  0  0
    4.1856   -0.8569   -0.2228 H   0  0  0  0  0  0  0  0  0  0  0  0
    4.3078    0.3701   -1.4915 H   0  0  0  0  0  0  0  0  0  0  0  0
    4.9730    0.8360    1.1006 H   0  0  0  0  0  0  0  0  0  0  0  0
    4.9880    2.1415   -0.9725 H   0  0  0  0  0  0  0  0  0  0  0  0
    3.0293    2.6121    1.7670 H   0  0  0  0  0  0  0  0  0  0  0  0
    3.0514    0.9618    2.4116 H   0  0  0  0  0  0  0  0  0  0  0  0
    0.9537    1.5728    1.7856 H   0  0  0  0  0  0  0  0  0  0  0  0
    1.5008    2.1576    0.1866 H   0  0  0  0  0  0  0  0  0  0  0  0
    0.0111   -0.2592   -1.5640 H   0  0  0  0  0  0  0  0  0  0  0  0
   -0.4744    1.6207   -0.6881 H   0  0  0  0  0  0  0  0  0  0  0  0
   -2.2419    2.3378   -1.7864 H   0  0  0  0  0  0  0  0  0  0  0  0
   -1.9928    0.7326   -2.4847 H   0  0  0  0  0  0  0  0  0  0  0  0
   -4.3433    1.8661   -1.4304 H   0  0  0  0  0  0  0  0  0  0  0  0
   -4.2264    0.2233   -2.0069 H   0  0  0  0  0  0  0  0  0  0  0  0
   -3.6985   -0.5082    0.4174 H   0  0  0  0  0  0  0  0  0  0  0  0
   -5.5743    1.6211    0.1004 H   0  0  0  0  0  0  0  0  0  0  0  0
   -3.5949    1.5172    2.0210 H   0  0  0  0  0  0  0  0  0  0  0  0
   -3.4200    2.5071    0.5605 H   0  0  0  0  0  0  0  0  0  0  0  0
   -1.4133    0.5828    1.7332 H   0  0  0  0  0  0  0  0  0  0  0  0
   -1.2774    2.2577    1.2601 H   0  0  0  0  0  0  0  0  0  0  0  0
   -2.3539   -1.0827   -1.9055 H   0  0  0  0  0  0  0  0  0  0  0  0
   -2.1795   -2.0868   -0.4949 H   0  0  0  0  0  0  0  0  0  0  0  0
   -1.5420   -2.7848   -3.0469 H   0  0  0  0  0  0  0  0  0  0  0  0
    0.0138   -2.1055   -2.6844 H   0  0  0  0  0  0  0  0  0  0  0  0
   -0.7164   -3.5238   -1.7062 H   0  0  0  0  0  0  0  0  0  0  0  0
  1  2  1  0
  2  3  1  0
  3  4  1  0
  4  5  1  0
  5  6  1  0
  6  7  1  0
  7  8  1  0
  7  9  1  0
  4 10  1  0
  9 10  1  0
  3 11  1  0
 11 12  1  0
 12 13  1  0
 13 14  1  0
 14 15  1  0
 15 16  1  0
 15 17  1  0
 12 18  1  0
 17 18  1  0
 11 19  1  0
 19 20  1  0
 21 22  1  0
 22 23  1  0
 23 24  1  0
 24 25  1  0
 25 26  1  0
 26 27  1  0
 27 28  1  0
 27 29  1  0
 24 30  1  0
 29 30  1  0
 23 31  1  0
 31 32  1  0
 32 33  1  0
 33 34  1  0
 34 35  1  0
 35 36  1  0
 35 37  1  0
 32 38  1  0
 37 38  1  0
 31 39  1  0
 39 40  1  0
  1 41  1  0
  1 42  1  0
  1 43  1  0
  2 44  1  0
  2 45  1  0
  3 46  1  0
  4 47  1  0
  5 48  1  0
  5 49  1  0
  6 50  1  0
  6 51  1  0
  7 52  1  0
  8 53  1  0
  9 54  1  0
  9 55  1  0
 10 56  1  0
 10 57  1  0
 11 58  1  0
 12 59  1  0
 13 60  1  0
 13 61  1  0
 14 62  1  0
 14 63  1  0
 15 64  1  0
 16 65  1  0
 17 66  1  0
 17 67  1  0
 18 68  1  0
 18 69  1  0
 19 70  1  0
 19 71  1  0
 20 72  1  0
 20 73  1  0
 20 74  1  0
 21 75  1  0
 21 76  1  0
 21 77  1  0
 22 78  1  0
 22 79  1  0
 23 80  1  0
 24 81  1  0
 25 82  1  0
 25 83  1  0
 26 84  1  0
 26 85  1  0
 27 86  1  0
 28 87  1  0
 29 88  1  0
 29 89  1  0
 30 90  1  0
 30 91  1  0
 31 92  1  0
 32 93  1  0
 33 94  1  0
 33 95  1  0
 34 96  1  0
 34 97  1  0
 35 98  1  0
 36 99  1  0
 37100  1  0
 37101  1  0
 38102  1  0
 38103  1  0
 39104  1  0
 39105  1  0
 40106  1  0
 40107  1  0
 40108  1  0
M  END
>  <PDBID>  (1) 
4ZN7

>  <PDB ID>  (1) 
4ZN7

>  <Generic Name>  (1) 
Diethylstilbestrol

>  <Brand Name>  (1) 
Honvol Ampoules 250mg#Honvol Tablets 100mg#Stilbestrol 0.5mg Tablet#Stilbestrol 1.0mg Tablet#Stilbestrol Tab 1mg#Stilbestrol Tablets 0.1 mg#Stilbestrol Tablets 0.5 mg#Stilbestrol Tablets 1.0 mg#Stilboestrol Tab 0.1mg#Stilboestrol Tab 0.5mg#Distilbene#Stilbestrol#Stilbetin

>  <DrugBank ID>  (1) 
DB00255

>  <ATC Codes>  (1) 
L02AA01#G03CC05#L02AA04#G03CB02

>  <Ligand ID>  (1) 
DES

>  <Target Name>  (1) 
Estrogen receptor

>  <UniProt ID>  (1) 
P03372

>  <PDB ID.1>  (1) 
4ZN7

>  <Seq. Identity>  (1) 
93%

$$$$
