PDB_DB01259_01
     RDKit          3D

 94 98  0  0  0  0  0  0  0  0999 V2000
   11.0075    3.0505    1.6984 C   0  0  0  0  0  0  0  0  0  0  0  0
   10.9914    1.7263    0.6451 S   0  0  0  0  0  0  0  0  0  0  0  0
   11.6321    2.2829   -0.8190 O   0  0  0  0  0  0  0  0  0  0  0  0
   11.9915    0.5817    1.1282 O   0  0  0  0  0  0  0  0  0  0  0  0
    9.4560    1.1412    0.3246 C   0  0  0  0  0  0  0  0  0  0  0  0
    8.6494    0.6367    1.4999 C   0  0  0  0  0  0  0  0  0  0  0  0
    7.3308    0.1701    1.0396 N   0  0  0  0  0  0  0  0  0  0  0  0
    6.4499    1.1948    0.6519 C   0  0  0  0  0  0  0  0  0  0  0  0
    5.2315    0.8785   -0.0749 C   0  0  0  0  0  0  0  0  0  0  0  0
    5.4463    0.2464   -1.4365 C   0  0  0  0  0  0  0  0  0  0  0  0
    4.0049    0.1574   -1.8790 C   0  0  0  0  0  0  0  0  0  0  0  0
    3.2545    0.1954   -0.5295 C   0  0  0  0  0  0  0  0  0  0  0  0
    4.2751    0.0571    0.4500 O   0  0  0  0  0  0  0  0  0  0  0  0
    2.3218   -0.9522   -0.5198 C   0  0  0  0  0  0  0  0  0  0  0  0
    3.0933   -2.2513   -0.4792 C   0  0  0  0  0  0  0  0  0  0  0  0
    2.1504   -3.3143   -1.0017 C   0  0  0  0  0  0  0  0  0  0  0  0
    0.7112   -2.9648   -0.8892 C   0  0  0  0  0  0  0  0  0  0  0  0
   -0.0611   -4.1965   -0.8598 N   0  0  0  0  0  0  0  0  0  0  0  0
   -1.4868   -3.9268   -0.7955 C   0  0  0  0  0  0  0  0  0  0  0  0
   -1.8154   -3.0848    0.3421 N   0  0  0  0  0  0  0  0  0  0  0  0
   -1.0955   -1.8069    0.1818 C   0  0  0  0  0  0  0  0  0  0  0  0
   -1.5364   -0.9105    1.1634 N   0  0  0  0  0  0  0  0  0  0  0  0
   -2.7712   -0.2534    0.9927 C   0  0  0  0  0  0  0  0  0  0  0  0
   -2.6832    0.6175   -0.2581 C   0  0  0  0  0  0  0  0  0  0  0  0
   -3.8465    1.5485   -0.3872 C   0  0  0  0  0  0  0  0  0  0  0  0
   -5.1968    0.8799   -0.1376 C   0  0  0  0  0  0  0  0  0  0  0  0
   -5.7631    1.2741    1.0262 O   0  0  0  0  0  0  0  0  0  0  0  0
   -6.9504    1.8670    1.0997 C   0  0  0  0  0  0  0  0  0  0  0  0
   -8.2052    1.1985    0.6772 C   0  0  0  0  0  0  0  0  0  0  0  0
   -9.3195    2.2535    0.9743 C   0  0  0  0  0  0  0  0  0  0  0  0
  -10.6748    1.6185    1.0011 C   0  0  0  0  0  0  0  0  0  0  0  0
  -10.6183    0.3154    0.2068 C   0  0  0  0  0  0  0  0  0  0  0  0
   -9.7999    0.5063   -1.0492 C   0  0  0  0  0  0  0  0  0  0  0  0
   -9.9215   -0.6762   -1.7738 F   0  0  0  0  0  0  0  0  0  0  0  0
   -8.3351    0.8111   -0.7499 C   0  0  0  0  0  0  0  0  0  0  0  0
   -5.0126   -0.6177   -0.1069 C   0  0  0  0  0  0  0  0  0  0  0  0
   -4.5613   -1.2889   -1.6925 Cl  0  0  0  0  0  0  0  0  0  0  0  0
   -4.0149   -1.0524    0.9786 C   0  0  0  0  0  0  0  0  0  0  0  0
    0.3581   -2.1793    0.3856 C   0  0  0  0  0  0  0  0  0  0  0  0
    1.2648   -0.9659    0.5409 C   0  0  0  0  0  0  0  0  0  0  0  0
   10.0122    3.4787    1.8706 H   0  0  0  0  0  0  0  0  0  0  0  0
   11.5268    2.7923    2.6276 H   0  0  0  0  0  0  0  0  0  0  0  0
   11.6278    3.8793    1.2428 H   0  0  0  0  0  0  0  0  0  0  0  0
   10.9037    2.3315   -1.4927 H   0  0  0  0  0  0  0  0  0  0  0  0
   12.9359    0.7791    0.8265 H   0  0  0  0  0  0  0  0  0  0  0  0
    9.5394    0.2490   -0.3790 H   0  0  0  0  0  0  0  0  0  0  0  0
    8.8638    1.8709   -0.2522 H   0  0  0  0  0  0  0  0  0  0  0  0
    8.5288    1.4766    2.2474 H   0  0  0  0  0  0  0  0  0  0  0  0
    9.1175   -0.2368    1.9889 H   0  0  0  0  0  0  0  0  0  0  0  0
    7.5182   -0.5944    0.3728 H   0  0  0  0  0  0  0  0  0  0  0  0
    6.1137    1.6947    1.6331 H   0  0  0  0  0  0  0  0  0  0  0  0
    6.9974    2.0160    0.1510 H   0  0  0  0  0  0  0  0  0  0  0  0
    4.6997    1.8545   -0.3048 H   0  0  0  0  0  0  0  0  0  0  0  0
    5.8439   -0.7624   -1.3832 H   0  0  0  0  0  0  0  0  0  0  0  0
    5.9799    0.9280   -2.0980 H   0  0  0  0  0  0  0  0  0  0  0  0
    3.7082    1.0425   -2.4915 H   0  0  0  0  0  0  0  0  0  0  0  0
    3.7391   -0.7230   -2.4476 H   0  0  0  0  0  0  0  0  0  0  0  0
    2.7804    1.1813   -0.4432 H   0  0  0  0  0  0  0  0  0  0  0  0
    1.7172   -0.9597   -1.5080 H   0  0  0  0  0  0  0  0  0  0  0  0
    3.3742   -2.4477    0.5826 H   0  0  0  0  0  0  0  0  0  0  0  0
    3.9655   -2.1940   -1.1397 H   0  0  0  0  0  0  0  0  0  0  0  0
    2.4062   -4.2916   -0.5531 H   0  0  0  0  0  0  0  0  0  0  0  0
    2.3800   -3.4291   -2.0982 H   0  0  0  0  0  0  0  0  0  0  0  0
    0.3293   -2.3661   -1.7693 H   0  0  0  0  0  0  0  0  0  0  0  0
    0.0816   -4.6255   -1.8213 H   0  0  0  0  0  0  0  0  0  0  0  0
   -1.9716   -4.9085   -0.6192 H   0  0  0  0  0  0  0  0  0  0  0  0
   -1.8625   -3.4458   -1.7108 H   0  0  0  0  0  0  0  0  0  0  0  0
   -1.3792   -3.5437    1.1719 H   0  0  0  0  0  0  0  0  0  0  0  0
   -1.1642   -1.4533   -0.8663 H   0  0  0  0  0  0  0  0  0  0  0  0
   -0.8796   -0.5325    1.8434 H   0  0  0  0  0  0  0  0  0  0  0  0
   -2.8676    0.4938    1.8367 H   0  0  0  0  0  0  0  0  0  0  0  0
   -2.4675    0.0482   -1.1694 H   0  0  0  0  0  0  0  0  0  0  0  0
   -1.7706    1.2593   -0.0777 H   0  0  0  0  0  0  0  0  0  0  0  0
   -3.8651    1.9149   -1.4480 H   0  0  0  0  0  0  0  0  0  0  0  0
   -3.7390    2.4476    0.2366 H   0  0  0  0  0  0  0  0  0  0  0  0
   -5.8634    1.1102   -0.9877 H   0  0  0  0  0  0  0  0  0  0  0  0
   -7.1172    2.1509    2.1975 H   0  0  0  0  0  0  0  0  0  0  0  0
   -6.8940    2.8475    0.5169 H   0  0  0  0  0  0  0  0  0  0  0  0
   -8.4069    0.3092    1.2996 H   0  0  0  0  0  0  0  0  0  0  0  0
   -9.2690    2.9653    0.1472 H   0  0  0  0  0  0  0  0  0  0  0  0
   -9.0598    2.6615    1.9680 H   0  0  0  0  0  0  0  0  0  0  0  0
  -11.0182    1.3927    2.0129 H   0  0  0  0  0  0  0  0  0  0  0  0
  -11.4445    2.3008    0.5430 H   0  0  0  0  0  0  0  0  0  0  0  0
  -11.6501    0.1003   -0.1180 H   0  0  0  0  0  0  0  0  0  0  0  0
  -10.2785   -0.4945    0.8498 H   0  0  0  0  0  0  0  0  0  0  0  0
  -10.2809    1.2860   -1.6692 H   0  0  0  0  0  0  0  0  0  0  0  0
   -7.7838   -0.1106   -0.9909 H   0  0  0  0  0  0  0  0  0  0  0  0
   -8.0813    1.6530   -1.4445 H   0  0  0  0  0  0  0  0  0  0  0  0
   -5.9758   -1.0947    0.1791 H   0  0  0  0  0  0  0  0  0  0  0  0
   -4.5947   -0.9380    1.9443 H   0  0  0  0  0  0  0  0  0  0  0  0
   -3.9106   -2.1383    0.8605 H   0  0  0  0  0  0  0  0  0  0  0  0
    0.4483   -2.8981    1.2091 H   0  0  0  0  0  0  0  0  0  0  0  0
    1.7871   -1.0694    1.5185 H   0  0  0  0  0  0  0  0  0  0  0  0
    0.7184   -0.0255    0.5574 H   0  0  0  0  0  0  0  0  0  0  0  0
  1  2  1  0
  2  3  1  0
  2  4  1  0
  2  5  1  0
  5  6  1  0
  6  7  1  0
  7  8  1  0
  8  9  1  0
  9 10  1  0
 10 11  1  0
 11 12  1  0
  9 13  1  0
 12 13  1  0
 12 14  1  0
 14 15  1  0
 15 16  1  0
 16 17  1  0
 17 18  1  0
 18 19  1  0
 19 20  1  0
 20 21  1  0
 21 22  1  0
 22 23  1  0
 23 24  1  0
 24 25  1  0
 25 26  1  0
 26 27  1  0
 27 28  1  0
 28 29  1  0
 29 30  1  0
 30 31  1  0
 31 32  1  0
 32 33  1  0
 33 34  1  0
 29 35  1  0
 33 35  1  0
 26 36  1  0
 36 37  1  0
 23 38  1  0
 36 38  1  0
 17 39  1  0
 21 39  1  0
 14 40  1  0
 39 40  1  0
  1 41  1  0
  1 42  1  0
  1 43  1  0
  3 44  1  0
  4 45  1  0
  5 46  1  0
  5 47  1  0
  6 48  1  0
  6 49  1  0
  7 50  1  0
  8 51  1  0
  8 52  1  0
  9 53  1  0
 10 54  1  0
 10 55  1  0
 11 56  1  0
 11 57  1  0
 12 58  1  0
 14 59  1  0
 15 60  1  0
 15 61  1  0
 16 62  1  0
 16 63  1  0
 17 64  1  0
 18 65  1  0
 19 66  1  0
 19 67  1  0
 20 68  1  0
 21 69  1  0
 22 70  1  0
 23 71  1  0
 24 72  1  0
 24 73  1  0
 25 74  1  0
 25 75  1  0
 26 76  1  0
 28 77  1  0
 28 78  1  0
 29 79  1  0
 30 80  1  0
 30 81  1  0
 31 82  1  0
 31 83  1  0
 32 84  1  0
 32 85  1  0
 33 86  1  0
 35 87  1  0
 35 88  1  0
 36 89  1  0
 38 90  1  0
 38 91  1  0
 39 92  1  0
 40 93  1  0
 40 94  1  0
M  END
>  <PDBID>  (1) 
1XKK

>  <PDB ID>  (1) 
1XKK

>  <Generic Name>  (1) 
Lapatinib

>  <Brand Name>  (1) 
Tykerb#Tycerb

>  <DrugBank ID>  (1) 
DB01259

>  <ATC Codes>  (1) 
L01XE07

>  <Ligand ID>  (1) 
FMM

>  <Target Name>  (1) 
Receptor tyrosine-protein kinase erbB-2

>  <UniProt ID>  (1) 
P04626

>  <PDB ID.1>  (1) 
1XKK

>  <Seq. Identity>  (1) 
78%

$$$$
