PDB_DB00190_02
     RDKit          3D

 74 74  0  0  0  0  0  0  0  0999 V2000
   -2.1598    1.1755    1.4030 N   0  0  0  0  0  0  0  0  0  0  0  0
   -2.5205    0.3287    2.4208 N   0  0  0  0  0  0  0  0  0  0  0  0
   -1.9135    0.5507    0.1408 C   0  0  2  0  0  0  0  0  0  0  0  0
   -0.8521   -0.4461    0.0941 C   0  0  0  0  0  0  0  0  0  0  0  0
   -1.7717    1.5970   -0.9282 C   0  0  0  0  0  0  0  0  0  0  0  0
    0.5357   -0.1007    0.4601 C   0  0  0  0  0  0  0  0  0  0  0  0
    1.3005   -1.4222    0.2695 C   0  0  0  0  0  0  0  0  0  0  0  0
    2.7651   -1.2994    0.4465 C   0  0  0  0  0  0  0  0  0  0  0  0
    1.1756    1.0282   -0.2592 C   0  0  0  0  0  0  0  0  0  0  0  0
    2.6896    0.9961   -0.2731 C   0  0  0  0  0  0  0  0  0  0  0  0
    3.2640   -0.3467   -0.6242 C   0  0  0  0  0  0  0  0  0  0  0  0
    4.6297   -0.2781   -0.5455 O   0  0  0  0  0  0  0  0  0  0  0  0
    3.3431   -2.5278    0.2308 O   0  0  0  0  0  0  0  0  0  0  0  0
   -3.2409   -0.1812   -0.2010 C   0  0  0  0  0  0  0  0  0  0  0  0
   -3.1398   -0.8349   -1.4112 O   0  0  0  0  0  0  0  0  0  0  0  0
   -4.2452    0.7761   -0.2032 O   0  0  0  0  0  0  0  0  0  0  0  0
   -2.1598    1.1755    1.4030 N   0  0  0  0  0  0  0  0  0  0  0  0
   -2.5205    0.3287    2.4208 N   0  0  0  0  0  0  0  0  0  0  0  0
   -1.9135    0.5507    0.1408 C   0  0  2  0  0  0  0  0  0  0  0  0
   -0.8521   -0.4461    0.0941 C   0  0  0  0  0  0  0  0  0  0  0  0
   -1.7717    1.5970   -0.9282 C   0  0  0  0  0  0  0  0  0  0  0  0
    0.5357   -0.1007    0.4601 C   0  0  0  0  0  0  0  0  0  0  0  0
    1.3005   -1.4222    0.2695 C   0  0  0  0  0  0  0  0  0  0  0  0
    2.7651   -1.2994    0.4465 C   0  0  0  0  0  0  0  0  0  0  0  0
    1.1756    1.0282   -0.2592 C   0  0  0  0  0  0  0  0  0  0  0  0
    2.6896    0.9961   -0.2731 C   0  0  0  0  0  0  0  0  0  0  0  0
    3.2640   -0.3467   -0.6242 C   0  0  0  0  0  0  0  0  0  0  0  0
    4.6297   -0.2781   -0.5455 O   0  0  0  0  0  0  0  0  0  0  0  0
    3.3431   -2.5278    0.2308 O   0  0  0  0  0  0  0  0  0  0  0  0
   -3.2409   -0.1812   -0.2010 C   0  0  0  0  0  0  0  0  0  0  0  0
   -3.1398   -0.8349   -1.4112 O   0  0  0  0  0  0  0  0  0  0  0  0
   -4.2452    0.7761   -0.2032 O   0  0  0  0  0  0  0  0  0  0  0  0
   -2.7876    1.9840    1.3414 H   0  0  0  0  0  0  0  0  0  0  0  0
   -1.9144   -0.5043    2.4977 H   0  0  0  0  0  0  0  0  0  0  0  0
   -1.1330   -1.3364    0.7402 H   0  0  0  0  0  0  0  0  0  0  0  0
   -0.8056   -0.9163   -0.9358 H   0  0  0  0  0  0  0  0  0  0  0  0
   -1.1316    2.4448   -0.6720 H   0  0  0  0  0  0  0  0  0  0  0  0
   -1.4529    1.0801   -1.8761 H   0  0  0  0  0  0  0  0  0  0  0  0
   -2.8137    2.0005   -1.1188 H   0  0  0  0  0  0  0  0  0  0  0  0
    0.5538    0.0941    1.5611 H   0  0  0  0  0  0  0  0  0  0  0  0
    1.0964   -1.6996   -0.8058 H   0  0  0  0  0  0  0  0  0  0  0  0
    0.8064   -2.1782    0.8925 H   0  0  0  0  0  0  0  0  0  0  0  0
    2.9894   -0.8956    1.4436 H   0  0  0  0  0  0  0  0  0  0  0  0
    0.9612    2.0005    0.2867 H   0  0  0  0  0  0  0  0  0  0  0  0
    0.8445    1.1753   -1.2915 H   0  0  0  0  0  0  0  0  0  0  0  0
    3.0200    1.7389   -1.0279 H   0  0  0  0  0  0  0  0  0  0  0  0
    3.0188    1.2898    0.7661 H   0  0  0  0  0  0  0  0  0  0  0  0
    2.9256   -0.6398   -1.6191 H   0  0  0  0  0  0  0  0  0  0  0  0
    4.9338    0.4661    0.0368 H   0  0  0  0  0  0  0  0  0  0  0  0
    2.8586   -3.2554    0.7088 H   0  0  0  0  0  0  0  0  0  0  0  0
   -3.3946   -0.9402    0.5877 H   0  0  0  0  0  0  0  0  0  0  0  0
   -3.7296   -1.6443   -1.4052 H   0  0  0  0  0  0  0  0  0  0  0  0
   -4.7052    0.7206    0.6707 H   0  0  0  0  0  0  0  0  0  0  0  0
   -2.7876    1.9840    1.3414 H   0  0  0  0  0  0  0  0  0  0  0  0
   -1.9144   -0.5043    2.4977 H   0  0  0  0  0  0  0  0  0  0  0  0
   -1.1330   -1.3364    0.7402 H   0  0  0  0  0  0  0  0  0  0  0  0
   -0.8056   -0.9163   -0.9358 H   0  0  0  0  0  0  0  0  0  0  0  0
   -1.1316    2.4448   -0.6720 H   0  0  0  0  0  0  0  0  0  0  0  0
   -1.4529    1.0801   -1.8761 H   0  0  0  0  0  0  0  0  0  0  0  0
   -2.8137    2.0005   -1.1188 H   0  0  0  0  0  0  0  0  0  0  0  0
    0.5538    0.0941    1.5611 H   0  0  0  0  0  0  0  0  0  0  0  0
    1.0964   -1.6996   -0.8058 H   0  0  0  0  0  0  0  0  0  0  0  0
    0.8064   -2.1782    0.8925 H   0  0  0  0  0  0  0  0  0  0  0  0
    2.9894   -0.8956    1.4436 H   0  0  0  0  0  0  0  0  0  0  0  0
    0.9612    2.0005    0.2867 H   0  0  0  0  0  0  0  0  0  0  0  0
    0.8445    1.1753   -1.2915 H   0  0  0  0  0  0  0  0  0  0  0  0
    3.0200    1.7389   -1.0279 H   0  0  0  0  0  0  0  0  0  0  0  0
    3.0188    1.2898    0.7661 H   0  0  0  0  0  0  0  0  0  0  0  0
    2.9256   -0.6398   -1.6191 H   0  0  0  0  0  0  0  0  0  0  0  0
    4.9338    0.4661    0.0368 H   0  0  0  0  0  0  0  0  0  0  0  0
    2.8586   -3.2554    0.7088 H   0  0  0  0  0  0  0  0  0  0  0  0
   -3.3946   -0.9402    0.5877 H   0  0  0  0  0  0  0  0  0  0  0  0
   -3.7296   -1.6443   -1.4052 H   0  0  0  0  0  0  0  0  0  0  0  0
   -4.7052    0.7206    0.6707 H   0  0  0  0  0  0  0  0  0  0  0  0
  1  2  1  0
  3  1  1  1
  3  4  1  0
  3  5  1  0
  4  6  1  0
  6  7  1  0
  7  8  1  0
  6  9  1  0
  9 10  1  0
  8 11  1  0
 10 11  1  0
 11 12  1  0
  8 13  1  0
  3 14  1  0
 14 15  1  0
 14 16  1  0
 17 18  1  0
 19 17  1  1
 19 20  1  0
 19 21  1  0
 20 22  1  0
 22 23  1  0
 23 24  1  0
 22 25  1  0
 25 26  1  0
 24 27  1  0
 26 27  1  0
 27 28  1  0
 24 29  1  0
 19 30  1  0
 30 31  1  0
 30 32  1  0
  1 33  1  0
  2 34  1  0
  4 35  1  0
  4 36  1  0
  5 37  1  0
  5 38  1  0
  5 39  1  0
  6 40  1  0
  7 41  1  0
  7 42  1  0
  8 43  1  0
  9 44  1  0
  9 45  1  0
 10 46  1  0
 10 47  1  0
 11 48  1  0
 12 49  1  0
 13 50  1  0
 14 51  1  0
 15 52  1  0
 16 53  1  0
 17 54  1  0
 18 55  1  0
 20 56  1  0
 20 57  1  0
 21 58  1  0
 21 59  1  0
 21 60  1  0
 22 61  1  0
 23 62  1  0
 23 63  1  0
 24 64  1  0
 25 65  1  0
 25 66  1  0
 26 67  1  0
 26 68  1  0
 27 69  1  0
 28 70  1  0
 29 71  1  0
 30 72  1  0
 31 73  1  0
 32 74  1  0
M  END
>  <PDBID>  (1) 
1JS3

>  <PDB ID>  (1) 
1JS3

>  <Generic Name>  (1) 
Carbidopa

>  <Brand Name>  (1) 
Apo-levocarb - Tab 10mg/100mg#Apo-levocarb - Tab 25mg/250mg#Apo-levocarb CR#Apo-levocarb-tab 25mg/100mg#Carbidopa#Carbidopa Tablets, 25 mg#Carbidopa and Levodopa#Carbidopa, Levodopa and Entacapone#Carbidopa, Levodopa, and Entacapone#Dom-levo-carbidopa#Duodopa#Duopa#Lodosyn#Mint-levocarb#Nu-levocarb - Tab 10mg/100mg#Nu-levocarb - Tab 25 Mg/100 mg#Nu-levocarb - Tablets 25 Mg/250 mg#PMS-levocarb CR#Parcopa#Pro-lecarb-100/10 - Tab#Pro-lecarb-100/25 - Tab#Pro-levocarb - 100/25#Ratio-levodopa/carbidopa#Rytary#Sinemet#Sinemet 100/10#Sinemet 100/25#Sinemet 250/25#Sinemet CR#Sinemet CR 100/25#Sinemet CR 200/50#Stalevo#Teva-levocarbidopa

>  <DrugBank ID>  (1) 
DB00190

>  <ATC Codes>  (1) 
nan

>  <Ligand ID>  (1) 
142

>  <Target Name>  (1) 
Aromatic-L-amino-acid decarboxylase

>  <UniProt ID>  (1) 
P20711

>  <PDB ID.1>  (1) 
1JS3

>  <Seq. Identity>  (1) 
90%

$$$$
