PDB_DB00615_09
     RDKit          3D

294304  0  0  0  0  0  0  0  0999 V2000
    1.2774    1.4080   -2.1537 C   0  0  0  0  0  0  0  0  0  0  0  0
    1.2285    1.8247   -0.6922 C   0  0  0  0  0  0  0  0  0  0  0  0
    2.1289    0.9481    0.0912 C   0  0  0  0  0  0  0  0  0  0  0  0
    2.7408   -0.1981   -0.7173 C   0  0  2  0  0  0  0  0  0  0  0  0
    0.9810   -2.0198   -0.8839 C   0  0  0  0  0  0  0  0  0  0  0  0
   -0.0462   -2.4288   -1.9542 C   0  0  0  0  0  0  0  0  0  0  0  0
    0.4526   -2.0977   -3.3584 C   0  0  0  0  0  0  0  0  0  0  0  0
    0.5672   -0.5786   -3.5536 C   0  0  0  0  0  0  0  0  0  0  0  0
    0.8327   -0.0255   -2.1977 C   0  0  0  0  0  0  0  0  0  0  0  0
    1.8265   -0.9764   -1.5056 C   0  0  0  0  0  0  0  0  0  0  0  0
    1.5926   -3.3314   -0.5717 C   0  0  2  0  0  0  0  0  0  0  0  0
    0.3460   -4.2304   -0.6875 C   0  0  2  0  0  0  0  0  0  0  0  0
    0.6890   -5.6771   -0.6609 C   0  0  0  0  0  0  0  0  0  0  0  0
   -0.6520   -2.5459   -4.2973 C   0  0  0  0  0  0  0  0  0  0  0  0
    1.8915    4.2035   -0.9104 C   0  0  0  0  0  0  0  0  0  0  0  0
    0.9864    5.4557   -0.8401 C   0  0  0  0  0  0  0  0  0  0  0  0
   -0.4130    4.9782   -1.1849 C   0  0  0  0  0  0  0  0  0  0  0  0
   -1.3731    5.0804   -0.0505 C   0  0  0  0  0  0  0  0  0  0  0  0
   -2.2536    3.8517    0.0884 C   0  0  0  0  0  0  0  0  0  0  0  0
   -3.3288    3.8454   -0.9779 C   0  0  1  0  0  0  0  0  0  0  0  0
   -4.0505    2.5577   -1.0834 C   0  0  1  0  0  0  0  0  0  0  0  0
   -4.4761    1.9280    0.2163 C   0  0  2  0  0  0  0  0  0  0  0  0
   -4.7778    0.4881   -0.0460 C   0  0  2  0  0  0  0  0  0  0  0  0
   -5.6901   -0.1842    0.8884 C   0  0  2  0  0  0  0  0  0  0  0  0
   -5.2324   -1.6119    1.2969 C   0  0  1  0  0  0  0  0  0  0  0  0
   -5.2620   -2.5512    0.1867 C   0  0  1  0  0  0  0  0  0  0  0  0
   -4.2210   -3.5510   -0.0537 C   0  0  2  0  0  0  0  0  0  0  0  0
   -2.9545   -3.5206    0.7165 C   0  0  0  0  0  0  0  0  0  0  0  0
   -1.8897   -4.2598   -0.1208 C   0  0  0  0  0  0  0  0  0  0  0  0
    1.0721    6.0674    0.5272 C   0  0  0  0  0  0  0  0  0  0  0  0
   -4.2134    5.0593   -0.8850 C   0  0  0  0  0  0  0  0  0  0  0  0
   -5.5485    2.7439    0.8186 C   0  0  0  0  0  0  0  0  0  0  0  0
   -7.0539   -0.3325    0.2383 C   0  0  0  0  0  0  0  0  0  0  0  0
   -6.6167   -3.2965    0.1985 C   0  0  0  0  0  0  0  0  0  0  0  0
   -4.2956   -1.5763    3.4055 C   0  0  0  0  0  0  0  0  0  0  0  0
   -3.3581   -2.5781    4.0299 C   0  0  0  0  0  0  0  0  0  0  0  0
   -4.2144   -4.7917   -2.0037 C   0  0  0  0  0  0  0  0  0  0  0  0
    4.2358    0.3822    0.7981 C   0  0  0  0  0  0  0  0  0  0  0  0
    5.4318    0.5031   -0.1201 C   0  0  0  0  0  0  0  0  0  0  0  0
    4.6817    0.2868    2.2181 C   0  0  0  0  0  0  0  0  0  0  0  0
    6.5442    1.1611    0.7103 C   0  0  0  0  0  0  0  0  0  0  0  0
    6.0116   -0.3572    2.4192 C   0  0  0  0  0  0  0  0  0  0  0  0
    8.2132    0.6148    2.2269 C   0  0  0  0  0  0  0  0  0  0  0  0
    8.8983   -0.3605    3.1447 C   0  0  0  0  0  0  0  0  0  0  0  0
   10.0986    0.3761    3.7513 C   0  0  0  0  0  0  0  0  0  0  0  0
    9.4470   -1.5532    2.4064 C   0  0  0  0  0  0  0  0  0  0  0  0
    1.1712    3.1631   -0.4038 N   0  0  0  0  0  0  0  0  0  0  0  0
    3.3215    1.5243    0.6067 N   0  0  0  0  0  0  0  0  0  0  0  0
    3.4591   -0.8080    0.3819 N   0  0  0  0  0  0  0  0  0  0  0  0
    7.0557    0.1017    1.5622 N   0  0  0  0  0  0  0  0  0  0  0  0
    2.4346    1.6387   -2.8116 O   0  0  0  0  0  0  0  0  0  0  0  0
    1.6737   -0.3430   -4.3651 O   0  0  0  0  0  0  0  0  0  0  0  0
   -0.1432   -3.8092   -1.9030 O   0  0  0  0  0  0  0  0  0  0  0  0
    2.0626   -3.5036    0.7010 O   0  0  0  0  0  0  0  0  0  0  0  0
   -0.6105   -3.8649    0.2738 O   0  0  0  0  0  0  0  0  0  0  0  0
   -3.8835   -3.5769   -1.4204 O   0  0  0  0  0  0  0  0  0  0  0  0
   -4.1110   -1.4208    2.0360 O   0  0  0  0  0  0  0  0  0  0  0  0
   -4.0374   -0.3526    4.0438 O   0  0  0  0  0  0  0  0  0  0  0  0
   -3.5649   -0.1941   -0.1014 O   0  0  0  0  0  0  0  0  0  0  0  0
   -5.1322    2.7269   -1.9504 O   0  0  0  0  0  0  0  0  0  0  0  0
    2.3999    4.1757   -2.1635 O   0  0  0  0  0  0  0  0  0  0  0  0
    1.0466    0.9512   -2.0671 C   0  0  0  0  0  0  0  0  0  0  0  0
    1.1841    1.5744   -0.7129 C   0  0  0  0  0  0  0  0  0  0  0  0
    2.0459    0.6841    0.1627 C   0  0  1  0  0  0  0  0  0  0  0  0
    2.8504   -0.3166   -0.6457 C   0  0  2  0  0  0  0  0  0  0  0  0
    1.8788   -2.6277   -1.0232 C   0  0  0  0  0  0  0  0  0  0  0  0
    1.1046   -3.3727   -2.0918 C   0  0  0  0  0  0  0  0  0  0  0  0
    0.8612   -2.6201   -3.3306 C   0  0  0  0  0  0  0  0  0  0  0  0
    0.3785   -1.2100   -3.1748 C   0  0  0  0  0  0  0  0  0  0  0  0
    0.7972   -0.5577   -1.9026 C   0  0  0  0  0  0  0  0  0  0  0  0
    2.0973   -1.2470   -1.4651 C   0  0  1  0  0  0  0  0  0  0  0  0
    1.1424   -2.9392    0.1962 C   0  0  0  0  0  0  0  0  0  0  0  0
    0.3731   -4.2127   -0.2175 C   0  0  2  0  0  0  0  0  0  0  0  0
    1.2837   -5.3941   -0.2984 C   0  0  0  0  0  0  0  0  0  0  0  0
   -0.2116   -3.3590   -4.1290 C   0  0  0  0  0  0  0  0  0  0  0  0
    1.9022    3.7358   -1.6366 C   0  0  0  0  0  0  0  0  0  0  0  0
    1.2665    5.1276   -1.4732 C   0  0  0  0  0  0  0  0  0  0  0  0
   -0.2207    5.0812   -1.5988 C   0  0  0  0  0  0  0  0  0  0  0  0
   -0.9551    5.0744   -0.2934 C   0  0  0  0  0  0  0  0  0  0  0  0
   -1.8398    3.8539   -0.1391 C   0  0  0  0  0  0  0  0  0  0  0  0
   -3.3001    4.1691   -0.3847 C   0  0  1  0  0  0  0  0  0  0  0  0
   -4.0423    3.0270   -0.9929 C   0  0  1  0  0  0  0  0  0  0  0  0
   -4.7687    2.1669    0.0271 C   0  0  2  0  0  0  0  0  0  0  0  0
   -4.8120    0.7573   -0.5864 C   0  0  2  0  0  0  0  0  0  0  0  0
   -5.7500   -0.1504    0.1275 C   0  0  2  0  0  0  0  0  0  0  0  0
   -5.1295   -1.3794    0.7231 C   0  0  1  0  0  0  0  0  0  0  0  0
   -4.3149   -2.2352   -0.1498 C   0  0  1  0  0  0  0  0  0  0  0  0
   -4.2992   -3.6456    0.4093 C   0  0  2  0  0  0  0  0  0  0  0  0
   -2.9727   -4.0045    1.0322 C   0  0  0  0  0  0  0  0  0  0  0  0
   -1.9306   -4.3796   -0.0043 C   0  0  0  0  0  0  0  0  0  0  0  0
    1.7698    5.8394   -0.2639 C   0  0  0  0  0  0  0  0  0  0  0  0
   -3.9178    4.7194    0.8587 C   0  0  0  0  0  0  0  0  0  0  0  0
   -6.1604    2.7393    0.1874 C   0  0  0  0  0  0  0  0  0  0  0  0
   -6.9840   -0.5028   -0.6881 C   0  0  0  0  0  0  0  0  0  0  0  0
   -4.7821   -2.3439   -1.5703 C   0  0  0  0  0  0  0  0  0  0  0  0
   -4.9713   -1.4059    3.0349 C   0  0  0  0  0  0  0  0  0  0  0  0
   -4.0312   -2.1763    3.9184 C   0  0  0  0  0  0  0  0  0  0  0  0
   -5.7140   -5.3259   -0.2826 C   0  0  0  0  0  0  0  0  0  0  0  0
    4.2349    0.4160    0.9254 C   0  0  0  0  0  0  0  0  0  0  0  0
    5.3914    0.8544    0.0385 C   0  0  0  0  0  0  0  0  0  0  0  0
    4.6081    0.2867    2.3631 C   0  0  0  0  0  0  0  0  0  0  0  0
    6.3977    1.5276    0.9766 C   0  0  0  0  0  0  0  0  0  0  0  0
    5.9906   -0.2692    2.4817 C   0  0  0  0  0  0  0  0  0  0  0  0
    8.0706    0.9695    2.5011 C   0  0  0  0  0  0  0  0  0  0  0  0
    8.8063   -0.0334    3.3367 C   0  0  0  0  0  0  0  0  0  0  0  0
    9.9141    0.7438    4.0625 C   0  0  0  0  0  0  0  0  0  0  0  0
    9.4986   -1.0861    2.5061 C   0  0  0  0  0  0  0  0  0  0  0  0
    1.6340    2.8654   -0.6029 N   0  0  0  0  0  0  0  0  0  0  0  0
    3.1867    1.4313    0.7281 N   0  0  0  0  0  0  0  0  0  0  0  0
    3.7071   -0.8321    0.3857 N   0  0  0  0  0  0  0  0  0  0  0  0
    6.9881    0.4352    1.7379 N   0  0  0  0  0  0  0  0  0  0  0  0
   -0.1573    1.4369   -2.6080 O   0  0  0  0  0  0  0  0  0  0  0  0
    0.9836   -0.4817   -4.2289 O   0  0  0  0  0  0  0  0  0  0  0  0
   -0.0924   -3.7999   -1.4681 O   0  0  0  0  0  0  0  0  0  0  0  0
    0.1944   -2.0808    0.6468 O   0  0  0  0  0  0  0  0  0  0  0  0
   -0.7041   -4.3761    0.6158 O   0  0  0  0  0  0  0  0  0  0  0  0
   -4.5668   -4.5913   -0.5824 O   0  0  0  0  0  0  0  0  0  0  0  0
   -4.4215   -0.9707    1.8540 O   0  0  0  0  0  0  0  0  0  0  0  0
   -5.3628   -0.2535    3.7555 O   0  0  0  0  0  0  0  0  0  0  0  0
   -3.5053    0.3311   -0.6448 O   0  0  0  0  0  0  0  0  0  0  0  0
   -4.9744    3.5298   -1.9246 O   0  0  0  0  0  0  0  0  0  0  0  0
    1.6225    3.3483   -2.9282 O   0  0  0  0  0  0  0  0  0  0  0  0
    0.4617    1.9884   -2.6508 H   0  0  0  0  0  0  0  0  0  0  0  0
    0.1818    1.4454   -0.4083 H   0  0  0  0  0  0  0  0  0  0  0  0
    1.6303    0.4257    0.9626 H   0  0  0  0  0  0  0  0  0  0  0  0
    3.5644    0.2021   -1.3833 H   0  0  0  0  0  0  0  0  0  0  0  0
    0.4347   -1.6686    0.0298 H   0  0  0  0  0  0  0  0  0  0  0  0
   -0.9900   -1.9015   -1.8298 H   0  0  0  0  0  0  0  0  0  0  0  0
    1.3548   -2.6295   -3.6371 H   0  0  0  0  0  0  0  0  0  0  0  0
   -0.3660   -0.1567   -3.9786 H   0  0  0  0  0  0  0  0  0  0  0  0
   -0.1587   -0.0410   -1.6508 H   0  0  0  0  0  0  0  0  0  0  0  0
    2.4197   -1.4984   -2.3188 H   0  0  0  0  0  0  0  0  0  0  0  0
    2.2830   -3.6932   -1.3601 H   0  0  0  0  0  0  0  0  0  0  0  0
    0.2078   -6.2458   -1.5024 H   0  0  0  0  0  0  0  0  0  0  0  0
    1.7858   -5.8079   -0.6353 H   0  0  0  0  0  0  0  0  0  0  0  0
    0.3120   -6.1077    0.3112 H   0  0  0  0  0  0  0  0  0  0  0  0
   -0.2119   -2.5486   -5.3342 H   0  0  0  0  0  0  0  0  0  0  0  0
   -1.5240   -1.8779   -4.2786 H   0  0  0  0  0  0  0  0  0  0  0  0
   -0.9377   -3.5955   -4.0875 H   0  0  0  0  0  0  0  0  0  0  0  0
    2.7405    4.4696   -0.2109 H   0  0  0  0  0  0  0  0  0  0  0  0
    1.3421    6.2139   -1.5693 H   0  0  0  0  0  0  0  0  0  0  0  0
   -0.4243    3.9272   -1.5479 H   0  0  0  0  0  0  0  0  0  0  0  0
   -0.7628    5.5835   -2.0728 H   0  0  0  0  0  0  0  0  0  0  0  0
   -1.9986    6.0012   -0.2301 H   0  0  0  0  0  0  0  0  0  0  0  0
   -0.9008    5.2327    0.9394 H   0  0  0  0  0  0  0  0  0  0  0  0
   -2.7579    3.8157    1.0689 H   0  0  0  0  0  0  0  0  0  0  0  0
   -1.6391    2.9544   -0.0562 H   0  0  0  0  0  0  0  0  0  0  0  0
   -2.7578    3.9672   -1.9504 H   0  0  0  0  0  0  0  0  0  0  0  0
   -3.3712    1.8178   -1.6005 H   0  0  0  0  0  0  0  0  0  0  0  0
   -3.5648    1.9526    0.8840 H   0  0  0  0  0  0  0  0  0  0  0  0
   -5.1898    0.4284   -1.0971 H   0  0  0  0  0  0  0  0  0  0  0  0
   -5.8300    0.3270    1.8638 H   0  0  0  0  0  0  0  0  0  0  0  0
   -6.0411   -1.8983    2.0474 H   0  0  0  0  0  0  0  0  0  0  0  0
   -5.3477   -1.9176   -0.7579 H   0  0  0  0  0  0  0  0  0  0  0  0
   -4.6391   -4.5963    0.1356 H   0  0  0  0  0  0  0  0  0  0  0  0
   -2.4960   -2.5194    0.8448 H   0  0  0  0  0  0  0  0  0  0  0  0
   -2.9942   -4.1196    1.6529 H   0  0  0  0  0  0  0  0  0  0  0  0
   -1.9266   -5.3533    0.0472 H   0  0  0  0  0  0  0  0  0  0  0  0
   -1.9684   -4.0289   -1.1894 H   0  0  0  0  0  0  0  0  0  0  0  0
    0.3082    6.8432    0.6212 H   0  0  0  0  0  0  0  0  0  0  0  0
    1.0979    5.3307    1.3412 H   0  0  0  0  0  0  0  0  0  0  0  0
    2.0618    6.6023    0.5710 H   0  0  0  0  0  0  0  0  0  0  0  0
   -5.1211    4.8867   -1.4892 H   0  0  0  0  0  0  0  0  0  0  0  0
   -4.4210    5.3833    0.1490 H   0  0  0  0  0  0  0  0  0  0  0  0
   -3.6914    5.9247   -1.3669 H   0  0  0  0  0  0  0  0  0  0  0  0
   -6.3023    2.2518    1.4226 H   0  0  0  0  0  0  0  0  0  0  0  0
   -5.0926    3.5228    1.5008 H   0  0  0  0  0  0  0  0  0  0  0  0
   -6.1218    3.3186    0.0311 H   0  0  0  0  0  0  0  0  0  0  0  0
   -7.5727    0.6669    0.1689 H   0  0  0  0  0  0  0  0  0  0  0  0
   -6.9445   -0.6259   -0.8461 H   0  0  0  0  0  0  0  0  0  0  0  0
   -7.7492   -0.9663    0.7982 H   0  0  0  0  0  0  0  0  0  0  0  0
   -7.2918   -2.9766   -0.5879 H   0  0  0  0  0  0  0  0  0  0  0  0
   -7.0517   -3.2053    1.2388 H   0  0  0  0  0  0  0  0  0  0  0  0
   -6.4721   -4.3920    0.0822 H   0  0  0  0  0  0  0  0  0  0  0  0
   -5.3221   -1.8437    3.6927 H   0  0  0  0  0  0  0  0  0  0  0  0
   -3.3257   -2.3908    5.1215 H   0  0  0  0  0  0  0  0  0  0  0  0
   -2.3681   -2.6140    3.5683 H   0  0  0  0  0  0  0  0  0  0  0  0
   -3.8325   -3.5978    3.9228 H   0  0  0  0  0  0  0  0  0  0  0  0
   -3.6950   -5.6358   -1.5128 H   0  0  0  0  0  0  0  0  0  0  0  0
   -5.3133   -5.0331   -1.9026 H   0  0  0  0  0  0  0  0  0  0  0  0
   -3.9034   -4.8388   -3.0693 H   0  0  0  0  0  0  0  0  0  0  0  0
    5.2492    1.2518   -0.9466 H   0  0  0  0  0  0  0  0  0  0  0  0
    5.7479   -0.4728   -0.5049 H   0  0  0  0  0  0  0  0  0  0  0  0
    4.6691    1.3334    2.6384 H   0  0  0  0  0  0  0  0  0  0  0  0
    3.9493   -0.2692    2.8599 H   0  0  0  0  0  0  0  0  0  0  0  0
    6.1379    2.0120    1.2600 H   0  0  0  0  0  0  0  0  0  0  0  0
    7.3062    1.5106    0.0091 H   0  0  0  0  0  0  0  0  0  0  0  0
    6.2931   -0.1758    3.4939 H   0  0  0  0  0  0  0  0  0  0  0  0
    5.8744   -1.4600    2.2421 H   0  0  0  0  0  0  0  0  0  0  0  0
    8.9766    0.8728    1.4347 H   0  0  0  0  0  0  0  0  0  0  0  0
    7.9491    1.5535    2.7289 H   0  0  0  0  0  0  0  0  0  0  0  0
    8.2050   -0.6867    3.9199 H   0  0  0  0  0  0  0  0  0  0  0  0
    9.8313    1.4328    3.9929 H   0  0  0  0  0  0  0  0  0  0  0  0
   10.3942   -0.1090    4.7004 H   0  0  0  0  0  0  0  0  0  0  0  0
   10.9333    0.4169    3.0213 H   0  0  0  0  0  0  0  0  0  0  0  0
    9.8732   -1.2739    1.4212 H   0  0  0  0  0  0  0  0  0  0  0  0
   10.3120   -1.9841    2.9898 H   0  0  0  0  0  0  0  0  0  0  0  0
    8.7133   -2.3814    2.3102 H   0  0  0  0  0  0  0  0  0  0  0  0
    0.6530    3.4240    0.4522 H   0  0  0  0  0  0  0  0  0  0  0  0
    3.7615    2.1418   -0.0796 H   0  0  0  0  0  0  0  0  0  0  0  0
    2.7422   -0.8910    1.1679 H   0  0  0  0  0  0  0  0  0  0  0  0
    2.2519    1.8557   -3.7652 H   0  0  0  0  0  0  0  0  0  0  0  0
    2.1609   -1.1657   -4.5547 H   0  0  0  0  0  0  0  0  0  0  0  0
    1.7218   -4.2899    1.1785 H   0  0  0  0  0  0  0  0  0  0  0  0
   -3.1044   -0.1209    3.8120 H   0  0  0  0  0  0  0  0  0  0  0  0
   -3.1648   -0.1604   -1.0290 H   0  0  0  0  0  0  0  0  0  0  0  0
   -4.7934    3.1642   -2.7735 H   0  0  0  0  0  0  0  0  0  0  0  0
    3.2113    4.7261   -2.2383 H   0  0  0  0  0  0  0  0  0  0  0  0
    1.9024    1.0431   -2.7265 H   0  0  0  0  0  0  0  0  0  0  0  0
    0.1508    1.5026   -0.2503 H   0  0  0  0  0  0  0  0  0  0  0  0
    1.5357    0.2703    1.0219 H   0  0  0  0  0  0  0  0  0  0  0  0
    3.5265    0.3415   -1.2785 H   0  0  0  0  0  0  0  0  0  0  0  0
    2.9005   -3.1125   -0.9444 H   0  0  0  0  0  0  0  0  0  0  0  0
    1.6305   -4.3170   -2.3532 H   0  0  0  0  0  0  0  0  0  0  0  0
    1.7883   -2.6900   -3.9725 H   0  0  0  0  0  0  0  0  0  0  0  0
   -0.7072   -1.0924   -3.3101 H   0  0  0  0  0  0  0  0  0  0  0  0
   -0.0006   -0.6451   -1.1768 H   0  0  0  0  0  0  0  0  0  0  0  0
    2.6597   -1.3563   -2.4521 H   0  0  0  0  0  0  0  0  0  0  0  0
    1.7844   -3.2934    1.0566 H   0  0  0  0  0  0  0  0  0  0  0  0
    1.1224   -6.0176    0.6090 H   0  0  0  0  0  0  0  0  0  0  0  0
    1.0715   -6.0558   -1.1625 H   0  0  0  0  0  0  0  0  0  0  0  0
    2.3581   -5.0772   -0.2702 H   0  0  0  0  0  0  0  0  0  0  0  0
   -0.1544   -3.1374   -5.2021 H   0  0  0  0  0  0  0  0  0  0  0  0
   -0.2023   -4.4449   -3.8927 H   0  0  0  0  0  0  0  0  0  0  0  0
   -1.1840   -2.9664   -3.7653 H   0  0  0  0  0  0  0  0  0  0  0  0
    3.0142    3.9642   -1.6259 H   0  0  0  0  0  0  0  0  0  0  0  0
    1.6450    5.7002   -2.3717 H   0  0  0  0  0  0  0  0  0  0  0  0
   -0.4797    4.1252   -2.1230 H   0  0  0  0  0  0  0  0  0  0  0  0
   -0.6051    5.8848   -2.2815 H   0  0  0  0  0  0  0  0  0  0  0  0
   -1.6345    5.9576   -0.2775 H   0  0  0  0  0  0  0  0  0  0  0  0
   -0.2760    5.1957    0.5841 H   0  0  0  0  0  0  0  0  0  0  0  0
   -1.7468    3.4984    0.9034 H   0  0  0  0  0  0  0  0  0  0  0  0
   -1.5347    3.0834   -0.8830 H   0  0  0  0  0  0  0  0  0  0  0  0
   -3.3011    5.0069   -1.1423 H   0  0  0  0  0  0  0  0  0  0  0  0
   -3.3371    2.4114   -1.5589 H   0  0  0  0  0  0  0  0  0  0  0  0
   -4.2276    2.1650    0.9802 H   0  0  0  0  0  0  0  0  0  0  0  0
   -5.2446    0.9328   -1.6161 H   0  0  0  0  0  0  0  0  0  0  0  0
   -6.1377    0.4379    1.0166 H   0  0  0  0  0  0  0  0  0  0  0  0
   -5.9946   -1.9865    1.1233 H   0  0  0  0  0  0  0  0  0  0  0  0
   -3.2224   -1.9361   -0.1827 H   0  0  0  0  0  0  0  0  0  0  0  0
   -5.0890   -3.7281    1.1939 H   0  0  0  0  0  0  0  0  0  0  0  0
   -2.5472   -3.2271    1.6644 H   0  0  0  0  0  0  0  0  0  0  0  0
   -3.1336   -4.9092    1.6567 H   0  0  0  0  0  0  0  0  0  0  0  0
   -2.1447   -5.4472   -0.2966 H   0  0  0  0  0  0  0  0  0  0  0  0
   -1.9977   -3.7956   -0.9225 H   0  0  0  0  0  0  0  0  0  0  0  0
    1.0504    6.6559   -0.0293 H   0  0  0  0  0  0  0  0  0  0  0  0
    1.8712    5.2339    0.6366 H   0  0  0  0  0  0  0  0  0  0  0  0
    2.7347    6.3557   -0.5117 H   0  0  0  0  0  0  0  0  0  0  0  0
   -4.9473    5.0985    0.6635 H   0  0  0  0  0  0  0  0  0  0  0  0
   -3.8524    4.0552    1.7223 H   0  0  0  0  0  0  0  0  0  0  0  0
   -3.3267    5.6426    1.1279 H   0  0  0  0  0  0  0  0  0  0  0  0
   -6.3541    3.5759   -0.5460 H   0  0  0  0  0  0  0  0  0  0  0  0
   -6.2859    3.1088    1.2351 H   0  0  0  0  0  0  0  0  0  0  0  0
   -6.9599    2.0100    0.0128 H   0  0  0  0  0  0  0  0  0  0  0  0
   -7.9359   -0.1712   -0.1817 H   0  0  0  0  0  0  0  0  0  0  0  0
   -6.9970   -0.0077   -1.6741 H   0  0  0  0  0  0  0  0  0  0  0  0
   -7.1143   -1.6210   -0.7675 H   0  0  0  0  0  0  0  0  0  0  0  0
   -3.9041   -2.7229   -2.1738 H   0  0  0  0  0  0  0  0  0  0  0  0
   -5.5360   -3.1793   -1.6752 H   0  0  0  0  0  0  0  0  0  0  0  0
   -5.0940   -1.4200   -2.0433 H   0  0  0  0  0  0  0  0  0  0  0  0
   -5.8897   -2.0136    2.9045 H   0  0  0  0  0  0  0  0  0  0  0  0
   -2.9721   -1.9441    3.6770 H   0  0  0  0  0  0  0  0  0  0  0  0
   -4.2813   -1.9642    4.9737 H   0  0  0  0  0  0  0  0  0  0  0  0
   -4.1353   -3.2798    3.7096 H   0  0  0  0  0  0  0  0  0  0  0  0
   -5.9011   -6.0662   -1.0855 H   0  0  0  0  0  0  0  0  0  0  0  0
   -5.5737   -5.8673    0.6851 H   0  0  0  0  0  0  0  0  0  0  0  0
   -6.6166   -4.6981   -0.1660 H   0  0  0  0  0  0  0  0  0  0  0  0
    5.0944    1.6215   -0.6982 H   0  0  0  0  0  0  0  0  0  0  0  0
    5.8577   -0.0287   -0.4139 H   0  0  0  0  0  0  0  0  0  0  0  0
    4.5632    1.2671    2.8788 H   0  0  0  0  0  0  0  0  0  0  0  0
    3.9127   -0.4611    2.8214 H   0  0  0  0  0  0  0  0  0  0  0  0
    5.9125    2.2133    1.6766 H   0  0  0  0  0  0  0  0  0  0  0  0
    7.1588    2.0014    0.3430 H   0  0  0  0  0  0  0  0  0  0  0  0
    6.2737   -0.2465    3.5603 H   0  0  0  0  0  0  0  0  0  0  0  0
    6.0006   -1.3335    2.1132 H   0  0  0  0  0  0  0  0  0  0  0  0
    8.7992    1.4380    1.8123 H   0  0  0  0  0  0  0  0  0  0  0  0
    7.6912    1.7563    3.2033 H   0  0  0  0  0  0  0  0  0  0  0  0
    8.1986   -0.4809    4.1306 H   0  0  0  0  0  0  0  0  0  0  0  0
    9.4465    1.3326    4.8833 H   0  0  0  0  0  0  0  0  0  0  0  0
   10.4079    1.4599    3.3605 H   0  0  0  0  0  0  0  0  0  0  0  0
   10.6841    0.0720    4.4522 H   0  0  0  0  0  0  0  0  0  0  0  0
   10.4450   -1.3866    3.0443 H   0  0  0  0  0  0  0  0  0  0  0  0
    9.8081   -0.7058    1.5306 H   0  0  0  0  0  0  0  0  0  0  0  0
    8.8911   -2.0239    2.4490 H   0  0  0  0  0  0  0  0  0  0  0  0
    1.2163    3.3484    0.2270 H   0  0  0  0  0  0  0  0  0  0  0  0
    3.4741    2.1967    0.1134 H   0  0  0  0  0  0  0  0  0  0  0  0
    3.1921   -1.2907    1.1618 H   0  0  0  0  0  0  0  0  0  0  0  0
   -0.2104    1.4080   -3.5717 H   0  0  0  0  0  0  0  0  0  0  0  0
    1.8898   -0.8252   -4.4278 H   0  0  0  0  0  0  0  0  0  0  0  0
   -0.7289   -2.2711    0.4279 H   0  0  0  0  0  0  0  0  0  0  0  0
   -4.5679    0.1538    4.1642 H   0  0  0  0  0  0  0  0  0  0  0  0
   -3.2341    0.3289   -1.6069 H   0  0  0  0  0  0  0  0  0  0  0  0
   -5.0503    4.5132   -1.8417 H   0  0  0  0  0  0  0  0  0  0  0  0
    2.3891    3.3810   -3.5416 H   0  0  0  0  0  0  0  0  0  0  0  0
  1  2  1  0
  2  3  1  0
  3  4  1  0
  5  6  1  0
  6  7  1  0
  7  8  1  0
  1  9  1  0
  8  9  1  0
  4 10  1  0
  5 10  1  0
  9 10  1  0
  5 11  1  0
 11 12  1  0
 12 13  1  6
  7 14  1  0
 15 16  1  0
 16 17  1  0
 17 18  1  0
 18 19  1  0
 19 20  1  0
 20 21  1  0
 21 22  1  0
 22 23  1  0
 23 24  1  0
 24 25  1  0
 25 26  1  0
 26 27  1  0
 27 28  1  0
 28 29  1  0
 16 30  1  0
 20 31  1  0
 22 32  1  0
 24 33  1  0
 26 34  1  0
 35 36  1  0
 38 39  1  0
 38 40  1  0
 39 41  1  0
 40 42  1  0
 43 44  1  0
 44 45  1  0
 44 46  1  0
  2 47  1  0
 15 47  1  0
  3 48  1  0
 38 48  1  0
  4 49  1  0
 38 49  1  0
 41 50  1  0
 42 50  1  0
 43 50  1  0
  1 51  1  0
  8 52  1  0
  6 53  1  0
 12 53  1  0
 11 54  1  0
 12 55  1  0
 29 55  1  0
 27 56  1  0
 37 56  1  0
 25 57  1  0
 35 57  1  0
 35 58  1  0
 23 59  1  0
 21 60  1  0
 15 61  1  0
 62 63  1  0
 63 64  1  0
 64 65  1  0
 66 67  1  0
 67 68  1  0
 68 69  1  0
 62 70  1  0
 69 70  1  0
 65 71  1  0
 66 71  1  0
 70 71  1  0
 66 72  1  0
 72 73  1  0
 73 74  1  6
 68 75  1  0
 76 77  1  0
 77 78  1  0
 78 79  1  0
 79 80  1  0
 80 81  1  0
 81 82  1  0
 82 83  1  0
 83 84  1  0
 84 85  1  0
 85 86  1  0
 86 87  1  0
 87 88  1  0
 88 89  1  0
 89 90  1  0
 77 91  1  0
 81 92  1  0
 83 93  1  0
 85 94  1  0
 87 95  1  0
 96 97  1  0
 99100  1  0
 99101  1  0
100102  1  0
101103  1  0
104105  1  0
105106  1  0
105107  1  0
 63108  1  0
 76108  1  0
 64109  1  0
 99109  1  0
 65110  1  0
 99110  1  0
102111  1  0
103111  1  0
104111  1  0
 62112  1  0
 69113  1  0
 67114  1  0
 73114  1  0
 72115  1  0
 73116  1  0
 90116  1  0
 88117  1  0
 98117  1  0
 86118  1  0
 96118  1  0
 96119  1  0
 84120  1  0
 82121  1  0
 76122  1  0
  1123  1  0
  2124  1  0
  3125  1  0
  4126  1  6
  5127  1  0
  6128  1  0
  7129  1  0
  8130  1  0
  9131  1  0
 10132  1  0
 11133  1  6
 13134  1  0
 13135  1  0
 13136  1  0
 14137  1  0
 14138  1  0
 14139  1  0
 15140  1  0
 16141  1  0
 17142  1  0
 17143  1  0
 18144  1  0
 18145  1  0
 19146  1  0
 19147  1  0
 20148  1  6
 21149  1  6
 22150  1  1
 23151  1  6
 24152  1  1
 25153  1  1
 26154  1  6
 27155  1  1
 28156  1  0
 28157  1  0
 29158  1  0
 29159  1  0
 30160  1  0
 30161  1  0
 30162  1  0
 31163  1  0
 31164  1  0
 31165  1  0
 32166  1  0
 32167  1  0
 32168  1  0
 33169  1  0
 33170  1  0
 33171  1  0
 34172  1  0
 34173  1  0
 34174  1  0
 35175  1  0
 36176  1  0
 36177  1  0
 36178  1  0
 37179  1  0
 37180  1  0
 37181  1  0
 39182  1  0
 39183  1  0
 40184  1  0
 40185  1  0
 41186  1  0
 41187  1  0
 42188  1  0
 42189  1  0
 43190  1  0
 43191  1  0
 44192  1  0
 45193  1  0
 45194  1  0
 45195  1  0
 46196  1  0
 46197  1  0
 46198  1  0
 47199  1  0
 48200  1  0
 49201  1  0
 51202  1  0
 52203  1  0
 54204  1  0
 58205  1  0
 59206  1  0
 60207  1  0
 61208  1  0
 62209  1  0
 63210  1  0
 64211  1  1
 65212  1  6
 66213  1  0
 67214  1  0
 68215  1  0
 69216  1  0
 70217  1  0
 71218  1  6
 72219  1  0
 74220  1  0
 74221  1  0
 74222  1  0
 75223  1  0
 75224  1  0
 75225  1  0
 76226  1  0
 77227  1  0
 78228  1  0
 78229  1  0
 79230  1  0
 79231  1  0
 80232  1  0
 80233  1  0
 81234  1  6
 82235  1  6
 83236  1  1
 84237  1  6
 85238  1  1
 86239  1  1
 87240  1  6
 88241  1  1
 89242  1  0
 89243  1  0
 90244  1  0
 90245  1  0
 91246  1  0
 91247  1  0
 91248  1  0
 92249  1  0
 92250  1  0
 92251  1  0
 93252  1  0
 93253  1  0
 93254  1  0
 94255  1  0
 94256  1  0
 94257  1  0
 95258  1  0
 95259  1  0
 95260  1  0
 96261  1  0
 97262  1  0
 97263  1  0
 97264  1  0
 98265  1  0
 98266  1  0
 98267  1  0
100268  1  0
100269  1  0
101270  1  0
101271  1  0
102272  1  0
102273  1  0
103274  1  0
103275  1  0
104276  1  0
104277  1  0
105278  1  0
106279  1  0
106280  1  0
106281  1  0
107282  1  0
107283  1  0
107284  1  0
108285  1  0
109286  1  0
110287  1  0
112288  1  0
113289  1  0
115290  1  0
119291  1  0
120292  1  0
121293  1  0
122294  1  0
M  END
>  <PDBID>  (1) 
2A68

>  <PDB ID>  (1) 
2A68

>  <Generic Name>  (1) 
Rifabutin

>  <Brand Name>  (1) 
Mycobutin#Rifabutin#Ansatipin#Ansatipine#Ributin

>  <DrugBank ID>  (1) 
DB00615

>  <ATC Codes>  (1) 
J04AB04

>  <Ligand ID>  (1) 
RBT

>  <Target Name>  (1) 
DNA-directed RNA polymerase subunit beta

>  <UniProt ID>  (1) 
P0A8V2

>  <PDB ID.1>  (1) 
2A68

>  <Seq. Identity>  (1) 
51%

$$$$
