PDB_DB00218_00
     RDKit          3D

390414  0  0  0  0  0  0  0  0999 V2000
    0.0052   -3.1775    0.3219 F   0  0  0  0  0  0  0  0  0  0  0  0
   -0.2275   -0.8311    2.3239 O   0  0  0  0  0  0  0  0  0  0  0  0
    3.7331   -2.5691   -1.2061 O   0  0  0  0  0  0  0  0  0  0  0  0
    5.9222    0.9739   -1.2581 O   0  0  0  0  0  0  0  0  0  0  0  0
    6.2508   -0.6041    0.3111 O   0  0  0  0  0  0  0  0  0  0  0  0
   -2.0249   -0.7556    0.2972 N   0  0  0  0  0  0  0  0  0  0  0  0
   -5.3436   -0.8915   -0.6943 N   0  0  0  0  0  0  0  0  0  0  0  0
    2.2084    0.7667    0.2376 N   0  0  0  0  0  0  0  0  0  0  0  0
   -3.4265    0.6426   -0.8826 C   0  0  2  0  0  0  0  0  0  0  0  0
   -3.9697   -0.7393   -1.0763 C   0  0  1  0  0  0  0  0  0  0  0  0
   -2.6045    0.5632    0.3685 C   0  0  0  0  0  0  0  0  0  0  0  0
   -3.0143   -1.5606   -0.2179 C   0  0  0  0  0  0  0  0  0  0  0  0
   -4.5033    1.6953   -0.8247 C   0  0  0  0  0  0  0  0  0  0  0  0
    1.5758    1.9881    0.5203 C   0  0  0  0  0  0  0  0  0  0  0  0
   -5.4472    1.3644    0.2845 C   0  0  0  0  0  0  0  0  0  0  0  0
    1.6152    2.4873    1.9563 C   0  0  0  0  0  0  0  0  0  0  0  0
    2.3273    3.2185    0.8519 C   0  0  0  0  0  0  0  0  0  0  0  0
   -5.7210   -0.1062    0.4509 C   0  0  0  0  0  0  0  0  0  0  0  0
   -0.6758   -0.8681    0.0404 C   0  0  1  0  0  0  0  0  0  0  0  0
    1.6607   -0.3967    0.9121 C   0  0  1  0  0  0  0  0  0  0  0  0
    0.1957   -0.2681    1.1212 C   0  0  2  0  0  0  0  0  0  0  0  0
    2.1118   -1.6452    0.2118 C   0  0  0  0  0  0  0  0  0  0  0  0
   -0.1372   -2.1376   -0.5231 C   0  0  0  0  0  0  0  0  0  0  0  0
    3.6234    0.6948    0.4069 C   0  0  0  0  0  0  0  0  0  0  0  0
    1.2624   -1.7881   -1.0316 C   0  0  0  0  0  0  0  0  0  0  0  0
    4.0668   -0.3271   -0.6542 C   0  0  2  0  0  0  0  0  0  0  0  0
    3.5523   -1.6574   -0.1709 C   0  0  0  0  0  0  0  0  0  0  0  0
    5.5421   -0.2999   -0.8437 C   0  0  0  0  0  0  0  0  0  0  0  0
   -0.6961   -0.0040    3.2764 C   0  0  0  0  0  0  0  0  0  0  0  0
   -1.1723    2.8665    0.3919 F   0  0  0  0  0  0  0  0  0  0  0  0
   -0.3259   -1.8376    0.6845 O   0  0  0  0  0  0  0  0  0  0  0  0
    3.5470    1.2780    3.1713 O   0  0  0  0  0  0  0  0  0  0  0  0
    5.3077    2.3315    0.2731 O   0  0  0  0  0  0  0  0  0  0  0  0
    6.0388    1.1285    2.0127 O   0  0  0  0  0  0  0  0  0  0  0  0
   -1.5261    0.5368   -0.6359 N   0  0  0  0  0  0  0  0  0  0  0  0
   -3.5752   -1.4762    0.2109 N   0  0  0  0  0  0  0  0  0  0  0  0
    2.0264   -0.1472   -0.3826 N   0  0  0  0  0  0  0  0  0  0  0  0
   -3.8795    0.5552   -1.1391 C   0  0  2  0  0  0  0  0  0  0  0  0
   -3.3819   -0.8563   -1.0558 C   0  0  1  0  0  0  0  0  0  0  0  0
   -2.7275    1.3738   -0.6024 C   0  0  0  0  0  0  0  0  0  0  0  0
   -1.9092   -0.5849   -1.3673 C   0  0  0  0  0  0  0  0  0  0  0  0
   -5.1576    0.8020   -0.4001 C   0  0  0  0  0  0  0  0  0  0  0  0
    1.5849   -0.7571   -1.5502 C   0  0  0  0  0  0  0  0  0  0  0  0
   -5.2550    0.0671    0.9123 C   0  0  0  0  0  0  0  0  0  0  0  0
    1.4650   -2.2013   -1.7992 C   0  0  0  0  0  0  0  0  0  0  0  0
    2.5618   -1.4101   -2.5272 C   0  0  0  0  0  0  0  0  0  0  0  0
   -4.9403   -1.3865    0.6401 C   0  0  0  0  0  0  0  0  0  0  0  0
   -1.0050    0.4670    0.6608 C   0  0  1  0  0  0  0  0  0  0  0  0
    1.4434   -0.2375    0.8436 C   0  0  0  0  0  0  0  0  0  0  0  0
    0.0042   -0.5338    1.0444 C   0  0  2  0  0  0  0  0  0  0  0  0
    1.7046    1.0561    1.6334 C   0  0  2  0  0  0  0  0  0  0  0  0
   -0.5648    1.8470    1.1002 C   0  0  0  0  0  0  0  0  0  0  0  0
    3.3125    0.4389   -0.3978 C   0  0  0  0  0  0  0  0  0  0  0  0
    0.9113    2.1065    0.9412 C   0  0  0  0  0  0  0  0  0  0  0  0
    3.9709    0.4466    0.9890 C   0  0  2  0  0  0  0  0  0  0  0  0
    3.1371    1.3572    1.8384 C   0  0  0  0  0  0  0  0  0  0  0  0
    5.3731    1.0288    0.7915 C   0  0  0  0  0  0  0  0  0  0  0  0
   -0.6118   -2.6846    1.7173 C   0  0  0  0  0  0  0  0  0  0  0  0
   -1.2542    0.0672    2.5609 F   0  0  0  0  0  0  0  0  0  0  0  0
   -0.1426   -1.7804    1.2774 O   0  0  0  0  0  0  0  0  0  0  0  0
    3.9236   -0.5923    2.8655 O   0  0  0  0  0  0  0  0  0  0  0  0
    4.8079    2.4065    1.5054 O   0  0  0  0  0  0  0  0  0  0  0  0
    5.9897    0.5063    2.0013 O   0  0  0  0  0  0  0  0  0  0  0  0
   -2.0327    0.1096    0.1102 N   0  0  0  0  0  0  0  0  0  0  0  0
   -4.2296   -1.2763   -0.0962 N   0  0  0  0  0  0  0  0  0  0  0  0
    2.0401    0.3443   -0.6426 N   0  0  0  0  0  0  0  0  0  0  0  0
   -4.0324    1.1244   -0.5609 C   0  0  2  0  0  0  0  0  0  0  0  0
   -3.9032   -0.3039   -1.0957 C   0  0  1  0  0  0  0  0  0  0  0  0
   -2.8079    1.3169    0.3101 C   0  0  0  0  0  0  0  0  0  0  0  0
   -2.3679   -0.3341   -1.2281 C   0  0  0  0  0  0  0  0  0  0  0  0
   -5.3169    1.3415    0.1630 C   0  0  0  0  0  0  0  0  0  0  0  0
    1.8986   -0.1107   -1.9799 C   0  0  0  0  0  0  0  0  0  0  0  0
   -5.5708    0.2998    1.2198 C   0  0  0  0  0  0  0  0  0  0  0  0
    2.6553   -1.2756   -2.5076 C   0  0  0  0  0  0  0  0  0  0  0  0
    2.8395    0.1361   -3.0762 C   0  0  0  0  0  0  0  0  0  0  0  0
   -5.4594   -1.0558    0.5926 C   0  0  0  0  0  0  0  0  0  0  0  0
   -0.6390    0.2943    0.3241 C   0  0  2  0  0  0  0  0  0  0  0  0
    1.6404   -0.6158    0.3321 C   0  0  2  0  0  0  0  0  0  0  0  0
    0.1636   -0.9625    0.2000 C   0  0  0  0  0  0  0  0  0  0  0  0
    1.8368   -0.1220    1.7418 C   0  0  2  0  0  0  0  0  0  0  0  0
   -0.4867    0.8739    1.7291 C   0  0  0  0  0  0  0  0  0  0  0  0
    3.1990    1.0948   -0.3208 C   0  0  0  0  0  0  0  0  0  0  0  0
    0.9316    0.9811    2.1596 C   0  0  0  0  0  0  0  0  0  0  0  0
    4.0351    0.3482    0.7237 C   0  0  0  0  0  0  0  0  0  0  0  0
    3.2594    0.2837    2.0152 C   0  0  0  0  0  0  0  0  0  0  0  0
    5.2821    1.1861    1.0201 C   0  0  0  0  0  0  0  0  0  0  0  0
   -0.6385   -3.0230    0.9186 C   0  0  0  0  0  0  0  0  0  0  0  0
   -0.7373   -2.7924   -0.8612 F   0  0  0  0  0  0  0  0  0  0  0  0
   -0.6015    0.0921    1.9989 O   0  0  0  0  0  0  0  0  0  0  0  0
    3.9051   -2.3054    0.0976 O   0  0  0  0  0  0  0  0  0  0  0  0
    5.6660   -0.0984    2.3948 O   0  0  0  0  0  0  0  0  0  0  0  0
    6.4093   -1.1266    0.4644 O   0  0  0  0  0  0  0  0  0  0  0  0
   -1.9585   -0.5893   -0.3975 N   0  0  0  0  0  0  0  0  0  0  0  0
   -5.2208   -1.5118    0.4602 N   0  0  0  0  0  0  0  0  0  0  0  0
    2.3164    1.2240    0.2900 N   0  0  0  0  0  0  0  0  0  0  0  0
   -4.0251   -0.1936   -1.2429 C   0  0  2  0  0  0  0  0  0  0  0  0
   -4.0671   -1.4029   -0.3732 C   0  0  1  0  0  0  0  0  0  0  0  0
   -2.7051    0.4969   -0.8620 C   0  0  0  0  0  0  0  0  0  0  0  0
   -2.7682   -1.3661    0.4491 C   0  0  0  0  0  0  0  0  0  0  0  0
   -5.1909    0.7368   -1.0451 C   0  0  0  0  0  0  0  0  0  0  0  0
    2.0480    2.0613   -0.7440 C   0  0  0  0  0  0  0  0  0  0  0  0
   -5.5903    0.9176    0.3778 C   0  0  0  0  0  0  0  0  0  0  0  0
    1.7398    1.5881   -2.1585 C   0  0  0  0  0  0  0  0  0  0  0  0
    2.9910    2.4052   -1.8052 C   0  0  0  0  0  0  0  0  0  0  0  0
   -5.5321   -0.3271    1.2060 C   0  0  0  0  0  0  0  0  0  0  0  0
   -0.5976   -0.5292   -0.2413 C   0  0  1  0  0  0  0  0  0  0  0  0
    1.4894    0.3042    0.8973 C   0  0  1  0  0  0  0  0  0  0  0  0
    0.0030    0.4082    0.7569 C   0  0  2  0  0  0  0  0  0  0  0  0
    2.0300   -1.0908    0.7975 C   0  0  0  0  0  0  0  0  0  0  0  0
   -0.0702   -1.9622   -0.0152 C   0  0  2  0  0  0  0  0  0  0  0  0
    3.5982    1.2464    0.9244 C   0  0  0  0  0  0  0  0  0  0  0  0
    1.4350   -1.8954   -0.3321 C   0  0  0  0  0  0  0  0  0  0  0  0
    4.2953   -0.0245    0.4129 C   0  0  2  0  0  0  0  0  0  0  0  0
    3.5120   -1.2033    0.8724 C   0  0  0  0  0  0  0  0  0  0  0  0
    5.6817   -0.0679    1.0097 C   0  0  0  0  0  0  0  0  0  0  0  0
   -1.2633    1.1193    2.5914 C   0  0  0  0  0  0  0  0  0  0  0  0
   -1.0014   -3.1391   -0.8767 F   0  0  0  0  0  0  0  0  0  0  0  0
   -0.0672    1.5298   -0.0658 O   0  0  0  0  0  0  0  0  0  0  0  0
    3.2946   -2.2618    1.8385 O   0  0  0  0  0  0  0  0  0  0  0  0
    3.4885    0.9473    3.1428 O   0  0  0  0  0  0  0  0  0  0  0  0
    4.7977   -0.8645    3.1832 O   0  0  0  0  0  0  0  0  0  0  0  0
   -1.9959   -0.5858    0.0441 N   0  0  0  0  0  0  0  0  0  0  0  0
   -5.2409   -1.3576    0.9849 N   0  0  0  0  0  0  0  0  0  0  0  0
    2.4914    0.9971   -0.6025 N   0  0  0  0  0  0  0  0  0  0  0  0
   -4.0576    0.1191   -0.6063 C   0  0  2  0  0  0  0  0  0  0  0  0
   -4.2017   -1.2326    0.0101 C   0  0  1  0  0  0  0  0  0  0  0  0
   -2.7413    0.6153   -0.0169 C   0  0  0  0  0  0  0  0  0  0  0  0
   -2.8159   -1.5283    0.6058 C   0  0  0  0  0  0  0  0  0  0  0  0
   -5.1961    1.0544   -0.4014 C   0  0  0  0  0  0  0  0  0  0  0  0
    2.6181    1.6125   -1.8798 C   0  0  0  0  0  0  0  0  0  0  0  0
   -5.8332    1.0148    0.9454 C   0  0  0  0  0  0  0  0  0  0  0  0
    3.2180    0.6216   -2.9310 C   0  0  0  0  0  0  0  0  0  0  0  0
    3.8372    1.9259   -2.5854 C   0  0  0  0  0  0  0  0  0  0  0  0
   -5.5085   -0.1900    1.7613 C   0  0  0  0  0  0  0  0  0  0  0  0
   -0.7985   -0.7355   -0.5820 C   0  0  1  0  0  0  0  0  0  0  0  0
    1.6014   -0.1033   -0.6240 C   0  0  0  0  0  0  0  0  0  0  0  0
    0.2314    0.1985    0.0147 C   0  0  0  0  0  0  0  0  0  0  0  0
    2.0995   -1.3634   -0.0206 C   0  0  2  0  0  0  0  0  0  0  0  0
   -0.1814   -2.0698   -0.7590 C   0  0  0  0  0  0  0  0  0  0  0  0
    3.5412    1.0765    0.2870 C   0  0  0  0  0  0  0  0  0  0  0  0
    0.9034   -2.2713    0.3054 C   0  0  0  0  0  0  0  0  0  0  0  0
    3.9338   -0.1520    1.0561 C   0  0  2  0  0  0  0  0  0  0  0  0
    2.7820   -1.0921    1.2853 C   0  0  0  0  0  0  0  0  0  0  0  0
    4.4591    0.2549    2.4169 C   0  0  0  0  0  0  0  0  0  0  0  0
   -0.1430    2.1801    1.1580 C   0  0  0  0  0  0  0  0  0  0  0  0
   -0.9743   -2.0385   -2.3521 F   0  0  0  0  0  0  0  0  0  0  0  0
   -0.5050    0.1257    1.8663 O   0  0  0  0  0  0  0  0  0  0  0  0
    3.5403   -1.3156   -2.2328 O   0  0  0  0  0  0  0  0  0  0  0  0
    4.7348    2.5257   -2.0081 O   0  0  0  0  0  0  0  0  0  0  0  0
    5.7620    0.8640   -0.8975 O   0  0  0  0  0  0  0  0  0  0  0  0
   -2.1745   -0.5473   -0.1462 N   0  0  0  0  0  0  0  0  0  0  0  0
   -5.2730   -0.8276   -0.5721 N   0  0  0  0  0  0  0  0  0  0  0  0
    2.2915    0.7516    1.0316 N   0  0  0  0  0  0  0  0  0  0  0  0
   -3.8191    1.1428   -0.3680 C   0  0  2  0  0  0  0  0  0  0  0  0
   -4.2304   -0.0592   -1.1520 C   0  0  1  0  0  0  0  0  0  0  0  0
   -2.5796    0.7131    0.4057 C   0  0  0  0  0  0  0  0  0  0  0  0
   -2.9328   -0.7823   -1.3303 C   0  0  0  0  0  0  0  0  0  0  0  0
   -4.9125    1.6367    0.5466 C   0  0  0  0  0  0  0  0  0  0  0  0
    3.0961    0.3558    2.0951 C   0  0  0  0  0  0  0  0  0  0  0  0
   -5.3383    0.5416    1.4661 C   0  0  0  0  0  0  0  0  0  0  0  0
    2.7022   -0.0439    3.4449 C   0  0  0  0  0  0  0  0  0  0  0  0
    3.2848    1.3251    3.2451 C   0  0  0  0  0  0  0  0  0  0  0  0
   -5.3199   -0.8277    0.8673 C   0  0  0  0  0  0  0  0  0  0  0  0
   -0.7972   -0.5897   -0.4271 C   0  0  0  0  0  0  0  0  0  0  0  0
    1.4068   -0.0326    0.3298 C   0  0  2  0  0  0  0  0  0  0  0  0
    0.1105   -0.4993    0.8358 C   0  0  1  0  0  0  0  0  0  0  0  0
    2.0493   -1.2372   -0.3814 C   0  0  0  0  0  0  0  0  0  0  0  0
   -0.2907   -1.7759   -1.1862 C   0  0  0  0  0  0  0  0  0  0  0  0
    3.1288    1.5273    0.0982 C   0  0  0  0  0  0  0  0  0  0  0  0
    1.1449   -1.5875   -1.5394 C   0  0  0  0  0  0  0  0  0  0  0  0
    3.3621    0.7541   -1.1748 C   0  0  0  0  0  0  0  0  0  0  0  0
    3.3550   -0.7320   -0.9564 C   0  0  2  0  0  0  0  0  0  0  0  0
    4.7039    1.1543   -1.7322 C   0  0  0  0  0  0  0  0  0  0  0  0
   -0.9649   -0.8452    2.7951 C   0  0  0  0  0  0  0  0  0  0  0  0
    3.7481   -3.5015   -0.9002 H   0  0  0  0  0  0  0  0  0  0  0  0
    5.1531    1.5519   -1.4976 H   0  0  0  0  0  0  0  0  0  0  0  0
    6.2219   -1.6047    0.4002 H   0  0  0  0  0  0  0  0  0  0  0  0
   -5.9999   -0.7467   -1.4745 H   0  0  0  0  0  0  0  0  0  0  0  0
   -2.7887    0.8810   -1.7544 H   0  0  0  0  0  0  0  0  0  0  0  0
   -3.9091   -1.0428   -2.1583 H   0  0  0  0  0  0  0  0  0  0  0  0
   -1.8017    1.3285    0.3330 H   0  0  0  0  0  0  0  0  0  0  0  0
   -3.2194    0.6399    1.2824 H   0  0  0  0  0  0  0  0  0  0  0  0
   -3.6636   -1.9097    0.6468 H   0  0  0  0  0  0  0  0  0  0  0  0
   -2.7284   -2.5068   -0.7106 H   0  0  0  0  0  0  0  0  0  0  0  0
   -4.0262    2.6632   -0.6158 H   0  0  0  0  0  0  0  0  0  0  0  0
   -5.0326    1.6732   -1.7998 H   0  0  0  0  0  0  0  0  0  0  0  0
    0.6569    2.1908   -0.0803 H   0  0  0  0  0  0  0  0  0  0  0  0
   -5.0122    1.7832    1.2390 H   0  0  0  0  0  0  0  0  0  0  0  0
   -6.3981    1.9589    0.1429 H   0  0  0  0  0  0  0  0  0  0  0  0
    2.1753    1.8715    2.6826 H   0  0  0  0  0  0  0  0  0  0  0  0
    0.6659    2.8821    2.3704 H   0  0  0  0  0  0  0  0  0  0  0  0
    1.8385    4.2249    0.6490 H   0  0  0  0  0  0  0  0  0  0  0  0
    3.4075    3.3290    0.8596 H   0  0  0  0  0  0  0  0  0  0  0  0
   -5.3242   -0.5007    1.3975 H   0  0  0  0  0  0  0  0  0  0  0  0
   -6.8431   -0.2137    0.5384 H   0  0  0  0  0  0  0  0  0  0  0  0
   -0.4901   -0.1349   -0.8271 H   0  0  0  0  0  0  0  0  0  0  0  0
    2.2283   -0.4112    1.8986 H   0  0  0  0  0  0  0  0  0  0  0  0
   -0.0025    0.8201    1.2535 H   0  0  0  0  0  0  0  0  0  0  0  0
    1.9315   -2.4997    0.8901 H   0  0  0  0  0  0  0  0  0  0  0  0
   -0.6802   -2.4904   -1.4241 H   0  0  0  0  0  0  0  0  0  0  0  0
    3.9074    0.1939    1.3819 H   0  0  0  0  0  0  0  0  0  0  0  0
    4.1967    1.6052    0.3499 H   0  0  0  0  0  0  0  0  0  0  0  0
    1.6637   -2.6487   -1.6021 H   0  0  0  0  0  0  0  0  0  0  0  0
    1.2583   -0.8397   -1.6050 H   0  0  0  0  0  0  0  0  0  0  0  0
    3.5865    0.0040   -1.5979 H   0  0  0  0  0  0  0  0  0  0  0  0
    4.2088   -1.9703    0.6627 H   0  0  0  0  0  0  0  0  0  0  0  0
    5.7895   -0.9844   -1.6812 H   0  0  0  0  0  0  0  0  0  0  0  0
   -0.9779   -0.6528    4.1610 H   0  0  0  0  0  0  0  0  0  0  0  0
   -1.6222    0.5600    3.0650 H   0  0  0  0  0  0  0  0  0  0  0  0
    0.0207    0.7298    3.6864 H   0  0  0  0  0  0  0  0  0  0  0  0
    3.2792    0.3628    3.4878 H   0  0  0  0  0  0  0  0  0  0  0  0
    6.1054    2.4671   -0.2801 H   0  0  0  0  0  0  0  0  0  0  0  0
    6.4370    0.2472    2.2877 H   0  0  0  0  0  0  0  0  0  0  0  0
   -3.3711   -2.5104    0.0826 H   0  0  0  0  0  0  0  0  0  0  0  0
   -4.0533    0.7876   -2.2145 H   0  0  0  0  0  0  0  0  0  0  0  0
   -3.7956   -1.5147   -1.8519 H   0  0  0  0  0  0  0  0  0  0  0  0
   -2.6459    2.2567   -1.2363 H   0  0  0  0  0  0  0  0  0  0  0  0
   -3.0421    1.5953    0.4605 H   0  0  0  0  0  0  0  0  0  0  0  0
   -1.9385   -0.2669   -2.4600 H   0  0  0  0  0  0  0  0  0  0  0  0
   -1.3070   -1.4812   -1.3758 H   0  0  0  0  0  0  0  0  0  0  0  0
   -5.2870    1.8977   -0.2789 H   0  0  0  0  0  0  0  0  0  0  0  0
   -5.9892    0.4135   -1.0488 H   0  0  0  0  0  0  0  0  0  0  0  0
    0.8353   -0.1285   -2.1089 H   0  0  0  0  0  0  0  0  0  0  0  0
   -6.2922    0.2060    1.2811 H   0  0  0  0  0  0  0  0  0  0  0  0
   -4.5272    0.4895    1.6216 H   0  0  0  0  0  0  0  0  0  0  0  0
    1.8665   -2.9720   -1.1274 H   0  0  0  0  0  0  0  0  0  0  0  0
    0.6593   -2.5907   -2.4662 H   0  0  0  0  0  0  0  0  0  0  0  0
    3.5981   -1.6004   -2.2529 H   0  0  0  0  0  0  0  0  0  0  0  0
    2.4311   -1.2538   -3.6188 H   0  0  0  0  0  0  0  0  0  0  0  0
   -5.0829   -1.9725    1.5704 H   0  0  0  0  0  0  0  0  0  0  0  0
   -5.6421   -1.7858   -0.1203 H   0  0  0  0  0  0  0  0  0  0  0  0
   -1.9231    0.2738    1.3141 H   0  0  0  0  0  0  0  0  0  0  0  0
    1.9956   -1.0146    1.4657 H   0  0  0  0  0  0  0  0  0  0  0  0
   -0.0729   -0.5765    2.1879 H   0  0  0  0  0  0  0  0  0  0  0  0
    1.2437    0.9252    2.6571 H   0  0  0  0  0  0  0  0  0  0  0  0
   -0.8086    2.0326    2.1728 H   0  0  0  0  0  0  0  0  0  0  0  0
    3.3233    1.5267   -0.7063 H   0  0  0  0  0  0  0  0  0  0  0  0
    4.0633   -0.0321   -1.0578 H   0  0  0  0  0  0  0  0  0  0  0  0
    1.1242    3.0722    1.4015 H   0  0  0  0  0  0  0  0  0  0  0  0
    1.0995    2.2071   -0.1400 H   0  0  0  0  0  0  0  0  0  0  0  0
    4.0991   -0.5609    1.3830 H   0  0  0  0  0  0  0  0  0  0  0  0
    3.3284    2.4148    1.5229 H   0  0  0  0  0  0  0  0  0  0  0  0
    5.9792    0.3903    0.1344 H   0  0  0  0  0  0  0  0  0  0  0  0
   -1.4750   -2.3478    2.3341 H   0  0  0  0  0  0  0  0  0  0  0  0
    0.2970   -2.8665    2.3609 H   0  0  0  0  0  0  0  0  0  0  0  0
   -0.8684   -3.6652    1.2917 H   0  0  0  0  0  0  0  0  0  0  0  0
    3.9705   -1.4889    2.4831 H   0  0  0  0  0  0  0  0  0  0  0  0
    5.3166    3.1350    1.1104 H   0  0  0  0  0  0  0  0  0  0  0  0
    6.3168   -0.3430    1.6058 H   0  0  0  0  0  0  0  0  0  0  0  0
   -4.2902   -2.2044   -0.5715 H   0  0  0  0  0  0  0  0  0  0  0  0
   -3.9631    1.8011   -1.4271 H   0  0  0  0  0  0  0  0  0  0  0  0
   -4.3974   -0.4443   -2.0616 H   0  0  0  0  0  0  0  0  0  0  0  0
   -2.2430    2.2256    0.0398 H   0  0  0  0  0  0  0  0  0  0  0  0
   -3.1499    1.3020    1.3647 H   0  0  0  0  0  0  0  0  0  0  0  0
   -2.0563    0.4182   -1.9980 H   0  0  0  0  0  0  0  0  0  0  0  0
   -2.0442   -1.3485   -1.4355 H   0  0  0  0  0  0  0  0  0  0  0  0
   -5.2211    2.3244    0.7014 H   0  0  0  0  0  0  0  0  0  0  0  0
   -6.1277    1.4097   -0.5724 H   0  0  0  0  0  0  0  0  0  0  0  0
    0.8106   -0.1191   -2.3036 H   0  0  0  0  0  0  0  0  0  0  0  0
   -4.8816    0.4521    2.0664 H   0  0  0  0  0  0  0  0  0  0  0  0
   -6.6082    0.4383    1.5908 H   0  0  0  0  0  0  0  0  0  0  0  0
    3.4896   -1.7242   -1.9508 H   0  0  0  0  0  0  0  0  0  0  0  0
    2.1745   -1.9873   -3.2102 H   0  0  0  0  0  0  0  0  0  0  0  0
    3.8616    0.4962   -2.9881 H   0  0  0  0  0  0  0  0  0  0  0  0
    2.4361    0.3066   -4.1197 H   0  0  0  0  0  0  0  0  0  0  0  0
   -5.4949   -1.8104    1.4324 H   0  0  0  0  0  0  0  0  0  0  0  0
   -6.3633   -1.2576   -0.0176 H   0  0  0  0  0  0  0  0  0  0  0  0
   -0.2521    1.0119   -0.4402 H   0  0  0  0  0  0  0  0  0  0  0  0
    2.1995   -1.5676    0.2377 H   0  0  0  0  0  0  0  0  0  0  0  0
   -0.0518   -1.4542   -0.7566 H   0  0  0  0  0  0  0  0  0  0  0  0
    1.6283   -1.0098    2.4089 H   0  0  0  0  0  0  0  0  0  0  0  0
   -0.9438    1.8855    1.6874 H   0  0  0  0  0  0  0  0  0  0  0  0
    2.9570    2.0785    0.1826 H   0  0  0  0  0  0  0  0  0  0  0  0
    3.8374    1.3885   -1.1770 H   0  0  0  0  0  0  0  0  0  0  0  0
    1.2951    1.9980    1.9056 H   0  0  0  0  0  0  0  0  0  0  0  0
    0.9215    0.9755    3.2914 H   0  0  0  0  0  0  0  0  0  0  0  0
    4.2759   -0.6560    0.3735 H   0  0  0  0  0  0  0  0  0  0  0  0
    3.3094    1.2939    2.5151 H   0  0  0  0  0  0  0  0  0  0  0  0
    5.8555    1.2767    0.0986 H   0  0  0  0  0  0  0  0  0  0  0  0
   -1.5656   -2.8687    0.3399 H   0  0  0  0  0  0  0  0  0  0  0  0
   -0.7478   -3.7037    1.7631 H   0  0  0  0  0  0  0  0  0  0  0  0
    0.1249   -3.4922    0.2407 H   0  0  0  0  0  0  0  0  0  0  0  0
    3.7553   -3.1569    0.5525 H   0  0  0  0  0  0  0  0  0  0  0  0
    5.7605    0.8317    2.7675 H   0  0  0  0  0  0  0  0  0  0  0  0
    6.2281   -1.1861   -0.5069 H   0  0  0  0  0  0  0  0  0  0  0  0
   -5.0571   -2.2872    1.1389 H   0  0  0  0  0  0  0  0  0  0  0  0
   -3.9528   -0.4177   -2.3258 H   0  0  0  0  0  0  0  0  0  0  0  0
   -4.0008   -2.3165   -0.9949 H   0  0  0  0  0  0  0  0  0  0  0  0
   -2.2736    1.0119   -1.7425 H   0  0  0  0  0  0  0  0  0  0  0  0
   -2.9809    1.1882   -0.0513 H   0  0  0  0  0  0  0  0  0  0  0  0
   -3.0525   -0.8847    1.4082 H   0  0  0  0  0  0  0  0  0  0  0  0
   -2.4357   -2.3862    0.6609 H   0  0  0  0  0  0  0  0  0  0  0  0
   -4.8973    1.7245   -1.4675 H   0  0  0  0  0  0  0  0  0  0  0  0
   -6.0414    0.3459   -1.6251 H   0  0  0  0  0  0  0  0  0  0  0  0
    1.3693    2.9481   -0.4713 H   0  0  0  0  0  0  0  0  0  0  0  0
   -4.9374    1.6841    0.8416 H   0  0  0  0  0  0  0  0  0  0  0  0
   -6.6192    1.3858    0.3678 H   0  0  0  0  0  0  0  0  0  0  0  0
    1.8797    0.5470   -2.4533 H   0  0  0  0  0  0  0  0  0  0  0  0
    0.9678    2.1096   -2.7611 H   0  0  0  0  0  0  0  0  0  0  0  0
    3.9185    1.8753   -2.0201 H   0  0  0  0  0  0  0  0  0  0  0  0
    3.0002    3.4427   -2.2563 H   0  0  0  0  0  0  0  0  0  0  0  0
   -4.8488   -0.2010    2.0889 H   0  0  0  0  0  0  0  0  0  0  0  0
   -6.5428   -0.4763    1.6549 H   0  0  0  0  0  0  0  0  0  0  0  0
   -0.1599   -0.3029   -1.2729 H   0  0  0  0  0  0  0  0  0  0  0  0
    1.6469    0.5332    2.0322 H   0  0  0  0  0  0  0  0  0  0  0  0
   -0.2554    1.4383    0.5392 H   0  0  0  0  0  0  0  0  0  0  0  0
    1.6360   -1.6235    1.7331 H   0  0  0  0  0  0  0  0  0  0  0  0
   -0.1405   -2.2235    1.0534 H   0  0  0  0  0  0  0  0  0  0  0  0
    3.4355    1.0604    2.0070 H   0  0  0  0  0  0  0  0  0  0  0  0
    4.1924    2.1409    0.8147 H   0  0  0  0  0  0  0  0  0  0  0  0
    1.7991   -2.9374   -0.2000 H   0  0  0  0  0  0  0  0  0  0  0  0
    1.6199   -1.5183   -1.3295 H   0  0  0  0  0  0  0  0  0  0  0  0
    4.3876   -0.0499   -0.6725 H   0  0  0  0  0  0  0  0  0  0  0  0
    3.8443   -1.4415    1.9211 H   0  0  0  0  0  0  0  0  0  0  0  0
    6.2580    0.8579    0.7214 H   0  0  0  0  0  0  0  0  0  0  0  0
   -2.0893    1.5829    2.0737 H   0  0  0  0  0  0  0  0  0  0  0  0
   -0.5035    1.8665    2.9670 H   0  0  0  0  0  0  0  0  0  0  0  0
   -1.7023    0.7214    3.5549 H   0  0  0  0  0  0  0  0  0  0  0  0
    3.7447   -2.8493    1.1745 H   0  0  0  0  0  0  0  0  0  0  0  0
    3.7253    1.8910    3.2653 H   0  0  0  0  0  0  0  0  0  0  0  0
    5.7531   -1.0678    3.0466 H   0  0  0  0  0  0  0  0  0  0  0  0
   -5.0295   -2.1505    1.6301 H   0  0  0  0  0  0  0  0  0  0  0  0
   -3.8632    0.0518   -1.7137 H   0  0  0  0  0  0  0  0  0  0  0  0
   -4.4357   -1.9517   -0.8039 H   0  0  0  0  0  0  0  0  0  0  0  0
   -2.3242    1.4423   -0.5876 H   0  0  0  0  0  0  0  0  0  0  0  0
   -2.9253    0.9613    1.0446 H   0  0  0  0  0  0  0  0  0  0  0  0
   -2.9650   -1.2600    1.7014 H   0  0  0  0  0  0  0  0  0  0  0  0
   -2.5834   -2.5821    0.6266 H   0  0  0  0  0  0  0  0  0  0  0  0
   -4.8338    2.0742   -0.6650 H   0  0  0  0  0  0  0  0  0  0  0  0
   -5.9620    0.8000   -1.1860 H   0  0  0  0  0  0  0  0  0  0  0  0
    1.6619    2.0818   -2.2334 H   0  0  0  0  0  0  0  0  0  0  0  0
   -5.5735    1.9727    1.4816 H   0  0  0  0  0  0  0  0  0  0  0  0
   -6.9462    1.0768    0.8158 H   0  0  0  0  0  0  0  0  0  0  0  0
    3.7121   -0.2777   -2.5706 H   0  0  0  0  0  0  0  0  0  0  0  0
    2.6415    0.4735   -3.8577 H   0  0  0  0  0  0  0  0  0  0  0  0
    4.8550    1.9000   -2.1893 H   0  0  0  0  0  0  0  0  0  0  0  0
    3.7491    2.6846   -3.4191 H   0  0  0  0  0  0  0  0  0  0  0  0
   -4.7221    0.0838    2.4859 H   0  0  0  0  0  0  0  0  0  0  0  0
   -6.4108   -0.4352    2.3939 H   0  0  0  0  0  0  0  0  0  0  0  0
   -0.9240   -0.3213   -1.6489 H   0  0  0  0  0  0  0  0  0  0  0  0
    1.3549   -0.3083   -1.6978 H   0  0  0  0  0  0  0  0  0  0  0  0
    0.2923   -0.0517    1.1145 H   0  0  0  0  0  0  0  0  0  0  0  0
    2.7530   -1.9455   -0.7030 H   0  0  0  0  0  0  0  0  0  0  0  0
    0.4130   -2.0841   -1.7224 H   0  0  0  0  0  0  0  0  0  0  0  0
    3.3648    1.9042    1.0257 H   0  0  0  0  0  0  0  0  0  0  0  0
    4.4787    1.4107   -0.2496 H   0  0  0  0  0  0  0  0  0  0  0  0
    0.5209   -2.0886    1.3074 H   0  0  0  0  0  0  0  0  0  0  0  0
    1.2100   -3.3312    0.2230 H   0  0  0  0  0  0  0  0  0  0  0  0
    4.7505   -0.7359    0.5675 H   0  0  0  0  0  0  0  0  0  0  0  0
    2.0825   -0.6684    2.0036 H   0  0  0  0  0  0  0  0  0  0  0  0
    5.3421    0.9183    2.3413 H   0  0  0  0  0  0  0  0  0  0  0  0
   -0.3986    3.2543    1.0202 H   0  0  0  0  0  0  0  0  0  0  0  0
    0.8389    2.1717    1.6913 H   0  0  0  0  0  0  0  0  0  0  0  0
   -0.8617    1.7559    1.8704 H   0  0  0  0  0  0  0  0  0  0  0  0
    3.6340   -2.3066   -2.0538 H   0  0  0  0  0  0  0  0  0  0  0  0
    5.2939    3.0152   -1.3437 H   0  0  0  0  0  0  0  0  0  0  0  0
    5.5129    0.4747   -0.0474 H   0  0  0  0  0  0  0  0  0  0  0  0
   -5.1262   -1.8433   -0.8562 H   0  0  0  0  0  0  0  0  0  0  0  0
   -3.5283    1.9824   -1.0253 H   0  0  0  0  0  0  0  0  0  0  0  0
   -4.5981    0.2942   -2.1582 H   0  0  0  0  0  0  0  0  0  0  0  0
   -2.8685    0.7217    1.4531 H   0  0  0  0  0  0  0  0  0  0  0  0
   -1.7618    1.4783    0.2901 H   0  0  0  0  0  0  0  0  0  0  0  0
   -3.1372   -1.8457   -1.5552 H   0  0  0  0  0  0  0  0  0  0  0  0
   -2.4086   -0.2611   -2.1794 H   0  0  0  0  0  0  0  0  0  0  0  0
   -4.4733    2.4498    1.1622 H   0  0  0  0  0  0  0  0  0  0  0  0
   -5.7284    2.0302   -0.0820 H   0  0  0  0  0  0  0  0  0  0  0  0
    4.1249   -0.1138    1.8123 H   0  0  0  0  0  0  0  0  0  0  0  0
   -4.6802    0.5260    2.3597 H   0  0  0  0  0  0  0  0  0  0  0  0
   -6.3498    0.8209    1.8650 H   0  0  0  0  0  0  0  0  0  0  0  0
    1.6301   -0.1039    3.6973 H   0  0  0  0  0  0  0  0  0  0  0  0
    3.3285   -0.7403    4.0386 H   0  0  0  0  0  0  0  0  0  0  0  0
    2.5856    2.1545    3.3817 H   0  0  0  0  0  0  0  0  0  0  0  0
    4.2964    1.5409    3.6354 H   0  0  0  0  0  0  0  0  0  0  0  0
   -4.4831   -1.4671    1.2659 H   0  0  0  0  0  0  0  0  0  0  0  0
   -6.2555   -1.3470    1.1640 H   0  0  0  0  0  0  0  0  0  0  0  0
   -0.4931    0.3237   -1.0349 H   0  0  0  0  0  0  0  0  0  0  0  0
    1.1262    0.6222   -0.6063 H   0  0  0  0  0  0  0  0  0  0  0  0
    0.1861   -1.6177    1.1148 H   0  0  0  0  0  0  0  0  0  0  0  0
    2.1462   -2.1057    0.2576 H   0  0  0  0  0  0  0  0  0  0  0  0
   -0.4218   -2.6828   -0.5536 H   0  0  0  0  0  0  0  0  0  0  0  0
    4.0865    1.7923    0.5610 H   0  0  0  0  0  0  0  0  0  0  0  0
    2.5546    2.4391   -0.1598 H   0  0  0  0  0  0  0  0  0  0  0  0
    1.2233   -0.8146   -2.3562 H   0  0  0  0  0  0  0  0  0  0  0  0
    1.5349   -2.5480   -1.9629 H   0  0  0  0  0  0  0  0  0  0  0  0
    2.6056    1.0166   -1.9550 H   0  0  0  0  0  0  0  0  0  0  0  0
    4.2333   -1.0650   -0.3743 H   0  0  0  0  0  0  0  0  0  0  0  0
    4.9140    0.6542   -2.7056 H   0  0  0  0  0  0  0  0  0  0  0  0
   -0.1124   -1.4454    3.1224 H   0  0  0  0  0  0  0  0  0  0  0  0
   -1.4221   -0.2692    3.6397 H   0  0  0  0  0  0  0  0  0  0  0  0
   -1.7297   -1.4357    2.2896 H   0  0  0  0  0  0  0  0  0  0  0  0
  7 10  1  0
  9 10  1  0
  6 11  1  0
  9 11  1  0
  6 12  1  0
 10 12  1  0
  9 13  1  0
  8 14  1  0
 13 15  1  0
 14 16  1  0
 14 17  1  0
 16 17  1  0
  7 18  1  0
 15 18  1  0
  6 19  1  0
  8 20  1  0
  2 21  1  0
 19 21  1  0
 20 21  1  0
 20 22  1  0
  1 23  1  0
 19 23  1  0
  8 24  1  0
 22 25  1  0
 23 25  1  0
 24 26  1  0
 22 27  1  0
 26 27  1  0
 27  3  1  0
  4 28  1  0
 26 28  1  0
 28  5  1  0
  2 29  1  0
 36 39  1  0
 38 39  1  0
 35 40  1  0
 38 40  1  0
 35 41  1  0
 39 41  1  0
 38 42  1  0
 37 43  1  0
 42 44  1  0
 43 45  1  0
 43 46  1  0
 45 46  1  0
 36 47  1  0
 44 47  1  0
 35 48  1  0
 37 49  1  0
 31 50  1  0
 48 50  1  0
 49 50  1  0
 49 51  1  0
 30 52  1  0
 48 52  1  0
 37 53  1  0
 51 54  1  0
 52 54  1  0
 53 55  1  0
 51 56  1  0
 55 56  1  0
 56 32  1  0
 33 57  1  0
 55 57  1  0
 57 34  1  0
 31 58  1  0
 65 68  1  0
 67 68  1  0
 64 69  1  0
 67 69  1  0
 64 70  1  0
 68 70  1  0
 67 71  1  0
 66 72  1  0
 71 73  1  0
 72 74  1  0
 72 75  1  0
 74 75  1  0
 65 76  1  0
 73 76  1  0
 64 77  1  0
 66 78  1  0
 60 79  1  0
 77 79  1  0
 78 79  1  0
 78 80  1  0
 59 81  1  0
 77 81  1  0
 66 82  1  0
 80 83  1  0
 81 83  1  0
 82 84  1  0
 80 85  1  0
 84 85  1  0
 85 61  1  0
 62 86  1  0
 84 86  1  0
 86 63  1  0
 60 87  1  0
 94 97  1  0
 96 97  1  0
 93 98  1  0
 96 98  1  0
 93 99  1  0
 97 99  1  0
 96100  1  0
 95101  1  0
100102  1  0
101103  1  0
101104  1  0
103104  1  0
 94105  1  0
102105  1  0
 93106  1  0
 95107  1  0
 89108  1  0
106108  1  0
107108  1  0
107109  1  0
 88110  1  0
106110  1  0
 95111  1  0
109112  1  0
110112  1  0
111113  1  0
109114  1  0
113114  1  0
114 90  1  0
 91115  1  0
113115  1  0
115 92  1  0
 89116  1  0
123126  1  0
125126  1  0
122127  1  0
125127  1  0
122128  1  0
126128  1  0
125129  1  0
124130  1  0
129131  1  0
130132  1  0
130133  1  0
132133  1  0
123134  1  0
131134  1  0
122135  1  0
124136  1  0
118137  1  0
135137  1  0
136137  1  0
136138  1  0
117139  1  0
135139  1  0
124140  1  0
138141  1  0
139141  1  0
140142  1  0
138143  1  0
142143  1  0
143119  1  0
120144  1  0
142144  1  0
144121  1  0
118145  1  0
152155  1  0
154155  1  0
151156  1  0
154156  1  0
151157  1  0
155157  1  0
154158  1  0
153159  1  0
158160  1  0
159161  1  0
159162  1  0
161162  1  0
152163  1  0
160163  1  0
151164  1  0
153165  1  0
147166  1  0
164166  1  0
165166  1  0
165167  1  0
146168  1  0
164168  1  0
153169  1  0
167170  1  0
168170  1  0
169171  1  0
167172  1  0
171172  1  0
172148  1  0
149173  1  0
171173  1  0
173150  1  0
147174  1  0
  3175  1  0
  4176  1  0
  5177  1  0
  7178  1  0
  9179  1  6
 10180  1  6
 11181  1  0
 11182  1  0
 12183  1  0
 12184  1  0
 13185  1  0
 13186  1  0
 14187  1  0
 15188  1  0
 15189  1  0
 16190  1  0
 16191  1  0
 17192  1  0
 17193  1  0
 18194  1  0
 18195  1  0
 19196  1  6
 20197  1  1
 21198  1  1
 22199  1  0
 23200  1  0
 24201  1  0
 24202  1  0
 25203  1  0
 25204  1  0
 26205  1  6
 27206  1  0
 28207  1  0
 29208  1  0
 29209  1  0
 29210  1  0
 32211  1  0
 33212  1  0
 34213  1  0
 36214  1  0
 38215  1  6
 39216  1  6
 40217  1  0
 40218  1  0
 41219  1  0
 41220  1  0
 42221  1  0
 42222  1  0
 43223  1  0
 44224  1  0
 44225  1  0
 45226  1  0
 45227  1  0
 46228  1  0
 46229  1  0
 47230  1  0
 47231  1  0
 48232  1  1
 49233  1  0
 50234  1  1
 51235  1  1
 52236  1  0
 53237  1  0
 53238  1  0
 54239  1  0
 54240  1  0
 55241  1  1
 56242  1  0
 57243  1  0
 58244  1  0
 58245  1  0
 58246  1  0
 61247  1  0
 62248  1  0
 63249  1  0
 65250  1  0
 67251  1  6
 68252  1  6
 69253  1  0
 69254  1  0
 70255  1  0
 70256  1  0
 71257  1  0
 71258  1  0
 72259  1  0
 73260  1  0
 73261  1  0
 74262  1  0
 74263  1  0
 75264  1  0
 75265  1  0
 76266  1  0
 76267  1  0
 77268  1  6
 78269  1  1
 79270  1  0
 80271  1  1
 81272  1  0
 82273  1  0
 82274  1  0
 83275  1  0
 83276  1  0
 84277  1  0
 85278  1  0
 86279  1  0
 87280  1  0
 87281  1  0
 87282  1  0
 90283  1  0
 91284  1  0
 92285  1  0
 94286  1  0
 96287  1  6
 97288  1  6
 98289  1  0
 98290  1  0
 99291  1  0
 99292  1  0
100293  1  0
100294  1  0
101295  1  0
102296  1  0
102297  1  0
103298  1  0
103299  1  0
104300  1  0
104301  1  0
105302  1  0
105303  1  0
106304  1  6
107305  1  1
108306  1  6
109307  1  0
110308  1  1
111309  1  0
111310  1  0
112311  1  0
112312  1  0
113313  1  6
114314  1  0
115315  1  0
116316  1  0
116317  1  0
116318  1  0
119319  1  0
120320  1  0
121321  1  0
123322  1  0
125323  1  6
126324  1  6
127325  1  0
127326  1  0
128327  1  0
128328  1  0
129329  1  0
129330  1  0
130331  1  0
131332  1  0
131333  1  0
132334  1  0
132335  1  0
133336  1  0
133337  1  0
134338  1  0
134339  1  0
135340  1  6
136341  1  0
137342  1  0
138343  1  6
139344  1  0
140345  1  0
140346  1  0
141347  1  0
141348  1  0
142349  1  6
143350  1  0
144351  1  0
145352  1  0
145353  1  0
145354  1  0
148355  1  0
149356  1  0
150357  1  0
152358  1  0
154359  1  6
155360  1  6
156361  1  0
156362  1  0
157363  1  0
157364  1  0
158365  1  0
158366  1  0
159367  1  0
160368  1  0
160369  1  0
161370  1  0
161371  1  0
162372  1  0
162373  1  0
163374  1  0
163375  1  0
164376  1  0
165377  1  6
166378  1  1
167379  1  0
168380  1  0
169381  1  0
169382  1  0
170383  1  0
170384  1  0
171385  1  0
172386  1  1
173387  1  0
174388  1  0
174389  1  0
174390  1  0
M  END
>  <PDBID>  (1) 
5CDQ

>  <PDB ID>  (1) 
5CDQ

>  <Generic Name>  (1) 
Moxifloxacin

>  <Brand Name>  (1) 
Act Moxifloxacin#Apo-moxifloxacin#Auro-moxifloxacin#Avelox#Avelox Abc Pack#Avelox I.V.#Bio-moxifloxacin#Dom-moxifloxacin#Ipg-moxifloxacin#Jamp-moxifloxacin#Jamp-moxifloxacin Tablets#Mar-moxifloxacin#Med-moxifloxacin#Moxeza#Moxifloxacin#Moxifloxacin Hydrochloride#Moxifloxacin Injection#Mylan-moxifloxacin#Mylan-moxifloxacin HCl Ophthalmic Solution#PHL-moxifloxacin#PMS-moxifloxacin#Priva-moxifloxacin#Riva-moxifloxacin#Sandoz Moxifloxacin#Teva-moxifloxacin#Torrent-moxifloxacin#Vigamox

>  <DrugBank ID>  (1) 
DB00218

>  <ATC Codes>  (1) 
J01MA14#S01AE07

>  <Ligand ID>  (1) 
MFX

>  <Target Name>  (1) 
DNA gyrase subunit A

>  <UniProt ID>  (1) 
P43700

>  <PDB ID.1>  (1) 
5CDQ

>  <Seq. Identity>  (1) 
53%

$$$$
