PDB_DB00201_09
     RDKit          3D

 32 33  0  0  0  0  0  0  0  0999 V2000
   -1.2629    1.1223   -0.1857 N   0  0  0  0  0  0  0  0  0  0  0  0
   -1.7869    0.1549    0.7206 C   0  0  0  0  0  0  0  0  0  0  0  0
   -2.0178    2.3011   -0.3520 C   0  0  0  0  0  0  0  0  0  0  0  0
    0.1315    1.3182    0.1218 C   0  0  0  0  0  0  0  0  0  0  0  0
   -1.1709   -1.1091    0.4751 N   0  0  0  0  0  0  0  0  0  0  0  0
   -3.1747   -0.0086    0.6146 O   0  0  0  0  0  0  0  0  0  0  0  0
   -1.8369   -1.7129   -0.6749 C   0  0  0  0  0  0  0  0  0  0  0  0
    0.2246   -1.1085    0.2876 C   0  0  0  0  0  0  0  0  0  0  0  0
    0.8050    0.0527   -0.4331 C   0  0  0  0  0  0  0  0  0  0  0  0
    1.0046   -1.1507    1.5129 N   0  0  0  0  0  0  0  0  0  0  0  0
    0.2669    1.2036    1.5216 O   0  0  0  0  0  0  0  0  0  0  0  0
    2.1855    0.0959   -0.0537 N   0  0  0  0  0  0  0  0  0  0  0  0
    2.3538   -0.9049    0.9817 C   0  0  0  0  0  0  0  0  0  0  0  0
    3.0295   -0.1536   -1.2035 C   0  0  0  0  0  0  0  0  0  0  0  0
   -1.6112    0.4310    1.8003 H   0  0  0  0  0  0  0  0  0  0  0  0
   -3.0915    2.1583   -0.0939 H   0  0  0  0  0  0  0  0  0  0  0  0
   -2.0247    2.5576   -1.4523 H   0  0  0  0  0  0  0  0  0  0  0  0
   -1.5541    3.1543    0.1484 H   0  0  0  0  0  0  0  0  0  0  0  0
    0.5670    2.2292   -0.2757 H   0  0  0  0  0  0  0  0  0  0  0  0
   -3.4800   -0.0871   -0.3025 H   0  0  0  0  0  0  0  0  0  0  0  0
   -1.1408   -2.4577   -1.0819 H   0  0  0  0  0  0  0  0  0  0  0  0
   -1.9486   -0.8839   -1.4201 H   0  0  0  0  0  0  0  0  0  0  0  0
   -2.8177   -2.1205   -0.3854 H   0  0  0  0  0  0  0  0  0  0  0  0
    0.4997   -2.0357   -0.2960 H   0  0  0  0  0  0  0  0  0  0  0  0
    0.7125    0.0208   -1.5304 H   0  0  0  0  0  0  0  0  0  0  0  0
    1.0079   -2.1408    1.8326 H   0  0  0  0  0  0  0  0  0  0  0  0
    0.7127    1.9667    1.9233 H   0  0  0  0  0  0  0  0  0  0  0  0
    2.9980   -0.5159    1.7900 H   0  0  0  0  0  0  0  0  0  0  0  0
    2.7392   -1.8467    0.5313 H   0  0  0  0  0  0  0  0  0  0  0  0
    2.4546   -0.7837   -1.9092 H   0  0  0  0  0  0  0  0  0  0  0  0
    4.0130   -0.5887   -0.9281 H   0  0  0  0  0  0  0  0  0  0  0  0
    3.2126    0.8422   -1.6832 H   0  0  0  0  0  0  0  0  0  0  0  0
  1  2  1  0
  1  3  1  0
  1  4  1  0
  2  5  1  0
  2  6  1  0
  5  7  1  0
  5  8  1  0
  4  9  1  0
  8  9  1  0
  8 10  1  0
  4 11  1  0
  9 12  1  0
 10 13  1  0
 12 13  1  0
 12 14  1  0
  2 15  1  0
  3 16  1  0
  3 17  1  0
  3 18  1  0
  4 19  1  0
  6 20  1  0
  7 21  1  0
  7 22  1  0
  7 23  1  0
  8 24  1  0
  9 25  1  0
 10 26  1  0
 11 27  1  0
 13 28  1  0
 13 29  1  0
 14 30  1  0
 14 31  1  0
 14 32  1  0
M  END
>  <PDBID>  (1) 
5MZP

>  <PDB ID>  (1) 
5MZP

>  <Generic Name>  (1) 
Caffeine

>  <Brand Name>  (1) 
(extra Strength) Acetaminophen, Caffeine & 8mg Codeine Phosphate Caplets#217#217 Strong Tab#222 Tablets#282 Mep Tab#282 Tab#282 Tablets#292 Tab#292 Tablets#357 Super Magnum#692 Tab#692 Tablet#7 Select Migraine Formula#999 Ganmaoling Cold#A & C Tablets With Codeine 15mg#A & C Tablets With Codeine 30mg#A.C. & C 8mg Tab#A.C. & C. 8 mg#A.C. & C. 8mg#A.C.& C Tablets#Ac and C Tab 1/8gr#Ac&c Tablets#Acet 2#Acet 3#Acetaminophen 300 Mg With 15 Mg Caffeine and 8 Mg Codeine Phosphate#Acetaminophen 300mg, Caffeine & Codeine#Acetaminophen 325 C & C#Acetaminophen 325 Mg Caffeine and Codeine#Acetaminophen 325 Mg With 15 Mg Caffeine and 8 Mg Codeine Phosphate#Acetaminophen 500 Mg Compound Tablets With Codeine#Acetaminophen 500 Mg With 15 Mg Caffeine and 8 Mg Codeine Phosphate#Acetaminophen 500mg and Caffeine 65mg#Acetaminophen 500mg, Caffeine and 8mg Codeine Phosphate#Acetaminophen Caffeine & 8mg Cod Phos Tab#Acetaminophen Caffeine & 8mg Cod. Phos. Tab#Acetaminophen Compound Tablets With Codeine 8mg#Acetaminophen Headache Ultra Relief#Acetaminophen Relief Regular Strength#Acetaminophen Ultra Relief Extra Strength#Acetaminophen W Codeine Tab#Acetaminophen With Codeine - Caplet#Acetaminophen, Butalbital and Caffeine#Acetaminophen, Caffeine & 8mg Codeine Phosphate#Acetaminophen, Caffeine & 8mg Codeine Phosphate Tablets#Acetaminophen, Caffeine & Codeine#Acetaminophen, Caffeine & Codeine Tablets#Acetaminophen, Caffeine and 8 Mg Of Codeine Phosphate Tablets#Acetaminophen, Caffeine and Dihydrocodeine Bitartrate#Acetaminophen, Caffeine, Dihydrocodeine Bitartrate#Acetaminophen, Caffeine, and 8mg Of Codeine Phosphate Tablets#Acetaminophen-caffeine-codeine#Acetaminophene Codeine Et Cafeine Caplets#Acetaminophene Codeine Et Cafeine Fort#Acetylsalicylic Acid, Caffeine & 8 Mg Codeine Phosphate Tablets#Acetylsalicylic Acid, Caffeine and 8mg Codeine Phosphate#Ache and Pain Relief To Go#Added Strength Pain Reliever#Adults Acetaminophen and Caffeine Pain Reliever Fever Reducer#Alert#Alert Aid Caffeine Capsules 175mg#Alert Aid Caffeine Tablets 175mg#Alert Alertness Aid#Alert Tab 100mg#Alertness Aid#Alertness Aid Maximum Strength#Alka-seltzer Morning Relief#Allertness Aid#Anacin#Anacin AF#Anacin Caplets#Anacin Es#Anacin Extra Strength#Anacin Extra Strength Caplets#Anacin Extra Strength Tablet#Anacin Tablet#Anacin With Codeine Tab#Antidol Tablets#Apo-acetaco #1#Ara Menstrual Complete#Arco Pain Tab#Arthriten Inflammatory Pain Formula#Asa and Caffeine#Asa, Caffeine & 8mg Codeine Phosphate#Asa-caffeine-codeine#Ascomp With Codeine#Aspirin Rapid Relief#Aspirin, Caffeine, and Dihydrocodeine Bitartrate#Atasol 15 Tab#Atasol 30 Tab#Atasol 8 Tab#Awake Maximum Strength#Back and Body Extra Strength#Backaid Inflammatory Pain Formula#Bayer Am Extra Stength#Bayer Back and Body Extra Strength#Bayer Headache Relief#Bayer Migraine Formula#Bc#Bc Arthritis#Bc Cherry#Berkley and Jensen Migraine Formula#Berkley and Jensen Migraine Relief#Bi Electro Extra Strength#Blowfish#Butalbital Acetaminophen and Caffeine#Butalbital Compound#Butalbital, Acetaminophen and Caffeine#Butalbital, Acetaminophen and Caffeine Plus#Butalbital, Acetaminophen and Caffeine With Codeine Phosphate#Butalbital, Acetaminophen, Caffeine#Butalbital, Acetaminophen, Caffeine and Codeine Phosphate#Butalbital, Acetaminophen, Caffeine, and Codeine Phosphate#Butalbital, Acetaminophen, and Caffeine#Butalbital, Acetominophen and Caffeine#Butalbital, Aspirin and Caffeine#Butalbital, Aspirin and Caffeine Tablets#Butalbital, Aspirin, Caffeine and Codeine Phosphate#Butalbital, Aspirin, Caffeine, and Codeine Phosphate#Butalbital, Aspirin, and Caffeine#C T Acetylsalicylic Acid Codeine and Caf Tab#C-2 Buffered With Codeine#C2 Buffered Tab#C2 Buffered With Codeine Tab#C2 Tab With Codeine#Cafcit#Cafergot#Cafergot Sup#Cafergot Tab#Caffeine#Caffeine 200 mg#Caffeine Citrate#Caffeine Maximum Strength#Caffeine and Sodium Benzoate#Calmine Tab#Capacet#Care One Headache Relief Added Strength#Care One Migraine Relief#Careline Perfect Care Bb#Circle K Headache Relief#Circle K Nosnooze#Citramon#Cold Remedy Gan Mao Ling#Comfort-time#Complete Menstrual Relief#Conrx Alert#Conrx Pain Reliever#Corytab#Cotabs#Darvon N Compound Pulvule 405#Destim - Tab 200mg#Dg Health Headache Relief Added Strength#Dg Health Migraine Relief#Dihydrocodeine Bitartrate, Acetaminophen and Caffeine#Diurette Water Pills#Diurex Ultimate#Diurex Ultra#Diurex Water Pills#Diurex Water Pills Xpl#Diurex Watercaps#Dolomine 37#Dristan Capsules#Drowz Away Maximum Strength#Emertabs Tab#Equaline Headache Formula Added Strength#Equaline Migraine Formula#Equaline Stay Awake#Equate Migraine Relief#Ergodryl Cap#Ergotamine#Ergotamine Tartrate and Caffeine#Esgic#Exaprin#Excedrin#Excedrin Extra Strength#Excedrin Extra Strength Caplets#Excedrin Extra Strength Geltabs#Excedrin Extra Strength Pain Reliever#Excedrin Menstrual Complete#Excedrin Migraine#Excedrin Migraine Geltabs#Excedrin Mild Headache Caplets#Excedrin Tension Headache#Excedrin Tension Headache Pain Reliever#Exdol 15tab#Exdol 30tab#Exdol 8 Tab#Exdol-15#Exdol-30#Exdol-8#Extra Pain Relief#Extra Strenght Headache Relief#Extra Strength Back and Body#Extra Strength Contac Plus Cold Nasal Congestion#Extra Strength Headache Relief#Extra Strength Menstrual Complete#Extra Strength Midol#Extra Strength Midol Relief#Extra Strength Pain Reliever#Family Wellness Migraine Relief#Fioricet#Fioricet With Codeine#Fiorinal#Fiorinal C1/2#Fiorinal C1/4#Fiorinal Tab#Fiorinal With Codeine#First Aid Shot Therapy Hangover Relief#First Aid Shot Therapy Pain Relief#Formu Care Pain Reliever Added Strength#Ganmaoling 999#Good Neighbor Pharmacy Headache Relief#Good Neighbor Pharmacy Migraine Relief#Good Neighbor Pharmacy Stay Awake#Good Sense Headache Formula Added Strength#Good Sense Migraine Formula#Good Sense Stay Awake#Goodys#Goodys Cool Orange#Goodys Cool Orange Headache#Goodys Extra Strength#Goodys Extra Strength Headache Mixed Fruit Blast#Goodys Headache Relief Shot#Goodys Migraine Relief#Goodys PM Pain Reliever#Gravergol Capsules#Green Guard Pain and Ache Relief#Handy Solutions Headache Pain Relief#Harris Teeter Migraine Relief#Headache Formula Added Strength#Headache Formula Extra Strength#Headache Relief#Headache Relief Added Strength#Headache Relief Extra Strength#Headache Relief Mild#Headache Relief To Go#Health Mart Migraine Formula#Health Mart Migraine Relief#Health Mart Stay Awake#Healthy Accents Headache Relief Added Strength#Healthy Accents Migraine Formula#Healthy Accents Stay Awake#Herbopyrine Tab 325mg#Instantine - Tablets#Instantine Tab#Isometheptene Mucate, Caffeine, and Acetaminophen#Jet Alert Double Strength#Jet Alert Regular Strength#Jet-alert Maximum Strength Alertness Aid#Leader Alertness Aid#Leader Headache Formula Added Strength#Leader Migraine Formula#Leader Migraine Relief#Lil Drug Store Headache Relief Extra Strength#Lil Drug Store Nosnooze#Madelon#Margesic#Maximum Strength Menstrual Complete#Medi First Pain Relief#Medi First Plus Pain Zapper#Medique Back Pain Off#Medique Pain Off#Megral Tabs#Menstrual Complete#Menstrual Complete Maximum Strength#Menstrual Midol Complete#Menstrual Relief#Menstrual Relief Extra Strength#Menstrual Relief Maximum Strength#Midol#Midol Complete#Midol Complete Gelcaps#Midol Extra Strength Gelcaps#Midol Extra Strength Menstrual#Midol Multi-symptom Caplets Extra Strength#Midol Multi-symptom Gelcap Extra Strength#Midol One#Midol Regular#Migergot#Migraine Formula#Migraine Relief#Migrenol#Nano Ppc#Nervine#Nervine Tab#Nodoz Maximum Strength Alertness Aid#Norgesic#Norgesic Forte#Norgesic Forte Tab#Norgesic Tab#Novo Ac and C 8mg Tab#Novo-gesic C15#Novo-gesic C30#Novo-gesic-C8#Novo-propoxyn Compound Cap#Nu-acetaco #1#Oradrine 2 Tab#Oradrine Tablets#Oradrine-2 Tab#Orbivan#Orphenadrine Citrate, Aspirin and Caffeine#PMS-pharnal Capsules#PMS-pharnal Tablets#PMS-pharnal-C 1/4 Capsules#PMS-pharnal-C1/2 Capsules#Pain Aid#Pain Aid Esf#Pain Away Plus#Pain Free#Pain Free Plus#Pain Relief Added Strength#Pain Relief Extra Strength#Pain Relief Maximum Strength#Pain Reliever Added Strength#Pain Reliever Extra Strength#Pain Reliever Plus#Pain Stopper Extra#Pain Stoppers Extra#Pain Stoppers Regular#Painex Tab 0.25gr#Painex Tab 0.5gr#Pamprin Max Menstrual Pain Relief#Panadol Extra#Pancold S#Pep-back Peak Performance#Pep-back Ultra#Phenfree Caffeine 100mg Capsules#Prodrin#Pronal - C1/2 Capsules#Pronal C1/4 Capsules#Pronal Capsules#Pronal Tablets#Ratio-lenoltec No 1#Ratio-lenoltec No 2#Ratio-lenoltec No 3#Ratio-tecnal#Ratio-tecnal C 1/2#Ratio-tecnal C 1/4#Regular Strength Aspirin#Rx Act Headache Formula Added Strength#Sed-max#Sedalmex Pain Reliever#Shoprite Migraine Formula#Signature Care Migraine Relief#Sinugex 38#Smart Sense Migraine Formula#Smart Sense Migraine Relief#Smart Sense Stay Awake#Sohmed Alertness Aid#Sohmed Pain Reliever#Spirit (chewable Squares)#Stanback#Stay Alert Aid#Stay Alert Alertness Aid#Stay Awake#Stay Awake Maximum Strength#Sugarloaf Spring Caffeine, Caffeinated Spring Water#Sunmark Headache Relief#Sunmark Migraine Relief#Sunmark Stay Awake#Sunmark Tension Headache#Synalgos#Tamicode Tablets#Teen Midol Complete#Teen Pms Relief Complete Caplets#Tension Headache#Tension Headache Aspirin Free#Tension Headache Aspirin-free#Tension Headache Relief#Tension Headache Relief Aspirin Free#Thrulife Extra Strength Headache Relief#Topcare Headache Formula#Topcare Migraine Formula#Topcare Stay Awake Maximum Strength#Trezix#Triaminicin Colds & Flu Caplets#Trianal Capsules#Trianal C¼#Trianal C½#Trianal Tablet#Triatec Fort/strong Ultra Efficace/ultra Relief#Triatec-8#Triatec-8 Fort#Tylenol Advanced Headache#Tylenol No 1 Tab#Tylenol No.1 Caplets#Tylenol No.1 Forte Caplets#Tylenol No1 Forte Tablets With Codeine#Tylenol Ultra Relief#Tylenol W Codeine No2 Tab#Tylenol W Codeine No3 Tab#Tylenol With Codeine No. 2 - Tab#Tylenol With Codeine No. 3 - Tab#Ultra Headache Relief#Up and Up Migraine Relief#Uricalm Intensive#Vanapain#Vanatol Lq#Vanquish#Vivarin#Wampole-acetaminophen/codeine/caffeine#Zebutal#Caffedrine#Dexitac#Durvitan#Enerjets#No-Doz#Pep-Back#Quick Pep#Wake-Up

>  <DrugBank ID>  (1) 
DB00201

>  <ATC Codes>  (1) 
V04CG30#N06BC01

>  <Ligand ID>  (1) 
CFF

>  <Target Name>  (1) 
Adenosine receptor A1

>  <UniProt ID>  (1) 
P30542

>  <PDB ID.1>  (1) 
5MZP

>  <Seq. Identity>  (1) 
46%

$$$$
