PDB_DB00523_05
     RDKit          3D

 62 62  0  0  0  0  0  0  0  0999 V2000
   -2.9898   -0.7593   -0.9496 C   0  0  0  0  0  0  0  0  0  0  0  0
   -3.2261   -1.3575    0.3926 C   0  0  0  0  0  0  0  0  0  0  0  0
   -4.5905   -1.0283    0.8977 C   0  0  0  0  0  0  0  0  0  0  0  0
   -4.9429    0.3982    0.6799 C   0  0  0  0  0  0  0  0  0  0  0  0
   -4.5969    1.0401   -0.6027 C   0  0  2  0  0  0  0  0  0  0  0  0
   -3.0950    0.7156   -0.9644 C   0  0  1  0  0  0  0  0  0  0  0  0
   -2.2583    1.5909   -0.1406 C   0  0  0  0  0  0  0  0  0  0  0  0
   -0.8170    1.7282   -0.1526 C   0  0  0  0  0  0  0  0  0  0  0  0
    0.1331    0.6814    0.2384 C   0  0  0  0  0  0  0  0  0  0  0  0
    1.5477    1.3505    0.0750 C   0  0  0  0  0  0  0  0  0  0  0  0
    2.5707    0.3040    0.4602 C   0  0  0  0  0  0  0  0  0  0  0  0
    3.9238    0.9393    0.3086 C   0  0  0  0  0  0  0  0  0  0  0  0
    5.0717    0.0383    0.6491 C   0  0  0  0  0  0  0  0  0  0  0  0
    5.0542   -1.1649   -0.2494 C   0  0  0  0  0  0  0  0  0  0  0  0
    6.1911   -2.1171    0.0405 C   0  0  0  0  0  0  0  0  0  0  0  0
   -1.7930   -1.3467   -1.5898 C   0  0  0  0  0  0  0  0  0  0  0  0
   -4.1824   -1.2424   -1.8443 C   0  0  0  0  0  0  0  0  0  0  0  0
   -4.7639    2.5335   -0.4789 C   0  0  0  0  0  0  0  0  0  0  0  0
    0.0425    0.3250    1.7124 C   0  0  0  0  0  0  0  0  0  0  0  0
    5.1083   -0.3237    2.1142 C   0  0  0  0  0  0  0  0  0  0  0  0
    7.4364   -1.5500   -0.1149 O   0  0  0  0  0  0  0  0  0  0  0  0
    6.0933   -2.6315    1.3225 O   0  0  0  0  0  0  0  0  0  0  0  0
   -2.5040   -0.9060    1.1125 H   0  0  0  0  0  0  0  0  0  0  0  0
   -3.0555   -2.4564    0.2955 H   0  0  0  0  0  0  0  0  0  0  0  0
   -4.6103   -1.1665    2.0364 H   0  0  0  0  0  0  0  0  0  0  0  0
   -5.3911   -1.7127    0.5126 H   0  0  0  0  0  0  0  0  0  0  0  0
   -4.6288    1.0106    1.5724 H   0  0  0  0  0  0  0  0  0  0  0  0
   -6.0797    0.4473    0.7569 H   0  0  0  0  0  0  0  0  0  0  0  0
   -5.2292    0.7017   -1.4180 H   0  0  0  0  0  0  0  0  0  0  0  0
   -3.0452    1.0557   -2.0253 H   0  0  0  0  0  0  0  0  0  0  0  0
   -2.6561    2.6907   -0.2303 H   0  0  0  0  0  0  0  0  0  0  0  0
   -2.5669    1.4502    0.9919 H   0  0  0  0  0  0  0  0  0  0  0  0
   -0.4863    2.6931    0.3988 H   0  0  0  0  0  0  0  0  0  0  0  0
   -0.4934    2.0231   -1.2333 H   0  0  0  0  0  0  0  0  0  0  0  0
    0.2402   -0.2008   -0.3770 H   0  0  0  0  0  0  0  0  0  0  0  0
    1.7055    1.6030   -0.9810 H   0  0  0  0  0  0  0  0  0  0  0  0
    1.5696    2.2126    0.7469 H   0  0  0  0  0  0  0  0  0  0  0  0
    2.4330   -0.0210    1.5015 H   0  0  0  0  0  0  0  0  0  0  0  0
    2.4394   -0.5973   -0.1805 H   0  0  0  0  0  0  0  0  0  0  0  0
    4.0295    1.1885   -0.7869 H   0  0  0  0  0  0  0  0  0  0  0  0
    3.9151    1.8641    0.9212 H   0  0  0  0  0  0  0  0  0  0  0  0
    6.0044    0.6128    0.4104 H   0  0  0  0  0  0  0  0  0  0  0  0
    5.1841   -0.7907   -1.2912 H   0  0  0  0  0  0  0  0  0  0  0  0
    4.1166   -1.7493   -0.1558 H   0  0  0  0  0  0  0  0  0  0  0  0
    6.1090   -2.9508   -0.7008 H   0  0  0  0  0  0  0  0  0  0  0  0
   -1.1819   -1.9644   -0.8570 H   0  0  0  0  0  0  0  0  0  0  0  0
   -1.1867   -0.6707   -2.2009 H   0  0  0  0  0  0  0  0  0  0  0  0
   -2.1302   -2.1499   -2.3182 H   0  0  0  0  0  0  0  0  0  0  0  0
   -4.2246   -0.5218   -2.6784 H   0  0  0  0  0  0  0  0  0  0  0  0
   -3.9063   -2.2453   -2.2550 H   0  0  0  0  0  0  0  0  0  0  0  0
   -5.1150   -1.2394   -1.3065 H   0  0  0  0  0  0  0  0  0  0  0  0
   -5.8703    2.7587   -0.5776 H   0  0  0  0  0  0  0  0  0  0  0  0
   -4.3068    3.1050   -1.3129 H   0  0  0  0  0  0  0  0  0  0  0  0
   -4.5130    2.9249    0.5306 H   0  0  0  0  0  0  0  0  0  0  0  0
    0.8011    0.8629    2.2965 H   0  0  0  0  0  0  0  0  0  0  0  0
    0.1778   -0.7679    1.8325 H   0  0  0  0  0  0  0  0  0  0  0  0
   -0.9773    0.6453    2.0819 H   0  0  0  0  0  0  0  0  0  0  0  0
    6.1709   -0.4992    2.4442 H   0  0  0  0  0  0  0  0  0  0  0  0
    4.5458   -1.2309    2.3641 H   0  0  0  0  0  0  0  0  0  0  0  0
    4.7458    0.5429    2.7129 H   0  0  0  0  0  0  0  0  0  0  0  0
    7.5628   -1.1295   -0.9967 H   0  0  0  0  0  0  0  0  0  0  0  0
    6.4909   -3.5462    1.4076 H   0  0  0  0  0  0  0  0  0  0  0  0
  1  2  1  0
  2  3  1  0
  3  4  1  0
  4  5  1  0
  1  6  1  0
  5  6  1  0
  6  7  1  0
  7  8  1  0
  8  9  1  0
  9 10  1  0
 10 11  1  0
 11 12  1  0
 12 13  1  0
 13 14  1  0
 14 15  1  0
  1 16  1  0
  1 17  1  0
  5 18  1  0
  9 19  1  0
 13 20  1  0
 15 21  1  0
 15 22  1  0
  2 23  1  0
  2 24  1  0
  3 25  1  0
  3 26  1  0
  4 27  1  0
  4 28  1  0
  5 29  1  6
  6 30  1  6
  7 31  1  0
  7 32  1  0
  8 33  1  0
  8 34  1  0
  9 35  1  0
 10 36  1  0
 10 37  1  0
 11 38  1  0
 11 39  1  0
 12 40  1  0
 12 41  1  0
 13 42  1  0
 14 43  1  0
 14 44  1  0
 15 45  1  0
 16 46  1  0
 16 47  1  0
 16 48  1  0
 17 49  1  0
 17 50  1  0
 17 51  1  0
 18 52  1  0
 18 53  1  0
 18 54  1  0
 19 55  1  0
 19 56  1  0
 19 57  1  0
 20 58  1  0
 20 59  1  0
 20 60  1  0
 21 61  1  0
 22 62  1  0
M  END
>  <PDBID>  (1) 
3OAP

>  <PDB ID>  (1) 
3OAP

>  <Generic Name>  (1) 
Alitretinoin

>  <Brand Name>  (1) 
Panretin#Toctino

>  <DrugBank ID>  (1) 
DB00523

>  <ATC Codes>  (1) 
D11AH04#L01XX22

>  <Ligand ID>  (1) 
9CR

>  <Target Name>  (1) 
Retinoic acid receptor RXR-beta

>  <UniProt ID>  (1) 
P28702

>  <PDB ID.1>  (1) 
3OAP

>  <Seq. Identity>  (1) 
87%

$$$$
