PDB_DB01137_04
     RDKit          3D

116122  0  0  0  0  0  0  0  0999 V2000
   -5.0943    1.3359    0.5158 C   0  0  0  0  0  0  0  0  0  0  0  0
    0.3596    2.2688   -1.4693 F   0  0  0  0  0  0  0  0  0  0  0  0
    5.2659    0.2006   -0.6731 N   0  0  0  0  0  0  0  0  0  0  0  0
   -6.0136    1.3164   -0.5551 O   0  0  0  0  0  0  0  0  0  0  0  0
    3.1959    0.3255    0.5180 C   0  0  0  0  0  0  0  0  0  0  0  0
    2.4202   -0.3991   -0.4175 N   0  0  0  0  0  0  0  0  0  0  0  0
    0.2293   -1.3436    0.5775 O   0  0  0  0  0  0  0  0  0  0  0  0
    3.2739   -1.0981   -1.3268 C   0  0  0  0  0  0  0  0  0  0  0  0
   -2.3227   -0.9324   -0.5925 N   0  0  0  0  0  0  0  0  0  0  0  0
   -2.4983    0.5988    2.0207 O   0  0  0  0  0  0  0  0  0  0  0  0
   -2.1042   -2.0010    0.2784 C   0  0  2  0  0  0  0  0  0  0  0  0
   -5.1041    2.6014    1.0588 O   0  0  0  0  0  0  0  0  0  0  0  0
    1.2378    0.1709   -0.9261 C   0  0  0  0  0  0  0  0  0  0  0  0
   -1.2478   -0.0174   -0.8007 C   0  0  0  0  0  0  0  0  0  0  0  0
    0.0618   -0.7143   -0.5977 C   0  0  0  0  0  0  0  0  0  0  0  0
    4.2015    1.1187   -0.3091 C   0  0  0  0  0  0  0  0  0  0  0  0
    4.7247   -1.1069   -0.8555 C   0  0  0  0  0  0  0  0  0  0  0  0
   -0.8487   -2.0264    1.0777 C   0  0  0  0  0  0  0  0  0  0  0  0
   -1.3679    1.2642   -0.0186 C   0  0  0  0  0  0  0  0  0  0  0  0
    0.9713    1.5786   -0.4442 C   0  0  0  0  0  0  0  0  0  0  0  0
   -3.6165   -0.3488   -0.6515 C   0  0  0  0  0  0  0  0  0  0  0  0
   -0.0612    1.5156    0.6926 C   0  0  0  0  0  0  0  0  0  0  0  0
   -2.1947   -3.3024   -0.5360 C   0  0  0  0  0  0  0  0  0  0  0  0
   -2.5829    1.3238    0.8703 C   0  0  0  0  0  0  0  0  0  0  0  0
    6.3219    0.2938    0.2958 C   0  0  0  0  0  0  0  0  0  0  0  0
   -3.7489    1.0203   -0.0354 C   0  0  0  0  0  0  0  0  0  0  0  0
    2.6597    0.9368    1.2502 H   0  0  0  0  0  0  0  0  0  0  0  0
    3.7960   -0.3964    1.1122 H   0  0  0  0  0  0  0  0  0  0  0  0
    2.9485   -2.1641   -1.3349 H   0  0  0  0  0  0  0  0  0  0  0  0
    3.2527   -0.7310   -2.3664 H   0  0  0  0  0  0  0  0  0  0  0  0
   -2.9481   -2.0672    1.0068 H   0  0  0  0  0  0  0  0  0  0  0  0
    4.5481    1.9767    0.2526 H   0  0  0  0  0  0  0  0  0  0  0  0
    3.7517    1.3925   -1.3120 H   0  0  0  0  0  0  0  0  0  0  0  0
    4.8423   -1.7624    0.0364 H   0  0  0  0  0  0  0  0  0  0  0  0
    5.2956   -1.6139   -1.6640 H   0  0  0  0  0  0  0  0  0  0  0  0
   -1.0317   -1.6683    2.1088 H   0  0  0  0  0  0  0  0  0  0  0  0
   -0.5237   -3.0972    1.2075 H   0  0  0  0  0  0  0  0  0  0  0  0
   -4.0893   -0.3615   -1.6590 H   0  0  0  0  0  0  0  0  0  0  0  0
    0.2028    0.7986    1.4661 H   0  0  0  0  0  0  0  0  0  0  0  0
   -1.4659   -3.3450   -1.3480 H   0  0  0  0  0  0  0  0  0  0  0  0
   -3.2578   -3.3878   -0.8598 H   0  0  0  0  0  0  0  0  0  0  0  0
   -2.0407   -4.1545    0.1904 H   0  0  0  0  0  0  0  0  0  0  0  0
    6.6324   -0.6937    0.6485 H   0  0  0  0  0  0  0  0  0  0  0  0
    5.9902    0.9173    1.1780 H   0  0  0  0  0  0  0  0  0  0  0  0
    7.1397    0.8899   -0.1849 H   0  0  0  0  0  0  0  0  0  0  0  0
   -5.0943    1.3359    0.5158 C   0  0  0  0  0  0  0  0  0  0  0  0
    0.3596    2.2688   -1.4693 F   0  0  0  0  0  0  0  0  0  0  0  0
    5.2659    0.2006   -0.6731 N   0  0  0  0  0  0  0  0  0  0  0  0
   -6.0136    1.3164   -0.5551 O   0  0  0  0  0  0  0  0  0  0  0  0
    3.1959    0.3255    0.5180 C   0  0  0  0  0  0  0  0  0  0  0  0
    2.4202   -0.3991   -0.4175 N   0  0  0  0  0  0  0  0  0  0  0  0
    0.2293   -1.3436    0.5775 O   0  0  0  0  0  0  0  0  0  0  0  0
    3.2739   -1.0981   -1.3268 C   0  0  0  0  0  0  0  0  0  0  0  0
   -2.3227   -0.9324   -0.5925 N   0  0  0  0  0  0  0  0  0  0  0  0
   -2.4983    0.5988    2.0207 O   0  0  0  0  0  0  0  0  0  0  0  0
   -2.1042   -2.0010    0.2784 C   0  0  2  0  0  0  0  0  0  0  0  0
   -5.1041    2.6014    1.0588 O   0  0  0  0  0  0  0  0  0  0  0  0
    1.2378    0.1709   -0.9261 C   0  0  0  0  0  0  0  0  0  0  0  0
   -1.2478   -0.0174   -0.8007 C   0  0  0  0  0  0  0  0  0  0  0  0
    0.0618   -0.7143   -0.5977 C   0  0  0  0  0  0  0  0  0  0  0  0
    4.2015    1.1187   -0.3091 C   0  0  0  0  0  0  0  0  0  0  0  0
    4.7247   -1.1069   -0.8555 C   0  0  0  0  0  0  0  0  0  0  0  0
   -0.8487   -2.0264    1.0777 C   0  0  0  0  0  0  0  0  0  0  0  0
   -1.3679    1.2642   -0.0186 C   0  0  0  0  0  0  0  0  0  0  0  0
    0.9713    1.5786   -0.4442 C   0  0  0  0  0  0  0  0  0  0  0  0
   -3.6165   -0.3488   -0.6515 C   0  0  0  0  0  0  0  0  0  0  0  0
   -0.0612    1.5156    0.6926 C   0  0  0  0  0  0  0  0  0  0  0  0
   -2.1947   -3.3024   -0.5360 C   0  0  0  0  0  0  0  0  0  0  0  0
   -2.5829    1.3238    0.8703 C   0  0  0  0  0  0  0  0  0  0  0  0
    6.3219    0.2938    0.2958 C   0  0  0  0  0  0  0  0  0  0  0  0
   -3.7489    1.0203   -0.0354 C   0  0  0  0  0  0  0  0  0  0  0  0
    2.6597    0.9368    1.2502 H   0  0  0  0  0  0  0  0  0  0  0  0
    3.7960   -0.3964    1.1122 H   0  0  0  0  0  0  0  0  0  0  0  0
    2.9485   -2.1641   -1.3349 H   0  0  0  0  0  0  0  0  0  0  0  0
    3.2527   -0.7310   -2.3664 H   0  0  0  0  0  0  0  0  0  0  0  0
   -2.9481   -2.0672    1.0068 H   0  0  0  0  0  0  0  0  0  0  0  0
    4.5481    1.9767    0.2526 H   0  0  0  0  0  0  0  0  0  0  0  0
    3.7517    1.3925   -1.3120 H   0  0  0  0  0  0  0  0  0  0  0  0
    4.8423   -1.7624    0.0364 H   0  0  0  0  0  0  0  0  0  0  0  0
    5.2956   -1.6139   -1.6640 H   0  0  0  0  0  0  0  0  0  0  0  0
   -1.0317   -1.6683    2.1088 H   0  0  0  0  0  0  0  0  0  0  0  0
   -0.5237   -3.0972    1.2075 H   0  0  0  0  0  0  0  0  0  0  0  0
   -4.0893   -0.3615   -1.6590 H   0  0  0  0  0  0  0  0  0  0  0  0
    0.2028    0.7986    1.4661 H   0  0  0  0  0  0  0  0  0  0  0  0
   -1.4659   -3.3450   -1.3480 H   0  0  0  0  0  0  0  0  0  0  0  0
   -3.2578   -3.3878   -0.8598 H   0  0  0  0  0  0  0  0  0  0  0  0
   -2.0407   -4.1545    0.1904 H   0  0  0  0  0  0  0  0  0  0  0  0
    6.6324   -0.6937    0.6485 H   0  0  0  0  0  0  0  0  0  0  0  0
    5.9902    0.9173    1.1780 H   0  0  0  0  0  0  0  0  0  0  0  0
    7.1397    0.8899   -0.1849 H   0  0  0  0  0  0  0  0  0  0  0  0
   -5.4350    0.5702    1.2637 H   0  0  0  0  0  0  0  0  0  0  0  0
   -5.7563    2.1509   -1.0776 H   0  0  0  0  0  0  0  0  0  0  0  0
   -3.2507    0.0163    2.2462 H   0  0  0  0  0  0  0  0  0  0  0  0
   -4.6056    3.2174    0.4386 H   0  0  0  0  0  0  0  0  0  0  0  0
    1.3603    0.2312   -2.0505 H   0  0  0  0  0  0  0  0  0  0  0  0
   -1.2677    0.2598   -1.8877 H   0  0  0  0  0  0  0  0  0  0  0  0
    0.0907   -1.5203   -1.4030 H   0  0  0  0  0  0  0  0  0  0  0  0
   -1.4898    2.1455   -0.7026 H   0  0  0  0  0  0  0  0  0  0  0  0
    1.8462    2.1375   -0.1513 H   0  0  0  0  0  0  0  0  0  0  0  0
   -4.3117   -1.0054   -0.0331 H   0  0  0  0  0  0  0  0  0  0  0  0
   -0.0935    2.5176    1.2186 H   0  0  0  0  0  0  0  0  0  0  0  0
   -2.6514    2.4049    1.1991 H   0  0  0  0  0  0  0  0  0  0  0  0
   -3.5960    1.7624   -0.9043 H   0  0  0  0  0  0  0  0  0  0  0  0
   -5.4350    0.5702    1.2637 H   0  0  0  0  0  0  0  0  0  0  0  0
   -5.7563    2.1509   -1.0776 H   0  0  0  0  0  0  0  0  0  0  0  0
   -3.2507    0.0163    2.2462 H   0  0  0  0  0  0  0  0  0  0  0  0
   -4.6056    3.2174    0.4386 H   0  0  0  0  0  0  0  0  0  0  0  0
    1.3603    0.2312   -2.0505 H   0  0  0  0  0  0  0  0  0  0  0  0
   -1.2677    0.2598   -1.8877 H   0  0  0  0  0  0  0  0  0  0  0  0
    0.0907   -1.5203   -1.4030 H   0  0  0  0  0  0  0  0  0  0  0  0
   -1.4898    2.1455   -0.7026 H   0  0  0  0  0  0  0  0  0  0  0  0
    1.8462    2.1375   -0.1513 H   0  0  0  0  0  0  0  0  0  0  0  0
   -4.3117   -1.0054   -0.0331 H   0  0  0  0  0  0  0  0  0  0  0  0
   -0.0935    2.5176    1.2186 H   0  0  0  0  0  0  0  0  0  0  0  0
   -2.6514    2.4049    1.1991 H   0  0  0  0  0  0  0  0  0  0  0  0
   -3.5960    1.7624   -0.9043 H   0  0  0  0  0  0  0  0  0  0  0  0
  1  4  1  0
  5  6  1  0
  6  8  1  0
  9 11  1  0
  1 12  1  0
  6 13  1  0
  9 14  1  0
  7 15  1  0
 13 15  1  0
 14 15  1  0
  3 16  1  0
  5 16  1  0
  3 17  1  0
  8 17  1  0
  7 18  1  0
 11 18  1  0
 14 19  1  0
  2 20  1  0
 13 20  1  0
  9 21  1  0
 19 22  1  0
 20 22  1  0
 11 23  1  0
 19 24  1  0
 24 10  1  0
  3 25  1  0
  1 26  1  0
 21 26  1  0
 24 26  1  0
  5 27  1  0
  5 28  1  0
  8 29  1  0
  8 30  1  0
 11 31  1  1
 16 32  1  0
 16 33  1  0
 17 34  1  0
 17 35  1  0
 18 36  1  0
 18 37  1  0
 21 38  1  0
 22 39  1  0
 23 40  1  0
 23 41  1  0
 23 42  1  0
 25 43  1  0
 25 44  1  0
 25 45  1  0
 46 49  1  0
 50 51  1  0
 51 53  1  0
 54 56  1  0
 46 57  1  0
 51 58  1  0
 54 59  1  0
 52 60  1  0
 58 60  1  0
 59 60  1  0
 48 61  1  0
 50 61  1  0
 48 62  1  0
 53 62  1  0
 52 63  1  0
 56 63  1  0
 59 64  1  0
 47 65  1  0
 58 65  1  0
 54 66  1  0
 64 67  1  0
 65 67  1  0
 56 68  1  0
 64 69  1  0
 69 55  1  0
 48 70  1  0
 46 71  1  0
 66 71  1  0
 69 71  1  0
 50 72  1  0
 50 73  1  0
 53 74  1  0
 53 75  1  0
 56 76  1  1
 61 77  1  0
 61 78  1  0
 62 79  1  0
 62 80  1  0
 63 81  1  0
 63 82  1  0
 66 83  1  0
 67 84  1  0
 68 85  1  0
 68 86  1  0
 68 87  1  0
 70 88  1  0
 70 89  1  0
 70 90  1  0
  1 91  1  0
  4 92  1  0
 10 93  1  0
 12 94  1  0
 13 95  1  0
 14 96  1  0
 15 97  1  0
 19 98  1  0
 20 99  1  0
 21100  1  0
 22101  1  0
 24102  1  0
 26103  1  0
 46104  1  0
 49105  1  0
 55106  1  0
 57107  1  0
 58108  1  0
 59109  1  0
 60110  1  0
 64111  1  0
 65112  1  0
 66113  1  0
 67114  1  0
 69115  1  0
 71116  1  0
M  END
>  <PDBID>  (1) 
4Z2D

>  <PDB ID>  (1) 
4Z2D

>  <Generic Name>  (1) 
Levofloxacin

>  <Brand Name>  (1) 
Act Levofloxacin#Apo-levofloxacin#Auro-levofloxacin#Ava-levofloxacin#Dom-levofloxacin#Iquix#Levaquin#Levaquin 25mg/ml#Levaquin 500mg#Levaquin 5mg/ml#Levaquin 750mg#Levofloxacin#Levofloxacin In 5% Dextrose Injection#Levofloxacin Injection#Mylan-levofloxacin#Ntp-levofloxacin#PHL-levofloxacin#PMS-levofloxacin#Quinsair#Quixin#Sandoz Levofloxacin#Teva-levofloxacin#Cravit#Elequine#Floxel#Leroxacin#Levokacin#Levox#Levoxacin#Mosardal#Nofaxin#Reskuin#Tavanic

>  <DrugBank ID>  (1) 
DB01137

>  <ATC Codes>  (1) 
A02BD10#J01RA05#S01AE05#J01MA12

>  <Ligand ID>  (1) 
LFX

>  <Target Name>  (1) 
DNA gyrase subunit A

>  <UniProt ID>  (1) 
P43700

>  <PDB ID.1>  (1) 
4Z2D

>  <Seq. Identity>  (1) 
50%

$$$$
