PDB_DB06605_09
     RDKit          3D

 81 85  0  0  0  0  0  0  0  0999 V2000
   -4.8331   -2.5211    0.9889 C   0  0  0  0  0  0  0  0  0  0  0  0
   -4.8969   -1.4948    2.1166 C   0  0  0  0  0  0  0  0  0  0  0  0
   -3.6555   -0.6166    1.9348 C   0  0  0  0  0  0  0  0  0  0  0  0
   -6.1168   -2.8054    0.5048 O   0  0  0  0  0  0  0  0  0  0  0  0
   -3.9762    2.5424    0.2407 N   0  0  0  0  0  0  0  0  0  0  0  0
    1.5246    0.5812    0.4358 C   0  0  0  0  0  0  0  0  0  0  0  0
   -0.8788    0.6802    0.2079 C   0  0  0  0  0  0  0  0  0  0  0  0
   -3.1605    3.3773   -0.5913 C   0  0  2  0  0  0  0  0  0  0  0  0
   -3.8508    3.8961   -1.8131 C   0  0  0  0  0  0  0  0  0  0  0  0
   -1.9876    2.4703   -0.9339 C   0  0  0  0  0  0  0  0  0  0  0  0
   -1.9584    1.6599    0.3814 C   0  0  0  0  0  0  0  0  0  0  0  0
    4.0158    0.7581    0.8649 C   0  0  0  0  0  0  0  0  0  0  0  0
   -6.4157   -4.1590    0.6644 C   0  0  0  0  0  0  0  0  0  0  0  0
    4.0140   -0.6582    0.3321 C   0  0  0  0  0  0  0  0  0  0  0  0
    6.2678   -1.0895    1.0861 C   0  0  0  0  0  0  0  0  0  0  0  0
    5.1947   -2.5603   -0.3109 C   0  0  0  0  0  0  0  0  0  0  0  0
    6.4323   -3.0378   -1.0222 C   0  0  0  0  0  0  0  0  0  0  0  0
    1.7698   -0.3327   -0.7270 C   0  0  0  0  0  0  0  0  0  0  0  0
    0.4950    2.5664   -0.4554 C   0  0  0  0  0  0  0  0  0  0  0  0
   -4.0027    0.2895    0.7425 C   0  0  0  0  0  0  0  0  0  0  0  0
   -4.2350   -0.5805   -0.4651 C   0  0  0  0  0  0  0  0  0  0  0  0
   -3.9864   -2.0605   -0.1546 C   0  0  0  0  0  0  0  0  0  0  0  0
   -3.2452    1.4088    0.6030 N   0  0  0  0  0  0  0  0  0  0  0  0
    0.3726    1.3799    0.2843 N   0  0  0  0  0  0  0  0  0  0  0  0
    2.6929    1.4380    0.7875 C   0  0  0  0  0  0  0  0  0  0  0  0
    5.3322   -1.1132   -0.0292 N   0  0  0  0  0  0  0  0  0  0  0  0
    3.2311   -0.5611   -0.9862 C   0  0  0  0  0  0  0  0  0  0  0  0
   -0.8915    0.0261   -1.0308 O   0  0  0  0  0  0  0  0  0  0  0  0
    7.5489   -2.9848    0.0139 C   0  0  0  0  0  0  0  0  0  0  0  0
    6.5375    0.2311    1.4910 O   0  0  0  0  0  0  0  0  0  0  0  0
    7.5929   -1.6023    0.5597 C   0  0  0  0  0  0  0  0  0  0  0  0
   -4.3140    2.9311   -2.6675 O   0  0  0  0  0  0  0  0  0  0  0  0
   -4.8555    4.8430   -1.3859 N   0  0  0  0  0  0  0  0  0  0  0  0
   -0.6934    3.1760   -1.0766 C   0  0  0  0  0  0  0  0  0  0  0  0
   -4.3788   -3.4734    1.3843 H   0  0  0  0  0  0  0  0  0  0  0  0
   -4.8720   -2.0375    3.0620 H   0  0  0  0  0  0  0  0  0  0  0  0
   -5.8218   -0.8985    2.0677 H   0  0  0  0  0  0  0  0  0  0  0  0
   -3.4946    0.0158    2.8059 H   0  0  0  0  0  0  0  0  0  0  0  0
   -2.8380   -1.3057    1.7031 H   0  0  0  0  0  0  0  0  0  0  0  0
   -4.7965    2.1997   -0.3245 H   0  0  0  0  0  0  0  0  0  0  0  0
    1.3422   -0.0917    1.3292 H   0  0  0  0  0  0  0  0  0  0  0  0
   -0.8389   -0.0954    1.0120 H   0  0  0  0  0  0  0  0  0  0  0  0
   -2.8288    4.2331    0.0240 H   0  0  0  0  0  0  0  0  0  0  0  0
   -3.0834    4.4952   -2.3748 H   0  0  0  0  0  0  0  0  0  0  0  0
   -2.1995    1.8403   -1.8028 H   0  0  0  0  0  0  0  0  0  0  0  0
   -1.5785    2.4245    1.1329 H   0  0  0  0  0  0  0  0  0  0  0  0
    4.7421    1.3291    0.2540 H   0  0  0  0  0  0  0  0  0  0  0  0
    4.3052    0.6889    1.9385 H   0  0  0  0  0  0  0  0  0  0  0  0
   -5.6340   -4.7161    0.0763 H   0  0  0  0  0  0  0  0  0  0  0  0
   -6.2883   -4.4426    1.7122 H   0  0  0  0  0  0  0  0  0  0  0  0
   -7.4386   -4.3278    0.2904 H   0  0  0  0  0  0  0  0  0  0  0  0
    3.5401   -1.3716    1.0185 H   0  0  0  0  0  0  0  0  0  0  0  0
    5.9642   -1.7360    1.9221 H   0  0  0  0  0  0  0  0  0  0  0  0
    5.2203   -3.0707    0.7013 H   0  0  0  0  0  0  0  0  0  0  0  0
    4.2515   -2.8430   -0.7472 H   0  0  0  0  0  0  0  0  0  0  0  0
    6.3040   -4.0724   -1.3519 H   0  0  0  0  0  0  0  0  0  0  0  0
    6.7437   -2.3478   -1.8436 H   0  0  0  0  0  0  0  0  0  0  0  0
    1.2862   -1.3085   -0.5387 H   0  0  0  0  0  0  0  0  0  0  0  0
    1.3441    0.0916   -1.6623 H   0  0  0  0  0  0  0  0  0  0  0  0
    0.9849    3.3407    0.1992 H   0  0  0  0  0  0  0  0  0  0  0  0
    1.2517    2.3903   -1.2781 H   0  0  0  0  0  0  0  0  0  0  0  0
   -5.0470    0.6437    1.0405 H   0  0  0  0  0  0  0  0  0  0  0  0
   -5.3061   -0.5611   -0.8276 H   0  0  0  0  0  0  0  0  0  0  0  0
   -3.6365   -0.2816   -1.3358 H   0  0  0  0  0  0  0  0  0  0  0  0
   -4.3450   -2.6088   -1.0751 H   0  0  0  0  0  0  0  0  0  0  0  0
   -2.9278   -2.3086   -0.0732 H   0  0  0  0  0  0  0  0  0  0  0  0
    2.7171    2.3090    0.0982 H   0  0  0  0  0  0  0  0  0  0  0  0
    2.4273    1.9070    1.7858 H   0  0  0  0  0  0  0  0  0  0  0  0
    3.6508    0.3604   -1.4937 H   0  0  0  0  0  0  0  0  0  0  0  0
    3.3973   -1.3732   -1.6768 H   0  0  0  0  0  0  0  0  0  0  0  0
   -1.2443   -0.8790   -0.9788 H   0  0  0  0  0  0  0  0  0  0  0  0
    8.4864   -3.1608   -0.5503 H   0  0  0  0  0  0  0  0  0  0  0  0
    7.4221   -3.7583    0.7908 H   0  0  0  0  0  0  0  0  0  0  0  0
    7.0066    0.6307    0.6980 H   0  0  0  0  0  0  0  0  0  0  0  0
    7.8644   -0.9191   -0.2866 H   0  0  0  0  0  0  0  0  0  0  0  0
    8.4142   -1.4754    1.3001 H   0  0  0  0  0  0  0  0  0  0  0  0
   -4.1824    2.0403   -2.2539 H   0  0  0  0  0  0  0  0  0  0  0  0
   -4.6964    5.1380   -0.3777 H   0  0  0  0  0  0  0  0  0  0  0  0
   -4.8376    5.7291   -1.9272 H   0  0  0  0  0  0  0  0  0  0  0  0
   -0.8651    4.2301   -0.7005 H   0  0  0  0  0  0  0  0  0  0  0  0
   -0.5545    3.3497   -2.1875 H   0  0  0  0  0  0  0  0  0  0  0  0
  1  2  1  0
  2  3  1  0
  1  4  1  0
  5  8  1  0
  8  9  1  0
  8 10  1  0
  7 11  1  0
 10 11  1  0
  4 13  1  0
 12 14  1  0
 16 17  1  0
  6 18  1  0
  3 20  1  0
 20 21  1  0
  1 22  1  0
 21 22  1  0
  5 23  1  0
 11 23  1  0
 20 23  1  0
  6 24  1  0
  7 24  1  0
 19 24  1  0
  6 25  1  0
 12 25  1  0
 14 26  1  0
 15 26  1  0
 16 26  1  0
 14 27  1  0
 18 27  1  0
  7 28  1  0
 17 29  1  0
 15 30  1  0
 15 31  1  0
 29 31  1  0
  9 32  1  0
  9 33  1  0
 10 34  1  0
 19 34  1  0
  1 35  1  0
  2 36  1  0
  2 37  1  0
  3 38  1  0
  3 39  1  0
  5 40  1  0
  6 41  1  0
  7 42  1  0
  8 43  1  1
  9 44  1  0
 10 45  1  0
 11 46  1  0
 12 47  1  0
 12 48  1  0
 13 49  1  0
 13 50  1  0
 13 51  1  0
 14 52  1  0
 15 53  1  0
 16 54  1  0
 16 55  1  0
 17 56  1  0
 17 57  1  0
 18 58  1  0
 18 59  1  0
 19 60  1  0
 19 61  1  0
 20 62  1  0
 21 63  1  0
 21 64  1  0
 22 65  1  0
 22 66  1  0
 25 67  1  0
 25 68  1  0
 27 69  1  0
 27 70  1  0
 28 71  1  0
 29 72  1  0
 29 73  1  0
 30 74  1  0
 31 75  1  0
 31 76  1  0
 32 77  1  0
 33 78  1  0
 33 79  1  0
 34 80  1  0
 34 81  1  0
M  END
>  <PDBID>  (1) 
2P16

>  <PDB ID>  (1) 
2P16

>  <Generic Name>  (1) 
Apixaban

>  <Brand Name>  (1) 
Eliquis

>  <DrugBank ID>  (1) 
DB06605

>  <ATC Codes>  (1) 
B01AF02

>  <Ligand ID>  (1) 
GG2

>  <Target Name>  (1) 
Coagulation factor X

>  <UniProt ID>  (1) 
P00742

>  <PDB ID.1>  (1) 
2P16

>  <Seq. Identity>  (1) 
100%

$$$$
