PDB_DB00703_08
     RDKit          3D

 30 30  0  0  0  0  0  0  0  0999 V2000
    3.5792    1.5467    0.9980 N   0  0  0  0  0  0  0  0  0  0  0  0
    3.0493    0.3844   -0.4440 S   0  0  0  0  0  0  0  0  0  0  0  0
    3.0196    1.2437   -1.5765 O   0  0  0  0  0  0  0  0  0  0  0  0
    4.3414   -0.6635   -0.3185 O   0  0  0  0  0  0  0  0  0  0  0  0
    1.7680   -0.3202    0.2806 C   0  0  1  0  0  0  0  0  0  0  0  0
    0.3917    0.8204    0.7416 S   0  0  0  0  0  0  0  0  0  0  0  0
   -0.9228   -0.4451    0.4944 C   0  0  2  0  0  0  0  0  0  0  0  0
   -0.0896   -1.6067    0.3130 N   0  0  0  0  0  0  0  0  0  0  0  0
   -0.7696   -2.7887   -0.0780 C   0  0  0  0  0  0  0  0  0  0  0  0
    0.9719   -1.2450   -0.5173 N   0  0  0  0  0  0  0  0  0  0  0  0
   -1.7332   -0.1991   -0.6246 N   0  0  0  0  0  0  0  0  0  0  0  0
   -2.4627    1.0065   -0.6771 C   0  0  0  0  0  0  0  0  0  0  0  0
   -1.6956    2.1719   -0.6568 O   0  0  0  0  0  0  0  0  0  0  0  0
   -3.4988    1.1676    0.4309 C   0  0  0  0  0  0  0  0  0  0  0  0
    2.6370    1.9322    1.2288 H   0  0  0  0  0  0  0  0  0  0  0  0
    3.8160    0.8270    1.6998 H   0  0  0  0  0  0  0  0  0  0  0  0
    3.2837    2.1788   -1.7425 H   0  0  0  0  0  0  0  0  0  0  0  0
    4.1445   -1.5852   -0.5740 H   0  0  0  0  0  0  0  0  0  0  0  0
    1.9987   -0.8712    1.2251 H   0  0  0  0  0  0  0  0  0  0  0  0
   -1.4678   -0.5455    1.4298 H   0  0  0  0  0  0  0  0  0  0  0  0
   -1.7087   -2.8479    0.5388 H   0  0  0  0  0  0  0  0  0  0  0  0
   -0.1342   -3.6670    0.1538 H   0  0  0  0  0  0  0  0  0  0  0  0
   -1.0291   -2.8277   -1.1555 H   0  0  0  0  0  0  0  0  0  0  0  0
    0.6483   -0.7991   -1.4049 H   0  0  0  0  0  0  0  0  0  0  0  0
   -1.4513   -0.6119   -1.5177 H   0  0  0  0  0  0  0  0  0  0  0  0
   -3.0324    1.0354   -1.6366 H   0  0  0  0  0  0  0  0  0  0  0  0
   -2.3108    2.9036   -0.9533 H   0  0  0  0  0  0  0  0  0  0  0  0
   -4.3913    0.5329    0.2476 H   0  0  0  0  0  0  0  0  0  0  0  0
   -3.8677    2.2254    0.3648 H   0  0  0  0  0  0  0  0  0  0  0  0
   -3.0837    1.0473    1.4344 H   0  0  0  0  0  0  0  0  0  0  0  0
  1  2  1  0
  2  3  1  0
  2  4  1  0
  2  5  1  0
  5  6  1  0
  6  7  1  0
  7  8  1  0
  8  9  1  0
  5 10  1  0
  8 10  1  0
  7 11  1  0
 11 12  1  0
 12 13  1  0
 12 14  1  0
  1 15  1  0
  1 16  1  0
  3 17  1  0
  4 18  1  0
  5 19  1  1
  7 20  1  1
  9 21  1  0
  9 22  1  0
  9 23  1  0
 10 24  1  0
 11 25  1  0
 12 26  1  0
 13 27  1  0
 14 28  1  0
 14 29  1  0
 14 30  1  0
M  END
>  <PDBID>  (1) 
1BZM

>  <PDB ID>  (1) 
1BZM

>  <Generic Name>  (1) 
Methazolamide

>  <Brand Name>  (1) 
Methazolamide#Neptazane#Neptazane Tablets 25mg#Neptazane Tablets 25mg USP#Neptazane Tablets 50mg#Naptazane

>  <DrugBank ID>  (1) 
DB00703

>  <ATC Codes>  (1) 
S01EC05

>  <Ligand ID>  (1) 
MZM

>  <Target Name>  (1) 
Carbonic anhydrase 1

>  <UniProt ID>  (1) 
P00915

>  <PDB ID.1>  (1) 
1BZM

>  <Seq. Identity>  (1) 
100%

$$$$
