PDB_DB00862_02
     RDKit          3D

164170  0  0  0  0  0  0  0  0999 V2000
   -2.1652   -5.8793   -0.1264 C   0  0  0  0  0  0  0  0  0  0  0  0
   -1.1902   -4.8214    0.3346 C   0  0  0  0  0  0  0  0  0  0  0  0
   -1.0282   -3.8134   -0.6079 O   0  0  0  0  0  0  0  0  0  0  0  0
   -0.1270   -2.8839   -0.1158 C   0  0  0  0  0  0  0  0  0  0  0  0
    1.0781   -2.9628   -1.0527 C   0  0  0  0  0  0  0  0  0  0  0  0
    1.7965   -1.6326   -1.0753 C   0  0  0  0  0  0  0  0  0  0  0  0
    1.7905   -1.1120    0.3689 C   0  0  0  0  0  0  0  0  0  0  0  0
    0.4057   -0.6499    0.6597 C   0  0  0  0  0  0  0  0  0  0  0  0
   -0.6538   -1.4807   -0.0356 C   0  0  0  0  0  0  0  0  0  0  0  0
    2.9888    0.0435    0.5699 S   0  0  0  0  0  0  0  0  0  0  0  0
    4.4168   -1.0229   -0.0302 O   0  0  0  0  0  0  0  0  0  0  0  0
    3.4324    0.0723    2.1398 O   0  0  0  0  0  0  0  0  0  0  0  0
    7.6572    1.8610    0.5728 C   0  0  0  0  0  0  0  0  0  0  0  0
    3.0829    1.2590   -0.2806 N   0  0  0  0  0  0  0  0  0  0  0  0
    3.7054    1.2632   -1.5686 C   0  0  0  0  0  0  0  0  0  0  0  0
    4.7523    2.3393   -1.7233 C   0  0  0  0  0  0  0  0  0  0  0  0
    5.5898    2.4967   -0.5833 N   0  0  0  0  0  0  0  0  0  0  0  0
    4.9095    2.4540    0.6736 C   0  0  0  0  0  0  0  0  0  0  0  0
    3.4119    2.5310    0.3818 C   0  0  0  0  0  0  0  0  0  0  0  0
    6.7871    1.6885   -0.6267 C   0  0  0  0  0  0  0  0  0  0  0  0
   -1.9384   -1.4758    0.7509 C   0  0  0  0  0  0  0  0  0  0  0  0
   -2.9607   -2.2722    0.1553 N   0  0  0  0  0  0  0  0  0  0  0  0
   -4.0722   -1.5218   -0.3935 C   0  0  0  0  0  0  0  0  0  0  0  0
   -3.5694   -0.2317   -0.9394 C   0  0  0  0  0  0  0  0  0  0  0  0
   -2.8362    0.5678   -0.0119 N   0  0  0  0  0  0  0  0  0  0  0  0
   -2.3743   -0.1425    1.0953 N   0  0  0  0  0  0  0  0  0  0  0  0
   -5.0131   -1.3806    0.6060 O   0  0  0  0  0  0  0  0  0  0  0  0
   -4.7035    0.6491   -1.4295 C   0  0  0  0  0  0  0  0  0  0  0  0
   -4.9557    1.4725   -0.2700 N   0  0  0  0  0  0  0  0  0  0  0  0
   -3.6453    1.6900    0.3238 C   0  0  0  0  0  0  0  0  0  0  0  0
   -4.2741    1.4214   -2.6337 C   0  0  0  0  0  0  0  0  0  0  0  0
   -3.8259    1.9282    1.7844 C   0  0  0  0  0  0  0  0  0  0  0  0
   -4.7127    3.1601    1.9542 C   0  0  0  0  0  0  0  0  0  0  0  0
   -4.0540    4.3752    1.3075 C   0  0  0  0  0  0  0  0  0  0  0  0
   -2.1652   -5.8793   -0.1264 C   0  0  0  0  0  0  0  0  0  0  0  0
   -1.1902   -4.8214    0.3346 C   0  0  0  0  0  0  0  0  0  0  0  0
   -1.0282   -3.8134   -0.6079 O   0  0  0  0  0  0  0  0  0  0  0  0
   -0.1270   -2.8839   -0.1158 C   0  0  0  0  0  0  0  0  0  0  0  0
    1.0781   -2.9628   -1.0527 C   0  0  0  0  0  0  0  0  0  0  0  0
    1.7965   -1.6326   -1.0753 C   0  0  0  0  0  0  0  0  0  0  0  0
    1.7905   -1.1120    0.3689 C   0  0  0  0  0  0  0  0  0  0  0  0
    0.4057   -0.6499    0.6597 C   0  0  0  0  0  0  0  0  0  0  0  0
   -0.6538   -1.4807   -0.0356 C   0  0  0  0  0  0  0  0  0  0  0  0
    2.9888    0.0435    0.5699 S   0  0  0  0  0  0  0  0  0  0  0  0
    4.4168   -1.0229   -0.0302 O   0  0  0  0  0  0  0  0  0  0  0  0
    3.4324    0.0723    2.1398 O   0  0  0  0  0  0  0  0  0  0  0  0
    7.6572    1.8610    0.5728 C   0  0  0  0  0  0  0  0  0  0  0  0
    3.0829    1.2590   -0.2806 N   0  0  0  0  0  0  0  0  0  0  0  0
    3.7054    1.2632   -1.5686 C   0  0  0  0  0  0  0  0  0  0  0  0
    4.7523    2.3393   -1.7233 C   0  0  0  0  0  0  0  0  0  0  0  0
    5.5898    2.4967   -0.5833 N   0  0  0  0  0  0  0  0  0  0  0  0
    4.9095    2.4540    0.6736 C   0  0  0  0  0  0  0  0  0  0  0  0
    3.4119    2.5310    0.3818 C   0  0  0  0  0  0  0  0  0  0  0  0
    6.7871    1.6885   -0.6267 C   0  0  0  0  0  0  0  0  0  0  0  0
   -1.9384   -1.4758    0.7509 C   0  0  0  0  0  0  0  0  0  0  0  0
   -2.9607   -2.2722    0.1553 N   0  0  0  0  0  0  0  0  0  0  0  0
   -4.0722   -1.5218   -0.3935 C   0  0  0  0  0  0  0  0  0  0  0  0
   -3.5694   -0.2317   -0.9394 C   0  0  0  0  0  0  0  0  0  0  0  0
   -2.8362    0.5678   -0.0119 N   0  0  0  0  0  0  0  0  0  0  0  0
   -2.3743   -0.1425    1.0953 N   0  0  0  0  0  0  0  0  0  0  0  0
   -5.0131   -1.3806    0.6060 O   0  0  0  0  0  0  0  0  0  0  0  0
   -4.7035    0.6491   -1.4295 C   0  0  0  0  0  0  0  0  0  0  0  0
   -4.9557    1.4725   -0.2700 N   0  0  0  0  0  0  0  0  0  0  0  0
   -3.6453    1.6900    0.3238 C   0  0  0  0  0  0  0  0  0  0  0  0
   -4.2741    1.4214   -2.6337 C   0  0  0  0  0  0  0  0  0  0  0  0
   -3.8259    1.9282    1.7844 C   0  0  0  0  0  0  0  0  0  0  0  0
   -4.7127    3.1601    1.9542 C   0  0  0  0  0  0  0  0  0  0  0  0
   -4.0540    4.3752    1.3075 C   0  0  0  0  0  0  0  0  0  0  0  0
   -2.5235   -6.4452    0.7512 H   0  0  0  0  0  0  0  0  0  0  0  0
   -3.0200   -5.4784   -0.6713 H   0  0  0  0  0  0  0  0  0  0  0  0
   -1.5718   -6.6103   -0.7473 H   0  0  0  0  0  0  0  0  0  0  0  0
   -1.4876   -4.3980    1.3155 H   0  0  0  0  0  0  0  0  0  0  0  0
   -0.1647   -5.2836    0.4482 H   0  0  0  0  0  0  0  0  0  0  0  0
    0.1720   -3.2291    0.9107 H   0  0  0  0  0  0  0  0  0  0  0  0
    1.7484   -3.7373   -0.6248 H   0  0  0  0  0  0  0  0  0  0  0  0
    0.7856   -3.2998   -2.0601 H   0  0  0  0  0  0  0  0  0  0  0  0
    1.2416   -0.9301   -1.7376 H   0  0  0  0  0  0  0  0  0  0  0  0
    2.8305   -1.7735   -1.4380 H   0  0  0  0  0  0  0  0  0  0  0  0
    2.0043   -2.0141    0.9938 H   0  0  0  0  0  0  0  0  0  0  0  0
    0.3244    0.4262    0.4309 H   0  0  0  0  0  0  0  0  0  0  0  0
    0.2269   -0.8043    1.7635 H   0  0  0  0  0  0  0  0  0  0  0  0
   -0.7715   -1.0660   -1.0662 H   0  0  0  0  0  0  0  0  0  0  0  0
    4.3016   -1.7851    0.6058 H   0  0  0  0  0  0  0  0  0  0  0  0
    2.8393   -0.5421    2.6578 H   0  0  0  0  0  0  0  0  0  0  0  0
    7.7234    2.9109    0.9273 H   0  0  0  0  0  0  0  0  0  0  0  0
    7.3910    1.1499    1.3760 H   0  0  0  0  0  0  0  0  0  0  0  0
    8.7078    1.5909    0.2723 H   0  0  0  0  0  0  0  0  0  0  0  0
    2.9001    1.4966   -2.3253 H   0  0  0  0  0  0  0  0  0  0  0  0
    4.0862    0.2613   -1.8705 H   0  0  0  0  0  0  0  0  0  0  0  0
    5.3920    2.0725   -2.6017 H   0  0  0  0  0  0  0  0  0  0  0  0
    4.2969    3.3264   -1.9709 H   0  0  0  0  0  0  0  0  0  0  0  0
    5.1911    3.3094    1.3526 H   0  0  0  0  0  0  0  0  0  0  0  0
    5.0571    1.5080    1.2336 H   0  0  0  0  0  0  0  0  0  0  0  0
    3.1637    3.3864   -0.2753 H   0  0  0  0  0  0  0  0  0  0  0  0
    2.8865    2.6300    1.3520 H   0  0  0  0  0  0  0  0  0  0  0  0
    6.5557    0.6156   -0.7482 H   0  0  0  0  0  0  0  0  0  0  0  0
    7.3712    1.9857   -1.5311 H   0  0  0  0  0  0  0  0  0  0  0  0
   -1.6815   -1.9688    1.7360 H   0  0  0  0  0  0  0  0  0  0  0  0
   -3.3575   -2.9942    0.8054 H   0  0  0  0  0  0  0  0  0  0  0  0
   -4.5041   -2.1115   -1.2277 H   0  0  0  0  0  0  0  0  0  0  0  0
   -2.9483   -0.4764   -1.8466 H   0  0  0  0  0  0  0  0  0  0  0  0
   -1.5450    0.3543    1.4885 H   0  0  0  0  0  0  0  0  0  0  0  0
   -4.9290   -2.1414    1.2576 H   0  0  0  0  0  0  0  0  0  0  0  0
   -5.5770   -0.0039   -1.6135 H   0  0  0  0  0  0  0  0  0  0  0  0
   -5.5151    0.8966    0.4001 H   0  0  0  0  0  0  0  0  0  0  0  0
   -3.2611    2.6545   -0.1211 H   0  0  0  0  0  0  0  0  0  0  0  0
   -3.5250    2.1691   -2.3388 H   0  0  0  0  0  0  0  0  0  0  0  0
   -3.8894    0.6830   -3.3810 H   0  0  0  0  0  0  0  0  0  0  0  0
   -5.1573    1.8974   -3.1130 H   0  0  0  0  0  0  0  0  0  0  0  0
   -2.8426    2.2110    2.2613 H   0  0  0  0  0  0  0  0  0  0  0  0
   -4.2926    1.0989    2.3232 H   0  0  0  0  0  0  0  0  0  0  0  0
   -4.9223    3.3733    3.0200 H   0  0  0  0  0  0  0  0  0  0  0  0
   -5.6870    3.0387    1.4471 H   0  0  0  0  0  0  0  0  0  0  0  0
   -4.4108    5.3019    1.8067 H   0  0  0  0  0  0  0  0  0  0  0  0
   -2.9378    4.2840    1.3336 H   0  0  0  0  0  0  0  0  0  0  0  0
   -4.3801    4.4716    0.2361 H   0  0  0  0  0  0  0  0  0  0  0  0
   -2.5235   -6.4452    0.7512 H   0  0  0  0  0  0  0  0  0  0  0  0
   -3.0200   -5.4784   -0.6713 H   0  0  0  0  0  0  0  0  0  0  0  0
   -1.5718   -6.6103   -0.7473 H   0  0  0  0  0  0  0  0  0  0  0  0
   -1.4876   -4.3980    1.3155 H   0  0  0  0  0  0  0  0  0  0  0  0
   -0.1647   -5.2836    0.4482 H   0  0  0  0  0  0  0  0  0  0  0  0
    0.1720   -3.2291    0.9107 H   0  0  0  0  0  0  0  0  0  0  0  0
    1.7484   -3.7373   -0.6248 H   0  0  0  0  0  0  0  0  0  0  0  0
    0.7856   -3.2998   -2.0601 H   0  0  0  0  0  0  0  0  0  0  0  0
    1.2416   -0.9301   -1.7376 H   0  0  0  0  0  0  0  0  0  0  0  0
    2.8305   -1.7735   -1.4380 H   0  0  0  0  0  0  0  0  0  0  0  0
    2.0043   -2.0141    0.9938 H   0  0  0  0  0  0  0  0  0  0  0  0
    0.3244    0.4262    0.4309 H   0  0  0  0  0  0  0  0  0  0  0  0
    0.2269   -0.8043    1.7635 H   0  0  0  0  0  0  0  0  0  0  0  0
   -0.7715   -1.0660   -1.0662 H   0  0  0  0  0  0  0  0  0  0  0  0
    4.3016   -1.7851    0.6058 H   0  0  0  0  0  0  0  0  0  0  0  0
    2.8393   -0.5421    2.6578 H   0  0  0  0  0  0  0  0  0  0  0  0
    7.7234    2.9109    0.9273 H   0  0  0  0  0  0  0  0  0  0  0  0
    7.3910    1.1499    1.3760 H   0  0  0  0  0  0  0  0  0  0  0  0
    8.7078    1.5909    0.2723 H   0  0  0  0  0  0  0  0  0  0  0  0
    2.9001    1.4966   -2.3253 H   0  0  0  0  0  0  0  0  0  0  0  0
    4.0862    0.2613   -1.8705 H   0  0  0  0  0  0  0  0  0  0  0  0
    5.3920    2.0725   -2.6017 H   0  0  0  0  0  0  0  0  0  0  0  0
    4.2969    3.3264   -1.9709 H   0  0  0  0  0  0  0  0  0  0  0  0
    5.1911    3.3094    1.3526 H   0  0  0  0  0  0  0  0  0  0  0  0
    5.0571    1.5080    1.2336 H   0  0  0  0  0  0  0  0  0  0  0  0
    3.1637    3.3864   -0.2753 H   0  0  0  0  0  0  0  0  0  0  0  0
    2.8865    2.6300    1.3520 H   0  0  0  0  0  0  0  0  0  0  0  0
    6.5557    0.6156   -0.7482 H   0  0  0  0  0  0  0  0  0  0  0  0
    7.3712    1.9857   -1.5311 H   0  0  0  0  0  0  0  0  0  0  0  0
   -1.6815   -1.9688    1.7360 H   0  0  0  0  0  0  0  0  0  0  0  0
   -3.3575   -2.9942    0.8054 H   0  0  0  0  0  0  0  0  0  0  0  0
   -4.5041   -2.1115   -1.2277 H   0  0  0  0  0  0  0  0  0  0  0  0
   -2.9483   -0.4764   -1.8466 H   0  0  0  0  0  0  0  0  0  0  0  0
   -1.5450    0.3543    1.4885 H   0  0  0  0  0  0  0  0  0  0  0  0
   -4.9290   -2.1414    1.2576 H   0  0  0  0  0  0  0  0  0  0  0  0
   -5.5770   -0.0039   -1.6135 H   0  0  0  0  0  0  0  0  0  0  0  0
   -5.5151    0.8966    0.4001 H   0  0  0  0  0  0  0  0  0  0  0  0
   -3.2611    2.6545   -0.1211 H   0  0  0  0  0  0  0  0  0  0  0  0
   -3.5250    2.1691   -2.3388 H   0  0  0  0  0  0  0  0  0  0  0  0
   -3.8894    0.6830   -3.3810 H   0  0  0  0  0  0  0  0  0  0  0  0
   -5.1573    1.8974   -3.1130 H   0  0  0  0  0  0  0  0  0  0  0  0
   -2.8426    2.2110    2.2613 H   0  0  0  0  0  0  0  0  0  0  0  0
   -4.2926    1.0989    2.3232 H   0  0  0  0  0  0  0  0  0  0  0  0
   -4.9223    3.3733    3.0200 H   0  0  0  0  0  0  0  0  0  0  0  0
   -5.6870    3.0387    1.4471 H   0  0  0  0  0  0  0  0  0  0  0  0
   -4.4108    5.3019    1.8067 H   0  0  0  0  0  0  0  0  0  0  0  0
   -2.9378    4.2840    1.3336 H   0  0  0  0  0  0  0  0  0  0  0  0
   -4.3801    4.4716    0.2361 H   0  0  0  0  0  0  0  0  0  0  0  0
  1  2  1  0
  2  3  1  0
  3  4  1  0
  4  5  1  0
  5  6  1  0
  6  7  1  0
  7  8  1  0
  4  9  1  0
  8  9  1  0
  7 10  1  0
 10 11  1  0
 10 12  1  0
 10 14  1  0
 14 15  1  0
 15 16  1  0
 16 17  1  0
 17 18  1  0
 14 19  1  0
 18 19  1  0
 13 20  1  0
 17 20  1  0
  9 21  1  0
 21 22  1  0
 22 23  1  0
 23 24  1  0
 24 25  1  0
 21 26  1  0
 25 26  1  0
 23 27  1  0
 24 28  1  0
 28 29  1  0
 25 30  1  0
 29 30  1  0
 28 31  1  0
 30 32  1  0
 32 33  1  0
 33 34  1  0
 35 36  1  0
 36 37  1  0
 37 38  1  0
 38 39  1  0
 39 40  1  0
 40 41  1  0
 41 42  1  0
 38 43  1  0
 42 43  1  0
 41 44  1  0
 44 45  1  0
 44 46  1  0
 44 48  1  0
 48 49  1  0
 49 50  1  0
 50 51  1  0
 51 52  1  0
 48 53  1  0
 52 53  1  0
 47 54  1  0
 51 54  1  0
 43 55  1  0
 55 56  1  0
 56 57  1  0
 57 58  1  0
 58 59  1  0
 55 60  1  0
 59 60  1  0
 57 61  1  0
 58 62  1  0
 62 63  1  0
 59 64  1  0
 63 64  1  0
 62 65  1  0
 64 66  1  0
 66 67  1  0
 67 68  1  0
  1 69  1  0
  1 70  1  0
  1 71  1  0
  2 72  1  0
  2 73  1  0
  4 74  1  0
  5 75  1  0
  5 76  1  0
  6 77  1  0
  6 78  1  0
  7 79  1  0
  8 80  1  0
  8 81  1  0
  9 82  1  0
 11 83  1  0
 12 84  1  0
 13 85  1  0
 13 86  1  0
 13 87  1  0
 15 88  1  0
 15 89  1  0
 16 90  1  0
 16 91  1  0
 18 92  1  0
 18 93  1  0
 19 94  1  0
 19 95  1  0
 20 96  1  0
 20 97  1  0
 21 98  1  0
 22 99  1  0
 23100  1  0
 24101  1  0
 26102  1  0
 27103  1  0
 28104  1  0
 29105  1  0
 30106  1  0
 31107  1  0
 31108  1  0
 31109  1  0
 32110  1  0
 32111  1  0
 33112  1  0
 33113  1  0
 34114  1  0
 34115  1  0
 34116  1  0
 35117  1  0
 35118  1  0
 35119  1  0
 36120  1  0
 36121  1  0
 38122  1  0
 39123  1  0
 39124  1  0
 40125  1  0
 40126  1  0
 41127  1  0
 42128  1  0
 42129  1  0
 43130  1  0
 45131  1  0
 46132  1  0
 47133  1  0
 47134  1  0
 47135  1  0
 49136  1  0
 49137  1  0
 50138  1  0
 50139  1  0
 52140  1  0
 52141  1  0
 53142  1  0
 53143  1  0
 54144  1  0
 54145  1  0
 55146  1  0
 56147  1  0
 57148  1  0
 58149  1  0
 60150  1  0
 61151  1  0
 62152  1  0
 63153  1  0
 64154  1  0
 65155  1  0
 65156  1  0
 65157  1  0
 66158  1  0
 66159  1  0
 67160  1  0
 67161  1  0
 68162  1  0
 68163  1  0
 68164  1  0
M  END
>  <PDBID>  (1) 
3B2R

>  <PDB ID>  (1) 
3B2R

>  <Generic Name>  (1) 
Vardenafil

>  <Brand Name>  (1) 
Levitra#Staxyn#Vivanza

>  <DrugBank ID>  (1) 
DB00862

>  <ATC Codes>  (1) 
G04BE09

>  <Ligand ID>  (1) 
VDN

>  <Target Name>  (1) 
cGMP-specific 3',5'-cyclic phosphodiesterase

>  <UniProt ID>  (1) 
O76074

>  <PDB ID.1>  (1) 
3B2R

>  <Seq. Identity>  (1) 
94%

$$$$
