PDB_DB00710_00
     RDKit          3D

 46 45  0  0  0  0  0  0  0  0999 V2000
   -3.8857    1.4634   -0.1620 P   0  0  0  0  0  0  0  0  0  0  0  0
   -5.0079    1.6582   -1.4034 O   0  0  0  0  0  0  0  0  0  0  0  0
   -3.0979    2.6477   -0.7554 O   0  0  0  0  0  0  0  0  0  0  0  0
   -4.0625    2.2488    1.2611 O   0  0  0  0  0  0  0  0  0  0  0  0
   -2.6061    0.2730   -0.3704 C   0  0  0  0  0  0  0  0  0  0  0  0
   -2.9368   -1.3476    0.2386 P   0  0  0  0  0  0  0  0  0  0  0  0
   -2.3847   -2.2584   -0.8519 O   0  0  0  0  0  0  0  0  0  0  0  0
   -4.4530   -1.9523   -0.1862 O   0  0  0  0  0  0  0  0  0  0  0  0
   -3.7063   -0.9810    1.5841 O   0  0  0  0  0  0  0  0  0  0  0  0
   -2.2103    0.2860   -1.7097 O   0  0  0  0  0  0  0  0  0  0  0  0
   -1.3919    0.7753    0.4068 C   0  0  0  0  0  0  0  0  0  0  0  0
   -0.1973   -0.1097    0.2679 C   0  0  0  0  0  0  0  0  0  0  0  0
    0.8830    0.4307    1.0482 N   0  0  0  0  0  0  0  0  0  0  0  0
    2.1611   -0.2283    0.8174 C   0  0  0  0  0  0  0  0  0  0  0  0
    2.6961    0.1139   -0.5612 C   0  0  0  0  0  0  0  0  0  0  0  0
    4.0131   -0.5959   -0.7502 C   0  0  0  0  0  0  0  0  0  0  0  0
    5.0708   -0.2432    0.2345 C   0  0  0  0  0  0  0  0  0  0  0  0
    6.3118   -1.0513   -0.1344 C   0  0  0  0  0  0  0  0  0  0  0  0
    0.6534    0.4919    2.4588 C   0  0  0  0  0  0  0  0  0  0  0  0
   -4.7479    0.6323    0.2803 H   0  0  0  0  0  0  0  0  0  0  0  0
   -4.6360    1.1348   -2.1256 H   0  0  0  0  0  0  0  0  0  0  0  0
   -3.4496    3.5470   -0.8164 H   0  0  0  0  0  0  0  0  0  0  0  0
   -4.7441    2.9310    1.1539 H   0  0  0  0  0  0  0  0  0  0  0  0
   -2.0774   -1.9702    1.0738 H   0  0  0  0  0  0  0  0  0  0  0  0
   -2.4126   -3.2455   -0.9199 H   0  0  0  0  0  0  0  0  0  0  0  0
   -4.8355   -1.2245   -0.7107 H   0  0  0  0  0  0  0  0  0  0  0  0
   -3.3303   -0.2309    2.0479 H   0  0  0  0  0  0  0  0  0  0  0  0
   -2.5153   -0.6066   -2.0647 H   0  0  0  0  0  0  0  0  0  0  0  0
   -1.6550    0.8777    1.5015 H   0  0  0  0  0  0  0  0  0  0  0  0
   -1.1226    1.8061    0.1089 H   0  0  0  0  0  0  0  0  0  0  0  0
    0.1240   -0.0963   -0.8019 H   0  0  0  0  0  0  0  0  0  0  0  0
   -0.3731   -1.1836    0.4825 H   0  0  0  0  0  0  0  0  0  0  0  0
    2.1088   -1.3212    0.8852 H   0  0  0  0  0  0  0  0  0  0  0  0
    2.8614    0.2073    1.5553 H   0  0  0  0  0  0  0  0  0  0  0  0
    2.0382   -0.2365   -1.3736 H   0  0  0  0  0  0  0  0  0  0  0  0
    2.8697    1.2234   -0.6200 H   0  0  0  0  0  0  0  0  0  0  0  0
    4.4002   -0.4361   -1.7902 H   0  0  0  0  0  0  0  0  0  0  0  0
    3.8602   -1.7081   -0.6851 H   0  0  0  0  0  0  0  0  0  0  0  0
    4.7445   -0.4544    1.2788 H   0  0  0  0  0  0  0  0  0  0  0  0
    5.2716    0.8375    0.1674 H   0  0  0  0  0  0  0  0  0  0  0  0
    6.0418   -2.1216   -0.2401 H   0  0  0  0  0  0  0  0  0  0  0  0
    6.6838   -0.6388   -1.1167 H   0  0  0  0  0  0  0  0  0  0  0  0
    7.1219   -0.9425    0.5985 H   0  0  0  0  0  0  0  0  0  0  0  0
    0.7681    1.5562    2.7945 H   0  0  0  0  0  0  0  0  0  0  0  0
   -0.3162    0.1132    2.7821 H   0  0  0  0  0  0  0  0  0  0  0  0
    1.4727   -0.0708    3.0051 H   0  0  0  0  0  0  0  0  0  0  0  0
  1  2  1  0
  1  3  1  0
  1  4  1  0
  1  5  1  0
  5  6  1  0
  6  7  1  0
  6  8  1  0
  6  9  1  0
  5 10  1  0
  5 11  1  0
 11 12  1  0
 12 13  1  0
 13 14  1  0
 14 15  1  0
 15 16  1  0
 16 17  1  0
 17 18  1  0
 13 19  1  0
  1 20  1  0
  2 21  1  0
  3 22  1  0
  4 23  1  0
  6 24  1  0
  7 25  1  0
  8 26  1  0
  9 27  1  0
 10 28  1  0
 11 29  1  0
 11 30  1  0
 12 31  1  0
 12 32  1  0
 14 33  1  0
 14 34  1  0
 15 35  1  0
 15 36  1  0
 16 37  1  0
 16 38  1  0
 17 39  1  0
 17 40  1  0
 18 41  1  0
 18 42  1  0
 18 43  1  0
 19 44  1  0
 19 45  1  0
 19 46  1  0
M  END
>  <PDBID>  (1) 
2F94

>  <PDB ID>  (1) 
2F94

>  <Generic Name>  (1) 
Ibandronate

>  <Brand Name>  (1) 
Bondronat#Boniva#Ibandronate Sodium#ADRONiL#Bonviva

>  <DrugBank ID>  (1) 
DB00710

>  <ATC Codes>  (1) 
M05BA06

>  <Ligand ID>  (1) 
BFQ

>  <Target Name>  (1) 
Farnesyl pyrophosphate synthase

>  <UniProt ID>  (1) 
P14324

>  <PDB ID.1>  (1) 
2F94

>  <Seq. Identity>  (1) 
100%

$$$$
