PDB_DB01113_01
     RDKit          3D

 62 64  0  0  0  0  0  0  0  0999 V2000
   -4.9940   -2.2803   -0.7958 C   0  0  0  0  0  0  0  0  0  0  0  0
   -4.1521   -1.1859   -1.0434 O   0  0  0  0  0  0  0  0  0  0  0  0
   -4.0174   -0.4089    0.1040 C   0  0  0  0  0  0  0  0  0  0  0  0
   -4.5433    0.9860   -0.2472 C   0  0  0  0  0  0  0  0  0  0  0  0
   -5.9427    0.9744   -0.2335 O   0  0  0  0  0  0  0  0  0  0  0  0
   -6.3802    1.9287    0.6533 C   0  0  0  0  0  0  0  0  0  0  0  0
   -4.0380    1.3191   -1.6264 C   0  0  0  0  0  0  0  0  0  0  0  0
   -2.6339    0.8475   -1.7767 C   0  0  0  0  0  0  0  0  0  0  0  0
   -2.5260   -0.3272    0.4158 C   0  0  0  0  0  0  0  0  0  0  0  0
   -1.9317    0.7838   -0.4266 C   0  0  0  0  0  0  0  0  0  0  0  0
   -0.4515    0.5761   -0.6201 C   0  0  0  0  0  0  0  0  0  0  0  0
    0.2513    0.5244    0.6837 C   0  0  0  0  0  0  0  0  0  0  0  0
   -0.2068   -0.5374    1.5003 N   0  0  0  0  0  0  0  0  0  0  0  0
    0.5486   -1.7418    1.4784 C   0  0  0  0  0  0  0  0  0  0  0  0
    1.9466   -1.4833    1.9346 C   0  0  0  0  0  0  0  0  0  0  0  0
    2.3357   -0.0374    1.7890 C   0  0  0  0  0  0  0  0  0  0  0  0
    1.7533    0.6173    0.5678 C   0  0  0  0  0  0  0  0  0  0  0  0
    2.2844    0.0358   -0.7159 C   0  0  0  0  0  0  0  0  0  0  0  0
    3.7404   -0.2778   -0.6860 C   0  0  0  0  0  0  0  0  0  0  0  0
    3.9256   -1.6104   -0.9900 O   0  0  0  0  0  0  0  0  0  0  0  0
    4.5458   -1.8707   -2.1751 C   0  0  0  0  0  0  0  0  0  0  0  0
    4.4928    0.2104    0.4964 C   0  0  0  0  0  0  0  0  0  0  0  0
    3.7995    0.1965    1.8001 C   0  0  0  0  0  0  0  0  0  0  0  0
    5.0134    1.4878    0.2736 O   0  0  0  0  0  0  0  0  0  0  0  0
    6.3941    1.5266    0.2376 C   0  0  0  0  0  0  0  0  0  0  0  0
   -5.9769   -1.8599   -0.4923 H   0  0  0  0  0  0  0  0  0  0  0  0
   -5.0421   -2.8693   -1.7256 H   0  0  0  0  0  0  0  0  0  0  0  0
   -4.5765   -2.9498   -0.0044 H   0  0  0  0  0  0  0  0  0  0  0  0
   -4.5968   -0.8237    0.9417 H   0  0  0  0  0  0  0  0  0  0  0  0
   -4.1513    1.7547    0.4541 H   0  0  0  0  0  0  0  0  0  0  0  0
   -7.4726    1.9898    0.7285 H   0  0  0  0  0  0  0  0  0  0  0  0
   -5.9726    1.7332    1.6586 H   0  0  0  0  0  0  0  0  0  0  0  0
   -6.0131    2.9386    0.3475 H   0  0  0  0  0  0  0  0  0  0  0  0
   -4.6640    0.7213   -2.3412 H   0  0  0  0  0  0  0  0  0  0  0  0
   -4.1382    2.4059   -1.8547 H   0  0  0  0  0  0  0  0  0  0  0  0
   -2.5192   -0.1058   -2.3096 H   0  0  0  0  0  0  0  0  0  0  0  0
   -2.1032    1.6064   -2.4188 H   0  0  0  0  0  0  0  0  0  0  0  0
   -2.4778   -0.0061    1.4727 H   0  0  0  0  0  0  0  0  0  0  0  0
   -2.0443   -1.2862    0.2577 H   0  0  0  0  0  0  0  0  0  0  0  0
   -2.1477    1.7379    0.0916 H   0  0  0  0  0  0  0  0  0  0  0  0
   -0.2921   -0.3966   -1.1723 H   0  0  0  0  0  0  0  0  0  0  0  0
   -0.0441    1.3905   -1.2774 H   0  0  0  0  0  0  0  0  0  0  0  0
   -0.0513    1.4705    1.2367 H   0  0  0  0  0  0  0  0  0  0  0  0
   -0.3309   -0.2603    2.5143 H   0  0  0  0  0  0  0  0  0  0  0  0
    0.4768   -2.3168    0.5323 H   0  0  0  0  0  0  0  0  0  0  0  0
    0.0814   -2.4247    2.2500 H   0  0  0  0  0  0  0  0  0  0  0  0
    2.7046   -2.1003    1.4199 H   0  0  0  0  0  0  0  0  0  0  0  0
    2.0763   -1.7284    3.0302 H   0  0  0  0  0  0  0  0  0  0  0  0
    1.8773    0.4868    2.6702 H   0  0  0  0  0  0  0  0  0  0  0  0
    2.0822    1.6784    0.5924 H   0  0  0  0  0  0  0  0  0  0  0  0
    2.0008    0.7732   -1.5233 H   0  0  0  0  0  0  0  0  0  0  0  0
    1.6756   -0.8635   -0.9479 H   0  0  0  0  0  0  0  0  0  0  0  0
    4.1922    0.2605   -1.5784 H   0  0  0  0  0  0  0  0  0  0  0  0
    4.6240   -2.9743   -2.2818 H   0  0  0  0  0  0  0  0  0  0  0  0
    5.6105   -1.5057   -2.1781 H   0  0  0  0  0  0  0  0  0  0  0  0
    3.9920   -1.5209   -3.0724 H   0  0  0  0  0  0  0  0  0  0  0  0
    5.4107   -0.4406    0.5846 H   0  0  0  0  0  0  0  0  0  0  0  0
    3.9792    1.1625    2.3611 H   0  0  0  0  0  0  0  0  0  0  0  0
    4.2426   -0.5757    2.4998 H   0  0  0  0  0  0  0  0  0  0  0  0
    6.6849    2.5815    0.0566 H   0  0  0  0  0  0  0  0  0  0  0  0
    6.8278    0.8416   -0.5369 H   0  0  0  0  0  0  0  0  0  0  0  0
    6.8615    1.2218    1.1935 H   0  0  0  0  0  0  0  0  0  0  0  0
  1  2  1  0
  2  3  1  0
  3  4  1  0
  4  5  1  0
  5  6  1  0
  4  7  1  0
  7  8  1  0
  3  9  1  0
  8 10  1  0
  9 10  1  0
 10 11  1  0
 11 12  1  0
 12 13  1  0
 13 14  1  0
 14 15  1  0
 15 16  1  0
 12 17  1  0
 16 17  1  0
 17 18  1  0
 18 19  1  0
 19 20  1  0
 20 21  1  0
 19 22  1  0
 16 23  1  0
 22 23  1  0
 22 24  1  0
 24 25  1  0
  1 26  1  0
  1 27  1  0
  1 28  1  0
  3 29  1  0
  4 30  1  0
  6 31  1  0
  6 32  1  0
  6 33  1  0
  7 34  1  0
  7 35  1  0
  8 36  1  0
  8 37  1  0
  9 38  1  0
  9 39  1  0
 10 40  1  0
 11 41  1  0
 11 42  1  0
 12 43  1  0
 13 44  1  0
 14 45  1  0
 14 46  1  0
 15 47  1  0
 15 48  1  0
 16 49  1  0
 17 50  1  0
 18 51  1  0
 18 52  1  0
 19 53  1  0
 21 54  1  0
 21 55  1  0
 21 56  1  0
 22 57  1  0
 23 58  1  0
 23 59  1  0
 25 60  1  0
 25 61  1  0
 25 62  1  0
M  END
>  <PDBID>  (1) 
3IAK

>  <PDB ID>  (1) 
3IAK

>  <Generic Name>  (1) 
Papaverine

>  <Brand Name>  (1) 
Papaverine Hydrochloride#Papaverine Hydrochloride Injection USP#Alapav#Albatran#Artegodan#Cardioverina#Cerebid#Cerespan#Delapav#Dilaves#Dispamil#Drapavel#Durapav#Dynovas#Mesotina#Myobid#Optenyl#Pameion#Pamelon#Panergon#Papacon#Papalease#Papaversan#Papital T.R.#Paptial T.R.#Pavabid#Pavacap#Pavacen#Pavadel#Pavagen#Pavakey#Pavased#Pavatest#Paverolan#Paveron#Pavnell#Qua Bid#Ro-Papav#Therapav#Vasal#Vaso-Pav

>  <DrugBank ID>  (1) 
DB01113

>  <ATC Codes>  (1) 
G04BE52#G04BE02#A03AD01

>  <Ligand ID>  (1) 
EV1

>  <Target Name>  (1) 
cAMP-specific 3',5'-cyclic phosphodiesterase 4B

>  <UniProt ID>  (1) 
Q07343

>  <PDB ID.1>  (1) 
3IAK

>  <Seq. Identity>  (1) 
85%

$$$$
