PDB_DB00775_08
     RDKit          3D

 76 77  0  0  0  0  0  0  0  0999 V2000
   -7.9063    0.6134    1.5383 C   0  0  0  0  0  0  0  0  0  0  0  0
   -6.8501   -0.1449    2.2930 C   0  0  0  0  0  0  0  0  0  0  0  0
   -6.8369   -1.6106    1.9380 C   0  0  0  0  0  0  0  0  0  0  0  0
   -6.5468   -1.8532    0.4919 C   0  0  0  0  0  0  0  0  0  0  0  0
   -4.9686   -1.2435    0.0217 S   0  0  0  0  0  0  0  0  0  0  0  0
   -3.8399   -1.9093    0.8371 O   0  0  0  0  0  0  0  0  0  0  0  0
   -4.8953   -2.2460   -1.6356 O   0  0  0  0  0  0  0  0  0  0  0  0
   -5.0007    0.1664   -0.3607 N   0  0  0  0  0  0  0  0  0  0  0  0
   -4.0813    1.2446   -0.3493 C   0  0  1  0  0  0  0  0  0  0  0  0
   -2.9803    1.1240   -1.3197 C   0  0  0  0  0  0  0  0  0  0  0  0
   -2.0608   -0.0409   -1.1572 C   0  0  0  0  0  0  0  0  0  0  0  0
   -1.0317    0.0527   -2.3090 C   0  0  0  0  0  0  0  0  0  0  0  0
    0.2374   -0.5805   -1.7975 C   0  0  0  0  0  0  0  0  0  0  0  0
    0.8635    0.4690   -0.8719 C   0  0  0  0  0  0  0  0  0  0  0  0
    2.1169    0.0951   -0.4376 O   0  0  0  0  0  0  0  0  0  0  0  0
   -0.1063    0.7152    0.2371 C   0  0  0  0  0  0  0  0  0  0  0  0
   -1.3582   -0.0854    0.1562 C   0  0  0  0  0  0  0  0  0  0  0  0
   -4.8097    2.5979   -0.5189 C   0  0  0  0  0  0  0  0  0  0  0  0
   -5.6837    2.7285    0.5336 O   0  0  0  0  0  0  0  0  0  0  0  0
   -3.8566    3.5941   -0.4378 O   0  0  0  0  0  0  0  0  0  0  0  0
    3.0341    1.0192   -0.9360 C   0  0  0  0  0  0  0  0  0  0  0  0
    4.4628    0.6734   -0.4944 C   0  0  0  0  0  0  0  0  0  0  0  0
    4.8347   -0.6596   -0.9881 C   0  0  0  0  0  0  0  0  0  0  0  0
    6.1974   -1.1059   -0.6531 C   0  0  0  0  0  0  0  0  0  0  0  0
    6.5568   -1.3105    0.7426 C   0  0  0  0  0  0  0  0  0  0  0  0
    6.5255   -0.2234    1.7402 C   0  0  0  0  0  0  0  0  0  0  0  0
    7.3405    0.9807    1.3539 C   0  0  0  0  0  0  0  0  0  0  0  0
    8.3586    0.5008    0.4307 N   0  0  0  0  0  0  0  0  0  0  0  0
    8.9509   -0.7374    0.8370 C   0  0  0  0  0  0  0  0  0  0  0  0
    8.0054   -1.8967    0.7376 C   0  0  0  0  0  0  0  0  0  0  0  0
   -7.8398    1.6779    1.8743 H   0  0  0  0  0  0  0  0  0  0  0  0
   -7.8116    0.5081    0.4594 H   0  0  0  0  0  0  0  0  0  0  0  0
   -8.8996    0.2634    1.9094 H   0  0  0  0  0  0  0  0  0  0  0  0
   -5.8623    0.3269    2.0818 H   0  0  0  0  0  0  0  0  0  0  0  0
   -7.0418   -0.0085    3.3661 H   0  0  0  0  0  0  0  0  0  0  0  0
   -7.8560   -1.9953    2.1841 H   0  0  0  0  0  0  0  0  0  0  0  0
   -6.0771   -2.0845    2.5984 H   0  0  0  0  0  0  0  0  0  0  0  0
   -7.3234   -1.3740   -0.1239 H   0  0  0  0  0  0  0  0  0  0  0  0
   -6.6183   -2.9523    0.3187 H   0  0  0  0  0  0  0  0  0  0  0  0
   -4.0156   -2.2381    1.7457 H   0  0  0  0  0  0  0  0  0  0  0  0
   -5.0201   -3.1140   -1.1687 H   0  0  0  0  0  0  0  0  0  0  0  0
   -5.8602    0.5618   -0.9100 H   0  0  0  0  0  0  0  0  0  0  0  0
   -3.6340    1.2754    0.6976 H   0  0  0  0  0  0  0  0  0  0  0  0
   -3.4282    1.1272   -2.3732 H   0  0  0  0  0  0  0  0  0  0  0  0
   -2.3880    2.0963   -1.2873 H   0  0  0  0  0  0  0  0  0  0  0  0
   -2.5483   -1.0059   -1.3378 H   0  0  0  0  0  0  0  0  0  0  0  0
   -0.8460    1.1335   -2.4512 H   0  0  0  0  0  0  0  0  0  0  0  0
   -1.4109   -0.3998   -3.2232 H   0  0  0  0  0  0  0  0  0  0  0  0
    0.0244   -1.4623   -1.1893 H   0  0  0  0  0  0  0  0  0  0  0  0
    0.9389   -0.8313   -2.6245 H   0  0  0  0  0  0  0  0  0  0  0  0
    0.8986    1.4015   -1.5020 H   0  0  0  0  0  0  0  0  0  0  0  0
   -0.2995    1.8005    0.3580 H   0  0  0  0  0  0  0  0  0  0  0  0
    0.4139    0.4104    1.1927 H   0  0  0  0  0  0  0  0  0  0  0  0
   -2.0404    0.2418    0.9516 H   0  0  0  0  0  0  0  0  0  0  0  0
   -1.1208   -1.1592    0.4344 H   0  0  0  0  0  0  0  0  0  0  0  0
   -5.3162    2.5790   -1.4835 H   0  0  0  0  0  0  0  0  0  0  0  0
   -5.2740    3.1937    1.3036 H   0  0  0  0  0  0  0  0  0  0  0  0
   -3.4790    3.6237    0.4749 H   0  0  0  0  0  0  0  0  0  0  0  0
    2.7327    2.0161   -0.5965 H   0  0  0  0  0  0  0  0  0  0  0  0
    3.0245    0.9082   -2.0404 H   0  0  0  0  0  0  0  0  0  0  0  0
    4.4937    0.8880    0.5583 H   0  0  0  0  0  0  0  0  0  0  0  0
    5.1061    1.4398   -1.0053 H   0  0  0  0  0  0  0  0  0  0  0  0
    4.0741   -1.4179   -0.6346 H   0  0  0  0  0  0  0  0  0  0  0  0
    4.7338   -0.6125   -2.1292 H   0  0  0  0  0  0  0  0  0  0  0  0
    6.3500   -2.1306   -1.1660 H   0  0  0  0  0  0  0  0  0  0  0  0
    6.9744   -0.4930   -1.2237 H   0  0  0  0  0  0  0  0  0  0  0  0
    5.8957   -2.1350    1.1505 H   0  0  0  0  0  0  0  0  0  0  0  0
    5.5720   -0.0457    2.2125 H   0  0  0  0  0  0  0  0  0  0  0  0
    7.1470   -0.6623    2.6322 H   0  0  0  0  0  0  0  0  0  0  0  0
    6.7026    1.7302    0.9001 H   0  0  0  0  0  0  0  0  0  0  0  0
    7.8890    1.3909    2.2280 H   0  0  0  0  0  0  0  0  0  0  0  0
    9.0752    1.2388    0.3164 H   0  0  0  0  0  0  0  0  0  0  0  0
    9.2967   -0.6760    1.8894 H   0  0  0  0  0  0  0  0  0  0  0  0
    9.8278   -0.9155    0.1754 H   0  0  0  0  0  0  0  0  0  0  0  0
    8.0479   -2.5577    1.6240 H   0  0  0  0  0  0  0  0  0  0  0  0
    8.1205   -2.4890   -0.1739 H   0  0  0  0  0  0  0  0  0  0  0  0
  1  2  1  0
  2  3  1  0
  3  4  1  0
  4  5  1  0
  5  6  1  0
  5  7  1  0
  5  8  1  0
  8  9  1  0
  9 10  1  0
 10 11  1  0
 11 12  1  0
 12 13  1  0
 13 14  1  0
 14 15  1  0
 14 16  1  0
 11 17  1  0
 16 17  1  0
  9 18  1  0
 18 19  1  0
 18 20  1  0
 15 21  1  0
 21 22  1  0
 22 23  1  0
 23 24  1  0
 24 25  1  0
 25 26  1  0
 26 27  1  0
 27 28  1  0
 28 29  1  0
 25 30  1  0
 29 30  1  0
  1 31  1  0
  1 32  1  0
  1 33  1  0
  2 34  1  0
  2 35  1  0
  3 36  1  0
  3 37  1  0
  4 38  1  0
  4 39  1  0
  6 40  1  0
  7 41  1  0
  8 42  1  0
  9 43  1  1
 10 44  1  0
 10 45  1  0
 11 46  1  0
 12 47  1  0
 12 48  1  0
 13 49  1  0
 13 50  1  0
 14 51  1  0
 16 52  1  0
 16 53  1  0
 17 54  1  0
 17 55  1  0
 18 56  1  0
 19 57  1  0
 20 58  1  0
 21 59  1  0
 21 60  1  0
 22 61  1  0
 22 62  1  0
 23 63  1  0
 23 64  1  0
 24 65  1  0
 24 66  1  0
 25 67  1  0
 26 68  1  0
 26 69  1  0
 27 70  1  0
 27 71  1  0
 28 72  1  0
 29 73  1  0
 29 74  1  0
 30 75  1  0
 30 76  1  0
M  END
>  <PDBID>  (1) 
2VDM

>  <PDB ID>  (1) 
2VDM

>  <Generic Name>  (1) 
Tirofiban

>  <Brand Name>  (1) 
Aggrastat#Aggribloc#Agrastat

>  <DrugBank ID>  (1) 
DB00775

>  <ATC Codes>  (1) 
B01AC17

>  <Ligand ID>  (1) 
AGG

>  <Target Name>  (1) 
Integrin alpha-IIb

>  <UniProt ID>  (1) 
P08514

>  <PDB ID.1>  (1) 
2VDM

>  <Seq. Identity>  (1) 
100%

$$$$
