PDB_DB00480_07
     RDKit          3D

 88 92  0  0  0  0  0  0  0  0999 V2000
    1.5843   -0.3201   -0.4661 C   0  0  1  0  0  0  0  0  0  0  0  0
    2.5252    0.8385   -0.6710 C   0  0  0  0  0  0  0  0  0  0  0  0
    3.5498    0.9803    0.4102 C   0  0  0  0  0  0  0  0  0  0  0  0
    4.4681   -0.2360    0.4497 C   0  0  0  0  0  0  0  0  0  0  0  0
    3.7425   -1.3272   -0.1459 N   0  0  0  0  0  0  0  0  0  0  0  0
    2.3649   -1.3683    0.3414 C   0  0  0  0  0  0  0  0  0  0  0  0
   -1.6461    0.9675    0.4747 C   0  0  0  0  0  0  0  0  0  0  0  0
   -1.8380   -0.3905   -0.2171 C   0  0  0  0  0  0  0  0  0  0  0  0
   -0.5590   -1.0609    0.2408 C   0  0  0  0  0  0  0  0  0  0  0  0
    0.4227    0.0060    0.2853 N   0  0  0  0  0  0  0  0  0  0  0  0
   -0.2257    1.2395   -0.0333 C   0  0  0  0  0  0  0  0  0  0  0  0
   -3.8081    1.1918   -0.6181 C   0  0  0  0  0  0  0  0  0  0  0  0
   -4.1927   -0.0094    0.2249 C   0  0  0  0  0  0  0  0  0  0  0  0
   -3.0898   -1.0766    0.1715 C   0  0  0  0  0  0  0  0  0  0  0  0
   -2.6486    1.9551    0.0363 C   0  0  0  0  0  0  0  0  0  0  0  0
   -0.3563    1.4762   -1.4006 O   0  0  0  0  0  0  0  0  0  0  0  0
   -3.0325   -1.8566    1.3670 N   0  0  0  0  0  0  0  0  0  0  0  0
    1.8367   -2.6370    0.1680 O   0  0  0  0  0  0  0  0  0  0  0  0
    5.6126   -0.0326   -0.3367 O   0  0  0  0  0  0  0  0  0  0  0  0
    1.5843   -0.3201   -0.4661 C   0  0  1  0  0  0  0  0  0  0  0  0
    2.5252    0.8385   -0.6710 C   0  0  0  0  0  0  0  0  0  0  0  0
    3.5498    0.9803    0.4102 C   0  0  0  0  0  0  0  0  0  0  0  0
    4.4681   -0.2360    0.4497 C   0  0  0  0  0  0  0  0  0  0  0  0
    3.7425   -1.3272   -0.1459 N   0  0  0  0  0  0  0  0  0  0  0  0
    2.3649   -1.3683    0.3414 C   0  0  0  0  0  0  0  0  0  0  0  0
   -1.6461    0.9675    0.4747 C   0  0  0  0  0  0  0  0  0  0  0  0
   -1.8380   -0.3905   -0.2171 C   0  0  0  0  0  0  0  0  0  0  0  0
   -0.5590   -1.0609    0.2408 C   0  0  0  0  0  0  0  0  0  0  0  0
    0.4227    0.0060    0.2853 N   0  0  0  0  0  0  0  0  0  0  0  0
   -0.2257    1.2395   -0.0333 C   0  0  0  0  0  0  0  0  0  0  0  0
   -3.8081    1.1918   -0.6181 C   0  0  0  0  0  0  0  0  0  0  0  0
   -4.1927   -0.0094    0.2249 C   0  0  0  0  0  0  0  0  0  0  0  0
   -3.0898   -1.0766    0.1715 C   0  0  0  0  0  0  0  0  0  0  0  0
   -2.6486    1.9551    0.0363 C   0  0  0  0  0  0  0  0  0  0  0  0
   -0.3563    1.4762   -1.4006 O   0  0  0  0  0  0  0  0  0  0  0  0
   -3.0325   -1.8566    1.3670 N   0  0  0  0  0  0  0  0  0  0  0  0
    1.8367   -2.6370    0.1680 O   0  0  0  0  0  0  0  0  0  0  0  0
    5.6126   -0.0326   -0.3367 O   0  0  0  0  0  0  0  0  0  0  0  0
    1.3288   -0.8175   -1.4248 H   0  0  0  0  0  0  0  0  0  0  0  0
    3.0635    0.6519   -1.6232 H   0  0  0  0  0  0  0  0  0  0  0  0
    2.0055    1.8095   -0.7829 H   0  0  0  0  0  0  0  0  0  0  0  0
    4.2143    1.8342    0.1044 H   0  0  0  0  0  0  0  0  0  0  0  0
    3.1523    1.2437    1.3944 H   0  0  0  0  0  0  0  0  0  0  0  0
    4.7942   -0.4188    1.4867 H   0  0  0  0  0  0  0  0  0  0  0  0
    4.2137   -2.2529    0.0116 H   0  0  0  0  0  0  0  0  0  0  0  0
    2.2715   -1.0856    1.3920 H   0  0  0  0  0  0  0  0  0  0  0  0
   -1.5828    0.7919    1.5623 H   0  0  0  0  0  0  0  0  0  0  0  0
   -1.7515   -0.2512   -1.3134 H   0  0  0  0  0  0  0  0  0  0  0  0
   -0.7238   -1.3870    1.2881 H   0  0  0  0  0  0  0  0  0  0  0  0
   -0.2757   -1.8843   -0.4422 H   0  0  0  0  0  0  0  0  0  0  0  0
    0.2328    2.0947    0.4983 H   0  0  0  0  0  0  0  0  0  0  0  0
   -4.7027    1.8250   -0.7104 H   0  0  0  0  0  0  0  0  0  0  0  0
   -3.4762    0.9220   -1.6307 H   0  0  0  0  0  0  0  0  0  0  0  0
   -5.1372   -0.4049   -0.2312 H   0  0  0  0  0  0  0  0  0  0  0  0
   -4.3471    0.3052    1.2540 H   0  0  0  0  0  0  0  0  0  0  0  0
   -3.3851   -1.7527   -0.6760 H   0  0  0  0  0  0  0  0  0  0  0  0
   -2.3212    2.7413   -0.6353 H   0  0  0  0  0  0  0  0  0  0  0  0
   -3.1145    2.4120    0.9590 H   0  0  0  0  0  0  0  0  0  0  0  0
   -0.4801    2.4452   -1.5224 H   0  0  0  0  0  0  0  0  0  0  0  0
   -4.0108   -1.9865    1.7091 H   0  0  0  0  0  0  0  0  0  0  0  0
   -2.7176   -2.8289    1.0859 H   0  0  0  0  0  0  0  0  0  0  0  0
    2.4312   -3.2363   -0.3323 H   0  0  0  0  0  0  0  0  0  0  0  0
    5.6086    0.8904   -0.6337 H   0  0  0  0  0  0  0  0  0  0  0  0
    1.3288   -0.8175   -1.4248 H   0  0  0  0  0  0  0  0  0  0  0  0
    3.0635    0.6519   -1.6232 H   0  0  0  0  0  0  0  0  0  0  0  0
    2.0055    1.8095   -0.7829 H   0  0  0  0  0  0  0  0  0  0  0  0
    4.2143    1.8342    0.1044 H   0  0  0  0  0  0  0  0  0  0  0  0
    3.1523    1.2437    1.3944 H   0  0  0  0  0  0  0  0  0  0  0  0
    4.7942   -0.4188    1.4867 H   0  0  0  0  0  0  0  0  0  0  0  0
    4.2137   -2.2529    0.0116 H   0  0  0  0  0  0  0  0  0  0  0  0
    2.2715   -1.0856    1.3920 H   0  0  0  0  0  0  0  0  0  0  0  0
   -1.5828    0.7919    1.5623 H   0  0  0  0  0  0  0  0  0  0  0  0
   -1.7515   -0.2512   -1.3134 H   0  0  0  0  0  0  0  0  0  0  0  0
   -0.7238   -1.3870    1.2881 H   0  0  0  0  0  0  0  0  0  0  0  0
   -0.2757   -1.8843   -0.4422 H   0  0  0  0  0  0  0  0  0  0  0  0
    0.2328    2.0947    0.4983 H   0  0  0  0  0  0  0  0  0  0  0  0
   -4.7027    1.8250   -0.7104 H   0  0  0  0  0  0  0  0  0  0  0  0
   -3.4762    0.9220   -1.6307 H   0  0  0  0  0  0  0  0  0  0  0  0
   -5.1372   -0.4049   -0.2312 H   0  0  0  0  0  0  0  0  0  0  0  0
   -4.3471    0.3052    1.2540 H   0  0  0  0  0  0  0  0  0  0  0  0
   -3.3851   -1.7527   -0.6760 H   0  0  0  0  0  0  0  0  0  0  0  0
   -2.3212    2.7413   -0.6353 H   0  0  0  0  0  0  0  0  0  0  0  0
   -3.1145    2.4120    0.9590 H   0  0  0  0  0  0  0  0  0  0  0  0
   -0.4801    2.4452   -1.5224 H   0  0  0  0  0  0  0  0  0  0  0  0
   -4.0108   -1.9865    1.7091 H   0  0  0  0  0  0  0  0  0  0  0  0
   -2.7176   -2.8289    1.0859 H   0  0  0  0  0  0  0  0  0  0  0  0
    2.4312   -3.2363   -0.3323 H   0  0  0  0  0  0  0  0  0  0  0  0
    5.6086    0.8904   -0.6337 H   0  0  0  0  0  0  0  0  0  0  0  0
  1  2  1  0
  2  3  1  0
  3  4  1  0
  4  5  1  0
  1  6  1  0
  5  6  1  0
  7  8  1  0
  8  9  1  0
  1 10  1  0
  9 10  1  0
  7 11  1  0
 10 11  1  0
 12 13  1  0
  8 14  1  0
 13 14  1  0
  7 15  1  0
 12 15  1  0
 11 16  1  0
 14 17  1  0
  6 18  1  0
  4 19  1  0
 20 21  1  0
 21 22  1  0
 22 23  1  0
 23 24  1  0
 20 25  1  0
 24 25  1  0
 26 27  1  0
 27 28  1  0
 20 29  1  0
 28 29  1  0
 26 30  1  0
 29 30  1  0
 31 32  1  0
 27 33  1  0
 32 33  1  0
 26 34  1  0
 31 34  1  0
 30 35  1  0
 33 36  1  0
 25 37  1  0
 23 38  1  0
  1 39  1  6
  2 40  1  0
  2 41  1  0
  3 42  1  0
  3 43  1  0
  4 44  1  0
  5 45  1  0
  6 46  1  0
  7 47  1  0
  8 48  1  0
  9 49  1  0
  9 50  1  0
 11 51  1  0
 12 52  1  0
 12 53  1  0
 13 54  1  0
 13 55  1  0
 14 56  1  0
 15 57  1  0
 15 58  1  0
 16 59  1  0
 17 60  1  0
 17 61  1  0
 18 62  1  0
 19 63  1  0
 20 64  1  6
 21 65  1  0
 21 66  1  0
 22 67  1  0
 22 68  1  0
 23 69  1  0
 24 70  1  0
 25 71  1  0
 26 72  1  0
 27 73  1  0
 28 74  1  0
 28 75  1  0
 30 76  1  0
 31 77  1  0
 31 78  1  0
 32 79  1  0
 32 80  1  0
 33 81  1  0
 34 82  1  0
 34 83  1  0
 35 84  1  0
 36 85  1  0
 36 86  1  0
 37 87  1  0
 38 88  1  0
M  END
>  <PDBID>  (1) 
5FQD

>  <PDB ID>  (1) 
5FQD

>  <Generic Name>  (1) 
Lenalidomide

>  <Brand Name>  (1) 
Revlimid#Ladevina#Lenangio

>  <DrugBank ID>  (1) 
DB00480

>  <ATC Codes>  (1) 
L04AX04

>  <Ligand ID>  (1) 
LVY

>  <Target Name>  (1) 
Protein cereblon

>  <UniProt ID>  (1) 
Q96SW2

>  <PDB ID.1>  (1) 
5FQD

>  <Seq. Identity>  (1) 
100%

$$$$
