PDB_DB00642_04
     RDKit          3D

288296  0  0  0  0  0  0  0  0999 V2000
   -0.6788   -0.8116    0.3160 C   0  0  0  0  0  0  0  0  0  0  0  0
   -0.0228   -0.5491   -0.9926 C   0  0  0  0  0  0  0  0  0  0  0  0
    0.8816    0.6795   -0.9591 C   0  0  0  0  0  0  0  0  0  0  0  0
    2.0513    0.5045   -0.0397 C   0  0  0  0  0  0  0  0  0  0  0  0
    1.7398   -0.5980    0.9358 C   0  0  0  0  0  0  0  0  0  0  0  0
    0.3239   -0.5578    1.4231 C   0  0  0  0  0  0  0  0  0  0  0  0
   -1.8760    0.0319    0.6258 C   0  0  0  0  0  0  0  0  0  0  0  0
   -2.9914   -0.1458   -0.4042 C   0  0  0  0  0  0  0  0  0  0  0  0
   -4.1058    0.7118    0.0061 C   0  0  0  0  0  0  0  0  0  0  0  0
   -4.6872    0.4217    1.3654 C   0  0  0  0  0  0  0  0  0  0  0  0
   -5.9801    1.0356    1.3366 N   0  0  0  0  0  0  0  0  0  0  0  0
   -6.2362    1.5497    0.0348 C   0  0  0  0  0  0  0  0  0  0  0  0
   -5.3435    0.6606   -0.8487 C   0  0  0  0  0  0  0  0  0  0  0  0
   -5.9633   -0.6698   -1.0151 C   0  0  0  0  0  0  0  0  0  0  0  0
   -5.3998   -1.7009   -0.2710 O   0  0  0  0  0  0  0  0  0  0  0  0
   -7.3833   -0.7237   -0.7418 N   0  0  0  0  0  0  0  0  0  0  0  0
   -8.0785    0.4749   -1.0981 C   0  0  0  0  0  0  0  0  0  0  0  0
   -7.5806    1.5932   -0.3741 N   0  0  0  0  0  0  0  0  0  0  0  0
   -9.4812    0.2976   -0.7216 N   0  0  0  0  0  0  0  0  0  0  0  0
    3.2964    0.1648   -0.8517 C   0  0  0  0  0  0  0  0  0  0  0  0
    3.5042    1.2483   -1.7398 O   0  0  0  0  0  0  0  0  0  0  0  0
    4.4663    0.1205   -0.0144 N   0  0  0  0  0  0  0  0  0  0  0  0
    5.4378   -0.8339   -0.4660 C   0  0  1  0  0  0  0  0  0  0  0  0
    6.8004   -0.5272    0.1670 C   0  0  0  0  0  0  0  0  0  0  0  0
    7.2092    0.8791   -0.2530 C   0  0  0  0  0  0  0  0  0  0  0  0
    8.5315    1.2813    0.3273 C   0  0  0  0  0  0  0  0  0  0  0  0
    9.5480    0.4372   -0.0690 O   0  0  0  0  0  0  0  0  0  0  0  0
    8.8326    2.5646   -0.1642 O   0  0  0  0  0  0  0  0  0  0  0  0
    5.0202   -2.2153    0.0079 C   0  0  0  0  0  0  0  0  0  0  0  0
    5.9638   -3.1492   -0.4224 O   0  0  0  0  0  0  0  0  0  0  0  0
    4.9709   -2.1657    1.3989 O   0  0  0  0  0  0  0  0  0  0  0  0
   -0.6788   -0.8116    0.3160 C   0  0  0  0  0  0  0  0  0  0  0  0
   -0.0228   -0.5491   -0.9926 C   0  0  0  0  0  0  0  0  0  0  0  0
    0.8816    0.6795   -0.9591 C   0  0  0  0  0  0  0  0  0  0  0  0
    2.0513    0.5045   -0.0397 C   0  0  0  0  0  0  0  0  0  0  0  0
    1.7398   -0.5980    0.9358 C   0  0  0  0  0  0  0  0  0  0  0  0
    0.3239   -0.5578    1.4231 C   0  0  0  0  0  0  0  0  0  0  0  0
   -1.8760    0.0319    0.6258 C   0  0  0  0  0  0  0  0  0  0  0  0
   -2.9914   -0.1458   -0.4042 C   0  0  0  0  0  0  0  0  0  0  0  0
   -4.1058    0.7118    0.0061 C   0  0  0  0  0  0  0  0  0  0  0  0
   -4.6872    0.4217    1.3654 C   0  0  0  0  0  0  0  0  0  0  0  0
   -5.9801    1.0356    1.3366 N   0  0  0  0  0  0  0  0  0  0  0  0
   -6.2362    1.5497    0.0348 C   0  0  0  0  0  0  0  0  0  0  0  0
   -5.3435    0.6606   -0.8487 C   0  0  0  0  0  0  0  0  0  0  0  0
   -5.9633   -0.6698   -1.0151 C   0  0  0  0  0  0  0  0  0  0  0  0
   -5.3998   -1.7009   -0.2710 O   0  0  0  0  0  0  0  0  0  0  0  0
   -7.3833   -0.7237   -0.7418 N   0  0  0  0  0  0  0  0  0  0  0  0
   -8.0785    0.4749   -1.0981 C   0  0  0  0  0  0  0  0  0  0  0  0
   -7.5806    1.5932   -0.3741 N   0  0  0  0  0  0  0  0  0  0  0  0
   -9.4812    0.2976   -0.7216 N   0  0  0  0  0  0  0  0  0  0  0  0
    3.2964    0.1648   -0.8517 C   0  0  0  0  0  0  0  0  0  0  0  0
    3.5042    1.2483   -1.7398 O   0  0  0  0  0  0  0  0  0  0  0  0
    4.4663    0.1205   -0.0144 N   0  0  0  0  0  0  0  0  0  0  0  0
    5.4378   -0.8339   -0.4660 C   0  0  1  0  0  0  0  0  0  0  0  0
    6.8004   -0.5272    0.1670 C   0  0  0  0  0  0  0  0  0  0  0  0
    7.2092    0.8791   -0.2530 C   0  0  0  0  0  0  0  0  0  0  0  0
    8.5315    1.2813    0.3273 C   0  0  0  0  0  0  0  0  0  0  0  0
    9.5480    0.4372   -0.0690 O   0  0  0  0  0  0  0  0  0  0  0  0
    8.8326    2.5646   -0.1642 O   0  0  0  0  0  0  0  0  0  0  0  0
    5.0202   -2.2153    0.0079 C   0  0  0  0  0  0  0  0  0  0  0  0
    5.9638   -3.1492   -0.4224 O   0  0  0  0  0  0  0  0  0  0  0  0
    4.9709   -2.1657    1.3989 O   0  0  0  0  0  0  0  0  0  0  0  0
   -0.6788   -0.8116    0.3160 C   0  0  0  0  0  0  0  0  0  0  0  0
   -0.0228   -0.5491   -0.9926 C   0  0  0  0  0  0  0  0  0  0  0  0
    0.8816    0.6795   -0.9591 C   0  0  0  0  0  0  0  0  0  0  0  0
    2.0513    0.5045   -0.0397 C   0  0  0  0  0  0  0  0  0  0  0  0
    1.7398   -0.5980    0.9358 C   0  0  0  0  0  0  0  0  0  0  0  0
    0.3239   -0.5578    1.4231 C   0  0  0  0  0  0  0  0  0  0  0  0
   -1.8760    0.0319    0.6258 C   0  0  0  0  0  0  0  0  0  0  0  0
   -2.9914   -0.1458   -0.4042 C   0  0  0  0  0  0  0  0  0  0  0  0
   -4.1058    0.7118    0.0061 C   0  0  0  0  0  0  0  0  0  0  0  0
   -4.6872    0.4217    1.3654 C   0  0  0  0  0  0  0  0  0  0  0  0
   -5.9801    1.0356    1.3366 N   0  0  0  0  0  0  0  0  0  0  0  0
   -6.2362    1.5497    0.0348 C   0  0  0  0  0  0  0  0  0  0  0  0
   -5.3435    0.6606   -0.8487 C   0  0  0  0  0  0  0  0  0  0  0  0
   -5.9633   -0.6698   -1.0151 C   0  0  0  0  0  0  0  0  0  0  0  0
   -5.3998   -1.7009   -0.2710 O   0  0  0  0  0  0  0  0  0  0  0  0
   -7.3833   -0.7237   -0.7418 N   0  0  0  0  0  0  0  0  0  0  0  0
   -8.0785    0.4749   -1.0981 C   0  0  0  0  0  0  0  0  0  0  0  0
   -7.5806    1.5932   -0.3741 N   0  0  0  0  0  0  0  0  0  0  0  0
   -9.4812    0.2976   -0.7216 N   0  0  0  0  0  0  0  0  0  0  0  0
    3.2964    0.1648   -0.8517 C   0  0  0  0  0  0  0  0  0  0  0  0
    3.5042    1.2483   -1.7398 O   0  0  0  0  0  0  0  0  0  0  0  0
    4.4663    0.1205   -0.0144 N   0  0  0  0  0  0  0  0  0  0  0  0
    5.4378   -0.8339   -0.4660 C   0  0  1  0  0  0  0  0  0  0  0  0
    6.8004   -0.5272    0.1670 C   0  0  0  0  0  0  0  0  0  0  0  0
    7.2092    0.8791   -0.2530 C   0  0  0  0  0  0  0  0  0  0  0  0
    8.5315    1.2813    0.3273 C   0  0  0  0  0  0  0  0  0  0  0  0
    9.5480    0.4372   -0.0690 O   0  0  0  0  0  0  0  0  0  0  0  0
    8.8326    2.5646   -0.1642 O   0  0  0  0  0  0  0  0  0  0  0  0
    5.0202   -2.2153    0.0079 C   0  0  0  0  0  0  0  0  0  0  0  0
    5.9638   -3.1492   -0.4224 O   0  0  0  0  0  0  0  0  0  0  0  0
    4.9709   -2.1657    1.3989 O   0  0  0  0  0  0  0  0  0  0  0  0
   -0.6788   -0.8116    0.3160 C   0  0  0  0  0  0  0  0  0  0  0  0
   -0.0228   -0.5491   -0.9926 C   0  0  0  0  0  0  0  0  0  0  0  0
    0.8816    0.6795   -0.9591 C   0  0  0  0  0  0  0  0  0  0  0  0
    2.0513    0.5045   -0.0397 C   0  0  0  0  0  0  0  0  0  0  0  0
    1.7398   -0.5980    0.9358 C   0  0  0  0  0  0  0  0  0  0  0  0
    0.3239   -0.5578    1.4231 C   0  0  0  0  0  0  0  0  0  0  0  0
   -1.8760    0.0319    0.6258 C   0  0  0  0  0  0  0  0  0  0  0  0
   -2.9914   -0.1458   -0.4042 C   0  0  0  0  0  0  0  0  0  0  0  0
   -4.1058    0.7118    0.0061 C   0  0  0  0  0  0  0  0  0  0  0  0
   -4.6872    0.4217    1.3654 C   0  0  0  0  0  0  0  0  0  0  0  0
   -5.9801    1.0356    1.3366 N   0  0  0  0  0  0  0  0  0  0  0  0
   -6.2362    1.5497    0.0348 C   0  0  0  0  0  0  0  0  0  0  0  0
   -5.3435    0.6606   -0.8487 C   0  0  0  0  0  0  0  0  0  0  0  0
   -5.9633   -0.6698   -1.0151 C   0  0  0  0  0  0  0  0  0  0  0  0
   -5.3998   -1.7009   -0.2710 O   0  0  0  0  0  0  0  0  0  0  0  0
   -7.3833   -0.7237   -0.7418 N   0  0  0  0  0  0  0  0  0  0  0  0
   -8.0785    0.4749   -1.0981 C   0  0  0  0  0  0  0  0  0  0  0  0
   -7.5806    1.5932   -0.3741 N   0  0  0  0  0  0  0  0  0  0  0  0
   -9.4812    0.2976   -0.7216 N   0  0  0  0  0  0  0  0  0  0  0  0
    3.2964    0.1648   -0.8517 C   0  0  0  0  0  0  0  0  0  0  0  0
    3.5042    1.2483   -1.7398 O   0  0  0  0  0  0  0  0  0  0  0  0
    4.4663    0.1205   -0.0144 N   0  0  0  0  0  0  0  0  0  0  0  0
    5.4378   -0.8339   -0.4660 C   0  0  1  0  0  0  0  0  0  0  0  0
    6.8004   -0.5272    0.1670 C   0  0  0  0  0  0  0  0  0  0  0  0
    7.2092    0.8791   -0.2530 C   0  0  0  0  0  0  0  0  0  0  0  0
    8.5315    1.2813    0.3273 C   0  0  0  0  0  0  0  0  0  0  0  0
    9.5480    0.4372   -0.0690 O   0  0  0  0  0  0  0  0  0  0  0  0
    8.8326    2.5646   -0.1642 O   0  0  0  0  0  0  0  0  0  0  0  0
    5.0202   -2.2153    0.0079 C   0  0  0  0  0  0  0  0  0  0  0  0
    5.9638   -3.1492   -0.4224 O   0  0  0  0  0  0  0  0  0  0  0  0
    4.9709   -2.1657    1.3989 O   0  0  0  0  0  0  0  0  0  0  0  0
   -0.9662   -1.8935    0.3535 H   0  0  0  0  0  0  0  0  0  0  0  0
    0.6576   -1.4174   -1.2014 H   0  0  0  0  0  0  0  0  0  0  0  0
   -0.7015   -0.4997   -1.8596 H   0  0  0  0  0  0  0  0  0  0  0  0
    0.3171    1.5773   -0.6183 H   0  0  0  0  0  0  0  0  0  0  0  0
    1.2258    0.8520   -1.9957 H   0  0  0  0  0  0  0  0  0  0  0  0
    2.2984    1.4264    0.5305 H   0  0  0  0  0  0  0  0  0  0  0  0
    2.0072   -1.5795    0.4760 H   0  0  0  0  0  0  0  0  0  0  0  0
    2.3879   -0.4615    1.8149 H   0  0  0  0  0  0  0  0  0  0  0  0
    0.1741    0.4443    1.8964 H   0  0  0  0  0  0  0  0  0  0  0  0
    0.2251   -1.3642    2.1959 H   0  0  0  0  0  0  0  0  0  0  0  0
   -2.2488   -0.2618    1.6163 H   0  0  0  0  0  0  0  0  0  0  0  0
   -1.5812    1.0976    0.6482 H   0  0  0  0  0  0  0  0  0  0  0  0
   -3.1747   -1.1889   -0.6297 H   0  0  0  0  0  0  0  0  0  0  0  0
   -2.5570    0.2997   -1.3486 H   0  0  0  0  0  0  0  0  0  0  0  0
   -3.7662    1.7681    0.0203 H   0  0  0  0  0  0  0  0  0  0  0  0
   -4.0660    0.9773    2.1154 H   0  0  0  0  0  0  0  0  0  0  0  0
   -4.6572   -0.6236    1.6602 H   0  0  0  0  0  0  0  0  0  0  0  0
   -6.7381    0.5131    1.7739 H   0  0  0  0  0  0  0  0  0  0  0  0
   -5.7815    2.5698   -0.0277 H   0  0  0  0  0  0  0  0  0  0  0  0
   -5.2187    1.2122   -1.8089 H   0  0  0  0  0  0  0  0  0  0  0  0
   -5.8472   -0.9686   -2.0966 H   0  0  0  0  0  0  0  0  0  0  0  0
   -5.6447   -2.5532   -0.7417 H   0  0  0  0  0  0  0  0  0  0  0  0
   -7.5997   -1.0867    0.2042 H   0  0  0  0  0  0  0  0  0  0  0  0
   -8.0604    0.5838   -2.1913 H   0  0  0  0  0  0  0  0  0  0  0  0
   -7.8715    2.4973   -0.8173 H   0  0  0  0  0  0  0  0  0  0  0  0
  -10.0934    0.9260   -1.2910 H   0  0  0  0  0  0  0  0  0  0  0  0
   -9.6483    0.5412    0.2795 H   0  0  0  0  0  0  0  0  0  0  0  0
    3.1444   -0.7361   -1.4719 H   0  0  0  0  0  0  0  0  0  0  0  0
    3.2370    2.0812   -1.2879 H   0  0  0  0  0  0  0  0  0  0  0  0
    4.1968   -0.0980    0.9586 H   0  0  0  0  0  0  0  0  0  0  0  0
    5.5150   -0.8270   -1.5676 H   0  0  0  0  0  0  0  0  0  0  0  0
    7.5113   -1.2738   -0.2171 H   0  0  0  0  0  0  0  0  0  0  0  0
    6.6502   -0.5906    1.2601 H   0  0  0  0  0  0  0  0  0  0  0  0
    6.4090    1.5774    0.0067 H   0  0  0  0  0  0  0  0  0  0  0  0
    7.3293    0.8866   -1.3680 H   0  0  0  0  0  0  0  0  0  0  0  0
    8.4749    1.4165    1.4423 H   0  0  0  0  0  0  0  0  0  0  0  0
    9.7803   -0.2150    0.6321 H   0  0  0  0  0  0  0  0  0  0  0  0
    8.1989    3.2476    0.1805 H   0  0  0  0  0  0  0  0  0  0  0  0
    4.0485   -2.4721   -0.4170 H   0  0  0  0  0  0  0  0  0  0  0  0
    5.5981   -4.0266   -0.6099 H   0  0  0  0  0  0  0  0  0  0  0  0
    4.0657   -2.3669    1.7438 H   0  0  0  0  0  0  0  0  0  0  0  0
   -0.9662   -1.8935    0.3535 H   0  0  0  0  0  0  0  0  0  0  0  0
    0.6576   -1.4174   -1.2014 H   0  0  0  0  0  0  0  0  0  0  0  0
   -0.7015   -0.4997   -1.8596 H   0  0  0  0  0  0  0  0  0  0  0  0
    0.3171    1.5773   -0.6183 H   0  0  0  0  0  0  0  0  0  0  0  0
    1.2258    0.8520   -1.9957 H   0  0  0  0  0  0  0  0  0  0  0  0
    2.2984    1.4264    0.5305 H   0  0  0  0  0  0  0  0  0  0  0  0
    2.0072   -1.5795    0.4760 H   0  0  0  0  0  0  0  0  0  0  0  0
    2.3879   -0.4615    1.8149 H   0  0  0  0  0  0  0  0  0  0  0  0
    0.1741    0.4443    1.8964 H   0  0  0  0  0  0  0  0  0  0  0  0
    0.2251   -1.3642    2.1959 H   0  0  0  0  0  0  0  0  0  0  0  0
   -2.2488   -0.2618    1.6163 H   0  0  0  0  0  0  0  0  0  0  0  0
   -1.5812    1.0976    0.6482 H   0  0  0  0  0  0  0  0  0  0  0  0
   -3.1747   -1.1889   -0.6297 H   0  0  0  0  0  0  0  0  0  0  0  0
   -2.5570    0.2997   -1.3486 H   0  0  0  0  0  0  0  0  0  0  0  0
   -3.7662    1.7681    0.0203 H   0  0  0  0  0  0  0  0  0  0  0  0
   -4.0660    0.9773    2.1154 H   0  0  0  0  0  0  0  0  0  0  0  0
   -4.6572   -0.6236    1.6602 H   0  0  0  0  0  0  0  0  0  0  0  0
   -6.7381    0.5131    1.7739 H   0  0  0  0  0  0  0  0  0  0  0  0
   -5.7815    2.5698   -0.0277 H   0  0  0  0  0  0  0  0  0  0  0  0
   -5.2187    1.2122   -1.8089 H   0  0  0  0  0  0  0  0  0  0  0  0
   -5.8472   -0.9686   -2.0966 H   0  0  0  0  0  0  0  0  0  0  0  0
   -5.6447   -2.5532   -0.7417 H   0  0  0  0  0  0  0  0  0  0  0  0
   -7.5997   -1.0867    0.2042 H   0  0  0  0  0  0  0  0  0  0  0  0
   -8.0604    0.5838   -2.1913 H   0  0  0  0  0  0  0  0  0  0  0  0
   -7.8715    2.4973   -0.8173 H   0  0  0  0  0  0  0  0  0  0  0  0
  -10.0934    0.9260   -1.2910 H   0  0  0  0  0  0  0  0  0  0  0  0
   -9.6483    0.5412    0.2795 H   0  0  0  0  0  0  0  0  0  0  0  0
    3.1444   -0.7361   -1.4719 H   0  0  0  0  0  0  0  0  0  0  0  0
    3.2370    2.0812   -1.2879 H   0  0  0  0  0  0  0  0  0  0  0  0
    4.1968   -0.0980    0.9586 H   0  0  0  0  0  0  0  0  0  0  0  0
    5.5150   -0.8270   -1.5676 H   0  0  0  0  0  0  0  0  0  0  0  0
    7.5113   -1.2738   -0.2171 H   0  0  0  0  0  0  0  0  0  0  0  0
    6.6502   -0.5906    1.2601 H   0  0  0  0  0  0  0  0  0  0  0  0
    6.4090    1.5774    0.0067 H   0  0  0  0  0  0  0  0  0  0  0  0
    7.3293    0.8866   -1.3680 H   0  0  0  0  0  0  0  0  0  0  0  0
    8.4749    1.4165    1.4423 H   0  0  0  0  0  0  0  0  0  0  0  0
    9.7803   -0.2150    0.6321 H   0  0  0  0  0  0  0  0  0  0  0  0
    8.1989    3.2476    0.1805 H   0  0  0  0  0  0  0  0  0  0  0  0
    4.0485   -2.4721   -0.4170 H   0  0  0  0  0  0  0  0  0  0  0  0
    5.5981   -4.0266   -0.6099 H   0  0  0  0  0  0  0  0  0  0  0  0
    4.0657   -2.3669    1.7438 H   0  0  0  0  0  0  0  0  0  0  0  0
   -0.9662   -1.8935    0.3535 H   0  0  0  0  0  0  0  0  0  0  0  0
    0.6576   -1.4174   -1.2014 H   0  0  0  0  0  0  0  0  0  0  0  0
   -0.7015   -0.4997   -1.8596 H   0  0  0  0  0  0  0  0  0  0  0  0
    0.3171    1.5773   -0.6183 H   0  0  0  0  0  0  0  0  0  0  0  0
    1.2258    0.8520   -1.9957 H   0  0  0  0  0  0  0  0  0  0  0  0
    2.2984    1.4264    0.5305 H   0  0  0  0  0  0  0  0  0  0  0  0
    2.0072   -1.5795    0.4760 H   0  0  0  0  0  0  0  0  0  0  0  0
    2.3879   -0.4615    1.8149 H   0  0  0  0  0  0  0  0  0  0  0  0
    0.1741    0.4443    1.8964 H   0  0  0  0  0  0  0  0  0  0  0  0
    0.2251   -1.3642    2.1959 H   0  0  0  0  0  0  0  0  0  0  0  0
   -2.2488   -0.2618    1.6163 H   0  0  0  0  0  0  0  0  0  0  0  0
   -1.5812    1.0976    0.6482 H   0  0  0  0  0  0  0  0  0  0  0  0
   -3.1747   -1.1889   -0.6297 H   0  0  0  0  0  0  0  0  0  0  0  0
   -2.5570    0.2997   -1.3486 H   0  0  0  0  0  0  0  0  0  0  0  0
   -3.7662    1.7681    0.0203 H   0  0  0  0  0  0  0  0  0  0  0  0
   -4.0660    0.9773    2.1154 H   0  0  0  0  0  0  0  0  0  0  0  0
   -4.6572   -0.6236    1.6602 H   0  0  0  0  0  0  0  0  0  0  0  0
   -6.7381    0.5131    1.7739 H   0  0  0  0  0  0  0  0  0  0  0  0
   -5.7815    2.5698   -0.0277 H   0  0  0  0  0  0  0  0  0  0  0  0
   -5.2187    1.2122   -1.8089 H   0  0  0  0  0  0  0  0  0  0  0  0
   -5.8472   -0.9686   -2.0966 H   0  0  0  0  0  0  0  0  0  0  0  0
   -5.6447   -2.5532   -0.7417 H   0  0  0  0  0  0  0  0  0  0  0  0
   -7.5997   -1.0867    0.2042 H   0  0  0  0  0  0  0  0  0  0  0  0
   -8.0604    0.5838   -2.1913 H   0  0  0  0  0  0  0  0  0  0  0  0
   -7.8715    2.4973   -0.8173 H   0  0  0  0  0  0  0  0  0  0  0  0
  -10.0934    0.9260   -1.2910 H   0  0  0  0  0  0  0  0  0  0  0  0
   -9.6483    0.5412    0.2795 H   0  0  0  0  0  0  0  0  0  0  0  0
    3.1444   -0.7361   -1.4719 H   0  0  0  0  0  0  0  0  0  0  0  0
    3.2370    2.0812   -1.2879 H   0  0  0  0  0  0  0  0  0  0  0  0
    4.1968   -0.0980    0.9586 H   0  0  0  0  0  0  0  0  0  0  0  0
    5.5150   -0.8270   -1.5676 H   0  0  0  0  0  0  0  0  0  0  0  0
    7.5113   -1.2738   -0.2171 H   0  0  0  0  0  0  0  0  0  0  0  0
    6.6502   -0.5906    1.2601 H   0  0  0  0  0  0  0  0  0  0  0  0
    6.4090    1.5774    0.0067 H   0  0  0  0  0  0  0  0  0  0  0  0
    7.3293    0.8866   -1.3680 H   0  0  0  0  0  0  0  0  0  0  0  0
    8.4749    1.4165    1.4423 H   0  0  0  0  0  0  0  0  0  0  0  0
    9.7803   -0.2150    0.6321 H   0  0  0  0  0  0  0  0  0  0  0  0
    8.1989    3.2476    0.1805 H   0  0  0  0  0  0  0  0  0  0  0  0
    4.0485   -2.4721   -0.4170 H   0  0  0  0  0  0  0  0  0  0  0  0
    5.5981   -4.0266   -0.6099 H   0  0  0  0  0  0  0  0  0  0  0  0
    4.0657   -2.3669    1.7438 H   0  0  0  0  0  0  0  0  0  0  0  0
   -0.9662   -1.8935    0.3535 H   0  0  0  0  0  0  0  0  0  0  0  0
    0.6576   -1.4174   -1.2014 H   0  0  0  0  0  0  0  0  0  0  0  0
   -0.7015   -0.4997   -1.8596 H   0  0  0  0  0  0  0  0  0  0  0  0
    0.3171    1.5773   -0.6183 H   0  0  0  0  0  0  0  0  0  0  0  0
    1.2258    0.8520   -1.9957 H   0  0  0  0  0  0  0  0  0  0  0  0
    2.2984    1.4264    0.5305 H   0  0  0  0  0  0  0  0  0  0  0  0
    2.0072   -1.5795    0.4760 H   0  0  0  0  0  0  0  0  0  0  0  0
    2.3879   -0.4615    1.8149 H   0  0  0  0  0  0  0  0  0  0  0  0
    0.1741    0.4443    1.8964 H   0  0  0  0  0  0  0  0  0  0  0  0
    0.2251   -1.3642    2.1959 H   0  0  0  0  0  0  0  0  0  0  0  0
   -2.2488   -0.2618    1.6163 H   0  0  0  0  0  0  0  0  0  0  0  0
   -1.5812    1.0976    0.6482 H   0  0  0  0  0  0  0  0  0  0  0  0
   -3.1747   -1.1889   -0.6297 H   0  0  0  0  0  0  0  0  0  0  0  0
   -2.5570    0.2997   -1.3486 H   0  0  0  0  0  0  0  0  0  0  0  0
   -3.7662    1.7681    0.0203 H   0  0  0  0  0  0  0  0  0  0  0  0
   -4.0660    0.9773    2.1154 H   0  0  0  0  0  0  0  0  0  0  0  0
   -4.6572   -0.6236    1.6602 H   0  0  0  0  0  0  0  0  0  0  0  0
   -6.7381    0.5131    1.7739 H   0  0  0  0  0  0  0  0  0  0  0  0
   -5.7815    2.5698   -0.0277 H   0  0  0  0  0  0  0  0  0  0  0  0
   -5.2187    1.2122   -1.8089 H   0  0  0  0  0  0  0  0  0  0  0  0
   -5.8472   -0.9686   -2.0966 H   0  0  0  0  0  0  0  0  0  0  0  0
   -5.6447   -2.5532   -0.7417 H   0  0  0  0  0  0  0  0  0  0  0  0
   -7.5997   -1.0867    0.2042 H   0  0  0  0  0  0  0  0  0  0  0  0
   -8.0604    0.5838   -2.1913 H   0  0  0  0  0  0  0  0  0  0  0  0
   -7.8715    2.4973   -0.8173 H   0  0  0  0  0  0  0  0  0  0  0  0
  -10.0934    0.9260   -1.2910 H   0  0  0  0  0  0  0  0  0  0  0  0
   -9.6483    0.5412    0.2795 H   0  0  0  0  0  0  0  0  0  0  0  0
    3.1444   -0.7361   -1.4719 H   0  0  0  0  0  0  0  0  0  0  0  0
    3.2370    2.0812   -1.2879 H   0  0  0  0  0  0  0  0  0  0  0  0
    4.1968   -0.0980    0.9586 H   0  0  0  0  0  0  0  0  0  0  0  0
    5.5150   -0.8270   -1.5676 H   0  0  0  0  0  0  0  0  0  0  0  0
    7.5113   -1.2738   -0.2171 H   0  0  0  0  0  0  0  0  0  0  0  0
    6.6502   -0.5906    1.2601 H   0  0  0  0  0  0  0  0  0  0  0  0
    6.4090    1.5774    0.0067 H   0  0  0  0  0  0  0  0  0  0  0  0
    7.3293    0.8866   -1.3680 H   0  0  0  0  0  0  0  0  0  0  0  0
    8.4749    1.4165    1.4423 H   0  0  0  0  0  0  0  0  0  0  0  0
    9.7803   -0.2150    0.6321 H   0  0  0  0  0  0  0  0  0  0  0  0
    8.1989    3.2476    0.1805 H   0  0  0  0  0  0  0  0  0  0  0  0
    4.0485   -2.4721   -0.4170 H   0  0  0  0  0  0  0  0  0  0  0  0
    5.5981   -4.0266   -0.6099 H   0  0  0  0  0  0  0  0  0  0  0  0
    4.0657   -2.3669    1.7438 H   0  0  0  0  0  0  0  0  0  0  0  0
  1  2  1  0
  2  3  1  0
  3  4  1  0
  4  5  1  0
  1  6  1  0
  5  6  1  0
  1  7  1  0
  7  8  1  0
  8  9  1  0
  9 10  1  0
 10 11  1  0
 11 12  1  0
  9 13  1  0
 12 13  1  0
 13 14  1  0
 14 15  1  0
 14 16  1  0
 16 17  1  0
 12 18  1  0
 17 18  1  0
 17 19  1  0
  4 20  1  0
 20 21  1  0
 20 22  1  0
 22 23  1  0
 23 24  1  0
 24 25  1  0
 25 26  1  0
 26 27  1  0
 26 28  1  0
 23 29  1  0
 29 30  1  0
 29 31  1  0
 32 33  1  0
 33 34  1  0
 34 35  1  0
 35 36  1  0
 32 37  1  0
 36 37  1  0
 32 38  1  0
 38 39  1  0
 39 40  1  0
 40 41  1  0
 41 42  1  0
 42 43  1  0
 40 44  1  0
 43 44  1  0
 44 45  1  0
 45 46  1  0
 45 47  1  0
 47 48  1  0
 43 49  1  0
 48 49  1  0
 48 50  1  0
 35 51  1  0
 51 52  1  0
 51 53  1  0
 53 54  1  0
 54 55  1  0
 55 56  1  0
 56 57  1  0
 57 58  1  0
 57 59  1  0
 54 60  1  0
 60 61  1  0
 60 62  1  0
 63 64  1  0
 64 65  1  0
 65 66  1  0
 66 67  1  0
 63 68  1  0
 67 68  1  0
 63 69  1  0
 69 70  1  0
 70 71  1  0
 71 72  1  0
 72 73  1  0
 73 74  1  0
 71 75  1  0
 74 75  1  0
 75 76  1  0
 76 77  1  0
 76 78  1  0
 78 79  1  0
 74 80  1  0
 79 80  1  0
 79 81  1  0
 66 82  1  0
 82 83  1  0
 82 84  1  0
 84 85  1  0
 85 86  1  0
 86 87  1  0
 87 88  1  0
 88 89  1  0
 88 90  1  0
 85 91  1  0
 91 92  1  0
 91 93  1  0
 94 95  1  0
 95 96  1  0
 96 97  1  0
 97 98  1  0
 94 99  1  0
 98 99  1  0
 94100  1  0
100101  1  0
101102  1  0
102103  1  0
103104  1  0
104105  1  0
102106  1  0
105106  1  0
106107  1  0
107108  1  0
107109  1  0
109110  1  0
105111  1  0
110111  1  0
110112  1  0
 97113  1  0
113114  1  0
113115  1  0
115116  1  0
116117  1  0
117118  1  0
118119  1  0
119120  1  0
119121  1  0
116122  1  0
122123  1  0
122124  1  0
  1125  1  0
  2126  1  0
  2127  1  0
  3128  1  0
  3129  1  0
  4130  1  0
  5131  1  0
  5132  1  0
  6133  1  0
  6134  1  0
  7135  1  0
  7136  1  0
  8137  1  0
  8138  1  0
  9139  1  0
 10140  1  0
 10141  1  0
 11142  1  0
 12143  1  0
 13144  1  0
 14145  1  0
 15146  1  0
 16147  1  0
 17148  1  0
 18149  1  0
 19150  1  0
 19151  1  0
 20152  1  0
 21153  1  0
 22154  1  0
 23155  1  6
 24156  1  0
 24157  1  0
 25158  1  0
 25159  1  0
 26160  1  0
 27161  1  0
 28162  1  0
 29163  1  0
 30164  1  0
 31165  1  0
 32166  1  0
 33167  1  0
 33168  1  0
 34169  1  0
 34170  1  0
 35171  1  0
 36172  1  0
 36173  1  0
 37174  1  0
 37175  1  0
 38176  1  0
 38177  1  0
 39178  1  0
 39179  1  0
 40180  1  0
 41181  1  0
 41182  1  0
 42183  1  0
 43184  1  0
 44185  1  0
 45186  1  0
 46187  1  0
 47188  1  0
 48189  1  0
 49190  1  0
 50191  1  0
 50192  1  0
 51193  1  0
 52194  1  0
 53195  1  0
 54196  1  6
 55197  1  0
 55198  1  0
 56199  1  0
 56200  1  0
 57201  1  0
 58202  1  0
 59203  1  0
 60204  1  0
 61205  1  0
 62206  1  0
 63207  1  0
 64208  1  0
 64209  1  0
 65210  1  0
 65211  1  0
 66212  1  0
 67213  1  0
 67214  1  0
 68215  1  0
 68216  1  0
 69217  1  0
 69218  1  0
 70219  1  0
 70220  1  0
 71221  1  0
 72222  1  0
 72223  1  0
 73224  1  0
 74225  1  0
 75226  1  0
 76227  1  0
 77228  1  0
 78229  1  0
 79230  1  0
 80231  1  0
 81232  1  0
 81233  1  0
 82234  1  0
 83235  1  0
 84236  1  0
 85237  1  6
 86238  1  0
 86239  1  0
 87240  1  0
 87241  1  0
 88242  1  0
 89243  1  0
 90244  1  0
 91245  1  0
 92246  1  0
 93247  1  0
 94248  1  0
 95249  1  0
 95250  1  0
 96251  1  0
 96252  1  0
 97253  1  0
 98254  1  0
 98255  1  0
 99256  1  0
 99257  1  0
100258  1  0
100259  1  0
101260  1  0
101261  1  0
102262  1  0
103263  1  0
103264  1  0
104265  1  0
105266  1  0
106267  1  0
107268  1  0
108269  1  0
109270  1  0
110271  1  0
111272  1  0
112273  1  0
112274  1  0
113275  1  0
114276  1  0
115277  1  0
116278  1  6
117279  1  0
117280  1  0
118281  1  0
118282  1  0
119283  1  0
120284  1  0
121285  1  0
122286  1  0
123287  1  0
124288  1  0
M  END
>  <PDBID>  (1) 
1JU6

>  <PDB ID>  (1) 
1JU6

>  <Generic Name>  (1) 
Pemetrexed

>  <Brand Name>  (1) 
Act Pemetrexed#Alimta#Pemetrexed#Pemetrexed Disodium for Injection#Taro-pemetrexed

>  <DrugBank ID>  (1) 
DB00642

>  <ATC Codes>  (1) 
L01BA04

>  <Ligand ID>  (1) 
LYA

>  <Target Name>  (1) 
Thymidylate synthase

>  <UniProt ID>  (1) 
P04818

>  <PDB ID.1>  (1) 
1JU6

>  <Seq. Identity>  (1) 
100%

$$$$
