PDB_DB01010_04
     RDKit          3D

 34 34  0  0  0  0  0  0  0  0999 V2000
    0.8800    0.2853   -1.1930 C   0  0  0  0  0  0  0  0  0  0  0  0
    0.1414   -0.4632   -0.1112 C   0  0  0  0  0  0  0  0  0  0  0  0
    0.6996   -0.1014    1.2349 C   0  0  0  0  0  0  0  0  0  0  0  0
    2.1476    0.0652    1.3191 C   0  0  2  0  0  0  0  0  0  0  0  0
    2.9438    0.1480    0.0830 C   0  0  0  0  0  0  0  0  0  0  0  0
    2.2915   -0.3189   -1.1673 C   0  0  0  0  0  0  0  0  0  0  0  0
    2.6744   -0.9969    2.0986 O   0  0  0  0  0  0  0  0  0  0  0  0
   -1.2764   -0.3064   -0.2063 N   0  0  0  0  0  0  0  0  0  0  0  0
   -1.9598   -0.5283    1.0519 C   0  0  0  0  0  0  0  0  0  0  0  0
   -1.7646   -1.3869   -1.0872 C   0  0  0  0  0  0  0  0  0  0  0  0
   -1.7079    0.9161   -0.8138 C   0  0  0  0  0  0  0  0  0  0  0  0
   -2.1887    1.9447    0.1983 C   0  0  0  0  0  0  0  0  0  0  0  0
    0.4144    0.0897   -2.1594 H   0  0  0  0  0  0  0  0  0  0  0  0
    1.0237    1.3597   -0.9567 H   0  0  0  0  0  0  0  0  0  0  0  0
    0.4041   -1.5502   -0.2616 H   0  0  0  0  0  0  0  0  0  0  0  0
    0.3169   -0.8885    1.9521 H   0  0  0  0  0  0  0  0  0  0  0  0
    0.1776    0.8331    1.5590 H   0  0  0  0  0  0  0  0  0  0  0  0
    2.3923    0.9747    1.9479 H   0  0  0  0  0  0  0  0  0  0  0  0
    3.2855    1.2097   -0.1090 H   0  0  0  0  0  0  0  0  0  0  0  0
    3.9201   -0.4171    0.1737 H   0  0  0  0  0  0  0  0  0  0  0  0
    2.8057    0.1008   -2.0568 H   0  0  0  0  0  0  0  0  0  0  0  0
    2.2616   -1.4163   -1.2912 H   0  0  0  0  0  0  0  0  0  0  0  0
    2.9872   -1.6815    1.4678 H   0  0  0  0  0  0  0  0  0  0  0  0
   -3.0484   -0.4995    0.8371 H   0  0  0  0  0  0  0  0  0  0  0  0
   -1.7500    0.2123    1.8155 H   0  0  0  0  0  0  0  0  0  0  0  0
   -1.7175   -1.5549    1.3970 H   0  0  0  0  0  0  0  0  0  0  0  0
   -2.7742   -1.0772   -1.4619 H   0  0  0  0  0  0  0  0  0  0  0  0
   -1.0919   -1.5255   -1.9406 H   0  0  0  0  0  0  0  0  0  0  0  0
   -1.8913   -2.3285   -0.5388 H   0  0  0  0  0  0  0  0  0  0  0  0
   -2.5971    0.7485   -1.4931 H   0  0  0  0  0  0  0  0  0  0  0  0
   -0.9573    1.4155   -1.4374 H   0  0  0  0  0  0  0  0  0  0  0  0
   -2.9686    1.5393    0.8588 H   0  0  0  0  0  0  0  0  0  0  0  0
   -2.7052    2.7387   -0.4188 H   0  0  0  0  0  0  0  0  0  0  0  0
   -1.3684    2.4599    0.7097 H   0  0  0  0  0  0  0  0  0  0  0  0
  1  2  1  0
  2  3  1  0
  3  4  1  0
  4  5  1  0
  1  6  1  0
  5  6  1  0
  4  7  1  0
  2  8  1  0
  8  9  1  0
  8 10  1  0
  8 11  1  0
 11 12  1  0
  1 13  1  0
  1 14  1  0
  2 15  1  0
  3 16  1  0
  3 17  1  0
  4 18  1  1
  5 19  1  0
  5 20  1  0
  6 21  1  0
  6 22  1  0
  7 23  1  0
  9 24  1  0
  9 25  1  0
  9 26  1  0
 10 27  1  0
 10 28  1  0
 10 29  1  0
 11 30  1  0
 11 31  1  0
 12 32  1  0
 12 33  1  0
 12 34  1  0
M  CHG  1   8   1
M  END
>  <PDBID>  (1) 
2ACK

>  <PDB ID>  (1) 
2ACK

>  <Generic Name>  (1) 
Edrophonium

>  <Brand Name>  (1) 
Enlon#Enlon 10mg/ml#Enlon Liq IV 10mg/ml#Enlon Plus#Tensilon#Antirex#Reversol

>  <DrugBank ID>  (1) 
DB01010

>  <ATC Codes>  (1) 
nan

>  <Ligand ID>  (1) 
EDR

>  <Target Name>  (1) 
Acetylcholinesterase

>  <UniProt ID>  (1) 
P22303

>  <PDB ID.1>  (1) 
2ACK

>  <Seq. Identity>  (1) 
57%

$$$$
