PDB_DB00939_04
     RDKit          3D

 88 90  0  0  0  0  0  0  0  0999 V2000
    2.8204    1.9596   -1.4017 O   0  0  0  0  0  0  0  0  0  0  0  0
    2.0371    2.1159   -0.2327 C   0  0  0  0  0  0  0  0  0  0  0  0
    2.4937    3.1520    0.5759 O   0  0  0  0  0  0  0  0  0  0  0  0
    2.0147    0.7723    0.4727 C   0  0  0  0  0  0  0  0  0  0  0  0
    3.4149    0.4166    0.8297 C   0  0  0  0  0  0  0  0  0  0  0  0
    3.9092   -0.9114    0.3834 C   0  0  0  0  0  0  0  0  0  0  0  0
    3.3347   -1.3386   -0.9448 C   0  0  0  0  0  0  0  0  0  0  0  0
    1.8595   -1.4708   -0.7197 C   0  0  0  0  0  0  0  0  0  0  0  0
    1.1986   -0.1717   -0.2859 C   0  0  0  0  0  0  0  0  0  0  0  0
    0.0771   -0.6710    0.5341 N   0  0  0  0  0  0  0  0  0  0  0  0
   -1.1662   -0.7725   -0.1650 C   0  0  0  0  0  0  0  0  0  0  0  0
   -1.7607    0.5209   -0.5016 C   0  0  0  0  0  0  0  0  0  0  0  0
   -1.6013    1.7644    0.7877 Cl  0  0  0  0  0  0  0  0  0  0  0  0
   -3.2492    0.4555   -0.8015 C   0  0  0  0  0  0  0  0  0  0  0  0
   -3.8472    1.8241   -0.8241 C   0  0  0  0  0  0  0  0  0  0  0  0
   -3.8892   -0.2554    0.3839 C   0  0  0  0  0  0  0  0  0  0  0  0
   -3.4570   -1.6938    0.2866 C   0  0  0  0  0  0  0  0  0  0  0  0
   -1.9734   -1.8434    0.4538 C   0  0  0  0  0  0  0  0  0  0  0  0
   -1.5397   -3.4179   -0.3136 Cl  0  0  0  0  0  0  0  0  0  0  0  0
    4.1504    1.1684    0.4157 H   0  0  0  0  0  0  0  0  0  0  0  0
    5.0071   -0.9274    0.3227 H   0  0  0  0  0  0  0  0  0  0  0  0
    3.7076   -2.3843   -1.1200 H   0  0  0  0  0  0  0  0  0  0  0  0
    1.3839   -1.8575   -1.6211 H   0  0  0  0  0  0  0  0  0  0  0  0
    0.0088   -0.1087    1.4170 H   0  0  0  0  0  0  0  0  0  0  0  0
   -3.4443    2.4738   -1.6221 H   0  0  0  0  0  0  0  0  0  0  0  0
   -4.9685    1.7155   -0.9652 H   0  0  0  0  0  0  0  0  0  0  0  0
   -3.7441    2.2377    0.2032 H   0  0  0  0  0  0  0  0  0  0  0  0
   -4.9900   -0.2189    0.3751 H   0  0  0  0  0  0  0  0  0  0  0  0
   -3.7508   -2.0879   -0.6983 H   0  0  0  0  0  0  0  0  0  0  0  0
    2.8204    1.9596   -1.4017 O   0  0  0  0  0  0  0  0  0  0  0  0
    2.0371    2.1159   -0.2327 C   0  0  0  0  0  0  0  0  0  0  0  0
    2.4937    3.1520    0.5759 O   0  0  0  0  0  0  0  0  0  0  0  0
    2.0147    0.7723    0.4727 C   0  0  0  0  0  0  0  0  0  0  0  0
    3.4149    0.4166    0.8297 C   0  0  0  0  0  0  0  0  0  0  0  0
    3.9092   -0.9114    0.3834 C   0  0  0  0  0  0  0  0  0  0  0  0
    3.3347   -1.3386   -0.9448 C   0  0  0  0  0  0  0  0  0  0  0  0
    1.8595   -1.4708   -0.7197 C   0  0  0  0  0  0  0  0  0  0  0  0
    1.1986   -0.1717   -0.2859 C   0  0  0  0  0  0  0  0  0  0  0  0
    0.0771   -0.6710    0.5341 N   0  0  0  0  0  0  0  0  0  0  0  0
   -1.1662   -0.7725   -0.1650 C   0  0  0  0  0  0  0  0  0  0  0  0
   -1.7607    0.5209   -0.5016 C   0  0  0  0  0  0  0  0  0  0  0  0
   -1.6013    1.7644    0.7877 Cl  0  0  0  0  0  0  0  0  0  0  0  0
   -3.2492    0.4555   -0.8015 C   0  0  0  0  0  0  0  0  0  0  0  0
   -3.8472    1.8241   -0.8241 C   0  0  0  0  0  0  0  0  0  0  0  0
   -3.8892   -0.2554    0.3839 C   0  0  0  0  0  0  0  0  0  0  0  0
   -3.4570   -1.6938    0.2866 C   0  0  0  0  0  0  0  0  0  0  0  0
   -1.9734   -1.8434    0.4538 C   0  0  0  0  0  0  0  0  0  0  0  0
   -1.5397   -3.4179   -0.3136 Cl  0  0  0  0  0  0  0  0  0  0  0  0
    4.1504    1.1684    0.4157 H   0  0  0  0  0  0  0  0  0  0  0  0
    5.0071   -0.9274    0.3227 H   0  0  0  0  0  0  0  0  0  0  0  0
    3.7076   -2.3843   -1.1200 H   0  0  0  0  0  0  0  0  0  0  0  0
    1.3839   -1.8575   -1.6211 H   0  0  0  0  0  0  0  0  0  0  0  0
    0.0088   -0.1087    1.4170 H   0  0  0  0  0  0  0  0  0  0  0  0
   -3.4443    2.4738   -1.6221 H   0  0  0  0  0  0  0  0  0  0  0  0
   -4.9685    1.7155   -0.9652 H   0  0  0  0  0  0  0  0  0  0  0  0
   -3.7441    2.2377    0.2032 H   0  0  0  0  0  0  0  0  0  0  0  0
   -4.9900   -0.2189    0.3751 H   0  0  0  0  0  0  0  0  0  0  0  0
   -3.7508   -2.0879   -0.6983 H   0  0  0  0  0  0  0  0  0  0  0  0
    2.2803    1.5918   -2.1441 H   0  0  0  0  0  0  0  0  0  0  0  0
    1.0019    2.4221   -0.5725 H   0  0  0  0  0  0  0  0  0  0  0  0
    2.6883    2.8817    1.5114 H   0  0  0  0  0  0  0  0  0  0  0  0
    1.4977    1.0051    1.4522 H   0  0  0  0  0  0  0  0  0  0  0  0
    3.5964    0.4575    1.9266 H   0  0  0  0  0  0  0  0  0  0  0  0
    3.5984   -1.7052    1.1202 H   0  0  0  0  0  0  0  0  0  0  0  0
    3.5937   -0.6884   -1.7846 H   0  0  0  0  0  0  0  0  0  0  0  0
    1.7438   -2.2522    0.0886 H   0  0  0  0  0  0  0  0  0  0  0  0
    0.7183    0.2457   -1.2005 H   0  0  0  0  0  0  0  0  0  0  0  0
   -0.8203   -1.2037   -1.2042 H   0  0  0  0  0  0  0  0  0  0  0  0
   -1.2737    0.9791   -1.3934 H   0  0  0  0  0  0  0  0  0  0  0  0
   -3.4525   -0.1135   -1.7370 H   0  0  0  0  0  0  0  0  0  0  0  0
   -3.4799    0.2251    1.2975 H   0  0  0  0  0  0  0  0  0  0  0  0
   -3.9615   -2.2907    1.0517 H   0  0  0  0  0  0  0  0  0  0  0  0
   -1.7672   -1.9998    1.5319 H   0  0  0  0  0  0  0  0  0  0  0  0
    2.2803    1.5918   -2.1441 H   0  0  0  0  0  0  0  0  0  0  0  0
    1.0019    2.4221   -0.5725 H   0  0  0  0  0  0  0  0  0  0  0  0
    2.6883    2.8817    1.5114 H   0  0  0  0  0  0  0  0  0  0  0  0
    1.4977    1.0051    1.4522 H   0  0  0  0  0  0  0  0  0  0  0  0
    3.5964    0.4575    1.9266 H   0  0  0  0  0  0  0  0  0  0  0  0
    3.5984   -1.7052    1.1202 H   0  0  0  0  0  0  0  0  0  0  0  0
    3.5937   -0.6884   -1.7846 H   0  0  0  0  0  0  0  0  0  0  0  0
    1.7438   -2.2522    0.0886 H   0  0  0  0  0  0  0  0  0  0  0  0
    0.7183    0.2457   -1.2005 H   0  0  0  0  0  0  0  0  0  0  0  0
   -0.8203   -1.2037   -1.2042 H   0  0  0  0  0  0  0  0  0  0  0  0
   -1.2737    0.9791   -1.3934 H   0  0  0  0  0  0  0  0  0  0  0  0
   -3.4525   -0.1135   -1.7370 H   0  0  0  0  0  0  0  0  0  0  0  0
   -3.4799    0.2251    1.2975 H   0  0  0  0  0  0  0  0  0  0  0  0
   -3.9615   -2.2907    1.0517 H   0  0  0  0  0  0  0  0  0  0  0  0
   -1.7672   -1.9998    1.5319 H   0  0  0  0  0  0  0  0  0  0  0  0
  1  2  1  0
  2  3  1  0
  2  4  1  0
  4  5  1  0
  5  6  1  0
  6  7  1  0
  7  8  1  0
  4  9  1  0
  8  9  1  0
  9 10  1  0
 10 11  1  0
 11 12  1  0
 12 13  1  0
 12 14  1  0
 14 15  1  0
 14 16  1  0
 16 17  1  0
 11 18  1  0
 17 18  1  0
 18 19  1  0
  5 20  1  0
  6 21  1  0
  7 22  1  0
  8 23  1  0
 10 24  1  0
 15 25  1  0
 15 26  1  0
 15 27  1  0
 16 28  1  0
 17 29  1  0
 30 31  1  0
 31 32  1  0
 31 33  1  0
 33 34  1  0
 34 35  1  0
 35 36  1  0
 36 37  1  0
 33 38  1  0
 37 38  1  0
 38 39  1  0
 39 40  1  0
 40 41  1  0
 41 42  1  0
 41 43  1  0
 43 44  1  0
 43 45  1  0
 45 46  1  0
 40 47  1  0
 46 47  1  0
 47 48  1  0
 34 49  1  0
 35 50  1  0
 36 51  1  0
 37 52  1  0
 39 53  1  0
 44 54  1  0
 44 55  1  0
 44 56  1  0
 45 57  1  0
 46 58  1  0
  1 59  1  0
  2 60  1  0
  3 61  1  0
  4 62  1  0
  5 63  1  0
  6 64  1  0
  7 65  1  0
  8 66  1  0
  9 67  1  0
 11 68  1  0
 12 69  1  0
 14 70  1  0
 16 71  1  0
 17 72  1  0
 18 73  1  0
 30 74  1  0
 31 75  1  0
 32 76  1  0
 33 77  1  0
 34 78  1  0
 35 79  1  0
 36 80  1  0
 37 81  1  0
 38 82  1  0
 40 83  1  0
 41 84  1  0
 43 85  1  0
 45 86  1  0
 46 87  1  0
 47 88  1  0
M  END
>  <PDBID>  (1) 
5IKQ

>  <PDB ID>  (1) 
5IKQ

>  <Generic Name>  (1) 
Meclofenamic acid

>  <Brand Name>  (1) 
Meclofenamate Sodium#Ethos#Eucome#Meclomen

>  <DrugBank ID>  (1) 
DB00939

>  <ATC Codes>  (1) 
M01AG04#M02AA18

>  <Ligand ID>  (1) 
JMS

>  <Target Name>  (1) 
Prostaglandin G/H synthase 1

>  <UniProt ID>  (1) 
P23219

>  <PDB ID.1>  (1) 
5IKQ

>  <Seq. Identity>  (1) 
61%

$$$$
