PDB_DB00307_01
     RDKit          3D

 70 72  0  0  0  0  0  0  0  0999 V2000
    7.2670   -0.5925    0.1096 O   0  0  0  0  0  0  0  0  0  0  0  0
    6.6525   -0.2046   -1.0776 C   0  0  0  0  0  0  0  0  0  0  0  0
    6.7944   -1.2771   -1.9731 O   0  0  0  0  0  0  0  0  0  0  0  0
    5.1643    0.0414   -0.8630 C   0  0  0  0  0  0  0  0  0  0  0  0
    4.9984    1.1370    0.1624 C   0  0  0  0  0  0  0  0  0  0  0  0
    4.5783   -1.2134   -0.3047 C   0  0  0  0  0  0  0  0  0  0  0  0
    3.0421   -1.0460   -0.3432 C   0  0  0  0  0  0  0  0  0  0  0  0
    2.6323    0.2993    0.1026 C   0  0  0  0  0  0  0  0  0  0  0  0
    3.6888    1.0291    0.9039 C   0  0  0  0  0  0  0  0  0  0  0  0
    1.3096    0.4260    0.7937 C   0  0  0  0  0  0  0  0  0  0  0  0
    1.1964   -0.4018    2.0421 C   0  0  0  0  0  0  0  0  0  0  0  0
    0.1078    0.4562   -0.0845 C   0  0  1  0  0  0  0  0  0  0  0  0
   -0.1740   -0.6918   -0.9519 C   0  0  0  0  0  0  0  0  0  0  0  0
    0.2499   -0.3828   -2.4039 C   0  0  0  0  0  0  0  0  0  0  0  0
   -1.5132   -1.3096   -0.9652 C   0  0  0  0  0  0  0  0  0  0  0  0
   -1.1050    0.9827    0.7048 C   0  0  0  0  0  0  0  0  0  0  0  0
   -2.3722    0.7893   -0.0977 C   0  0  0  0  0  0  0  0  0  0  0  0
   -3.4737    1.5265    0.5932 C   0  0  0  0  0  0  0  0  0  0  0  0
   -3.3143    3.0085    0.2235 C   0  0  0  0  0  0  0  0  0  0  0  0
   -3.3356    1.4752    2.1124 C   0  0  0  0  0  0  0  0  0  0  0  0
   -4.8485    1.1213    0.1691 C   0  0  0  0  0  0  0  0  0  0  0  0
   -4.7720    0.0959   -0.9397 C   0  0  0  0  0  0  0  0  0  0  0  0
   -3.9535   -1.1063   -0.5096 C   0  0  0  0  0  0  0  0  0  0  0  0
   -2.5735   -0.7100   -0.1105 C   0  0  0  0  0  0  0  0  0  0  0  0
   -3.9756   -2.0812   -1.6813 C   0  0  0  0  0  0  0  0  0  0  0  0
   -4.6542   -1.8355    0.6428 C   0  0  0  0  0  0  0  0  0  0  0  0
    7.7450   -1.4616    0.0309 H   0  0  0  0  0  0  0  0  0  0  0  0
    7.1333    0.7115   -1.4254 H   0  0  0  0  0  0  0  0  0  0  0  0
    7.5731   -1.1169   -2.5926 H   0  0  0  0  0  0  0  0  0  0  0  0
    4.6921    0.2818   -1.8289 H   0  0  0  0  0  0  0  0  0  0  0  0
    5.8644    1.0375    0.8666 H   0  0  0  0  0  0  0  0  0  0  0  0
    5.1272    2.1126   -0.3499 H   0  0  0  0  0  0  0  0  0  0  0  0
    4.8782   -1.3259    0.7541 H   0  0  0  0  0  0  0  0  0  0  0  0
    4.8390   -2.0772   -0.9211 H   0  0  0  0  0  0  0  0  0  0  0  0
    2.7895   -1.2702   -1.3971 H   0  0  0  0  0  0  0  0  0  0  0  0
    2.6793   -1.9007    0.2636 H   0  0  0  0  0  0  0  0  0  0  0  0
    2.5280    0.9302   -0.8354 H   0  0  0  0  0  0  0  0  0  0  0  0
    3.8749    0.5887    1.8825 H   0  0  0  0  0  0  0  0  0  0  0  0
    3.3153    2.0631    1.0561 H   0  0  0  0  0  0  0  0  0  0  0  0
    1.3640    1.4946    1.2246 H   0  0  0  0  0  0  0  0  0  0  0  0
    0.9916   -1.4688    1.8490 H   0  0  0  0  0  0  0  0  0  0  0  0
    0.4837    0.0768    2.7165 H   0  0  0  0  0  0  0  0  0  0  0  0
    2.1879   -0.3615    2.5406 H   0  0  0  0  0  0  0  0  0  0  0  0
    0.3029    1.3440   -0.7822 H   0  0  0  0  0  0  0  0  0  0  0  0
    0.5458   -1.5201   -0.6589 H   0  0  0  0  0  0  0  0  0  0  0  0
    0.8756   -1.1595   -2.8406 H   0  0  0  0  0  0  0  0  0  0  0  0
    0.8012    0.5778   -2.4587 H   0  0  0  0  0  0  0  0  0  0  0  0
   -0.6780   -0.3341   -3.0460 H   0  0  0  0  0  0  0  0  0  0  0  0
   -1.4862   -2.4347   -0.8095 H   0  0  0  0  0  0  0  0  0  0  0  0
   -1.9261   -1.2567   -2.0207 H   0  0  0  0  0  0  0  0  0  0  0  0
   -0.9463    1.9981    1.0566 H   0  0  0  0  0  0  0  0  0  0  0  0
   -1.1897    0.3157    1.5870 H   0  0  0  0  0  0  0  0  0  0  0  0
   -2.2747    1.2023   -1.1226 H   0  0  0  0  0  0  0  0  0  0  0  0
   -3.1735    3.0446   -0.8806 H   0  0  0  0  0  0  0  0  0  0  0  0
   -2.4029    3.4407    0.6732 H   0  0  0  0  0  0  0  0  0  0  0  0
   -4.2326    3.5722    0.4686 H   0  0  0  0  0  0  0  0  0  0  0  0
   -2.6155    2.2716    2.4540 H   0  0  0  0  0  0  0  0  0  0  0  0
   -3.0858    0.4815    2.4826 H   0  0  0  0  0  0  0  0  0  0  0  0
   -4.3243    1.7970    2.5289 H   0  0  0  0  0  0  0  0  0  0  0  0
   -5.4592    1.9677   -0.2276 H   0  0  0  0  0  0  0  0  0  0  0  0
   -5.4333    0.7235    1.0437 H   0  0  0  0  0  0  0  0  0  0  0  0
   -4.2641    0.5562   -1.7925 H   0  0  0  0  0  0  0  0  0  0  0  0
   -5.8087   -0.2323   -1.1431 H   0  0  0  0  0  0  0  0  0  0  0  0
   -2.3828   -1.0582    0.9467 H   0  0  0  0  0  0  0  0  0  0  0  0
   -5.0342   -2.4739   -1.7091 H   0  0  0  0  0  0  0  0  0  0  0  0
   -3.8424   -1.5611   -2.6541 H   0  0  0  0  0  0  0  0  0  0  0  0
   -3.3241   -2.9424   -1.5347 H   0  0  0  0  0  0  0  0  0  0  0  0
   -4.8298   -1.1734    1.4942 H   0  0  0  0  0  0  0  0  0  0  0  0
   -3.9343   -2.6317    0.9556 H   0  0  0  0  0  0  0  0  0  0  0  0
   -5.5601   -2.3652    0.2796 H   0  0  0  0  0  0  0  0  0  0  0  0
  1  2  1  0
  2  3  1  0
  2  4  1  0
  4  5  1  0
  4  6  1  0
  6  7  1  0
  7  8  1  0
  5  9  1  0
  8  9  1  0
  8 10  1  0
 10 11  1  0
 10 12  1  0
 12 13  1  0
 13 14  1  0
 13 15  1  0
 12 16  1  0
 16 17  1  0
 17 18  1  0
 18 19  1  0
 18 20  1  0
 18 21  1  0
 21 22  1  0
 22 23  1  0
 15 24  1  0
 17 24  1  0
 23 24  1  0
 23 25  1  0
 23 26  1  0
  1 27  1  0
  2 28  1  0
  3 29  1  0
  4 30  1  0
  5 31  1  0
  5 32  1  0
  6 33  1  0
  6 34  1  0
  7 35  1  0
  7 36  1  0
  8 37  1  0
  9 38  1  0
  9 39  1  0
 10 40  1  0
 11 41  1  0
 11 42  1  0
 11 43  1  0
 12 44  1  6
 13 45  1  0
 14 46  1  0
 14 47  1  0
 14 48  1  0
 15 49  1  0
 15 50  1  0
 16 51  1  0
 16 52  1  0
 17 53  1  0
 19 54  1  0
 19 55  1  0
 19 56  1  0
 20 57  1  0
 20 58  1  0
 20 59  1  0
 21 60  1  0
 21 61  1  0
 22 62  1  0
 22 63  1  0
 24 64  1  0
 25 65  1  0
 25 66  1  0
 25 67  1  0
 26 68  1  0
 26 69  1  0
 26 70  1  0
M  END
>  <PDBID>  (1) 
3H0A

>  <PDB ID>  (1) 
3H0A

>  <Generic Name>  (1) 
Bexarotene

>  <Brand Name>  (1) 
Bexarotene#Targretin

>  <DrugBank ID>  (1) 
DB00307

>  <ATC Codes>  (1) 
L01XX25

>  <Ligand ID>  (1) 
9RA

>  <Target Name>  (1) 
Retinoic acid receptor RXR-beta

>  <UniProt ID>  (1) 
P28702

>  <PDB ID.1>  (1) 
3H0A

>  <Seq. Identity>  (1) 
87%

$$$$
