PDB_DB01064_02
     RDKit          3D

 76 76  0  0  0  0  0  0  0  0999 V2000
    3.8944   -0.6635    0.3498 C   0  0  0  0  0  0  0  0  0  0  0  0
    3.2304    0.6277   -0.1470 C   0  0  0  0  0  0  0  0  0  0  0  0
    4.3776    1.4634   -0.7478 C   0  0  0  0  0  0  0  0  0  0  0  0
    2.2924    0.3876   -1.1783 N   0  0  0  0  0  0  0  0  0  0  0  0
    1.1582   -0.4276   -0.8809 C   0  0  0  0  0  0  0  0  0  0  0  0
    0.1996    0.2130    0.0584 C   0  0  2  0  0  0  0  0  0  0  0  0
    0.8282    0.4638    1.2683 O   0  0  0  0  0  0  0  0  0  0  0  0
   -1.0048   -0.6576    0.3587 C   0  0  0  0  0  0  0  0  0  0  0  0
   -1.7886   -0.9955   -0.8598 C   0  0  0  0  0  0  0  0  0  0  0  0
   -1.8639    0.1250    1.3314 C   0  0  0  0  0  0  0  0  0  0  0  0
   -2.7131    1.1161    0.5942 C   0  0  0  0  0  0  0  0  0  0  0  0
   -3.7934    0.3600   -0.1402 C   0  0  0  0  0  0  0  0  0  0  0  0
   -4.3335    1.1059   -1.1873 O   0  0  0  0  0  0  0  0  0  0  0  0
   -3.2717   -0.9664   -0.5801 C   0  0  0  0  0  0  0  0  0  0  0  0
   -3.5481   -1.9203    0.4202 O   0  0  0  0  0  0  0  0  0  0  0  0
    3.8944   -0.6635    0.3498 C   0  0  0  0  0  0  0  0  0  0  0  0
    3.2304    0.6277   -0.1470 C   0  0  0  0  0  0  0  0  0  0  0  0
    4.3776    1.4634   -0.7478 C   0  0  0  0  0  0  0  0  0  0  0  0
    2.2924    0.3876   -1.1783 N   0  0  0  0  0  0  0  0  0  0  0  0
    1.1582   -0.4276   -0.8809 C   0  0  0  0  0  0  0  0  0  0  0  0
    0.1996    0.2130    0.0584 C   0  0  2  0  0  0  0  0  0  0  0  0
    0.8282    0.4638    1.2683 O   0  0  0  0  0  0  0  0  0  0  0  0
   -1.0048   -0.6576    0.3587 C   0  0  0  0  0  0  0  0  0  0  0  0
   -1.7886   -0.9955   -0.8598 C   0  0  0  0  0  0  0  0  0  0  0  0
   -1.8639    0.1250    1.3314 C   0  0  0  0  0  0  0  0  0  0  0  0
   -2.7131    1.1161    0.5942 C   0  0  0  0  0  0  0  0  0  0  0  0
   -3.7934    0.3600   -0.1402 C   0  0  0  0  0  0  0  0  0  0  0  0
   -4.3335    1.1059   -1.1873 O   0  0  0  0  0  0  0  0  0  0  0  0
   -3.2717   -0.9664   -0.5801 C   0  0  0  0  0  0  0  0  0  0  0  0
   -3.5481   -1.9203    0.4202 O   0  0  0  0  0  0  0  0  0  0  0  0
    4.6131   -0.3294    1.1494 H   0  0  0  0  0  0  0  0  0  0  0  0
    4.4479   -1.1561   -0.4634 H   0  0  0  0  0  0  0  0  0  0  0  0
    3.1406   -1.2858    0.8557 H   0  0  0  0  0  0  0  0  0  0  0  0
    2.9153    1.1779    0.7315 H   0  0  0  0  0  0  0  0  0  0  0  0
    5.0963    1.6809    0.0670 H   0  0  0  0  0  0  0  0  0  0  0  0
    4.9117    0.9145   -1.5334 H   0  0  0  0  0  0  0  0  0  0  0  0
    3.9836    2.3917   -1.1696 H   0  0  0  0  0  0  0  0  0  0  0  0
    2.7929    0.0569   -2.0346 H   0  0  0  0  0  0  0  0  0  0  0  0
    1.5758   -1.3923   -0.4631 H   0  0  0  0  0  0  0  0  0  0  0  0
    0.6908   -0.7446   -1.8393 H   0  0  0  0  0  0  0  0  0  0  0  0
   -0.2300    1.1654   -0.3786 H   0  0  0  0  0  0  0  0  0  0  0  0
    1.0451   -0.4260    1.6641 H   0  0  0  0  0  0  0  0  0  0  0  0
   -0.6465   -1.5771    0.8626 H   0  0  0  0  0  0  0  0  0  0  0  0
   -1.5613   -2.0660   -1.1395 H   0  0  0  0  0  0  0  0  0  0  0  0
   -1.5069   -0.3945   -1.7491 H   0  0  0  0  0  0  0  0  0  0  0  0
   -1.2359    0.7168    2.0398 H   0  0  0  0  0  0  0  0  0  0  0  0
   -2.5211   -0.5005    1.9509 H   0  0  0  0  0  0  0  0  0  0  0  0
   -2.1651    1.7459   -0.1314 H   0  0  0  0  0  0  0  0  0  0  0  0
   -3.1576    1.8363    1.3394 H   0  0  0  0  0  0  0  0  0  0  0  0
   -4.6397    0.2289    0.5969 H   0  0  0  0  0  0  0  0  0  0  0  0
   -3.7048    1.8055   -1.5049 H   0  0  0  0  0  0  0  0  0  0  0  0
   -3.8623   -1.2648   -1.4804 H   0  0  0  0  0  0  0  0  0  0  0  0
   -3.6452   -2.8149   -0.0177 H   0  0  0  0  0  0  0  0  0  0  0  0
    4.6131   -0.3294    1.1494 H   0  0  0  0  0  0  0  0  0  0  0  0
    4.4479   -1.1561   -0.4634 H   0  0  0  0  0  0  0  0  0  0  0  0
    3.1406   -1.2858    0.8557 H   0  0  0  0  0  0  0  0  0  0  0  0
    2.9153    1.1779    0.7315 H   0  0  0  0  0  0  0  0  0  0  0  0
    5.0963    1.6809    0.0670 H   0  0  0  0  0  0  0  0  0  0  0  0
    4.9117    0.9145   -1.5334 H   0  0  0  0  0  0  0  0  0  0  0  0
    3.9836    2.3917   -1.1696 H   0  0  0  0  0  0  0  0  0  0  0  0
    2.7929    0.0569   -2.0346 H   0  0  0  0  0  0  0  0  0  0  0  0
    1.5758   -1.3923   -0.4631 H   0  0  0  0  0  0  0  0  0  0  0  0
    0.6908   -0.7446   -1.8393 H   0  0  0  0  0  0  0  0  0  0  0  0
   -0.2300    1.1654   -0.3786 H   0  0  0  0  0  0  0  0  0  0  0  0
    1.0451   -0.4260    1.6641 H   0  0  0  0  0  0  0  0  0  0  0  0
   -0.6465   -1.5771    0.8626 H   0  0  0  0  0  0  0  0  0  0  0  0
   -1.5613   -2.0660   -1.1395 H   0  0  0  0  0  0  0  0  0  0  0  0
   -1.5069   -0.3945   -1.7491 H   0  0  0  0  0  0  0  0  0  0  0  0
   -1.2359    0.7168    2.0398 H   0  0  0  0  0  0  0  0  0  0  0  0
   -2.5211   -0.5005    1.9509 H   0  0  0  0  0  0  0  0  0  0  0  0
   -2.1651    1.7459   -0.1314 H   0  0  0  0  0  0  0  0  0  0  0  0
   -3.1576    1.8363    1.3394 H   0  0  0  0  0  0  0  0  0  0  0  0
   -4.6397    0.2289    0.5969 H   0  0  0  0  0  0  0  0  0  0  0  0
   -3.7048    1.8055   -1.5049 H   0  0  0  0  0  0  0  0  0  0  0  0
   -3.8623   -1.2648   -1.4804 H   0  0  0  0  0  0  0  0  0  0  0  0
   -3.6452   -2.8149   -0.0177 H   0  0  0  0  0  0  0  0  0  0  0  0
  1  2  1  0
  2  3  1  0
  2  4  1  0
  4  5  1  0
  5  6  1  0
  6  7  1  0
  6  8  1  0
  8  9  1  0
  8 10  1  0
 10 11  1  0
 11 12  1  0
 12 13  1  0
  9 14  1  0
 12 14  1  0
 14 15  1  0
 16 17  1  0
 17 18  1  0
 17 19  1  0
 19 20  1  0
 20 21  1  0
 21 22  1  0
 21 23  1  0
 23 24  1  0
 23 25  1  0
 25 26  1  0
 26 27  1  0
 27 28  1  0
 24 29  1  0
 27 29  1  0
 29 30  1  0
  1 31  1  0
  1 32  1  0
  1 33  1  0
  2 34  1  0
  3 35  1  0
  3 36  1  0
  3 37  1  0
  4 38  1  0
  5 39  1  0
  5 40  1  0
  6 41  1  6
  7 42  1  0
  8 43  1  0
  9 44  1  0
  9 45  1  0
 10 46  1  0
 10 47  1  0
 11 48  1  0
 11 49  1  0
 12 50  1  0
 13 51  1  0
 14 52  1  0
 15 53  1  0
 16 54  1  0
 16 55  1  0
 16 56  1  0
 17 57  1  0
 18 58  1  0
 18 59  1  0
 18 60  1  0
 19 61  1  0
 20 62  1  0
 20 63  1  0
 21 64  1  6
 22 65  1  0
 23 66  1  0
 24 67  1  0
 24 68  1  0
 25 69  1  0
 25 70  1  0
 26 71  1  0
 26 72  1  0
 27 73  1  0
 28 74  1  0
 29 75  1  0
 30 76  1  0
M  END
>  <PDBID>  (1) 
2Y03

>  <PDB ID>  (1) 
2Y03

>  <Generic Name>  (1) 
Isoprenaline

>  <Brand Name>  (1) 
Isoproterenol HCl Inj 1:5000#Isoproterenol Hydrochloride Injection USP#Isuprel#Isuprel Inj 0.2mg/ml#Isuprel Liq 0.2mg/ml#Isuprel Liq 0.5%#Isuprel Liq Inh 0.5%#Isuprel Mistometer 125mcg/aem#Isuprel Mistometer Aem 0.25%#Medihaler-Iso#Proternol L#Saventrine

>  <DrugBank ID>  (1) 
DB01064

>  <ATC Codes>  (1) 
R03AK02#R03CB01#R03CB51#R03AB02#C01CA02

>  <Ligand ID>  (1) 
5FW

>  <Target Name>  (1) 
Beta-1 adrenergic receptor

>  <UniProt ID>  (1) 
P08588

>  <PDB ID.1>  (1) 
2Y03

>  <Seq. Identity>  (1) 
63%

$$$$
