PDB_DB00503_07
     RDKit          3D

124127  0  0  0  0  0  0  0  0999 V2000
   -6.5432    3.4662   -0.2472 C   0  0  0  0  0  0  0  0  0  0  0  0
   -5.7499    4.4701   -1.0328 C   0  0  0  0  0  0  0  0  0  0  0  0
   -6.4791    6.0062   -0.3091 S   0  0  0  0  0  0  0  0  0  0  0  0
   -7.9466    5.1920    0.4519 C   0  0  0  0  0  0  0  0  0  0  0  0
   -7.9294    3.9308   -0.3118 N   0  0  0  0  0  0  0  0  0  0  0  0
   -4.2876    4.5107   -0.7880 C   0  0  0  0  0  0  0  0  0  0  0  0
   -3.6917    3.2984   -1.1204 O   0  0  0  0  0  0  0  0  0  0  0  0
   -2.3359    3.3156   -0.9874 C   0  0  0  0  0  0  0  0  0  0  0  0
   -1.7299    3.5461   -2.2750 O   0  0  0  0  0  0  0  0  0  0  0  0
   -1.7248    2.3210   -0.2838 N   0  0  0  0  0  0  0  0  0  0  0  0
   -1.7821    0.9384   -0.6556 C   0  0  2  0  0  0  0  0  0  0  0  0
   -1.3003    0.7050   -2.0572 C   0  0  2  0  0  0  0  0  0  0  0  0
   -1.2745   -0.6974   -2.4943 C   0  0  0  0  0  0  0  0  0  0  0  0
   -0.4143   -1.7113   -1.8656 C   0  0  2  0  0  0  0  0  0  0  0  0
   -3.0115    0.2137   -0.3260 C   0  0  0  0  0  0  0  0  0  0  0  0
   -3.3810    0.0949    1.1296 C   0  0  0  0  0  0  0  0  0  0  0  0
   -2.4002   -0.5759    2.0100 C   0  0  0  0  0  0  0  0  0  0  0  0
   -2.7308   -0.2423    3.4593 C   0  0  0  0  0  0  0  0  0  0  0  0
   -4.2123   -0.0378    3.6438 C   0  0  0  0  0  0  0  0  0  0  0  0
   -4.6144    1.2373    2.9710 C   0  0  0  0  0  0  0  0  0  0  0  0
   -3.7794    1.4330    1.6959 C   0  0  0  0  0  0  0  0  0  0  0  0
    0.0132    1.2648   -2.1894 O   0  0  0  0  0  0  0  0  0  0  0  0
   -0.5926   -3.0645   -2.5216 C   0  0  0  0  0  0  0  0  0  0  0  0
   -1.9393   -3.6591   -2.5361 C   0  0  0  0  0  0  0  0  0  0  0  0
   -1.8942   -5.0250   -3.2822 C   0  0  0  0  0  0  0  0  0  0  0  0
   -1.4579   -6.1171   -2.3157 C   0  0  0  0  0  0  0  0  0  0  0  0
   -2.6298   -6.4471   -1.4088 C   0  0  0  0  0  0  0  0  0  0  0  0
   -3.4559   -5.1866   -1.2702 C   0  0  0  0  0  0  0  0  0  0  0  0
   -2.5201   -3.9711   -1.2108 C   0  0  0  0  0  0  0  0  0  0  0  0
   -0.2523   -1.7116   -0.4775 N   0  0  0  0  0  0  0  0  0  0  0  0
    2.8253   -1.2431    0.2874 N   0  0  0  0  0  0  0  0  0  0  0  0
    2.1462   -2.4085   -0.1349 C   0  0  2  0  0  0  0  0  0  0  0  0
    0.7082   -2.5439    0.1200 C   0  0  1  0  0  0  0  0  0  0  0  0
    0.5472   -2.4478    1.5346 O   0  0  0  0  0  0  0  0  0  0  0  0
    2.8406   -3.5768    0.6087 C   0  0  0  0  0  0  0  0  0  0  0  0
    2.1999   -4.8572    0.2216 C   0  0  0  0  0  0  0  0  0  0  0  0
    4.3234   -3.5297    0.3802 C   0  0  0  0  0  0  0  0  0  0  0  0
    2.5307    0.0068   -0.2866 C   0  0  1  0  0  0  0  0  0  0  0  0
    3.3509    1.0420    0.4147 N   0  0  0  0  0  0  0  0  0  0  0  0
    4.7358    0.6422    0.3499 C   0  0  0  0  0  0  0  0  0  0  0  0
    2.7837    0.0880   -1.6514 O   0  0  0  0  0  0  0  0  0  0  0  0
    5.6942    1.4091    1.1806 C   0  0  0  0  0  0  0  0  0  0  0  0
    5.3170    1.2951    2.6774 C   0  0  0  0  0  0  0  0  0  0  0  0
    6.5194    2.5716    3.2737 S   0  0  0  0  0  0  0  0  0  0  0  0
    6.6506    3.4800    1.6963 C   0  0  0  0  0  0  0  0  0  0  0  0
    5.6696    2.7976    0.8871 N   0  0  0  0  0  0  0  0  0  0  0  0
    8.0222    3.5714    1.1579 C   0  0  0  0  0  0  0  0  0  0  0  0
    8.1111    4.3154   -0.1556 C   0  0  0  0  0  0  0  0  0  0  0  0
    8.8268    2.2997    1.1584 C   0  0  0  0  0  0  0  0  0  0  0  0
    3.2498    2.2661   -0.4250 C   0  0  0  0  0  0  0  0  0  0  0  0
   -6.2050    3.4014    0.8007 H   0  0  0  0  0  0  0  0  0  0  0  0
   -6.4951    2.4992   -0.7178 H   0  0  0  0  0  0  0  0  0  0  0  0
   -6.0067    4.4298   -2.1233 H   0  0  0  0  0  0  0  0  0  0  0  0
   -8.8294    5.7905    0.1680 H   0  0  0  0  0  0  0  0  0  0  0  0
   -7.8030    5.0398    1.5228 H   0  0  0  0  0  0  0  0  0  0  0  0
   -8.0920    4.2106   -1.3075 H   0  0  0  0  0  0  0  0  0  0  0  0
   -4.0991    4.7946    0.2725 H   0  0  0  0  0  0  0  0  0  0  0  0
   -3.8852    5.3083   -1.4824 H   0  0  0  0  0  0  0  0  0  0  0  0
   -2.1016    4.3322   -0.5125 H   0  0  0  0  0  0  0  0  0  0  0  0
   -2.2486    4.2238   -2.7678 H   0  0  0  0  0  0  0  0  0  0  0  0
   -1.0490    2.5568    0.4663 H   0  0  0  0  0  0  0  0  0  0  0  0
   -0.9638    0.4628   -0.0071 H   0  0  0  0  0  0  0  0  0  0  0  0
   -1.9249    1.3247   -2.7335 H   0  0  0  0  0  0  0  0  0  0  0  0
   -2.3231   -1.1351   -2.5432 H   0  0  0  0  0  0  0  0  0  0  0  0
   -1.0436   -0.6722   -3.6320 H   0  0  0  0  0  0  0  0  0  0  0  0
    0.6568   -1.4222   -2.3064 H   0  0  0  0  0  0  0  0  0  0  0  0
   -3.9282    0.6603   -0.8631 H   0  0  0  0  0  0  0  0  0  0  0  0
   -2.9951   -0.8064   -0.7327 H   0  0  0  0  0  0  0  0  0  0  0  0
   -4.3362   -0.5309    1.2228 H   0  0  0  0  0  0  0  0  0  0  0  0
   -1.3405   -0.3149    1.8681 H   0  0  0  0  0  0  0  0  0  0  0  0
   -2.4913   -1.6789    1.9181 H   0  0  0  0  0  0  0  0  0  0  0  0
   -2.2360    0.7098    3.7401 H   0  0  0  0  0  0  0  0  0  0  0  0
   -2.3473   -1.0612    4.0781 H   0  0  0  0  0  0  0  0  0  0  0  0
   -4.4057    0.0459    4.7306 H   0  0  0  0  0  0  0  0  0  0  0  0
   -4.8080   -0.9161    3.2939 H   0  0  0  0  0  0  0  0  0  0  0  0
   -5.6904    1.1666    2.6869 H   0  0  0  0  0  0  0  0  0  0  0  0
   -4.4385    2.1256    3.6239 H   0  0  0  0  0  0  0  0  0  0  0  0
   -2.9148    2.0909    1.8972 H   0  0  0  0  0  0  0  0  0  0  0  0
   -4.4837    1.8831    0.9755 H   0  0  0  0  0  0  0  0  0  0  0  0
    0.2041    1.8325   -1.4012 H   0  0  0  0  0  0  0  0  0  0  0  0
   -0.2963   -2.9088   -3.6131 H   0  0  0  0  0  0  0  0  0  0  0  0
    0.2036   -3.7556   -2.1565 H   0  0  0  0  0  0  0  0  0  0  0  0
   -2.6820   -3.0568   -3.1112 H   0  0  0  0  0  0  0  0  0  0  0  0
   -2.9152   -5.2543   -3.5898 H   0  0  0  0  0  0  0  0  0  0  0  0
   -1.1618   -4.9939   -4.0939 H   0  0  0  0  0  0  0  0  0  0  0  0
   -1.1960   -7.0016   -2.9298 H   0  0  0  0  0  0  0  0  0  0  0  0
   -0.5774   -5.7415   -1.7337 H   0  0  0  0  0  0  0  0  0  0  0  0
   -2.2506   -6.8290   -0.4588 H   0  0  0  0  0  0  0  0  0  0  0  0
   -3.2800   -7.2118   -1.8840 H   0  0  0  0  0  0  0  0  0  0  0  0
   -3.9511   -5.2273   -0.2815 H   0  0  0  0  0  0  0  0  0  0  0  0
   -4.2111   -5.0466   -2.0377 H   0  0  0  0  0  0  0  0  0  0  0  0
   -1.7309   -4.2730   -0.5064 H   0  0  0  0  0  0  0  0  0  0  0  0
   -3.1084   -3.1572   -0.7458 H   0  0  0  0  0  0  0  0  0  0  0  0
   -1.1840   -2.0174   -0.0535 H   0  0  0  0  0  0  0  0  0  0  0  0
    2.9502   -1.1789    1.3391 H   0  0  0  0  0  0  0  0  0  0  0  0
    2.4404   -2.5876   -1.2015 H   0  0  0  0  0  0  0  0  0  0  0  0
    0.4157   -3.6210   -0.0664 H   0  0  0  0  0  0  0  0  0  0  0  0
    1.0584   -1.6834    1.8901 H   0  0  0  0  0  0  0  0  0  0  0  0
    2.6673   -3.4055    1.7000 H   0  0  0  0  0  0  0  0  0  0  0  0
    1.3731   -5.0738    0.9495 H   0  0  0  0  0  0  0  0  0  0  0  0
    1.7891   -4.9026   -0.7882 H   0  0  0  0  0  0  0  0  0  0  0  0
    2.9374   -5.6792    0.4159 H   0  0  0  0  0  0  0  0  0  0  0  0
    4.7371   -4.5474    0.5288 H   0  0  0  0  0  0  0  0  0  0  0  0
    4.7633   -2.7978    1.0997 H   0  0  0  0  0  0  0  0  0  0  0  0
    4.5307   -3.1212   -0.6343 H   0  0  0  0  0  0  0  0  0  0  0  0
    1.4901    0.2930   -0.1059 H   0  0  0  0  0  0  0  0  0  0  0  0
    4.8695   -0.4393    0.5815 H   0  0  0  0  0  0  0  0  0  0  0  0
    5.1044    0.7229   -0.7202 H   0  0  0  0  0  0  0  0  0  0  0  0
    3.3568   -0.6234   -1.9942 H   0  0  0  0  0  0  0  0  0  0  0  0
    6.6961    0.9372    1.0417 H   0  0  0  0  0  0  0  0  0  0  0  0
    4.2929    1.6151    2.8462 H   0  0  0  0  0  0  0  0  0  0  0  0
    5.6335    0.3500    3.1118 H   0  0  0  0  0  0  0  0  0  0  0  0
    6.2309    4.5174    1.8994 H   0  0  0  0  0  0  0  0  0  0  0  0
    4.7309    3.1442    1.2974 H   0  0  0  0  0  0  0  0  0  0  0  0
    8.5849    4.2549    1.8836 H   0  0  0  0  0  0  0  0  0  0  0  0
    7.4841    5.2148   -0.1058 H   0  0  0  0  0  0  0  0  0  0  0  0
    9.1683    4.6797   -0.2565 H   0  0  0  0  0  0  0  0  0  0  0  0
    7.7749    3.7256   -1.0160 H   0  0  0  0  0  0  0  0  0  0  0  0
    8.6806    1.7339    2.0773 H   0  0  0  0  0  0  0  0  0  0  0  0
    8.7565    1.7174    0.2155 H   0  0  0  0  0  0  0  0  0  0  0  0
    9.9214    2.6145    1.1814 H   0  0  0  0  0  0  0  0  0  0  0  0
    2.7395    3.0803    0.0798 H   0  0  0  0  0  0  0  0  0  0  0  0
    2.5776    1.9948   -1.3011 H   0  0  0  0  0  0  0  0  0  0  0  0
    4.2056    2.5136   -0.9071 H   0  0  0  0  0  0  0  0  0  0  0  0
  1  2  1  0
  2  3  1  0
  3  4  1  0
  1  5  1  0
  4  5  1  0
  2  6  1  0
  6  7  1  0
  7  8  1  0
  8  9  1  0
  8 10  1  0
 10 11  1  0
 11 12  1  0
 12 13  1  0
 13 14  1  0
 11 15  1  0
 15 16  1  0
 16 17  1  0
 17 18  1  0
 18 19  1  0
 19 20  1  0
 16 21  1  0
 20 21  1  0
 12 22  1  0
 14 23  1  0
 23 24  1  0
 24 25  1  0
 25 26  1  0
 26 27  1  0
 27 28  1  0
 24 29  1  0
 28 29  1  0
 14 30  1  0
 31 32  1  0
 30 33  1  0
 32 33  1  0
 33 34  1  0
 32 35  1  0
 35 36  1  0
 35 37  1  0
 31 38  1  0
 38 39  1  0
 39 40  1  0
 38 41  1  0
 40 42  1  0
 42 43  1  0
 43 44  1  0
 44 45  1  0
 42 46  1  0
 45 46  1  0
 45 47  1  0
 47 48  1  0
 47 49  1  0
 39 50  1  0
  1 51  1  0
  1 52  1  0
  2 53  1  0
  4 54  1  0
  4 55  1  0
  5 56  1  0
  6 57  1  0
  6 58  1  0
  8 59  1  0
  9 60  1  0
 10 61  1  0
 11 62  1  1
 12 63  1  6
 13 64  1  0
 13 65  1  0
 14 66  1  6
 15 67  1  0
 15 68  1  0
 16 69  1  0
 17 70  1  0
 17 71  1  0
 18 72  1  0
 18 73  1  0
 19 74  1  0
 19 75  1  0
 20 76  1  0
 20 77  1  0
 21 78  1  0
 21 79  1  0
 22 80  1  0
 23 81  1  0
 23 82  1  0
 24 83  1  0
 25 84  1  0
 25 85  1  0
 26 86  1  0
 26 87  1  0
 27 88  1  0
 27 89  1  0
 28 90  1  0
 28 91  1  0
 29 92  1  0
 29 93  1  0
 30 94  1  0
 31 95  1  0
 32 96  1  6
 33 97  1  6
 34 98  1  0
 35 99  1  0
 36100  1  0
 36101  1  0
 36102  1  0
 37103  1  0
 37104  1  0
 37105  1  0
 38106  1  6
 40107  1  0
 40108  1  0
 41109  1  0
 42110  1  0
 43111  1  0
 43112  1  0
 45113  1  0
 46114  1  0
 47115  1  0
 48116  1  0
 48117  1  0
 48118  1  0
 49119  1  0
 49120  1  0
 49121  1  0
 50122  1  0
 50123  1  0
 50124  1  0
M  END
>  <PDBID>  (1) 
1HXW

>  <PDB ID>  (1) 
1HXW

>  <Generic Name>  (1) 
Ritonavir

>  <Brand Name>  (1) 
Holkira Pak#Kaletra#Lopinavir-ritonavir#Norvir#Norvir Sec#Technivie#Viekira Pak#Viekira XR#Busvir#Empetus#Normune

>  <DrugBank ID>  (1) 
DB00503

>  <ATC Codes>  (1) 
J05AX67#J05AR10#J05AE03#J05AX66

>  <Ligand ID>  (1) 
RIT

>  <Target Name>  (1) 
Pol polyprotein

>  <UniProt ID>  (1) 
Q72874

>  <PDB ID.1>  (1) 
1HXW

>  <Seq. Identity>  (1) 
98%

$$$$
