PDB_DB01024_01
     RDKit          3D

110112  0  0  0  0  0  0  0  0999 V2000
   -4.0608    2.0252    0.2276 C   0  0  0  0  0  0  0  0  0  0  0  0
    1.1040    0.4497    0.6768 C   0  0  0  0  0  0  0  0  0  0  0  0
    2.5897    0.7069    0.6493 C   0  0  0  0  0  0  0  0  0  0  0  0
    3.3359   -0.3912   -0.0138 C   0  0  0  0  0  0  0  0  0  0  0  0
    4.8109   -0.1981   -0.0714 C   0  0  0  0  0  0  0  0  0  0  0  0
    5.5257   -0.0714    1.2203 C   0  0  0  0  0  0  0  0  0  0  0  0
   -3.3217   -1.9044   -1.2006 C   0  0  0  0  0  0  0  0  0  0  0  0
   -0.0547   -3.1096   -0.0600 C   0  0  0  0  0  0  0  0  0  0  0  0
    2.8461    2.0627    0.0145 C   0  0  0  0  0  0  0  0  0  0  0  0
   -4.8953   -0.0203    0.6248 C   0  0  0  0  0  0  0  0  0  0  0  0
   -3.4273   -0.1410    0.5841 C   0  0  0  0  0  0  0  0  0  0  0  0
   -2.8289   -1.3804    0.1143 C   0  0  0  0  0  0  0  0  0  0  0  0
   -1.3140   -1.1918   -0.0076 C   0  0  0  0  0  0  0  0  0  0  0  0
   -0.9515    0.0730   -0.7047 C   0  0  1  0  0  0  0  0  0  0  0  0
   -1.6772    1.3111   -0.1652 C   0  0  0  0  0  0  0  0  0  0  0  0
   -3.1193    1.0377   -0.3622 C   0  0  0  0  0  0  0  0  0  0  0  0
    0.5417    0.3192   -0.6919 C   0  0  0  0  0  0  0  0  0  0  0  0
   -4.2324    3.1708   -0.5137 O   0  0  0  0  0  0  0  0  0  0  0  0
   -5.2324    1.3150    0.4001 O   0  0  0  0  0  0  0  0  0  0  0  0
   -0.8297   -2.2422   -0.8002 O   0  0  0  0  0  0  0  0  0  0  0  0
   -1.2066    2.3909   -0.9104 O   0  0  0  0  0  0  0  0  0  0  0  0
    5.1454    0.9795    2.0100 O   0  0  0  0  0  0  0  0  0  0  0  0
    5.5386   -1.2772    1.9473 O   0  0  0  0  0  0  0  0  0  0  0  0
   -4.0322    1.9195    0.2591 C   0  0  2  0  0  0  0  0  0  0  0  0
    1.0795    0.4129    0.6217 C   0  0  0  0  0  0  0  0  0  0  0  0
    2.5491    0.7438    0.6067 C   0  0  0  0  0  0  0  0  0  0  0  0
    3.3678   -0.2569   -0.1213 C   0  0  0  0  0  0  0  0  0  0  0  0
    4.8250    0.0175   -0.1638 C   0  0  0  0  0  0  0  0  0  0  0  0
    5.5514    0.1009    1.1214 C   0  0  0  0  0  0  0  0  0  0  0  0
   -3.5159   -1.9766   -1.2468 C   0  0  0  0  0  0  0  0  0  0  0  0
    0.0307   -3.1581   -0.2578 C   0  0  0  0  0  0  0  0  0  0  0  0
    2.7987    2.1203    0.0001 C   0  0  0  0  0  0  0  0  0  0  0  0
   -4.9222   -0.1544    0.3561 C   0  0  0  0  0  0  0  0  0  0  0  0
   -3.4560   -0.2608    0.5164 C   0  0  0  0  0  0  0  0  0  0  0  0
   -2.7884   -1.4482   -0.0318 C   0  0  2  0  0  0  0  0  0  0  0  0
   -1.3152   -1.2695   -0.2588 C   0  0  2  0  0  0  0  0  0  0  0  0
   -0.9219    0.0403   -0.8537 C   0  0  1  0  0  0  0  0  0  0  0  0
   -1.6429    1.1693   -0.1393 C   0  0  2  0  0  0  0  0  0  0  0  0
   -3.0825    0.9601   -0.3516 C   0  0  0  0  0  0  0  0  0  0  0  0
    0.5374    0.3439   -0.7512 C   0  0  0  0  0  0  0  0  0  0  0  0
   -3.5159    2.4042    1.4827 O   0  0  0  0  0  0  0  0  0  0  0  0
   -5.1830    1.2202    0.5584 O   0  0  0  0  0  0  0  0  0  0  0  0
   -0.8389   -2.3624   -0.9596 O   0  0  0  0  0  0  0  0  0  0  0  0
   -1.1639    2.4177   -0.5128 O   0  0  0  0  0  0  0  0  0  0  0  0
    5.1196    1.0929    1.9929 O   0  0  0  0  0  0  0  0  0  0  0  0
    5.6679   -1.1234    1.7793 O   0  0  0  0  0  0  0  0  0  0  0  0
   -3.6966    2.2824    1.2655 H   0  0  0  0  0  0  0  0  0  0  0  0
    0.9608   -0.4894    1.2385 H   0  0  0  0  0  0  0  0  0  0  0  0
    0.6754    1.3215    1.2382 H   0  0  0  0  0  0  0  0  0  0  0  0
    2.8878    0.7659    1.7391 H   0  0  0  0  0  0  0  0  0  0  0  0
    3.0044   -0.5265   -1.0700 H   0  0  0  0  0  0  0  0  0  0  0  0
    3.1309   -1.3254    0.5622 H   0  0  0  0  0  0  0  0  0  0  0  0
    5.2298   -1.1059   -0.5979 H   0  0  0  0  0  0  0  0  0  0  0  0
    5.0882    0.6776   -0.6992 H   0  0  0  0  0  0  0  0  0  0  0  0
    6.6139    0.1029    0.9689 H   0  0  0  0  0  0  0  0  0  0  0  0
   -2.8781   -1.3848   -2.0766 H   0  0  0  0  0  0  0  0  0  0  0  0
   -2.9780   -2.9675   -1.2759 H   0  0  0  0  0  0  0  0  0  0  0  0
   -4.4026   -1.9145   -1.3201 H   0  0  0  0  0  0  0  0  0  0  0  0
    0.8399   -2.6780    0.4038 H   0  0  0  0  0  0  0  0  0  0  0  0
    0.3157   -3.8958   -0.7767 H   0  0  0  0  0  0  0  0  0  0  0  0
   -0.6953   -3.6546    0.6829 H   0  0  0  0  0  0  0  0  0  0  0  0
    1.8727    2.5952   -0.1506 H   0  0  0  0  0  0  0  0  0  0  0  0
    3.3087    1.9744   -0.9830 H   0  0  0  0  0  0  0  0  0  0  0  0
    3.4332    2.6906    0.7064 H   0  0  0  0  0  0  0  0  0  0  0  0
   -5.3563   -0.3022    1.5941 H   0  0  0  0  0  0  0  0  0  0  0  0
   -5.4430   -0.6078   -0.1491 H   0  0  0  0  0  0  0  0  0  0  0  0
   -3.0065    0.1420    1.5583 H   0  0  0  0  0  0  0  0  0  0  0  0
   -2.9808   -2.1835    0.8585 H   0  0  0  0  0  0  0  0  0  0  0  0
   -0.9350   -1.2950    1.0257 H   0  0  0  0  0  0  0  0  0  0  0  0
   -1.2649   -0.0075   -1.7628 H   0  0  0  0  0  0  0  0  0  0  0  0
   -1.4777    1.4654    0.9011 H   0  0  0  0  0  0  0  0  0  0  0  0
   -3.4051    0.7866   -1.3971 H   0  0  0  0  0  0  0  0  0  0  0  0
    0.7310    1.2091   -1.3240 H   0  0  0  0  0  0  0  0  0  0  0  0
    1.0456   -0.5399   -1.2029 H   0  0  0  0  0  0  0  0  0  0  0  0
   -4.3531    3.9279    0.1422 H   0  0  0  0  0  0  0  0  0  0  0  0
   -1.1266    2.1868   -1.8669 H   0  0  0  0  0  0  0  0  0  0  0  0
    5.4261    0.8157    2.9279 H   0  0  0  0  0  0  0  0  0  0  0  0
    5.1497   -1.9802    1.3498 H   0  0  0  0  0  0  0  0  0  0  0  0
   -4.2137    2.8226   -0.3561 H   0  0  0  0  0  0  0  0  0  0  0  0
    0.9825   -0.5294    1.2023 H   0  0  0  0  0  0  0  0  0  0  0  0
    0.6028    1.2102    1.2482 H   0  0  0  0  0  0  0  0  0  0  0  0
    2.8772    0.7669    1.6807 H   0  0  0  0  0  0  0  0  0  0  0  0
    3.0435   -0.2820   -1.2086 H   0  0  0  0  0  0  0  0  0  0  0  0
    3.1625   -1.2899    0.2341 H   0  0  0  0  0  0  0  0  0  0  0  0
    5.2973   -0.8092   -0.7625 H   0  0  0  0  0  0  0  0  0  0  0  0
    5.0391    0.9391   -0.7461 H   0  0  0  0  0  0  0  0  0  0  0  0
    6.6170    0.3863    0.8693 H   0  0  0  0  0  0  0  0  0  0  0  0
   -3.6268   -1.2524   -2.0513 H   0  0  0  0  0  0  0  0  0  0  0  0
   -3.0521   -2.9463   -1.5771 H   0  0  0  0  0  0  0  0  0  0  0  0
   -4.5387   -2.2588   -0.9003 H   0  0  0  0  0  0  0  0  0  0  0  0
    0.9473   -2.6417    0.0826 H   0  0  0  0  0  0  0  0  0  0  0  0
    0.3118   -4.0855   -0.7399 H   0  0  0  0  0  0  0  0  0  0  0  0
   -0.5030   -3.4466    0.6964 H   0  0  0  0  0  0  0  0  0  0  0  0
    1.8205    2.6379   -0.1690 H   0  0  0  0  0  0  0  0  0  0  0  0
    3.3507    2.0656   -0.9500 H   0  0  0  0  0  0  0  0  0  0  0  0
    3.3358    2.7628    0.7361 H   0  0  0  0  0  0  0  0  0  0  0  0
   -5.5167   -0.7808    1.0425 H   0  0  0  0  0  0  0  0  0  0  0  0
   -5.2361   -0.3514   -0.6964 H   0  0  0  0  0  0  0  0  0  0  0  0
   -3.1762   -0.0148    1.5462 H   0  0  0  0  0  0  0  0  0  0  0  0
   -2.8819   -2.2747    0.7373 H   0  0  0  0  0  0  0  0  0  0  0  0
   -0.8410   -1.3191    0.7513 H   0  0  0  0  0  0  0  0  0  0  0  0
   -1.2351    0.0613   -1.9144 H   0  0  0  0  0  0  0  0  0  0  0  0
   -1.4215    1.0128    0.9566 H   0  0  0  0  0  0  0  0  0  0  0  0
   -3.3803    0.7823   -1.4026 H   0  0  0  0  0  0  0  0  0  0  0  0
    0.7934    1.2772   -1.2865 H   0  0  0  0  0  0  0  0  0  0  0  0
    1.0856   -0.4761   -1.3028 H   0  0  0  0  0  0  0  0  0  0  0  0
   -4.0702    3.1735    1.7559 H   0  0  0  0  0  0  0  0  0  0  0  0
   -1.4238    3.0428    0.2268 H   0  0  0  0  0  0  0  0  0  0  0  0
    5.1590    0.7620    2.9258 H   0  0  0  0  0  0  0  0  0  0  0  0
    5.5429   -1.8979    1.2032 H   0  0  0  0  0  0  0  0  0  0  0  0
  2  3  1  0
  3  4  1  0
  4  5  1  0
  5  6  1  0
  3  9  1  0
 10 11  1  0
  7 12  1  0
 11 12  1  0
 12 13  1  0
 13 14  1  0
 14 15  1  0
  1 16  1  0
 11 16  1  0
 15 16  1  0
  2 17  1  0
 14 17  1  0
  1 18  1  0
  1 19  1  0
 10 19  1  0
  8 20  1  0
 13 20  1  0
 15 21  1  0
  6 22  1  0
  6 23  1  0
 25 26  1  0
 26 27  1  0
 27 28  1  0
 28 29  1  0
 26 32  1  0
 33 34  1  0
 30 35  1  0
 34 35  1  0
 35 36  1  0
 36 37  1  0
 37 38  1  0
 24 39  1  0
 34 39  1  0
 38 39  1  0
 25 40  1  0
 37 40  1  0
 24 41  1  0
 24 42  1  0
 33 42  1  0
 31 43  1  0
 36 43  1  0
 38 44  1  0
 29 45  1  0
 29 46  1  0
  1 47  1  0
  2 48  1  0
  2 49  1  0
  3 50  1  0
  4 51  1  0
  4 52  1  0
  5 53  1  0
  5 54  1  0
  6 55  1  0
  7 56  1  0
  7 57  1  0
  7 58  1  0
  8 59  1  0
  8 60  1  0
  8 61  1  0
  9 62  1  0
  9 63  1  0
  9 64  1  0
 10 65  1  0
 10 66  1  0
 11 67  1  0
 12 68  1  0
 13 69  1  0
 14 70  1  6
 15 71  1  0
 16 72  1  0
 17 73  1  0
 17 74  1  0
 18 75  1  0
 21 76  1  0
 22 77  1  0
 23 78  1  0
 24 79  1  6
 25 80  1  0
 25 81  1  0
 26 82  1  0
 27 83  1  0
 27 84  1  0
 28 85  1  0
 28 86  1  0
 29 87  1  0
 30 88  1  0
 30 89  1  0
 30 90  1  0
 31 91  1  0
 31 92  1  0
 31 93  1  0
 32 94  1  0
 32 95  1  0
 32 96  1  0
 33 97  1  0
 33 98  1  0
 34 99  1  0
 35100  1  1
 36101  1  1
 37102  1  6
 38103  1  1
 39104  1  0
 40105  1  0
 40106  1  0
 41107  1  0
 44108  1  0
 45109  1  0
 46110  1  0
M  END
>  <PDBID>  (1) 
1JR1

>  <PDB ID>  (1) 
1JR1

>  <Generic Name>  (1) 
Mycophenolic acid

>  <Brand Name>  (1) 
Apo-mycophenolic Acid#Mycophenolic Acid#Myfortic#Melbex

>  <DrugBank ID>  (1) 
DB01024

>  <ATC Codes>  (1) 
L04AA06

>  <Ligand ID>  (1) 
MOA

>  <Target Name>  (1) 
Inosine-5'-monophosphate dehydrogenase 2

>  <UniProt ID>  (1) 
P12268

>  <PDB ID.1>  (1) 
1JR1

>  <Seq. Identity>  (1) 
99%

$$$$
