PDB_DB00755_00
     RDKit          3D

124124  0  0  0  0  0  0  0  0999 V2000
   -3.6956    0.8199   -0.0669 C   0  0  0  0  0  0  0  0  0  0  0  0
   -5.1311    0.5676   -0.5047 C   0  0  0  0  0  0  0  0  0  0  0  0
   -5.1933   -0.2920   -1.7330 C   0  0  0  0  0  0  0  0  0  0  0  0
   -4.7763   -1.7037   -1.4300 C   0  0  0  0  0  0  0  0  0  0  0  0
   -3.6634   -1.6826   -0.4246 C   0  0  0  0  0  0  0  0  0  0  0  0
   -2.8941   -0.3815   -0.3956 C   0  0  0  0  0  0  0  0  0  0  0  0
   -1.6426   -0.5790    0.4180 C   0  0  0  0  0  0  0  0  0  0  0  0
   -0.6917    0.5515    0.2728 C   0  0  0  0  0  0  0  0  0  0  0  0
    0.5943    0.3905    1.1056 C   0  0  1  0  0  0  0  0  0  0  0  0
    1.3407   -0.8267    0.7159 C   0  0  0  0  0  0  0  0  0  0  0  0
    2.5988   -1.1588    1.3956 C   0  0  0  0  0  0  0  0  0  0  0  0
    3.7899   -0.3135    1.2694 C   0  0  0  0  0  0  0  0  0  0  0  0
    4.3809   -0.1947   -0.1158 C   0  0  0  0  0  0  0  0  0  0  0  0
    5.5842    0.7254    0.0000 C   0  0  0  0  0  0  0  0  0  0  0  0
    6.2618    0.9195   -1.3374 C   0  0  0  0  0  0  0  0  0  0  0  0
   -3.7253    1.2455    1.3588 C   0  0  0  0  0  0  0  0  0  0  0  0
   -3.1837    1.9868   -0.9075 C   0  0  0  0  0  0  0  0  0  0  0  0
   -4.1041   -2.1723    0.9125 C   0  0  0  0  0  0  0  0  0  0  0  0
    1.3652    1.6501    0.8707 C   0  0  0  0  0  0  0  0  0  0  0  0
    4.9386   -1.5277   -0.5916 C   0  0  0  0  0  0  0  0  0  0  0  0
    5.3666    1.4777   -2.2270 O   0  0  0  0  0  0  0  0  0  0  0  0
    7.3363    1.7627   -1.1793 O   0  0  0  0  0  0  0  0  0  0  0  0
   -3.7874    0.7133   -0.1538 C   0  0  0  0  0  0  0  0  0  0  0  0
   -3.9869   -0.5617   -0.9863 C   0  0  0  0  0  0  0  0  0  0  0  0
   -4.0453   -1.7726   -0.0830 C   0  0  0  0  0  0  0  0  0  0  0  0
   -3.3162   -1.6099    1.2021 C   0  0  0  0  0  0  0  0  0  0  0  0
   -2.0691   -0.7474    0.9488 C   0  0  0  0  0  0  0  0  0  0  0  0
   -2.4956    0.6499    0.6056 C   0  0  0  0  0  0  0  0  0  0  0  0
   -1.4033    1.5420    0.1609 C   0  0  0  0  0  0  0  0  0  0  0  0
   -0.8361    1.4802   -1.1700 C   0  0  0  0  0  0  0  0  0  0  0  0
   -0.1069    0.3971   -1.7921 C   0  0  0  0  0  0  0  0  0  0  0  0
    1.2112   -0.0974   -1.3105 C   0  0  0  0  0  0  0  0  0  0  0  0
    1.3973   -0.6604    0.0148 C   0  0  0  0  0  0  0  0  0  0  0  0
    2.7247   -1.1686    0.4409 C   0  0  0  0  0  0  0  0  0  0  0  0
    3.8922   -0.2582    0.4740 C   0  0  0  0  0  0  0  0  0  0  0  0
    5.1250   -1.0106    1.0459 C   0  0  0  0  0  0  0  0  0  0  0  0
    6.2508   -0.0156    1.1023 C   0  0  0  0  0  0  0  0  0  0  0  0
   -4.9666    0.7128    0.8344 C   0  0  0  0  0  0  0  0  0  0  0  0
   -3.9905    1.8930   -1.0320 C   0  0  0  0  0  0  0  0  0  0  0  0
   -1.3504   -0.7477    2.2996 C   0  0  0  0  0  0  0  0  0  0  0  0
    0.1884    0.8100   -3.2906 C   0  0  0  0  0  0  0  0  0  0  0  0
    4.3103   -0.0362   -0.9970 C   0  0  0  0  0  0  0  0  0  0  0  0
    5.9093    1.0735    1.9347 O   0  0  0  0  0  0  0  0  0  0  0  0
    7.4054   -0.5775    1.6578 O   0  0  0  0  0  0  0  0  0  0  0  0
   -5.6416    1.5314   -0.7546 H   0  0  0  0  0  0  0  0  0  0  0  0
   -5.7189    0.0736    0.2871 H   0  0  0  0  0  0  0  0  0  0  0  0
   -6.2557   -0.3271   -2.0562 H   0  0  0  0  0  0  0  0  0  0  0  0
   -4.5539    0.1015   -2.5589 H   0  0  0  0  0  0  0  0  0  0  0  0
   -5.6583   -2.2833   -1.0829 H   0  0  0  0  0  0  0  0  0  0  0  0
   -4.4750   -2.1685   -2.3962 H   0  0  0  0  0  0  0  0  0  0  0  0
   -2.9142   -2.4474   -0.7965 H   0  0  0  0  0  0  0  0  0  0  0  0
   -2.5296   -0.2539   -1.4606 H   0  0  0  0  0  0  0  0  0  0  0  0
   -1.9036   -0.7059    1.4840 H   0  0  0  0  0  0  0  0  0  0  0  0
   -1.1387   -1.5353    0.0965 H   0  0  0  0  0  0  0  0  0  0  0  0
   -0.3153    0.5234   -0.7928 H   0  0  0  0  0  0  0  0  0  0  0  0
   -1.0864    1.5475    0.4532 H   0  0  0  0  0  0  0  0  0  0  0  0
    0.2734    0.3601    2.1918 H   0  0  0  0  0  0  0  0  0  0  0  0
    0.6357   -1.7005    0.9464 H   0  0  0  0  0  0  0  0  0  0  0  0
    1.4216   -0.9215   -0.4118 H   0  0  0  0  0  0  0  0  0  0  0  0
    2.8500   -2.2327    1.1637 H   0  0  0  0  0  0  0  0  0  0  0  0
    2.3570   -1.2044    2.5124 H   0  0  0  0  0  0  0  0  0  0  0  0
    4.6154   -0.8311    1.8687 H   0  0  0  0  0  0  0  0  0  0  0  0
    3.7320    0.6862    1.7110 H   0  0  0  0  0  0  0  0  0  0  0  0
    3.7266    0.1635   -0.8929 H   0  0  0  0  0  0  0  0  0  0  0  0
    6.3190    0.2942    0.7281 H   0  0  0  0  0  0  0  0  0  0  0  0
    5.3131    1.7240    0.3935 H   0  0  0  0  0  0  0  0  0  0  0  0
    6.6286   -0.0751   -1.6672 H   0  0  0  0  0  0  0  0  0  0  0  0
   -4.6863    0.9437    1.8718 H   0  0  0  0  0  0  0  0  0  0  0  0
   -3.7958    2.3743    1.3714 H   0  0  0  0  0  0  0  0  0  0  0  0
   -2.8489    1.0077    1.9613 H   0  0  0  0  0  0  0  0  0  0  0  0
   -2.3507    1.6989   -1.5687 H   0  0  0  0  0  0  0  0  0  0  0  0
   -2.9405    2.8767   -0.2559 H   0  0  0  0  0  0  0  0  0  0  0  0
   -3.9840    2.3601   -1.5781 H   0  0  0  0  0  0  0  0  0  0  0  0
   -4.9812   -2.8629    0.7454 H   0  0  0  0  0  0  0  0  0  0  0  0
   -4.4082   -1.4194    1.6327 H   0  0  0  0  0  0  0  0  0  0  0  0
   -3.3308   -2.8219    1.3866 H   0  0  0  0  0  0  0  0  0  0  0  0
    2.1069    1.4907    0.0829 H   0  0  0  0  0  0  0  0  0  0  0  0
    0.7001    2.4658    0.4607 H   0  0  0  0  0  0  0  0  0  0  0  0
    1.8518    2.0392    1.7923 H   0  0  0  0  0  0  0  0  0  0  0  0
    5.1114   -1.4700   -1.6865 H   0  0  0  0  0  0  0  0  0  0  0  0
    5.9238   -1.7312   -0.1243 H   0  0  0  0  0  0  0  0  0  0  0  0
    4.2593   -2.3692   -0.3896 H   0  0  0  0  0  0  0  0  0  0  0  0
    4.9440    2.2599   -1.7914 H   0  0  0  0  0  0  0  0  0  0  0  0
    7.8918    1.5743   -0.3942 H   0  0  0  0  0  0  0  0  0  0  0  0
   -3.2507   -0.6614   -1.7749 H   0  0  0  0  0  0  0  0  0  0  0  0
   -4.9900   -0.4502   -1.4479 H   0  0  0  0  0  0  0  0  0  0  0  0
   -5.0889   -2.0970    0.1121 H   0  0  0  0  0  0  0  0  0  0  0  0
   -3.5769   -2.6102   -0.6563 H   0  0  0  0  0  0  0  0  0  0  0  0
   -3.8864   -1.3072    2.0711 H   0  0  0  0  0  0  0  0  0  0  0  0
   -2.8685   -2.6156    1.4839 H   0  0  0  0  0  0  0  0  0  0  0  0
   -1.5391   -1.2691    0.1622 H   0  0  0  0  0  0  0  0  0  0  0  0
   -2.7665    1.0839    1.6450 H   0  0  0  0  0  0  0  0  0  0  0  0
   -1.7707    2.6482    0.3712 H   0  0  0  0  0  0  0  0  0  0  0  0
   -0.6020    1.5035    0.9283 H   0  0  0  0  0  0  0  0  0  0  0  0
   -1.5521    1.8908   -1.9735 H   0  0  0  0  0  0  0  0  0  0  0  0
   -0.0799    2.3864   -1.1934 H   0  0  0  0  0  0  0  0  0  0  0  0
   -0.7369   -0.5654   -1.8963 H   0  0  0  0  0  0  0  0  0  0  0  0
    1.4824   -0.9292   -2.0556 H   0  0  0  0  0  0  0  0  0  0  0  0
    1.9806    0.7335   -1.4380 H   0  0  0  0  0  0  0  0  0  0  0  0
    0.7161   -1.5822    0.0816 H   0  0  0  0  0  0  0  0  0  0  0  0
    0.9591   -0.0152    0.8439 H   0  0  0  0  0  0  0  0  0  0  0  0
    2.9688   -2.1376   -0.0995 H   0  0  0  0  0  0  0  0  0  0  0  0
    2.5861   -1.5374    1.5071 H   0  0  0  0  0  0  0  0  0  0  0  0
    3.8134    0.6568    1.0404 H   0  0  0  0  0  0  0  0  0  0  0  0
    5.3724   -1.7804    0.3008 H   0  0  0  0  0  0  0  0  0  0  0  0
    4.8650   -1.4205    2.0208 H   0  0  0  0  0  0  0  0  0  0  0  0
    6.5370    0.3755    0.1267 H   0  0  0  0  0  0  0  0  0  0  0  0
   -4.5926    0.9505    1.8569 H   0  0  0  0  0  0  0  0  0  0  0  0
   -5.5588   -0.1988    0.8057 H   0  0  0  0  0  0  0  0  0  0  0  0
   -5.6843    1.5440    0.6140 H   0  0  0  0  0  0  0  0  0  0  0  0
   -5.0696    2.2641   -0.9933 H   0  0  0  0  0  0  0  0  0  0  0  0
   -3.4070    2.7841   -0.8210 H   0  0  0  0  0  0  0  0  0  0  0  0
   -3.8904    1.6468   -2.1314 H   0  0  0  0  0  0  0  0  0  0  0  0
   -0.6412   -1.6214    2.2527 H   0  0  0  0  0  0  0  0  0  0  0  0
   -0.7950    0.1834    2.4690 H   0  0  0  0  0  0  0  0  0  0  0  0
   -2.0433   -0.9064    3.1330 H   0  0  0  0  0  0  0  0  0  0  0  0
    0.4683   -0.1084   -3.8033 H   0  0  0  0  0  0  0  0  0  0  0  0
    0.9567    1.5776   -3.2083 H   0  0  0  0  0  0  0  0  0  0  0  0
   -0.7579    1.2690   -3.6176 H   0  0  0  0  0  0  0  0  0  0  0  0
    4.2798    1.0026   -1.2974 H   0  0  0  0  0  0  0  0  0  0  0  0
    5.3755   -0.3651   -1.1715 H   0  0  0  0  0  0  0  0  0  0  0  0
    3.7446   -0.6924   -1.6884 H   0  0  0  0  0  0  0  0  0  0  0  0
    5.5668    0.7776    2.7958 H   0  0  0  0  0  0  0  0  0  0  0  0
    7.4157   -0.4150    2.6278 H   0  0  0  0  0  0  0  0  0  0  0  0
  1  2  1  0
  2  3  1  0
  3  4  1  0
  4  5  1  0
  1  6  1  0
  5  6  1  0
  6  7  1  0
  7  8  1  0
  8  9  1  0
  9 10  1  0
 10 11  1  0
 11 12  1  0
 12 13  1  0
 13 14  1  0
 14 15  1  0
  1 16  1  0
  1 17  1  0
  5 18  1  0
  9 19  1  0
 13 20  1  0
 15 21  1  0
 15 22  1  0
 23 24  1  0
 24 25  1  0
 25 26  1  0
 26 27  1  0
 23 28  1  0
 27 28  1  0
 28 29  1  0
 29 30  1  0
 30 31  1  0
 31 32  1  0
 32 33  1  0
 33 34  1  0
 34 35  1  0
 35 36  1  0
 36 37  1  0
 23 38  1  0
 23 39  1  0
 27 40  1  0
 31 41  1  0
 35 42  1  0
 37 43  1  0
 37 44  1  0
  2 45  1  0
  2 46  1  0
  3 47  1  0
  3 48  1  0
  4 49  1  0
  4 50  1  0
  5 51  1  0
  6 52  1  0
  7 53  1  0
  7 54  1  0
  8 55  1  0
  8 56  1  0
  9 57  1  1
 10 58  1  0
 10 59  1  0
 11 60  1  0
 11 61  1  0
 12 62  1  0
 12 63  1  0
 13 64  1  0
 14 65  1  0
 14 66  1  0
 15 67  1  0
 16 68  1  0
 16 69  1  0
 16 70  1  0
 17 71  1  0
 17 72  1  0
 17 73  1  0
 18 74  1  0
 18 75  1  0
 18 76  1  0
 19 77  1  0
 19 78  1  0
 19 79  1  0
 20 80  1  0
 20 81  1  0
 20 82  1  0
 21 83  1  0
 22 84  1  0
 24 85  1  0
 24 86  1  0
 25 87  1  0
 25 88  1  0
 26 89  1  0
 26 90  1  0
 27 91  1  0
 28 92  1  0
 29 93  1  0
 29 94  1  0
 30 95  1  0
 30 96  1  0
 31 97  1  0
 32 98  1  0
 32 99  1  0
 33100  1  0
 33101  1  0
 34102  1  0
 34103  1  0
 35104  1  0
 36105  1  0
 36106  1  0
 37107  1  0
 38108  1  0
 38109  1  0
 38110  1  0
 39111  1  0
 39112  1  0
 39113  1  0
 40114  1  0
 40115  1  0
 40116  1  0
 41117  1  0
 41118  1  0
 41119  1  0
 42120  1  0
 42121  1  0
 42122  1  0
 43123  1  0
 44124  1  0
M  END
>  <PDBID>  (1) 
3FC6

>  <PDB ID>  (1) 
3FC6

>  <Generic Name>  (1) 
Tretinoin

>  <Brand Name>  (1) 
Atralin#Avita#Biacna Topical Gel#Clindamycin Phosphate and Tretinoin#Dr. Throwers Hydrotet#Dr. Throwers Pbc No. 1#Obagi#Refissa#Rejuva-A#Renova#Retin-A#Retin-A Micro#Retisol-A#Solagé#Stie Vaa Sol 0.05%#Stieva-A Cream#Stieva-A Gel#Stieva-A Solution#Stievaa Gel 0.01%#Stievamycin Forte#Stievamycin Mild#Stievamycin Regular#Tretin.x#Tretinoin#Tretinoin Cream#Tretinoin Gel#Tretinoin Gel Microsphere#Tretinx#Tri-luma#Veltin#Vesanoid#Vitamin A Acid 0.01% Cream#Vitamin A Acid 0.01% Gel#Vitamin A Acid 0.025% Cream#Vitamin A Acid 0.025% Gel#Vitamin A Acid 0.05% Cream#Vitamin A Acid 0.05% Gel#Vitamin A Acid 0.1% Cream#Vitinoin - Crm 0.025%#Vitinoin - Crm 0.05%#Vitinoin - Crm 0.1%#Vitinoin Gel - 0.025%#Ziana#Aberel#Aberela#Airol#Dermairol#Eudyna#Kétrel#Retisol-A#Sotret#Stieva-A#Vitinoin

>  <DrugBank ID>  (1) 
DB00755

>  <ATC Codes>  (1) 
L01XX14#D10AD01#D10AD51

>  <Ligand ID>  (1) 
3KV,REA

>  <Target Name>  (1) 
Retinoic acid receptor RXR-beta

>  <UniProt ID>  (1) 
P28702

>  <PDB ID.1>  (1) 
3FC6

>  <Seq. Identity>  (1) 
87%

$$$$
