PDB_DB01577_02
     RDKit          3D

 32 32  0  0  0  0  0  0  0  0999 V2000
   -3.1513    0.5603    0.4489 N   0  0  0  0  0  0  0  0  0  0  0  0
   -1.8454    0.0606    0.9927 C   0  0  1  0  0  0  0  0  0  0  0  0
   -1.8867   -1.4251    0.9790 C   0  0  0  0  0  0  0  0  0  0  0  0
   -0.8005    0.7473    0.2148 C   0  0  0  0  0  0  0  0  0  0  0  0
    0.6221    0.4866    0.5467 C   0  0  0  0  0  0  0  0  0  0  0  0
    1.5517    1.3139   -0.3466 C   0  0  0  0  0  0  0  0  0  0  0  0
    0.9994   -0.9480    0.4424 C   0  0  0  0  0  0  0  0  0  0  0  0
    2.2372    0.4625   -1.3935 C   0  0  0  0  0  0  0  0  0  0  0  0
    2.5450   -0.9883    0.6038 C   0  0  0  0  0  0  0  0  0  0  0  0
    3.1265   -0.5813   -0.7394 C   0  0  0  0  0  0  0  0  0  0  0  0
   -3.3013    0.1312   -0.9113 C   0  0  0  0  0  0  0  0  0  0  0  0
   -3.2135    1.5818    0.5936 H   0  0  0  0  0  0  0  0  0  0  0  0
   -1.8159    0.4196    2.0489 H   0  0  0  0  0  0  0  0  0  0  0  0
   -2.9827   -1.7536    0.9141 H   0  0  0  0  0  0  0  0  0  0  0  0
   -1.4066   -1.9106    0.1163 H   0  0  0  0  0  0  0  0  0  0  0  0
   -1.5780   -1.8851    1.9619 H   0  0  0  0  0  0  0  0  0  0  0  0
   -0.9272    1.8794    0.2944 H   0  0  0  0  0  0  0  0  0  0  0  0
   -0.9487    0.5535   -0.9016 H   0  0  0  0  0  0  0  0  0  0  0  0
    0.7947    0.8043    1.6138 H   0  0  0  0  0  0  0  0  0  0  0  0
    2.3489    1.7486    0.2902 H   0  0  0  0  0  0  0  0  0  0  0  0
    1.0054    2.1066   -0.8651 H   0  0  0  0  0  0  0  0  0  0  0  0
    0.5939   -1.5081    1.2969 H   0  0  0  0  0  0  0  0  0  0  0  0
    0.7475   -1.3821   -0.5497 H   0  0  0  0  0  0  0  0  0  0  0  0
    1.4895   -0.0062   -2.0363 H   0  0  0  0  0  0  0  0  0  0  0  0
    2.8825    1.1370   -1.9806 H   0  0  0  0  0  0  0  0  0  0  0  0
    2.8176   -2.0159    0.8406 H   0  0  0  0  0  0  0  0  0  0  0  0
    2.7694   -0.2478    1.3895 H   0  0  0  0  0  0  0  0  0  0  0  0
    4.1263   -0.1862   -0.5628 H   0  0  0  0  0  0  0  0  0  0  0  0
    3.1605   -1.4547   -1.4170 H   0  0  0  0  0  0  0  0  0  0  0  0
   -2.8971    0.8928   -1.6142 H   0  0  0  0  0  0  0  0  0  0  0  0
   -4.3567   -0.0219   -1.1603 H   0  0  0  0  0  0  0  0  0  0  0  0
   -2.7065   -0.7951   -1.1101 H   0  0  0  0  0  0  0  0  0  0  0  0
  1  2  1  0
  2  3  1  0
  2  4  1  0
  4  5  1  0
  5  6  1  0
  5  7  1  0
  6  8  1  0
  7  9  1  0
  8 10  1  0
  9 10  1  0
  1 11  1  0
  1 12  1  0
  2 13  1  1
  3 14  1  0
  3 15  1  0
  3 16  1  0
  4 17  1  0
  4 18  1  0
  5 19  1  0
  6 20  1  0
  6 21  1  0
  7 22  1  0
  7 23  1  0
  8 24  1  0
  8 25  1  0
  9 26  1  0
  9 27  1  0
 10 28  1  0
 10 29  1  0
 11 30  1  0
 11 31  1  0
 11 32  1  0
M  END
>  <PDBID>  (1) 
4XP6

>  <PDB ID>  (1) 
4XP6

>  <Generic Name>  (1) 
Methamphetamine

>  <Brand Name>  (1) 
Desoxyn#Methamphetamine Hydrochloride

>  <DrugBank ID>  (1) 
DB01577

>  <ATC Codes>  (1) 
N06BA03

>  <Ligand ID>  (1) 
B40

>  <Target Name>  (1) 
Sodium-dependent noradrenaline transporter

>  <UniProt ID>  (1) 
P23975

>  <PDB ID.1>  (1) 
4XP6

>  <Seq. Identity>  (1) 
59%

$$$$
