PDB_DB00255_07
     RDKit          3D

108110  0  0  0  0  0  0  0  0999 V2000
   -1.7374   -2.7172   -1.4543 C   0  0  0  0  0  0  0  0  0  0  0  0
   -1.0517   -2.4821   -0.2246 C   0  0  0  0  0  0  0  0  0  0  0  0
   -0.5254   -1.1451    0.2610 C   0  0  0  0  0  0  0  0  0  0  0  0
   -1.6900   -0.2391    0.4241 C   0  0  0  0  0  0  0  0  0  0  0  0
   -1.4538    1.1166    1.0385 C   0  0  0  0  0  0  0  0  0  0  0  0
   -2.8180    1.5194    1.7480 C   0  0  0  0  0  0  0  0  0  0  0  0
   -3.7993    1.6665    0.6347 C   0  0  0  0  0  0  0  0  0  0  0  0
   -5.0352    2.0348    1.1446 O   0  0  0  0  0  0  0  0  0  0  0  0
   -3.9488    0.4049   -0.1805 C   0  0  0  0  0  0  0  0  0  0  0  0
   -2.5485    0.0775   -0.7640 C   0  0  0  0  0  0  0  0  0  0  0  0
    0.6690   -0.6842   -0.4935 C   0  0  0  0  0  0  0  0  0  0  0  0
    1.3439    0.5738   -0.0160 C   0  0  0  0  0  0  0  0  0  0  0  0
    2.4762    1.0065   -0.9407 C   0  0  0  0  0  0  0  0  0  0  0  0
    3.8321    0.9247   -0.3620 C   0  0  0  0  0  0  0  0  0  0  0  0
    3.9631    1.7098    0.9372 C   0  0  0  0  0  0  0  0  0  0  0  0
    4.1811    3.0631    0.7043 O   0  0  0  0  0  0  0  0  0  0  0  0
    2.6890    1.5915    1.7571 C   0  0  0  0  0  0  0  0  0  0  0  0
    1.9557    0.3425    1.3714 C   0  0  0  0  0  0  0  0  0  0  0  0
    1.6882   -1.7072   -0.8962 C   0  0  0  0  0  0  0  0  0  0  0  0
    1.3122   -2.7771   -1.8616 C   0  0  0  0  0  0  0  0  0  0  0  0
   -1.7374   -2.7172   -1.4543 C   0  0  0  0  0  0  0  0  0  0  0  0
   -1.0517   -2.4821   -0.2246 C   0  0  0  0  0  0  0  0  0  0  0  0
   -0.5254   -1.1451    0.2610 C   0  0  0  0  0  0  0  0  0  0  0  0
   -1.6900   -0.2391    0.4241 C   0  0  0  0  0  0  0  0  0  0  0  0
   -1.4538    1.1166    1.0385 C   0  0  0  0  0  0  0  0  0  0  0  0
   -2.8180    1.5194    1.7480 C   0  0  0  0  0  0  0  0  0  0  0  0
   -3.7993    1.6665    0.6347 C   0  0  0  0  0  0  0  0  0  0  0  0
   -5.0352    2.0348    1.1446 O   0  0  0  0  0  0  0  0  0  0  0  0
   -3.9488    0.4049   -0.1805 C   0  0  0  0  0  0  0  0  0  0  0  0
   -2.5485    0.0775   -0.7640 C   0  0  0  0  0  0  0  0  0  0  0  0
    0.6690   -0.6842   -0.4935 C   0  0  0  0  0  0  0  0  0  0  0  0
    1.3439    0.5738   -0.0160 C   0  0  0  0  0  0  0  0  0  0  0  0
    2.4762    1.0065   -0.9407 C   0  0  0  0  0  0  0  0  0  0  0  0
    3.8321    0.9247   -0.3620 C   0  0  0  0  0  0  0  0  0  0  0  0
    3.9631    1.7098    0.9372 C   0  0  0  0  0  0  0  0  0  0  0  0
    4.1811    3.0631    0.7043 O   0  0  0  0  0  0  0  0  0  0  0  0
    2.6890    1.5915    1.7571 C   0  0  0  0  0  0  0  0  0  0  0  0
    1.9557    0.3425    1.3714 C   0  0  0  0  0  0  0  0  0  0  0  0
    1.6882   -1.7072   -0.8962 C   0  0  0  0  0  0  0  0  0  0  0  0
    1.3122   -2.7771   -1.8616 C   0  0  0  0  0  0  0  0  0  0  0  0
   -1.4528   -3.8094   -1.7665 H   0  0  0  0  0  0  0  0  0  0  0  0
   -1.4743   -2.1847   -2.3851 H   0  0  0  0  0  0  0  0  0  0  0  0
   -2.8626   -2.8703   -1.3613 H   0  0  0  0  0  0  0  0  0  0  0  0
   -1.9091   -2.6394    0.5908 H   0  0  0  0  0  0  0  0  0  0  0  0
   -0.3731   -3.2956    0.1892 H   0  0  0  0  0  0  0  0  0  0  0  0
   -0.1777   -1.3669    1.3002 H   0  0  0  0  0  0  0  0  0  0  0  0
   -2.3865   -0.7710    1.1568 H   0  0  0  0  0  0  0  0  0  0  0  0
   -0.7110    1.1855    1.8130 H   0  0  0  0  0  0  0  0  0  0  0  0
   -1.4399    1.8645    0.2272 H   0  0  0  0  0  0  0  0  0  0  0  0
   -3.0581    0.7734    2.5030 H   0  0  0  0  0  0  0  0  0  0  0  0
   -2.5886    2.5106    2.1675 H   0  0  0  0  0  0  0  0  0  0  0  0
   -3.4567    2.5068   -0.0081 H   0  0  0  0  0  0  0  0  0  0  0  0
   -5.5145    2.5129    0.3992 H   0  0  0  0  0  0  0  0  0  0  0  0
   -4.2812   -0.3920    0.4896 H   0  0  0  0  0  0  0  0  0  0  0  0
   -4.6255    0.6187   -1.0173 H   0  0  0  0  0  0  0  0  0  0  0  0
   -2.2780    1.1070   -1.1926 H   0  0  0  0  0  0  0  0  0  0  0  0
   -2.7119   -0.5976   -1.5421 H   0  0  0  0  0  0  0  0  0  0  0  0
    0.2332   -0.3501   -1.4998 H   0  0  0  0  0  0  0  0  0  0  0  0
    0.6800    1.3923    0.0423 H   0  0  0  0  0  0  0  0  0  0  0  0
    2.3930    0.5261   -1.9028 H   0  0  0  0  0  0  0  0  0  0  0  0
    2.3134    2.1216   -1.1974 H   0  0  0  0  0  0  0  0  0  0  0  0
    4.5124    1.4693   -1.0838 H   0  0  0  0  0  0  0  0  0  0  0  0
    4.2768   -0.0781   -0.2640 H   0  0  0  0  0  0  0  0  0  0  0  0
    4.8121    1.3081    1.5197 H   0  0  0  0  0  0  0  0  0  0  0  0
    4.9788    3.1071    0.0866 H   0  0  0  0  0  0  0  0  0  0  0  0
    2.0537    2.4633    1.5540 H   0  0  0  0  0  0  0  0  0  0  0  0
    2.9795    1.5210    2.8272 H   0  0  0  0  0  0  0  0  0  0  0  0
    1.2059    0.1060    2.1077 H   0  0  0  0  0  0  0  0  0  0  0  0
    2.6588   -0.5204    1.3472 H   0  0  0  0  0  0  0  0  0  0  0  0
    2.5510   -1.1943   -1.3562 H   0  0  0  0  0  0  0  0  0  0  0  0
    2.1638   -2.1738    0.0291 H   0  0  0  0  0  0  0  0  0  0  0  0
    0.7707   -2.3126   -2.7326 H   0  0  0  0  0  0  0  0  0  0  0  0
    0.9244   -3.7082   -1.5061 H   0  0  0  0  0  0  0  0  0  0  0  0
    2.2915   -3.1096   -2.4246 H   0  0  0  0  0  0  0  0  0  0  0  0
   -1.4528   -3.8094   -1.7665 H   0  0  0  0  0  0  0  0  0  0  0  0
   -1.4743   -2.1847   -2.3851 H   0  0  0  0  0  0  0  0  0  0  0  0
   -2.8626   -2.8703   -1.3613 H   0  0  0  0  0  0  0  0  0  0  0  0
   -1.9091   -2.6394    0.5908 H   0  0  0  0  0  0  0  0  0  0  0  0
   -0.3731   -3.2956    0.1892 H   0  0  0  0  0  0  0  0  0  0  0  0
   -0.1777   -1.3669    1.3002 H   0  0  0  0  0  0  0  0  0  0  0  0
   -2.3865   -0.7710    1.1568 H   0  0  0  0  0  0  0  0  0  0  0  0
   -0.7110    1.1855    1.8130 H   0  0  0  0  0  0  0  0  0  0  0  0
   -1.4399    1.8645    0.2272 H   0  0  0  0  0  0  0  0  0  0  0  0
   -3.0581    0.7734    2.5030 H   0  0  0  0  0  0  0  0  0  0  0  0
   -2.5886    2.5106    2.1675 H   0  0  0  0  0  0  0  0  0  0  0  0
   -3.4567    2.5068   -0.0081 H   0  0  0  0  0  0  0  0  0  0  0  0
   -5.5145    2.5129    0.3992 H   0  0  0  0  0  0  0  0  0  0  0  0
   -4.2812   -0.3920    0.4896 H   0  0  0  0  0  0  0  0  0  0  0  0
   -4.6255    0.6187   -1.0173 H   0  0  0  0  0  0  0  0  0  0  0  0
   -2.2780    1.1070   -1.1926 H   0  0  0  0  0  0  0  0  0  0  0  0
   -2.7119   -0.5976   -1.5421 H   0  0  0  0  0  0  0  0  0  0  0  0
    0.2332   -0.3501   -1.4998 H   0  0  0  0  0  0  0  0  0  0  0  0
    0.6800    1.3923    0.0423 H   0  0  0  0  0  0  0  0  0  0  0  0
    2.3930    0.5261   -1.9028 H   0  0  0  0  0  0  0  0  0  0  0  0
    2.3134    2.1216   -1.1974 H   0  0  0  0  0  0  0  0  0  0  0  0
    4.5124    1.4693   -1.0838 H   0  0  0  0  0  0  0  0  0  0  0  0
    4.2768   -0.0781   -0.2640 H   0  0  0  0  0  0  0  0  0  0  0  0
    4.8121    1.3081    1.5197 H   0  0  0  0  0  0  0  0  0  0  0  0
    4.9788    3.1071    0.0866 H   0  0  0  0  0  0  0  0  0  0  0  0
    2.0537    2.4633    1.5540 H   0  0  0  0  0  0  0  0  0  0  0  0
    2.9795    1.5210    2.8272 H   0  0  0  0  0  0  0  0  0  0  0  0
    1.2059    0.1060    2.1077 H   0  0  0  0  0  0  0  0  0  0  0  0
    2.6588   -0.5204    1.3472 H   0  0  0  0  0  0  0  0  0  0  0  0
    2.5510   -1.1943   -1.3562 H   0  0  0  0  0  0  0  0  0  0  0  0
    2.1638   -2.1738    0.0291 H   0  0  0  0  0  0  0  0  0  0  0  0
    0.7707   -2.3126   -2.7326 H   0  0  0  0  0  0  0  0  0  0  0  0
    0.9244   -3.7082   -1.5061 H   0  0  0  0  0  0  0  0  0  0  0  0
    2.2915   -3.1096   -2.4246 H   0  0  0  0  0  0  0  0  0  0  0  0
  1  2  1  0
  2  3  1  0
  3  4  1  0
  4  5  1  0
  5  6  1  0
  6  7  1  0
  7  8  1  0
  7  9  1  0
  4 10  1  0
  9 10  1  0
  3 11  1  0
 11 12  1  0
 12 13  1  0
 13 14  1  0
 14 15  1  0
 15 16  1  0
 15 17  1  0
 12 18  1  0
 17 18  1  0
 11 19  1  0
 19 20  1  0
 21 22  1  0
 22 23  1  0
 23 24  1  0
 24 25  1  0
 25 26  1  0
 26 27  1  0
 27 28  1  0
 27 29  1  0
 24 30  1  0
 29 30  1  0
 23 31  1  0
 31 32  1  0
 32 33  1  0
 33 34  1  0
 34 35  1  0
 35 36  1  0
 35 37  1  0
 32 38  1  0
 37 38  1  0
 31 39  1  0
 39 40  1  0
  1 41  1  0
  1 42  1  0
  1 43  1  0
  2 44  1  0
  2 45  1  0
  3 46  1  0
  4 47  1  0
  5 48  1  0
  5 49  1  0
  6 50  1  0
  6 51  1  0
  7 52  1  0
  8 53  1  0
  9 54  1  0
  9 55  1  0
 10 56  1  0
 10 57  1  0
 11 58  1  0
 12 59  1  0
 13 60  1  0
 13 61  1  0
 14 62  1  0
 14 63  1  0
 15 64  1  0
 16 65  1  0
 17 66  1  0
 17 67  1  0
 18 68  1  0
 18 69  1  0
 19 70  1  0
 19 71  1  0
 20 72  1  0
 20 73  1  0
 20 74  1  0
 21 75  1  0
 21 76  1  0
 21 77  1  0
 22 78  1  0
 22 79  1  0
 23 80  1  0
 24 81  1  0
 25 82  1  0
 25 83  1  0
 26 84  1  0
 26 85  1  0
 27 86  1  0
 28 87  1  0
 29 88  1  0
 29 89  1  0
 30 90  1  0
 30 91  1  0
 31 92  1  0
 32 93  1  0
 33 94  1  0
 33 95  1  0
 34 96  1  0
 34 97  1  0
 35 98  1  0
 36 99  1  0
 37100  1  0
 37101  1  0
 38102  1  0
 38103  1  0
 39104  1  0
 39105  1  0
 40106  1  0
 40107  1  0
 40108  1  0
M  END
>  <PDBID>  (1) 
4ZN7

>  <PDB ID>  (1) 
4ZN7

>  <Generic Name>  (1) 
Diethylstilbestrol

>  <Brand Name>  (1) 
Honvol Ampoules 250mg#Honvol Tablets 100mg#Stilbestrol 0.5mg Tablet#Stilbestrol 1.0mg Tablet#Stilbestrol Tab 1mg#Stilbestrol Tablets 0.1 mg#Stilbestrol Tablets 0.5 mg#Stilbestrol Tablets 1.0 mg#Stilboestrol Tab 0.1mg#Stilboestrol Tab 0.5mg#Distilbene#Stilbestrol#Stilbetin

>  <DrugBank ID>  (1) 
DB00255

>  <ATC Codes>  (1) 
L02AA01#G03CC05#L02AA04#G03CB02

>  <Ligand ID>  (1) 
DES

>  <Target Name>  (1) 
Estrogen receptor

>  <UniProt ID>  (1) 
P03372

>  <PDB ID.1>  (1) 
4ZN7

>  <Seq. Identity>  (1) 
93%

$$$$
