PDB_DB00843_06
     RDKit          3D

142148  0  0  0  0  0  0  0  0999 V2000
   -6.0452   -0.6539   -0.6276 C   0  0  0  0  0  0  0  0  0  0  0  0
   -5.5445    0.7682   -0.4960 C   0  0  0  0  0  0  0  0  0  0  0  0
   -4.4670    0.7849    0.5592 C   0  0  0  0  0  0  0  0  0  0  0  0
   -3.6187   -0.4322    0.6067 C   0  0  0  0  0  0  0  0  0  0  0  0
   -3.6090   -1.2783   -0.6137 C   0  0  0  0  0  0  0  0  0  0  0  0
   -4.9888   -1.5730   -1.1523 C   0  0  0  0  0  0  0  0  0  0  0  0
   -2.7357   -0.5756   -1.5960 C   0  0  0  0  0  0  0  0  0  0  0  0
   -1.7121    0.1629   -0.7164 C   0  0  1  0  0  0  0  0  0  0  0  0
   -2.1549    0.0265    0.7005 C   0  0  0  0  0  0  0  0  0  0  0  0
   -0.3623   -0.4144   -0.9194 C   0  0  0  0  0  0  0  0  0  0  0  0
    0.7656    0.1815   -0.2090 C   0  0  0  0  0  0  0  0  0  0  0  0
    0.8242    0.2276    1.2584 C   0  0  0  0  0  0  0  0  0  0  0  0
    2.1073    0.9167    1.6948 C   0  0  0  0  0  0  0  0  0  0  0  0
    3.3004    0.4352    1.0824 N   0  0  0  0  0  0  0  0  0  0  0  0
    3.1919    0.2605   -0.3212 C   0  0  0  0  0  0  0  0  0  0  0  0
    2.0068   -0.6656   -0.6344 C   0  0  0  0  0  0  0  0  0  0  0  0
    4.4789    1.0174    1.6016 C   0  0  0  0  0  0  0  0  0  0  0  0
    5.7923    0.6136    1.0578 C   0  0  0  0  0  0  0  0  0  0  0  0
    6.0924   -0.8733    1.1946 C   0  0  0  0  0  0  0  0  0  0  0  0
    7.5416   -1.1231    0.8455 C   0  0  0  0  0  0  0  0  0  0  0  0
    7.9699   -0.5374   -0.4559 C   0  0  0  0  0  0  0  0  0  0  0  0
    6.9210    0.2469   -1.1720 C   0  0  0  0  0  0  0  0  0  0  0  0
    6.2173    1.2084   -0.2366 C   0  0  0  0  0  0  0  0  0  0  0  0
   -2.0415   -1.4827   -2.4036 O   0  0  0  0  0  0  0  0  0  0  0  0
   -6.4346   -1.0795    0.6411 O   0  0  0  0  0  0  0  0  0  0  0  0
   -7.7839   -1.4289    0.6675 C   0  0  0  0  0  0  0  0  0  0  0  0
   -6.6097    1.5270   -0.0193 O   0  0  0  0  0  0  0  0  0  0  0  0
   -6.8865    2.5573   -0.9150 C   0  0  0  0  0  0  0  0  0  0  0  0
   -6.0452   -0.6539   -0.6276 C   0  0  0  0  0  0  0  0  0  0  0  0
   -5.5445    0.7682   -0.4960 C   0  0  0  0  0  0  0  0  0  0  0  0
   -4.4670    0.7849    0.5592 C   0  0  0  0  0  0  0  0  0  0  0  0
   -3.6187   -0.4322    0.6067 C   0  0  0  0  0  0  0  0  0  0  0  0
   -3.6090   -1.2783   -0.6137 C   0  0  0  0  0  0  0  0  0  0  0  0
   -4.9888   -1.5730   -1.1523 C   0  0  0  0  0  0  0  0  0  0  0  0
   -2.7357   -0.5756   -1.5960 C   0  0  0  0  0  0  0  0  0  0  0  0
   -1.7121    0.1629   -0.7164 C   0  0  1  0  0  0  0  0  0  0  0  0
   -2.1549    0.0265    0.7005 C   0  0  0  0  0  0  0  0  0  0  0  0
   -0.3623   -0.4144   -0.9194 C   0  0  0  0  0  0  0  0  0  0  0  0
    0.7656    0.1815   -0.2090 C   0  0  0  0  0  0  0  0  0  0  0  0
    0.8242    0.2276    1.2584 C   0  0  0  0  0  0  0  0  0  0  0  0
    2.1073    0.9167    1.6948 C   0  0  0  0  0  0  0  0  0  0  0  0
    3.3004    0.4352    1.0824 N   0  0  0  0  0  0  0  0  0  0  0  0
    3.1919    0.2605   -0.3212 C   0  0  0  0  0  0  0  0  0  0  0  0
    2.0068   -0.6656   -0.6344 C   0  0  0  0  0  0  0  0  0  0  0  0
    4.4789    1.0174    1.6016 C   0  0  0  0  0  0  0  0  0  0  0  0
    5.7923    0.6136    1.0578 C   0  0  0  0  0  0  0  0  0  0  0  0
    6.0924   -0.8733    1.1946 C   0  0  0  0  0  0  0  0  0  0  0  0
    7.5416   -1.1231    0.8455 C   0  0  0  0  0  0  0  0  0  0  0  0
    7.9699   -0.5374   -0.4559 C   0  0  0  0  0  0  0  0  0  0  0  0
    6.9210    0.2469   -1.1720 C   0  0  0  0  0  0  0  0  0  0  0  0
    6.2173    1.2084   -0.2366 C   0  0  0  0  0  0  0  0  0  0  0  0
   -2.0415   -1.4827   -2.4036 O   0  0  0  0  0  0  0  0  0  0  0  0
   -6.4346   -1.0795    0.6411 O   0  0  0  0  0  0  0  0  0  0  0  0
   -7.7839   -1.4289    0.6675 C   0  0  0  0  0  0  0  0  0  0  0  0
   -6.6097    1.5270   -0.0193 O   0  0  0  0  0  0  0  0  0  0  0  0
   -6.8865    2.5573   -0.9150 C   0  0  0  0  0  0  0  0  0  0  0  0
   -6.9004   -0.6874   -1.3434 H   0  0  0  0  0  0  0  0  0  0  0  0
   -5.2205    1.1931   -1.4482 H   0  0  0  0  0  0  0  0  0  0  0  0
   -4.9654    0.8946    1.5451 H   0  0  0  0  0  0  0  0  0  0  0  0
   -3.8796    1.7255    0.4029 H   0  0  0  0  0  0  0  0  0  0  0  0
   -3.7920   -1.0418    1.5191 H   0  0  0  0  0  0  0  0  0  0  0  0
   -3.1181   -2.2462   -0.3570 H   0  0  0  0  0  0  0  0  0  0  0  0
   -5.2771   -2.6084   -0.8797 H   0  0  0  0  0  0  0  0  0  0  0  0
   -4.9710   -1.5530   -2.2765 H   0  0  0  0  0  0  0  0  0  0  0  0
   -3.2550    0.1099   -2.2809 H   0  0  0  0  0  0  0  0  0  0  0  0
   -1.7334    1.2245   -1.0522 H   0  0  0  0  0  0  0  0  0  0  0  0
   -2.1424    1.0291    1.2061 H   0  0  0  0  0  0  0  0  0  0  0  0
   -1.5661   -0.7470    1.2318 H   0  0  0  0  0  0  0  0  0  0  0  0
   -0.1278   -0.3105   -2.0340 H   0  0  0  0  0  0  0  0  0  0  0  0
   -0.3597   -1.5372   -0.7984 H   0  0  0  0  0  0  0  0  0  0  0  0
    0.9683    1.2202   -0.5880 H   0  0  0  0  0  0  0  0  0  0  0  0
    0.7709   -0.7780    1.7481 H   0  0  0  0  0  0  0  0  0  0  0  0
    0.0255    0.8681    1.7072 H   0  0  0  0  0  0  0  0  0  0  0  0
    2.1735    0.8031    2.7962 H   0  0  0  0  0  0  0  0  0  0  0  0
    1.9639    2.0003    1.4922 H   0  0  0  0  0  0  0  0  0  0  0  0
    4.1157   -0.1767   -0.7485 H   0  0  0  0  0  0  0  0  0  0  0  0
    2.9314    1.2383   -0.7774 H   0  0  0  0  0  0  0  0  0  0  0  0
    1.9986   -1.5477    0.0368 H   0  0  0  0  0  0  0  0  0  0  0  0
    1.9686   -0.9007   -1.6957 H   0  0  0  0  0  0  0  0  0  0  0  0
    4.5055    0.8338    2.7194 H   0  0  0  0  0  0  0  0  0  0  0  0
    4.3323    2.1412    1.5477 H   0  0  0  0  0  0  0  0  0  0  0  0
    6.5487    1.0581    1.8261 H   0  0  0  0  0  0  0  0  0  0  0  0
    6.0175   -1.1322    2.2943 H   0  0  0  0  0  0  0  0  0  0  0  0
    5.3861   -1.5295    0.7003 H   0  0  0  0  0  0  0  0  0  0  0  0
    8.1633   -0.7889    1.7042 H   0  0  0  0  0  0  0  0  0  0  0  0
    7.6768   -2.2357    0.8127 H   0  0  0  0  0  0  0  0  0  0  0  0
    8.8801    0.0968   -0.3218 H   0  0  0  0  0  0  0  0  0  0  0  0
    8.3024   -1.3532   -1.1607 H   0  0  0  0  0  0  0  0  0  0  0  0
    7.4182    0.8891   -1.9568 H   0  0  0  0  0  0  0  0  0  0  0  0
    6.2691   -0.4237   -1.7239 H   0  0  0  0  0  0  0  0  0  0  0  0
    6.9935    2.0319   -0.0790 H   0  0  0  0  0  0  0  0  0  0  0  0
    5.4171    1.7454   -0.7908 H   0  0  0  0  0  0  0  0  0  0  0  0
   -2.3600   -2.3973   -2.3134 H   0  0  0  0  0  0  0  0  0  0  0  0
   -8.0229   -2.2451   -0.0295 H   0  0  0  0  0  0  0  0  0  0  0  0
   -8.4484   -0.5761    0.3928 H   0  0  0  0  0  0  0  0  0  0  0  0
   -8.0441   -1.7012    1.7104 H   0  0  0  0  0  0  0  0  0  0  0  0
   -5.9892    3.2249   -1.0386 H   0  0  0  0  0  0  0  0  0  0  0  0
   -7.7042    3.2072   -0.5685 H   0  0  0  0  0  0  0  0  0  0  0  0
   -7.1652    2.1657   -1.9214 H   0  0  0  0  0  0  0  0  0  0  0  0
   -6.9004   -0.6874   -1.3434 H   0  0  0  0  0  0  0  0  0  0  0  0
   -5.2205    1.1931   -1.4482 H   0  0  0  0  0  0  0  0  0  0  0  0
   -4.9654    0.8946    1.5451 H   0  0  0  0  0  0  0  0  0  0  0  0
   -3.8796    1.7255    0.4029 H   0  0  0  0  0  0  0  0  0  0  0  0
   -3.7920   -1.0418    1.5191 H   0  0  0  0  0  0  0  0  0  0  0  0
   -3.1181   -2.2462   -0.3570 H   0  0  0  0  0  0  0  0  0  0  0  0
   -5.2771   -2.6084   -0.8797 H   0  0  0  0  0  0  0  0  0  0  0  0
   -4.9710   -1.5530   -2.2765 H   0  0  0  0  0  0  0  0  0  0  0  0
   -3.2550    0.1099   -2.2809 H   0  0  0  0  0  0  0  0  0  0  0  0
   -1.7334    1.2245   -1.0522 H   0  0  0  0  0  0  0  0  0  0  0  0
   -2.1424    1.0291    1.2061 H   0  0  0  0  0  0  0  0  0  0  0  0
   -1.5661   -0.7470    1.2318 H   0  0  0  0  0  0  0  0  0  0  0  0
   -0.1278   -0.3105   -2.0340 H   0  0  0  0  0  0  0  0  0  0  0  0
   -0.3597   -1.5372   -0.7984 H   0  0  0  0  0  0  0  0  0  0  0  0
    0.9683    1.2202   -0.5880 H   0  0  0  0  0  0  0  0  0  0  0  0
    0.7709   -0.7780    1.7481 H   0  0  0  0  0  0  0  0  0  0  0  0
    0.0255    0.8681    1.7072 H   0  0  0  0  0  0  0  0  0  0  0  0
    2.1735    0.8031    2.7962 H   0  0  0  0  0  0  0  0  0  0  0  0
    1.9639    2.0003    1.4922 H   0  0  0  0  0  0  0  0  0  0  0  0
    4.1157   -0.1767   -0.7485 H   0  0  0  0  0  0  0  0  0  0  0  0
    2.9314    1.2383   -0.7774 H   0  0  0  0  0  0  0  0  0  0  0  0
    1.9986   -1.5477    0.0368 H   0  0  0  0  0  0  0  0  0  0  0  0
    1.9686   -0.9007   -1.6957 H   0  0  0  0  0  0  0  0  0  0  0  0
    4.5055    0.8338    2.7194 H   0  0  0  0  0  0  0  0  0  0  0  0
    4.3323    2.1412    1.5477 H   0  0  0  0  0  0  0  0  0  0  0  0
    6.5487    1.0581    1.8261 H   0  0  0  0  0  0  0  0  0  0  0  0
    6.0175   -1.1322    2.2943 H   0  0  0  0  0  0  0  0  0  0  0  0
    5.3861   -1.5295    0.7003 H   0  0  0  0  0  0  0  0  0  0  0  0
    8.1633   -0.7889    1.7042 H   0  0  0  0  0  0  0  0  0  0  0  0
    7.6768   -2.2357    0.8127 H   0  0  0  0  0  0  0  0  0  0  0  0
    8.8801    0.0968   -0.3218 H   0  0  0  0  0  0  0  0  0  0  0  0
    8.3024   -1.3532   -1.1607 H   0  0  0  0  0  0  0  0  0  0  0  0
    7.4182    0.8891   -1.9568 H   0  0  0  0  0  0  0  0  0  0  0  0
    6.2691   -0.4237   -1.7239 H   0  0  0  0  0  0  0  0  0  0  0  0
    6.9935    2.0319   -0.0790 H   0  0  0  0  0  0  0  0  0  0  0  0
    5.4171    1.7454   -0.7908 H   0  0  0  0  0  0  0  0  0  0  0  0
   -2.3600   -2.3973   -2.3134 H   0  0  0  0  0  0  0  0  0  0  0  0
   -8.0229   -2.2451   -0.0295 H   0  0  0  0  0  0  0  0  0  0  0  0
   -8.4484   -0.5761    0.3928 H   0  0  0  0  0  0  0  0  0  0  0  0
   -8.0441   -1.7012    1.7104 H   0  0  0  0  0  0  0  0  0  0  0  0
   -5.9892    3.2249   -1.0386 H   0  0  0  0  0  0  0  0  0  0  0  0
   -7.7042    3.2072   -0.5685 H   0  0  0  0  0  0  0  0  0  0  0  0
   -7.1652    2.1657   -1.9214 H   0  0  0  0  0  0  0  0  0  0  0  0
  1  2  1  0
  2  3  1  0
  3  4  1  0
  4  5  1  0
  1  6  1  0
  5  6  1  0
  5  7  1  0
  7  8  1  0
  4  9  1  0
  8  9  1  0
  8 10  1  0
 10 11  1  0
 11 12  1  0
 12 13  1  0
 13 14  1  0
 14 15  1  0
 11 16  1  0
 15 16  1  0
 14 17  1  0
 17 18  1  0
 18 19  1  0
 19 20  1  0
 20 21  1  0
 21 22  1  0
 18 23  1  0
 22 23  1  0
  7 24  1  0
  1 25  1  0
 25 26  1  0
  2 27  1  0
 27 28  1  0
 29 30  1  0
 30 31  1  0
 31 32  1  0
 32 33  1  0
 29 34  1  0
 33 34  1  0
 33 35  1  0
 35 36  1  0
 32 37  1  0
 36 37  1  0
 36 38  1  0
 38 39  1  0
 39 40  1  0
 40 41  1  0
 41 42  1  0
 42 43  1  0
 39 44  1  0
 43 44  1  0
 42 45  1  0
 45 46  1  0
 46 47  1  0
 47 48  1  0
 48 49  1  0
 49 50  1  0
 46 51  1  0
 50 51  1  0
 35 52  1  0
 29 53  1  0
 53 54  1  0
 30 55  1  0
 55 56  1  0
  1 57  1  0
  2 58  1  0
  3 59  1  0
  3 60  1  0
  4 61  1  0
  5 62  1  0
  6 63  1  0
  6 64  1  0
  7 65  1  0
  8 66  1  6
  9 67  1  0
  9 68  1  0
 10 69  1  0
 10 70  1  0
 11 71  1  0
 12 72  1  0
 12 73  1  0
 13 74  1  0
 13 75  1  0
 15 76  1  0
 15 77  1  0
 16 78  1  0
 16 79  1  0
 17 80  1  0
 17 81  1  0
 18 82  1  0
 19 83  1  0
 19 84  1  0
 20 85  1  0
 20 86  1  0
 21 87  1  0
 21 88  1  0
 22 89  1  0
 22 90  1  0
 23 91  1  0
 23 92  1  0
 24 93  1  0
 26 94  1  0
 26 95  1  0
 26 96  1  0
 28 97  1  0
 28 98  1  0
 28 99  1  0
 29100  1  0
 30101  1  0
 31102  1  0
 31103  1  0
 32104  1  0
 33105  1  0
 34106  1  0
 34107  1  0
 35108  1  0
 36109  1  6
 37110  1  0
 37111  1  0
 38112  1  0
 38113  1  0
 39114  1  0
 40115  1  0
 40116  1  0
 41117  1  0
 41118  1  0
 43119  1  0
 43120  1  0
 44121  1  0
 44122  1  0
 45123  1  0
 45124  1  0
 46125  1  0
 47126  1  0
 47127  1  0
 48128  1  0
 48129  1  0
 49130  1  0
 49131  1  0
 50132  1  0
 50133  1  0
 51134  1  0
 51135  1  0
 52136  1  0
 54137  1  0
 54138  1  0
 54139  1  0
 56140  1  0
 56141  1  0
 56142  1  0
M  END
>  <PDBID>  (1) 
4EY7

>  <PDB ID>  (1) 
4EY7

>  <Generic Name>  (1) 
Donepezil

>  <Brand Name>  (1) 
Accel-donepezil#Act Donepezil#Act Donepezil ODT#Ag-donepezil#Apo-donepezil#Aricept#Aricept ODT#Aricept Rdt#Auro-donepezil#Bio-donepezil#Dom-donepezil#Donepezil#Donepezil Hydrochloride#Donepezil Hydrochloride 10 mg#Donepezil Hydrochloride 10mg#Donepezil Hydrochloride 5 mg#Donepezil Hydrochloride ODT#Donepezil Hydrochloride Tablets#Donepezil Hydrochloride Tablets USP#Donepezil Hyrochloride 5mg#Ecl-donepezil#Ipg-donepezil#Jamp-donepezil#Jamp-donepezil Tablets#Mar-donepezil#Mint-donepezil#Mylan-donepezil#Namzaric#Nat-donepezil#PMS-donepezil#Priva-donepezil#Ran-donepezil#Riva-donepezil#Sandoz Donepezil#Sandoz Donepezil ODT#Septa Donepezil#Teva-donepezil#Van-donepezil#Alzepil#Davia#Depzil#Donecept#Donecil#Donep#Donepex#Donesyn#Dopezil#Eranz#Memac#Nomi-Nox#Pezale#Redumas#Zolpezil

>  <DrugBank ID>  (1) 
DB00843

>  <ATC Codes>  (1) 
N06DA02#N06DA52#N06DA53

>  <Ligand ID>  (1) 
E20

>  <Target Name>  (1) 
Acetylcholinesterase

>  <UniProt ID>  (1) 
P22303

>  <PDB ID.1>  (1) 
4EY7

>  <Seq. Identity>  (1) 
97%

$$$$
