PDB_DB00481_04
     RDKit          3D

166174  0  0  0  0  0  0  0  0999 V2000
   -1.9337    2.1461    0.6510 C   0  0  0  0  0  0  0  0  0  0  0  0
   -2.9727    3.1674    1.0102 C   0  0  0  0  0  0  0  0  0  0  0  0
   -3.4149    4.0530   -0.0988 C   0  0  0  0  0  0  0  0  0  0  0  0
   -3.1055    5.3979    0.0936 O   0  0  0  0  0  0  0  0  0  0  0  0
   -2.8895    3.6139   -1.4514 C   0  0  0  0  0  0  0  0  0  0  0  0
   -3.1307    2.1430   -1.5483 C   0  0  0  0  0  0  0  0  0  0  0  0
   -4.6360    1.6547   -0.6057 S   0  0  0  0  0  0  0  0  0  0  0  0
   -4.0533   -0.0601   -0.2037 C   0  0  1  0  0  0  0  0  0  0  0  0
   -4.8844   -0.9249   -1.1314 C   0  0  0  0  0  0  0  0  0  0  0  0
   -6.3483   -0.5371   -0.8001 C   0  0  0  0  0  0  0  0  0  0  0  0
   -6.8724   -1.3812    0.3243 C   0  0  0  0  0  0  0  0  0  0  0  0
   -7.0569   -2.8257   -0.0712 C   0  0  0  0  0  0  0  0  0  0  0  0
   -6.5912   -3.6406    0.9719 O   0  0  0  0  0  0  0  0  0  0  0  0
   -6.1357   -3.0811   -1.2626 C   0  0  0  0  0  0  0  0  0  0  0  0
   -4.7984   -2.3937   -0.8856 C   0  0  0  0  0  0  0  0  0  0  0  0
   -2.1255    1.4340   -0.6338 C   0  0  0  0  0  0  0  0  0  0  0  0
   -2.6040    0.0262   -0.5539 C   0  0  0  0  0  0  0  0  0  0  0  0
   -1.6967   -0.8306    0.2911 C   0  0  0  0  0  0  0  0  0  0  0  0
   -2.0404   -2.1564    0.1570 O   0  0  0  0  0  0  0  0  0  0  0  0
   -0.2523   -0.6530    0.0147 C   0  0  0  0  0  0  0  0  0  0  0  0
    0.4999   -1.5963    0.9657 C   0  0  0  0  0  0  0  0  0  0  0  0
    1.7991   -2.0680    0.3520 C   0  0  0  0  0  0  0  0  0  0  0  0
    2.3792   -0.8883   -0.4244 C   0  0  0  0  0  0  0  0  0  0  0  0
    1.5899   -0.7251   -1.6673 C   0  0  0  0  0  0  0  0  0  0  0  0
    0.1238   -1.0769   -1.3668 C   0  0  0  0  0  0  0  0  0  0  0  0
    3.7370   -0.9895   -0.5760 O   0  0  0  0  0  0  0  0  0  0  0  0
    4.4837   -0.0366    0.0530 C   0  0  0  0  0  0  0  0  0  0  0  0
    5.9574   -0.2221   -0.1634 C   0  0  0  0  0  0  0  0  0  0  0  0
    6.7573    0.7763    0.4994 N   0  0  0  0  0  0  0  0  0  0  0  0
    6.7144    0.6609    1.9400 C   0  0  0  0  0  0  0  0  0  0  0  0
    7.9506    1.2611    2.5445 C   0  0  0  0  0  0  0  0  0  0  0  0
    9.2009    0.4906    2.1974 C   0  0  0  0  0  0  0  0  0  0  0  0
    9.0125   -0.0873    0.8121 C   0  0  0  0  0  0  0  0  0  0  0  0
    8.1045    0.8313    0.0039 C   0  0  0  0  0  0  0  0  0  0  0  0
   -2.9534    2.4117    1.0474 C   0  0  0  0  0  0  0  0  0  0  0  0
   -4.0269    3.4392    1.0404 C   0  0  0  0  0  0  0  0  0  0  0  0
   -4.2416    4.1993   -0.2066 C   0  0  0  0  0  0  0  0  0  0  0  0
   -3.7136    5.5077   -0.1229 O   0  0  0  0  0  0  0  0  0  0  0  0
   -3.7298    3.5834   -1.4478 C   0  0  0  0  0  0  0  0  0  0  0  0
   -3.6052    2.1235   -1.3517 C   0  0  0  0  0  0  0  0  0  0  0  0
   -5.0029    1.2875   -0.5176 S   0  0  0  0  0  0  0  0  0  0  0  0
   -4.0093   -0.0873    0.2141 C   0  0  1  0  0  0  0  0  0  0  0  0
   -4.5604   -1.3118   -0.5065 C   0  0  0  0  0  0  0  0  0  0  0  0
   -6.0544   -1.3318   -0.1503 C   0  0  0  0  0  0  0  0  0  0  0  0
   -6.2366   -2.2354    1.0649 C   0  0  0  0  0  0  0  0  0  0  0  0
   -6.0757   -3.6845    0.6513 C   0  0  0  0  0  0  0  0  0  0  0  0
   -5.7852   -4.5030    1.7410 O   0  0  0  0  0  0  0  0  0  0  0  0
   -4.9327   -3.7791   -0.3089 C   0  0  0  0  0  0  0  0  0  0  0  0
   -4.0003   -2.6060   -0.0450 C   0  0  0  0  0  0  0  0  0  0  0  0
   -2.5662    1.8016   -0.2451 C   0  0  0  0  0  0  0  0  0  0  0  0
   -2.6196    0.2909   -0.2756 C   0  0  1  0  0  0  0  0  0  0  0  0
   -1.5347   -0.2737    0.5624 C   0  0  2  0  0  0  0  0  0  0  0  0
   -1.5461    0.1516    1.8984 O   0  0  0  0  0  0  0  0  0  0  0  0
   -0.1453   -0.2122    0.0601 C   0  0  0  0  0  0  0  0  0  0  0  0
    0.0933   -0.9219   -1.2580 C   0  0  0  0  0  0  0  0  0  0  0  0
    1.5604   -0.8179   -1.5701 C   0  0  0  0  0  0  0  0  0  0  0  0
    2.4242   -0.4984   -0.3791 C   0  0  0  0  0  0  0  0  0  0  0  0
    2.0425    0.8063    0.2931 C   0  0  0  0  0  0  0  0  0  0  0  0
    0.5438    1.0972    0.0285 C   0  0  0  0  0  0  0  0  0  0  0  0
    3.7293   -0.3734   -0.8213 O   0  0  0  0  0  0  0  0  0  0  0  0
    4.5138   -1.3473   -0.2562 C   0  0  0  0  0  0  0  0  0  0  0  0
    5.9494   -1.2875   -0.6798 C   0  0  0  0  0  0  0  0  0  0  0  0
    6.5129   -0.0035   -0.2993 N   0  0  0  0  0  0  0  0  0  0  0  0
    6.6289    0.1442    1.1199 C   0  0  0  0  0  0  0  0  0  0  0  0
    7.8029    1.0466    1.4600 C   0  0  0  0  0  0  0  0  0  0  0  0
    9.0553    0.2771    1.1404 C   0  0  0  0  0  0  0  0  0  0  0  0
    8.9636   -0.2462   -0.2678 C   0  0  0  0  0  0  0  0  0  0  0  0
    7.7480    0.2764   -0.9833 C   0  0  0  0  0  0  0  0  0  0  0  0
   -1.7891    1.5115    1.5461 H   0  0  0  0  0  0  0  0  0  0  0  0
   -0.9640    2.7235    0.5604 H   0  0  0  0  0  0  0  0  0  0  0  0
   -2.4892    3.8400    1.7817 H   0  0  0  0  0  0  0  0  0  0  0  0
   -3.8471    2.7364    1.5568 H   0  0  0  0  0  0  0  0  0  0  0  0
   -4.5383    4.0178   -0.1919 H   0  0  0  0  0  0  0  0  0  0  0  0
   -3.5848    5.8142    0.8347 H   0  0  0  0  0  0  0  0  0  0  0  0
   -3.4758    4.1625   -2.2191 H   0  0  0  0  0  0  0  0  0  0  0  0
   -1.8255    3.8842   -1.4857 H   0  0  0  0  0  0  0  0  0  0  0  0
   -3.1062    1.7112   -2.5442 H   0  0  0  0  0  0  0  0  0  0  0  0
   -4.2203   -0.2844    0.8518 H   0  0  0  0  0  0  0  0  0  0  0  0
   -4.7022   -0.6461   -2.1656 H   0  0  0  0  0  0  0  0  0  0  0  0
   -6.9828   -0.6432   -1.6968 H   0  0  0  0  0  0  0  0  0  0  0  0
   -6.4043    0.5257   -0.4846 H   0  0  0  0  0  0  0  0  0  0  0  0
   -6.2492   -1.3091    1.2188 H   0  0  0  0  0  0  0  0  0  0  0  0
   -7.8742   -0.9798    0.5810 H   0  0  0  0  0  0  0  0  0  0  0  0
   -8.0911   -3.1083   -0.2659 H   0  0  0  0  0  0  0  0  0  0  0  0
   -6.0595   -4.4006    0.6281 H   0  0  0  0  0  0  0  0  0  0  0  0
   -6.5303   -2.6915   -2.1998 H   0  0  0  0  0  0  0  0  0  0  0  0
   -5.9169   -4.1448   -1.3800 H   0  0  0  0  0  0  0  0  0  0  0  0
   -4.6625   -2.6751    0.1698 H   0  0  0  0  0  0  0  0  0  0  0  0
   -4.0387   -2.9233   -1.4870 H   0  0  0  0  0  0  0  0  0  0  0  0
   -1.1893    1.4094   -1.2588 H   0  0  0  0  0  0  0  0  0  0  0  0
   -2.5225   -0.3890   -1.6054 H   0  0  0  0  0  0  0  0  0  0  0  0
   -1.8643   -0.4933    1.3590 H   0  0  0  0  0  0  0  0  0  0  0  0
   -1.8161   -2.5033   -0.7306 H   0  0  0  0  0  0  0  0  0  0  0  0
    0.0859    0.3884    0.1750 H   0  0  0  0  0  0  0  0  0  0  0  0
    0.7029   -1.0132    1.9119 H   0  0  0  0  0  0  0  0  0  0  0  0
   -0.1315   -2.4553    1.1953 H   0  0  0  0  0  0  0  0  0  0  0  0
    2.4960   -2.3982    1.1493 H   0  0  0  0  0  0  0  0  0  0  0  0
    1.5866   -2.9362   -0.2999 H   0  0  0  0  0  0  0  0  0  0  0  0
    2.2030    0.0149    0.2196 H   0  0  0  0  0  0  0  0  0  0  0  0
    1.5747    0.3390   -1.9927 H   0  0  0  0  0  0  0  0  0  0  0  0
    1.8825   -1.4084   -2.4925 H   0  0  0  0  0  0  0  0  0  0  0  0
    0.0590   -2.2018   -1.4156 H   0  0  0  0  0  0  0  0  0  0  0  0
   -0.5523   -0.7180   -2.1416 H   0  0  0  0  0  0  0  0  0  0  0  0
    4.1551    1.0144   -0.1837 H   0  0  0  0  0  0  0  0  0  0  0  0
    4.2914   -0.1463    1.1478 H   0  0  0  0  0  0  0  0  0  0  0  0
    6.2395   -0.2422   -1.2338 H   0  0  0  0  0  0  0  0  0  0  0  0
    6.2301   -1.2121    0.2549 H   0  0  0  0  0  0  0  0  0  0  0  0
    6.7298   -0.4294    2.2181 H   0  0  0  0  0  0  0  0  0  0  0  0
    5.8418    1.1814    2.3664 H   0  0  0  0  0  0  0  0  0  0  0  0
    7.8708    1.2372    3.6676 H   0  0  0  0  0  0  0  0  0  0  0  0
    8.0772    2.3179    2.2824 H   0  0  0  0  0  0  0  0  0  0  0  0
   10.0339    1.2084    2.1485 H   0  0  0  0  0  0  0  0  0  0  0  0
    9.4449   -0.2847    2.9480 H   0  0  0  0  0  0  0  0  0  0  0  0
    9.9689   -0.1572    0.2512 H   0  0  0  0  0  0  0  0  0  0  0  0
    8.6046   -1.0977    0.9009 H   0  0  0  0  0  0  0  0  0  0  0  0
    8.4603    1.8732    0.1012 H   0  0  0  0  0  0  0  0  0  0  0  0
    8.1219    0.4994   -1.0566 H   0  0  0  0  0  0  0  0  0  0  0  0
   -3.2826    1.6196    1.7494 H   0  0  0  0  0  0  0  0  0  0  0  0
   -2.0125    2.8198    1.5231 H   0  0  0  0  0  0  0  0  0  0  0  0
   -3.7605    4.1924    1.8439 H   0  0  0  0  0  0  0  0  0  0  0  0
   -4.9993    3.0097    1.4298 H   0  0  0  0  0  0  0  0  0  0  0  0
   -5.3519    4.3681   -0.3285 H   0  0  0  0  0  0  0  0  0  0  0  0
   -4.3266    6.1038    0.3717 H   0  0  0  0  0  0  0  0  0  0  0  0
   -4.4152    3.8269   -2.3015 H   0  0  0  0  0  0  0  0  0  0  0  0
   -2.7422    4.0296   -1.6879 H   0  0  0  0  0  0  0  0  0  0  0  0
   -3.3028    1.5984   -2.2578 H   0  0  0  0  0  0  0  0  0  0  0  0
   -4.1145   -0.1494    1.2901 H   0  0  0  0  0  0  0  0  0  0  0  0
   -4.4725   -1.1502   -1.5850 H   0  0  0  0  0  0  0  0  0  0  0  0
   -6.6673   -1.7035   -0.9902 H   0  0  0  0  0  0  0  0  0  0  0  0
   -6.4173   -0.3404    0.1202 H   0  0  0  0  0  0  0  0  0  0  0  0
   -5.4879   -1.9898    1.8233 H   0  0  0  0  0  0  0  0  0  0  0  0
   -7.2366   -2.1084    1.4806 H   0  0  0  0  0  0  0  0  0  0  0  0
   -7.0007   -4.0888    0.1940 H   0  0  0  0  0  0  0  0  0  0  0  0
   -5.7122   -5.4242    1.3839 H   0  0  0  0  0  0  0  0  0  0  0  0
   -5.2514   -3.7934   -1.3706 H   0  0  0  0  0  0  0  0  0  0  0  0
   -4.3254   -4.6951   -0.1564 H   0  0  0  0  0  0  0  0  0  0  0  0
   -3.7341   -2.6592    1.0063 H   0  0  0  0  0  0  0  0  0  0  0  0
   -3.0846   -2.8325   -0.6511 H   0  0  0  0  0  0  0  0  0  0  0  0
   -1.6143    2.1424   -0.6322 H   0  0  0  0  0  0  0  0  0  0  0  0
   -2.5254   -0.0501   -1.3165 H   0  0  0  0  0  0  0  0  0  0  0  0
   -1.7179   -1.4167    0.7044 H   0  0  0  0  0  0  0  0  0  0  0  0
   -0.7748    0.6936    2.1399 H   0  0  0  0  0  0  0  0  0  0  0  0
    0.4572   -0.8522    0.8039 H   0  0  0  0  0  0  0  0  0  0  0  0
   -0.2535   -1.9695   -1.1585 H   0  0  0  0  0  0  0  0  0  0  0  0
   -0.5105   -0.4011   -2.0367 H   0  0  0  0  0  0  0  0  0  0  0  0
    1.9007   -1.8219   -1.9340 H   0  0  0  0  0  0  0  0  0  0  0  0
    1.7872   -0.0836   -2.3748 H   0  0  0  0  0  0  0  0  0  0  0  0
    2.3683   -1.3514    0.3095 H   0  0  0  0  0  0  0  0  0  0  0  0
    2.2439    0.6877    1.3724 H   0  0  0  0  0  0  0  0  0  0  0  0
    2.6780    1.6120   -0.0960 H   0  0  0  0  0  0  0  0  0  0  0  0
    0.5653    1.5187   -1.0097 H   0  0  0  0  0  0  0  0  0  0  0  0
    0.2670    1.8282    0.7859 H   0  0  0  0  0  0  0  0  0  0  0  0
    4.5102   -1.2494    0.8683 H   0  0  0  0  0  0  0  0  0  0  0  0
    4.1179   -2.3559   -0.5327 H   0  0  0  0  0  0  0  0  0  0  0  0
    6.1316   -1.5351   -1.7291 H   0  0  0  0  0  0  0  0  0  0  0  0
    6.5224   -2.0492   -0.0789 H   0  0  0  0  0  0  0  0  0  0  0  0
    6.8019   -0.8065    1.6523 H   0  0  0  0  0  0  0  0  0  0  0  0
    5.7070    0.6135    1.5225 H   0  0  0  0  0  0  0  0  0  0  0  0
    7.7552    1.2180    2.5555 H   0  0  0  0  0  0  0  0  0  0  0  0
    7.7502    1.9977    0.8903 H   0  0  0  0  0  0  0  0  0  0  0  0
    9.9755    0.8878    1.2414 H   0  0  0  0  0  0  0  0  0  0  0  0
    9.0826   -0.6095    1.8141 H   0  0  0  0  0  0  0  0  0  0  0  0
    9.8516    0.0613   -0.8601 H   0  0  0  0  0  0  0  0  0  0  0  0
    8.8974   -1.3704   -0.2997 H   0  0  0  0  0  0  0  0  0  0  0  0
    7.6969   -0.2513   -1.9766 H   0  0  0  0  0  0  0  0  0  0  0  0
    7.7984    1.3556   -1.2102 H   0  0  0  0  0  0  0  0  0  0  0  0
  1  2  1  0
  2  3  1  0
  3  4  1  0
  3  5  1  0
  5  6  1  0
  6  7  1  0
  7  8  1  0
  8  9  1  0
  9 10  1  0
 10 11  1  0
 11 12  1  0
 12 13  1  0
 12 14  1  0
  9 15  1  0
 14 15  1  0
  1 16  1  0
  6 16  1  0
  8 17  1  0
 16 17  1  0
 17 18  1  0
 18 19  1  0
 18 20  1  0
 20 21  1  0
 21 22  1  0
 22 23  1  0
 23 24  1  0
 20 25  1  0
 24 25  1  0
 23 26  1  0
 26 27  1  0
 27 28  1  0
 28 29  1  0
 29 30  1  0
 30 31  1  0
 31 32  1  0
 32 33  1  0
 29 34  1  0
 33 34  1  0
 35 36  1  0
 36 37  1  0
 37 38  1  0
 37 39  1  0
 39 40  1  0
 40 41  1  0
 41 42  1  0
 42 43  1  0
 43 44  1  0
 44 45  1  0
 45 46  1  0
 46 47  1  0
 46 48  1  0
 43 49  1  0
 48 49  1  0
 35 50  1  0
 40 50  1  0
 42 51  1  0
 50 51  1  0
 51 52  1  0
 52 53  1  0
 52 54  1  0
 54 55  1  0
 55 56  1  0
 56 57  1  0
 57 58  1  0
 54 59  1  0
 58 59  1  0
 57 60  1  0
 60 61  1  0
 61 62  1  0
 62 63  1  0
 63 64  1  0
 64 65  1  0
 65 66  1  0
 66 67  1  0
 63 68  1  0
 67 68  1  0
  1 69  1  0
  1 70  1  0
  2 71  1  0
  2 72  1  0
  3 73  1  0
  4 74  1  0
  5 75  1  0
  5 76  1  0
  6 77  1  0
  8 78  1  1
  9 79  1  0
 10 80  1  0
 10 81  1  0
 11 82  1  0
 11 83  1  0
 12 84  1  0
 13 85  1  0
 14 86  1  0
 14 87  1  0
 15 88  1  0
 15 89  1  0
 16 90  1  0
 17 91  1  0
 18 92  1  0
 19 93  1  0
 20 94  1  0
 21 95  1  0
 21 96  1  0
 22 97  1  0
 22 98  1  0
 23 99  1  0
 24100  1  0
 24101  1  0
 25102  1  0
 25103  1  0
 27104  1  0
 27105  1  0
 28106  1  0
 28107  1  0
 30108  1  0
 30109  1  0
 31110  1  0
 31111  1  0
 32112  1  0
 32113  1  0
 33114  1  0
 33115  1  0
 34116  1  0
 34117  1  0
 35118  1  0
 35119  1  0
 36120  1  0
 36121  1  0
 37122  1  0
 38123  1  0
 39124  1  0
 39125  1  0
 40126  1  0
 42127  1  1
 43128  1  0
 44129  1  0
 44130  1  0
 45131  1  0
 45132  1  0
 46133  1  0
 47134  1  0
 48135  1  0
 48136  1  0
 49137  1  0
 49138  1  0
 50139  1  0
 51140  1  6
 52141  1  1
 53142  1  0
 54143  1  0
 55144  1  0
 55145  1  0
 56146  1  0
 56147  1  0
 57148  1  0
 58149  1  0
 58150  1  0
 59151  1  0
 59152  1  0
 61153  1  0
 61154  1  0
 62155  1  0
 62156  1  0
 64157  1  0
 64158  1  0
 65159  1  0
 65160  1  0
 66161  1  0
 66162  1  0
 67163  1  0
 67164  1  0
 68165  1  0
 68166  1  0
M  END
>  <PDBID>  (1) 
2QXS

>  <PDB ID>  (1) 
2QXS

>  <Generic Name>  (1) 
Raloxifene

>  <Brand Name>  (1) 
Act Raloxifene#Apo-raloxifene#Evista#Evista (60mg)#PMS-raloxifene#Raloxifene#Raloxifene Hydrochloride#Teva-raloxifene#Keoxifene

>  <DrugBank ID>  (1) 
DB00481

>  <ATC Codes>  (1) 
G03XC01

>  <Ligand ID>  (1) 
RAL

>  <Target Name>  (1) 
Estrogen receptor

>  <UniProt ID>  (1) 
P03372

>  <PDB ID.1>  (1) 
2QXS

>  <Seq. Identity>  (1) 
93%

$$$$
