PDB_DB09330_03
     RDKit          3D

 94 97  0  0  0  0  0  0  0  0999 V2000
    8.4931    0.7932    1.5583 C   0  0  0  0  0  0  0  0  0  0  0  0
    7.8480   -0.4915    1.4209 N   0  0  0  0  0  0  0  0  0  0  0  0
    8.6564   -1.5568    1.9831 C   0  0  0  0  0  0  0  0  0  0  0  0
    6.6038   -0.4782    2.1327 C   0  0  0  0  0  0  0  0  0  0  0  0
    5.5872    0.3870    1.4828 C   0  0  0  0  0  0  0  0  0  0  0  0
    5.1665    0.0132    0.1640 N   0  0  0  0  0  0  0  0  0  0  0  0
    6.1426    0.2333   -0.7867 C   0  0  0  0  0  0  0  0  0  0  0  0
    3.1166   -0.7886    0.9852 C   0  0  0  0  0  0  0  0  0  0  0  0
    1.6753   -0.2690    1.2707 C   0  0  0  0  0  0  0  0  0  0  0  0
    1.7231    0.8377    2.0407 O   0  0  0  0  0  0  0  0  0  0  0  0
    1.5096    0.7721    3.3730 C   0  0  0  0  0  0  0  0  0  0  0  0
    3.8042    0.1572    0.0126 C   0  0  0  0  0  0  0  0  0  0  0  0
    3.1201   -0.1396   -1.3040 C   0  0  2  0  0  0  0  0  0  0  0  0
    3.6613    0.5767   -2.4306 N   0  0  0  0  0  0  0  0  0  0  0  0
    3.6480   -0.0697   -3.6899 C   0  0  0  0  0  0  0  0  0  0  0  0
    4.5051   -1.1910   -3.7334 O   0  0  0  0  0  0  0  0  0  0  0  0
    2.3053   -0.4022   -4.2656 C   0  0  0  0  0  0  0  0  0  0  0  0
    2.5912   -1.0629   -5.6285 C   0  0  0  0  0  0  0  0  0  0  0  0
    1.7224    0.4079   -1.1273 C   0  0  0  0  0  0  0  0  0  0  0  0
    0.9265   -0.2537    0.0008 C   0  0  0  0  0  0  0  0  0  0  0  0
   -0.3455    0.3756   -0.0728 N   0  0  0  0  0  0  0  0  0  0  0  0
   -1.4152   -0.0672    0.7254 C   0  0  0  0  0  0  0  0  0  0  0  0
   -2.6594    0.3384    0.0053 N   0  0  0  0  0  0  0  0  0  0  0  0
   -1.4208    0.8305    1.9062 N   0  0  0  0  0  0  0  0  0  0  0  0
   -2.5171    0.6166    2.7829 C   0  0  0  0  0  0  0  0  0  0  0  0
   -3.7911    0.9684    1.9805 C   0  0  0  0  0  0  0  0  0  0  0  0
   -3.8060    0.0042    0.8646 C   0  0  0  0  0  0  0  0  0  0  0  0
   -4.9708   -0.2297    0.0651 C   0  0  0  0  0  0  0  0  0  0  0  0
   -6.2711   -0.5499    0.7713 C   0  0  0  0  0  0  0  0  0  0  0  0
   -6.9193    0.6394    1.4114 C   0  0  0  0  0  0  0  0  0  0  0  0
   -8.3435    0.8783    0.9624 C   0  0  0  0  0  0  0  0  0  0  0  0
   -9.0384   -0.4584    0.9256 C   0  0  0  0  0  0  0  0  0  0  0  0
   -8.4677   -1.2021   -0.2627 C   0  0  0  0  0  0  0  0  0  0  0  0
   -7.0538   -0.8902   -0.5002 C   0  0  0  0  0  0  0  0  0  0  0  0
   -6.7534    0.2225   -1.3457 N   0  0  0  0  0  0  0  0  0  0  0  0
   -6.7538   -0.1334   -2.7546 C   0  0  0  0  0  0  0  0  0  0  0  0
   -5.4443    0.7608   -0.9323 C   0  0  0  0  0  0  0  0  0  0  0  0
    9.4562    0.6214    2.1289 H   0  0  0  0  0  0  0  0  0  0  0  0
    7.8977    1.5068    2.1657 H   0  0  0  0  0  0  0  0  0  0  0  0
    8.8217    1.2369    0.5991 H   0  0  0  0  0  0  0  0  0  0  0  0
    8.4340   -1.5926    3.0722 H   0  0  0  0  0  0  0  0  0  0  0  0
    9.7188   -1.3422    1.7631 H   0  0  0  0  0  0  0  0  0  0  0  0
    8.3382   -2.5217    1.5220 H   0  0  0  0  0  0  0  0  0  0  0  0
    6.8475   -0.1034    3.1723 H   0  0  0  0  0  0  0  0  0  0  0  0
    6.2145   -1.5116    2.3171 H   0  0  0  0  0  0  0  0  0  0  0  0
    6.0088    1.4520    1.3721 H   0  0  0  0  0  0  0  0  0  0  0  0
    4.7668    0.5529    2.2123 H   0  0  0  0  0  0  0  0  0  0  0  0
    6.7585    1.1835   -0.6215 H   0  0  0  0  0  0  0  0  0  0  0  0
    5.8513    0.1908   -1.8604 H   0  0  0  0  0  0  0  0  0  0  0  0
    6.9284   -0.5810   -0.7276 H   0  0  0  0  0  0  0  0  0  0  0  0
    2.9667   -1.7374    0.4374 H   0  0  0  0  0  0  0  0  0  0  0  0
    3.6051   -0.9895    1.9089 H   0  0  0  0  0  0  0  0  0  0  0  0
    1.2988   -1.0976    1.9100 H   0  0  0  0  0  0  0  0  0  0  0  0
    2.2632    0.1449    3.9219 H   0  0  0  0  0  0  0  0  0  0  0  0
    0.5626    0.2254    3.5716 H   0  0  0  0  0  0  0  0  0  0  0  0
    1.3715    1.7797    3.8079 H   0  0  0  0  0  0  0  0  0  0  0  0
    3.5253    1.2235    0.2301 H   0  0  0  0  0  0  0  0  0  0  0  0
    3.0823   -1.2367   -1.5024 H   0  0  0  0  0  0  0  0  0  0  0  0
    3.3409    1.5632   -2.4697 H   0  0  0  0  0  0  0  0  0  0  0  0
    4.1261    0.6581   -4.4170 H   0  0  0  0  0  0  0  0  0  0  0  0
    4.0084   -1.9791   -3.3914 H   0  0  0  0  0  0  0  0  0  0  0  0
    1.7140    0.4981   -4.3840 H   0  0  0  0  0  0  0  0  0  0  0  0
    1.7733   -1.1964   -3.7023 H   0  0  0  0  0  0  0  0  0  0  0  0
    3.0380   -0.2627   -6.2570 H   0  0  0  0  0  0  0  0  0  0  0  0
    1.6398   -1.4370   -6.0826 H   0  0  0  0  0  0  0  0  0  0  0  0
    3.3021   -1.8841   -5.5203 H   0  0  0  0  0  0  0  0  0  0  0  0
    1.1369    0.3037   -2.0404 H   0  0  0  0  0  0  0  0  0  0  0  0
    1.8018    1.4940   -0.9096 H   0  0  0  0  0  0  0  0  0  0  0  0
    0.7659   -1.3082   -0.4012 H   0  0  0  0  0  0  0  0  0  0  0  0
   -0.5873    0.5685   -1.0726 H   0  0  0  0  0  0  0  0  0  0  0  0
   -1.5232   -1.1058    0.9690 H   0  0  0  0  0  0  0  0  0  0  0  0
   -2.6991   -0.3728   -0.7871 H   0  0  0  0  0  0  0  0  0  0  0  0
   -1.3353    1.7922    1.5554 H   0  0  0  0  0  0  0  0  0  0  0  0
   -2.4408    1.3131    3.6129 H   0  0  0  0  0  0  0  0  0  0  0  0
   -2.5709   -0.4477    3.0826 H   0  0  0  0  0  0  0  0  0  0  0  0
   -4.6003    0.9202    2.7008 H   0  0  0  0  0  0  0  0  0  0  0  0
   -3.5580    2.0119    1.6156 H   0  0  0  0  0  0  0  0  0  0  0  0
   -3.4833   -0.9970    1.3149 H   0  0  0  0  0  0  0  0  0  0  0  0
   -4.7807   -1.1765   -0.5431 H   0  0  0  0  0  0  0  0  0  0  0  0
   -6.1498   -1.4261    1.4131 H   0  0  0  0  0  0  0  0  0  0  0  0
   -6.3834    1.5923    1.2499 H   0  0  0  0  0  0  0  0  0  0  0  0
   -7.0075    0.4064    2.5151 H   0  0  0  0  0  0  0  0  0  0  0  0
   -8.4159    1.4513    0.0289 H   0  0  0  0  0  0  0  0  0  0  0  0
   -8.8079    1.5236    1.7480 H   0  0  0  0  0  0  0  0  0  0  0  0
   -8.7628   -0.9900    1.8677 H   0  0  0  0  0  0  0  0  0  0  0  0
  -10.1217   -0.2840    0.8572 H   0  0  0  0  0  0  0  0  0  0  0  0
   -9.0935   -0.9322   -1.1431 H   0  0  0  0  0  0  0  0  0  0  0  0
   -8.6220   -2.2779   -0.0723 H   0  0  0  0  0  0  0  0  0  0  0  0
   -6.5494   -1.7925   -0.9632 H   0  0  0  0  0  0  0  0  0  0  0  0
   -7.1799   -1.1624   -2.8539 H   0  0  0  0  0  0  0  0  0  0  0  0
   -5.7638   -0.0527   -3.1977 H   0  0  0  0  0  0  0  0  0  0  0  0
   -7.4475    0.5529   -3.2878 H   0  0  0  0  0  0  0  0  0  0  0  0
   -5.5345    1.7962   -0.5843 H   0  0  0  0  0  0  0  0  0  0  0  0
   -4.7815    0.7092   -1.8424 H   0  0  0  0  0  0  0  0  0  0  0  0
  1  2  1  0
  2  3  1  0
  2  4  1  0
  4  5  1  0
  5  6  1  0
  6  7  1  0
  8  9  1  0
  9 10  1  0
 10 11  1  0
  6 12  1  0
  8 12  1  0
 12 13  1  0
 13 14  1  0
 14 15  1  0
 15 16  1  0
 15 17  1  0
 17 18  1  0
 13 19  1  0
  9 20  1  0
 19 20  1  0
 20 21  1  0
 21 22  1  0
 22 23  1  0
 22 24  1  0
 24 25  1  0
 25 26  1  0
 23 27  1  0
 26 27  1  0
 27 28  1  0
 28 29  1  0
 29 30  1  0
 30 31  1  0
 31 32  1  0
 32 33  1  0
 29 34  1  0
 33 34  1  0
 34 35  1  0
 35 36  1  0
 28 37  1  0
 35 37  1  0
  1 38  1  0
  1 39  1  0
  1 40  1  0
  3 41  1  0
  3 42  1  0
  3 43  1  0
  4 44  1  0
  4 45  1  0
  5 46  1  0
  5 47  1  0
  7 48  1  0
  7 49  1  0
  7 50  1  0
  8 51  1  0
  8 52  1  0
  9 53  1  0
 11 54  1  0
 11 55  1  0
 11 56  1  0
 12 57  1  0
 13 58  1  6
 14 59  1  0
 15 60  1  0
 16 61  1  0
 17 62  1  0
 17 63  1  0
 18 64  1  0
 18 65  1  0
 18 66  1  0
 19 67  1  0
 19 68  1  0
 20 69  1  0
 21 70  1  0
 22 71  1  0
 23 72  1  0
 24 73  1  0
 25 74  1  0
 25 75  1  0
 26 76  1  0
 26 77  1  0
 27 78  1  0
 28 79  1  0
 29 80  1  0
 30 81  1  0
 30 82  1  0
 31 83  1  0
 31 84  1  0
 32 85  1  0
 32 86  1  0
 33 87  1  0
 33 88  1  0
 34 89  1  0
 36 90  1  0
 36 91  1  0
 36 92  1  0
 37 93  1  0
 37 94  1  0
M  END
>  <PDBID>  (1) 
4ZAU

>  <PDB ID>  (1) 
4ZAU

>  <Generic Name>  (1) 
Osimertinib

>  <Brand Name>  (1) 
Tagrisso

>  <DrugBank ID>  (1) 
DB09330

>  <ATC Codes>  (1) 
nan

>  <Ligand ID>  (1) 
YY3

>  <Target Name>  (1) 
Epidermal growth factor receptor

>  <UniProt ID>  (1) 
P00533

>  <PDB ID.1>  (1) 
4ZAU

>  <Seq. Identity>  (1) 
96%

$$$$
