PDB_DB00476_00
     RDKit          3D

 54 56  0  0  0  0  0  0  0  0999 V2000
    3.8158    2.8823   -1.5833 C   0  0  0  0  0  0  0  0  0  0  0  0
    4.4200    2.2395   -0.4334 N   0  0  0  0  0  0  0  0  0  0  0  0
    3.7109    0.9380   -0.2566 C   0  0  0  0  0  0  0  0  0  0  0  0
    2.3359    1.2411    0.1634 C   0  0  0  0  0  0  0  0  0  0  0  0
    1.4085    0.0639    0.2690 C   0  0  1  0  0  0  0  0  0  0  0  0
    1.9206   -0.9328    1.2183 C   0  0  0  0  0  0  0  0  0  0  0  0
    0.6985   -2.3414    1.4327 S   0  0  0  0  0  0  0  0  0  0  0  0
    1.9192   -3.5598    2.0088 C   0  0  0  0  0  0  0  0  0  0  0  0
    3.2141   -2.8003    1.8394 C   0  0  0  0  0  0  0  0  0  0  0  0
    2.9889   -1.8801    0.6247 C   0  0  0  0  0  0  0  0  0  0  0  0
    0.1827    0.6445    0.5304 O   0  0  0  0  0  0  0  0  0  0  0  0
   -0.8373    0.5825   -0.3191 C   0  0  0  0  0  0  0  0  0  0  0  0
   -2.1552    0.4467    0.3564 C   0  0  0  0  0  0  0  0  0  0  0  0
   -2.2928   -0.8442    1.0698 C   0  0  0  0  0  0  0  0  0  0  0  0
   -3.6977   -1.1101    1.6030 C   0  0  0  0  0  0  0  0  0  0  0  0
   -4.6064   -1.1341    0.4051 C   0  0  0  0  0  0  0  0  0  0  0  0
   -4.6043    0.1921   -0.2783 C   0  0  0  0  0  0  0  0  0  0  0  0
   -3.2955    0.7964   -0.5616 C   0  0  0  0  0  0  0  0  0  0  0  0
   -2.8631    0.4377   -1.9809 C   0  0  0  0  0  0  0  0  0  0  0  0
   -1.8663    1.4947   -2.3480 C   0  0  0  0  0  0  0  0  0  0  0  0
   -0.9894    1.8795   -1.1684 C   0  0  0  0  0  0  0  0  0  0  0  0
    4.5799    3.4509   -2.1738 H   0  0  0  0  0  0  0  0  0  0  0  0
    3.0451    3.5799   -1.2453 H   0  0  0  0  0  0  0  0  0  0  0  0
    3.4089    2.1090   -2.2851 H   0  0  0  0  0  0  0  0  0  0  0  0
    5.4186    2.0231   -0.5756 H   0  0  0  0  0  0  0  0  0  0  0  0
    4.3078    0.4773    0.5823 H   0  0  0  0  0  0  0  0  0  0  0  0
    3.7786    0.3306   -1.1428 H   0  0  0  0  0  0  0  0  0  0  0  0
    1.9221    2.0352   -0.5151 H   0  0  0  0  0  0  0  0  0  0  0  0
    2.3556    1.7074    1.2216 H   0  0  0  0  0  0  0  0  0  0  0  0
    1.4331   -0.4264   -0.7395 H   0  0  0  0  0  0  0  0  0  0  0  0
    2.1908   -0.6367    2.2176 H   0  0  0  0  0  0  0  0  0  0  0  0
    1.9199   -4.4693    1.3782 H   0  0  0  0  0  0  0  0  0  0  0  0
    1.7494   -3.7934    3.0831 H   0  0  0  0  0  0  0  0  0  0  0  0
    3.4518   -2.1568    2.7062 H   0  0  0  0  0  0  0  0  0  0  0  0
    4.0558   -3.4933    1.5963 H   0  0  0  0  0  0  0  0  0  0  0  0
    2.4813   -2.5034   -0.1524 H   0  0  0  0  0  0  0  0  0  0  0  0
    3.9213   -1.4942    0.3614 H   0  0  0  0  0  0  0  0  0  0  0  0
   -0.6774   -0.1642   -1.1065 H   0  0  0  0  0  0  0  0  0  0  0  0
   -2.1845    1.2628    1.1610 H   0  0  0  0  0  0  0  0  0  0  0  0
   -2.0178   -1.7066    0.4541 H   0  0  0  0  0  0  0  0  0  0  0  0
   -1.6545   -0.7712    2.0033 H   0  0  0  0  0  0  0  0  0  0  0  0
   -4.0014   -0.2906    2.3003 H   0  0  0  0  0  0  0  0  0  0  0  0
   -3.6999   -2.0872    2.0910 H   0  0  0  0  0  0  0  0  0  0  0  0
   -4.2072   -1.9236   -0.2884 H   0  0  0  0  0  0  0  0  0  0  0  0
   -5.6455   -1.4006    0.6613 H   0  0  0  0  0  0  0  0  0  0  0  0
   -5.1418    0.0441   -1.2627 H   0  0  0  0  0  0  0  0  0  0  0  0
   -5.2669    0.8982    0.2935 H   0  0  0  0  0  0  0  0  0  0  0  0
   -3.4276    1.9181   -0.5441 H   0  0  0  0  0  0  0  0  0  0  0  0
   -3.7408    0.4914   -2.6594 H   0  0  0  0  0  0  0  0  0  0  0  0
   -2.4487   -0.5805   -1.9901 H   0  0  0  0  0  0  0  0  0  0  0  0
   -2.4569    2.3941   -2.6461 H   0  0  0  0  0  0  0  0  0  0  0  0
   -1.2685    1.1394   -3.2131 H   0  0  0  0  0  0  0  0  0  0  0  0
   -0.0661    2.1980   -1.6276 H   0  0  0  0  0  0  0  0  0  0  0  0
   -1.5219    2.6024   -0.5351 H   0  0  0  0  0  0  0  0  0  0  0  0
  1  2  1  0
  2  3  1  0
  3  4  1  0
  4  5  1  0
  5  6  1  0
  6  7  1  0
  7  8  1  0
  8  9  1  0
  6 10  1  0
  9 10  1  0
  5 11  1  0
 11 12  1  0
 12 13  1  0
 13 14  1  0
 14 15  1  0
 15 16  1  0
 16 17  1  0
 13 18  1  0
 17 18  1  0
 18 19  1  0
 19 20  1  0
 12 21  1  0
 20 21  1  0
  1 22  1  0
  1 23  1  0
  1 24  1  0
  2 25  1  0
  3 26  1  0
  3 27  1  0
  4 28  1  0
  4 29  1  0
  5 30  1  6
  6 31  1  0
  8 32  1  0
  8 33  1  0
  9 34  1  0
  9 35  1  0
 10 36  1  0
 10 37  1  0
 12 38  1  0
 13 39  1  0
 14 40  1  0
 14 41  1  0
 15 42  1  0
 15 43  1  0
 16 44  1  0
 16 45  1  0
 17 46  1  0
 17 47  1  0
 18 48  1  0
 19 49  1  0
 19 50  1  0
 20 51  1  0
 20 52  1  0
 21 53  1  0
 21 54  1  0
M  END
>  <PDBID>  (1) 
4MM6

>  <PDB ID>  (1) 
4MM6

>  <Generic Name>  (1) 
Duloxetine

>  <Brand Name>  (1) 
Act Duloxetine#Apo-duloxetine#Auro-duloxetine#Cymbalta#Dom-duloxetine#Duloxetine#Duloxetine Delayed-release#Duloxetine Dr#Duloxetine Hydrochloride#Duloxetine Hydrochloride 20 mg#Duloxetine Hydrochloride 30 mg#Duloxetine Hydrochloride 60 mg#Ipg-duloxetine#Irenka#Jamp-duloxetine#Mar-duloxetine#Mint-duloxetine#Mylan-duloxetine#PMS-duloxetine#Ran-duloxetine#Riva-duloxetine#Sandoz Duloxetine#Taro-duloxetine#Teva-duloxetine Dr#Torrent-duloxetine#Ariclaim#Dulane#Duzela#Xeristar#Yentreve

>  <DrugBank ID>  (1) 
DB00476

>  <ATC Codes>  (1) 
N06AX21

>  <Ligand ID>  (1) 
29E

>  <Target Name>  (1) 
Sodium-dependent noradrenaline transporter

>  <UniProt ID>  (1) 
P23975

>  <PDB ID.1>  (1) 
4MM6

>  <Seq. Identity>  (1) 
30%

$$$$
