PDB_DB01144_07
     RDKit          3D

 32 32  0  0  0  0  0  0  0  0999 V2000
    2.6160   -0.7134    0.3555 S   0  0  0  0  0  0  0  0  0  0  0  0
    3.7660    0.4689    0.9136 O   0  0  0  0  0  0  0  0  0  0  0  0
    2.7660   -1.9576    0.8727 O   0  0  0  0  0  0  0  0  0  0  0  0
    3.0735   -0.5377   -1.4216 N   0  0  0  0  0  0  0  0  0  0  0  0
   -2.7463   -0.5860    0.1366 S   0  0  0  0  0  0  0  0  0  0  0  0
   -2.5350   -2.0897    1.1559 O   0  0  0  0  0  0  0  0  0  0  0  0
   -3.9002    0.1221    0.8673 O   0  0  0  0  0  0  0  0  0  0  0  0
   -2.9806   -1.1736   -1.2910 N   0  0  0  0  0  0  0  0  0  0  0  0
    1.1585    0.1341    0.4419 C   0  0  0  0  0  0  0  0  0  0  0  0
   -0.0423   -0.6105   -0.0343 C   0  0  0  0  0  0  0  0  0  0  0  0
   -1.2679    0.2104    0.3828 C   0  0  0  0  0  0  0  0  0  0  0  0
   -1.2441    1.4582   -0.4667 C   0  0  0  0  0  0  0  0  0  0  0  0
    0.0263    2.2442   -0.3146 C   0  0  0  0  0  0  0  0  0  0  0  0
    1.2638    1.4189   -0.3755 C   0  0  0  0  0  0  0  0  0  0  0  0
   -2.6114    2.5238   -0.0690 Cl  0  0  0  0  0  0  0  0  0  0  0  0
   -0.0916    3.1914    1.1781 Cl  0  0  0  0  0  0  0  0  0  0  0  0
    3.9654    0.1767    1.8540 H   0  0  0  0  0  0  0  0  0  0  0  0
    2.8854   -2.8642    0.4989 H   0  0  0  0  0  0  0  0  0  0  0  0
    2.6130   -1.4084   -1.7854 H   0  0  0  0  0  0  0  0  0  0  0  0
    4.0966   -0.7717   -1.3552 H   0  0  0  0  0  0  0  0  0  0  0  0
   -1.9054   -2.5536    0.5569 H   0  0  0  0  0  0  0  0  0  0  0  0
   -4.5857    0.6587    0.4221 H   0  0  0  0  0  0  0  0  0  0  0  0
   -3.9855   -1.2211   -1.6089 H   0  0  0  0  0  0  0  0  0  0  0  0
   -2.4935   -2.0661   -1.5588 H   0  0  0  0  0  0  0  0  0  0  0  0
    0.9677    0.4587    1.4851 H   0  0  0  0  0  0  0  0  0  0  0  0
   -0.0572   -0.5875   -1.1571 H   0  0  0  0  0  0  0  0  0  0  0  0
   -0.0991   -1.6459    0.2887 H   0  0  0  0  0  0  0  0  0  0  0  0
   -1.1173    0.4412    1.4515 H   0  0  0  0  0  0  0  0  0  0  0  0
   -1.3111    1.1124   -1.5349 H   0  0  0  0  0  0  0  0  0  0  0  0
    0.0621    2.9554   -1.1916 H   0  0  0  0  0  0  0  0  0  0  0  0
    1.6221    1.2064   -1.4037 H   0  0  0  0  0  0  0  0  0  0  0  0
    2.0918    2.0055    0.1093 H   0  0  0  0  0  0  0  0  0  0  0  0
  1  2  1  0
  1  3  1  0
  1  4  1  0
  5  6  1  0
  5  7  1  0
  5  8  1  0
  1  9  1  0
  9 10  1  0
  5 11  1  0
 10 11  1  0
 11 12  1  0
 12 13  1  0
  9 14  1  0
 13 14  1  0
 12 15  1  0
 13 16  1  0
  2 17  1  0
  3 18  1  0
  4 19  1  0
  4 20  1  0
  6 21  1  0
  7 22  1  0
  8 23  1  0
  8 24  1  0
  9 25  1  0
 10 26  1  0
 10 27  1  0
 11 28  1  0
 12 29  1  0
 13 30  1  0
 14 31  1  0
 14 32  1  0
M  END
>  <PDBID>  (1) 
2POU

>  <PDB ID>  (1) 
2POU

>  <Generic Name>  (1) 
Diclofenamide

>  <Brand Name>  (1) 
Daranide#Keveyis#Oratrol

>  <DrugBank ID>  (1) 
DB01144

>  <ATC Codes>  (1) 
S01EC02

>  <Ligand ID>  (1) 
I7A

>  <Target Name>  (1) 
Carbonic anhydrase 1

>  <UniProt ID>  (1) 
P00915

>  <PDB ID.1>  (1) 
2POU

>  <Seq. Identity>  (1) 
61%

$$$$
