PDB_DB00299_03
     RDKit          3D

 82 84  0  0  0  0  0  0  0  0999 V2000
    3.2896    1.3985    0.3562 C   0  0  0  0  0  0  0  0  0  0  0  0
    1.4704   -0.1401    0.1625 C   0  0  0  0  0  0  0  0  0  0  0  0
    2.4702   -0.5178   -0.9444 C   0  0  0  0  0  0  0  0  0  0  0  0
   -3.6128    0.6961    1.0061 C   0  0  0  0  0  0  0  0  0  0  0  0
   -3.6302    1.9824    0.5296 O   0  0  0  0  0  0  0  0  0  0  0  0
   -4.5708   -0.1489   -1.0794 C   0  0  0  0  0  0  0  0  0  0  0  0
   -5.7996   -0.3720   -0.5135 O   0  0  0  0  0  0  0  0  0  0  0  0
   -3.4269   -0.3001   -0.1133 C   0  0  0  0  0  0  0  0  0  0  0  0
   -2.1019   -0.0896   -0.7805 C   0  0  0  0  0  0  0  0  0  0  0  0
   -0.9396   -0.2501    0.1503 C   0  0  0  0  0  0  0  0  0  0  0  0
    0.2794   -0.0196   -0.6349 N   0  0  0  0  0  0  0  0  0  0  0  0
    1.9371    1.0631    0.7468 N   0  0  0  0  0  0  0  0  0  0  0  0
    3.7512    2.4111    1.3107 N   0  0  0  0  0  0  0  0  0  0  0  0
    4.2030    0.2958    0.4481 N   0  0  0  0  0  0  0  0  0  0  0  0
    3.7147   -0.9007   -0.2320 C   0  0  0  0  0  0  0  0  0  0  0  0
    3.3469   -1.7902    0.8065 O   0  0  0  0  0  0  0  0  0  0  0  0
    1.7600   -1.5756   -1.5722 N   0  0  0  0  0  0  0  0  0  0  0  0
    0.3938   -1.0915   -1.6165 C   0  0  0  0  0  0  0  0  0  0  0  0
    3.2896    1.3985    0.3562 C   0  0  0  0  0  0  0  0  0  0  0  0
    1.4704   -0.1401    0.1625 C   0  0  0  0  0  0  0  0  0  0  0  0
    2.4702   -0.5178   -0.9444 C   0  0  0  0  0  0  0  0  0  0  0  0
   -3.6128    0.6961    1.0061 C   0  0  0  0  0  0  0  0  0  0  0  0
   -3.6302    1.9824    0.5296 O   0  0  0  0  0  0  0  0  0  0  0  0
   -4.5708   -0.1489   -1.0794 C   0  0  0  0  0  0  0  0  0  0  0  0
   -5.7996   -0.3720   -0.5135 O   0  0  0  0  0  0  0  0  0  0  0  0
   -3.4269   -0.3001   -0.1133 C   0  0  0  0  0  0  0  0  0  0  0  0
   -2.1019   -0.0896   -0.7805 C   0  0  0  0  0  0  0  0  0  0  0  0
   -0.9396   -0.2501    0.1503 C   0  0  0  0  0  0  0  0  0  0  0  0
    0.2794   -0.0196   -0.6349 N   0  0  0  0  0  0  0  0  0  0  0  0
    1.9371    1.0631    0.7468 N   0  0  0  0  0  0  0  0  0  0  0  0
    3.7512    2.4111    1.3107 N   0  0  0  0  0  0  0  0  0  0  0  0
    4.2030    0.2958    0.4481 N   0  0  0  0  0  0  0  0  0  0  0  0
    3.7147   -0.9007   -0.2320 C   0  0  0  0  0  0  0  0  0  0  0  0
    3.3469   -1.7902    0.8065 O   0  0  0  0  0  0  0  0  0  0  0  0
    1.7600   -1.5756   -1.5722 N   0  0  0  0  0  0  0  0  0  0  0  0
    0.3938   -1.0915   -1.6165 C   0  0  0  0  0  0  0  0  0  0  0  0
    3.3212    1.9138   -0.6404 H   0  0  0  0  0  0  0  0  0  0  0  0
    1.4510   -1.0150    0.8407 H   0  0  0  0  0  0  0  0  0  0  0  0
    2.5902    0.3071   -1.6629 H   0  0  0  0  0  0  0  0  0  0  0  0
   -4.6500    0.4976    1.4033 H   0  0  0  0  0  0  0  0  0  0  0  0
   -2.8672    0.5398    1.8202 H   0  0  0  0  0  0  0  0  0  0  0  0
   -3.4587    2.0582   -0.4402 H   0  0  0  0  0  0  0  0  0  0  0  0
   -4.5857    0.8239   -1.5925 H   0  0  0  0  0  0  0  0  0  0  0  0
   -4.4166   -0.9275   -1.8736 H   0  0  0  0  0  0  0  0  0  0  0  0
   -5.9467   -1.3248   -0.2669 H   0  0  0  0  0  0  0  0  0  0  0  0
   -3.4777   -1.3158    0.3523 H   0  0  0  0  0  0  0  0  0  0  0  0
   -2.0267    0.8893   -1.2755 H   0  0  0  0  0  0  0  0  0  0  0  0
   -2.0576   -0.8463   -1.6159 H   0  0  0  0  0  0  0  0  0  0  0  0
   -1.0228    0.4839    0.9721 H   0  0  0  0  0  0  0  0  0  0  0  0
   -0.8834   -1.2570    0.5981 H   0  0  0  0  0  0  0  0  0  0  0  0
    1.9771    0.9129    1.8007 H   0  0  0  0  0  0  0  0  0  0  0  0
    4.4181    3.0578    0.8750 H   0  0  0  0  0  0  0  0  0  0  0  0
    4.1325    1.8908    2.1314 H   0  0  0  0  0  0  0  0  0  0  0  0
    5.0700    0.5800   -0.0943 H   0  0  0  0  0  0  0  0  0  0  0  0
    4.4857   -1.3714   -0.8643 H   0  0  0  0  0  0  0  0  0  0  0  0
    3.7897   -1.5578    1.6566 H   0  0  0  0  0  0  0  0  0  0  0  0
    1.7783   -2.4505   -0.9971 H   0  0  0  0  0  0  0  0  0  0  0  0
    0.1807   -0.6326   -2.6115 H   0  0  0  0  0  0  0  0  0  0  0  0
   -0.3358   -1.9072   -1.3893 H   0  0  0  0  0  0  0  0  0  0  0  0
    3.3212    1.9138   -0.6404 H   0  0  0  0  0  0  0  0  0  0  0  0
    1.4510   -1.0150    0.8407 H   0  0  0  0  0  0  0  0  0  0  0  0
    2.5902    0.3071   -1.6629 H   0  0  0  0  0  0  0  0  0  0  0  0
   -4.6500    0.4976    1.4033 H   0  0  0  0  0  0  0  0  0  0  0  0
   -2.8672    0.5398    1.8202 H   0  0  0  0  0  0  0  0  0  0  0  0
   -3.4587    2.0582   -0.4402 H   0  0  0  0  0  0  0  0  0  0  0  0
   -4.5857    0.8239   -1.5925 H   0  0  0  0  0  0  0  0  0  0  0  0
   -4.4166   -0.9275   -1.8736 H   0  0  0  0  0  0  0  0  0  0  0  0
   -5.9467   -1.3248   -0.2669 H   0  0  0  0  0  0  0  0  0  0  0  0
   -3.4777   -1.3158    0.3523 H   0  0  0  0  0  0  0  0  0  0  0  0
   -2.0267    0.8893   -1.2755 H   0  0  0  0  0  0  0  0  0  0  0  0
   -2.0576   -0.8463   -1.6159 H   0  0  0  0  0  0  0  0  0  0  0  0
   -1.0228    0.4839    0.9721 H   0  0  0  0  0  0  0  0  0  0  0  0
   -0.8834   -1.2570    0.5981 H   0  0  0  0  0  0  0  0  0  0  0  0
    1.9771    0.9129    1.8007 H   0  0  0  0  0  0  0  0  0  0  0  0
    4.4181    3.0578    0.8750 H   0  0  0  0  0  0  0  0  0  0  0  0
    4.1325    1.8908    2.1314 H   0  0  0  0  0  0  0  0  0  0  0  0
    5.0700    0.5800   -0.0943 H   0  0  0  0  0  0  0  0  0  0  0  0
    4.4857   -1.3714   -0.8643 H   0  0  0  0  0  0  0  0  0  0  0  0
    3.7897   -1.5578    1.6566 H   0  0  0  0  0  0  0  0  0  0  0  0
    1.7783   -2.4505   -0.9971 H   0  0  0  0  0  0  0  0  0  0  0  0
    0.1807   -0.6326   -2.6115 H   0  0  0  0  0  0  0  0  0  0  0  0
   -0.3358   -1.9072   -1.3893 H   0  0  0  0  0  0  0  0  0  0  0  0
  2  3  1  0
  4  5  1  0
  6  7  1  0
  4  8  1  0
  6  8  1  0
  8  9  1  0
  9 10  1  0
  2 11  1  0
 10 11  1  0
  1 12  1  0
  2 12  1  0
  1 13  1  0
  1 14  1  0
  3 15  1  0
 14 15  1  0
 15 16  1  0
  3 17  1  0
 11 18  1  0
 17 18  1  0
 20 21  1  0
 22 23  1  0
 24 25  1  0
 22 26  1  0
 24 26  1  0
 26 27  1  0
 27 28  1  0
 20 29  1  0
 28 29  1  0
 19 30  1  0
 20 30  1  0
 19 31  1  0
 19 32  1  0
 21 33  1  0
 32 33  1  0
 33 34  1  0
 21 35  1  0
 29 36  1  0
 35 36  1  0
  1 37  1  0
  2 38  1  0
  3 39  1  0
  4 40  1  0
  4 41  1  0
  5 42  1  0
  6 43  1  0
  6 44  1  0
  7 45  1  0
  8 46  1  0
  9 47  1  0
  9 48  1  0
 10 49  1  0
 10 50  1  0
 12 51  1  0
 13 52  1  0
 13 53  1  0
 14 54  1  0
 15 55  1  0
 16 56  1  0
 17 57  1  0
 18 58  1  0
 18 59  1  0
 19 60  1  0
 20 61  1  0
 21 62  1  0
 22 63  1  0
 22 64  1  0
 23 65  1  0
 24 66  1  0
 24 67  1  0
 25 68  1  0
 26 69  1  0
 27 70  1  0
 27 71  1  0
 28 72  1  0
 28 73  1  0
 30 74  1  0
 31 75  1  0
 31 76  1  0
 32 77  1  0
 33 78  1  0
 34 79  1  0
 35 80  1  0
 36 81  1  0
 36 82  1  0
M  END
>  <PDBID>  (1) 
1KI3

>  <PDB ID>  (1) 
1KI3

>  <Generic Name>  (1) 
Penciclovir

>  <Brand Name>  (1) 
Denavir#Penciclovir

>  <DrugBank ID>  (1) 
DB00299

>  <ATC Codes>  (1) 
D06BB06#J05AB13

>  <Ligand ID>  (1) 
PE2

>  <Target Name>  (1) 
Thymidine kinase

>  <UniProt ID>  (1) 
P06478

>  <PDB ID.1>  (1) 
1KI3

>  <Seq. Identity>  (1) 
98%

$$$$
