PDB_DB00530_02
     RDKit          3D

 72 74  0  0  0  0  0  0  0  0999 V2000
    7.2502    1.1390   -0.7811 C   0  0  0  0  0  0  0  0  0  0  0  0
    5.9083    1.0774   -1.4753 C   0  0  0  0  0  0  0  0  0  0  0  0
    4.7762    1.0919   -0.4360 C   0  0  0  0  0  0  0  0  0  0  0  0
    3.4406    1.0337   -1.0790 C   0  0  0  0  0  0  0  0  0  0  0  0
    2.7503   -0.2881   -1.1219 C   0  0  0  0  0  0  0  0  0  0  0  0
    1.3365   -0.2047   -0.9314 N   0  0  0  0  0  0  0  0  0  0  0  0
    0.8148    0.3101    0.2462 C   0  0  0  0  0  0  0  0  0  0  0  0
   -0.5330   -0.2889    0.6454 C   0  0  0  0  0  0  0  0  0  0  0  0
   -1.4500   -0.5377   -0.4942 C   0  0  0  0  0  0  0  0  0  0  0  0
   -2.7743   -1.0427    0.1060 C   0  0  0  0  0  0  0  0  0  0  0  0
   -2.4975   -2.0754    0.9341 O   0  0  0  0  0  0  0  0  0  0  0  0
   -3.0134   -3.3005    0.7033 C   0  0  0  0  0  0  0  0  0  0  0  0
   -2.6296   -3.9937   -0.5704 C   0  0  0  0  0  0  0  0  0  0  0  0
   -3.0057   -3.2730   -1.6713 O   0  0  0  0  0  0  0  0  0  0  0  0
   -2.6847   -3.8497   -2.8806 C   0  0  0  0  0  0  0  0  0  0  0  0
   -3.3441    0.1716    0.8624 C   0  0  0  0  0  0  0  0  0  0  0  0
   -3.1288    1.2562    0.0383 O   0  0  0  0  0  0  0  0  0  0  0  0
   -4.2731    1.9236   -0.2911 C   0  0  0  0  0  0  0  0  0  0  0  0
   -4.9300    2.5073    0.8997 C   0  0  0  0  0  0  0  0  0  0  0  0
   -6.0867    3.1796    0.5975 O   0  0  0  0  0  0  0  0  0  0  0  0
   -5.8605    4.2236   -0.2551 C   0  0  0  0  0  0  0  0  0  0  0  0
   -2.4588    0.3444    2.0912 C   0  0  0  0  0  0  0  0  0  0  0  0
   -1.1184    0.7651    1.5952 C   0  0  0  0  0  0  0  0  0  0  0  0
   -0.2367    1.0096    2.7021 N   0  0  0  0  0  0  0  0  0  0  0  0
    1.1134    1.3815    2.2835 C   0  0  0  0  0  0  0  0  0  0  0  0
    1.5935    0.2550    1.4529 N   0  0  0  0  0  0  0  0  0  0  0  0
    3.2908   -1.4119   -0.3490 C   0  0  0  0  0  0  0  0  0  0  0  0
    4.6933   -1.2539    0.1568 C   0  0  0  0  0  0  0  0  0  0  0  0
    5.0017    0.1210    0.6740 C   0  0  0  0  0  0  0  0  0  0  0  0
    7.9342    1.7282   -1.4288 H   0  0  0  0  0  0  0  0  0  0  0  0
    7.1281    1.6684    0.1953 H   0  0  0  0  0  0  0  0  0  0  0  0
    7.7150    0.1548   -0.6371 H   0  0  0  0  0  0  0  0  0  0  0  0
    5.8311    0.1942   -2.1307 H   0  0  0  0  0  0  0  0  0  0  0  0
    5.7892    2.0311   -2.0397 H   0  0  0  0  0  0  0  0  0  0  0  0
    4.8964    2.1172    0.0333 H   0  0  0  0  0  0  0  0  0  0  0  0
    2.7768    1.8029   -0.5685 H   0  0  0  0  0  0  0  0  0  0  0  0
    3.5493    1.4665   -2.0995 H   0  0  0  0  0  0  0  0  0  0  0  0
    2.8369   -0.6131   -2.2157 H   0  0  0  0  0  0  0  0  0  0  0  0
    0.8478   -0.9457   -1.4356 H   0  0  0  0  0  0  0  0  0  0  0  0
    0.5782    1.4090    0.0556 H   0  0  0  0  0  0  0  0  0  0  0  0
   -0.3440   -1.2067    1.2209 H   0  0  0  0  0  0  0  0  0  0  0  0
   -1.6152    0.4007   -1.0584 H   0  0  0  0  0  0  0  0  0  0  0  0
   -1.1060   -1.3736   -1.1235 H   0  0  0  0  0  0  0  0  0  0  0  0
   -3.4318   -1.3010   -0.7155 H   0  0  0  0  0  0  0  0  0  0  0  0
   -4.1260   -3.3008    0.8220 H   0  0  0  0  0  0  0  0  0  0  0  0
   -2.6521   -3.9914    1.5326 H   0  0  0  0  0  0  0  0  0  0  0  0
   -1.5612   -4.2949   -0.5892 H   0  0  0  0  0  0  0  0  0  0  0  0
   -3.1920   -4.9759   -0.6349 H   0  0  0  0  0  0  0  0  0  0  0  0
   -1.5799   -3.9716   -2.9238 H   0  0  0  0  0  0  0  0  0  0  0  0
   -3.0689   -3.2116   -3.7118 H   0  0  0  0  0  0  0  0  0  0  0  0
   -3.1453   -4.8515   -2.9148 H   0  0  0  0  0  0  0  0  0  0  0  0
   -4.3805    0.0124    1.1221 H   0  0  0  0  0  0  0  0  0  0  0  0
   -4.0577    2.6771   -1.0883 H   0  0  0  0  0  0  0  0  0  0  0  0
   -4.9797    1.2029   -0.7811 H   0  0  0  0  0  0  0  0  0  0  0  0
   -5.2051    1.7195    1.6393 H   0  0  0  0  0  0  0  0  0  0  0  0
   -4.1706    3.1986    1.3788 H   0  0  0  0  0  0  0  0  0  0  0  0
   -6.8489    4.7416   -0.4208 H   0  0  0  0  0  0  0  0  0  0  0  0
   -5.5822    3.8664   -1.2809 H   0  0  0  0  0  0  0  0  0  0  0  0
   -5.1220    4.9270    0.1391 H   0  0  0  0  0  0  0  0  0  0  0  0
   -2.3495   -0.6648    2.5391 H   0  0  0  0  0  0  0  0  0  0  0  0
   -2.8837    1.0879    2.7591 H   0  0  0  0  0  0  0  0  0  0  0  0
   -1.1445    1.7026    0.9965 H   0  0  0  0  0  0  0  0  0  0  0  0
   -0.1232    0.1562    3.2944 H   0  0  0  0  0  0  0  0  0  0  0  0
    1.1374    2.3287    1.7217 H   0  0  0  0  0  0  0  0  0  0  0  0
    1.7290    1.4311    3.1988 H   0  0  0  0  0  0  0  0  0  0  0  0
    1.3051   -0.5740    2.0624 H   0  0  0  0  0  0  0  0  0  0  0  0
    3.3253   -2.3714   -0.9611 H   0  0  0  0  0  0  0  0  0  0  0  0
    2.6567   -1.7101    0.5117 H   0  0  0  0  0  0  0  0  0  0  0  0
    4.8380   -1.9622    0.9989 H   0  0  0  0  0  0  0  0  0  0  0  0
    5.4129   -1.5245   -0.6178 H   0  0  0  0  0  0  0  0  0  0  0  0
    4.3816    0.4129    1.5428 H   0  0  0  0  0  0  0  0  0  0  0  0
    6.0566    0.1362    0.9677 H   0  0  0  0  0  0  0  0  0  0  0  0
  1  2  1  0
  2  3  1  0
  3  4  1  0
  4  5  1  0
  5  6  1  0
  6  7  1  0
  7  8  1  0
  8  9  1  0
  9 10  1  0
 10 11  1  0
 11 12  1  0
 12 13  1  0
 13 14  1  0
 14 15  1  0
 10 16  1  0
 16 17  1  0
 17 18  1  0
 18 19  1  0
 19 20  1  0
 20 21  1  0
 16 22  1  0
  8 23  1  0
 22 23  1  0
 23 24  1  0
 24 25  1  0
  7 26  1  0
 25 26  1  0
  5 27  1  0
 27 28  1  0
  3 29  1  0
 28 29  1  0
  1 30  1  0
  1 31  1  0
  1 32  1  0
  2 33  1  0
  2 34  1  0
  3 35  1  0
  4 36  1  0
  4 37  1  0
  5 38  1  0
  6 39  1  0
  7 40  1  0
  8 41  1  0
  9 42  1  0
  9 43  1  0
 10 44  1  0
 12 45  1  0
 12 46  1  0
 13 47  1  0
 13 48  1  0
 15 49  1  0
 15 50  1  0
 15 51  1  0
 16 52  1  0
 18 53  1  0
 18 54  1  0
 19 55  1  0
 19 56  1  0
 21 57  1  0
 21 58  1  0
 21 59  1  0
 22 60  1  0
 22 61  1  0
 23 62  1  0
 24 63  1  0
 25 64  1  0
 25 65  1  0
 26 66  1  0
 27 67  1  0
 27 68  1  0
 28 69  1  0
 28 70  1  0
 29 71  1  0
 29 72  1  0
M  END
>  <PDBID>  (1) 
1M17

>  <PDB ID>  (1) 
1M17

>  <Generic Name>  (1) 
Erlotinib

>  <Brand Name>  (1) 
PMS-erlotinib#Tarceva#Teva-erlotinib

>  <DrugBank ID>  (1) 
DB00530

>  <ATC Codes>  (1) 
L01XE03

>  <Ligand ID>  (1) 
AQ4

>  <Target Name>  (1) 
Epidermal growth factor receptor

>  <UniProt ID>  (1) 
P00533

>  <PDB ID.1>  (1) 
1M17

>  <Seq. Identity>  (1) 
96%

$$$$
