PDB_DB09330_06
     RDKit          3D

 94 97  0  0  0  0  0  0  0  0999 V2000
   -7.2628    0.6095   -1.1096 C   0  0  0  0  0  0  0  0  0  0  0  0
   -7.2526    0.4332    0.3213 N   0  0  0  0  0  0  0  0  0  0  0  0
   -8.6017    0.4103    0.8079 C   0  0  0  0  0  0  0  0  0  0  0  0
   -6.5117    1.4367    0.9939 C   0  0  0  0  0  0  0  0  0  0  0  0
   -5.0226    1.4131    0.8036 C   0  0  0  0  0  0  0  0  0  0  0  0
   -4.3722    0.2010    1.2526 N   0  0  0  0  0  0  0  0  0  0  0  0
   -4.4820    0.1188    2.6856 C   0  0  0  0  0  0  0  0  0  0  0  0
   -2.1321   -0.8332    1.5054 C   0  0  0  0  0  0  0  0  0  0  0  0
   -0.6511   -0.4322    1.1361 C   0  0  0  0  0  0  0  0  0  0  0  0
   -0.6172    0.9451    1.2924 O   0  0  0  0  0  0  0  0  0  0  0  0
    0.0478    1.3906    2.4045 C   0  0  0  0  0  0  0  0  0  0  0  0
   -2.9570    0.2097    0.8414 C   0  0  0  0  0  0  0  0  0  0  0  0
   -2.7680    0.3055   -0.6282 C   0  0  2  0  0  0  0  0  0  0  0  0
   -3.7054   -0.2303   -1.4963 N   0  0  0  0  0  0  0  0  0  0  0  0
   -4.1172   -1.5200   -1.6615 C   0  0  0  0  0  0  0  0  0  0  0  0
   -3.1269   -2.3983   -2.1966 O   0  0  0  0  0  0  0  0  0  0  0  0
   -4.8166   -2.2747   -0.5982 C   0  0  0  0  0  0  0  0  0  0  0  0
   -5.1066   -3.6731   -1.1751 C   0  0  0  0  0  0  0  0  0  0  0  0
   -1.3745    0.0763   -1.1203 C   0  0  0  0  0  0  0  0  0  0  0  0
   -0.5373   -0.8505   -0.2674 C   0  0  0  0  0  0  0  0  0  0  0  0
    0.6726   -1.1188   -0.8791 N   0  0  0  0  0  0  0  0  0  0  0  0
    1.7043   -0.2183   -1.0988 C   0  0  0  0  0  0  0  0  0  0  0  0
    2.3138    0.3118    0.0645 N   0  0  0  0  0  0  0  0  0  0  0  0
    1.4102    0.8090   -2.1047 N   0  0  0  0  0  0  0  0  0  0  0  0
    2.6910    1.3823   -2.4749 C   0  0  0  0  0  0  0  0  0  0  0  0
    3.3421    2.0690   -1.2994 C   0  0  0  0  0  0  0  0  0  0  0  0
    3.4916    1.1102   -0.1195 C   0  0  0  0  0  0  0  0  0  0  0  0
    4.6664    0.2532   -0.3741 C   0  0  0  0  0  0  0  0  0  0  0  0
    5.9775    0.9002   -0.5648 C   0  0  0  0  0  0  0  0  0  0  0  0
    6.3433    1.9820    0.3801 C   0  0  0  0  0  0  0  0  0  0  0  0
    7.0218    1.5405    1.6453 C   0  0  0  0  0  0  0  0  0  0  0  0
    8.1259    0.5418    1.4138 C   0  0  0  0  0  0  0  0  0  0  0  0
    8.2645    0.1791   -0.0488 C   0  0  0  0  0  0  0  0  0  0  0  0
    6.9032   -0.2968   -0.5035 C   0  0  0  0  0  0  0  0  0  0  0  0
    6.3096   -1.1912    0.4370 N   0  0  0  0  0  0  0  0  0  0  0  0
    6.3671   -2.5302   -0.1694 C   0  0  0  0  0  0  0  0  0  0  0  0
    4.9418   -0.7906    0.6605 C   0  0  0  0  0  0  0  0  0  0  0  0
   -6.2875    0.7147   -1.5801 H   0  0  0  0  0  0  0  0  0  0  0  0
   -7.8040   -0.2592   -1.5669 H   0  0  0  0  0  0  0  0  0  0  0  0
   -7.9261    1.5045   -1.3001 H   0  0  0  0  0  0  0  0  0  0  0  0
   -9.2054    1.1753    0.2949 H   0  0  0  0  0  0  0  0  0  0  0  0
   -9.0341   -0.5822    0.5194 H   0  0  0  0  0  0  0  0  0  0  0  0
   -8.6377    0.5100    1.9164 H   0  0  0  0  0  0  0  0  0  0  0  0
   -6.8163    1.6157    2.0449 H   0  0  0  0  0  0  0  0  0  0  0  0
   -6.8299    2.4114    0.4936 H   0  0  0  0  0  0  0  0  0  0  0  0
   -4.6297    2.3127    1.3385 H   0  0  0  0  0  0  0  0  0  0  0  0
   -4.8827    1.4771   -0.2952 H   0  0  0  0  0  0  0  0  0  0  0  0
   -5.3203    0.7520    3.0981 H   0  0  0  0  0  0  0  0  0  0  0  0
   -3.6075    0.4159    3.2534 H   0  0  0  0  0  0  0  0  0  0  0  0
   -4.7071   -0.9353    2.9469 H   0  0  0  0  0  0  0  0  0  0  0  0
   -2.2137   -1.8531    1.1691 H   0  0  0  0  0  0  0  0  0  0  0  0
   -2.1347   -0.7932    2.5829 H   0  0  0  0  0  0  0  0  0  0  0  0
   -0.0815   -1.0036    1.8804 H   0  0  0  0  0  0  0  0  0  0  0  0
   -0.4262    0.9999    3.3415 H   0  0  0  0  0  0  0  0  0  0  0  0
    1.0830    1.0086    2.3933 H   0  0  0  0  0  0  0  0  0  0  0  0
    0.0923    2.4942    2.4472 H   0  0  0  0  0  0  0  0  0  0  0  0
   -2.6045    1.1593    1.3766 H   0  0  0  0  0  0  0  0  0  0  0  0
   -2.9047    1.4378   -0.8101 H   0  0  0  0  0  0  0  0  0  0  0  0
   -3.8840    0.3265   -2.3834 H   0  0  0  0  0  0  0  0  0  0  0  0
   -4.8766   -1.5225   -2.5134 H   0  0  0  0  0  0  0  0  0  0  0  0
   -2.8731   -2.1349   -3.1111 H   0  0  0  0  0  0  0  0  0  0  0  0
   -4.3187   -2.4364    0.3430 H   0  0  0  0  0  0  0  0  0  0  0  0
   -5.8519   -1.8366   -0.4805 H   0  0  0  0  0  0  0  0  0  0  0  0
   -4.1568   -4.0301   -1.6519 H   0  0  0  0  0  0  0  0  0  0  0  0
   -5.3462   -4.3625   -0.3450 H   0  0  0  0  0  0  0  0  0  0  0  0
   -5.9417   -3.6178   -1.8775 H   0  0  0  0  0  0  0  0  0  0  0  0
   -0.7674    0.9959   -1.2453 H   0  0  0  0  0  0  0  0  0  0  0  0
   -1.4123   -0.3902   -2.1228 H   0  0  0  0  0  0  0  0  0  0  0  0
   -1.1253   -1.8389   -0.3452 H   0  0  0  0  0  0  0  0  0  0  0  0
    0.7893   -2.0646   -1.3287 H   0  0  0  0  0  0  0  0  0  0  0  0
    2.5294   -0.8103   -1.6188 H   0  0  0  0  0  0  0  0  0  0  0  0
    2.5824   -0.4943    0.6794 H   0  0  0  0  0  0  0  0  0  0  0  0
    1.0893    0.2719   -2.9565 H   0  0  0  0  0  0  0  0  0  0  0  0
    2.5444    2.1239   -3.2693 H   0  0  0  0  0  0  0  0  0  0  0  0
    3.3225    0.5503   -2.8505 H   0  0  0  0  0  0  0  0  0  0  0  0
    4.3584    2.3741   -1.6085 H   0  0  0  0  0  0  0  0  0  0  0  0
    2.7864    2.9685   -1.0252 H   0  0  0  0  0  0  0  0  0  0  0  0
    3.5783    1.7616    0.7750 H   0  0  0  0  0  0  0  0  0  0  0  0
    4.4637   -0.3156   -1.3326 H   0  0  0  0  0  0  0  0  0  0  0  0
    6.0537    1.2756   -1.6260 H   0  0  0  0  0  0  0  0  0  0  0  0
    5.5295    2.6558    0.6592 H   0  0  0  0  0  0  0  0  0  0  0  0
    7.0932    2.6437   -0.1518 H   0  0  0  0  0  0  0  0  0  0  0  0
    6.3014    1.2060    2.4361 H   0  0  0  0  0  0  0  0  0  0  0  0
    7.5090    2.4524    2.0779 H   0  0  0  0  0  0  0  0  0  0  0  0
    7.8332   -0.4027    1.9446 H   0  0  0  0  0  0  0  0  0  0  0  0
    9.0931    0.8479    1.8280 H   0  0  0  0  0  0  0  0  0  0  0  0
    8.5733    1.0805   -0.6075 H   0  0  0  0  0  0  0  0  0  0  0  0
    9.0112   -0.6323   -0.1300 H   0  0  0  0  0  0  0  0  0  0  0  0
    7.0387   -0.7452   -1.5130 H   0  0  0  0  0  0  0  0  0  0  0  0
    7.3919   -2.7258   -0.5214 H   0  0  0  0  0  0  0  0  0  0  0  0
    5.6988   -2.5308   -1.0790 H   0  0  0  0  0  0  0  0  0  0  0  0
    6.0099   -3.3097    0.5023 H   0  0  0  0  0  0  0  0  0  0  0  0
    4.7793   -0.4842    1.6905 H   0  0  0  0  0  0  0  0  0  0  0  0
    4.2928   -1.6822    0.4579 H   0  0  0  0  0  0  0  0  0  0  0  0
  1  2  1  0
  2  3  1  0
  2  4  1  0
  4  5  1  0
  5  6  1  0
  6  7  1  0
  8  9  1  0
  9 10  1  0
 10 11  1  0
  6 12  1  0
  8 12  1  0
 12 13  1  0
 13 14  1  0
 14 15  1  0
 15 16  1  0
 15 17  1  0
 17 18  1  0
 13 19  1  0
  9 20  1  0
 19 20  1  0
 20 21  1  0
 21 22  1  0
 22 23  1  0
 22 24  1  0
 24 25  1  0
 25 26  1  0
 23 27  1  0
 26 27  1  0
 27 28  1  0
 28 29  1  0
 29 30  1  0
 30 31  1  0
 31 32  1  0
 32 33  1  0
 29 34  1  0
 33 34  1  0
 34 35  1  0
 35 36  1  0
 28 37  1  0
 35 37  1  0
  1 38  1  0
  1 39  1  0
  1 40  1  0
  3 41  1  0
  3 42  1  0
  3 43  1  0
  4 44  1  0
  4 45  1  0
  5 46  1  0
  5 47  1  0
  7 48  1  0
  7 49  1  0
  7 50  1  0
  8 51  1  0
  8 52  1  0
  9 53  1  0
 11 54  1  0
 11 55  1  0
 11 56  1  0
 12 57  1  0
 13 58  1  6
 14 59  1  0
 15 60  1  0
 16 61  1  0
 17 62  1  0
 17 63  1  0
 18 64  1  0
 18 65  1  0
 18 66  1  0
 19 67  1  0
 19 68  1  0
 20 69  1  0
 21 70  1  0
 22 71  1  0
 23 72  1  0
 24 73  1  0
 25 74  1  0
 25 75  1  0
 26 76  1  0
 26 77  1  0
 27 78  1  0
 28 79  1  0
 29 80  1  0
 30 81  1  0
 30 82  1  0
 31 83  1  0
 31 84  1  0
 32 85  1  0
 32 86  1  0
 33 87  1  0
 33 88  1  0
 34 89  1  0
 36 90  1  0
 36 91  1  0
 36 92  1  0
 37 93  1  0
 37 94  1  0
M  END
>  <PDBID>  (1) 
4ZAU

>  <PDB ID>  (1) 
4ZAU

>  <Generic Name>  (1) 
Osimertinib

>  <Brand Name>  (1) 
Tagrisso

>  <DrugBank ID>  (1) 
DB09330

>  <ATC Codes>  (1) 
nan

>  <Ligand ID>  (1) 
YY3

>  <Target Name>  (1) 
Epidermal growth factor receptor

>  <UniProt ID>  (1) 
P00533

>  <PDB ID.1>  (1) 
4ZAU

>  <Seq. Identity>  (1) 
96%

$$$$
