PDB_DB00586_01
     RDKit          3D

176180  0  0  0  0  0  0  0  0999 V2000
   -3.5223   -0.3315    1.3864 C   0  0  0  0  0  0  0  0  0  0  0  0
   -2.3463    0.5872    1.5416 C   0  0  2  0  0  0  0  0  0  0  0  0
   -3.0070    2.2374    1.8065 Cl  0  0  0  0  0  0  0  0  0  0  0  0
   -1.4724    0.6069    0.2534 C   0  0  0  0  0  0  0  0  0  0  0  0
   -2.3285    0.6013   -0.9756 C   0  0  0  0  0  0  0  0  0  0  0  0
   -1.9339    2.0370   -1.9717 Cl  0  0  0  0  0  0  0  0  0  0  0  0
   -3.7837    0.5379   -0.8705 C   0  0  0  0  0  0  0  0  0  0  0  0
   -4.4352    0.4237    0.4554 C   0  0  0  0  0  0  0  0  0  0  0  0
   -0.5968   -0.4629    0.3819 N   0  0  0  0  0  0  0  0  0  0  0  0
    1.6763   -0.0340   -0.4301 C   0  0  2  0  0  0  0  0  0  0  0  0
    0.4564   -0.8300   -0.4246 C   0  0  1  0  0  0  0  0  0  0  0  0
    0.6239   -2.3314   -0.3924 C   0  0  0  0  0  0  0  0  0  0  0  0
    1.9407   -2.8527    0.0188 C   0  0  0  0  0  0  0  0  0  0  0  0
    3.0997   -2.0097   -0.4521 C   0  0  0  0  0  0  0  0  0  0  0  0
    2.8779   -0.6785    0.2441 C   0  0  0  0  0  0  0  0  0  0  0  0
    1.4779    1.3676    0.0517 C   0  0  0  0  0  0  0  0  0  0  0  0
    2.7817    2.1698    0.0820 C   0  0  0  0  0  0  0  0  0  0  0  0
    3.3599    2.2535   -1.1514 O   0  0  0  0  0  0  0  0  0  0  0  0
    3.5950    1.8617    1.1379 O   0  0  0  0  0  0  0  0  0  0  0  0
   -3.5223   -0.3315    1.3864 C   0  0  0  0  0  0  0  0  0  0  0  0
   -2.3463    0.5872    1.5416 C   0  0  2  0  0  0  0  0  0  0  0  0
   -3.0070    2.2374    1.8065 Cl  0  0  0  0  0  0  0  0  0  0  0  0
   -1.4724    0.6069    0.2534 C   0  0  0  0  0  0  0  0  0  0  0  0
   -2.3285    0.6013   -0.9756 C   0  0  0  0  0  0  0  0  0  0  0  0
   -1.9339    2.0370   -1.9717 Cl  0  0  0  0  0  0  0  0  0  0  0  0
   -3.7837    0.5379   -0.8705 C   0  0  0  0  0  0  0  0  0  0  0  0
   -4.4352    0.4237    0.4554 C   0  0  0  0  0  0  0  0  0  0  0  0
   -0.5968   -0.4629    0.3819 N   0  0  0  0  0  0  0  0  0  0  0  0
    1.6763   -0.0340   -0.4301 C   0  0  2  0  0  0  0  0  0  0  0  0
    0.4564   -0.8300   -0.4246 C   0  0  1  0  0  0  0  0  0  0  0  0
    0.6239   -2.3314   -0.3924 C   0  0  0  0  0  0  0  0  0  0  0  0
    1.9407   -2.8527    0.0188 C   0  0  0  0  0  0  0  0  0  0  0  0
    3.0997   -2.0097   -0.4521 C   0  0  0  0  0  0  0  0  0  0  0  0
    2.8779   -0.6785    0.2441 C   0  0  0  0  0  0  0  0  0  0  0  0
    1.4779    1.3676    0.0517 C   0  0  0  0  0  0  0  0  0  0  0  0
    2.7817    2.1698    0.0820 C   0  0  0  0  0  0  0  0  0  0  0  0
    3.3599    2.2535   -1.1514 O   0  0  0  0  0  0  0  0  0  0  0  0
    3.5950    1.8617    1.1379 O   0  0  0  0  0  0  0  0  0  0  0  0
   -3.5223   -0.3315    1.3864 C   0  0  0  0  0  0  0  0  0  0  0  0
   -2.3463    0.5872    1.5416 C   0  0  2  0  0  0  0  0  0  0  0  0
   -3.0070    2.2374    1.8065 Cl  0  0  0  0  0  0  0  0  0  0  0  0
   -1.4724    0.6069    0.2534 C   0  0  0  0  0  0  0  0  0  0  0  0
   -2.3285    0.6013   -0.9756 C   0  0  0  0  0  0  0  0  0  0  0  0
   -1.9339    2.0370   -1.9717 Cl  0  0  0  0  0  0  0  0  0  0  0  0
   -3.7837    0.5379   -0.8705 C   0  0  0  0  0  0  0  0  0  0  0  0
   -4.4352    0.4237    0.4554 C   0  0  0  0  0  0  0  0  0  0  0  0
   -0.5968   -0.4629    0.3819 N   0  0  0  0  0  0  0  0  0  0  0  0
    1.6763   -0.0340   -0.4301 C   0  0  2  0  0  0  0  0  0  0  0  0
    0.4564   -0.8300   -0.4246 C   0  0  1  0  0  0  0  0  0  0  0  0
    0.6239   -2.3314   -0.3924 C   0  0  0  0  0  0  0  0  0  0  0  0
    1.9407   -2.8527    0.0188 C   0  0  0  0  0  0  0  0  0  0  0  0
    3.0997   -2.0097   -0.4521 C   0  0  0  0  0  0  0  0  0  0  0  0
    2.8779   -0.6785    0.2441 C   0  0  0  0  0  0  0  0  0  0  0  0
    1.4779    1.3676    0.0517 C   0  0  0  0  0  0  0  0  0  0  0  0
    2.7817    2.1698    0.0820 C   0  0  0  0  0  0  0  0  0  0  0  0
    3.3599    2.2535   -1.1514 O   0  0  0  0  0  0  0  0  0  0  0  0
    3.5950    1.8617    1.1379 O   0  0  0  0  0  0  0  0  0  0  0  0
   -3.5223   -0.3315    1.3864 C   0  0  0  0  0  0  0  0  0  0  0  0
   -2.3463    0.5872    1.5416 C   0  0  2  0  0  0  0  0  0  0  0  0
   -3.0070    2.2374    1.8065 Cl  0  0  0  0  0  0  0  0  0  0  0  0
   -1.4724    0.6069    0.2534 C   0  0  0  0  0  0  0  0  0  0  0  0
   -2.3285    0.6013   -0.9756 C   0  0  0  0  0  0  0  0  0  0  0  0
   -1.9339    2.0370   -1.9717 Cl  0  0  0  0  0  0  0  0  0  0  0  0
   -3.7837    0.5379   -0.8705 C   0  0  0  0  0  0  0  0  0  0  0  0
   -4.4352    0.4237    0.4554 C   0  0  0  0  0  0  0  0  0  0  0  0
   -0.5968   -0.4629    0.3819 N   0  0  0  0  0  0  0  0  0  0  0  0
    1.6763   -0.0340   -0.4301 C   0  0  2  0  0  0  0  0  0  0  0  0
    0.4564   -0.8300   -0.4246 C   0  0  1  0  0  0  0  0  0  0  0  0
    0.6239   -2.3314   -0.3924 C   0  0  0  0  0  0  0  0  0  0  0  0
    1.9407   -2.8527    0.0188 C   0  0  0  0  0  0  0  0  0  0  0  0
    3.0997   -2.0097   -0.4521 C   0  0  0  0  0  0  0  0  0  0  0  0
    2.8779   -0.6785    0.2441 C   0  0  0  0  0  0  0  0  0  0  0  0
    1.4779    1.3676    0.0517 C   0  0  0  0  0  0  0  0  0  0  0  0
    2.7817    2.1698    0.0820 C   0  0  0  0  0  0  0  0  0  0  0  0
    3.3599    2.2535   -1.1514 O   0  0  0  0  0  0  0  0  0  0  0  0
    3.5950    1.8617    1.1379 O   0  0  0  0  0  0  0  0  0  0  0  0
   -3.2875   -1.2892    0.9058 H   0  0  0  0  0  0  0  0  0  0  0  0
   -3.9837   -0.4411    2.3876 H   0  0  0  0  0  0  0  0  0  0  0  0
   -1.7677    0.3345    2.4203 H   0  0  0  0  0  0  0  0  0  0  0  0
   -1.0102    1.5890    0.3180 H   0  0  0  0  0  0  0  0  0  0  0  0
   -1.9737   -0.3115   -1.5578 H   0  0  0  0  0  0  0  0  0  0  0  0
   -4.1920   -0.3325   -1.4759 H   0  0  0  0  0  0  0  0  0  0  0  0
   -4.3181    1.4062   -1.3768 H   0  0  0  0  0  0  0  0  0  0  0  0
   -5.4079   -0.1126    0.3959 H   0  0  0  0  0  0  0  0  0  0  0  0
   -4.7078    1.4400    0.8732 H   0  0  0  0  0  0  0  0  0  0  0  0
   -0.6429   -0.9667    1.3194 H   0  0  0  0  0  0  0  0  0  0  0  0
    2.0755    0.1143   -1.5047 H   0  0  0  0  0  0  0  0  0  0  0  0
    0.0579   -0.6877   -1.5270 H   0  0  0  0  0  0  0  0  0  0  0  0
    0.3858   -2.8122   -1.3878 H   0  0  0  0  0  0  0  0  0  0  0  0
   -0.1493   -2.7670    0.2805 H   0  0  0  0  0  0  0  0  0  0  0  0
    2.0813   -3.8802   -0.3901 H   0  0  0  0  0  0  0  0  0  0  0  0
    2.0692   -2.9544    1.1207 H   0  0  0  0  0  0  0  0  0  0  0  0
    4.0346   -2.4485   -0.1186 H   0  0  0  0  0  0  0  0  0  0  0  0
    3.0915   -1.8707   -1.5556 H   0  0  0  0  0  0  0  0  0  0  0  0
    2.7803   -0.8043    1.3168 H   0  0  0  0  0  0  0  0  0  0  0  0
    3.7674   -0.0639   -0.0734 H   0  0  0  0  0  0  0  0  0  0  0  0
    0.8748    1.8923   -0.7134 H   0  0  0  0  0  0  0  0  0  0  0  0
    1.0606    1.3756    1.0509 H   0  0  0  0  0  0  0  0  0  0  0  0
    2.3997    3.2206    0.3097 H   0  0  0  0  0  0  0  0  0  0  0  0
    3.7722    3.1620   -1.3264 H   0  0  0  0  0  0  0  0  0  0  0  0
    4.5267    2.0546    0.8843 H   0  0  0  0  0  0  0  0  0  0  0  0
   -3.2875   -1.2892    0.9058 H   0  0  0  0  0  0  0  0  0  0  0  0
   -3.9837   -0.4411    2.3876 H   0  0  0  0  0  0  0  0  0  0  0  0
   -1.7677    0.3345    2.4203 H   0  0  0  0  0  0  0  0  0  0  0  0
   -1.0102    1.5890    0.3180 H   0  0  0  0  0  0  0  0  0  0  0  0
   -1.9737   -0.3115   -1.5578 H   0  0  0  0  0  0  0  0  0  0  0  0
   -4.1920   -0.3325   -1.4759 H   0  0  0  0  0  0  0  0  0  0  0  0
   -4.3181    1.4062   -1.3768 H   0  0  0  0  0  0  0  0  0  0  0  0
   -5.4079   -0.1126    0.3959 H   0  0  0  0  0  0  0  0  0  0  0  0
   -4.7078    1.4400    0.8732 H   0  0  0  0  0  0  0  0  0  0  0  0
   -0.6429   -0.9667    1.3194 H   0  0  0  0  0  0  0  0  0  0  0  0
    2.0755    0.1143   -1.5047 H   0  0  0  0  0  0  0  0  0  0  0  0
    0.0579   -0.6877   -1.5270 H   0  0  0  0  0  0  0  0  0  0  0  0
    0.3858   -2.8122   -1.3878 H   0  0  0  0  0  0  0  0  0  0  0  0
   -0.1493   -2.7670    0.2805 H   0  0  0  0  0  0  0  0  0  0  0  0
    2.0813   -3.8802   -0.3901 H   0  0  0  0  0  0  0  0  0  0  0  0
    2.0692   -2.9544    1.1207 H   0  0  0  0  0  0  0  0  0  0  0  0
    4.0346   -2.4485   -0.1186 H   0  0  0  0  0  0  0  0  0  0  0  0
    3.0915   -1.8707   -1.5556 H   0  0  0  0  0  0  0  0  0  0  0  0
    2.7803   -0.8043    1.3168 H   0  0  0  0  0  0  0  0  0  0  0  0
    3.7674   -0.0639   -0.0734 H   0  0  0  0  0  0  0  0  0  0  0  0
    0.8748    1.8923   -0.7134 H   0  0  0  0  0  0  0  0  0  0  0  0
    1.0606    1.3756    1.0509 H   0  0  0  0  0  0  0  0  0  0  0  0
    2.3997    3.2206    0.3097 H   0  0  0  0  0  0  0  0  0  0  0  0
    3.7722    3.1620   -1.3264 H   0  0  0  0  0  0  0  0  0  0  0  0
    4.5267    2.0546    0.8843 H   0  0  0  0  0  0  0  0  0  0  0  0
   -3.2875   -1.2892    0.9058 H   0  0  0  0  0  0  0  0  0  0  0  0
   -3.9837   -0.4411    2.3876 H   0  0  0  0  0  0  0  0  0  0  0  0
   -1.7677    0.3345    2.4203 H   0  0  0  0  0  0  0  0  0  0  0  0
   -1.0102    1.5890    0.3180 H   0  0  0  0  0  0  0  0  0  0  0  0
   -1.9737   -0.3115   -1.5578 H   0  0  0  0  0  0  0  0  0  0  0  0
   -4.1920   -0.3325   -1.4759 H   0  0  0  0  0  0  0  0  0  0  0  0
   -4.3181    1.4062   -1.3768 H   0  0  0  0  0  0  0  0  0  0  0  0
   -5.4079   -0.1126    0.3959 H   0  0  0  0  0  0  0  0  0  0  0  0
   -4.7078    1.4400    0.8732 H   0  0  0  0  0  0  0  0  0  0  0  0
   -0.6429   -0.9667    1.3194 H   0  0  0  0  0  0  0  0  0  0  0  0
    2.0755    0.1143   -1.5047 H   0  0  0  0  0  0  0  0  0  0  0  0
    0.0579   -0.6877   -1.5270 H   0  0  0  0  0  0  0  0  0  0  0  0
    0.3858   -2.8122   -1.3878 H   0  0  0  0  0  0  0  0  0  0  0  0
   -0.1493   -2.7670    0.2805 H   0  0  0  0  0  0  0  0  0  0  0  0
    2.0813   -3.8802   -0.3901 H   0  0  0  0  0  0  0  0  0  0  0  0
    2.0692   -2.9544    1.1207 H   0  0  0  0  0  0  0  0  0  0  0  0
    4.0346   -2.4485   -0.1186 H   0  0  0  0  0  0  0  0  0  0  0  0
    3.0915   -1.8707   -1.5556 H   0  0  0  0  0  0  0  0  0  0  0  0
    2.7803   -0.8043    1.3168 H   0  0  0  0  0  0  0  0  0  0  0  0
    3.7674   -0.0639   -0.0734 H   0  0  0  0  0  0  0  0  0  0  0  0
    0.8748    1.8923   -0.7134 H   0  0  0  0  0  0  0  0  0  0  0  0
    1.0606    1.3756    1.0509 H   0  0  0  0  0  0  0  0  0  0  0  0
    2.3997    3.2206    0.3097 H   0  0  0  0  0  0  0  0  0  0  0  0
    3.7722    3.1620   -1.3264 H   0  0  0  0  0  0  0  0  0  0  0  0
    4.5267    2.0546    0.8843 H   0  0  0  0  0  0  0  0  0  0  0  0
   -3.2875   -1.2892    0.9058 H   0  0  0  0  0  0  0  0  0  0  0  0
   -3.9837   -0.4411    2.3876 H   0  0  0  0  0  0  0  0  0  0  0  0
   -1.7677    0.3345    2.4203 H   0  0  0  0  0  0  0  0  0  0  0  0
   -1.0102    1.5890    0.3180 H   0  0  0  0  0  0  0  0  0  0  0  0
   -1.9737   -0.3115   -1.5578 H   0  0  0  0  0  0  0  0  0  0  0  0
   -4.1920   -0.3325   -1.4759 H   0  0  0  0  0  0  0  0  0  0  0  0
   -4.3181    1.4062   -1.3768 H   0  0  0  0  0  0  0  0  0  0  0  0
   -5.4079   -0.1126    0.3959 H   0  0  0  0  0  0  0  0  0  0  0  0
   -4.7078    1.4400    0.8732 H   0  0  0  0  0  0  0  0  0  0  0  0
   -0.6429   -0.9667    1.3194 H   0  0  0  0  0  0  0  0  0  0  0  0
    2.0755    0.1143   -1.5047 H   0  0  0  0  0  0  0  0  0  0  0  0
    0.0579   -0.6877   -1.5270 H   0  0  0  0  0  0  0  0  0  0  0  0
    0.3858   -2.8122   -1.3878 H   0  0  0  0  0  0  0  0  0  0  0  0
   -0.1493   -2.7670    0.2805 H   0  0  0  0  0  0  0  0  0  0  0  0
    2.0813   -3.8802   -0.3901 H   0  0  0  0  0  0  0  0  0  0  0  0
    2.0692   -2.9544    1.1207 H   0  0  0  0  0  0  0  0  0  0  0  0
    4.0346   -2.4485   -0.1186 H   0  0  0  0  0  0  0  0  0  0  0  0
    3.0915   -1.8707   -1.5556 H   0  0  0  0  0  0  0  0  0  0  0  0
    2.7803   -0.8043    1.3168 H   0  0  0  0  0  0  0  0  0  0  0  0
    3.7674   -0.0639   -0.0734 H   0  0  0  0  0  0  0  0  0  0  0  0
    0.8748    1.8923   -0.7134 H   0  0  0  0  0  0  0  0  0  0  0  0
    1.0606    1.3756    1.0509 H   0  0  0  0  0  0  0  0  0  0  0  0
    2.3997    3.2206    0.3097 H   0  0  0  0  0  0  0  0  0  0  0  0
    3.7722    3.1620   -1.3264 H   0  0  0  0  0  0  0  0  0  0  0  0
    4.5267    2.0546    0.8843 H   0  0  0  0  0  0  0  0  0  0  0  0
  1  2  1  0
  2  3  1  0
  2  4  1  0
  4  5  1  0
  5  6  1  0
  5  7  1  0
  1  8  1  0
  7  8  1  0
  4  9  1  0
  9 11  1  0
 10 11  1  0
 11 12  1  0
 12 13  1  0
 13 14  1  0
 10 15  1  0
 14 15  1  0
 10 16  1  0
 16 17  1  0
 17 18  1  0
 17 19  1  0
 20 21  1  0
 21 22  1  0
 21 23  1  0
 23 24  1  0
 24 25  1  0
 24 26  1  0
 20 27  1  0
 26 27  1  0
 23 28  1  0
 28 30  1  0
 29 30  1  0
 30 31  1  0
 31 32  1  0
 32 33  1  0
 29 34  1  0
 33 34  1  0
 29 35  1  0
 35 36  1  0
 36 37  1  0
 36 38  1  0
 39 40  1  0
 40 41  1  0
 40 42  1  0
 42 43  1  0
 43 44  1  0
 43 45  1  0
 39 46  1  0
 45 46  1  0
 42 47  1  0
 47 49  1  0
 48 49  1  0
 49 50  1  0
 50 51  1  0
 51 52  1  0
 48 53  1  0
 52 53  1  0
 48 54  1  0
 54 55  1  0
 55 56  1  0
 55 57  1  0
 58 59  1  0
 59 60  1  0
 59 61  1  0
 61 62  1  0
 62 63  1  0
 62 64  1  0
 58 65  1  0
 64 65  1  0
 61 66  1  0
 66 68  1  0
 67 68  1  0
 68 69  1  0
 69 70  1  0
 70 71  1  0
 67 72  1  0
 71 72  1  0
 67 73  1  0
 73 74  1  0
 74 75  1  0
 74 76  1  0
  1 77  1  0
  1 78  1  0
  2 79  1  1
  4 80  1  0
  5 81  1  0
  7 82  1  0
  7 83  1  0
  8 84  1  0
  8 85  1  0
  9 86  1  0
 10 87  1  6
 11 88  1  6
 12 89  1  0
 12 90  1  0
 13 91  1  0
 13 92  1  0
 14 93  1  0
 14 94  1  0
 15 95  1  0
 15 96  1  0
 16 97  1  0
 16 98  1  0
 17 99  1  0
 18100  1  0
 19101  1  0
 20102  1  0
 20103  1  0
 21104  1  1
 23105  1  0
 24106  1  0
 26107  1  0
 26108  1  0
 27109  1  0
 27110  1  0
 28111  1  0
 29112  1  6
 30113  1  6
 31114  1  0
 31115  1  0
 32116  1  0
 32117  1  0
 33118  1  0
 33119  1  0
 34120  1  0
 34121  1  0
 35122  1  0
 35123  1  0
 36124  1  0
 37125  1  0
 38126  1  0
 39127  1  0
 39128  1  0
 40129  1  1
 42130  1  0
 43131  1  0
 45132  1  0
 45133  1  0
 46134  1  0
 46135  1  0
 47136  1  0
 48137  1  6
 49138  1  6
 50139  1  0
 50140  1  0
 51141  1  0
 51142  1  0
 52143  1  0
 52144  1  0
 53145  1  0
 53146  1  0
 54147  1  0
 54148  1  0
 55149  1  0
 56150  1  0
 57151  1  0
 58152  1  0
 58153  1  0
 59154  1  1
 61155  1  0
 62156  1  0
 64157  1  0
 64158  1  0
 65159  1  0
 65160  1  0
 66161  1  0
 67162  1  6
 68163  1  6
 69164  1  0
 69165  1  0
 70166  1  0
 70167  1  0
 71168  1  0
 71169  1  0
 72170  1  0
 72171  1  0
 73172  1  0
 73173  1  0
 74174  1  0
 75175  1  0
 76176  1  0
M  END
>  <PDBID>  (1) 
1PXX

>  <PDB ID>  (1) 
1PXX

>  <Generic Name>  (1) 
Diclofenac

>  <Brand Name>  (1) 
Act Diclo-miso#Apo-diclo#Apo-diclo Rapide 50 Mg Tablets#Apo-diclo SR#Apo-diclofenac#Apo-diclofenac Ophthalmic#Arthrotec#Arthrotec 50#Arthrotec 75#Ava-diclofenac#Ava-diclofenac SR#Cambia#Cataflam#Diclo Gel 1% With Xrylix Sheets#Diclofenac#Diclofenac EC#Diclofenac Ect 25mg#Diclofenac Ect 50mg#Diclofenac K#Diclofenac Misoprostol#Diclofenac Potassium#Diclofenac Potassium for Oral Solution#Diclofenac SR#Diclofenac Sodium#Diclofenac Sodium 3 Percent#Diclofenac Sodium D/r#Diclofenac Sodium Delayed Release#Diclofenac Sodium Delayed Release Delayed Release#Diclofenac Sodium Dr#Diclofenac Sodium Extended-release#Diclofenac Sodium and Misoprostol#Diclofenac Sodium and Misoprostol Delayed-release#Diclofenac Topical Solution#Diclofenac-SR#Diclotec#Diclozor#Dipentocaine Topical Cream Compounding Kit#Dom-diclofenac#Dom-diclofenac-SR#Dyloject#Flector#Gapeam Budibac#Gd-diclofenac/misoprostol 50#Gd-diclofenac/misoprostol 75#Infla-eze#Klofensaid II#Lexixryl#Ntp-diclofenac Potassium#Ntp-diclofenac Sodium#Ntp-diclofenac Sodium SR#Nu-diclo Enteric Coated Tab 25mg#Nu-diclo Enteric Coated Tab 50mg#Nu-diclo Rapide#Nu-diclo SR - Srt 100mg#Nu-diclo SR - Srt 75mg#PMS-diclofenac#PMS-diclofenac K#PMS-diclofenac-SR#PMS-diclofenac-misoprostol#Pennsaid#Penta-diclofenac - 25mg#Penta-diclofenac - 50mg#Previdolrx Analgesic Pak#Previdolrx Plus Analgesic Pak#Pro-diclo Rapide - 50#Rho-diclofenac#Riva-diclofenac 100mg SR Tablets#Riva-diclofenac 50mg Tablets#Riva-diclofenac 75mg SR Tablets#Riva-diclofenac-K 50mg Tablets#Sandoz Diclofenac#Sandoz Diclofenac Misoprostol#Sandoz Diclofenac Ophtha#Sandoz-diclofenac#Sandoz-diclofenac Rapide#Sandoz-diclofenac SR#Solaraze#Taro-diclofenac#Taro-diclofenac Tab 25mg#Taro-diclofenac Tab 50mg#Teva-diclofenac#Teva-diclofenac EC#Teva-diclofenac SR#Teva-diclofenac-K#Vofenal 0.1%#Voltaren#Voltaren Emulgel#Voltaren Emulgel Extra Strength#Voltaren Emulgel Joint Pain#Voltaren Ophtha#Voltaren Rapide Tablets 50mg#Voltaren SR 75 Tab#Voltaren SR Tab 100mg#Voltaren Sup 100mg#Voltaren Sup 50mg#Voltaren Tab 25mg#Voltaren Tab 50mg#Voltaren XR#Xrylix#Zipsor#Zorvolex#Aclonac#Allvoran#Ecofenac#Effekton#Nu-Diclo#Primofenac#Prophenatin#Rhumalgan#Voltaren Emulgel#Voltarol

>  <DrugBank ID>  (1) 
DB00586

>  <ATC Codes>  (1) 
M01AB05#S01BC03#M01AB55#M02AA15#D11AX18#S01CC01

>  <Ligand ID>  (1) 
DIF

>  <Target Name>  (1) 
Prostaglandin G/H synthase 1

>  <UniProt ID>  (1) 
P23219

>  <PDB ID.1>  (1) 
1PXX

>  <Seq. Identity>  (1) 
61%

$$$$
