PDB_DB01024_02
     RDKit          3D

110112  0  0  0  0  0  0  0  0999 V2000
   -2.7719   -2.6660    0.5644 C   0  0  0  0  0  0  0  0  0  0  0  0
    1.3986    0.1368   -1.5523 C   0  0  0  0  0  0  0  0  0  0  0  0
    2.2844    0.0785   -0.2858 C   0  0  0  0  0  0  0  0  0  0  0  0
    3.4348   -0.7860   -0.6925 C   0  0  0  0  0  0  0  0  0  0  0  0
    4.4659   -1.1931    0.2410 C   0  0  0  0  0  0  0  0  0  0  0  0
    5.2796   -0.2229    0.9914 C   0  0  0  0  0  0  0  0  0  0  0  0
   -2.7379    1.2393    2.0517 C   0  0  0  0  0  0  0  0  0  0  0  0
   -2.4980    2.6440   -2.1325 C   0  0  0  0  0  0  0  0  0  0  0  0
    2.8303    1.5203   -0.1379 C   0  0  0  0  0  0  0  0  0  0  0  0
   -4.3373   -1.1752    1.2240 C   0  0  0  0  0  0  0  0  0  0  0  0
   -3.3824   -0.4734    0.3410 C   0  0  0  0  0  0  0  0  0  0  0  0
   -3.0539    0.9282    0.6268 C   0  0  0  0  0  0  0  0  0  0  0  0
   -1.9511    1.3551   -0.3212 C   0  0  0  0  0  0  0  0  0  0  0  0
   -0.7761    0.4338   -0.3228 C   0  0  1  0  0  0  0  0  0  0  0  0
   -1.2073   -1.0200   -0.5438 C   0  0  0  0  0  0  0  0  0  0  0  0
   -2.1288   -1.3249    0.6145 C   0  0  0  0  0  0  0  0  0  0  0  0
    0.1665    0.9191   -1.3939 C   0  0  0  0  0  0  0  0  0  0  0  0
   -2.8694   -3.0719   -0.7849 O   0  0  0  0  0  0  0  0  0  0  0  0
   -4.0785   -2.5346    1.0232 O   0  0  0  0  0  0  0  0  0  0  0  0
   -2.5164    1.3625   -1.5942 O   0  0  0  0  0  0  0  0  0  0  0  0
   -0.1420   -1.8731   -0.4502 O   0  0  0  0  0  0  0  0  0  0  0  0
    4.6115    0.6054    1.8745 O   0  0  0  0  0  0  0  0  0  0  0  0
    6.2847   -0.8500    1.7570 O   0  0  0  0  0  0  0  0  0  0  0  0
   -2.7454   -2.8706    0.6391 C   0  0  2  0  0  0  0  0  0  0  0  0
    1.4503    0.1278   -1.3547 C   0  0  0  0  0  0  0  0  0  0  0  0
    2.1708    0.4856   -0.0885 C   0  0  0  0  0  0  0  0  0  0  0  0
    3.5467   -0.1892   -0.1685 C   0  0  0  0  0  0  0  0  0  0  0  0
    4.3619    0.1110    1.0716 C   0  0  0  0  0  0  0  0  0  0  0  0
    5.6941   -0.5935    0.9009 C   0  0  0  0  0  0  0  0  0  0  0  0
   -2.7467    1.2394    1.6624 C   0  0  0  0  0  0  0  0  0  0  0  0
   -2.3755    2.7398   -2.1360 C   0  0  0  0  0  0  0  0  0  0  0  0
    2.4418    1.9664    0.0395 C   0  0  0  0  0  0  0  0  0  0  0  0
   -4.3418   -1.4154    1.2903 C   0  0  0  0  0  0  0  0  0  0  0  0
   -3.4742   -0.7520    0.3132 C   0  0  0  0  0  0  0  0  0  0  0  0
   -3.2357    0.6783    0.3847 C   0  0  2  0  0  0  0  0  0  0  0  0
   -2.1906    0.9860   -0.6998 C   0  0  2  0  0  0  0  0  0  0  0  0
   -0.8692    0.2847   -0.3875 C   0  0  1  0  0  0  0  0  0  0  0  0
   -1.1205   -1.2240   -0.3888 C   0  0  2  0  0  0  0  0  0  0  0  0
   -2.1649   -1.4978    0.6210 C   0  0  0  0  0  0  0  0  0  0  0  0
    0.0807    0.6983   -1.4601 C   0  0  0  0  0  0  0  0  0  0  0  0
   -2.9892   -3.2383   -0.7030 O   0  0  0  0  0  0  0  0  0  0  0  0
   -3.9699   -2.7678    1.2542 O   0  0  0  0  0  0  0  0  0  0  0  0
   -2.0087    2.3392   -0.8528 O   0  0  0  0  0  0  0  0  0  0  0  0
    0.0353   -1.8867    0.0229 O   0  0  0  0  0  0  0  0  0  0  0  0
    6.2814   -0.0690   -0.2520 O   0  0  0  0  0  0  0  0  0  0  0  0
    5.4355   -1.9559    0.7475 O   0  0  0  0  0  0  0  0  0  0  0  0
   -2.2203   -3.4584    1.0817 H   0  0  0  0  0  0  0  0  0  0  0  0
    1.3231   -0.8717   -1.9514 H   0  0  0  0  0  0  0  0  0  0  0  0
    2.0513    0.6994   -2.2864 H   0  0  0  0  0  0  0  0  0  0  0  0
    1.7638   -0.2038    0.6026 H   0  0  0  0  0  0  0  0  0  0  0  0
    3.9314   -0.3425   -1.6156 H   0  0  0  0  0  0  0  0  0  0  0  0
    2.9463   -1.7235   -1.1247 H   0  0  0  0  0  0  0  0  0  0  0  0
    5.2392   -1.8527   -0.3168 H   0  0  0  0  0  0  0  0  0  0  0  0
    4.0291   -1.9729    0.9535 H   0  0  0  0  0  0  0  0  0  0  0  0
    5.8641    0.4634    0.2961 H   0  0  0  0  0  0  0  0  0  0  0  0
   -3.6250    0.9801    2.6614 H   0  0  0  0  0  0  0  0  0  0  0  0
   -2.6551    2.3634    2.1280 H   0  0  0  0  0  0  0  0  0  0  0  0
   -1.8119    0.7658    2.4163 H   0  0  0  0  0  0  0  0  0  0  0  0
   -3.0885    3.2923   -1.4485 H   0  0  0  0  0  0  0  0  0  0  0  0
   -2.9681    2.6415   -3.1284 H   0  0  0  0  0  0  0  0  0  0  0  0
   -1.4692    3.0434   -2.2201 H   0  0  0  0  0  0  0  0  0  0  0  0
    2.5642    1.8657    0.8624 H   0  0  0  0  0  0  0  0  0  0  0  0
    2.2927    2.2047   -0.8558 H   0  0  0  0  0  0  0  0  0  0  0  0
    3.8837    1.5792   -0.3892 H   0  0  0  0  0  0  0  0  0  0  0  0
   -5.3878   -0.9160    0.9928 H   0  0  0  0  0  0  0  0  0  0  0  0
   -4.0834   -0.9724    2.2891 H   0  0  0  0  0  0  0  0  0  0  0  0
   -3.6287   -0.5863   -0.7278 H   0  0  0  0  0  0  0  0  0  0  0  0
   -3.9461    1.5599    0.3489 H   0  0  0  0  0  0  0  0  0  0  0  0
   -1.6208    2.3668   -0.0736 H   0  0  0  0  0  0  0  0  0  0  0  0
   -0.2880    0.4677    0.6622 H   0  0  0  0  0  0  0  0  0  0  0  0
   -1.7934   -1.1069   -1.4740 H   0  0  0  0  0  0  0  0  0  0  0  0
   -1.6836   -1.0913    1.5829 H   0  0  0  0  0  0  0  0  0  0  0  0
   -0.3617    0.9282   -2.3724 H   0  0  0  0  0  0  0  0  0  0  0  0
    0.3864    1.9682   -1.1655 H   0  0  0  0  0  0  0  0  0  0  0  0
   -3.7235   -3.5563   -0.9455 H   0  0  0  0  0  0  0  0  0  0  0  0
    0.0454   -2.0422    0.5057 H   0  0  0  0  0  0  0  0  0  0  0  0
    5.2789    1.2234    2.2541 H   0  0  0  0  0  0  0  0  0  0  0  0
    6.4502   -1.7480    1.3607 H   0  0  0  0  0  0  0  0  0  0  0  0
   -2.0879   -3.6429    1.0782 H   0  0  0  0  0  0  0  0  0  0  0  0
    1.5196   -0.9560   -1.5221 H   0  0  0  0  0  0  0  0  0  0  0  0
    2.0525    0.5925   -2.1928 H   0  0  0  0  0  0  0  0  0  0  0  0
    1.6927    0.1508    0.8287 H   0  0  0  0  0  0  0  0  0  0  0  0
    4.0985    0.1294   -1.0761 H   0  0  0  0  0  0  0  0  0  0  0  0
    3.4413   -1.2913   -0.2330 H   0  0  0  0  0  0  0  0  0  0  0  0
    3.8623   -0.3328    1.9569 H   0  0  0  0  0  0  0  0  0  0  0  0
    4.4882    1.2008    1.1998 H   0  0  0  0  0  0  0  0  0  0  0  0
    6.3296   -0.3981    1.7712 H   0  0  0  0  0  0  0  0  0  0  0  0
   -3.5790    1.4087    2.4074 H   0  0  0  0  0  0  0  0  0  0  0  0
   -2.3696    2.2850    1.4539 H   0  0  0  0  0  0  0  0  0  0  0  0
   -1.9149    0.7109    2.1287 H   0  0  0  0  0  0  0  0  0  0  0  0
   -1.8030    2.2556   -2.9337 H   0  0  0  0  0  0  0  0  0  0  0  0
   -2.2348    3.8600   -2.1525 H   0  0  0  0  0  0  0  0  0  0  0  0
   -3.4772    2.6002   -2.2558 H   0  0  0  0  0  0  0  0  0  0  0  0
    2.6861    2.1512    1.1235 H   0  0  0  0  0  0  0  0  0  0  0  0
    1.5539    2.5829   -0.1676 H   0  0  0  0  0  0  0  0  0  0  0  0
    3.3360    2.2789   -0.5315 H   0  0  0  0  0  0  0  0  0  0  0  0
   -5.4245   -1.3049    1.0965 H   0  0  0  0  0  0  0  0  0  0  0  0
   -4.0725   -1.0605    2.3264 H   0  0  0  0  0  0  0  0  0  0  0  0
   -3.7438   -1.0503   -0.7115 H   0  0  0  0  0  0  0  0  0  0  0  0
   -4.1419    1.2391    0.0721 H   0  0  0  0  0  0  0  0  0  0  0  0
   -2.5849    0.5037   -1.6184 H   0  0  0  0  0  0  0  0  0  0  0  0
   -0.5490    0.6210    0.6164 H   0  0  0  0  0  0  0  0  0  0  0  0
   -1.4165   -1.5130   -1.4102 H   0  0  0  0  0  0  0  0  0  0  0  0
   -1.7979   -1.2642    1.6344 H   0  0  0  0  0  0  0  0  0  0  0  0
   -0.3531    0.4115   -2.4334 H   0  0  0  0  0  0  0  0  0  0  0  0
    0.1602    1.8024   -1.4333 H   0  0  0  0  0  0  0  0  0  0  0  0
   -3.8855   -3.6642   -0.7884 H   0  0  0  0  0  0  0  0  0  0  0  0
    0.0518   -1.9208    1.0195 H   0  0  0  0  0  0  0  0  0  0  0  0
    6.6575    0.8200   -0.0521 H   0  0  0  0  0  0  0  0  0  0  0  0
    6.2395   -2.4018    0.3431 H   0  0  0  0  0  0  0  0  0  0  0  0
  2  3  1  0
  3  4  1  0
  4  5  1  0
  5  6  1  0
  3  9  1  0
 10 11  1  0
  7 12  1  0
 11 12  1  0
 12 13  1  0
 13 14  1  0
 14 15  1  0
  1 16  1  0
 11 16  1  0
 15 16  1  0
  2 17  1  0
 14 17  1  0
  1 18  1  0
  1 19  1  0
 10 19  1  0
  8 20  1  0
 13 20  1  0
 15 21  1  0
  6 22  1  0
  6 23  1  0
 25 26  1  0
 26 27  1  0
 27 28  1  0
 28 29  1  0
 26 32  1  0
 33 34  1  0
 30 35  1  0
 34 35  1  0
 35 36  1  0
 36 37  1  0
 37 38  1  0
 24 39  1  0
 34 39  1  0
 38 39  1  0
 25 40  1  0
 37 40  1  0
 24 41  1  0
 24 42  1  0
 33 42  1  0
 31 43  1  0
 36 43  1  0
 38 44  1  0
 29 45  1  0
 29 46  1  0
  1 47  1  0
  2 48  1  0
  2 49  1  0
  3 50  1  0
  4 51  1  0
  4 52  1  0
  5 53  1  0
  5 54  1  0
  6 55  1  0
  7 56  1  0
  7 57  1  0
  7 58  1  0
  8 59  1  0
  8 60  1  0
  8 61  1  0
  9 62  1  0
  9 63  1  0
  9 64  1  0
 10 65  1  0
 10 66  1  0
 11 67  1  0
 12 68  1  0
 13 69  1  0
 14 70  1  1
 15 71  1  0
 16 72  1  0
 17 73  1  0
 17 74  1  0
 18 75  1  0
 21 76  1  0
 22 77  1  0
 23 78  1  0
 24 79  1  1
 25 80  1  0
 25 81  1  0
 26 82  1  0
 27 83  1  0
 27 84  1  0
 28 85  1  0
 28 86  1  0
 29 87  1  0
 30 88  1  0
 30 89  1  0
 30 90  1  0
 31 91  1  0
 31 92  1  0
 31 93  1  0
 32 94  1  0
 32 95  1  0
 32 96  1  0
 33 97  1  0
 33 98  1  0
 34 99  1  0
 35100  1  6
 36101  1  6
 37102  1  1
 38103  1  6
 39104  1  0
 40105  1  0
 40106  1  0
 41107  1  0
 44108  1  0
 45109  1  0
 46110  1  0
M  END
>  <PDBID>  (1) 
1JR1

>  <PDB ID>  (1) 
1JR1

>  <Generic Name>  (1) 
Mycophenolic acid

>  <Brand Name>  (1) 
Apo-mycophenolic Acid#Mycophenolic Acid#Myfortic#Melbex

>  <DrugBank ID>  (1) 
DB01024

>  <ATC Codes>  (1) 
L04AA06

>  <Ligand ID>  (1) 
MOA

>  <Target Name>  (1) 
Inosine-5'-monophosphate dehydrogenase 2

>  <UniProt ID>  (1) 
P12268

>  <PDB ID.1>  (1) 
1JR1

>  <Seq. Identity>  (1) 
99%

$$$$
