PDB_DB01336_09
     RDKit          3D

  0  0  0  0  0  0  0  0  0  0999 V3000
M  V30 BEGIN CTAB
M  V30 COUNTS 960 1008 0 0 0
M  V30 BEGIN ATOM
M  V30 1 N -4.84579 -2.67484 -0.249101 0 CHG=1
M  V30 2 C -5.67479 -2.43423 0.910406 0
M  V30 3 C -6.23819 -1.05382 0.857206 0
M  V30 4 C -5.16984 -0.0772158 0.518168 0
M  V30 5 C -3.77088 -0.650843 0.517587 0
M  V30 6 C -3.57459 -1.94933 -0.122551 0 CFG=2
M  V30 7 C -5.16816 0.97737 1.61436 0
M  V30 8 C -4.12278 2.05236 1.42395 0
M  V30 9 C -2.7382 1.45531 1.19547 0
M  V30 10 C -2.88897 0.493842 0.0580037 0
M  V30 11 O -1.71723 2.255 1.25409 0
M  V30 12 C -0.809357 2.67594 0.42163 0
M  V30 13 C -1.18151 3.82349 -0.488608 0
M  V30 14 C 0.158412 4.54201 -0.796979 0
M  V30 15 C 0.947218 3.52131 -1.54482 0
M  V30 16 C 1.43542 2.36838 -0.637871 0
M  V30 17 C 0.0810544 1.67723 -0.302743 0
M  V30 18 C 2.33894 1.51918 -1.41928 0
M  V30 19 C 3.6348 1.04518 -0.883128 0 CFG=1
M  V30 20 N 4.60092 2.09455 -0.901242 0 CHG=1
M  V30 21 C 5.95922 1.72315 -0.582792 0
M  V30 22 C 6.08164 0.305538 -0.115296 0
M  V30 23 C 4.98855 0.149595 0.93121 0 CFG=1
M  V30 24 C 3.60148 0.198971 0.35096 0
M  V30 25 C 5.33487 -0.997126 1.78554 0
M  V30 26 C 4.2197 -1.98082 2.02236 0
M  V30 27 C 3.73748 -2.30779 0.604438 0
M  V30 28 C 2.89157 -1.10329 0.247584 0
M  V30 29 O 2.203 -1.33622 -0.868632 0
M  V30 30 C 1.35069 -2.32858 -1.06404 0
M  V30 31 C 0.327497 -1.81317 -2.1121 0
M  V30 32 C -0.686886 -2.88078 -2.43497 0
M  V30 33 C -1.58207 -2.99575 -1.24571 0
M  V30 34 C -0.872083 -2.86967 0.0352596 0
M  V30 35 C 0.62348 -2.97775 0.0332956 0
M  V30 36 C -2.77531 -2.02759 -1.37852 0
M  V30 37 O -4.15995 2.77613 2.62015 0
M  V30 38 C -4.61892 4.05772 2.51166 0
M  V30 39 O -1.90808 4.77586 0.175466 0
M  V30 40 O 4.735 -3.11559 2.618 0
M  V30 41 C 4.05592 -3.39831 3.80294 0
M  V30 42 O 4.75783 -2.59489 -0.241371 0
M  V30 43 C -4.56368 -4.12121 -0.22981 0
M  V30 44 C 4.67263 2.61909 -2.28248 0
M  V30 45 C 4.29358 3.25347 -0.095071 0
M  V30 46 C 4.80659 -3.90455 -0.616311 0
M  V30 47 C -5.56607 -2.38451 -1.4392 0
M  V30 48 C -2.99495 5.20684 -0.594508 0
M  V30 49 N -5.14016 -2.71464 -0.350516 0 CHG=1
M  V30 50 C -6.23498 -2.17839 0.389562 0
M  V30 51 C -6.17792 -0.680611 0.268051 0
M  V30 52 C -4.95656 -0.252724 1.03368 0 CFG=1
M  V30 53 C -3.6849 -0.919188 0.548996 0 CFG=1
M  V30 54 C -3.83083 -2.32075 0.133634 0 CFG=2
M  V30 55 C -4.87941 1.26289 0.877262 0
M  V30 56 C -3.51373 1.75303 1.37243 0 CFG=1
M  V30 57 C -2.4974 1.19884 0.457772 0
M  V30 58 C -3.06869 0.0499625 -0.407076 0
M  V30 59 O -1.82955 2.0468 -0.367466 0
M  V30 60 C -0.929752 2.79608 0.317921 0
M  V30 61 C -0.958743 4.20088 -0.301178 0
M  V30 62 C 0.0722551 4.19507 -1.41152 0
M  V30 63 C 0.0597924 2.85693 -2.06082 0
M  V30 64 C 0.677419 1.76388 -1.16321 0 CFG=2
M  V30 65 C 0.526612 2.27797 0.222005 0
M  V30 66 C 1.89004 1.19121 -1.68823 0
M  V30 67 C 3.20341 1.09492 -1.07529 0 CFG=1
M  V30 68 N 4.04335 2.28051 -1.13201 0 CHG=1
M  V30 69 C 5.45907 1.94674 -1.21034 0
M  V30 70 C 5.7652 0.595392 -0.678724 0
M  V30 71 C 4.88233 0.389747 0.532189 0 CFG=1
M  V30 72 C 3.40264 0.319414 0.200006 0 CFG=2
M  V30 73 C 5.4384 -0.68518 1.35815 0
M  V30 74 C 4.43869 -1.69483 1.87252 0 CFG=1
M  V30 75 C 3.75798 -2.17067 0.572723 0
M  V30 76 C 2.79442 -1.00224 0.302384 0 CFG=2
M  V30 77 O 1.92769 -1.42041 -0.63866 0
M  V30 78 C 1.30508 -2.58327 -0.542674 0
M  V30 79 C 0.239715 -2.59394 -1.66533 0
M  V30 80 C -0.665401 -3.76049 -1.43871 0
M  V30 81 C -1.5825 -3.38305 -0.280365 0
M  V30 82 C -0.87237 -2.59305 0.732245 0
M  V30 83 C 0.614512 -2.99611 0.689891 0
M  V30 84 C -2.82591 -2.81297 -0.884754 0
M  V30 85 O -3.56247 3.11012 1.52086 0
M  V30 86 C -3.54701 3.51568 2.87644 0
M  V30 87 O -0.678957 5.18703 0.640686 0
M  V30 88 O 4.9804 -2.69783 2.59212 0
M  V30 89 C 4.5717 -2.80917 3.90458 0
M  V30 90 O 4.72826 -2.36243 -0.321033 0
M  V30 91 C -5.27606 -4.17264 -0.26607 0
M  V30 92 C 3.79447 2.99285 -2.40072 0
M  V30 93 C 3.88973 3.23843 -0.109146 0
M  V30 94 C 4.95123 -3.54817 -0.912355 0
M  V30 95 C -5.32324 -2.38286 -1.75569 0
M  V30 96 C -1.70888 6.12134 0.656911 0
M  V30 97 N -5.03446 -2.93766 -0.285434 0 CHG=1
M  V30 98 C -6.0899 -2.54431 0.631325 0
M  V30 99 C -6.52591 -1.14601 0.317372 0
M  V30 100 C -5.4423 -0.241455 -0.139732 0
M  V30 101 C -4.0453 -0.753133 0.224647 0
M  V30 102 C -3.81477 -2.18595 -0.00443536 0 CFG=2
M  V30 103 C -5.58938 1.10316 0.535464 0
M  V30 104 C -4.4854 2.07592 0.250778 0
M  V30 105 C -3.12888 1.47444 0.362356 0
M  V30 106 C -3.14938 0.209286 -0.52433 0
M  V30 107 O -2.07975 2.21956 -0.0594841 0
M  V30 108 C -1.03099 2.36502 0.843515 0
M  V30 109 C -0.728992 3.82839 1.08632 0
M  V30 110 C 0.575581 4.1467 0.386494 0
M  V30 111 C 0.466713 3.58298 -0.995411 0
M  V30 112 C 0.696793 2.06261 -0.88543 0
M  V30 113 C 0.220639 1.60091 0.446567 0
M  V30 114 C 1.82862 1.52421 -1.57563 0
M  V30 115 C 3.21979 1.30473 -1.23226 0 CFG=1
M  V30 116 N 4.06962 2.2202 -0.570752 0 CHG=1
M  V30 117 C 5.48443 1.96692 -0.901645 0
M  V30 118 C 5.7254 1.00891 -1.9828 0
M  V30 119 C 5.08742 -0.32482 -1.54587 0
M  V30 120 C 3.67566 -0.174667 -1.18204 0 CFG=1
M  V30 121 C 6.01897 -0.913625 -0.527844 0
M  V30 122 C 5.40702 -1.25804 0.764683 0
M  V30 123 C 4.03674 -1.93793 0.591195 0
M  V30 124 C 3.12355 -0.946315 -0.0114692 0 CFG=2
M  V30 125 O 1.85092 -1.25784 -0.251566 0
M  V30 126 C 1.25555 -2.42967 -0.33687 0
M  V30 127 C 0.250694 -2.2664 -1.48836 0
M  V30 128 C -0.596585 -3.51066 -1.5171 0
M  V30 129 C -1.61725 -3.3385 -0.411814 0
M  V30 130 C -0.992196 -2.71671 0.804852 0
M  V30 131 C 0.498241 -2.9067 0.852694 0
M  V30 132 C -2.76355 -2.56505 -1.01044 0
M  V30 133 O -4.60591 3.13515 1.14029 0
M  V30 134 C -4.88381 4.33713 0.493425 0
M  V30 135 O -0.693514 4.13957 2.43722 0
M  V30 136 O 6.1775 -2.18003 1.46228 0
M  V30 137 C 6.5674 -1.73231 2.71171 0
M  V30 138 O 4.13763 -3.17911 0.108888 0
M  V30 139 C -4.75272 -4.3481 0.034297 0
M  V30 140 C 3.83361 3.53082 -1.21955 0
M  V30 141 C 4.04937 2.4266 0.80645 0
M  V30 142 C 4.00947 -4.25954 0.911268 0
M  V30 143 C -5.42602 -2.88989 -1.66004 0
M  V30 144 C -1.68793 5.08816 2.6782 0
M  V30 145 N -4.75785 -2.71254 -0.295041 0 CHG=1
M  V30 146 C -5.93361 -2.14416 0.337336 0
M  V30 147 C -6.22923 -0.832954 -0.303158 0
M  V30 148 C -5.05328 0.121784 -0.263948 0
M  V30 149 C -3.9138 -0.590562 0.444246 0
M  V30 150 C -3.57295 -1.92155 -0.123219 0 CFG=2
M  V30 151 C -5.46591 1.25846 0.624348 0
M  V30 152 C -4.36029 2.25046 0.924148 0
M  V30 153 C -3.12691 1.56866 1.38326 0
M  V30 154 C -2.73766 0.334162 0.65386 0
M  V30 155 O -2.06681 2.45067 1.58681 0
M  V30 156 C -1.24522 2.67797 0.526505 0 CFG=1
M  V30 157 C -0.81051 4.13629 0.351923 0 CFG=1
M  V30 158 C -0.253955 4.18055 -1.07827 0
M  V30 159 C 0.242783 2.83721 -1.51226 0
M  V30 160 C 1.08334 2.27317 -0.355528 0
M  V30 161 C 0.0375292 1.93103 0.721036 0
M  V30 162 C 1.85299 1.07504 -0.736806 0
M  V30 163 C 3.30923 1.02033 -0.769747 0 CFG=1
M  V30 164 N 4.05899 2.23437 -0.616591 0 CHG=1
M  V30 165 C 5.47411 1.89769 -0.85381 0
M  V30 166 C 6.04382 0.963311 0.105697 0
M  V30 167 C 5.30907 -0.373761 -0.0713921 0
M  V30 168 C 3.84773 -0.0836118 0.113705 0
M  V30 169 C 5.81317 -1.21005 1.08242 0
M  V30 170 C 4.73643 -2.12277 1.62397 0
M  V30 171 C 3.98386 -2.56674 0.331986 0
M  V30 172 C 3.10123 -1.38516 0.0051506 0
M  V30 173 O 2.4509 -1.60385 -1.16148 0
M  V30 174 C 1.55039 -2.5933 -1.26238 0
M  V30 175 C 0.556461 -2.20281 -2.37517 0
M  V30 176 C -0.675799 -3.07572 -2.33375 0
M  V30 177 C -1.47194 -2.8882 -1.07227 0
M  V30 178 C -0.581088 -2.29455 -0.03659 0
M  V30 179 C 0.751204 -3.01919 -0.109088 0
M  V30 180 C -2.66789 -1.94987 -1.30001 0
M  V30 181 O -4.89686 3.05225 1.93745 0
M  V30 182 C -5.21293 4.32647 1.57518 0
M  V30 183 O -1.87466 4.97978 0.409077 0
M  V30 184 O 5.2218 -3.20298 2.31504 0
M  V30 185 C 4.60696 -3.27438 3.56888 0
M  V30 186 O 4.90829 -2.88247 -0.63924 0
M  V30 187 C -4.61462 -4.04169 0.328423 0
M  V30 188 C 3.78223 3.205 -1.6437 0
M  V30 189 C 4.01598 2.8648 0.659231 0
M  V30 190 C 4.96323 -4.23472 -0.856019 0
M  V30 191 C -5.1193 -2.98071 -1.66714 0
M  V30 192 C -1.71991 5.99726 1.35555 0
M  V30 193 N -4.90019 -2.56033 -0.441237 0 CHG=1
M  V30 194 C -5.97565 -2.35813 0.545254 0
M  V30 195 C -6.21396 -0.893851 0.560759 0
M  V30 196 C -5.02329 -0.208489 1.13078 0 CFG=1
M  V30 197 C -3.68728 -0.802855 0.816915 0
M  V30 198 C -3.64882 -2.08261 0.11667 0 CFG=2
M  V30 199 C -5.12595 1.25578 0.666942 0
M  V30 200 C -4.072 2.09845 1.35701 0
M  V30 201 C -2.77301 1.38802 1.29721 0
M  V30 202 C -2.85563 0.327526 0.213652 0
M  V30 203 O -1.6677 2.19338 1.20462 0
M  V30 204 C -1.06408 2.32409 -0.00650274 0 CFG=1
M  V30 205 C -1.12743 3.78288 -0.405592 0
M  V30 206 C 0.0750823 4.07918 -1.29808 0
M  V30 207 C 0.301286 2.87309 -2.14131 0
M  V30 208 C 0.860693 1.70073 -1.30886 0 CFG=2
M  V30 209 C 0.451433 1.98558 0.0854251 0
M  V30 210 C 2.17023 1.25568 -1.71349 0
M  V30 211 C 3.37862 1.16435 -0.901892 0 CFG=1
M  V30 212 N 4.09547 2.41647 -0.67919 0 CHG=1
M  V30 213 C 5.53577 2.18749 -0.585134 0
M  V30 214 C 5.88978 0.845034 -0.0949942 0
M  V30 215 C 4.83689 0.347792 0.866234 0 CFG=1
M  V30 216 C 3.44635 0.259161 0.287845 0
M  V30 217 C 5.37275 -0.838241 1.55168 0
M  V30 218 C 4.53494 -2.05931 1.6137 0 CFG=1
M  V30 219 C 3.92777 -2.2268 0.220818 0
M  V30 220 C 2.90066 -1.09828 0.168059 0 CFG=2
M  V30 221 O 1.93551 -1.31765 -0.771626 0
M  V30 222 C 1.37786 -2.52464 -0.874497 0
M  V30 223 C 0.266186 -2.40042 -1.93607 0
M  V30 224 C -0.718179 -3.54524 -1.83213 0
M  V30 225 C -1.53437 -3.2801 -0.571484 0
M  V30 226 C -0.665726 -2.93736 0.565129 0
M  V30 227 C 0.814251 -3.20473 0.306007 0
M  V30 228 C -2.58748 -2.25974 -0.947341 0
M  V30 229 O -4.49833 2.38914 2.6469 0
M  V30 230 C -4.73498 3.71111 2.90502 0
M  V30 231 O -0.951208 4.56536 0.717046 0
M  V30 232 O 5.19029 -3.15956 2.05825 0
M  V30 233 C 4.69902 -3.72458 3.21781 0
M  V30 234 O 4.90543 -2.18157 -0.699148 0
M  V30 235 C -4.85877 -4.00733 -0.62004 0
M  V30 236 C 3.96754 3.27876 -1.85753 0
M  V30 237 C 3.72489 3.19864 0.428017 0
M  V30 238 C 5.10099 -3.24081 -1.52539 0
M  V30 239 C -5.23917 -1.99523 -1.71829 0
M  V30 240 C -1.91572 5.56243 0.832886 0
M  V30 241 N -4.90991 -2.83075 -0.0837839 0 CHG=1
M  V30 242 C -5.88093 -2.25859 0.820222 0
M  V30 243 C -6.40722 -0.970892 0.270372 0
M  V30 244 C -5.28695 -0.106148 -0.173644 0 CFG=2
M  V30 245 C -3.93193 -0.616023 0.262682 0
M  V30 246 C -3.66966 -2.03162 -0.078839 0 CFG=2
M  V30 247 C -5.39553 1.31688 0.285633 0
M  V30 248 C -4.29631 1.85171 1.11668 0
M  V30 249 C -2.90312 1.56899 0.695984 0
M  V30 250 C -2.98253 0.401588 -0.308697 0
M  V30 251 O -2.27289 2.58246 0.0302395 0
M  V30 252 C -0.937001 2.76674 0.476959 0
M  V30 253 C -0.70463 4.22279 0.49431 0 CFG=1
M  V30 254 C 0.737788 4.62922 0.296684 0
M  V30 255 C 1.18162 3.86285 -0.932442 0
M  V30 256 C 1.40847 2.43443 -0.460223 0 CFG=1
M  V30 257 C -0.0220345 1.90294 -0.250842 0
M  V30 258 C 2.04447 1.55272 -1.46888 0
M  V30 259 C 3.41014 1.02482 -1.22693 0 CFG=1
M  V30 260 N 4.45293 1.94582 -1.60405 0 CHG=1
M  V30 261 C 5.76265 1.33318 -1.74929 0
M  V30 262 C 5.93688 0.0978836 -0.951345 0
M  V30 263 C 5.11837 0.273043 0.305335 0 CFG=1
M  V30 264 C 3.63842 0.310447 0.0625056 0
M  V30 265 C 5.59611 -0.698521 1.32127 0
M  V30 266 C 4.48774 -1.49339 1.96676 0
M  V30 267 C 3.75822 -2.12261 0.76812 0
M  V30 268 C 2.91892 -0.995244 0.218412 0
M  V30 269 O 2.19951 -1.37802 -0.847439 0
M  V30 270 C 1.32974 -2.37428 -0.868884 0
M  V30 271 C 0.264179 -1.96661 -1.92519 0
M  V30 272 C -0.66878 -3.13 -2.12044 0
M  V30 273 C -1.58007 -3.16428 -0.940075 0
M  V30 274 C -0.888689 -2.79584 0.305019 0
M  V30 275 C 0.609047 -2.84424 0.318796 0
M  V30 276 C -2.80352 -2.29049 -1.26339 0
M  V30 277 O -4.55419 1.49997 2.44269 0
M  V30 278 C -4.84226 2.56165 3.25972 0
M  V30 279 O -1.44441 4.86318 -0.498752 0
M  V30 280 O 4.99388 -2.46753 2.78838 0
M  V30 281 C 4.45411 -2.39292 4.06355 0
M  V30 282 O 4.61018 -2.7324 -0.0876566 0
M  V30 283 C -4.61129 -4.16108 0.48612 0
M  V30 284 C 4.15138 2.44135 -2.96689 0
M  V30 285 C 4.61593 3.10914 -0.799789 0
M  V30 286 C 4.48096 -4.10908 -0.0172031 0
M  V30 287 C -5.41659 -3.0828 -1.3943 0
M  V30 288 C -2.30725 5.81887 0.0285158 0
M  V30 289 N -4.44668 -2.90323 0.735384 0 CHG=1
M  V30 290 C -5.3951 -2.26765 1.66082 0
M  V30 291 C -6.1137 -1.15334 0.954688 0
M  V30 292 C -5.0798 -0.221831 0.399314 0
M  V30 293 C -3.65756 -0.614637 0.745903 0
M  V30 294 C -3.30583 -2.02741 0.489942 0 CFG=2
M  V30 295 C -5.31469 1.13625 1.07396 0
M  V30 296 C -4.32006 2.18692 0.54517 0
M  V30 297 C -2.96377 1.67938 0.876395 0
M  V30 298 C -2.78755 0.403202 0.0367635 0
M  V30 299 O -1.91403 2.52086 0.794681 0
M  V30 300 C -1.18445 2.57366 -0.356295 0 CFG=1
M  V30 301 C -1.22316 4.06043 -0.770261 0
M  V30 302 C -0.122191 4.23387 -1.79788 0
M  V30 303 C 0.314742 2.94327 -2.39534 0
M  V30 304 C 0.946142 1.97382 -1.37447 0 CFG=2
M  V30 305 C 0.311801 2.26979 -0.0864421 0
M  V30 306 C 2.354 1.77718 -1.6085 0
M  V30 307 C 3.4502 1.50013 -0.68337 0 CFG=1
M  V30 308 N 3.67092 2.2884 0.496924 0 CHG=1
M  V30 309 C 5.0986 2.3203 0.868653 0
M  V30 310 C 5.94849 1.40002 0.093824 0
M  V30 311 C 5.38561 0.0137812 -0.0695865 0
M  V30 312 C 4.02566 0.114724 -0.693864 0
M  V30 313 C 5.36448 -0.737665 1.2593 0
M  V30 314 C 4.98674 -2.16035 0.913122 0
M  V30 315 C 4.19789 -2.19779 -0.417193 0 CFG=2
M  V30 316 C 3.17948 -1.07131 -0.330361 0 CFG=2
M  V30 317 O 2.12843 -1.16229 -1.16357 0
M  V30 318 C 1.41494 -2.30081 -1.28403 0
M  V30 319 C 0.087228 -1.87601 -1.95619 0
M  V30 320 C -0.72151 -3.16947 -2.05527 0
M  V30 321 C -1.43502 -3.24678 -0.695613 0
M  V30 322 C -0.470606 -2.82145 0.331225 0
M  V30 323 C 1.00451 -3.00706 -0.0389079 0
M  V30 324 C -2.64934 -2.31616 -0.827905 0
M  V30 325 O -4.67821 3.37502 1.16482 0
M  V30 326 C -5.18612 4.33292 0.32471 0
M  V30 327 O -0.825969 4.80857 0.337476 0
M  V30 328 O 4.13734 -2.72249 1.86053 0
M  V30 329 C 4.66365 -3.8752 2.42739 0
M  V30 330 O 3.74288 -3.45686 -0.506642 0
M  V30 331 C -4.03656 -4.13619 1.38189 0
M  V30 332 C 3.40933 3.6877 0.0946283 0
M  V30 333 C 2.97418 1.9625 1.67298 0
M  V30 334 C 4.37499 -4.14474 -1.56504 0
M  V30 335 C -5.16611 -3.26102 -0.45355 0
M  V30 336 C -1.72778 5.75436 0.746485 0
M  V30 337 N -4.78116 -2.84676 0.00994709 0 CHG=1
M  V30 338 C -5.55993 -2.56923 1.20395 0
M  V30 339 C -6.12838 -1.18502 1.1636 0
M  V30 340 C -5.07247 -0.236463 0.700323 0
M  V30 341 C -3.66973 -0.7795 0.736804 0
M  V30 342 C -3.50908 -2.11867 0.127799 0 CFG=2
M  V30 343 C -5.0816 0.933088 1.70036 0
M  V30 344 C -4.12511 2.02716 1.15958 0
M  V30 345 C -2.76708 1.42943 1.19853 0
M  V30 346 C -2.77097 0.308226 0.168232 0
M  V30 347 O -1.69581 2.23401 1.22286 0
M  V30 348 C -0.980405 2.52916 0.116354 0 CFG=1
M  V30 349 C -0.736453 4.0281 0.120881 0 CFG=1
M  V30 350 C 0.365473 4.34733 -0.834718 0
M  V30 351 C 0.542729 3.27114 -1.85497 0
M  V30 352 C 0.861621 1.89675 -1.28325 0 CFG=2
M  V30 353 C 0.454018 1.91757 0.135575 0
M  V30 354 C 2.07339 1.3048 -1.78814 0
M  V30 355 C 3.32433 1.06259 -1.03508 0 CFG=1
M  V30 356 N 4.25194 2.16068 -1.11972 0 CHG=1
M  V30 357 C 5.56703 1.89796 -0.568995 0
M  V30 358 C 5.31589 1.63541 0.933594 0
M  V30 359 C 4.64049 0.258748 0.843177 0
M  V30 360 C 3.25941 0.336828 0.238821 0
M  V30 361 C 4.62606 -0.439059 2.18254 0
M  V30 362 C 4.48156 -1.90783 1.84923 0
M  V30 363 C 3.87593 -2.11512 0.458946 0
M  V30 364 C 2.80179 -1.10534 0.156963 0
M  V30 365 O 2.05056 -1.33959 -0.919324 0
M  V30 366 C 1.27107 -2.39483 -1.11053 0
M  V30 367 C 0.152609 -1.90538 -2.07056 0
M  V30 368 C -0.777158 -3.06423 -2.32716 0
M  V30 369 C -1.59925 -3.22418 -1.06205 0
M  V30 370 C -0.801959 -3.08579 0.172363 0
M  V30 371 C 0.697267 -3.14835 0.0185539 0
M  V30 372 C -2.72778 -2.18392 -1.14872 0
M  V30 373 O -4.35554 3.12861 1.92849 0
M  V30 374 C -5.09651 4.11015 1.26828 0
M  V30 375 O -1.86175 4.72634 -0.239689 0
M  V30 376 O 5.66968 -2.59117 1.92139 0
M  V30 377 C 5.63552 -3.543 2.93814 0
M  V30 378 O 4.81123 -2.32583 -0.503542 0
M  V30 379 C -4.50483 -4.29181 0.0588084 0
M  V30 380 C 4.51458 2.44449 -2.54964 0
M  V30 381 C 3.83688 3.40625 -0.565183 0
M  V30 382 C 4.8793 -3.63827 -0.905989 0
M  V30 383 C -5.4692 -2.58867 -1.20918 0
M  V30 384 C -2.15445 5.69346 0.760011 0
M  V30 385 H -6.52309 -3.14868 0.888098 0
M  V30 386 H -5.10474 -2.57085 1.85361 0
M  V30 387 H -7.11359 -0.996272 0.147008 0
M  V30 388 H -6.70482 -0.864597 1.86931 0
M  V30 389 H -5.3938 0.497424 -0.419735 0
M  V30 390 H -3.53166 -0.76052 1.628 0
M  V30 391 H -3.0096 -2.61693 0.615156 0
M  V30 392 H -5.1032 0.48401 2.61569 0
M  V30 393 H -6.15881 1.50973 1.54389 0
M  V30 394 H -4.4765 2.68094 0.607053 0
M  V30 395 H -2.64781 0.770531 2.11255 0
M  V30 396 H -1.93119 0.0617184 -0.269291 0
M  V30 397 H -3.44729 0.962715 -0.802095 0
M  V30 398 H -0.015047 3.171 1.10299 0
M  V30 399 H -1.58595 3.52566 -1.47007 0
M  V30 400 H 0.00189514 5.40281 -1.44196 0
M  V30 401 H 0.638238 4.82095 0.148912 0
M  V30 402 H 0.276103 3.02081 -2.2959 0
M  V30 403 H 1.75422 3.97481 -2.11584 0
M  V30 404 H 1.76841 2.7421 0.324026 0
M  V30 405 H 0.337264 0.89259 0.399026 0
M  V30 406 H -0.29523 1.40435 -1.28378 0
M  V30 407 H 1.70106 0.701671 -1.87299 0
M  V30 408 H 2.63275 2.06145 -2.37878 0
M  V30 409 H 4.01058 0.323604 -1.68422 0
M  V30 410 H 6.6754 1.84476 -1.42257 0
M  V30 411 H 6.40244 2.36243 0.239209 0
M  V30 412 H 7.04391 0.2207 0.463451 0
M  V30 413 H 6.03487 -0.345284 -0.966753 0
M  V30 414 H 5.16721 1.05808 1.59633 0
M  V30 415 H 3.01199 0.85628 1.07031 0
M  V30 416 H 6.16905 -1.62054 1.33786 0
M  V30 417 H 5.72472 -0.749848 2.80549 0
M  V30 418 H 3.39727 -1.5343 2.57316 0
M  V30 419 H 3.16964 -3.22232 0.755894 0
M  V30 420 H 2.12671 -1.12127 1.09498 0
M  V30 421 H 1.8816 -3.11377 -1.69837 0
M  V30 422 H -0.140302 -0.914174 -1.71772 0
M  V30 423 H 0.848428 -1.55248 -3.05503 0
M  V30 424 H -0.173966 -3.83983 -2.63265 0
M  V30 425 H -1.24822 -2.54451 -3.31618 0
M  V30 426 H -2.06474 -4.01857 -1.33836 0
M  V30 427 H -1.11715 -1.94832 0.609569 0
M  V30 428 H -1.24204 -3.69425 0.719416 0
M  V30 429 H 0.845453 -4.09104 0.0127454 0
M  V30 430 H 0.914204 -2.69203 1.07418 0
M  V30 431 H -3.39989 -2.48305 -2.21845 0
M  V30 432 H -2.48493 -1.05366 -1.77357 0
M  V30 433 H -5.65587 4.05583 2.10181 0
M  V30 434 H -4.77248 4.41223 3.58172 0
M  V30 435 H -3.94393 4.79058 2.07679 0
M  V30 436 H 2.97763 -3.57467 3.66825 0
M  V30 437 H 4.48559 -4.35714 4.21027 0
M  V30 438 H 4.27584 -2.61868 4.56657 0
M  V30 439 H -3.69213 -4.26325 0.416428 0
M  V30 440 H -4.47206 -4.52053 -1.23917 0
M  V30 441 H -5.42857 -4.6597 0.257351 0
M  V30 442 H 4.06168 3.5142 -2.422 0
M  V30 443 H 5.72586 3.00019 -2.45421 0
M  V30 444 H 4.54402 1.81998 -3.02923 0
M  V30 445 H 5.26061 3.85044 -0.0390833 0
M  V30 446 H 4.04597 3.06199 0.946052 0
M  V30 447 H 3.62006 3.97987 -0.604674 0
M  V30 448 H 4.93277 -4.61478 0.226464 0
M  V30 449 H 5.65519 -4.12051 -1.32794 0
M  V30 450 H 3.89825 -4.21684 -1.15774 0
M  V30 451 H -5.40702 -1.39373 -1.87547 0
M  V30 452 H -5.42018 -3.20683 -2.18081 0
M  V30 453 H -6.6681 -2.4515 -1.19564 0
M  V30 454 H -2.63042 5.65541 -1.55193 0
M  V30 455 H -3.52017 6.01004 -0.0502478 0
M  V30 456 H -3.70161 4.40371 -0.819773 0
M  V30 457 H -7.16252 -2.56829 -0.0275536 0
M  V30 458 H -6.1497 -2.41509 1.47681 0
M  V30 459 H -6.06968 -0.337243 -0.779849 0
M  V30 460 H -7.04115 -0.170282 0.697564 0
M  V30 461 H -5.15318 -0.44047 2.10966 0
M  V30 462 H -3.01398 -0.910065 1.46521 0
M  V30 463 H -3.66927 -3.00883 1.02309 0
M  V30 464 H -5.6295 1.70292 1.57695 0
M  V30 465 H -5.1194 1.61145 -0.123891 0
M  V30 466 H -3.46108 1.32282 2.41919 0
M  V30 467 H -1.72247 0.673364 1.09239 0
M  V30 468 H -2.15719 -0.298597 -0.928885 0
M  V30 469 H -3.78658 0.458381 -1.14569 0
M  V30 470 H -1.15346 2.93541 1.38729 0
M  V30 471 H -1.93482 4.41514 -0.779091 0
M  V30 472 H -0.276312 4.92394 -2.19376 0
M  V30 473 H 1.047 4.56261 -1.09277 0
M  V30 474 H 0.717622 2.84956 -2.98237 0
M  V30 475 H -0.933871 2.62859 -2.42486 0
M  V30 476 H -0.137714 0.958884 -1.19015 0
M  V30 477 H 1.07209 3.17808 0.483961 0
M  V30 478 H 0.573577 1.46189 0.970111 0
M  V30 479 H 1.64668 0.213169 -2.23451 0
M  V30 480 H 2.10361 1.78442 -2.65177 0
M  V30 481 H 3.79937 0.433967 -1.80851 0
M  V30 482 H 5.86985 1.99735 -2.24313 0
M  V30 483 H 6.08458 2.68917 -0.630508 0
M  V30 484 H 6.80483 0.590481 -0.28437 0
M  V30 485 H 5.71598 -0.118558 -1.47233 0
M  V30 486 H 5.10639 1.33992 1.12224 0
M  V30 487 H 2.92544 0.996124 0.979913 0
M  V30 488 H 6.18607 -1.29091 0.763434 0
M  V30 489 H 6.03127 -0.361663 2.25862 0
M  V30 490 H 3.73289 -1.13442 2.52137 0
M  V30 491 H 3.19208 -3.08567 0.7383 0
M  V30 492 H 2.17906 -1.04366 1.26677 0
M  V30 493 H 1.96611 -3.45121 -0.850627 0
M  V30 494 H -0.299099 -1.63582 -1.65002 0
M  V30 495 H 0.73509 -2.67821 -2.6547 0
M  V30 496 H -0.0576624 -4.64621 -1.22756 0
M  V30 497 H -1.25951 -3.90516 -2.37158 0
M  V30 498 H -1.87578 -4.37048 0.182533 0
M  V30 499 H -0.851224 -1.5125 0.640269 0
M  V30 500 H -1.21172 -2.88873 1.76988 0
M  V30 501 H 0.568756 -4.12555 0.765604 0
M  V30 502 H 1.02319 -2.66691 1.64615 0
M  V30 503 H -3.27338 -3.69155 -1.45516 0
M  V30 504 H -2.63971 -2.09076 -1.71153 0
M  V30 505 H -3.58688 4.60079 2.96231 0
M  V30 506 H -4.3225 2.97293 3.45558 0
M  V30 507 H -2.55956 3.18838 3.31723 0
M  V30 508 H 5.1108 -3.67647 4.34276 0
M  V30 509 H 4.90281 -1.92595 4.52332 0
M  V30 510 H 3.4962 -3.01157 4.03265 0
M  V30 511 H -4.55206 -4.50843 0.499844 0
M  V30 512 H -5.03964 -4.67182 -1.22288 0
M  V30 513 H -6.27866 -4.47297 0.0745111 0
M  V30 514 H 2.90409 3.61855 -2.36613 0
M  V30 515 H 4.64624 3.74386 -2.47506 0
M  V30 516 H 3.93693 2.35741 -3.27425 0
M  V30 517 H 4.87248 3.68021 0.188848 0
M  V30 518 H 3.40151 2.94732 0.815762 0
M  V30 519 H 3.30993 4.14263 -0.469959 0
M  V30 520 H 5.18389 -4.34078 -0.161809 0
M  V30 521 H 5.88844 -3.45052 -1.54038 0
M  V30 522 H 4.17466 -3.84465 -1.64319 0
M  V30 523 H -4.59915 -1.61285 -2.08375 0
M  V30 524 H -5.14535 -3.28029 -2.41558 0
M  V30 525 H -6.37371 -2.0797 -1.96088 0
M  V30 526 H -1.82756 6.60953 -0.350842 0
M  V30 527 H -1.58495 6.87793 1.4443 0
M  V30 528 H -2.66847 5.60553 0.854354 0
M  V30 529 H -6.92765 -3.25655 0.485219 0
M  V30 530 H -5.6771 -2.64703 1.65305 0
M  V30 531 H -7.27879 -1.23811 -0.519809 0
M  V30 532 H -7.11314 -0.726216 1.17851 0
M  V30 533 H -5.50055 -0.0296053 -1.24786 0
M  V30 534 H -3.9878 -0.530545 1.33719 0
M  V30 535 H -3.45959 -2.65558 0.968222 0
M  V30 536 H -5.72909 0.915886 1.6249 0
M  V30 537 H -6.54853 1.58779 0.195951 0
M  V30 538 H -4.64778 2.46973 -0.770811 0
M  V30 539 H -2.97739 1.08133 1.40025 0
M  V30 540 H -2.11417 -0.0741253 -0.607374 0
M  V30 541 H -3.59707 0.488567 -1.51772 0
M  V30 542 H -1.3672 1.94726 1.81064 0
M  V30 543 H -1.51667 4.40555 0.558633 0
M  V30 544 H 0.736693 5.24681 0.316256 0
M  V30 545 H 1.41205 3.70042 0.965924 0
M  V30 546 H -0.593162 3.8281 -1.3155 0
M  V30 547 H 1.06585 4.0614 -1.75819 0
M  V30 548 H -0.211245 1.69781 -1.51259 0
M  V30 549 H 0.894478 1.69967 1.28866 0
M  V30 550 H -0.0719092 0.536596 0.403837 0
M  V30 551 H 1.53399 0.485993 -1.99196 0
M  V30 552 H 1.69683 2.08638 -2.58633 0
M  V30 553 H 3.70302 1.4943 -2.28776 0
M  V30 554 H 6.03919 2.91137 -1.13184 0
M  V30 555 H 6.04049 1.57835 0.00691635 0
M  V30 556 H 5.54855 1.27391 -3.01157 0
M  V30 557 H 6.8464 0.818961 -1.96486 0
M  V30 558 H 5.24397 -0.946759 -2.47445 0
M  V30 559 H 3.09122 -0.604098 -2.07111 0
M  V30 560 H 6.53073 -1.8579 -0.893949 0
M  V30 561 H 6.89181 -0.245085 -0.307993 0
M  V30 562 H 5.30295 -0.37096 1.41221 0
M  V30 563 H 3.77719 -2.05786 1.67435 0
M  V30 564 H 3.049 -0.119888 0.78221 0
M  V30 565 H 1.90589 -3.25199 -0.75155 0
M  V30 566 H -0.338989 -1.3457 -1.32253 0
M  V30 567 H 0.838828 -2.15073 -2.43681 0
M  V30 568 H 0.0198743 -4.41285 -1.2452 0
M  V30 569 H -1.08492 -3.65472 -2.5029 0
M  V30 570 H -1.9617 -4.3868 -0.170104 0
M  V30 571 H -1.41348 -3.23862 1.68773 0
M  V30 572 H -1.22279 -1.64695 0.949571 0
M  V30 573 H 0.690643 -3.99985 0.987202 0
M  V30 574 H 0.879736 -2.38997 1.75326 0
M  V30 575 H -3.21532 -3.29681 -1.75657 0
M  V30 576 H -2.44351 -1.73566 -1.67293 0
M  V30 577 H -4.96312 5.12118 1.27396 0
M  V30 578 H -4.01685 4.66145 -0.152766 0
M  V30 579 H -5.82037 4.33141 -0.0722168 0
M  V30 580 H 5.67893 -1.51091 3.33089 0
M  V30 581 H 7.09313 -2.59833 3.19897 0
M  V30 582 H 7.28861 -0.911383 2.69802 0
M  V30 583 H -4.09047 -4.37525 0.938766 0
M  V30 584 H -4.23391 -4.81707 -0.81243 0
M  V30 585 H -5.7082 -4.8666 0.239201 0
M  V30 586 H 4.77866 4.06426 -1.44581 0
M  V30 587 H 3.32356 3.41314 -2.19494 0
M  V30 588 H 3.27795 4.21434 -0.545937 0
M  V30 589 H 4.22158 3.53008 1.01316 0
M  V30 590 H 3.19341 2.1753 1.39852 0
M  V30 591 H 4.96375 1.97526 1.30733 0
M  V30 592 H 3.00797 -4.22959 1.38435 0
M  V30 593 H 4.72723 -4.1487 1.77951 0
M  V30 594 H 4.09372 -5.23446 0.431582 0
M  V30 595 H -4.8894 -2.1344 -2.25317 0
M  V30 596 H -5.26575 -3.87176 -2.18538 0
M  V30 597 H -6.54371 -2.73555 -1.69272 0
M  V30 598 H -1.51176 6.01416 2.07215 0
M  V30 599 H -1.75457 5.36086 3.74982 0
M  V30 600 H -2.69262 4.72043 2.36673 0
M  V30 601 H -6.78045 -2.83971 0.0609599 0
M  V30 602 H -5.89227 -2.1381 1.42356 0
M  V30 603 H -6.56235 -1.01864 -1.36377 0
M  V30 604 H -7.13611 -0.422544 0.190984 0
M  V30 605 H -4.7452 0.443208 -1.26607 0
M  V30 606 H -4.30632 -0.776965 1.4906 0
M  V30 607 H -3.00604 -2.44278 0.714365 0
M  V30 608 H -5.89112 0.803623 1.56305 0
M  V30 609 H -6.3352 1.8 0.156932 0
M  V30 610 H -4.2602 2.86069 0.0237995 0
M  V30 611 H -3.3639 1.21528 2.44525 0
M  V30 612 H -2.06384 -0.244773 1.3614 0
M  V30 613 H -2.15559 0.474355 -0.257526 0
M  V30 614 H -1.80657 2.45347 -0.388859 0
M  V30 615 H -0.0126536 4.3973 1.08002 0
M  V30 616 H -0.972533 4.62374 -1.77887 0
M  V30 617 H 0.622324 4.86112 -1.03665 0
M  V30 618 H 0.911019 3.04351 -2.40076 0
M  V30 619 H -0.493077 2.13421 -1.8868 0
M  V30 620 H 1.6039 3.12609 0.0553901 0
M  V30 621 H 0.41356 2.24637 1.74052 0
M  V30 622 H -0.0733069 0.847964 0.794306 0
M  V30 623 H 1.46706 0.225681 -0.10876 0
M  V30 624 H 1.44204 0.792787 -1.76188 0
M  V30 625 H 3.63402 0.667216 -1.80539 0
M  V30 626 H 5.5253 1.48796 -1.86975 0
M  V30 627 H 6.03227 2.87756 -0.876498 0
M  V30 628 H 7.09615 0.737744 -0.241943 0
M  V30 629 H 6.1375 1.24157 1.14527 0
M  V30 630 H 5.59364 -0.72062 -1.06034 0
M  V30 631 H 3.76513 0.321199 1.16691 0
M  V30 632 H 6.69125 -1.82335 0.785347 0
M  V30 633 H 6.14141 -0.579647 1.93233 0
M  V30 634 H 3.98398 -1.58789 2.22977 0
M  V30 635 H 3.47958 -3.46984 0.644134 0
M  V30 636 H 2.3273 -1.34422 0.831786 0
M  V30 637 H 2.04254 -3.51825 -1.69182 0
M  V30 638 H 0.213097 -1.17591 -2.17013 0
M  V30 639 H 1.02513 -2.31384 -3.35418 0
M  V30 640 H -0.334471 -4.13038 -2.36892 0
M  V30 641 H -1.24208 -2.8782 -3.25194 0
M  V30 642 H -1.87737 -3.86613 -0.741433 0
M  V30 643 H -0.426197 -1.24291 -0.258341 0
M  V30 644 H -1.00076 -2.46937 0.987708 0
M  V30 645 H 0.452857 -4.10551 -0.259156 0
M  V30 646 H 1.17421 -2.98806 0.888451 0
M  V30 647 H -3.14718 -2.38524 -2.22851 0
M  V30 648 H -2.24616 -1.00477 -1.63027 0
M  V30 649 H -5.97978 4.32047 0.742253 0
M  V30 650 H -5.81012 4.75481 2.43935 0
M  V30 651 H -4.40802 5.02963 1.40702 0
M  V30 652 H 3.50609 -3.38556 3.48146 0
M  V30 653 H 4.9768 -4.16304 4.11926 0
M  V30 654 H 4.87192 -2.34053 4.14002 0
M  V30 655 H -3.94978 -3.92673 1.19841 0
M  V30 656 H -4.09972 -4.69697 -0.400219 0
M  V30 657 H -5.60278 -4.46686 0.59062 0
M  V30 658 H 3.26256 4.10633 -1.32616 0
M  V30 659 H 4.70127 3.60052 -2.17155 0
M  V30 660 H 3.26216 2.63219 -2.46561 0
M  V30 661 H 5.02646 2.92883 1.17207 0
M  V30 662 H 3.39188 2.34565 1.42249 0
M  V30 663 H 3.75521 3.96561 0.592129 0
M  V30 664 H 4.00623 -4.66695 -1.18407 0
M  V30 665 H 5.39212 -4.78295 0.0142392 0
M  V30 666 H 5.67863 -4.43022 -1.69804 0
M  V30 667 H -5.1516 -2.11554 -2.32519 0
M  V30 668 H -4.54736 -3.85577 -2.09389 0
M  V30 669 H -6.18185 -3.37011 -1.62918 0
M  V30 670 H -0.825859 6.60463 1.1084 0
M  V30 671 H -1.66568 5.58744 2.3748 0
M  V30 672 H -2.59183 6.68174 1.30849 0
M  V30 673 H -6.86906 -2.96017 0.28275 0
M  V30 674 H -5.54239 -2.64619 1.52503 0
M  V30 675 H -6.44675 -0.450554 -0.426371 0
M  V30 676 H -7.12079 -0.702814 1.19253 0
M  V30 677 H -5.21314 -0.130984 2.24577 0
M  V30 678 H -3.17381 -0.927729 1.82771 0
M  V30 679 H -3.4138 -2.90527 0.870742 0
M  V30 680 H -6.11606 1.6064 1.05218 0
M  V30 681 H -5.15828 1.35974 -0.415206 0
M  V30 682 H -4.02254 3.05533 0.803407 0
M  V30 683 H -2.65889 0.868428 2.30187 0
M  V30 684 H -1.78092 0.00682103 0.116401 0
M  V30 685 H -3.26108 0.712176 -0.718981 0
M  V30 686 H -1.51369 1.75622 -0.845931 0
M  V30 687 H -2.01099 4.04958 -1.01166 0
M  V30 688 H -0.196015 4.91484 -1.96921 0
M  V30 689 H 0.944949 4.40276 -0.728149 0
M  V30 690 H 1.01087 3.10402 -2.95629 0
M  V30 691 H -0.656179 2.63343 -2.63565 0
M  V30 692 H 0.120413 0.869976 -1.57834 0
M  V30 693 H 0.854036 2.84838 0.587194 0
M  V30 694 H 0.443102 1.08371 0.766922 0
M  V30 695 H 2.10187 0.329056 -2.38967 0
M  V30 696 H 2.47826 1.97572 -2.55837 0
M  V30 697 H 4.14177 0.647312 -1.59656 0
M  V30 698 H 6.05444 2.33048 -1.57981 0
M  V30 699 H 6.01508 2.9554 0.0757392 0
M  V30 700 H 6.82636 0.931138 0.539452 0
M  V30 701 H 6.17464 0.175877 -0.907102 0
M  V30 702 H 4.87043 1.18593 1.64347 0
M  V30 703 H 2.78754 0.807698 1.03857 0
M  V30 704 H 6.37243 -1.16918 1.12447 0
M  V30 705 H 5.6619 -0.635986 2.63416 0
M  V30 706 H 3.69611 -1.8586 2.34775 0
M  V30 707 H 3.39453 -3.19396 0.15212 0
M  V30 708 H 2.31873 -1.30903 1.13523 0
M  V30 709 H 2.07909 -3.26593 -1.37063 0
M  V30 710 H -0.205715 -1.42616 -1.81275 0
M  V30 711 H 0.723668 -2.43874 -2.93571 0
M  V30 712 H -0.151534 -4.48505 -1.76232 0
M  V30 713 H -1.36795 -3.49055 -2.71482 0
M  V30 714 H -2.09555 -4.24087 -0.39589 0
M  V30 715 H -0.730958 -1.94061 0.989948 0
M  V30 716 H -0.918578 -3.63449 1.42094 0
M  V30 717 H 0.862716 -4.33085 0.183004 0
M  V30 718 H 1.30252 -3.03028 1.2787 0
M  V30 719 H -3.03783 -2.71471 -1.88921 0
M  V30 720 H -2.17083 -1.31188 -1.33155 0
M  V30 721 H -5.07655 3.75846 3.98193 0
M  V30 722 H -3.76815 4.27569 2.92666 0
M  V30 723 H -5.51327 4.19692 2.31344 0
M  V30 724 H 4.7611 -2.95513 4.01597 0
M  V30 725 H 3.61303 -3.92313 3.06451 0
M  V30 726 H 5.25465 -4.59931 3.5599 0
M  V30 727 H -4.37299 -4.39956 0.309486 0
M  V30 728 H -4.23748 -4.30328 -1.47283 0
M  V30 729 H -5.88726 -4.4243 -0.666145 0
M  V30 730 H 3.02242 3.81626 -1.88235 0
M  V30 731 H 4.73698 4.1023 -1.69452 0
M  V30 732 H 4.3034 2.80695 -2.78534 0
M  V30 733 H 4.62947 3.64052 0.934048 0
M  V30 734 H 3.13689 2.7612 1.22506 0
M  V30 735 H 3.1513 4.12684 0.118844 0
M  V30 736 H 5.33918 -4.17823 -0.982905 0
M  V30 737 H 6.0278 -3.02923 -2.13357 0
M  V30 738 H 4.29174 -3.34458 -2.27312 0
M  V30 739 H -4.88965 -0.951454 -1.84124 0
M  V30 740 H -4.95137 -2.64215 -2.57966 0
M  V30 741 H -6.37071 -1.9895 -1.75886 0
M  V30 742 H -1.85175 6.23338 -0.0735809 0
M  V30 743 H -1.72748 6.14643 1.75608 0
M  V30 744 H -2.94421 5.18286 0.881501 0
M  V30 745 H -6.67552 -2.99 1.03022 0
M  V30 746 H -5.35429 -2.02742 1.77426 0
M  V30 747 H -7.07697 -1.16611 -0.614004 0
M  V30 748 H -7.05381 -0.446334 1.01106 0
M  V30 749 H -5.23499 -0.0566468 -1.29902 0
M  V30 750 H -3.92162 -0.468499 1.38457 0
M  V30 751 H -3.09484 -2.4601 0.802065 0
M  V30 752 H -6.38476 1.36947 0.840713 0
M  V30 753 H -5.54993 2.02593 -0.561601 0
M  V30 754 H -4.40678 2.97942 1.10804 0
M  V30 755 H -2.26726 1.16078 1.52028 0
M  V30 756 H -1.9702 0.0836193 -0.471339 0
M  V30 757 H -3.35485 0.826609 -1.27346 0
M  V30 758 H -0.978013 2.41983 1.5532 0
M  V30 759 H -1.02559 4.67462 1.46936 0
M  V30 760 H 0.756386 5.71648 0.0710004 0
M  V30 761 H 1.35062 4.3747 1.18479 0
M  V30 762 H 1.99529 4.3171 -1.46712 0
M  V30 763 H 0.317637 3.81511 -1.65831 0
M  V30 764 H 1.84334 2.44871 0.534886 0
M  V30 765 H 0.138376 0.918614 0.233553 0
M  V30 766 H -0.42295 1.67663 -1.28301 0
M  V30 767 H 1.33624 0.750062 -1.85434 0
M  V30 768 H 2.12686 2.18842 -2.40803 0
M  V30 769 H 3.51741 0.194965 -2.00531 0
M  V30 770 H 6.02316 1.09548 -2.80493 0
M  V30 771 H 6.57885 2.05043 -1.43214 0
M  V30 772 H 6.99672 -0.00420871 -0.617594 0
M  V30 773 H 5.68743 -0.756594 -1.576 0
M  V30 774 H 5.45801 1.28537 0.689863 0
M  V30 775 H 3.23683 0.99737 0.852127 0
M  V30 776 H 6.28656 -1.46984 0.879183 0
M  V30 777 H 6.17875 -0.252866 2.15585 0
M  V30 778 H 3.75684 -0.842629 2.46727 0
M  V30 779 H 3.14429 -2.89915 1.2632 0
M  V30 780 H 2.14862 -0.860818 1.05095 0
M  V30 781 H 1.75404 -3.30775 -1.38657 0
M  V30 782 H -0.198754 -1.05604 -1.54997 0
M  V30 783 H 0.780414 -1.78393 -2.90324 0
M  V30 784 H -0.0679962 -4.06709 -2.16587 0
M  V30 785 H -1.26753 -3.01357 -3.02352 0
M  V30 786 H -1.97435 -4.2086 -0.830584 0
M  V30 787 H -1.16414 -1.77039 0.690745 0
M  V30 788 H -1.21411 -3.45563 1.17666 0
M  V30 789 H 0.858923 -3.93594 0.536525 0
M  V30 790 H 0.871543 -2.35371 1.29658 0
M  V30 791 H -3.353 -2.89182 -2.04236 0
M  V30 792 H -2.46183 -1.38397 -1.7907 0
M  V30 793 H -5.74458 3.11984 2.9127 0
M  V30 794 H -5.12986 2.14226 4.25861 0
M  V30 795 H -4.04113 3.27867 3.4298 0
M  V30 796 H 3.36749 -2.51103 4.07801 0
M  V30 797 H 4.87358 -3.2553 4.63343 0
M  V30 798 H 4.82769 -1.46334 4.52256 0
M  V30 799 H -3.90942 -4.0478 1.34057 0
M  V30 800 H -4.22828 -4.8325 -0.295598 0
M  V30 801 H -5.53407 -4.61839 0.910153 0
M  V30 802 H 3.64062 3.42101 -2.94166 0
M  V30 803 H 5.13485 2.69765 -3.46842 0
M  V30 804 H 3.69932 1.67504 -3.59062 0
M  V30 805 H 5.7044 3.302 -0.542803 0
M  V30 806 H 4.08318 3.16025 0.138763 0
M  V30 807 H 4.35219 4.06362 -1.35083 0
M  V30 808 H 4.71234 -4.49074 1.01894 0
M  V30 809 H 5.14105 -4.63782 -0.734936 0
M  V30 810 H 3.43936 -4.42768 -0.191694 0
M  V30 811 H -5.28831 -2.28445 -2.11789 0
M  V30 812 H -5.0707 -4.0839 -1.7892 0
M  V30 813 H -6.53239 -3.22682 -1.28229 0
M  V30 814 H -1.75012 6.61068 0.583099 0
M  V30 815 H -3.03038 5.29326 0.659461 0
M  V30 816 H -2.82983 6.3161 -0.804079 0
M  V30 817 H -6.15184 -3.0685 1.89303 0
M  V30 818 H -4.9319 -1.97271 2.60086 0
M  V30 819 H -6.70546 -1.57584 0.11519 0
M  V30 820 H -6.79614 -0.673119 1.68419 0
M  V30 821 H -5.18091 -0.0346881 -0.689466 0
M  V30 822 H -3.5909 -0.438203 1.86233 0
M  V30 823 H -2.5455 -2.33949 1.27104 0
M  V30 824 H -5.22308 1.00824 2.15421 0
M  V30 825 H -6.32198 1.47029 0.747565 0
M  V30 826 H -4.48307 2.20265 -0.547293 0
M  V30 827 H -3.0193 1.34901 1.96502 0
M  V30 828 H -1.73009 0.183567 0.0811499 0
M  V30 829 H -3.20519 0.537271 -0.971097 0
M  V30 830 H -1.477 1.9224 -1.17184 0
M  V30 831 H -2.20573 4.36954 -1.12051 0
M  V30 832 H -0.601379 4.80711 -2.64261 0
M  V30 833 H 0.70434 4.88744 -1.45246 0
M  V30 834 H 1.14647 3.19687 -3.11734 0
M  V30 835 H -0.477073 2.50947 -2.99419 0
M  V30 836 H 0.407621 0.999175 -1.65361 0
M  V30 837 H 0.623618 3.1895 0.444253 0
M  V30 838 H 0.247124 1.39331 0.612597 0
M  V30 839 H 2.47195 0.902952 -2.35694 0
M  V30 840 H 2.61773 2.58823 -2.388 0
M  V30 841 H 4.341 1.99493 -1.26244 0
M  V30 842 H 5.54488 3.33527 0.77377 0
M  V30 843 H 5.24865 2.08392 1.95811 0
M  V30 844 H 6.31175 1.75667 -0.890313 0
M  V30 845 H 6.90264 1.25603 0.687222 0
M  V30 846 H 6.13836 -0.525268 -0.686484 0
M  V30 847 H 4.2212 -0.118071 -1.7994 0
M  V30 848 H 6.38893 -0.678775 1.68401 0
M  V30 849 H 4.63965 -0.362315 1.97414 0
M  V30 850 H 5.90221 -2.78504 0.834963 0
M  V30 851 H 4.94607 -2.03502 -1.24836 0
M  V30 852 H 2.83735 -1.08307 0.708538 0
M  V30 853 H 1.825 -2.98679 -2.08581 0
M  V30 854 H -0.356911 -1.17183 -1.25805 0
M  V30 855 H 0.242677 -1.51171 -2.9721 0
M  V30 856 H -0.0618028 -4.06084 -2.08365 0
M  V30 857 H -1.42041 -3.17043 -2.88975 0
M  V30 858 H -1.789 -4.28252 -0.521503 0
M  V30 859 H -0.607645 -3.49369 1.22956 0
M  V30 860 H -0.559856 -1.8046 0.710104 0
M  V30 861 H 1.1091 -4.12303 -0.114207 0
M  V30 862 H 1.53789 -2.63447 0.887827 0
M  V30 863 H -3.35014 -2.88524 -1.50813 0
M  V30 864 H -2.35804 -1.43133 -1.38938 0
M  V30 865 H -5.42233 5.22218 0.973856 0
M  V30 866 H -4.46823 4.65358 -0.425335 0
M  V30 867 H -6.16682 4.02262 -0.0931542 0
M  V30 868 H 3.93019 -4.25246 3.16328 0
M  V30 869 H 4.67424 -4.64872 1.60608 0
M  V30 870 H 5.67142 -3.73636 2.8174 0
M  V30 871 H -3.23863 -3.98076 2.13723 0
M  V30 872 H -3.78068 -4.93361 0.64963 0
M  V30 873 H -4.92512 -4.52925 1.95114 0
M  V30 874 H 3.11061 4.30144 0.972052 0
M  V30 875 H 4.34027 4.17543 -0.291927 0
M  V30 876 H 2.69231 3.7532 -0.743986 0
M  V30 877 H 2.34337 1.06976 1.6597 0
M  V30 878 H 2.34987 2.81022 2.02365 0
M  V30 879 H 3.64604 1.77877 2.57147 0
M  V30 880 H 4.02157 -5.1762 -1.6597 0
M  V30 881 H 5.48146 -4.06996 -1.45944 0
M  V30 882 H 4.11608 -3.61987 -2.51819 0
M  V30 883 H -5.30615 -2.43679 -1.16999 0
M  V30 884 H -4.78647 -4.20161 -0.925779 0
M  V30 885 H -6.20909 -3.53904 -0.117058 0
M  V30 886 H -1.90631 6.47148 -0.0826652 0
M  V30 887 H -1.19652 6.36551 1.53624 0
M  V30 888 H -2.62351 5.33784 1.20404 0
M  V30 889 H -6.3039 -3.35669 1.39654 0
M  V30 890 H -4.81713 -2.58115 2.05495 0
M  V30 891 H -7.00669 -1.10881 0.473171 0
M  V30 892 H -6.4933 -0.960397 2.20399 0
M  V30 893 H -5.30163 0.243177 -0.284313 0
M  V30 894 H -3.40612 -0.810572 1.84016 0
M  V30 895 H -2.93796 -2.76047 0.870549 0
M  V30 896 H -4.76677 0.545549 2.66286 0
M  V30 897 H -6.11119 1.33199 1.69134 0
M  V30 898 H -4.52363 2.21667 0.132078 0
M  V30 899 H -2.73442 0.852642 2.19768 0
M  V30 900 H -1.75487 -0.0187308 0.00272564 0
M  V30 901 H -3.29749 0.706237 -0.724329 0
M  V30 902 H -1.46577 2.29528 -0.844936 0
M  V30 903 H -0.3585 4.36656 1.14114 0
M  V30 904 H 0.0577149 5.26331 -1.41549 0
M  V30 905 H 1.29718 4.67586 -0.325818 0
M  V30 906 H 1.36766 3.52038 -2.58328 0
M  V30 907 H -0.3717 3.29382 -2.48629 0
M  V30 908 H -0.00464419 1.27096 -1.73509 0
M  V30 909 H 0.987796 2.56557 0.818004 0
M  V30 910 H 0.321173 0.926493 0.598967 0
M  V30 911 H 1.86497 0.392365 -2.44137 0
M  V30 912 H 2.42044 1.99681 -2.63864 0
M  V30 913 H 3.90327 0.307776 -1.68892 0
M  V30 914 H 6.02562 1.00211 -0.982986 0
M  V30 915 H 6.15608 2.81129 -0.705132 0
M  V30 916 H 6.26748 1.49152 1.44285 0
M  V30 917 H 4.67231 2.39112 1.37509 0
M  V30 918 H 5.3692 -0.320838 0.231875 0
M  V30 919 H 2.6786 0.894219 1.04048 0
M  V30 920 H 3.81817 -0.0661218 2.84458 0
M  V30 921 H 5.59501 -0.289909 2.65591 0
M  V30 922 H 3.79202 -2.31094 2.64456 0
M  V30 923 H 3.37252 -3.12176 0.602366 0
M  V30 924 H 2.10603 -1.21355 1.05496 0
M  V30 925 H 1.80077 -3.12853 -1.802 0
M  V30 926 H -0.321935 -1.05547 -1.59705 0
M  V30 927 H 0.579301 -1.58781 -3.03777 0
M  V30 928 H -0.157124 -3.968 -2.43352 0
M  V30 929 H -1.42815 -2.84456 -3.17836 0
M  V30 930 H -2.09937 -4.20999 -1.14528 0
M  V30 931 H -1.00802 -2.15693 0.763274 0
M  V30 932 H -1.07969 -3.92271 0.870884 0
M  V30 933 H 0.92307 -4.25447 -0.0966561 0
M  V30 934 H 1.08281 -2.91352 1.03219 0
M  V30 935 H -3.39812 -2.5818 -1.96801 0
M  V30 936 H -2.38943 -1.21556 -1.50208 0
M  V30 937 H -5.20874 4.96124 1.95352 0
M  V30 938 H -4.66153 4.4477 0.328474 0
M  V30 939 H -6.12397 3.66906 1.11666 0
M  V30 940 H 5.45557 -3.08438 3.93212 0
M  V30 941 H 4.86981 -4.32324 2.74713 0
M  V30 942 H 6.65783 -3.99397 2.97346 0
M  V30 943 H -3.62477 -4.43966 0.686568 0
M  V30 944 H -4.43327 -4.7225 -0.95871 0
M  V30 945 H -5.3825 -4.79383 0.532702 0
M  V30 946 H 3.92024 3.33966 -2.88437 0
M  V30 947 H 5.56648 2.77015 -2.68353 0
M  V30 948 H 4.36452 1.56513 -3.17814 0
M  V30 949 H 3.1761 3.36129 0.305385 0
M  V30 950 H 3.33416 4.05611 -1.3297 0
M  V30 951 H 4.76414 3.9997 -0.312978 0
M  V30 952 H 5.14681 -4.29914 -0.0360746 0
M  V30 953 H 5.59909 -3.77971 -1.74248 0
M  V30 954 H 3.89276 -3.99853 -1.23585 0
M  V30 955 H -5.20686 -1.66955 -1.72748 0
M  V30 956 H -5.44314 -3.47632 -1.90811 0
M  V30 957 H -6.56617 -2.49809 -0.951836 0
M  V30 958 H -1.31564 6.39956 0.875412 0
M  V30 959 H -2.40077 5.19407 1.71909 0
M  V30 960 H -3.03556 6.25255 0.35522 0
M  V30 END ATOM
M  V30 BEGIN BOND
M  V30 1 1 1 2
M  V30 2 1 2 3
M  V30 3 1 3 4
M  V30 4 1 4 5
M  V30 5 1 1 6
M  V30 6 1 5 6
M  V30 7 1 4 7
M  V30 8 1 7 8
M  V30 9 1 8 9
M  V30 10 1 5 10
M  V30 11 1 9 10
M  V30 12 1 9 11
M  V30 13 1 11 12
M  V30 14 1 12 13
M  V30 15 1 13 14
M  V30 16 1 14 15
M  V30 17 1 15 16
M  V30 18 1 12 17
M  V30 19 1 16 17
M  V30 20 1 16 18
M  V30 21 1 18 19
M  V30 22 1 19 20
M  V30 23 1 20 21
M  V30 24 1 21 22
M  V30 25 1 22 23
M  V30 26 1 19 24
M  V30 27 1 23 24
M  V30 28 1 23 25
M  V30 29 1 25 26
M  V30 30 1 26 27
M  V30 31 1 24 28
M  V30 32 1 27 28
M  V30 33 1 28 29
M  V30 34 1 29 30
M  V30 35 1 30 31
M  V30 36 1 31 32
M  V30 37 1 32 33
M  V30 38 1 33 34
M  V30 39 1 30 35
M  V30 40 1 34 35
M  V30 41 1 6 36
M  V30 42 1 33 36
M  V30 43 1 8 37
M  V30 44 1 37 38
M  V30 45 1 13 39
M  V30 46 1 26 40
M  V30 47 1 40 41
M  V30 48 1 27 42
M  V30 49 1 1 43
M  V30 50 1 20 44
M  V30 51 1 20 45
M  V30 52 1 42 46
M  V30 53 1 1 47
M  V30 54 1 39 48
M  V30 55 1 49 50
M  V30 56 1 50 51
M  V30 57 1 51 52
M  V30 58 1 52 53
M  V30 59 1 49 54
M  V30 60 1 53 54
M  V30 61 1 52 55
M  V30 62 1 55 56
M  V30 63 1 56 57
M  V30 64 1 53 58
M  V30 65 1 57 58
M  V30 66 1 57 59
M  V30 67 1 59 60
M  V30 68 1 60 61
M  V30 69 1 61 62
M  V30 70 1 62 63
M  V30 71 1 63 64
M  V30 72 1 60 65
M  V30 73 1 64 65
M  V30 74 1 64 66
M  V30 75 1 66 67
M  V30 76 1 67 68
M  V30 77 1 68 69
M  V30 78 1 69 70
M  V30 79 1 70 71
M  V30 80 1 67 72
M  V30 81 1 71 72
M  V30 82 1 71 73
M  V30 83 1 73 74
M  V30 84 1 74 75
M  V30 85 1 72 76
M  V30 86 1 75 76
M  V30 87 1 76 77
M  V30 88 1 77 78
M  V30 89 1 78 79
M  V30 90 1 79 80
M  V30 91 1 80 81
M  V30 92 1 81 82
M  V30 93 1 78 83
M  V30 94 1 82 83
M  V30 95 1 54 84
M  V30 96 1 81 84
M  V30 97 1 56 85
M  V30 98 1 85 86
M  V30 99 1 61 87
M  V30 100 1 74 88
M  V30 101 1 88 89
M  V30 102 1 75 90
M  V30 103 1 49 91
M  V30 104 1 68 92
M  V30 105 1 68 93
M  V30 106 1 90 94
M  V30 107 1 49 95
M  V30 108 1 87 96
M  V30 109 1 97 98
M  V30 110 1 98 99
M  V30 111 1 99 100
M  V30 112 1 100 101
M  V30 113 1 97 102
M  V30 114 1 101 102
M  V30 115 1 100 103
M  V30 116 1 103 104
M  V30 117 1 104 105
M  V30 118 1 101 106
M  V30 119 1 105 106
M  V30 120 1 105 107
M  V30 121 1 107 108
M  V30 122 1 108 109
M  V30 123 1 109 110
M  V30 124 1 110 111
M  V30 125 1 111 112
M  V30 126 1 108 113
M  V30 127 1 112 113
M  V30 128 1 112 114
M  V30 129 1 114 115
M  V30 130 1 115 116
M  V30 131 1 116 117
M  V30 132 1 117 118
M  V30 133 1 118 119
M  V30 134 1 115 120
M  V30 135 1 119 120
M  V30 136 1 119 121
M  V30 137 1 121 122
M  V30 138 1 122 123
M  V30 139 1 120 124
M  V30 140 1 123 124
M  V30 141 1 124 125
M  V30 142 1 125 126
M  V30 143 1 126 127
M  V30 144 1 127 128
M  V30 145 1 128 129
M  V30 146 1 129 130
M  V30 147 1 126 131
M  V30 148 1 130 131
M  V30 149 1 102 132
M  V30 150 1 129 132
M  V30 151 1 104 133
M  V30 152 1 133 134
M  V30 153 1 109 135
M  V30 154 1 122 136
M  V30 155 1 136 137
M  V30 156 1 123 138
M  V30 157 1 97 139
M  V30 158 1 116 140
M  V30 159 1 116 141
M  V30 160 1 138 142
M  V30 161 1 97 143
M  V30 162 1 135 144
M  V30 163 1 145 146
M  V30 164 1 146 147
M  V30 165 1 147 148
M  V30 166 1 148 149
M  V30 167 1 145 150
M  V30 168 1 149 150
M  V30 169 1 148 151
M  V30 170 1 151 152
M  V30 171 1 152 153
M  V30 172 1 149 154
M  V30 173 1 153 154
M  V30 174 1 153 155
M  V30 175 1 155 156
M  V30 176 1 156 157
M  V30 177 1 157 158
M  V30 178 1 158 159
M  V30 179 1 159 160
M  V30 180 1 156 161
M  V30 181 1 160 161
M  V30 182 1 160 162
M  V30 183 1 162 163
M  V30 184 1 163 164
M  V30 185 1 164 165
M  V30 186 1 165 166
M  V30 187 1 166 167
M  V30 188 1 163 168
M  V30 189 1 167 168
M  V30 190 1 167 169
M  V30 191 1 169 170
M  V30 192 1 170 171
M  V30 193 1 168 172
M  V30 194 1 171 172
M  V30 195 1 172 173
M  V30 196 1 173 174
M  V30 197 1 174 175
M  V30 198 1 175 176
M  V30 199 1 176 177
M  V30 200 1 177 178
M  V30 201 1 174 179
M  V30 202 1 178 179
M  V30 203 1 150 180
M  V30 204 1 177 180
M  V30 205 1 152 181
M  V30 206 1 181 182
M  V30 207 1 157 183
M  V30 208 1 170 184
M  V30 209 1 184 185
M  V30 210 1 171 186
M  V30 211 1 145 187
M  V30 212 1 164 188
M  V30 213 1 164 189
M  V30 214 1 186 190
M  V30 215 1 145 191
M  V30 216 1 183 192
M  V30 217 1 193 194
M  V30 218 1 194 195
M  V30 219 1 195 196
M  V30 220 1 196 197
M  V30 221 1 193 198
M  V30 222 1 197 198
M  V30 223 1 196 199
M  V30 224 1 199 200
M  V30 225 1 200 201
M  V30 226 1 197 202
M  V30 227 1 201 202
M  V30 228 1 201 203
M  V30 229 1 203 204
M  V30 230 1 204 205
M  V30 231 1 205 206
M  V30 232 1 206 207
M  V30 233 1 207 208
M  V30 234 1 204 209
M  V30 235 1 208 209
M  V30 236 1 208 210
M  V30 237 1 210 211
M  V30 238 1 211 212
M  V30 239 1 212 213
M  V30 240 1 213 214
M  V30 241 1 214 215
M  V30 242 1 211 216
M  V30 243 1 215 216
M  V30 244 1 215 217
M  V30 245 1 217 218
M  V30 246 1 218 219
M  V30 247 1 216 220
M  V30 248 1 219 220
M  V30 249 1 220 221
M  V30 250 1 221 222
M  V30 251 1 222 223
M  V30 252 1 223 224
M  V30 253 1 224 225
M  V30 254 1 225 226
M  V30 255 1 222 227
M  V30 256 1 226 227
M  V30 257 1 198 228
M  V30 258 1 225 228
M  V30 259 1 200 229
M  V30 260 1 229 230
M  V30 261 1 205 231
M  V30 262 1 218 232
M  V30 263 1 232 233
M  V30 264 1 219 234
M  V30 265 1 193 235
M  V30 266 1 212 236
M  V30 267 1 212 237
M  V30 268 1 234 238
M  V30 269 1 193 239
M  V30 270 1 231 240
M  V30 271 1 241 242
M  V30 272 1 242 243
M  V30 273 1 243 244
M  V30 274 1 244 245
M  V30 275 1 241 246
M  V30 276 1 245 246
M  V30 277 1 244 247
M  V30 278 1 247 248
M  V30 279 1 248 249
M  V30 280 1 245 250
M  V30 281 1 249 250
M  V30 282 1 249 251
M  V30 283 1 251 252
M  V30 284 1 252 253
M  V30 285 1 253 254
M  V30 286 1 254 255
M  V30 287 1 255 256
M  V30 288 1 252 257
M  V30 289 1 256 257
M  V30 290 1 256 258
M  V30 291 1 258 259
M  V30 292 1 259 260
M  V30 293 1 260 261
M  V30 294 1 261 262
M  V30 295 1 262 263
M  V30 296 1 259 264
M  V30 297 1 263 264
M  V30 298 1 263 265
M  V30 299 1 265 266
M  V30 300 1 266 267
M  V30 301 1 264 268
M  V30 302 1 267 268
M  V30 303 1 268 269
M  V30 304 1 269 270
M  V30 305 1 270 271
M  V30 306 1 271 272
M  V30 307 1 272 273
M  V30 308 1 273 274
M  V30 309 1 270 275
M  V30 310 1 274 275
M  V30 311 1 246 276
M  V30 312 1 273 276
M  V30 313 1 248 277
M  V30 314 1 277 278
M  V30 315 1 253 279
M  V30 316 1 266 280
M  V30 317 1 280 281
M  V30 318 1 267 282
M  V30 319 1 241 283
M  V30 320 1 260 284
M  V30 321 1 260 285
M  V30 322 1 282 286
M  V30 323 1 241 287
M  V30 324 1 279 288
M  V30 325 1 289 290
M  V30 326 1 290 291
M  V30 327 1 291 292
M  V30 328 1 292 293
M  V30 329 1 289 294
M  V30 330 1 293 294
M  V30 331 1 292 295
M  V30 332 1 295 296
M  V30 333 1 296 297
M  V30 334 1 293 298
M  V30 335 1 297 298
M  V30 336 1 297 299
M  V30 337 1 299 300
M  V30 338 1 300 301
M  V30 339 1 301 302
M  V30 340 1 302 303
M  V30 341 1 303 304
M  V30 342 1 300 305
M  V30 343 1 304 305
M  V30 344 1 304 306
M  V30 345 1 306 307
M  V30 346 1 307 308
M  V30 347 1 308 309
M  V30 348 1 309 310
M  V30 349 1 310 311
M  V30 350 1 307 312
M  V30 351 1 311 312
M  V30 352 1 311 313
M  V30 353 1 313 314
M  V30 354 1 314 315
M  V30 355 1 312 316
M  V30 356 1 315 316
M  V30 357 1 316 317
M  V30 358 1 317 318
M  V30 359 1 318 319
M  V30 360 1 319 320
M  V30 361 1 320 321
M  V30 362 1 321 322
M  V30 363 1 318 323
M  V30 364 1 322 323
M  V30 365 1 294 324
M  V30 366 1 321 324
M  V30 367 1 296 325
M  V30 368 1 325 326
M  V30 369 1 301 327
M  V30 370 1 314 328
M  V30 371 1 328 329
M  V30 372 1 315 330
M  V30 373 1 289 331
M  V30 374 1 308 332
M  V30 375 1 308 333
M  V30 376 1 330 334
M  V30 377 1 289 335
M  V30 378 1 327 336
M  V30 379 1 337 338
M  V30 380 1 338 339
M  V30 381 1 339 340
M  V30 382 1 340 341
M  V30 383 1 337 342
M  V30 384 1 341 342
M  V30 385 1 340 343
M  V30 386 1 343 344
M  V30 387 1 344 345
M  V30 388 1 341 346
M  V30 389 1 345 346
M  V30 390 1 345 347
M  V30 391 1 347 348
M  V30 392 1 348 349
M  V30 393 1 349 350
M  V30 394 1 350 351
M  V30 395 1 351 352
M  V30 396 1 348 353
M  V30 397 1 352 353
M  V30 398 1 352 354
M  V30 399 1 354 355
M  V30 400 1 355 356
M  V30 401 1 356 357
M  V30 402 1 357 358
M  V30 403 1 358 359
M  V30 404 1 355 360
M  V30 405 1 359 360
M  V30 406 1 359 361
M  V30 407 1 361 362
M  V30 408 1 362 363
M  V30 409 1 360 364
M  V30 410 1 363 364
M  V30 411 1 364 365
M  V30 412 1 365 366
M  V30 413 1 366 367
M  V30 414 1 367 368
M  V30 415 1 368 369
M  V30 416 1 369 370
M  V30 417 1 366 371
M  V30 418 1 370 371
M  V30 419 1 342 372
M  V30 420 1 369 372
M  V30 421 1 344 373
M  V30 422 1 373 374
M  V30 423 1 349 375
M  V30 424 1 362 376
M  V30 425 1 376 377
M  V30 426 1 363 378
M  V30 427 1 337 379
M  V30 428 1 356 380
M  V30 429 1 356 381
M  V30 430 1 378 382
M  V30 431 1 337 383
M  V30 432 1 375 384
M  V30 433 1 2 385
M  V30 434 1 2 386
M  V30 435 1 3 387
M  V30 436 1 3 388
M  V30 437 1 4 389
M  V30 438 1 5 390
M  V30 439 1 6 391 CFG=1
M  V30 440 1 7 392
M  V30 441 1 7 393
M  V30 442 1 8 394
M  V30 443 1 9 395
M  V30 444 1 10 396
M  V30 445 1 10 397
M  V30 446 1 12 398
M  V30 447 1 13 399
M  V30 448 1 14 400
M  V30 449 1 14 401
M  V30 450 1 15 402
M  V30 451 1 15 403
M  V30 452 1 16 404
M  V30 453 1 17 405
M  V30 454 1 17 406
M  V30 455 1 18 407
M  V30 456 1 18 408
M  V30 457 1 19 409 CFG=3
M  V30 458 1 21 410
M  V30 459 1 21 411
M  V30 460 1 22 412
M  V30 461 1 22 413
M  V30 462 1 23 414 CFG=1
M  V30 463 1 24 415
M  V30 464 1 25 416
M  V30 465 1 25 417
M  V30 466 1 26 418
M  V30 467 1 27 419
M  V30 468 1 28 420
M  V30 469 1 30 421
M  V30 470 1 31 422
M  V30 471 1 31 423
M  V30 472 1 32 424
M  V30 473 1 32 425
M  V30 474 1 33 426
M  V30 475 1 34 427
M  V30 476 1 34 428
M  V30 477 1 35 429
M  V30 478 1 35 430
M  V30 479 1 36 431
M  V30 480 1 36 432
M  V30 481 1 38 433
M  V30 482 1 38 434
M  V30 483 1 38 435
M  V30 484 1 41 436
M  V30 485 1 41 437
M  V30 486 1 41 438
M  V30 487 1 43 439
M  V30 488 1 43 440
M  V30 489 1 43 441
M  V30 490 1 44 442
M  V30 491 1 44 443
M  V30 492 1 44 444
M  V30 493 1 45 445
M  V30 494 1 45 446
M  V30 495 1 45 447
M  V30 496 1 46 448
M  V30 497 1 46 449
M  V30 498 1 46 450
M  V30 499 1 47 451
M  V30 500 1 47 452
M  V30 501 1 47 453
M  V30 502 1 48 454
M  V30 503 1 48 455
M  V30 504 1 48 456
M  V30 505 1 50 457
M  V30 506 1 50 458
M  V30 507 1 51 459
M  V30 508 1 51 460
M  V30 509 1 52 461 CFG=1
M  V30 510 1 53 462 CFG=1
M  V30 511 1 54 463 CFG=1
M  V30 512 1 55 464
M  V30 513 1 55 465
M  V30 514 1 56 466 CFG=1
M  V30 515 1 57 467
M  V30 516 1 58 468
M  V30 517 1 58 469
M  V30 518 1 60 470
M  V30 519 1 61 471
M  V30 520 1 62 472
M  V30 521 1 62 473
M  V30 522 1 63 474
M  V30 523 1 63 475
M  V30 524 1 64 476 CFG=1
M  V30 525 1 65 477
M  V30 526 1 65 478
M  V30 527 1 66 479
M  V30 528 1 66 480
M  V30 529 1 67 481 CFG=3
M  V30 530 1 69 482
M  V30 531 1 69 483
M  V30 532 1 70 484
M  V30 533 1 70 485
M  V30 534 1 71 486 CFG=1
M  V30 535 1 72 487 CFG=1
M  V30 536 1 73 488
M  V30 537 1 73 489
M  V30 538 1 74 490 CFG=1
M  V30 539 1 75 491
M  V30 540 1 76 492 CFG=1
M  V30 541 1 78 493
M  V30 542 1 79 494
M  V30 543 1 79 495
M  V30 544 1 80 496
M  V30 545 1 80 497
M  V30 546 1 81 498
M  V30 547 1 82 499
M  V30 548 1 82 500
M  V30 549 1 83 501
M  V30 550 1 83 502
M  V30 551 1 84 503
M  V30 552 1 84 504
M  V30 553 1 86 505
M  V30 554 1 86 506
M  V30 555 1 86 507
M  V30 556 1 89 508
M  V30 557 1 89 509
M  V30 558 1 89 510
M  V30 559 1 91 511
M  V30 560 1 91 512
M  V30 561 1 91 513
M  V30 562 1 92 514
M  V30 563 1 92 515
M  V30 564 1 92 516
M  V30 565 1 93 517
M  V30 566 1 93 518
M  V30 567 1 93 519
M  V30 568 1 94 520
M  V30 569 1 94 521
M  V30 570 1 94 522
M  V30 571 1 95 523
M  V30 572 1 95 524
M  V30 573 1 95 525
M  V30 574 1 96 526
M  V30 575 1 96 527
M  V30 576 1 96 528
M  V30 577 1 98 529
M  V30 578 1 98 530
M  V30 579 1 99 531
M  V30 580 1 99 532
M  V30 581 1 100 533
M  V30 582 1 101 534
M  V30 583 1 102 535 CFG=1
M  V30 584 1 103 536
M  V30 585 1 103 537
M  V30 586 1 104 538
M  V30 587 1 105 539
M  V30 588 1 106 540
M  V30 589 1 106 541
M  V30 590 1 108 542
M  V30 591 1 109 543
M  V30 592 1 110 544
M  V30 593 1 110 545
M  V30 594 1 111 546
M  V30 595 1 111 547
M  V30 596 1 112 548
M  V30 597 1 113 549
M  V30 598 1 113 550
M  V30 599 1 114 551
M  V30 600 1 114 552
M  V30 601 1 115 553 CFG=3
M  V30 602 1 117 554
M  V30 603 1 117 555
M  V30 604 1 118 556
M  V30 605 1 118 557
M  V30 606 1 119 558
M  V30 607 1 120 559 CFG=3
M  V30 608 1 121 560
M  V30 609 1 121 561
M  V30 610 1 122 562
M  V30 611 1 123 563
M  V30 612 1 124 564 CFG=1
M  V30 613 1 126 565
M  V30 614 1 127 566
M  V30 615 1 127 567
M  V30 616 1 128 568
M  V30 617 1 128 569
M  V30 618 1 129 570
M  V30 619 1 130 571
M  V30 620 1 130 572
M  V30 621 1 131 573
M  V30 622 1 131 574
M  V30 623 1 132 575
M  V30 624 1 132 576
M  V30 625 1 134 577
M  V30 626 1 134 578
M  V30 627 1 134 579
M  V30 628 1 137 580
M  V30 629 1 137 581
M  V30 630 1 137 582
M  V30 631 1 139 583
M  V30 632 1 139 584
M  V30 633 1 139 585
M  V30 634 1 140 586
M  V30 635 1 140 587
M  V30 636 1 140 588
M  V30 637 1 141 589
M  V30 638 1 141 590
M  V30 639 1 141 591
M  V30 640 1 142 592
M  V30 641 1 142 593
M  V30 642 1 142 594
M  V30 643 1 143 595
M  V30 644 1 143 596
M  V30 645 1 143 597
M  V30 646 1 144 598
M  V30 647 1 144 599
M  V30 648 1 144 600
M  V30 649 1 146 601
M  V30 650 1 146 602
M  V30 651 1 147 603
M  V30 652 1 147 604
M  V30 653 1 148 605
M  V30 654 1 149 606
M  V30 655 1 150 607 CFG=1
M  V30 656 1 151 608
M  V30 657 1 151 609
M  V30 658 1 152 610
M  V30 659 1 153 611
M  V30 660 1 154 612
M  V30 661 1 154 613
M  V30 662 1 156 614 CFG=3
M  V30 663 1 157 615 CFG=1
M  V30 664 1 158 616
M  V30 665 1 158 617
M  V30 666 1 159 618
M  V30 667 1 159 619
M  V30 668 1 160 620
M  V30 669 1 161 621
M  V30 670 1 161 622
M  V30 671 1 162 623
M  V30 672 1 162 624
M  V30 673 1 163 625 CFG=3
M  V30 674 1 165 626
M  V30 675 1 165 627
M  V30 676 1 166 628
M  V30 677 1 166 629
M  V30 678 1 167 630
M  V30 679 1 168 631
M  V30 680 1 169 632
M  V30 681 1 169 633
M  V30 682 1 170 634
M  V30 683 1 171 635
M  V30 684 1 172 636
M  V30 685 1 174 637
M  V30 686 1 175 638
M  V30 687 1 175 639
M  V30 688 1 176 640
M  V30 689 1 176 641
M  V30 690 1 177 642
M  V30 691 1 178 643
M  V30 692 1 178 644
M  V30 693 1 179 645
M  V30 694 1 179 646
M  V30 695 1 180 647
M  V30 696 1 180 648
M  V30 697 1 182 649
M  V30 698 1 182 650
M  V30 699 1 182 651
M  V30 700 1 185 652
M  V30 701 1 185 653
M  V30 702 1 185 654
M  V30 703 1 187 655
M  V30 704 1 187 656
M  V30 705 1 187 657
M  V30 706 1 188 658
M  V30 707 1 188 659
M  V30 708 1 188 660
M  V30 709 1 189 661
M  V30 710 1 189 662
M  V30 711 1 189 663
M  V30 712 1 190 664
M  V30 713 1 190 665
M  V30 714 1 190 666
M  V30 715 1 191 667
M  V30 716 1 191 668
M  V30 717 1 191 669
M  V30 718 1 192 670
M  V30 719 1 192 671
M  V30 720 1 192 672
M  V30 721 1 194 673
M  V30 722 1 194 674
M  V30 723 1 195 675
M  V30 724 1 195 676
M  V30 725 1 196 677 CFG=1
M  V30 726 1 197 678
M  V30 727 1 198 679 CFG=1
M  V30 728 1 199 680
M  V30 729 1 199 681
M  V30 730 1 200 682
M  V30 731 1 201 683
M  V30 732 1 202 684
M  V30 733 1 202 685
M  V30 734 1 204 686 CFG=3
M  V30 735 1 205 687
M  V30 736 1 206 688
M  V30 737 1 206 689
M  V30 738 1 207 690
M  V30 739 1 207 691
M  V30 740 1 208 692 CFG=3
M  V30 741 1 209 693
M  V30 742 1 209 694
M  V30 743 1 210 695
M  V30 744 1 210 696
M  V30 745 1 211 697 CFG=3
M  V30 746 1 213 698
M  V30 747 1 213 699
M  V30 748 1 214 700
M  V30 749 1 214 701
M  V30 750 1 215 702 CFG=1
M  V30 751 1 216 703
M  V30 752 1 217 704
M  V30 753 1 217 705
M  V30 754 1 218 706 CFG=1
M  V30 755 1 219 707
M  V30 756 1 220 708 CFG=1
M  V30 757 1 222 709
M  V30 758 1 223 710
M  V30 759 1 223 711
M  V30 760 1 224 712
M  V30 761 1 224 713
M  V30 762 1 225 714
M  V30 763 1 226 715
M  V30 764 1 226 716
M  V30 765 1 227 717
M  V30 766 1 227 718
M  V30 767 1 228 719
M  V30 768 1 228 720
M  V30 769 1 230 721
M  V30 770 1 230 722
M  V30 771 1 230 723
M  V30 772 1 233 724
M  V30 773 1 233 725
M  V30 774 1 233 726
M  V30 775 1 235 727
M  V30 776 1 235 728
M  V30 777 1 235 729
M  V30 778 1 236 730
M  V30 779 1 236 731
M  V30 780 1 236 732
M  V30 781 1 237 733
M  V30 782 1 237 734
M  V30 783 1 237 735
M  V30 784 1 238 736
M  V30 785 1 238 737
M  V30 786 1 238 738
M  V30 787 1 239 739
M  V30 788 1 239 740
M  V30 789 1 239 741
M  V30 790 1 240 742
M  V30 791 1 240 743
M  V30 792 1 240 744
M  V30 793 1 242 745
M  V30 794 1 242 746
M  V30 795 1 243 747
M  V30 796 1 243 748
M  V30 797 1 244 749 CFG=3
M  V30 798 1 245 750
M  V30 799 1 246 751 CFG=1
M  V30 800 1 247 752
M  V30 801 1 247 753
M  V30 802 1 248 754
M  V30 803 1 249 755
M  V30 804 1 250 756
M  V30 805 1 250 757
M  V30 806 1 252 758
M  V30 807 1 253 759 CFG=1
M  V30 808 1 254 760
M  V30 809 1 254 761
M  V30 810 1 255 762
M  V30 811 1 255 763
M  V30 812 1 256 764 CFG=1
M  V30 813 1 257 765
M  V30 814 1 257 766
M  V30 815 1 258 767
M  V30 816 1 258 768
M  V30 817 1 259 769 CFG=3
M  V30 818 1 261 770
M  V30 819 1 261 771
M  V30 820 1 262 772
M  V30 821 1 262 773
M  V30 822 1 263 774 CFG=1
M  V30 823 1 264 775
M  V30 824 1 265 776
M  V30 825 1 265 777
M  V30 826 1 266 778
M  V30 827 1 267 779
M  V30 828 1 268 780
M  V30 829 1 270 781
M  V30 830 1 271 782
M  V30 831 1 271 783
M  V30 832 1 272 784
M  V30 833 1 272 785
M  V30 834 1 273 786
M  V30 835 1 274 787
M  V30 836 1 274 788
M  V30 837 1 275 789
M  V30 838 1 275 790
M  V30 839 1 276 791
M  V30 840 1 276 792
M  V30 841 1 278 793
M  V30 842 1 278 794
M  V30 843 1 278 795
M  V30 844 1 281 796
M  V30 845 1 281 797
M  V30 846 1 281 798
M  V30 847 1 283 799
M  V30 848 1 283 800
M  V30 849 1 283 801
M  V30 850 1 284 802
M  V30 851 1 284 803
M  V30 852 1 284 804
M  V30 853 1 285 805
M  V30 854 1 285 806
M  V30 855 1 285 807
M  V30 856 1 286 808
M  V30 857 1 286 809
M  V30 858 1 286 810
M  V30 859 1 287 811
M  V30 860 1 287 812
M  V30 861 1 287 813
M  V30 862 1 288 814
M  V30 863 1 288 815
M  V30 864 1 288 816
M  V30 865 1 290 817
M  V30 866 1 290 818
M  V30 867 1 291 819
M  V30 868 1 291 820
M  V30 869 1 292 821
M  V30 870 1 293 822
M  V30 871 1 294 823 CFG=1
M  V30 872 1 295 824
M  V30 873 1 295 825
M  V30 874 1 296 826
M  V30 875 1 297 827
M  V30 876 1 298 828
M  V30 877 1 298 829
M  V30 878 1 300 830 CFG=3
M  V30 879 1 301 831
M  V30 880 1 302 832
M  V30 881 1 302 833
M  V30 882 1 303 834
M  V30 883 1 303 835
M  V30 884 1 304 836 CFG=3
M  V30 885 1 305 837
M  V30 886 1 305 838
M  V30 887 1 306 839
M  V30 888 1 306 840
M  V30 889 1 307 841 CFG=3
M  V30 890 1 309 842
M  V30 891 1 309 843
M  V30 892 1 310 844
M  V30 893 1 310 845
M  V30 894 1 311 846
M  V30 895 1 312 847
M  V30 896 1 313 848
M  V30 897 1 313 849
M  V30 898 1 314 850
M  V30 899 1 315 851 CFG=3
M  V30 900 1 316 852 CFG=1
M  V30 901 1 318 853
M  V30 902 1 319 854
M  V30 903 1 319 855
M  V30 904 1 320 856
M  V30 905 1 320 857
M  V30 906 1 321 858
M  V30 907 1 322 859
M  V30 908 1 322 860
M  V30 909 1 323 861
M  V30 910 1 323 862
M  V30 911 1 324 863
M  V30 912 1 324 864
M  V30 913 1 326 865
M  V30 914 1 326 866
M  V30 915 1 326 867
M  V30 916 1 329 868
M  V30 917 1 329 869
M  V30 918 1 329 870
M  V30 919 1 331 871
M  V30 920 1 331 872
M  V30 921 1 331 873
M  V30 922 1 332 874
M  V30 923 1 332 875
M  V30 924 1 332 876
M  V30 925 1 333 877
M  V30 926 1 333 878
M  V30 927 1 333 879
M  V30 928 1 334 880
M  V30 929 1 334 881
M  V30 930 1 334 882
M  V30 931 1 335 883
M  V30 932 1 335 884
M  V30 933 1 335 885
M  V30 934 1 336 886
M  V30 935 1 336 887
M  V30 936 1 336 888
M  V30 937 1 338 889
M  V30 938 1 338 890
M  V30 939 1 339 891
M  V30 940 1 339 892
M  V30 941 1 340 893
M  V30 942 1 341 894
M  V30 943 1 342 895 CFG=1
M  V30 944 1 343 896
M  V30 945 1 343 897
M  V30 946 1 344 898
M  V30 947 1 345 899
M  V30 948 1 346 900
M  V30 949 1 346 901
M  V30 950 1 348 902 CFG=3
M  V30 951 1 349 903 CFG=1
M  V30 952 1 350 904
M  V30 953 1 350 905
M  V30 954 1 351 906
M  V30 955 1 351 907
M  V30 956 1 352 908 CFG=3
M  V30 957 1 353 909
M  V30 958 1 353 910
M  V30 959 1 354 911
M  V30 960 1 354 912
M  V30 961 1 355 913 CFG=3
M  V30 962 1 357 914
M  V30 963 1 357 915
M  V30 964 1 358 916
M  V30 965 1 358 917
M  V30 966 1 359 918
M  V30 967 1 360 919
M  V30 968 1 361 920
M  V30 969 1 361 921
M  V30 970 1 362 922
M  V30 971 1 363 923
M  V30 972 1 364 924
M  V30 973 1 366 925
M  V30 974 1 367 926
M  V30 975 1 367 927
M  V30 976 1 368 928
M  V30 977 1 368 929
M  V30 978 1 369 930
M  V30 979 1 370 931
M  V30 980 1 370 932
M  V30 981 1 371 933
M  V30 982 1 371 934
M  V30 983 1 372 935
M  V30 984 1 372 936
M  V30 985 1 374 937
M  V30 986 1 374 938
M  V30 987 1 374 939
M  V30 988 1 377 940
M  V30 989 1 377 941
M  V30 990 1 377 942
M  V30 991 1 379 943
M  V30 992 1 379 944
M  V30 993 1 379 945
M  V30 994 1 380 946
M  V30 995 1 380 947
M  V30 996 1 380 948
M  V30 997 1 381 949
M  V30 998 1 381 950
M  V30 999 1 381 951
M  V30 1000 1 382 952
M  V30 1001 1 382 953
M  V30 1002 1 382 954
M  V30 1003 1 383 955
M  V30 1004 1 383 956
M  V30 1005 1 383 957
M  V30 1006 1 384 958
M  V30 1007 1 384 959
M  V30 1008 1 384 960
M  V30 END BOND
M  V30 END CTAB
M  END
>  <PDBID>  (1) 
3PEO

>  <PDB ID>  (1) 
3PEO

>  <Generic Name>  (1) 
Metocurine

>  <Brand Name>  (1) 
nan

>  <DrugBank ID>  (1) 
DB01336

>  <ATC Codes>  (1) 
M03AA04

>  <Ligand ID>  (1) 
CU9

>  <Target Name>  (1) 
Neuronal acetylcholine receptor subunit alpha-2

>  <UniProt ID>  (1) 
Q15822

>  <PDB ID.1>  (1) 
3PEO

>  <Seq. Identity>  (1) 
30%

$$$$
