PDB_DB00323_06
     RDKit          3D

 47 48  0  0  0  0  0  0  0  0999 V2000
    0.1095    2.1664   -0.3390 O   0  0  0  0  0  0  0  0  0  0  0  0
    0.3440    0.9099    0.2507 C   0  0  1  0  0  0  0  0  0  0  0  0
   -0.9502    0.1614    0.4495 C   0  0  1  0  0  0  0  0  0  0  0  0
   -1.8174    1.0150    1.3627 C   0  0  0  0  0  0  0  0  0  0  0  0
   -2.9334    1.6902    0.6085 C   0  0  0  0  0  0  0  0  0  0  0  0
   -2.4968    2.5523   -0.3725 O   0  0  0  0  0  0  0  0  0  0  0  0
   -1.6280   -0.2019   -0.8236 C   0  0  0  0  0  0  0  0  0  0  0  0
   -3.0703   -0.5384   -0.5243 C   0  0  0  0  0  0  0  0  0  0  0  0
   -3.0913   -1.6647    0.3796 N   0  0  0  0  0  0  0  0  0  0  0  0
   -2.4918   -2.7498   -0.1484 O   0  0  0  0  0  0  0  0  0  0  0  0
   -4.3484   -2.0243    0.7203 O   0  0  0  0  0  0  0  0  0  0  0  0
   -3.8378    0.5973    0.0666 C   0  0  0  0  0  0  0  0  0  0  0  0
   -4.7516    1.1659   -0.8344 O   0  0  0  0  0  0  0  0  0  0  0  0
    1.3569    0.1379   -0.5442 C   0  0  0  0  0  0  0  0  0  0  0  0
    1.5877   -1.1842    0.0975 C   0  0  0  0  0  0  0  0  0  0  0  0
    3.0035   -1.6852   -0.0091 C   0  0  0  0  0  0  0  0  0  0  0  0
    4.0208   -0.6804    0.4682 C   0  0  0  0  0  0  0  0  0  0  0  0
    5.1203   -0.5796   -0.5658 C   0  0  0  0  0  0  0  0  0  0  0  0
    3.4251    0.7005    0.6275 C   0  0  0  0  0  0  0  0  0  0  0  0
    2.6162    0.9853   -0.6138 C   0  0  0  0  0  0  0  0  0  0  0  0
   -1.2339    1.7863    1.8682 H   0  0  0  0  0  0  0  0  0  0  0  0
   -3.0182    2.4606   -1.2226 H   0  0  0  0  0  0  0  0  0  0  0  0
   -1.1602   -1.1170   -1.2240 H   0  0  0  0  0  0  0  0  0  0  0  0
   -5.2322    1.8732   -0.3132 H   0  0  0  0  0  0  0  0  0  0  0  0
    1.2764   -1.2098    1.1812 H   0  0  0  0  0  0  0  0  0  0  0  0
    3.0819   -2.5673    0.6641 H   0  0  0  0  0  0  0  0  0  0  0  0
    4.8915   -1.2050   -1.4646 H   0  0  0  0  0  0  0  0  0  0  0  0
    6.1016   -0.9315   -0.1845 H   0  0  0  0  0  0  0  0  0  0  0  0
    5.2540    0.4502   -0.9465 H   0  0  0  0  0  0  0  0  0  0  0  0
    2.8311    0.7853    1.5608 H   0  0  0  0  0  0  0  0  0  0  0  0
    2.3343    2.0393   -0.7176 H   0  0  0  0  0  0  0  0  0  0  0  0
    0.2489    2.0990   -1.3251 H   0  0  0  0  0  0  0  0  0  0  0  0
    0.7948    1.1243    1.2414 H   0  0  0  0  0  0  0  0  0  0  0  0
   -0.7075   -0.7714    0.9981 H   0  0  0  0  0  0  0  0  0  0  0  0
   -2.2911    0.3890    2.1478 H   0  0  0  0  0  0  0  0  0  0  0  0
   -3.5213    2.2673    1.3341 H   0  0  0  0  0  0  0  0  0  0  0  0
   -1.5554    0.5644   -1.6195 H   0  0  0  0  0  0  0  0  0  0  0  0
   -3.5940   -0.8468   -1.4599 H   0  0  0  0  0  0  0  0  0  0  0  0
   -2.8569   -3.5443    0.3391 H   0  0  0  0  0  0  0  0  0  0  0  0
   -4.5288   -1.8121    1.6648 H   0  0  0  0  0  0  0  0  0  0  0  0
   -4.4583    0.2538    0.9453 H   0  0  0  0  0  0  0  0  0  0  0  0
    1.0221    0.0217   -1.6166 H   0  0  0  0  0  0  0  0  0  0  0  0
    0.9415   -1.9374   -0.4060 H   0  0  0  0  0  0  0  0  0  0  0  0
    3.2353   -2.0671   -1.0289 H   0  0  0  0  0  0  0  0  0  0  0  0
    4.4840   -0.9459    1.4297 H   0  0  0  0  0  0  0  0  0  0  0  0
    4.2836    1.4095    0.7308 H   0  0  0  0  0  0  0  0  0  0  0  0
    3.2095    0.6582   -1.4796 H   0  0  0  0  0  0  0  0  0  0  0  0
  1  2  1  0
  2  3  1  0
  3  4  1  0
  4  5  1  0
  5  6  1  0
  3  7  1  0
  7  8  1  0
  8  9  1  0
  9 10  1  0
  9 11  1  0
  5 12  1  0
  8 12  1  0
 12 13  1  0
  2 14  1  0
 14 15  1  0
 15 16  1  0
 16 17  1  0
 17 18  1  0
 17 19  1  0
 14 20  1  0
 19 20  1  0
  4 21  1  0
  6 22  1  0
  7 23  1  0
 24 13  1  0
 15 25  1  0
 16 26  1  0
 18 27  1  0
 18 28  1  0
 18 29  1  0
 19 30  1  0
 20 31  1  0
  1 32  1  0
  2 33  1  1
  3 34  1  1
  4 35  1  0
  5 36  1  0
  7 37  1  0
  8 38  1  0
 10 39  1  0
 11 40  1  0
 12 41  1  0
 14 42  1  0
 15 43  1  0
 16 44  1  0
 17 45  1  0
 19 46  1  0
 20 47  1  0
M  END
>  <PDBID>  (1) 
3S68

>  <PDB ID>  (1) 
3S68

>  <Generic Name>  (1) 
Tolcapone

>  <Brand Name>  (1) 
Tasmar#Tolcapone#Sen De Ning

>  <DrugBank ID>  (1) 
DB00323

>  <ATC Codes>  (1) 
N04BX01

>  <Ligand ID>  (1) 
TCW

>  <Target Name>  (1) 
Catechol O-methyltransferase

>  <UniProt ID>  (1) 
P21964

>  <PDB ID.1>  (1) 
3S68

>  <Seq. Identity>  (1) 
81%

$$$$
