PDB_DB00373_07
     RDKit          3D

 49 50  0  0  0  0  0  0  0  0999 V2000
    3.6494   -1.2635    0.7620 C   0  0  0  0  0  0  0  0  0  0  0  0
    4.9018   -1.2697    1.5710 C   0  0  0  0  0  0  0  0  0  0  0  0
    6.0223   -0.8009    0.9172 O   0  0  0  0  0  0  0  0  0  0  0  0
    5.9178   -0.8844   -0.4592 C   0  0  0  0  0  0  0  0  0  0  0  0
    4.7810    0.0122   -0.8988 C   0  0  0  0  0  0  0  0  0  0  0  0
    3.5359   -0.2529   -0.2313 N   0  0  0  0  0  0  0  0  0  0  0  0
    2.9803    0.9538    0.2708 C   0  0  0  0  0  0  0  0  0  0  0  0
    2.9454    2.0142   -0.7526 N   0  0  0  0  0  0  0  0  0  0  0  0
    2.0968    3.2705    0.2098 S   0  0  0  0  0  0  0  0  0  0  0  0
    1.5371    2.2026    1.5346 N   0  0  0  0  0  0  0  0  0  0  0  0
    1.5809    0.9102    0.7739 C   0  0  0  0  0  0  0  0  0  0  0  0
    0.6283    1.1300   -0.2429 O   0  0  0  0  0  0  0  0  0  0  0  0
   -0.4716    0.2791   -0.0720 C   0  0  0  0  0  0  0  0  0  0  0  0
   -1.5050    0.5111   -1.1404 C   0  0  1  0  0  0  0  0  0  0  0  0
   -0.9770    0.2265   -2.4060 O   0  0  0  0  0  0  0  0  0  0  0  0
   -2.8322   -0.1362   -0.8995 C   0  0  0  0  0  0  0  0  0  0  0  0
   -3.3113    0.2157    0.4255 N   0  0  0  0  0  0  0  0  0  0  0  0
   -4.7062   -0.2235    0.6060 C   0  0  0  0  0  0  0  0  0  0  0  0
   -5.1435    0.3097    1.9733 C   0  0  0  0  0  0  0  0  0  0  0  0
   -5.5061    0.4620   -0.4828 C   0  0  0  0  0  0  0  0  0  0  0  0
   -4.7907   -1.7184    0.5470 C   0  0  0  0  0  0  0  0  0  0  0  0
    2.8057   -1.1782    1.5066 H   0  0  0  0  0  0  0  0  0  0  0  0
    3.5020   -2.3004    0.3455 H   0  0  0  0  0  0  0  0  0  0  0  0
    4.7544   -0.7597    2.5608 H   0  0  0  0  0  0  0  0  0  0  0  0
    5.1361   -2.3300    1.8576 H   0  0  0  0  0  0  0  0  0  0  0  0
    5.8306   -1.9209   -0.8193 H   0  0  0  0  0  0  0  0  0  0  0  0
    6.8627   -0.4141   -0.8639 H   0  0  0  0  0  0  0  0  0  0  0  0
    4.6609    0.0432   -2.0088 H   0  0  0  0  0  0  0  0  0  0  0  0
    5.1311    1.0540   -0.6476 H   0  0  0  0  0  0  0  0  0  0  0  0
    3.6144    1.4115    1.0895 H   0  0  0  0  0  0  0  0  0  0  0  0
    2.2297    1.7090   -1.4458 H   0  0  0  0  0  0  0  0  0  0  0  0
    2.3791    2.1080    2.1688 H   0  0  0  0  0  0  0  0  0  0  0  0
    1.2830    0.1005    1.4205 H   0  0  0  0  0  0  0  0  0  0  0  0
   -0.9206    0.3681    0.9059 H   0  0  0  0  0  0  0  0  0  0  0  0
   -0.1287   -0.7887   -0.2207 H   0  0  0  0  0  0  0  0  0  0  0  0
   -1.7371    1.6301   -1.2026 H   0  0  0  0  0  0  0  0  0  0  0  0
   -0.2501   -0.4261   -2.2626 H   0  0  0  0  0  0  0  0  0  0  0  0
   -3.5595    0.2362   -1.6501 H   0  0  0  0  0  0  0  0  0  0  0  0
   -2.7335   -1.2431   -0.9658 H   0  0  0  0  0  0  0  0  0  0  0  0
   -2.7551   -0.2936    1.1747 H   0  0  0  0  0  0  0  0  0  0  0  0
   -6.2255    0.1219    2.1091 H   0  0  0  0  0  0  0  0  0  0  0  0
   -4.9814    1.4019    1.9892 H   0  0  0  0  0  0  0  0  0  0  0  0
   -4.5548   -0.1500    2.7789 H   0  0  0  0  0  0  0  0  0  0  0  0
   -5.6689   -0.1952   -1.3631 H   0  0  0  0  0  0  0  0  0  0  0  0
   -4.9821    1.4072   -0.7900 H   0  0  0  0  0  0  0  0  0  0  0  0
   -6.5097    0.7778   -0.1054 H   0  0  0  0  0  0  0  0  0  0  0  0
   -5.0678   -2.0762   -0.4774 H   0  0  0  0  0  0  0  0  0  0  0  0
   -3.8593   -2.2194    0.8562 H   0  0  0  0  0  0  0  0  0  0  0  0
   -5.5888   -2.0219    1.2871 H   0  0  0  0  0  0  0  0  0  0  0  0
  1  2  1  0
  2  3  1  0
  3  4  1  0
  4  5  1  0
  1  6  1  0
  5  6  1  0
  6  7  1  0
  7  8  1  0
  8  9  1  0
  9 10  1  0
  7 11  1  0
 10 11  1  0
 11 12  1  0
 12 13  1  0
 13 14  1  0
 14 15  1  0
 14 16  1  0
 16 17  1  0
 18 17  1  0
 18 19  1  0
 18 20  1  0
 18 21  1  0
  1 22  1  0
  1 23  1  0
  2 24  1  0
  2 25  1  0
  4 26  1  0
  4 27  1  0
  5 28  1  0
  5 29  1  0
  7 30  1  0
  8 31  1  0
 10 32  1  0
 11 33  1  0
 13 34  1  0
 13 35  1  0
 14 36  1  6
 15 37  1  0
 16 38  1  0
 16 39  1  0
 17 40  1  0
 19 41  1  0
 19 42  1  0
 19 43  1  0
 20 44  1  0
 20 45  1  0
 20 46  1  0
 21 47  1  0
 21 48  1  0
 21 49  1  0
M  END
>  <PDBID>  (1) 
3D4S

>  <PDB ID>  (1) 
3D4S

>  <Generic Name>  (1) 
Timolol

>  <Brand Name>  (1) 
Act Dorzotimolol#Act Latanoprost/timolol#Apo-brimonidine-timop#Apo-dorzo-timop#Apo-latanoprost-timop#Apo-timol Tablets 10mg#Apo-timol Tablets 20mg#Apo-timol Tablets 5mg#Apo-timop Gel#Apo-timop Liq 0.5%#Apo-timop Oph Soln 0.25%#Apo-travoprost-timop#Azarga#Beta-tim - 0.25% Liq#Beta-tim - 0.5% Liq#Betimol#Blocadren Tab 10mg#Blocadren Tab 20mg#Blocadren Tab 5mg#Combigan#Cosopt#Cosopt PF#Dom-timolol#Dorzolamide HCl /timolol Maleate#Dorzolamide HCl and Timolol Maleate#Dorzolamide Hydrochloride and Timolol Maleate#Dorzolamide Hydrochloride and Timolol Maleate Ophthalmic Solution#Dorzolamide Hydrochloride-timolol Maleate#Dorzolamide Hydrochloride-timolol Maleate Ophthalmic Solution Sterile Ophthalmic Solution#Duotrav Pq#Gd-latanoprost/timolol#Istalol#Jamp-dorzolamide/timolol#Jamp-latanoprost/timolol#Jamp-timolol#Med Timolol Liq Oph 0.25%#Med Timolol Liq Oph 0.5%#Med-dorzolamide-timolol#Med-latanoprost-timolol#Mint-dorzolamide/timolol#Mint-latanoprost/timolol#Mylan-dorzolamide/timolol#Mylan-latanoprost/timolol#Mylan-timolol#Novo-timol Liq 0.25%#Novo-timol Liq 0.5%#Nu-timolol Tab 10mg#Nu-timolol Tab 20mg#Nu-timolol Tab 5mg#Odan-timolol#PMS-dorzolamide-timolol#PMS-latanoprost-timolol#PMS-timolol#Ratio-timolol Maleate 0.25%#Ratio-timolol Maleate 0.5%#Rhoxal-timolol 0.25%#Rhoxal-timolol 0.5%#Riva-dorzolamide/timolol#Riva-latanoprost/timolol#Sandoz Dorzolamide/timolol#Sandoz Latanoprost/timolol#Sandoz Timolol#Sandoz Travoprost / Timolol Pq#T-LO  - Liq Oph 0.25%#T-LO - Liq Oph 0.5%#Teva-dorzotimol#Teva-latanoprost/timolol#Teva-timolol#Timolide Tab#Timolol Gfs#Timolol Maleate#Timolol Maleate-EX#Timolol Solution - 0.25%#Timolol Solution - 0.5%#Timolol-10 Tab 10mg#Timolol-20 Tab 20mg#Timolol-5 Tab 5mg#Timoptic#Timoptic-XE#Timpilo 2#Timpilo 4#Van-dorzolamide-timolol#Xalacom#Blocadren#Proflax#Tenopt#Timacar Depot#Timacor#Timoptol

>  <DrugBank ID>  (1) 
DB00373

>  <ATC Codes>  (1) 
S01ED51#S01ED01#C07DA06#C07BA06#C07AA06

>  <Ligand ID>  (1) 
TIM

>  <Target Name>  (1) 
Beta-1 adrenergic receptor

>  <UniProt ID>  (1) 
P08588

>  <PDB ID.1>  (1) 
3D4S

>  <Seq. Identity>  (1) 
67%

$$$$
