PDB_DB01004_07
     RDKit          3D

 78 80  0  0  0  0  0  0  0  0999 V2000
   -3.8300   -0.3881    0.2632 N   0  0  0  0  0  0  0  0  0  0  0  0
   -3.1557    0.8160    0.6661 C   0  0  0  0  0  0  0  0  0  0  0  0
   -1.0804   -0.2066    0.7440 C   0  0  0  0  0  0  0  0  0  0  0  0
    0.2077   -1.5019   -0.6742 C   0  0  0  0  0  0  0  0  0  0  0  0
    3.8613    1.9208    0.1421 C   0  0  0  0  0  0  0  0  0  0  0  0
    4.4938    2.1236   -1.0683 O   0  0  0  0  0  0  0  0  0  0  0  0
    3.9520   -0.4528   -0.1819 C   0  0  0  0  0  0  0  0  0  0  0  0
    3.3304   -1.6857   -0.2228 O   0  0  0  0  0  0  0  0  0  0  0  0
    2.9861    0.6518    0.1131 C   0  0  0  0  0  0  0  0  0  0  0  0
    2.0234    0.7343   -0.8411 O   0  0  0  0  0  0  0  0  0  0  0  0
    0.7251    0.7977   -0.4625 C   0  0  0  0  0  0  0  0  0  0  0  0
    0.2837   -0.3630    0.2468 N   0  0  0  0  0  0  0  0  0  0  0  0
   -1.8060    0.8510    0.0853 N   0  0  0  0  0  0  0  0  0  0  0  0
   -3.9331    1.9525    0.2895 N   0  0  0  0  0  0  0  0  0  0  0  0
   -3.1628   -1.5992    0.6184 C   0  0  0  0  0  0  0  0  0  0  0  0
   -3.5072   -2.0854    1.8762 O   0  0  0  0  0  0  0  0  0  0  0  0
   -1.6705   -1.5532    0.5146 C   0  0  0  0  0  0  0  0  0  0  0  0
   -1.1897   -1.8329   -0.8372 N   0  0  0  0  0  0  0  0  0  0  0  0
   -3.8300   -0.3881    0.2632 N   0  0  0  0  0  0  0  0  0  0  0  0
   -3.1557    0.8160    0.6661 C   0  0  0  0  0  0  0  0  0  0  0  0
   -1.0804   -0.2066    0.7440 C   0  0  0  0  0  0  0  0  0  0  0  0
    0.2077   -1.5019   -0.6742 C   0  0  0  0  0  0  0  0  0  0  0  0
    3.8613    1.9208    0.1421 C   0  0  0  0  0  0  0  0  0  0  0  0
    4.4938    2.1236   -1.0683 O   0  0  0  0  0  0  0  0  0  0  0  0
    3.9520   -0.4528   -0.1819 C   0  0  0  0  0  0  0  0  0  0  0  0
    3.3304   -1.6857   -0.2228 O   0  0  0  0  0  0  0  0  0  0  0  0
    2.9861    0.6518    0.1131 C   0  0  0  0  0  0  0  0  0  0  0  0
    2.0234    0.7343   -0.8411 O   0  0  0  0  0  0  0  0  0  0  0  0
    0.7251    0.7977   -0.4625 C   0  0  0  0  0  0  0  0  0  0  0  0
    0.2837   -0.3630    0.2468 N   0  0  0  0  0  0  0  0  0  0  0  0
   -1.8060    0.8510    0.0853 N   0  0  0  0  0  0  0  0  0  0  0  0
   -3.9331    1.9525    0.2895 N   0  0  0  0  0  0  0  0  0  0  0  0
   -3.1628   -1.5992    0.6184 C   0  0  0  0  0  0  0  0  0  0  0  0
   -3.5072   -2.0854    1.8762 O   0  0  0  0  0  0  0  0  0  0  0  0
   -1.6705   -1.5532    0.5146 C   0  0  0  0  0  0  0  0  0  0  0  0
   -1.1897   -1.8329   -0.8372 N   0  0  0  0  0  0  0  0  0  0  0  0
   -4.0916   -0.3711   -0.7520 H   0  0  0  0  0  0  0  0  0  0  0  0
   -3.0074    0.7716    1.7622 H   0  0  0  0  0  0  0  0  0  0  0  0
   -1.0204    0.0554    1.8151 H   0  0  0  0  0  0  0  0  0  0  0  0
    0.6746   -2.3561   -0.1071 H   0  0  0  0  0  0  0  0  0  0  0  0
    0.7221   -1.2925   -1.6107 H   0  0  0  0  0  0  0  0  0  0  0  0
    3.2943    2.7897    0.5031 H   0  0  0  0  0  0  0  0  0  0  0  0
    4.6498    1.7044    0.8929 H   0  0  0  0  0  0  0  0  0  0  0  0
    3.9118    2.7512   -1.5984 H   0  0  0  0  0  0  0  0  0  0  0  0
    4.8013   -0.4524    0.5680 H   0  0  0  0  0  0  0  0  0  0  0  0
    4.3849   -0.2924   -1.2000 H   0  0  0  0  0  0  0  0  0  0  0  0
    3.7787   -2.3428   -0.7950 H   0  0  0  0  0  0  0  0  0  0  0  0
    2.6165    0.5739    1.1477 H   0  0  0  0  0  0  0  0  0  0  0  0
    0.1177    0.8576   -1.4168 H   0  0  0  0  0  0  0  0  0  0  0  0
    0.4568    1.6940    0.1349 H   0  0  0  0  0  0  0  0  0  0  0  0
   -1.8578    0.7368   -0.9540 H   0  0  0  0  0  0  0  0  0  0  0  0
   -4.9165    1.7433    0.0884 H   0  0  0  0  0  0  0  0  0  0  0  0
   -3.4485    2.5536   -0.3956 H   0  0  0  0  0  0  0  0  0  0  0  0
   -3.5105   -2.3885   -0.1117 H   0  0  0  0  0  0  0  0  0  0  0  0
   -3.2812   -1.4443    2.5977 H   0  0  0  0  0  0  0  0  0  0  0  0
   -1.2067   -2.2731    1.1941 H   0  0  0  0  0  0  0  0  0  0  0  0
   -1.5957   -1.1973   -1.5458 H   0  0  0  0  0  0  0  0  0  0  0  0
   -4.0916   -0.3711   -0.7520 H   0  0  0  0  0  0  0  0  0  0  0  0
   -3.0074    0.7716    1.7622 H   0  0  0  0  0  0  0  0  0  0  0  0
   -1.0204    0.0554    1.8151 H   0  0  0  0  0  0  0  0  0  0  0  0
    0.6746   -2.3561   -0.1071 H   0  0  0  0  0  0  0  0  0  0  0  0
    0.7221   -1.2925   -1.6107 H   0  0  0  0  0  0  0  0  0  0  0  0
    3.2943    2.7897    0.5031 H   0  0  0  0  0  0  0  0  0  0  0  0
    4.6498    1.7044    0.8929 H   0  0  0  0  0  0  0  0  0  0  0  0
    3.9118    2.7512   -1.5984 H   0  0  0  0  0  0  0  0  0  0  0  0
    4.8013   -0.4524    0.5680 H   0  0  0  0  0  0  0  0  0  0  0  0
    4.3849   -0.2924   -1.2000 H   0  0  0  0  0  0  0  0  0  0  0  0
    3.7787   -2.3428   -0.7950 H   0  0  0  0  0  0  0  0  0  0  0  0
    2.6165    0.5739    1.1477 H   0  0  0  0  0  0  0  0  0  0  0  0
    0.1177    0.8576   -1.4168 H   0  0  0  0  0  0  0  0  0  0  0  0
    0.4568    1.6940    0.1349 H   0  0  0  0  0  0  0  0  0  0  0  0
   -1.8578    0.7368   -0.9540 H   0  0  0  0  0  0  0  0  0  0  0  0
   -4.9165    1.7433    0.0884 H   0  0  0  0  0  0  0  0  0  0  0  0
   -3.4485    2.5536   -0.3956 H   0  0  0  0  0  0  0  0  0  0  0  0
   -3.5105   -2.3885   -0.1117 H   0  0  0  0  0  0  0  0  0  0  0  0
   -3.2812   -1.4443    2.5977 H   0  0  0  0  0  0  0  0  0  0  0  0
   -1.2067   -2.2731    1.1941 H   0  0  0  0  0  0  0  0  0  0  0  0
   -1.5957   -1.1973   -1.5458 H   0  0  0  0  0  0  0  0  0  0  0  0
  1  2  1  0
  5  6  1  0
  7  8  1  0
  5  9  1  0
  7  9  1  0
  9 10  1  0
 10 11  1  0
  3 12  1  0
  4 12  1  0
 11 12  1  0
  2 13  1  0
  3 13  1  0
  2 14  1  0
  1 15  1  0
 15 16  1  0
  3 17  1  0
 15 17  1  0
  4 18  1  0
 17 18  1  0
 19 20  1  0
 23 24  1  0
 25 26  1  0
 23 27  1  0
 25 27  1  0
 27 28  1  0
 28 29  1  0
 21 30  1  0
 22 30  1  0
 29 30  1  0
 20 31  1  0
 21 31  1  0
 20 32  1  0
 19 33  1  0
 33 34  1  0
 21 35  1  0
 33 35  1  0
 22 36  1  0
 35 36  1  0
  1 37  1  0
  2 38  1  0
  3 39  1  0
  4 40  1  0
  4 41  1  0
  5 42  1  0
  5 43  1  0
  6 44  1  0
  7 45  1  0
  7 46  1  0
  8 47  1  0
  9 48  1  0
 11 49  1  0
 11 50  1  0
 13 51  1  0
 14 52  1  0
 14 53  1  0
 15 54  1  0
 16 55  1  0
 17 56  1  0
 18 57  1  0
 19 58  1  0
 20 59  1  0
 21 60  1  0
 22 61  1  0
 22 62  1  0
 23 63  1  0
 23 64  1  0
 24 65  1  0
 25 66  1  0
 25 67  1  0
 26 68  1  0
 27 69  1  0
 29 70  1  0
 29 71  1  0
 31 72  1  0
 32 73  1  0
 32 74  1  0
 33 75  1  0
 34 76  1  0
 35 77  1  0
 36 78  1  0
M  END
>  <PDBID>  (1) 
1KI2

>  <PDB ID>  (1) 
1KI2

>  <Generic Name>  (1) 
Ganciclovir

>  <Brand Name>  (1) 
Cytovene - Cap 250mg#Cytovene - Pws 500mg/10m/-vial IV#Cytovene IV#Cytovene Inj 500mg/vial#Cytovene, 500 mg#Ganciclovir#Ganciclovir for Injection#Vitrasert, Intravitreal Implant#Zirgan#Cytovene#Vitrasert

>  <DrugBank ID>  (1) 
DB01004

>  <ATC Codes>  (1) 
J05AB06#S01AD09

>  <Ligand ID>  (1) 
GA2

>  <Target Name>  (1) 
Thymidine kinase

>  <UniProt ID>  (1) 
P03176

>  <PDB ID.1>  (1) 
1KI2

>  <Seq. Identity>  (1) 
100%

$$$$
