PDB_DB09330_04
     RDKit          3D

 94 97  0  0  0  0  0  0  0  0999 V2000
    7.9080    2.0668    1.4107 C   0  0  0  0  0  0  0  0  0  0  0  0
    6.6767    2.7941    1.1896 N   0  0  0  0  0  0  0  0  0  0  0  0
    6.9258    4.2051    0.9540 C   0  0  0  0  0  0  0  0  0  0  0  0
    5.9095    2.2159    0.0950 C   0  0  0  0  0  0  0  0  0  0  0  0
    5.3789    0.8375    0.4677 C   0  0  0  0  0  0  0  0  0  0  0  0
    4.6462    0.3000   -0.6066 N   0  0  0  0  0  0  0  0  0  0  0  0
    5.3223   -0.0306   -1.7975 C   0  0  0  0  0  0  0  0  0  0  0  0
    2.4926    1.1259   -0.0619 C   0  0  0  0  0  0  0  0  0  0  0  0
    0.9720    0.7618   -0.0409 C   0  0  0  0  0  0  0  0  0  0  0  0
    0.3658    2.0032    0.1625 O   0  0  0  0  0  0  0  0  0  0  0  0
   -0.2304    2.4890   -0.9772 C   0  0  0  0  0  0  0  0  0  0  0  0
    3.3208   -0.1244   -0.4186 C   0  0  0  0  0  0  0  0  0  0  0  0
    3.0796   -1.0806    0.7231 C   0  0  2  0  0  0  0  0  0  0  0  0
    3.9633   -2.0939    0.9872 N   0  0  0  0  0  0  0  0  0  0  0  0
    4.2995   -3.1773    0.2045 C   0  0  0  0  0  0  0  0  0  0  0  0
    5.1301   -3.0256   -0.8741 O   0  0  0  0  0  0  0  0  0  0  0  0
    3.1463   -4.1526   -0.1219 C   0  0  0  0  0  0  0  0  0  0  0  0
    3.7157   -5.2754   -0.9868 C   0  0  0  0  0  0  0  0  0  0  0  0
    1.6131   -1.4712    0.6137 C   0  0  0  0  0  0  0  0  0  0  0  0
    0.8347   -0.2056    1.0532 C   0  0  0  0  0  0  0  0  0  0  0  0
   -0.3951   -0.6110    1.5600 N   0  0  0  0  0  0  0  0  0  0  0  0
   -1.3476   -1.2770    0.7614 C   0  0  0  0  0  0  0  0  0  0  0  0
   -2.1465   -0.3567    0.0367 N   0  0  0  0  0  0  0  0  0  0  0  0
   -2.0839   -2.2299    1.5811 N   0  0  0  0  0  0  0  0  0  0  0  0
   -3.0613   -1.4680    2.3101 C   0  0  0  0  0  0  0  0  0  0  0  0
   -4.1427   -1.1193    1.2712 C   0  0  0  0  0  0  0  0  0  0  0  0
   -3.5631   -0.7311   -0.0561 C   0  0  0  0  0  0  0  0  0  0  0  0
   -4.2350    0.4709   -0.6721 C   0  0  0  0  0  0  0  0  0  0  0  0
   -5.6499    0.3545   -1.0412 C   0  0  0  0  0  0  0  0  0  0  0  0
   -6.4308   -0.8217   -0.5608 C   0  0  0  0  0  0  0  0  0  0  0  0
   -7.8375   -0.6343   -1.1843 C   0  0  0  0  0  0  0  0  0  0  0  0
   -8.4504    0.4590   -0.3296 C   0  0  0  0  0  0  0  0  0  0  0  0
   -7.6944    1.7241   -0.4319 C   0  0  0  0  0  0  0  0  0  0  0  0
   -6.2420    1.6809   -0.6508 C   0  0  0  0  0  0  0  0  0  0  0  0
   -5.4263    2.2070    0.4001 N   0  0  0  0  0  0  0  0  0  0  0  0
   -5.9542    2.2481    1.7020 C   0  0  0  0  0  0  0  0  0  0  0  0
   -4.1104    1.6903    0.2400 C   0  0  0  0  0  0  0  0  0  0  0  0
    7.9676    1.2594    0.6681 H   0  0  0  0  0  0  0  0  0  0  0  0
    7.9982    1.7417    2.4545 H   0  0  0  0  0  0  0  0  0  0  0  0
    8.7483    2.7971    1.2491 H   0  0  0  0  0  0  0  0  0  0  0  0
    7.5624    4.3044    0.0366 H   0  0  0  0  0  0  0  0  0  0  0  0
    7.5711    4.5513    1.8012 H   0  0  0  0  0  0  0  0  0  0  0  0
    6.0216    4.8056    0.9509 H   0  0  0  0  0  0  0  0  0  0  0  0
    5.0464    2.8810   -0.0726 H   0  0  0  0  0  0  0  0  0  0  0  0
    6.6143    2.1605   -0.7737 H   0  0  0  0  0  0  0  0  0  0  0  0
    6.1740    0.1818    0.8928 H   0  0  0  0  0  0  0  0  0  0  0  0
    4.6584    1.0581    1.3143 H   0  0  0  0  0  0  0  0  0  0  0  0
    4.5977   -0.5923   -2.4531 H   0  0  0  0  0  0  0  0  0  0  0  0
    5.5684    0.8866   -2.4017 H   0  0  0  0  0  0  0  0  0  0  0  0
    6.2450   -0.6179   -1.6091 H   0  0  0  0  0  0  0  0  0  0  0  0
    2.7024    1.3312    1.0068 H   0  0  0  0  0  0  0  0  0  0  0  0
    2.6959    1.9674   -0.7154 H   0  0  0  0  0  0  0  0  0  0  0  0
    0.7915    0.4373   -1.0648 H   0  0  0  0  0  0  0  0  0  0  0  0
   -0.7113    3.4674   -0.8398 H   0  0  0  0  0  0  0  0  0  0  0  0
   -0.9875    1.7668   -1.3231 H   0  0  0  0  0  0  0  0  0  0  0  0
    0.4938    2.6138   -1.8161 H   0  0  0  0  0  0  0  0  0  0  0  0
    2.9022   -0.5202   -1.3536 H   0  0  0  0  0  0  0  0  0  0  0  0
    3.0973   -0.3947    1.6454 H   0  0  0  0  0  0  0  0  0  0  0  0
    4.6689   -1.9169    1.7470 H   0  0  0  0  0  0  0  0  0  0  0  0
    4.9319   -3.8658    0.8987 H   0  0  0  0  0  0  0  0  0  0  0  0
    5.8304   -3.6917   -0.9601 H   0  0  0  0  0  0  0  0  0  0  0  0
    2.7927   -4.6260    0.8189 H   0  0  0  0  0  0  0  0  0  0  0  0
    2.3566   -3.6753   -0.7216 H   0  0  0  0  0  0  0  0  0  0  0  0
    3.0874   -6.1615   -0.8124 H   0  0  0  0  0  0  0  0  0  0  0  0
    3.5766   -4.9671   -2.0408 H   0  0  0  0  0  0  0  0  0  0  0  0
    4.7887   -5.4639   -0.7693 H   0  0  0  0  0  0  0  0  0  0  0  0
    1.2852   -1.5924   -0.4448 H   0  0  0  0  0  0  0  0  0  0  0  0
    1.3025   -2.2551    1.2945 H   0  0  0  0  0  0  0  0  0  0  0  0
    1.4587    0.1691    1.9170 H   0  0  0  0  0  0  0  0  0  0  0  0
   -0.2969   -0.9371    2.5434 H   0  0  0  0  0  0  0  0  0  0  0  0
   -0.7761   -1.9776    0.0423 H   0  0  0  0  0  0  0  0  0  0  0  0
   -1.8202   -0.4107   -0.9777 H   0  0  0  0  0  0  0  0  0  0  0  0
   -2.5855   -2.9344    0.9828 H   0  0  0  0  0  0  0  0  0  0  0  0
   -2.7052   -0.5335    2.7301 H   0  0  0  0  0  0  0  0  0  0  0  0
   -3.5452   -2.1039    3.1100 H   0  0  0  0  0  0  0  0  0  0  0  0
   -4.7263   -2.0840    1.2005 H   0  0  0  0  0  0  0  0  0  0  0  0
   -4.7522   -0.3641    1.7657 H   0  0  0  0  0  0  0  0  0  0  0  0
   -3.6416   -1.5632   -0.7496 H   0  0  0  0  0  0  0  0  0  0  0  0
   -3.6412    0.7179   -1.5795 H   0  0  0  0  0  0  0  0  0  0  0  0
   -5.7431    0.2843   -2.1821 H   0  0  0  0  0  0  0  0  0  0  0  0
   -6.6447   -0.8791    0.5025 H   0  0  0  0  0  0  0  0  0  0  0  0
   -6.0347   -1.7235   -1.0270 H   0  0  0  0  0  0  0  0  0  0  0  0
   -8.4124   -1.5446   -1.0261 H   0  0  0  0  0  0  0  0  0  0  0  0
   -7.7599   -0.2622   -2.2119 H   0  0  0  0  0  0  0  0  0  0  0  0
   -8.6097    0.1002    0.7114 H   0  0  0  0  0  0  0  0  0  0  0  0
   -9.4847    0.6099   -0.7224 H   0  0  0  0  0  0  0  0  0  0  0  0
   -8.2055    2.3619   -1.2178 H   0  0  0  0  0  0  0  0  0  0  0  0
   -7.9067    2.3089    0.5086 H   0  0  0  0  0  0  0  0  0  0  0  0
   -6.0121    2.3800   -1.5205 H   0  0  0  0  0  0  0  0  0  0  0  0
   -5.0992    2.0998    2.4248 H   0  0  0  0  0  0  0  0  0  0  0  0
   -6.6807    1.4491    1.9493 H   0  0  0  0  0  0  0  0  0  0  0  0
   -6.3615    3.2617    1.9628 H   0  0  0  0  0  0  0  0  0  0  0  0
   -3.4936    2.5034   -0.2311 H   0  0  0  0  0  0  0  0  0  0  0  0
   -3.5979    1.4529    1.1927 H   0  0  0  0  0  0  0  0  0  0  0  0
  1  2  1  0
  2  3  1  0
  2  4  1  0
  4  5  1  0
  5  6  1  0
  6  7  1  0
  8  9  1  0
  9 10  1  0
 10 11  1  0
  6 12  1  0
  8 12  1  0
 12 13  1  0
 13 14  1  0
 14 15  1  0
 15 16  1  0
 15 17  1  0
 17 18  1  0
 13 19  1  0
  9 20  1  0
 19 20  1  0
 20 21  1  0
 21 22  1  0
 22 23  1  0
 22 24  1  0
 24 25  1  0
 25 26  1  0
 23 27  1  0
 26 27  1  0
 27 28  1  0
 28 29  1  0
 29 30  1  0
 30 31  1  0
 31 32  1  0
 32 33  1  0
 29 34  1  0
 33 34  1  0
 34 35  1  0
 35 36  1  0
 28 37  1  0
 35 37  1  0
  1 38  1  0
  1 39  1  0
  1 40  1  0
  3 41  1  0
  3 42  1  0
  3 43  1  0
  4 44  1  0
  4 45  1  0
  5 46  1  0
  5 47  1  0
  7 48  1  0
  7 49  1  0
  7 50  1  0
  8 51  1  0
  8 52  1  0
  9 53  1  0
 11 54  1  0
 11 55  1  0
 11 56  1  0
 12 57  1  0
 13 58  1  1
 14 59  1  0
 15 60  1  0
 16 61  1  0
 17 62  1  0
 17 63  1  0
 18 64  1  0
 18 65  1  0
 18 66  1  0
 19 67  1  0
 19 68  1  0
 20 69  1  0
 21 70  1  0
 22 71  1  0
 23 72  1  0
 24 73  1  0
 25 74  1  0
 25 75  1  0
 26 76  1  0
 26 77  1  0
 27 78  1  0
 28 79  1  0
 29 80  1  0
 30 81  1  0
 30 82  1  0
 31 83  1  0
 31 84  1  0
 32 85  1  0
 32 86  1  0
 33 87  1  0
 33 88  1  0
 34 89  1  0
 36 90  1  0
 36 91  1  0
 36 92  1  0
 37 93  1  0
 37 94  1  0
M  END
>  <PDBID>  (1) 
4ZAU

>  <PDB ID>  (1) 
4ZAU

>  <Generic Name>  (1) 
Osimertinib

>  <Brand Name>  (1) 
Tagrisso

>  <DrugBank ID>  (1) 
DB09330

>  <ATC Codes>  (1) 
nan

>  <Ligand ID>  (1) 
YY3

>  <Target Name>  (1) 
Epidermal growth factor receptor

>  <UniProt ID>  (1) 
P00533

>  <PDB ID.1>  (1) 
4ZAU

>  <Seq. Identity>  (1) 
96%

$$$$
