PDB_DB00862_00
     RDKit          3D

164170  0  0  0  0  0  0  0  0999 V2000
   -2.0388   -4.0572   -2.3386 C   0  0  0  0  0  0  0  0  0  0  0  0
   -0.6726   -4.2971   -1.8183 C   0  0  0  0  0  0  0  0  0  0  0  0
   -0.0828   -3.3058   -1.0865 O   0  0  0  0  0  0  0  0  0  0  0  0
    0.0658   -2.0926   -1.6829 C   0  0  0  0  0  0  0  0  0  0  0  0
    1.5918   -1.8290   -1.9522 C   0  0  0  0  0  0  0  0  0  0  0  0
    2.2728   -2.1229   -0.6682 C   0  0  0  0  0  0  0  0  0  0  0  0
    1.8582   -1.2325    0.4671 C   0  0  0  0  0  0  0  0  0  0  0  0
    0.3996   -0.9506    0.5194 C   0  0  0  0  0  0  0  0  0  0  0  0
   -0.3246   -0.9634   -0.8047 C   0  0  0  0  0  0  0  0  0  0  0  0
    2.7345    0.2412    0.3512 S   0  0  0  0  0  0  0  0  0  0  0  0
    2.0639    1.0475    1.9961 O   0  0  0  0  0  0  0  0  0  0  0  0
    1.9169    1.3002   -0.6083 O   0  0  0  0  0  0  0  0  0  0  0  0
    8.4030    3.0226    0.0623 C   0  0  0  0  0  0  0  0  0  0  0  0
    4.1505    0.3480    0.6231 N   0  0  0  0  0  0  0  0  0  0  0  0
    4.6463    1.3015    1.6338 C   0  0  0  0  0  0  0  0  0  0  0  0
    6.0612    0.9422    2.0534 C   0  0  0  0  0  0  0  0  0  0  0  0
    6.9997    1.2866    0.9999 N   0  0  0  0  0  0  0  0  0  0  0  0
    6.2818    1.1847   -0.2540 C   0  0  0  0  0  0  0  0  0  0  0  0
    5.2751    0.0283   -0.1880 C   0  0  0  0  0  0  0  0  0  0  0  0
    7.4285    2.6607    1.1553 C   0  0  0  0  0  0  0  0  0  0  0  0
   -1.7874   -0.9457   -0.5789 C   0  0  0  0  0  0  0  0  0  0  0  0
   -2.3029   -2.0695    0.1298 N   0  0  0  0  0  0  0  0  0  0  0  0
   -3.7761   -2.0580    0.0088 C   0  0  0  0  0  0  0  0  0  0  0  0
   -4.2003   -0.7375    0.6018 C   0  0  0  0  0  0  0  0  0  0  0  0
   -3.6596    0.3051   -0.2884 N   0  0  0  0  0  0  0  0  0  0  0  0
   -2.2752    0.3261   -0.0251 N   0  0  0  0  0  0  0  0  0  0  0  0
   -4.3449   -3.1386    0.6367 O   0  0  0  0  0  0  0  0  0  0  0  0
   -5.6566   -0.4512    0.5370 C   0  0  0  0  0  0  0  0  0  0  0  0
   -5.7424    0.9659    0.1438 N   0  0  0  0  0  0  0  0  0  0  0  0
   -4.3567    1.4601    0.2293 C   0  0  0  0  0  0  0  0  0  0  0  0
   -6.2067   -0.5243    1.9672 C   0  0  0  0  0  0  0  0  0  0  0  0
   -4.1697    2.6806   -0.6176 C   0  0  0  0  0  0  0  0  0  0  0  0
   -4.9183    3.8427   -0.0225 C   0  0  0  0  0  0  0  0  0  0  0  0
   -6.3859    3.6093    0.0889 C   0  0  0  0  0  0  0  0  0  0  0  0
   -2.0388   -4.0572   -2.3386 C   0  0  0  0  0  0  0  0  0  0  0  0
   -0.6726   -4.2971   -1.8183 C   0  0  0  0  0  0  0  0  0  0  0  0
   -0.0828   -3.3058   -1.0865 O   0  0  0  0  0  0  0  0  0  0  0  0
    0.0658   -2.0926   -1.6829 C   0  0  0  0  0  0  0  0  0  0  0  0
    1.5918   -1.8290   -1.9522 C   0  0  0  0  0  0  0  0  0  0  0  0
    2.2728   -2.1229   -0.6682 C   0  0  0  0  0  0  0  0  0  0  0  0
    1.8582   -1.2325    0.4671 C   0  0  0  0  0  0  0  0  0  0  0  0
    0.3996   -0.9506    0.5194 C   0  0  0  0  0  0  0  0  0  0  0  0
   -0.3246   -0.9634   -0.8047 C   0  0  0  0  0  0  0  0  0  0  0  0
    2.7345    0.2412    0.3512 S   0  0  0  0  0  0  0  0  0  0  0  0
    2.0639    1.0475    1.9961 O   0  0  0  0  0  0  0  0  0  0  0  0
    1.9169    1.3002   -0.6083 O   0  0  0  0  0  0  0  0  0  0  0  0
    8.4030    3.0226    0.0623 C   0  0  0  0  0  0  0  0  0  0  0  0
    4.1505    0.3480    0.6231 N   0  0  0  0  0  0  0  0  0  0  0  0
    4.6463    1.3015    1.6338 C   0  0  0  0  0  0  0  0  0  0  0  0
    6.0612    0.9422    2.0534 C   0  0  0  0  0  0  0  0  0  0  0  0
    6.9997    1.2866    0.9999 N   0  0  0  0  0  0  0  0  0  0  0  0
    6.2818    1.1847   -0.2540 C   0  0  0  0  0  0  0  0  0  0  0  0
    5.2751    0.0283   -0.1880 C   0  0  0  0  0  0  0  0  0  0  0  0
    7.4285    2.6607    1.1553 C   0  0  0  0  0  0  0  0  0  0  0  0
   -1.7874   -0.9457   -0.5789 C   0  0  0  0  0  0  0  0  0  0  0  0
   -2.3029   -2.0695    0.1298 N   0  0  0  0  0  0  0  0  0  0  0  0
   -3.7761   -2.0580    0.0088 C   0  0  0  0  0  0  0  0  0  0  0  0
   -4.2003   -0.7375    0.6018 C   0  0  0  0  0  0  0  0  0  0  0  0
   -3.6596    0.3051   -0.2884 N   0  0  0  0  0  0  0  0  0  0  0  0
   -2.2752    0.3261   -0.0251 N   0  0  0  0  0  0  0  0  0  0  0  0
   -4.3449   -3.1386    0.6367 O   0  0  0  0  0  0  0  0  0  0  0  0
   -5.6566   -0.4512    0.5370 C   0  0  0  0  0  0  0  0  0  0  0  0
   -5.7424    0.9659    0.1438 N   0  0  0  0  0  0  0  0  0  0  0  0
   -4.3567    1.4601    0.2293 C   0  0  0  0  0  0  0  0  0  0  0  0
   -6.2067   -0.5243    1.9672 C   0  0  0  0  0  0  0  0  0  0  0  0
   -4.1697    2.6806   -0.6176 C   0  0  0  0  0  0  0  0  0  0  0  0
   -4.9183    3.8427   -0.0225 C   0  0  0  0  0  0  0  0  0  0  0  0
   -6.3859    3.6093    0.0889 C   0  0  0  0  0  0  0  0  0  0  0  0
   -2.1967   -3.0608   -2.7871 H   0  0  0  0  0  0  0  0  0  0  0  0
   -2.7688   -4.2939   -1.5353 H   0  0  0  0  0  0  0  0  0  0  0  0
   -2.2420   -4.8121   -3.1445 H   0  0  0  0  0  0  0  0  0  0  0  0
   -0.7266   -5.2076   -1.1472 H   0  0  0  0  0  0  0  0  0  0  0  0
    0.0506   -4.5810   -2.6228 H   0  0  0  0  0  0  0  0  0  0  0  0
   -0.4313   -2.0077   -2.6737 H   0  0  0  0  0  0  0  0  0  0  0  0
    1.9382   -2.5256   -2.7188 H   0  0  0  0  0  0  0  0  0  0  0  0
    1.6220   -0.7899   -2.2748 H   0  0  0  0  0  0  0  0  0  0  0  0
    2.0361   -3.1955   -0.4032 H   0  0  0  0  0  0  0  0  0  0  0  0
    3.3788   -2.0907   -0.7430 H   0  0  0  0  0  0  0  0  0  0  0  0
    2.1082   -1.7951    1.3962 H   0  0  0  0  0  0  0  0  0  0  0  0
    0.2653    0.0825    0.9394 H   0  0  0  0  0  0  0  0  0  0  0  0
   -0.1606   -1.6152    1.2087 H   0  0  0  0  0  0  0  0  0  0  0  0
   -0.0642    0.0143   -1.3286 H   0  0  0  0  0  0  0  0  0  0  0  0
    2.1961    0.2505    2.5393 H   0  0  0  0  0  0  0  0  0  0  0  0
    2.3481    1.3565   -1.4843 H   0  0  0  0  0  0  0  0  0  0  0  0
    9.1580    3.7183    0.5288 H   0  0  0  0  0  0  0  0  0  0  0  0
    8.8976    2.1031   -0.3387 H   0  0  0  0  0  0  0  0  0  0  0  0
    7.8955    3.5210   -0.7755 H   0  0  0  0  0  0  0  0  0  0  0  0
    3.9892    1.2202    2.5075 H   0  0  0  0  0  0  0  0  0  0  0  0
    4.6141    2.3278    1.2286 H   0  0  0  0  0  0  0  0  0  0  0  0
    6.3007    1.5626    2.9299 H   0  0  0  0  0  0  0  0  0  0  0  0
    6.1183   -0.1071    2.3442 H   0  0  0  0  0  0  0  0  0  0  0  0
    7.0126    0.9204   -1.0380 H   0  0  0  0  0  0  0  0  0  0  0  0
    5.7615    2.1105   -0.5371 H   0  0  0  0  0  0  0  0  0  0  0  0
    5.8493   -0.8486    0.1414 H   0  0  0  0  0  0  0  0  0  0  0  0
    4.9111   -0.0849   -1.2508 H   0  0  0  0  0  0  0  0  0  0  0  0
    7.8664    2.8459    2.1601 H   0  0  0  0  0  0  0  0  0  0  0  0
    6.5344    3.3300    1.0582 H   0  0  0  0  0  0  0  0  0  0  0  0
   -2.2695   -0.9775   -1.6044 H   0  0  0  0  0  0  0  0  0  0  0  0
   -2.1589   -1.8938    1.1711 H   0  0  0  0  0  0  0  0  0  0  0  0
   -3.9697   -2.0312   -1.0889 H   0  0  0  0  0  0  0  0  0  0  0  0
   -3.7704   -0.5722    1.6045 H   0  0  0  0  0  0  0  0  0  0  0  0
   -2.1857    0.2132    1.0229 H   0  0  0  0  0  0  0  0  0  0  0  0
   -4.7183   -3.7498   -0.0633 H   0  0  0  0  0  0  0  0  0  0  0  0
   -6.2361   -1.0923   -0.1263 H   0  0  0  0  0  0  0  0  0  0  0  0
   -5.9239    0.9168   -0.9048 H   0  0  0  0  0  0  0  0  0  0  0  0
   -4.1523    1.6502    1.3045 H   0  0  0  0  0  0  0  0  0  0  0  0
   -6.3513   -1.5674    2.2881 H   0  0  0  0  0  0  0  0  0  0  0  0
   -7.1174    0.0878    2.0209 H   0  0  0  0  0  0  0  0  0  0  0  0
   -5.4146   -0.0546    2.5996 H   0  0  0  0  0  0  0  0  0  0  0  0
   -3.0813    2.8859   -0.6668 H   0  0  0  0  0  0  0  0  0  0  0  0
   -4.5451    2.4462   -1.6301 H   0  0  0  0  0  0  0  0  0  0  0  0
   -4.7774    4.7224   -0.7152 H   0  0  0  0  0  0  0  0  0  0  0  0
   -4.4904    4.1311    0.9555 H   0  0  0  0  0  0  0  0  0  0  0  0
   -6.6966    2.9910    0.9430 H   0  0  0  0  0  0  0  0  0  0  0  0
   -6.7919    3.1496   -0.8337 H   0  0  0  0  0  0  0  0  0  0  0  0
   -6.8591    4.6193    0.2738 H   0  0  0  0  0  0  0  0  0  0  0  0
   -2.1967   -3.0608   -2.7871 H   0  0  0  0  0  0  0  0  0  0  0  0
   -2.7688   -4.2939   -1.5353 H   0  0  0  0  0  0  0  0  0  0  0  0
   -2.2420   -4.8121   -3.1445 H   0  0  0  0  0  0  0  0  0  0  0  0
   -0.7266   -5.2076   -1.1472 H   0  0  0  0  0  0  0  0  0  0  0  0
    0.0506   -4.5810   -2.6228 H   0  0  0  0  0  0  0  0  0  0  0  0
   -0.4313   -2.0077   -2.6737 H   0  0  0  0  0  0  0  0  0  0  0  0
    1.9382   -2.5256   -2.7188 H   0  0  0  0  0  0  0  0  0  0  0  0
    1.6220   -0.7899   -2.2748 H   0  0  0  0  0  0  0  0  0  0  0  0
    2.0361   -3.1955   -0.4032 H   0  0  0  0  0  0  0  0  0  0  0  0
    3.3788   -2.0907   -0.7430 H   0  0  0  0  0  0  0  0  0  0  0  0
    2.1082   -1.7951    1.3962 H   0  0  0  0  0  0  0  0  0  0  0  0
    0.2653    0.0825    0.9394 H   0  0  0  0  0  0  0  0  0  0  0  0
   -0.1606   -1.6152    1.2087 H   0  0  0  0  0  0  0  0  0  0  0  0
   -0.0642    0.0143   -1.3286 H   0  0  0  0  0  0  0  0  0  0  0  0
    2.1961    0.2505    2.5393 H   0  0  0  0  0  0  0  0  0  0  0  0
    2.3481    1.3565   -1.4843 H   0  0  0  0  0  0  0  0  0  0  0  0
    9.1580    3.7183    0.5288 H   0  0  0  0  0  0  0  0  0  0  0  0
    8.8976    2.1031   -0.3387 H   0  0  0  0  0  0  0  0  0  0  0  0
    7.8955    3.5210   -0.7755 H   0  0  0  0  0  0  0  0  0  0  0  0
    3.9892    1.2202    2.5075 H   0  0  0  0  0  0  0  0  0  0  0  0
    4.6141    2.3278    1.2286 H   0  0  0  0  0  0  0  0  0  0  0  0
    6.3007    1.5626    2.9299 H   0  0  0  0  0  0  0  0  0  0  0  0
    6.1183   -0.1071    2.3442 H   0  0  0  0  0  0  0  0  0  0  0  0
    7.0126    0.9204   -1.0380 H   0  0  0  0  0  0  0  0  0  0  0  0
    5.7615    2.1105   -0.5371 H   0  0  0  0  0  0  0  0  0  0  0  0
    5.8493   -0.8486    0.1414 H   0  0  0  0  0  0  0  0  0  0  0  0
    4.9111   -0.0849   -1.2508 H   0  0  0  0  0  0  0  0  0  0  0  0
    7.8664    2.8459    2.1601 H   0  0  0  0  0  0  0  0  0  0  0  0
    6.5344    3.3300    1.0582 H   0  0  0  0  0  0  0  0  0  0  0  0
   -2.2695   -0.9775   -1.6044 H   0  0  0  0  0  0  0  0  0  0  0  0
   -2.1589   -1.8938    1.1711 H   0  0  0  0  0  0  0  0  0  0  0  0
   -3.9697   -2.0312   -1.0889 H   0  0  0  0  0  0  0  0  0  0  0  0
   -3.7704   -0.5722    1.6045 H   0  0  0  0  0  0  0  0  0  0  0  0
   -2.1857    0.2132    1.0229 H   0  0  0  0  0  0  0  0  0  0  0  0
   -4.7183   -3.7498   -0.0633 H   0  0  0  0  0  0  0  0  0  0  0  0
   -6.2361   -1.0923   -0.1263 H   0  0  0  0  0  0  0  0  0  0  0  0
   -5.9239    0.9168   -0.9048 H   0  0  0  0  0  0  0  0  0  0  0  0
   -4.1523    1.6502    1.3045 H   0  0  0  0  0  0  0  0  0  0  0  0
   -6.3513   -1.5674    2.2881 H   0  0  0  0  0  0  0  0  0  0  0  0
   -7.1174    0.0878    2.0209 H   0  0  0  0  0  0  0  0  0  0  0  0
   -5.4146   -0.0546    2.5996 H   0  0  0  0  0  0  0  0  0  0  0  0
   -3.0813    2.8859   -0.6668 H   0  0  0  0  0  0  0  0  0  0  0  0
   -4.5451    2.4462   -1.6301 H   0  0  0  0  0  0  0  0  0  0  0  0
   -4.7774    4.7224   -0.7152 H   0  0  0  0  0  0  0  0  0  0  0  0
   -4.4904    4.1311    0.9555 H   0  0  0  0  0  0  0  0  0  0  0  0
   -6.6966    2.9910    0.9430 H   0  0  0  0  0  0  0  0  0  0  0  0
   -6.7919    3.1496   -0.8337 H   0  0  0  0  0  0  0  0  0  0  0  0
   -6.8591    4.6193    0.2738 H   0  0  0  0  0  0  0  0  0  0  0  0
  1  2  1  0
  2  3  1  0
  3  4  1  0
  4  5  1  0
  5  6  1  0
  6  7  1  0
  7  8  1  0
  4  9  1  0
  8  9  1  0
  7 10  1  0
 10 11  1  0
 10 12  1  0
 10 14  1  0
 14 15  1  0
 15 16  1  0
 16 17  1  0
 17 18  1  0
 14 19  1  0
 18 19  1  0
 13 20  1  0
 17 20  1  0
  9 21  1  0
 21 22  1  0
 22 23  1  0
 23 24  1  0
 24 25  1  0
 21 26  1  0
 25 26  1  0
 23 27  1  0
 24 28  1  0
 28 29  1  0
 25 30  1  0
 29 30  1  0
 28 31  1  0
 30 32  1  0
 32 33  1  0
 33 34  1  0
 35 36  1  0
 36 37  1  0
 37 38  1  0
 38 39  1  0
 39 40  1  0
 40 41  1  0
 41 42  1  0
 38 43  1  0
 42 43  1  0
 41 44  1  0
 44 45  1  0
 44 46  1  0
 44 48  1  0
 48 49  1  0
 49 50  1  0
 50 51  1  0
 51 52  1  0
 48 53  1  0
 52 53  1  0
 47 54  1  0
 51 54  1  0
 43 55  1  0
 55 56  1  0
 56 57  1  0
 57 58  1  0
 58 59  1  0
 55 60  1  0
 59 60  1  0
 57 61  1  0
 58 62  1  0
 62 63  1  0
 59 64  1  0
 63 64  1  0
 62 65  1  0
 64 66  1  0
 66 67  1  0
 67 68  1  0
  1 69  1  0
  1 70  1  0
  1 71  1  0
  2 72  1  0
  2 73  1  0
  4 74  1  0
  5 75  1  0
  5 76  1  0
  6 77  1  0
  6 78  1  0
  7 79  1  0
  8 80  1  0
  8 81  1  0
  9 82  1  0
 11 83  1  0
 12 84  1  0
 13 85  1  0
 13 86  1  0
 13 87  1  0
 15 88  1  0
 15 89  1  0
 16 90  1  0
 16 91  1  0
 18 92  1  0
 18 93  1  0
 19 94  1  0
 19 95  1  0
 20 96  1  0
 20 97  1  0
 21 98  1  0
 22 99  1  0
 23100  1  0
 24101  1  0
 26102  1  0
 27103  1  0
 28104  1  0
 29105  1  0
 30106  1  0
 31107  1  0
 31108  1  0
 31109  1  0
 32110  1  0
 32111  1  0
 33112  1  0
 33113  1  0
 34114  1  0
 34115  1  0
 34116  1  0
 35117  1  0
 35118  1  0
 35119  1  0
 36120  1  0
 36121  1  0
 38122  1  0
 39123  1  0
 39124  1  0
 40125  1  0
 40126  1  0
 41127  1  0
 42128  1  0
 42129  1  0
 43130  1  0
 45131  1  0
 46132  1  0
 47133  1  0
 47134  1  0
 47135  1  0
 49136  1  0
 49137  1  0
 50138  1  0
 50139  1  0
 52140  1  0
 52141  1  0
 53142  1  0
 53143  1  0
 54144  1  0
 54145  1  0
 55146  1  0
 56147  1  0
 57148  1  0
 58149  1  0
 60150  1  0
 61151  1  0
 62152  1  0
 63153  1  0
 64154  1  0
 65155  1  0
 65156  1  0
 65157  1  0
 66158  1  0
 66159  1  0
 67160  1  0
 67161  1  0
 68162  1  0
 68163  1  0
 68164  1  0
M  END
>  <PDBID>  (1) 
3B2R

>  <PDB ID>  (1) 
3B2R

>  <Generic Name>  (1) 
Vardenafil

>  <Brand Name>  (1) 
Levitra#Staxyn#Vivanza

>  <DrugBank ID>  (1) 
DB00862

>  <ATC Codes>  (1) 
G04BE09

>  <Ligand ID>  (1) 
VDN

>  <Target Name>  (1) 
cGMP-specific 3',5'-cyclic phosphodiesterase

>  <UniProt ID>  (1) 
O76074

>  <PDB ID.1>  (1) 
3B2R

>  <Seq. Identity>  (1) 
94%

$$$$
