PDB_DB06335_04
     RDKit          3D

106114  0  0  0  0  0  0  0  0999 V2000
    1.0870    0.2098    0.0897 C   0  0  1  0  0  0  0  0  0  0  0  0
   -0.2975    0.4784   -0.3738 C   0  0  1  0  0  0  0  0  0  0  0  0
    2.0093    0.8129   -0.9781 C   0  0  0  0  0  0  0  0  0  0  0  0
    3.4518    0.6093   -0.6620 C   0  0  1  0  0  0  0  0  0  0  0  0
    2.8988    0.4448    1.6997 C   0  0  2  0  0  0  0  0  0  0  0  0
    2.8475   -1.5668    0.2968 C   0  0  1  0  0  0  0  0  0  0  0  0
    3.8191    1.1245    0.7044 C   0  0  0  0  0  0  0  0  0  0  0  0
    3.7334   -0.8780   -0.6884 C   0  0  0  0  0  0  0  0  0  0  0  0
    3.1605   -1.0284    1.6802 C   0  0  0  0  0  0  0  0  0  0  0  0
   -4.4227    0.6002   -1.3664 C   0  0  1  0  0  0  0  0  0  0  0  0
   -3.3163    0.9767   -2.2484 C   0  0  0  0  0  0  0  0  0  0  0  0
   -4.5944   -0.8261   -0.8533 C   0  0  0  0  0  0  0  0  0  0  0  0
   -3.5741   -2.0363    1.0846 C   0  0  0  0  0  0  0  0  0  0  0  0
   -2.7693   -1.8868    2.2760 N   0  0  0  0  0  0  0  0  0  0  0  0
    1.4595    0.8038    1.4010 C   0  0  0  0  0  0  0  0  0  0  0  0
    1.3808   -1.2911    0.0525 C   0  0  0  0  0  0  0  0  0  0  0  0
   -1.3857   -0.0499    0.5713 C   0  0  0  0  0  0  0  0  0  0  0  0
   -0.5709    1.8315   -0.7385 N   0  0  0  0  0  0  0  0  0  0  0  0
   -2.5536   -0.1813   -0.2040 N   0  0  0  0  0  0  0  0  0  0  0  0
   -1.4762    0.6801    1.7285 O   0  0  0  0  0  0  0  0  0  0  0  0
    4.1966    1.2082   -1.6684 O   0  0  0  0  0  0  0  0  0  0  0  0
   -3.0510    1.0505   -0.7700 C   0  0  2  0  0  0  0  0  0  0  0  0
   -3.7275   -0.7157    0.4220 C   0  0  1  0  0  0  0  0  0  0  0  0
    1.0870    0.2098    0.0897 C   0  0  1  0  0  0  0  0  0  0  0  0
   -0.2975    0.4784   -0.3738 C   0  0  1  0  0  0  0  0  0  0  0  0
    2.0093    0.8129   -0.9781 C   0  0  0  0  0  0  0  0  0  0  0  0
    3.4518    0.6093   -0.6620 C   0  0  1  0  0  0  0  0  0  0  0  0
    2.8988    0.4448    1.6997 C   0  0  2  0  0  0  0  0  0  0  0  0
    2.8475   -1.5668    0.2968 C   0  0  1  0  0  0  0  0  0  0  0  0
    3.8191    1.1245    0.7044 C   0  0  0  0  0  0  0  0  0  0  0  0
    3.7334   -0.8780   -0.6884 C   0  0  0  0  0  0  0  0  0  0  0  0
    3.1605   -1.0284    1.6802 C   0  0  0  0  0  0  0  0  0  0  0  0
   -4.4227    0.6002   -1.3664 C   0  0  1  0  0  0  0  0  0  0  0  0
   -3.3163    0.9767   -2.2484 C   0  0  0  0  0  0  0  0  0  0  0  0
   -4.5944   -0.8261   -0.8533 C   0  0  0  0  0  0  0  0  0  0  0  0
   -3.5741   -2.0363    1.0846 C   0  0  0  0  0  0  0  0  0  0  0  0
   -2.7693   -1.8868    2.2760 N   0  0  0  0  0  0  0  0  0  0  0  0
    1.4595    0.8038    1.4010 C   0  0  0  0  0  0  0  0  0  0  0  0
    1.3808   -1.2911    0.0525 C   0  0  0  0  0  0  0  0  0  0  0  0
   -1.3857   -0.0499    0.5713 C   0  0  0  0  0  0  0  0  0  0  0  0
   -0.5709    1.8315   -0.7385 N   0  0  0  0  0  0  0  0  0  0  0  0
   -2.5536   -0.1813   -0.2040 N   0  0  0  0  0  0  0  0  0  0  0  0
   -1.4762    0.6801    1.7285 O   0  0  0  0  0  0  0  0  0  0  0  0
    4.1966    1.2082   -1.6684 O   0  0  0  0  0  0  0  0  0  0  0  0
   -3.0510    1.0505   -0.7700 C   0  0  2  0  0  0  0  0  0  0  0  0
   -3.7275   -0.7157    0.4220 C   0  0  1  0  0  0  0  0  0  0  0  0
   -0.4430   -0.1325   -1.3162 H   0  0  0  0  0  0  0  0  0  0  0  0
    1.7611    0.3168   -1.9253 H   0  0  0  0  0  0  0  0  0  0  0  0
    1.7927    1.8998   -0.9759 H   0  0  0  0  0  0  0  0  0  0  0  0
    3.1034    0.7961    2.7466 H   0  0  0  0  0  0  0  0  0  0  0  0
    2.9948   -2.6467    0.2264 H   0  0  0  0  0  0  0  0  0  0  0  0
    4.8498    0.7254    0.9240 H   0  0  0  0  0  0  0  0  0  0  0  0
    3.7879    2.2131    0.7894 H   0  0  0  0  0  0  0  0  0  0  0  0
    3.5378   -1.2480   -1.7267 H   0  0  0  0  0  0  0  0  0  0  0  0
    4.7797   -1.0307   -0.3810 H   0  0  0  0  0  0  0  0  0  0  0  0
    2.4778   -1.5288    2.3901 H   0  0  0  0  0  0  0  0  0  0  0  0
    4.2183   -1.1980    1.8725 H   0  0  0  0  0  0  0  0  0  0  0  0
   -5.2751    1.2598   -1.1687 H   0  0  0  0  0  0  0  0  0  0  0  0
   -3.4019    1.9339   -2.7697 H   0  0  0  0  0  0  0  0  0  0  0  0
   -2.7727    0.1997   -2.8296 H   0  0  0  0  0  0  0  0  0  0  0  0
   -4.0553   -1.5583   -1.4881 H   0  0  0  0  0  0  0  0  0  0  0  0
   -5.6260   -1.0841   -0.6255 H   0  0  0  0  0  0  0  0  0  0  0  0
   -3.1058   -2.7518    0.3704 H   0  0  0  0  0  0  0  0  0  0  0  0
   -3.3339   -1.7013    3.1301 H   0  0  0  0  0  0  0  0  0  0  0  0
   -2.1669   -2.7099    2.4766 H   0  0  0  0  0  0  0  0  0  0  0  0
    1.4310    1.9128    1.2989 H   0  0  0  0  0  0  0  0  0  0  0  0
    0.8528    0.4530    2.2490 H   0  0  0  0  0  0  0  0  0  0  0  0
    1.0404   -1.6366   -0.9413 H   0  0  0  0  0  0  0  0  0  0  0  0
    0.8131   -1.8149    0.8356 H   0  0  0  0  0  0  0  0  0  0  0  0
   -1.0745   -1.0926    0.8801 H   0  0  0  0  0  0  0  0  0  0  0  0
   -0.1382    2.5499   -0.1254 H   0  0  0  0  0  0  0  0  0  0  0  0
   -0.5167    2.0243   -1.7435 H   0  0  0  0  0  0  0  0  0  0  0  0
   -1.4738    1.6591    1.6056 H   0  0  0  0  0  0  0  0  0  0  0  0
    4.8962    1.7777   -1.2608 H   0  0  0  0  0  0  0  0  0  0  0  0
   -3.0589    1.9856   -0.2177 H   0  0  0  0  0  0  0  0  0  0  0  0
   -4.1994    0.0568    1.0274 H   0  0  0  0  0  0  0  0  0  0  0  0
   -0.4430   -0.1325   -1.3162 H   0  0  0  0  0  0  0  0  0  0  0  0
    1.7611    0.3168   -1.9253 H   0  0  0  0  0  0  0  0  0  0  0  0
    1.7927    1.8998   -0.9759 H   0  0  0  0  0  0  0  0  0  0  0  0
    3.1034    0.7961    2.7466 H   0  0  0  0  0  0  0  0  0  0  0  0
    2.9948   -2.6467    0.2264 H   0  0  0  0  0  0  0  0  0  0  0  0
    4.8498    0.7254    0.9240 H   0  0  0  0  0  0  0  0  0  0  0  0
    3.7879    2.2131    0.7894 H   0  0  0  0  0  0  0  0  0  0  0  0
    3.5378   -1.2480   -1.7267 H   0  0  0  0  0  0  0  0  0  0  0  0
    4.7797   -1.0307   -0.3810 H   0  0  0  0  0  0  0  0  0  0  0  0
    2.4778   -1.5288    2.3901 H   0  0  0  0  0  0  0  0  0  0  0  0
    4.2183   -1.1980    1.8725 H   0  0  0  0  0  0  0  0  0  0  0  0
   -5.2751    1.2598   -1.1687 H   0  0  0  0  0  0  0  0  0  0  0  0
   -3.4019    1.9339   -2.7697 H   0  0  0  0  0  0  0  0  0  0  0  0
   -2.7727    0.1997   -2.8296 H   0  0  0  0  0  0  0  0  0  0  0  0
   -4.0553   -1.5583   -1.4881 H   0  0  0  0  0  0  0  0  0  0  0  0
   -5.6260   -1.0841   -0.6255 H   0  0  0  0  0  0  0  0  0  0  0  0
   -3.1058   -2.7518    0.3704 H   0  0  0  0  0  0  0  0  0  0  0  0
   -3.3339   -1.7013    3.1301 H   0  0  0  0  0  0  0  0  0  0  0  0
   -2.1669   -2.7099    2.4766 H   0  0  0  0  0  0  0  0  0  0  0  0
    1.4310    1.9128    1.2989 H   0  0  0  0  0  0  0  0  0  0  0  0
    0.8528    0.4530    2.2490 H   0  0  0  0  0  0  0  0  0  0  0  0
    1.0404   -1.6366   -0.9413 H   0  0  0  0  0  0  0  0  0  0  0  0
    0.8131   -1.8149    0.8356 H   0  0  0  0  0  0  0  0  0  0  0  0
   -1.0745   -1.0926    0.8801 H   0  0  0  0  0  0  0  0  0  0  0  0
   -0.1382    2.5499   -0.1254 H   0  0  0  0  0  0  0  0  0  0  0  0
   -0.5167    2.0243   -1.7435 H   0  0  0  0  0  0  0  0  0  0  0  0
   -1.4738    1.6591    1.6056 H   0  0  0  0  0  0  0  0  0  0  0  0
    4.8962    1.7777   -1.2608 H   0  0  0  0  0  0  0  0  0  0  0  0
   -3.0589    1.9856   -0.2177 H   0  0  0  0  0  0  0  0  0  0  0  0
   -4.1994    0.0568    1.0274 H   0  0  0  0  0  0  0  0  0  0  0  0
  1  2  1  0
  1  3  1  0
  3  4  1  0
  4  7  1  0
  5  7  1  0
  4  8  1  0
  6  8  1  0
  5  9  1  0
  6  9  1  0
 10 11  1  0
 10 12  1  0
 13 14  1  0
  1 15  1  1
  5 15  1  0
  1 16  1  0
  6 16  1  0
  2 17  1  0
  2 18  1  0
 17 19  1  0
 17 20  1  0
  4 21  1  6
 10 22  1  0
 11 22  1  0
 19 22  1  0
 12 23  1  0
 13 23  1  0
 19 23  1  0
 24 25  1  0
 24 26  1  6
 26 27  1  0
 27 30  1  0
 28 30  1  0
 27 31  1  0
 29 31  1  0
 28 32  1  0
 29 32  1  0
 33 34  1  0
 33 35  1  0
 36 37  1  0
 24 38  1  0
 28 38  1  0
 24 39  1  0
 29 39  1  0
 25 40  1  0
 25 41  1  0
 40 42  1  0
 40 43  1  0
 27 44  1  6
 33 45  1  0
 34 45  1  0
 42 45  1  0
 35 46  1  0
 36 46  1  0
 42 46  1  0
  2 47  1  6
  3 48  1  0
  3 49  1  0
  5 50  1  1
  6 51  1  1
  7 52  1  0
  7 53  1  0
  8 54  1  0
  8 55  1  0
  9 56  1  0
  9 57  1  0
 10 58  1  1
 11 59  1  0
 11 60  1  0
 12 61  1  0
 12 62  1  0
 13 63  1  0
 14 64  1  0
 14 65  1  0
 15 66  1  0
 15 67  1  0
 16 68  1  0
 16 69  1  0
 17 70  1  0
 18 71  1  0
 18 72  1  0
 20 73  1  0
 21 74  1  0
 22 75  1  1
 23 76  1  1
 25 77  1  6
 26 78  1  0
 26 79  1  0
 28 80  1  1
 29 81  1  1
 30 82  1  0
 30 83  1  0
 31 84  1  0
 31 85  1  0
 32 86  1  0
 32 87  1  0
 33 88  1  1
 34 89  1  0
 34 90  1  0
 35 91  1  0
 35 92  1  0
 36 93  1  0
 37 94  1  0
 37 95  1  0
 38 96  1  0
 38 97  1  0
 39 98  1  0
 39 99  1  0
 40100  1  0
 41101  1  0
 41102  1  0
 43103  1  0
 44104  1  0
 45105  1  1
 46106  1  1
M  END
>  <PDBID>  (1) 
3BJM

>  <PDB ID>  (1) 
3BJM

>  <Generic Name>  (1) 
Saxagliptin

>  <Brand Name>  (1) 
Kombiglyze XR#Komboglyze#Onglyza#Qtern

>  <DrugBank ID>  (1) 
DB06335

>  <ATC Codes>  (1) 
A10BD10#A10BH03#A10BD21

>  <Ligand ID>  (1) 
BJM

>  <Target Name>  (1) 
Dipeptidyl peptidase 4

>  <UniProt ID>  (1) 
P27487

>  <PDB ID.1>  (1) 
3BJM

>  <Seq. Identity>  (1) 
100%

$$$$
