PDB_DB00154_02
     RDKit          3D

 64 63  0  0  0  0  0  0  0  0999 V2000
    5.9424    2.1639    1.1967 C   0  0  0  0  0  0  0  0  0  0  0  0
    7.0754    2.9514    1.1971 O   0  0  0  0  0  0  0  0  0  0  0  0
    5.7218    1.6995    2.4973 O   0  0  0  0  0  0  0  0  0  0  0  0
    6.0833    0.9410    0.3008 C   0  0  0  0  0  0  0  0  0  0  0  0
    6.3402    1.3300   -1.1138 C   0  0  0  0  0  0  0  0  0  0  0  0
    6.4493    0.2658   -2.0981 C   0  0  0  0  0  0  0  0  0  0  0  0
    5.3993   -0.5367   -2.6701 C   0  0  0  0  0  0  0  0  0  0  0  0
    4.3446   -1.2281   -1.9051 C   0  0  0  0  0  0  0  0  0  0  0  0
    3.2823   -0.3189   -1.4143 C   0  0  0  0  0  0  0  0  0  0  0  0
    2.2594   -1.0572   -0.5664 C   0  0  0  0  0  0  0  0  0  0  0  0
    1.5445   -2.1469   -1.2668 C   0  0  0  0  0  0  0  0  0  0  0  0
    0.5789   -2.8280   -0.3435 C   0  0  0  0  0  0  0  0  0  0  0  0
   -0.4377   -1.8594    0.1545 C   0  0  0  0  0  0  0  0  0  0  0  0
   -1.4559   -2.5096    1.0692 C   0  0  0  0  0  0  0  0  0  0  0  0
   -2.4242   -1.4655    1.5350 C   0  0  0  0  0  0  0  0  0  0  0  0
   -3.1496   -0.8369    0.3947 C   0  0  0  0  0  0  0  0  0  0  0  0
   -4.1513    0.2158    0.8951 C   0  0  0  0  0  0  0  0  0  0  0  0
   -4.8230    0.7818   -0.3417 C   0  0  0  0  0  0  0  0  0  0  0  0
   -5.8352    1.8297   -0.0181 C   0  0  0  0  0  0  0  0  0  0  0  0
   -6.9322    1.2801    0.8624 C   0  0  0  0  0  0  0  0  0  0  0  0
   -7.9419    2.3721    1.1698 C   0  0  0  0  0  0  0  0  0  0  0  0
   -9.0571    1.8565    2.0514 C   0  0  0  0  0  0  0  0  0  0  0  0
    5.0697    2.7669    0.9123 H   0  0  0  0  0  0  0  0  0  0  0  0
    7.8609    2.3647    0.9741 H   0  0  0  0  0  0  0  0  0  0  0  0
    6.1341    0.8023    2.6425 H   0  0  0  0  0  0  0  0  0  0  0  0
    7.0735    0.4619    0.6793 H   0  0  0  0  0  0  0  0  0  0  0  0
    5.2742    0.2620    0.4777 H   0  0  0  0  0  0  0  0  0  0  0  0
    7.3206    1.9144   -1.1023 H   0  0  0  0  0  0  0  0  0  0  0  0
    5.6045    2.1130   -1.4580 H   0  0  0  0  0  0  0  0  0  0  0  0
    7.0436    0.7223   -2.9916 H   0  0  0  0  0  0  0  0  0  0  0  0
    7.2365   -0.4952   -1.6896 H   0  0  0  0  0  0  0  0  0  0  0  0
    4.8850   -0.0011   -3.5600 H   0  0  0  0  0  0  0  0  0  0  0  0
    5.9313   -1.3760   -3.2824 H   0  0  0  0  0  0  0  0  0  0  0  0
    3.8872   -2.0741   -2.5175 H   0  0  0  0  0  0  0  0  0  0  0  0
    4.7922   -1.8145   -1.0370 H   0  0  0  0  0  0  0  0  0  0  0  0
    3.6274    0.5440   -0.8937 H   0  0  0  0  0  0  0  0  0  0  0  0
    2.7127    0.0932   -2.3316 H   0  0  0  0  0  0  0  0  0  0  0  0
    2.7358   -1.3856    0.3538 H   0  0  0  0  0  0  0  0  0  0  0  0
    1.5066   -0.2641   -0.2825 H   0  0  0  0  0  0  0  0  0  0  0  0
    2.2103   -2.8717   -1.7844 H   0  0  0  0  0  0  0  0  0  0  0  0
    0.9065   -1.6909   -2.0836 H   0  0  0  0  0  0  0  0  0  0  0  0
    1.1879   -3.2651    0.4808 H   0  0  0  0  0  0  0  0  0  0  0  0
    0.1325   -3.6943   -0.8776 H   0  0  0  0  0  0  0  0  0  0  0  0
   -0.9418   -1.4347   -0.7339 H   0  0  0  0  0  0  0  0  0  0  0  0
    0.0596   -1.0615    0.7273 H   0  0  0  0  0  0  0  0  0  0  0  0
   -1.9927   -3.3399    0.5679 H   0  0  0  0  0  0  0  0  0  0  0  0
   -0.9551   -2.9415    1.9498 H   0  0  0  0  0  0  0  0  0  0  0  0
   -1.8136   -0.6542    2.0338 H   0  0  0  0  0  0  0  0  0  0  0  0
   -3.1001   -1.8324    2.3362 H   0  0  0  0  0  0  0  0  0  0  0  0
   -3.6570   -1.6238   -0.1875 H   0  0  0  0  0  0  0  0  0  0  0  0
   -2.4351   -0.2318   -0.2367 H   0  0  0  0  0  0  0  0  0  0  0  0
   -3.5654    1.0067    1.4032 H   0  0  0  0  0  0  0  0  0  0  0  0
   -4.8525   -0.3138    1.5475 H   0  0  0  0  0  0  0  0  0  0  0  0
   -4.0198    1.2656   -0.9626 H   0  0  0  0  0  0  0  0  0  0  0  0
   -5.2490   -0.0097   -0.9790 H   0  0  0  0  0  0  0  0  0  0  0  0
   -5.3355    2.7079    0.4440 H   0  0  0  0  0  0  0  0  0  0  0  0
   -6.3093    2.1640   -0.9538 H   0  0  0  0  0  0  0  0  0  0  0  0
   -7.4236    0.4623    0.3236 H   0  0  0  0  0  0  0  0  0  0  0  0
   -6.4674    0.9024    1.8069 H   0  0  0  0  0  0  0  0  0  0  0  0
   -8.3649    2.6955    0.2003 H   0  0  0  0  0  0  0  0  0  0  0  0
   -7.4391    3.1899    1.7185 H   0  0  0  0  0  0  0  0  0  0  0  0
   -9.2463    2.5487    2.9099 H   0  0  0  0  0  0  0  0  0  0  0  0
  -10.0121    1.8353    1.4800 H   0  0  0  0  0  0  0  0  0  0  0  0
   -8.8255    0.8350    2.3895 H   0  0  0  0  0  0  0  0  0  0  0  0
  1  2  1  0
  1  3  1  0
  1  4  1  0
  4  5  1  0
  5  6  1  0
  6  7  1  0
  7  8  1  0
  8  9  1  0
  9 10  1  0
 10 11  1  0
 11 12  1  0
 12 13  1  0
 13 14  1  0
 14 15  1  0
 15 16  1  0
 16 17  1  0
 17 18  1  0
 18 19  1  0
 19 20  1  0
 20 21  1  0
 21 22  1  0
  1 23  1  0
  2 24  1  0
  3 25  1  0
  4 26  1  0
  4 27  1  0
  5 28  1  0
  5 29  1  0
  6 30  1  0
  6 31  1  0
  7 32  1  0
  7 33  1  0
  8 34  1  0
  8 35  1  0
  9 36  1  0
  9 37  1  0
 10 38  1  0
 10 39  1  0
 11 40  1  0
 11 41  1  0
 12 42  1  0
 12 43  1  0
 13 44  1  0
 13 45  1  0
 14 46  1  0
 14 47  1  0
 15 48  1  0
 15 49  1  0
 16 50  1  0
 16 51  1  0
 17 52  1  0
 17 53  1  0
 18 54  1  0
 18 55  1  0
 19 56  1  0
 19 57  1  0
 20 58  1  0
 20 59  1  0
 21 60  1  0
 21 61  1  0
 22 62  1  0
 22 63  1  0
 22 64  1  0
M  END
>  <PDBID>  (1) 
1FE2

>  <PDB ID>  (1) 
1FE2

>  <Generic Name>  (1) 
Dihomo-gamma-linolenic acid

>  <Brand Name>  (1) 
Star GLA#Tona-lean 1000 CLA

>  <DrugBank ID>  (1) 
DB00154

>  <ATC Codes>  (1) 
nan

>  <Ligand ID>  (1) 
LAX

>  <Target Name>  (1) 
Prostaglandin G/H synthase 1

>  <UniProt ID>  (1) 
P23219

>  <PDB ID.1>  (1) 
1FE2

>  <Seq. Identity>  (1) 
89%

$$$$
