PDB_DB00360_02
     RDKit          3D

 38 39  0  0  0  0  0  0  0  0999 V2000
    2.9577   -0.2361   -0.3210 N   0  0  0  0  0  0  0  0  0  0  0  0
    3.0632    1.1888   -0.6431 C   0  0  2  0  0  0  0  0  0  0  0  0
    4.0551    1.8423    0.1688 N   0  0  0  0  0  0  0  0  0  0  0  0
    1.7701    1.8375   -0.5860 N   0  0  0  0  0  0  0  0  0  0  0  0
    1.0791    1.5624    0.6599 C   0  0  1  0  0  0  0  0  0  0  0  0
   -0.1490    2.2134    0.6005 O   0  0  0  0  0  0  0  0  0  0  0  0
    0.8671    0.0746    0.7780 C   0  0  2  0  0  0  0  0  0  0  0  0
    1.5673   -0.5616   -0.3968 C   0  0  2  0  0  0  0  0  0  0  0  0
   -0.5351   -0.1939    0.8247 N   0  0  0  0  0  0  0  0  0  0  0  0
    1.2848   -1.9900   -0.3319 N   0  0  0  0  0  0  0  0  0  0  0  0
   -0.9248   -1.5072    0.4313 C   0  0  2  0  0  0  0  0  0  0  0  0
   -0.1180   -2.1060   -0.6838 C   0  0  0  0  0  0  0  0  0  0  0  0
   -2.4018   -1.5193    0.1396 C   0  0  1  0  0  0  0  0  0  0  0  0
   -3.1498   -1.1515    1.2502 O   0  0  0  0  0  0  0  0  0  0  0  0
   -2.8282   -0.6954   -1.0278 C   0  0  2  0  0  0  0  0  0  0  0  0
   -2.7306    0.7615   -0.7312 C   0  0  0  0  0  0  0  0  0  0  0  0
   -4.2032   -0.9757   -1.2196 O   0  0  0  0  0  0  0  0  0  0  0  0
    3.2533   -0.3404    0.6938 H   0  0  0  0  0  0  0  0  0  0  0  0
    3.4002    1.2414   -1.6995 H   0  0  0  0  0  0  0  0  0  0  0  0
    4.0599    2.8429   -0.0817 H   0  0  0  0  0  0  0  0  0  0  0  0
    4.9930    1.4622   -0.1313 H   0  0  0  0  0  0  0  0  0  0  0  0
    1.9214    2.8557   -0.6309 H   0  0  0  0  0  0  0  0  0  0  0  0
    1.6218    1.9798    1.5343 H   0  0  0  0  0  0  0  0  0  0  0  0
   -0.2729    2.7592   -0.2020 H   0  0  0  0  0  0  0  0  0  0  0  0
    1.4089   -0.2611    1.6919 H   0  0  0  0  0  0  0  0  0  0  0  0
    1.0865   -0.1329   -1.3152 H   0  0  0  0  0  0  0  0  0  0  0  0
   -0.8139   -0.0242    1.8408 H   0  0  0  0  0  0  0  0  0  0  0  0
    1.8795   -2.5377   -1.0024 H   0  0  0  0  0  0  0  0  0  0  0  0
   -0.7832   -2.1770    1.3188 H   0  0  0  0  0  0  0  0  0  0  0  0
   -0.2444   -1.5679   -1.6448 H   0  0  0  0  0  0  0  0  0  0  0  0
   -0.4170   -3.1770   -0.7633 H   0  0  0  0  0  0  0  0  0  0  0  0
   -2.7333   -2.5969   -0.0613 H   0  0  0  0  0  0  0  0  0  0  0  0
   -2.7736   -0.4579    1.8116 H   0  0  0  0  0  0  0  0  0  0  0  0
   -2.3411   -0.9786   -1.9779 H   0  0  0  0  0  0  0  0  0  0  0  0
   -1.8919    1.2447   -1.2782 H   0  0  0  0  0  0  0  0  0  0  0  0
   -2.5656    0.9265    0.3451 H   0  0  0  0  0  0  0  0  0  0  0  0
   -3.6864    1.3126   -0.9625 H   0  0  0  0  0  0  0  0  0  0  0  0
   -4.7051   -0.9175   -0.3851 H   0  0  0  0  0  0  0  0  0  0  0  0
  1  2  1  0
  2  3  1  0
  2  4  1  0
  4  5  1  0
  5  6  1  0
  5  7  1  0
  1  8  1  0
  7  8  1  0
  7  9  1  0
  8 10  1  0
  9 11  1  0
 10 12  1  0
 11 12  1  0
 11 13  1  0
 13 14  1  0
 13 15  1  0
 15 16  1  0
 15 17  1  0
  1 18  1  0
  2 19  1  6
  3 20  1  0
  3 21  1  0
  4 22  1  0
  5 23  1  1
  6 24  1  0
  7 25  1  1
  8 26  1  6
  9 27  1  0
 10 28  1  0
 11 29  1  1
 12 30  1  0
 12 31  1  0
 13 32  1  6
 14 33  1  0
 15 34  1  6
 16 35  1  0
 16 36  1  0
 16 37  1  0
 17 38  1  0
M  END
>  <PDBID>  (1) 
1J8U

>  <PDB ID>  (1) 
1J8U

>  <Generic Name>  (1) 
Sapropterin

>  <Brand Name>  (1) 
Kuvan#BH4#Biopten

>  <DrugBank ID>  (1) 
DB00360

>  <ATC Codes>  (1) 
A16AX07

>  <Ligand ID>  (1) 
BH4,BHS,H4B,THB

>  <Target Name>  (1) 
Tryptophan 5-hydroxylase 1

>  <UniProt ID>  (1) 
P17752

>  <PDB ID.1>  (1) 
1J8U

>  <Seq. Identity>  (1) 
65%

$$$$
