PDB_DB01132_05
     RDKit          3D

122126  0  0  0  0  0  0  0  0999 V2000
   -4.8355    1.4276   -2.9482 O   0  0  0  0  0  0  0  0  0  0  0  0
   -4.7085    0.8942   -1.6857 C   0  0  1  0  0  0  0  0  0  0  0  0
   -5.9448    0.7865   -0.9620 N   0  0  0  0  0  0  0  0  0  0  0  0
   -4.1598   -0.5306   -1.8131 C   0  0  2  0  0  0  0  0  0  0  0  0
   -5.7214   -1.3208   -2.3939 S   0  0  0  0  0  0  0  0  0  0  0  0
   -6.8432   -0.0381   -1.7052 C   0  0  0  0  0  0  0  0  0  0  0  0
   -7.5548    0.5997   -2.6826 O   0  0  0  0  0  0  0  0  0  0  0  0
   -3.8495   -1.1332   -0.4947 C   0  0  0  0  0  0  0  0  0  0  0  0
    2.9603    0.9650   -0.5198 C   0  0  0  0  0  0  0  0  0  0  0  0
   -2.8426   -0.4315    0.3388 C   0  0  0  0  0  0  0  0  0  0  0  0
   -1.5305   -0.3644   -0.3841 C   0  0  0  0  0  0  0  0  0  0  0  0
   -0.5364   -1.3794    0.1593 C   0  0  0  0  0  0  0  0  0  0  0  0
   -0.2507   -1.2103    1.6164 C   0  0  0  0  0  0  0  0  0  0  0  0
   -1.4560   -0.6776    2.3071 C   0  0  0  0  0  0  0  0  0  0  0  0
   -2.6864   -1.2497    1.6327 C   0  0  0  0  0  0  0  0  0  0  0  0
    0.9184   -0.5290    1.9066 O   0  0  0  0  0  0  0  0  0  0  0  0
    1.8702   -1.2662    2.5436 C   0  0  0  0  0  0  0  0  0  0  0  0
    3.0830   -0.4597    2.8325 C   0  0  0  0  0  0  0  0  0  0  0  0
    5.4764    2.5699   -1.0664 C   0  0  0  0  0  0  0  0  0  0  0  0
    4.9661    1.4699   -1.9237 C   0  0  0  0  0  0  0  0  0  0  0  0
    4.1643    0.4133   -1.1891 C   0  0  0  0  0  0  0  0  0  0  0  0
    5.0431   -0.4147   -0.2892 C   0  0  0  0  0  0  0  0  0  0  0  0
    4.2337   -0.9328    0.7918 N   0  0  0  0  0  0  0  0  0  0  0  0
    3.0916    1.2236    0.9583 C   0  0  0  0  0  0  0  0  0  0  0  0
    3.7958    0.1330    1.6795 C   0  0  0  0  0  0  0  0  0  0  0  0
   -6.7898   -1.9435    0.3113 O   0  0  0  0  0  0  0  0  0  0  0  0
   -6.4720   -0.8655    1.0972 C   0  0  0  0  0  0  0  0  0  0  0  0
   -7.4261    0.2174    1.0301 N   0  0  0  0  0  0  0  0  0  0  0  0
   -5.1135   -0.2655    0.7243 C   0  0  2  0  0  0  0  0  0  0  0  0
   -5.6588    0.7883   -0.6823 S   0  0  0  0  0  0  0  0  0  0  0  0
   -7.4652    0.6651   -0.3585 C   0  0  0  0  0  0  0  0  0  0  0  0
   -7.9996   -0.2671   -1.2114 O   0  0  0  0  0  0  0  0  0  0  0  0
   -4.2564   -1.3500    0.1689 C   0  0  0  0  0  0  0  0  0  0  0  0
    4.2603   -1.0865   -0.4106 C   0  0  0  0  0  0  0  0  0  0  0  0
   -2.8890   -0.9232   -0.2415 C   0  0  0  0  0  0  0  0  0  0  0  0
   -2.8312    0.1275   -1.2984 C   0  0  0  0  0  0  0  0  0  0  0  0
   -1.3691    0.2970   -1.6837 C   0  0  0  0  0  0  0  0  0  0  0  0
   -0.5391    0.7047   -0.4799 C   0  0  0  0  0  0  0  0  0  0  0  0
   -0.6610   -0.3416    0.5901 C   0  0  0  0  0  0  0  0  0  0  0  0
   -2.1138   -0.5011    0.9862 C   0  0  0  0  0  0  0  0  0  0  0  0
    0.7630    0.8726   -0.8998 O   0  0  0  0  0  0  0  0  0  0  0  0
    1.2489    2.1381   -0.7404 C   0  0  0  0  0  0  0  0  0  0  0  0
    2.6619    2.2357   -1.2196 C   0  0  0  0  0  0  0  0  0  0  0  0
    7.5614   -1.0423    1.4769 C   0  0  0  0  0  0  0  0  0  0  0  0
    6.4467   -1.4964    0.5712 C   0  0  0  0  0  0  0  0  0  0  0  0
    5.3073   -0.5242    0.5231 C   0  0  0  0  0  0  0  0  0  0  0  0
    5.7923    0.8378    0.1091 C   0  0  0  0  0  0  0  0  0  0  0  0
    4.9285    1.3965   -0.8879 N   0  0  0  0  0  0  0  0  0  0  0  0
    3.0699   -0.1342   -0.5167 C   0  0  0  0  0  0  0  0  0  0  0  0
    3.5418    1.3037   -0.4370 C   0  0  0  0  0  0  0  0  0  0  0  0
   -5.4078    0.8990   -3.5575 H   0  0  0  0  0  0  0  0  0  0  0  0
   -4.0321    1.5373   -1.1083 H   0  0  0  0  0  0  0  0  0  0  0  0
   -6.2820    1.7328   -0.7604 H   0  0  0  0  0  0  0  0  0  0  0  0
   -3.3912   -0.5739   -2.5729 H   0  0  0  0  0  0  0  0  0  0  0  0
   -7.4892   -0.5844   -0.9697 H   0  0  0  0  0  0  0  0  0  0  0  0
   -8.4423    0.8594   -2.2910 H   0  0  0  0  0  0  0  0  0  0  0  0
   -4.8127   -1.1753    0.0896 H   0  0  0  0  0  0  0  0  0  0  0  0
   -3.5255   -2.1733   -0.6529 H   0  0  0  0  0  0  0  0  0  0  0  0
    2.6185    1.9033   -1.0494 H   0  0  0  0  0  0  0  0  0  0  0  0
    2.1157    0.2571   -0.6492 H   0  0  0  0  0  0  0  0  0  0  0  0
   -3.1459    0.5775    0.6721 H   0  0  0  0  0  0  0  0  0  0  0  0
   -1.7027   -0.6300   -1.4447 H   0  0  0  0  0  0  0  0  0  0  0  0
   -1.0865    0.6602   -0.3901 H   0  0  0  0  0  0  0  0  0  0  0  0
   -1.0091   -2.3821   -0.0649 H   0  0  0  0  0  0  0  0  0  0  0  0
    0.3499   -1.3444   -0.4978 H   0  0  0  0  0  0  0  0  0  0  0  0
   -0.0864   -2.2570    2.0159 H   0  0  0  0  0  0  0  0  0  0  0  0
   -1.5518    0.4404    2.2094 H   0  0  0  0  0  0  0  0  0  0  0  0
   -1.5264   -0.9854    3.3777 H   0  0  0  0  0  0  0  0  0  0  0  0
   -2.4574   -2.2986    1.3696 H   0  0  0  0  0  0  0  0  0  0  0  0
   -3.5774   -1.1404    2.2652 H   0  0  0  0  0  0  0  0  0  0  0  0
    1.5347   -1.7232    3.4976 H   0  0  0  0  0  0  0  0  0  0  0  0
    2.1024   -2.1500    1.8788 H   0  0  0  0  0  0  0  0  0  0  0  0
    2.8145    0.3327    3.5834 H   0  0  0  0  0  0  0  0  0  0  0  0
    3.8193   -1.1101    3.3906 H   0  0  0  0  0  0  0  0  0  0  0  0
    4.8006    3.4459   -1.0016 H   0  0  0  0  0  0  0  0  0  0  0  0
    5.7615    2.3051   -0.0453 H   0  0  0  0  0  0  0  0  0  0  0  0
    6.4143    2.9660   -1.5545 H   0  0  0  0  0  0  0  0  0  0  0  0
    4.3516    1.8729   -2.7437 H   0  0  0  0  0  0  0  0  0  0  0  0
    5.8326    0.9570   -2.3994 H   0  0  0  0  0  0  0  0  0  0  0  0
    3.8521   -0.3039   -2.0131 H   0  0  0  0  0  0  0  0  0  0  0  0
    5.5660   -1.1912   -0.8485 H   0  0  0  0  0  0  0  0  0  0  0  0
    5.7763    0.2877    0.1930 H   0  0  0  0  0  0  0  0  0  0  0  0
    4.6579   -1.7130    1.3046 H   0  0  0  0  0  0  0  0  0  0  0  0
    2.0664    1.4292    1.3522 H   0  0  0  0  0  0  0  0  0  0  0  0
    3.6477    2.1726    1.0814 H   0  0  0  0  0  0  0  0  0  0  0  0
    4.7615    0.5554    2.0907 H   0  0  0  0  0  0  0  0  0  0  0  0
   -6.6069   -2.8143    0.7879 H   0  0  0  0  0  0  0  0  0  0  0  0
   -6.3944   -1.1706    2.1421 H   0  0  0  0  0  0  0  0  0  0  0  0
   -6.9954    1.0220    1.5672 H   0  0  0  0  0  0  0  0  0  0  0  0
   -4.6766    0.3237    1.5265 H   0  0  0  0  0  0  0  0  0  0  0  0
   -7.9301    1.6567   -0.3972 H   0  0  0  0  0  0  0  0  0  0  0  0
   -8.9681   -0.2665   -1.2725 H   0  0  0  0  0  0  0  0  0  0  0  0
   -4.7824   -1.7360   -0.7513 H   0  0  0  0  0  0  0  0  0  0  0  0
   -4.2019   -2.2363    0.8395 H   0  0  0  0  0  0  0  0  0  0  0  0
    4.6629   -1.3073   -1.4101 H   0  0  0  0  0  0  0  0  0  0  0  0
    3.8713   -2.0275    0.0258 H   0  0  0  0  0  0  0  0  0  0  0  0
   -2.3604   -1.8284   -0.6620 H   0  0  0  0  0  0  0  0  0  0  0  0
   -3.1544    1.1277   -0.9392 H   0  0  0  0  0  0  0  0  0  0  0  0
   -3.3833   -0.1658   -2.1919 H   0  0  0  0  0  0  0  0  0  0  0  0
   -1.3173    1.1245   -2.4103 H   0  0  0  0  0  0  0  0  0  0  0  0
   -0.9953   -0.6092   -2.1652 H   0  0  0  0  0  0  0  0  0  0  0  0
   -0.9473    1.6555   -0.0855 H   0  0  0  0  0  0  0  0  0  0  0  0
   -0.0999   -0.0943    1.4902 H   0  0  0  0  0  0  0  0  0  0  0  0
   -0.2953   -1.2990    0.1984 H   0  0  0  0  0  0  0  0  0  0  0  0
   -2.1666   -1.3348    1.7164 H   0  0  0  0  0  0  0  0  0  0  0  0
   -2.5050    0.4491    1.3751 H   0  0  0  0  0  0  0  0  0  0  0  0
    0.6521    2.8663   -1.3587 H   0  0  0  0  0  0  0  0  0  0  0  0
    1.1762    2.3946    0.3407 H   0  0  0  0  0  0  0  0  0  0  0  0
    2.7665    2.0324   -2.3053 H   0  0  0  0  0  0  0  0  0  0  0  0
    3.0854    3.2661   -1.0527 H   0  0  0  0  0  0  0  0  0  0  0  0
    8.2524   -0.4172    0.8760 H   0  0  0  0  0  0  0  0  0  0  0  0
    7.1958   -0.5252    2.3756 H   0  0  0  0  0  0  0  0  0  0  0  0
    8.1369   -1.9444    1.8161 H   0  0  0  0  0  0  0  0  0  0  0  0
    6.8067   -1.6599   -0.4568 H   0  0  0  0  0  0  0  0  0  0  0  0
    6.0553   -2.4601    0.9834 H   0  0  0  0  0  0  0  0  0  0  0  0
    4.8421   -0.3969    1.5447 H   0  0  0  0  0  0  0  0  0  0  0  0
    5.8188    1.5547    0.9595 H   0  0  0  0  0  0  0  0  0  0  0  0
    6.8208    0.7043   -0.3264 H   0  0  0  0  0  0  0  0  0  0  0  0
    5.1593    2.3791   -1.0727 H   0  0  0  0  0  0  0  0  0  0  0  0
    2.3144   -0.3964    0.2434 H   0  0  0  0  0  0  0  0  0  0  0  0
    2.6431   -0.3096   -1.5189 H   0  0  0  0  0  0  0  0  0  0  0  0
    3.5230    1.5998    0.6285 H   0  0  0  0  0  0  0  0  0  0  0  0
  1  2  1  0
  2  3  1  0
  2  4  1  0
  4  5  1  0
  3  6  1  0
  5  6  1  0
  6  7  1  0
  4  8  1  0
  8 10  1  0
 10 11  1  0
 11 12  1  0
 12 13  1  0
 13 14  1  0
 10 15  1  0
 14 15  1  0
 13 16  1  0
 16 17  1  0
 17 18  1  0
 19 20  1  0
  9 21  1  0
 20 21  1  0
 21 22  1  0
 22 23  1  0
  9 24  1  0
 18 25  1  0
 23 25  1  0
 24 25  1  0
 26 27  1  0
 27 28  1  0
 27 29  1  0
 29 30  1  0
 28 31  1  0
 30 31  1  0
 31 32  1  0
 29 33  1  0
 33 35  1  0
 35 36  1  0
 36 37  1  0
 37 38  1  0
 38 39  1  0
 35 40  1  0
 39 40  1  0
 38 41  1  0
 41 42  1  0
 42 43  1  0
 44 45  1  0
 34 46  1  0
 45 46  1  0
 46 47  1  0
 47 48  1  0
 34 49  1  0
 43 50  1  0
 48 50  1  0
 49 50  1  0
  1 51  1  0
  2 52  1  1
  3 53  1  0
  4 54  1  6
  6 55  1  0
  7 56  1  0
  8 57  1  0
  8 58  1  0
  9 59  1  0
  9 60  1  0
 10 61  1  0
 11 62  1  0
 11 63  1  0
 12 64  1  0
 12 65  1  0
 13 66  1  0
 14 67  1  0
 14 68  1  0
 15 69  1  0
 15 70  1  0
 17 71  1  0
 17 72  1  0
 18 73  1  0
 18 74  1  0
 19 75  1  0
 19 76  1  0
 19 77  1  0
 20 78  1  0
 20 79  1  0
 21 80  1  0
 22 81  1  0
 22 82  1  0
 23 83  1  0
 24 84  1  0
 24 85  1  0
 25 86  1  0
 26 87  1  0
 27 88  1  0
 28 89  1  0
 29 90  1  1
 31 91  1  0
 32 92  1  0
 33 93  1  0
 33 94  1  0
 34 95  1  0
 34 96  1  0
 35 97  1  0
 36 98  1  0
 36 99  1  0
 37100  1  0
 37101  1  0
 38102  1  0
 39103  1  0
 39104  1  0
 40105  1  0
 40106  1  0
 42107  1  0
 42108  1  0
 43109  1  0
 43110  1  0
 44111  1  0
 44112  1  0
 44113  1  0
 45114  1  0
 45115  1  0
 46116  1  0
 47117  1  0
 47118  1  0
 48119  1  0
 49120  1  0
 49121  1  0
 50122  1  0
M  END
>  <PDBID>  (1) 
2XKW

>  <PDB ID>  (1) 
2XKW

>  <Generic Name>  (1) 
Pioglitazone

>  <Brand Name>  (1) 
Accel Pioglitazone#Ach-pioglitazone#Act Pioglitazone#Actoplus Met#Actoplus Met XR#Actos#Actos (15mg)#Actos (30mg)#Actos (45mg)#Ag-pioglitazone#Alogliptin and Pioglitazone#Apo-pioglitazone#Auro-pioglitazone#Ava-pioglitazone#Dom-pioglitazone#Duetact#Jamp-pioglitazone#Mint-pioglitazone#Mylan-pioglitazone#Oseni#PHL-pioglitazone#PMS-pioglitazone#Pioglitazole and Metformin Hydrochloride#Pioglitazone#Pioglitazone HCl#Pioglitazone HCl and Metformin HCl#Pioglitazone Hydrochloride#Pioglitazone Hydrochloride and Glimepiride#Pioglitazone Hydrochloride and Metformin Hydrochloride#Pioglitazone and Glimepiride#Pioglitazone and Metformin#Pioglitazone and Metformin Hydrochloride#Pioglitazone and Metformin Hydrocholride#Pioglitazonehydrochloride#Pro-pioglitazone#Ran-pioglitazone#Ratio-pioglitazone#Sandoz Pioglitazone#Teva-pioglitazone#Torrent-pioglitazone#Van-pioglitazone#Zym-pioglitazone#Actost#Glustin

>  <DrugBank ID>  (1) 
DB01132

>  <ATC Codes>  (1) 
A10BD12#A10BD09#A10BG03#A10BD06#A10BD05

>  <Ligand ID>  (1) 
8N6,P1B

>  <Target Name>  (1) 
Peroxisome proliferator-activated receptor gamma

>  <UniProt ID>  (1) 
P37231

>  <PDB ID.1>  (1) 
2XKW

>  <Seq. Identity>  (1) 
95%

$$$$
