PDB_DB00215_02
     RDKit          3D

 61 63  0  0  0  0  0  0  0  0999 V2000
   -0.3590    2.1263    0.3281 C   0  0  0  0  0  0  0  0  0  0  0  0
    1.9903    0.9440   -0.5382 C   0  0  0  0  0  0  0  0  0  0  0  0
   -0.3032    2.7868   -0.9988 C   0  0  0  0  0  0  0  0  0  0  0  0
    3.2822    0.1609   -0.7150 C   0  0  0  0  0  0  0  0  0  0  0  0
   -1.3873    4.0343    1.4094 C   0  0  0  0  0  0  0  0  0  0  0  0
   -1.2358    4.7897    0.1130 C   0  0  0  0  0  0  0  0  0  0  0  0
   -3.9308   -3.9157   -1.9243 C   0  0  0  0  0  0  0  0  0  0  0  0
    4.8111   -1.5485    0.0828 C   0  0  0  0  0  0  0  0  0  0  0  0
   -2.1211    5.8275    0.0381 F   0  0  0  0  0  0  0  0  0  0  0  0
   -0.4853    0.2663    1.6816 O   0  0  0  0  0  0  0  0  0  0  0  0
   -2.8276   -3.3195   -1.2219 N   0  0  0  0  0  0  0  0  0  0  0  0
    5.2777   -2.3457    1.2006 N   0  0  0  0  0  0  0  0  0  0  0  0
   -0.3649    0.6231    0.3276 C   0  0  1  0  0  0  0  0  0  0  0  0
   -1.5455    0.0929   -0.4381 C   0  0  0  0  0  0  0  0  0  0  0  0
    0.8886   -0.0234   -0.1845 C   0  0  0  0  0  0  0  0  0  0  0  0
    1.2404   -0.9219    0.9510 C   0  0  0  0  0  0  0  0  0  0  0  0
   -1.6311   -1.3972   -0.4754 C   0  0  0  0  0  0  0  0  0  0  0  0
    0.8162   -0.0200    2.1233 C   0  0  0  0  0  0  0  0  0  0  0  0
   -2.8721   -1.8531   -1.2679 C   0  0  0  0  0  0  0  0  0  0  0  0
    2.5902   -1.4474    1.0691 C   0  0  0  0  0  0  0  0  0  0  0  0
   -1.6382    2.5700    1.0216 C   0  0  0  0  0  0  0  0  0  0  0  0
    3.6924   -0.6102    0.4906 C   0  0  0  0  0  0  0  0  0  0  0  0
   -1.3321    3.9317   -1.1046 C   0  0  0  0  0  0  0  0  0  0  0  0
   -2.8812   -3.7180    0.1728 C   0  0  0  0  0  0  0  0  0  0  0  0
    0.4579    2.4470    1.0107 H   0  0  0  0  0  0  0  0  0  0  0  0
    1.7638    1.3133   -1.5682 H   0  0  0  0  0  0  0  0  0  0  0  0
    2.1761    1.7259    0.2008 H   0  0  0  0  0  0  0  0  0  0  0  0
   -0.4315    2.1381   -1.8672 H   0  0  0  0  0  0  0  0  0  0  0  0
    0.6742    3.3506   -1.0643 H   0  0  0  0  0  0  0  0  0  0  0  0
    4.0762    0.9439   -0.8939 H   0  0  0  0  0  0  0  0  0  0  0  0
    3.2729   -0.4490   -1.6457 H   0  0  0  0  0  0  0  0  0  0  0  0
   -0.4095    4.0046    1.9735 H   0  0  0  0  0  0  0  0  0  0  0  0
   -2.1796    4.4198    2.0588 H   0  0  0  0  0  0  0  0  0  0  0  0
   -0.2075    5.2507    0.1059 H   0  0  0  0  0  0  0  0  0  0  0  0
   -3.6590   -4.2291   -2.9601 H   0  0  0  0  0  0  0  0  0  0  0  0
   -4.2122   -4.8500   -1.3878 H   0  0  0  0  0  0  0  0  0  0  0  0
   -4.8116   -3.2418   -1.9310 H   0  0  0  0  0  0  0  0  0  0  0  0
    5.6104   -1.0072   -0.4227 H   0  0  0  0  0  0  0  0  0  0  0  0
    4.3621   -2.2442   -0.6728 H   0  0  0  0  0  0  0  0  0  0  0  0
    5.8512   -3.1258    0.7741 H   0  0  0  0  0  0  0  0  0  0  0  0
    4.4837   -2.7400    1.7142 H   0  0  0  0  0  0  0  0  0  0  0  0
   -2.5074    0.5505   -0.0955 H   0  0  0  0  0  0  0  0  0  0  0  0
   -1.4802    0.4264   -1.5174 H   0  0  0  0  0  0  0  0  0  0  0  0
    0.7246   -0.6303   -1.1062 H   0  0  0  0  0  0  0  0  0  0  0  0
    0.5153   -1.7715    1.0021 H   0  0  0  0  0  0  0  0  0  0  0  0
   -1.8296   -1.7550    0.5547 H   0  0  0  0  0  0  0  0  0  0  0  0
   -0.7927   -1.8973   -0.9798 H   0  0  0  0  0  0  0  0  0  0  0  0
    0.7835   -0.6004    3.0428 H   0  0  0  0  0  0  0  0  0  0  0  0
    1.4108    0.8976    2.1579 H   0  0  0  0  0  0  0  0  0  0  0  0
   -2.7245   -1.5256   -2.3146 H   0  0  0  0  0  0  0  0  0  0  0  0
   -3.7970   -1.4574   -0.8256 H   0  0  0  0  0  0  0  0  0  0  0  0
    2.8376   -1.6171    2.1505 H   0  0  0  0  0  0  0  0  0  0  0  0
    2.6327   -2.4795    0.6151 H   0  0  0  0  0  0  0  0  0  0  0  0
   -2.5264    2.5167    0.3946 H   0  0  0  0  0  0  0  0  0  0  0  0
   -1.8353    1.9598    1.9310 H   0  0  0  0  0  0  0  0  0  0  0  0
    4.1089    0.0552    1.2703 H   0  0  0  0  0  0  0  0  0  0  0  0
   -1.0015    4.5396   -1.9729 H   0  0  0  0  0  0  0  0  0  0  0  0
   -2.3307    3.5606   -1.3422 H   0  0  0  0  0  0  0  0  0  0  0  0
   -1.8548   -3.8283    0.5547 H   0  0  0  0  0  0  0  0  0  0  0  0
   -3.4781   -2.9650    0.7126 H   0  0  0  0  0  0  0  0  0  0  0  0
   -3.3465   -4.7183    0.2029 H   0  0  0  0  0  0  0  0  0  0  0  0
  1  3  1  0
  2  4  1  0
  5  6  1  0
  6  9  1  0
  7 11  1  0
  8 12  1  0
  1 13  1  0
 10 13  1  0
 13 14  1  6
  2 15  1  0
 13 15  1  0
 15 16  1  0
 14 17  1  0
 10 18  1  0
 16 18  1  0
 11 19  1  0
 17 19  1  0
 16 20  1  0
  1 21  1  0
  5 21  1  0
  4 22  1  0
  8 22  1  0
 20 22  1  0
  3 23  1  0
  6 23  1  0
 11 24  1  0
  1 25  1  0
  2 26  1  0
  2 27  1  0
  3 28  1  0
  3 29  1  0
  4 30  1  0
  4 31  1  0
  5 32  1  0
  5 33  1  0
  6 34  1  0
  7 35  1  0
  7 36  1  0
  7 37  1  0
  8 38  1  0
  8 39  1  0
 12 40  1  0
 12 41  1  0
 14 42  1  0
 14 43  1  0
 15 44  1  0
 16 45  1  0
 17 46  1  0
 17 47  1  0
 18 48  1  0
 18 49  1  0
 19 50  1  0
 19 51  1  0
 20 52  1  0
 20 53  1  0
 21 54  1  0
 21 55  1  0
 22 56  1  0
 23 57  1  0
 23 58  1  0
 24 59  1  0
 24 60  1  0
 24 61  1  0
M  END
>  <PDBID>  (1) 
5I71

>  <PDB ID>  (1) 
5I71

>  <Generic Name>  (1) 
Citalopram

>  <Brand Name>  (1) 
Abbott-citalopram#Accel-citalopram Tablets#Act Citalopram#Ag-citalopram#Apo-citalopram#Auro-citalopram#Ava-citalopram#Bio-citalopram#Celexa#Celexa 10 mg#Celexa 20 mg#Celexa 40 mg#Citalopram#Citalopram Hydrobromide#Citalopram Tablets#Citalopram Tablets USP#Citalopram-10#Citalopram-20#Citalopram-40#Citalopram-odan#Ctp 30#Dom-citalopram#Ecl-citalopram#Ipg-citalopram#Jamp-citalopram#Manda-citalopram#Mar-citalopram#Mint-citalopram#Mylan-citalopram#Nat-citalopram#Nat-citalopram Tablets#Ng Citalopram#Novo-citalopram#Ntp-citalopram#Nu-citalopram#PHL-citalopram#PMS-citalopram#Pendo-citalopram#Perrigo Citalopram#Priva-citalopram#Q-citalopram#Ran-citalo#Ran-citalopram#Ratio-citalopram#Riva-citalopram#Sandoz Citalopram#Sentralopram Am-10#Septa-citalopram#Teva-citalopram#Van-citalopram#Akarin#Celapram#Ciazil#Cilift#Cipram#Cipramil#Ciprapine#Citabax#Citalec#Citol#Citopam#Citox#Citrol#Dalsan#Elopram#Humorup#Oropram#Pramcit#Recital#Seropram#Talam#Talohexal#Temperax#Vodelax#Zentius#Zetalo

>  <DrugBank ID>  (1) 
DB00215

>  <ATC Codes>  (1) 
N06AB04

>  <Ligand ID>  (1) 
68P

>  <Target Name>  (1) 
Sodium-dependent serotonin transporter

>  <UniProt ID>  (1) 
P31645

>  <PDB ID.1>  (1) 
5I71

>  <Seq. Identity>  (1) 
99%

$$$$
