PDB_DB00866_07
     RDKit          3D

 49 49  0  0  0  0  0  0  0  0999 V2000
    6.0267   -0.4198    0.2290 C   0  0  0  0  0  0  0  0  0  0  0  0
    3.8670   -0.5665   -0.7155 N   0  0  0  0  0  0  0  0  0  0  0  0
    1.1650   -1.3344   -0.5357 O   0  0  0  0  0  0  0  0  0  0  0  0
    4.5146   -0.4466    0.5467 C   0  0  0  0  0  0  0  0  0  0  0  0
   -0.7255    0.7268    0.2390 O   0  0  0  0  0  0  0  0  0  0  0  0
    4.2725    0.8494    1.2842 C   0  0  0  0  0  0  0  0  0  0  0  0
    2.7675    0.2937   -0.9800 C   0  0  0  0  0  0  0  0  0  0  0  0
    1.5287   -0.0495   -0.1672 C   0  0  1  0  0  0  0  0  0  0  0  0
    0.4424    0.9186   -0.4210 C   0  0  0  0  0  0  0  0  0  0  0  0
   -1.4614   -0.3862   -0.0022 C   0  0  0  0  0  0  0  0  0  0  0  0
   -1.4420   -1.1907    1.3218 C   0  0  0  0  0  0  0  0  0  0  0  0
   -2.1894   -2.4837    1.1397 C   0  0  0  0  0  0  0  0  0  0  0  0
   -3.6485   -2.2177    0.8173 C   0  0  0  0  0  0  0  0  0  0  0  0
   -3.7209   -1.3565   -0.3989 C   0  0  0  0  0  0  0  0  0  0  0  0
   -2.9130   -0.0708   -0.2017 C   0  0  0  0  0  0  0  0  0  0  0  0
   -3.2936    0.8488   -1.2904 C   0  0  0  0  0  0  0  0  0  0  0  0
   -2.7708    2.2419   -1.2455 C   0  0  0  0  0  0  0  0  0  0  0  0
   -3.1556    3.0208   -0.0075 C   0  0  0  0  0  0  0  0  0  0  0  0
    6.5534    0.0740    1.0619 H   0  0  0  0  0  0  0  0  0  0  0  0
    6.1588    0.1240   -0.7212 H   0  0  0  0  0  0  0  0  0  0  0  0
    6.3895   -1.4631    0.0891 H   0  0  0  0  0  0  0  0  0  0  0  0
    3.5742   -1.5537   -0.8698 H   0  0  0  0  0  0  0  0  0  0  0  0
    1.5985   -1.6009   -1.3740 H   0  0  0  0  0  0  0  0  0  0  0  0
    4.3675   -1.3312    1.1896 H   0  0  0  0  0  0  0  0  0  0  0  0
    3.4505    1.4577    0.9330 H   0  0  0  0  0  0  0  0  0  0  0  0
    4.0867    0.5940    2.3579 H   0  0  0  0  0  0  0  0  0  0  0  0
    5.1789    1.5240    1.2720 H   0  0  0  0  0  0  0  0  0  0  0  0
    2.4548    0.0659   -2.0476 H   0  0  0  0  0  0  0  0  0  0  0  0
    2.9957    1.3726   -1.0126 H   0  0  0  0  0  0  0  0  0  0  0  0
    1.7702   -0.1291    0.9306 H   0  0  0  0  0  0  0  0  0  0  0  0
    0.8338    1.9312   -0.0904 H   0  0  0  0  0  0  0  0  0  0  0  0
    0.3222    1.0013   -1.5349 H   0  0  0  0  0  0  0  0  0  0  0  0
   -1.0589   -1.0572   -0.7994 H   0  0  0  0  0  0  0  0  0  0  0  0
   -1.9969   -0.5839    2.0599 H   0  0  0  0  0  0  0  0  0  0  0  0
   -0.4238   -1.3514    1.6329 H   0  0  0  0  0  0  0  0  0  0  0  0
   -1.7307   -3.1477    0.3993 H   0  0  0  0  0  0  0  0  0  0  0  0
   -2.2030   -2.9878    2.1438 H   0  0  0  0  0  0  0  0  0  0  0  0
   -4.1523   -1.7296    1.6581 H   0  0  0  0  0  0  0  0  0  0  0  0
   -4.1522   -3.1928    0.6110 H   0  0  0  0  0  0  0  0  0  0  0  0
   -3.2566   -1.8660   -1.2573 H   0  0  0  0  0  0  0  0  0  0  0  0
   -4.7372   -1.0431   -0.6199 H   0  0  0  0  0  0  0  0  0  0  0  0
   -3.2592    0.3286    0.8118 H   0  0  0  0  0  0  0  0  0  0  0  0
   -2.9911    0.4247   -2.2885 H   0  0  0  0  0  0  0  0  0  0  0  0
   -4.4248    0.9139   -1.4026 H   0  0  0  0  0  0  0  0  0  0  0  0
   -1.6985    2.2945   -1.4647 H   0  0  0  0  0  0  0  0  0  0  0  0
   -3.2570    2.7647   -2.1417 H   0  0  0  0  0  0  0  0  0  0  0  0
   -3.9785    2.5711    0.5627 H   0  0  0  0  0  0  0  0  0  0  0  0
   -3.4467    4.0693   -0.3090 H   0  0  0  0  0  0  0  0  0  0  0  0
   -2.2306    3.1484    0.6078 H   0  0  0  0  0  0  0  0  0  0  0  0
  1  4  1  0
  2  4  1  0
  4  6  1  0
  2  7  1  0
  3  8  1  0
  7  8  1  0
  5  9  1  0
  8  9  1  0
  5 10  1  0
 10 11  1  0
 11 12  1  0
 12 13  1  0
 13 14  1  0
 10 15  1  0
 14 15  1  0
 15 16  1  0
 16 17  1  0
 17 18  1  0
  1 19  1  0
  1 20  1  0
  1 21  1  0
  2 22  1  0
  3 23  1  0
  4 24  1  0
  6 25  1  0
  6 26  1  0
  6 27  1  0
  7 28  1  0
  7 29  1  0
  8 30  1  1
  9 31  1  0
  9 32  1  0
 10 33  1  0
 11 34  1  0
 11 35  1  0
 12 36  1  0
 12 37  1  0
 13 38  1  0
 13 39  1  0
 14 40  1  0
 14 41  1  0
 15 42  1  0
 16 43  1  0
 16 44  1  0
 17 45  1  0
 17 46  1  0
 18 47  1  0
 18 48  1  0
 18 49  1  0
M  END
>  <PDBID>  (1) 
3NYA

>  <PDB ID>  (1) 
3NYA

>  <Generic Name>  (1) 
Alprenolol

>  <Brand Name>  (1) 
Apllobal#Aptin#Aptine#Aptol Duriles#Atenenol#Elp#Gubernal#Regletin#Skajilol#Yobir

>  <DrugBank ID>  (1) 
DB00866

>  <ATC Codes>  (1) 
C07AA01

>  <Ligand ID>  (1) 
JTZ

>  <Target Name>  (1) 
Beta-1 adrenergic receptor

>  <UniProt ID>  (1) 
P08588

>  <PDB ID.1>  (1) 
3NYA

>  <Seq. Identity>  (1) 
67%

$$$$
