PDB_DB00619_03
     RDKit          3D

 94 98  0  0  0  0  0  0  0  0999 V2000
   -9.3402   -0.7798    0.0618 C   0  0  0  0  0  0  0  0  0  0  0  0
   -8.1971   -0.4562   -0.8627 C   0  0  0  0  0  0  0  0  0  0  0  0
   -6.8967   -0.2298   -0.1515 C   0  0  0  0  0  0  0  0  0  0  0  0
   -7.1949    0.6639    1.0417 C   0  0  0  0  0  0  0  0  0  0  0  0
   -8.5033    1.2767    0.9542 N   0  0  0  0  0  0  0  0  0  0  0  0
   -9.5879    0.3422    1.0256 C   0  0  0  0  0  0  0  0  0  0  0  0
   -6.3326   -1.5249    0.3731 C   0  0  0  0  0  0  0  0  0  0  0  0
   -6.0778   -2.5234   -0.7335 C   0  0  0  0  0  0  0  0  0  0  0  0
   -5.0518   -1.9052   -1.6507 C   0  0  0  0  0  0  0  0  0  0  0  0
   -3.9132   -1.3877   -1.0183 N   0  0  0  0  0  0  0  0  0  0  0  0
   -3.9941   -0.9111    0.2954 C   0  0  0  0  0  0  0  0  0  0  0  0
   -5.1084   -1.3448    1.0843 N   0  0  0  0  0  0  0  0  0  0  0  0
   -3.9632    0.5512    0.3027 N   0  0  0  0  0  0  0  0  0  0  0  0
   -2.7653    1.0763   -0.2923 C   0  0  0  0  0  0  0  0  0  0  0  0
   -2.9099    2.6036   -0.2448 C   0  0  0  0  0  0  0  0  0  0  0  0
   -1.8053    3.2677   -1.0250 C   0  0  0  0  0  0  0  0  0  0  0  0
   -0.7564    2.2698   -1.3912 C   0  0  0  0  0  0  0  0  0  0  0  0
   -0.3487    1.4775   -0.1664 C   0  0  1  0  0  0  0  0  0  0  0  0
   -1.5027    0.6852    0.4079 C   0  0  0  0  0  0  0  0  0  0  0  0
    0.7609    0.6352   -0.5372 N   0  0  0  0  0  0  0  0  0  0  0  0
    1.3884   -0.0156    0.5967 C   0  0  0  0  0  0  0  0  0  0  0  0
    2.5021   -0.9051    0.0943 C   0  0  0  0  0  0  0  0  0  0  0  0
    3.5540   -0.1280   -0.6602 C   0  0  0  0  0  0  0  0  0  0  0  0
    4.7047   -1.0864   -0.9345 C   0  0  0  0  0  0  0  0  0  0  0  0
    5.4554   -1.2299    0.3771 C   0  0  0  0  0  0  0  0  0  0  0  0
    4.5183   -1.1595    1.5604 C   0  0  0  0  0  0  0  0  0  0  0  0
    3.1422   -1.6878    1.2194 C   0  0  0  0  0  0  0  0  0  0  0  0
    6.4128   -0.0665    0.4656 C   0  0  0  0  0  0  0  0  0  0  0  0
    7.3552   -0.0591   -0.6364 N   0  0  0  0  0  0  0  0  0  0  0  0
    8.2176    1.0884   -0.4717 C   0  0  0  0  0  0  0  0  0  0  0  0
    9.3456    0.8483    0.5038 C   0  0  0  0  0  0  0  0  0  0  0  0
   10.1452   -0.2921    0.1273 N   0  0  0  0  0  0  0  0  0  0  0  0
   10.3037   -1.1800    1.2429 C   0  0  0  0  0  0  0  0  0  0  0  0
    9.5689   -0.9682   -1.0137 C   0  0  0  0  0  0  0  0  0  0  0  0
    8.1254   -1.2818   -0.6986 C   0  0  0  0  0  0  0  0  0  0  0  0
    1.8553    0.9650    1.4654 O   0  0  0  0  0  0  0  0  0  0  0  0
   -4.2730    2.9362   -0.8156 C   0  0  0  0  0  0  0  0  0  0  0  0
  -10.2296   -0.9686   -0.5889 H   0  0  0  0  0  0  0  0  0  0  0  0
   -9.1666   -1.7066    0.6304 H   0  0  0  0  0  0  0  0  0  0  0  0
   -8.4529    0.5262   -1.3595 H   0  0  0  0  0  0  0  0  0  0  0  0
   -8.1528   -1.1932   -1.6753 H   0  0  0  0  0  0  0  0  0  0  0  0
   -6.2208    0.3089   -0.8232 H   0  0  0  0  0  0  0  0  0  0  0  0
   -7.1451    0.1102    2.0017 H   0  0  0  0  0  0  0  0  0  0  0  0
   -6.4682    1.5001    1.1028 H   0  0  0  0  0  0  0  0  0  0  0  0
   -8.6135    1.8963    0.1444 H   0  0  0  0  0  0  0  0  0  0  0  0
  -10.5123    0.8756    0.7082 H   0  0  0  0  0  0  0  0  0  0  0  0
   -9.7672   -0.0201    2.0553 H   0  0  0  0  0  0  0  0  0  0  0  0
   -7.0715   -1.9722    1.0623 H   0  0  0  0  0  0  0  0  0  0  0  0
   -6.9620   -2.8055   -1.3006 H   0  0  0  0  0  0  0  0  0  0  0  0
   -5.5822   -3.4076   -0.2524 H   0  0  0  0  0  0  0  0  0  0  0  0
   -5.5196   -1.1053   -2.2865 H   0  0  0  0  0  0  0  0  0  0  0  0
   -4.7464   -2.6990   -2.3711 H   0  0  0  0  0  0  0  0  0  0  0  0
   -2.9864   -1.6856   -1.3723 H   0  0  0  0  0  0  0  0  0  0  0  0
   -3.0690   -1.2225    0.8504 H   0  0  0  0  0  0  0  0  0  0  0  0
   -5.1955   -0.7103    1.8966 H   0  0  0  0  0  0  0  0  0  0  0  0
   -4.1063    0.9424    1.2445 H   0  0  0  0  0  0  0  0  0  0  0  0
   -2.6866    0.7898   -1.3686 H   0  0  0  0  0  0  0  0  0  0  0  0
   -2.9245    2.8666    0.8193 H   0  0  0  0  0  0  0  0  0  0  0  0
   -1.3574    4.0855   -0.3981 H   0  0  0  0  0  0  0  0  0  0  0  0
   -2.2282    3.7188   -1.9429 H   0  0  0  0  0  0  0  0  0  0  0  0
   -1.0718    1.6626   -2.2376 H   0  0  0  0  0  0  0  0  0  0  0  0
    0.1641    2.8604   -1.6717 H   0  0  0  0  0  0  0  0  0  0  0  0
    0.0016    2.2022    0.5925 H   0  0  0  0  0  0  0  0  0  0  0  0
   -1.6429    0.9384    1.4912 H   0  0  0  0  0  0  0  0  0  0  0  0
   -1.2963   -0.3811    0.3030 H   0  0  0  0  0  0  0  0  0  0  0  0
    1.4430    1.2600   -1.0517 H   0  0  0  0  0  0  0  0  0  0  0  0
    0.6184   -0.6690    1.0502 H   0  0  0  0  0  0  0  0  0  0  0  0
    2.0578   -1.6376   -0.6067 H   0  0  0  0  0  0  0  0  0  0  0  0
    3.9604    0.7075   -0.0726 H   0  0  0  0  0  0  0  0  0  0  0  0
    3.1031    0.2158   -1.6167 H   0  0  0  0  0  0  0  0  0  0  0  0
    4.2418   -2.0604   -1.2151 H   0  0  0  0  0  0  0  0  0  0  0  0
    5.3996   -0.7227   -1.6963 H   0  0  0  0  0  0  0  0  0  0  0  0
    6.0424   -2.1501    0.3260 H   0  0  0  0  0  0  0  0  0  0  0  0
    4.4542   -0.1407    1.9895 H   0  0  0  0  0  0  0  0  0  0  0  0
    4.9421   -1.8110    2.3478 H   0  0  0  0  0  0  0  0  0  0  0  0
    3.1739   -2.7710    1.0419 H   0  0  0  0  0  0  0  0  0  0  0  0
    2.5083   -1.5213    2.1327 H   0  0  0  0  0  0  0  0  0  0  0  0
    6.9933   -0.0936    1.4346 H   0  0  0  0  0  0  0  0  0  0  0  0
    5.9087    0.9206    0.4710 H   0  0  0  0  0  0  0  0  0  0  0  0
    8.6142    1.4607   -1.4398 H   0  0  0  0  0  0  0  0  0  0  0  0
    7.5964    1.9273   -0.0685 H   0  0  0  0  0  0  0  0  0  0  0  0
    9.0010    0.8249    1.5384 H   0  0  0  0  0  0  0  0  0  0  0  0
   10.0190    1.7416    0.4175 H   0  0  0  0  0  0  0  0  0  0  0  0
    9.6327   -0.8466    2.0845 H   0  0  0  0  0  0  0  0  0  0  0  0
   11.3335   -1.1553    1.6501 H   0  0  0  0  0  0  0  0  0  0  0  0
   10.0454   -2.2132    0.9957 H   0  0  0  0  0  0  0  0  0  0  0  0
    9.6714   -0.3268   -1.9189 H   0  0  0  0  0  0  0  0  0  0  0  0
   10.1181   -1.9227   -1.1949 H   0  0  0  0  0  0  0  0  0  0  0  0
    8.0959   -1.7893    0.2738 H   0  0  0  0  0  0  0  0  0  0  0  0
    7.6789   -1.9554   -1.4637 H   0  0  0  0  0  0  0  0  0  0  0  0
    1.3921    0.8476    2.3309 H   0  0  0  0  0  0  0  0  0  0  0  0
   -4.2215    3.8746   -1.4219 H   0  0  0  0  0  0  0  0  0  0  0  0
   -5.0096    3.0541   -0.0169 H   0  0  0  0  0  0  0  0  0  0  0  0
   -4.6376    2.0855   -1.4500 H   0  0  0  0  0  0  0  0  0  0  0  0
  1  2  1  0
  2  3  1  0
  3  4  1  0
  4  5  1  0
  1  6  1  0
  5  6  1  0
  3  7  1  0
  7  8  1  0
  8  9  1  0
  9 10  1  0
 10 11  1  0
  7 12  1  0
 11 12  1  0
 11 13  1  0
 13 14  1  0
 14 15  1  0
 15 16  1  0
 16 17  1  0
 17 18  1  0
 14 19  1  0
 18 19  1  0
 18 20  1  0
 20 21  1  0
 21 22  1  0
 22 23  1  0
 23 24  1  0
 24 25  1  0
 25 26  1  0
 22 27  1  0
 26 27  1  0
 25 28  1  0
 28 29  1  0
 29 30  1  0
 30 31  1  0
 31 32  1  0
 32 33  1  0
 32 34  1  0
 29 35  1  0
 34 35  1  0
 21 36  1  0
 15 37  1  0
  1 38  1  0
  1 39  1  0
  2 40  1  0
  2 41  1  0
  3 42  1  0
  4 43  1  0
  4 44  1  0
  5 45  1  0
  6 46  1  0
  6 47  1  0
  7 48  1  0
  8 49  1  0
  8 50  1  0
  9 51  1  0
  9 52  1  0
 10 53  1  0
 11 54  1  0
 12 55  1  0
 13 56  1  0
 14 57  1  0
 15 58  1  0
 16 59  1  0
 16 60  1  0
 17 61  1  0
 17 62  1  0
 18 63  1  1
 19 64  1  0
 19 65  1  0
 20 66  1  0
 21 67  1  0
 22 68  1  0
 23 69  1  0
 23 70  1  0
 24 71  1  0
 24 72  1  0
 25 73  1  0
 26 74  1  0
 26 75  1  0
 27 76  1  0
 27 77  1  0
 28 78  1  0
 28 79  1  0
 30 80  1  0
 30 81  1  0
 31 82  1  0
 31 83  1  0
 33 84  1  0
 33 85  1  0
 33 86  1  0
 34 87  1  0
 34 88  1  0
 35 89  1  0
 35 90  1  0
 36 91  1  0
 37 92  1  0
 37 93  1  0
 37 94  1  0
M  END
>  <PDBID>  (1) 
1T46

>  <PDB ID>  (1) 
1T46

>  <Generic Name>  (1) 
Imatinib

>  <Brand Name>  (1) 
Apo-imatinib#Gleevec#Imatinib Mesylate#Mylan-imatinib#Nat-imatinib#PMS-imatinib#Ran-imatinib#Teva-imatinib#Celonib#Enliven#Glivec#Imatib#Mesylonib#Mitinab#Plivatinib#Shantinib

>  <DrugBank ID>  (1) 
DB00619

>  <ATC Codes>  (1) 
L01XE01

>  <Ligand ID>  (1) 
STI

>  <Target Name>  (1) 
Mast/stem cell growth factor receptor Kit

>  <UniProt ID>  (1) 
P10721

>  <PDB ID.1>  (1) 
1T46

>  <Seq. Identity>  (1) 
90%

$$$$
