PDB_DB00482_01
     RDKit          3D

116120  0  0  0  0  0  0  0  0999 V2000
    5.5541   -0.1296   -0.8039 S   0  0  0  0  0  0  0  0  0  0  0  0
    3.9320   -0.1941   -0.3615 C   0  0  0  0  0  0  0  0  0  0  0  0
    3.0019    0.4106   -1.3915 C   0  0  0  0  0  0  0  0  0  0  0  0
    1.6752    0.6179   -0.7090 C   0  0  0  0  0  0  0  0  0  0  0  0
    1.0694   -0.6178   -0.1433 C   0  0  0  0  0  0  0  0  0  0  0  0
    2.0253   -1.5383    0.5483 C   0  0  0  0  0  0  0  0  0  0  0  0
    3.3871   -1.5952   -0.1008 C   0  0  0  0  0  0  0  0  0  0  0  0
    0.0504   -0.2185    0.8130 N   0  0  0  0  0  0  0  0  0  0  0  0
   -1.0410    0.5238    0.2398 C   0  0  0  0  0  0  0  0  0  0  0  0
   -1.9649   -0.2731   -0.5987 C   0  0  0  0  0  0  0  0  0  0  0  0
   -3.0468    0.6546   -1.1363 C   0  0  0  0  0  0  0  0  0  0  0  0
   -4.1711   -0.1282   -1.7682 C   0  0  0  0  0  0  0  0  0  0  0  0
   -4.8816   -1.0194   -0.7980 C   0  0  0  0  0  0  0  0  0  0  0  0
   -6.2671   -0.5204   -0.4540 C   0  0  0  0  0  0  0  0  0  0  0  0
   -4.0417   -1.0445    0.4844 C   0  0  0  0  0  0  0  0  0  0  0  0
   -2.6372   -1.4143    0.0659 C   0  0  0  0  0  0  0  0  0  0  0  0
   -1.6783    1.0438    1.5329 C   0  0  0  0  0  0  0  0  0  0  0  0
   -0.4288    1.4774    2.2740 C   0  0  0  0  0  0  0  0  0  0  0  0
   -0.1423    2.9413    2.0613 C   0  0  0  0  0  0  0  0  0  0  0  0
   -1.2604    3.6294    2.5512 F   0  0  0  0  0  0  0  0  0  0  0  0
    0.9168    3.3503    2.8484 F   0  0  0  0  0  0  0  0  0  0  0  0
    0.0657    3.3036    0.7688 F   0  0  0  0  0  0  0  0  0  0  0  0
    0.5833    0.5885    1.8189 N   0  0  0  0  0  0  0  0  0  0  0  0
    6.3466   -0.8935    0.6151 N   0  0  0  0  0  0  0  0  0  0  0  0
    5.9981    1.4749   -0.6516 O   0  0  0  0  0  0  0  0  0  0  0  0
    5.9905   -0.7309   -2.0701 O   0  0  0  0  0  0  0  0  0  0  0  0
    5.5541   -0.1296   -0.8039 S   0  0  0  0  0  0  0  0  0  0  0  0
    3.9320   -0.1941   -0.3615 C   0  0  0  0  0  0  0  0  0  0  0  0
    3.0019    0.4106   -1.3915 C   0  0  0  0  0  0  0  0  0  0  0  0
    1.6752    0.6179   -0.7090 C   0  0  0  0  0  0  0  0  0  0  0  0
    1.0694   -0.6178   -0.1433 C   0  0  0  0  0  0  0  0  0  0  0  0
    2.0253   -1.5383    0.5483 C   0  0  0  0  0  0  0  0  0  0  0  0
    3.3871   -1.5952   -0.1008 C   0  0  0  0  0  0  0  0  0  0  0  0
    0.0504   -0.2185    0.8130 N   0  0  0  0  0  0  0  0  0  0  0  0
   -1.0410    0.5238    0.2398 C   0  0  0  0  0  0  0  0  0  0  0  0
   -1.9649   -0.2731   -0.5987 C   0  0  0  0  0  0  0  0  0  0  0  0
   -3.0468    0.6546   -1.1363 C   0  0  0  0  0  0  0  0  0  0  0  0
   -4.1711   -0.1282   -1.7682 C   0  0  0  0  0  0  0  0  0  0  0  0
   -4.8816   -1.0194   -0.7980 C   0  0  0  0  0  0  0  0  0  0  0  0
   -6.2671   -0.5204   -0.4540 C   0  0  0  0  0  0  0  0  0  0  0  0
   -4.0417   -1.0445    0.4844 C   0  0  0  0  0  0  0  0  0  0  0  0
   -2.6372   -1.4143    0.0659 C   0  0  0  0  0  0  0  0  0  0  0  0
   -1.6783    1.0438    1.5329 C   0  0  0  0  0  0  0  0  0  0  0  0
   -0.4288    1.4774    2.2740 C   0  0  0  0  0  0  0  0  0  0  0  0
   -0.1423    2.9413    2.0613 C   0  0  0  0  0  0  0  0  0  0  0  0
   -1.2604    3.6294    2.5512 F   0  0  0  0  0  0  0  0  0  0  0  0
    0.9168    3.3503    2.8484 F   0  0  0  0  0  0  0  0  0  0  0  0
    0.0657    3.3036    0.7688 F   0  0  0  0  0  0  0  0  0  0  0  0
    0.5833    0.5885    1.8189 N   0  0  0  0  0  0  0  0  0  0  0  0
    6.3466   -0.8935    0.6151 N   0  0  0  0  0  0  0  0  0  0  0  0
    5.9981    1.4749   -0.6516 O   0  0  0  0  0  0  0  0  0  0  0  0
    5.9905   -0.7309   -2.0701 O   0  0  0  0  0  0  0  0  0  0  0  0
    3.7582    0.3709    0.5863 H   0  0  0  0  0  0  0  0  0  0  0  0
    3.3483    1.3952   -1.7498 H   0  0  0  0  0  0  0  0  0  0  0  0
    2.8772   -0.3387   -2.1972 H   0  0  0  0  0  0  0  0  0  0  0  0
    0.9351    1.0551   -1.4342 H   0  0  0  0  0  0  0  0  0  0  0  0
    1.8333    1.3881    0.0730 H   0  0  0  0  0  0  0  0  0  0  0  0
    0.6243   -1.1854   -0.9940 H   0  0  0  0  0  0  0  0  0  0  0  0
    2.1669   -1.2849    1.6179 H   0  0  0  0  0  0  0  0  0  0  0  0
    1.6439   -2.5893    0.5388 H   0  0  0  0  0  0  0  0  0  0  0  0
    4.0410   -2.1972    0.5343 H   0  0  0  0  0  0  0  0  0  0  0  0
    3.2488   -2.0957   -1.0883 H   0  0  0  0  0  0  0  0  0  0  0  0
   -0.7054    1.4317   -0.2996 H   0  0  0  0  0  0  0  0  0  0  0  0
   -1.3960   -0.6501   -1.4682 H   0  0  0  0  0  0  0  0  0  0  0  0
   -3.4129    1.3780   -0.4028 H   0  0  0  0  0  0  0  0  0  0  0  0
   -2.5865    1.2561   -1.9643 H   0  0  0  0  0  0  0  0  0  0  0  0
   -4.8517    0.5635   -2.2569 H   0  0  0  0  0  0  0  0  0  0  0  0
   -3.6958   -0.7680   -2.5641 H   0  0  0  0  0  0  0  0  0  0  0  0
   -4.9270   -2.0693   -1.1496 H   0  0  0  0  0  0  0  0  0  0  0  0
   -6.1515    0.2705    0.3419 H   0  0  0  0  0  0  0  0  0  0  0  0
   -6.8415   -1.3348    0.0341 H   0  0  0  0  0  0  0  0  0  0  0  0
   -6.7970   -0.1538   -1.3370 H   0  0  0  0  0  0  0  0  0  0  0  0
   -4.1272   -0.0177    0.8931 H   0  0  0  0  0  0  0  0  0  0  0  0
   -4.4494   -1.7971    1.1953 H   0  0  0  0  0  0  0  0  0  0  0  0
   -2.7423   -2.2482   -0.6907 H   0  0  0  0  0  0  0  0  0  0  0  0
   -2.0612   -1.8705    0.8938 H   0  0  0  0  0  0  0  0  0  0  0  0
   -2.1012    0.2106    2.1288 H   0  0  0  0  0  0  0  0  0  0  0  0
   -2.3515    1.8752    1.3569 H   0  0  0  0  0  0  0  0  0  0  0  0
   -0.5950    1.3272    3.3664 H   0  0  0  0  0  0  0  0  0  0  0  0
    0.9458    0.0164    2.5897 H   0  0  0  0  0  0  0  0  0  0  0  0
    6.6670   -1.8254    0.2367 H   0  0  0  0  0  0  0  0  0  0  0  0
    7.1409   -0.2791    0.8588 H   0  0  0  0  0  0  0  0  0  0  0  0
    6.1266    1.6428    0.3317 H   0  0  0  0  0  0  0  0  0  0  0  0
    5.4008   -1.1745   -2.7102 H   0  0  0  0  0  0  0  0  0  0  0  0
    3.7582    0.3709    0.5863 H   0  0  0  0  0  0  0  0  0  0  0  0
    3.3483    1.3952   -1.7498 H   0  0  0  0  0  0  0  0  0  0  0  0
    2.8772   -0.3387   -2.1972 H   0  0  0  0  0  0  0  0  0  0  0  0
    0.9351    1.0551   -1.4342 H   0  0  0  0  0  0  0  0  0  0  0  0
    1.8333    1.3881    0.0730 H   0  0  0  0  0  0  0  0  0  0  0  0
    0.6243   -1.1854   -0.9940 H   0  0  0  0  0  0  0  0  0  0  0  0
    2.1669   -1.2849    1.6179 H   0  0  0  0  0  0  0  0  0  0  0  0
    1.6439   -2.5893    0.5388 H   0  0  0  0  0  0  0  0  0  0  0  0
    4.0410   -2.1972    0.5343 H   0  0  0  0  0  0  0  0  0  0  0  0
    3.2488   -2.0957   -1.0883 H   0  0  0  0  0  0  0  0  0  0  0  0
   -0.7054    1.4317   -0.2996 H   0  0  0  0  0  0  0  0  0  0  0  0
   -1.3960   -0.6501   -1.4682 H   0  0  0  0  0  0  0  0  0  0  0  0
   -3.4129    1.3780   -0.4028 H   0  0  0  0  0  0  0  0  0  0  0  0
   -2.5865    1.2561   -1.9643 H   0  0  0  0  0  0  0  0  0  0  0  0
   -4.8517    0.5635   -2.2569 H   0  0  0  0  0  0  0  0  0  0  0  0
   -3.6958   -0.7680   -2.5641 H   0  0  0  0  0  0  0  0  0  0  0  0
   -4.9270   -2.0693   -1.1496 H   0  0  0  0  0  0  0  0  0  0  0  0
   -6.1515    0.2705    0.3419 H   0  0  0  0  0  0  0  0  0  0  0  0
   -6.8415   -1.3348    0.0341 H   0  0  0  0  0  0  0  0  0  0  0  0
   -6.7970   -0.1538   -1.3370 H   0  0  0  0  0  0  0  0  0  0  0  0
   -4.1272   -0.0177    0.8931 H   0  0  0  0  0  0  0  0  0  0  0  0
   -4.4494   -1.7971    1.1953 H   0  0  0  0  0  0  0  0  0  0  0  0
   -2.7423   -2.2482   -0.6907 H   0  0  0  0  0  0  0  0  0  0  0  0
   -2.0612   -1.8705    0.8938 H   0  0  0  0  0  0  0  0  0  0  0  0
   -2.1012    0.2106    2.1288 H   0  0  0  0  0  0  0  0  0  0  0  0
   -2.3515    1.8752    1.3569 H   0  0  0  0  0  0  0  0  0  0  0  0
   -0.5950    1.3272    3.3664 H   0  0  0  0  0  0  0  0  0  0  0  0
    0.9458    0.0164    2.5897 H   0  0  0  0  0  0  0  0  0  0  0  0
    6.6670   -1.8254    0.2367 H   0  0  0  0  0  0  0  0  0  0  0  0
    7.1409   -0.2791    0.8588 H   0  0  0  0  0  0  0  0  0  0  0  0
    6.1266    1.6428    0.3317 H   0  0  0  0  0  0  0  0  0  0  0  0
    5.4008   -1.1745   -2.7102 H   0  0  0  0  0  0  0  0  0  0  0  0
  1  2  1  0
  2  3  1  0
  3  4  1  0
  4  5  1  0
  5  6  1  0
  2  7  1  0
  6  7  1  0
  5  8  1  0
  8  9  1  0
  9 10  1  0
 10 11  1  0
 11 12  1  0
 12 13  1  0
 13 14  1  0
 13 15  1  0
 10 16  1  0
 15 16  1  0
  9 17  1  0
 17 18  1  0
 18 19  1  0
 19 20  1  0
 19 21  1  0
 19 22  1  0
  8 23  1  0
 18 23  1  0
  1 24  1  0
  1 25  1  0
  1 26  1  0
 27 28  1  0
 28 29  1  0
 29 30  1  0
 30 31  1  0
 31 32  1  0
 28 33  1  0
 32 33  1  0
 31 34  1  0
 34 35  1  0
 35 36  1  0
 36 37  1  0
 37 38  1  0
 38 39  1  0
 39 40  1  0
 39 41  1  0
 36 42  1  0
 41 42  1  0
 35 43  1  0
 43 44  1  0
 44 45  1  0
 45 46  1  0
 45 47  1  0
 45 48  1  0
 34 49  1  0
 44 49  1  0
 27 50  1  0
 27 51  1  0
 27 52  1  0
  2 53  1  0
  3 54  1  0
  3 55  1  0
  4 56  1  0
  4 57  1  0
  5 58  1  0
  6 59  1  0
  6 60  1  0
  7 61  1  0
  7 62  1  0
  9 63  1  0
 10 64  1  0
 11 65  1  0
 11 66  1  0
 12 67  1  0
 12 68  1  0
 13 69  1  0
 14 70  1  0
 14 71  1  0
 14 72  1  0
 15 73  1  0
 15 74  1  0
 16 75  1  0
 16 76  1  0
 17 77  1  0
 17 78  1  0
 18 79  1  0
 23 80  1  0
 24 81  1  0
 24 82  1  0
 25 83  1  0
 26 84  1  0
 28 85  1  0
 29 86  1  0
 29 87  1  0
 30 88  1  0
 30 89  1  0
 31 90  1  0
 32 91  1  0
 32 92  1  0
 33 93  1  0
 33 94  1  0
 35 95  1  0
 36 96  1  0
 37 97  1  0
 37 98  1  0
 38 99  1  0
 38100  1  0
 39101  1  0
 40102  1  0
 40103  1  0
 40104  1  0
 41105  1  0
 41106  1  0
 42107  1  0
 42108  1  0
 43109  1  0
 43110  1  0
 44111  1  0
 49112  1  0
 50113  1  0
 50114  1  0
 51115  1  0
 52116  1  0
M  END
>  <PDBID>  (1) 
5JW1

>  <PDB ID>  (1) 
5JW1

>  <Generic Name>  (1) 
Celecoxib

>  <Brand Name>  (1) 
Accel-celecoxib#Act Celecoxib#Ag-celecoxib#Apo-celecoxib#Auro-celecoxib#Bio-celecoxib#Celebrex#Celecoxib#Celecoxib 100 mg#Celecoxib 200 mg#Celecoxib 400 mg#Celecoxib 50 mg#Dom-celecoxib#Gd-celecoxib#Ipg-celecoxib#Jamp-celecoxib#Lupin-celecoxib#Mar-celecoxib#Mint-celecoxib#Mylan-celecoxib#PMS-celecoxib#Priva-celecoxib#Ran-celecoxib#Rbx-celecoxib#Riva-celecox#Riva-celecoxib#Sandoz Celecoxib#Sdz Celecoxib#Teva-celecoxib#Articox#Articoxib#Artiflex#Artilog#Artix#Artrixib#Blockten#Caditar#Cefinix#Celact#Celebra#Onsenal#Valdyne

>  <DrugBank ID>  (1) 
DB00482

>  <ATC Codes>  (1) 
L01XX33#M01AH01

>  <Ligand ID>  (1) 
CEL

>  <Target Name>  (1) 
Prostaglandin G/H synthase 2

>  <UniProt ID>  (1) 
P35354

>  <PDB ID.1>  (1) 
5JW1

>  <Seq. Identity>  (1) 
85%

$$$$
