PDB_DB04743_00
     RDKit          3D

 96 98  0  0  0  0  0  0  0  0999 V2000
   -1.1618    4.2416   -1.9783 O   0  0  0  0  0  0  0  0  0  0  0  0
   -1.7063    3.9321   -0.7574 N   0  0  0  0  0  0  0  0  0  0  0  0
   -0.8823    4.4604    0.1969 O   0  0  0  0  0  0  0  0  0  0  0  0
   -1.7275    2.4907   -0.6203 C   0  0  0  0  0  0  0  0  0  0  0  0
   -2.3263    2.1562    0.7221 C   0  0  0  0  0  0  0  0  0  0  0  0
   -2.5235    0.6614    0.8070 C   0  0  0  0  0  0  0  0  0  0  0  0
   -1.3447   -0.1188    0.3324 C   0  0  0  0  0  0  0  0  0  0  0  0
   -1.6174   -0.9507   -0.7989 N   0  0  0  0  0  0  0  0  0  0  0  0
   -2.6651   -2.0840   -0.7322 S   0  0  0  0  0  0  0  0  0  0  0  0
   -2.6020   -3.3134   -1.6033 O   0  0  0  0  0  0  0  0  0  0  0  0
   -4.1732   -1.1878   -1.3367 O   0  0  0  0  0  0  0  0  0  0  0  0
   -3.2753   -2.4688    0.8333 C   0  0  0  0  0  0  0  0  0  0  0  0
   -0.3082    1.9861   -0.6125 C   0  0  0  0  0  0  0  0  0  0  0  0
   -0.1038    0.7293    0.1575 C   0  0  0  0  0  0  0  0  0  0  0  0
    0.8988   -0.0051   -0.4312 O   0  0  0  0  0  0  0  0  0  0  0  0
    2.0013   -0.2134    0.3645 C   0  0  0  0  0  0  0  0  0  0  0  0
    3.1977    0.4139   -0.3178 C   0  0  0  0  0  0  0  0  0  0  0  0
    4.5042   -0.0258    0.2940 C   0  0  0  0  0  0  0  0  0  0  0  0
    4.6191   -1.5020    0.4722 C   0  0  0  0  0  0  0  0  0  0  0  0
    3.4562   -2.1606   -0.2380 C   0  0  0  0  0  0  0  0  0  0  0  0
    2.1957   -1.7171    0.5150 C   0  0  0  0  0  0  0  0  0  0  0  0
   -1.1618    4.2416   -1.9783 O   0  0  0  0  0  0  0  0  0  0  0  0
   -1.7063    3.9321   -0.7574 N   0  0  0  0  0  0  0  0  0  0  0  0
   -0.8823    4.4604    0.1969 O   0  0  0  0  0  0  0  0  0  0  0  0
   -1.7275    2.4907   -0.6203 C   0  0  0  0  0  0  0  0  0  0  0  0
   -2.3263    2.1562    0.7221 C   0  0  0  0  0  0  0  0  0  0  0  0
   -2.5235    0.6614    0.8070 C   0  0  0  0  0  0  0  0  0  0  0  0
   -1.3447   -0.1188    0.3324 C   0  0  0  0  0  0  0  0  0  0  0  0
   -1.6174   -0.9507   -0.7989 N   0  0  0  0  0  0  0  0  0  0  0  0
   -2.6651   -2.0840   -0.7322 S   0  0  0  0  0  0  0  0  0  0  0  0
   -2.6020   -3.3134   -1.6033 O   0  0  0  0  0  0  0  0  0  0  0  0
   -4.1732   -1.1878   -1.3367 O   0  0  0  0  0  0  0  0  0  0  0  0
   -3.2753   -2.4688    0.8333 C   0  0  0  0  0  0  0  0  0  0  0  0
   -0.3082    1.9861   -0.6125 C   0  0  0  0  0  0  0  0  0  0  0  0
   -0.1038    0.7293    0.1575 C   0  0  0  0  0  0  0  0  0  0  0  0
    0.8988   -0.0051   -0.4312 O   0  0  0  0  0  0  0  0  0  0  0  0
    2.0013   -0.2134    0.3645 C   0  0  0  0  0  0  0  0  0  0  0  0
    3.1977    0.4139   -0.3178 C   0  0  0  0  0  0  0  0  0  0  0  0
    4.5042   -0.0258    0.2940 C   0  0  0  0  0  0  0  0  0  0  0  0
    4.6191   -1.5020    0.4722 C   0  0  0  0  0  0  0  0  0  0  0  0
    3.4562   -2.1606   -0.2380 C   0  0  0  0  0  0  0  0  0  0  0  0
    2.1957   -1.7171    0.5150 C   0  0  0  0  0  0  0  0  0  0  0  0
   -1.1457    5.3854    0.3821 H   0  0  0  0  0  0  0  0  0  0  0  0
   -2.3181    2.0993   -1.4658 H   0  0  0  0  0  0  0  0  0  0  0  0
   -3.2471    2.7050    0.9103 H   0  0  0  0  0  0  0  0  0  0  0  0
   -1.5851    2.4412    1.4967 H   0  0  0  0  0  0  0  0  0  0  0  0
   -2.8268    0.4303    1.8310 H   0  0  0  0  0  0  0  0  0  0  0  0
   -3.4045    0.4475    0.1364 H   0  0  0  0  0  0  0  0  0  0  0  0
   -1.0817   -0.8313    1.1743 H   0  0  0  0  0  0  0  0  0  0  0  0
   -1.6224   -0.3559   -1.6587 H   0  0  0  0  0  0  0  0  0  0  0  0
   -2.4321   -4.1834   -1.2078 H   0  0  0  0  0  0  0  0  0  0  0  0
   -4.0409   -1.2961   -2.3306 H   0  0  0  0  0  0  0  0  0  0  0  0
   -3.8733   -1.6377    1.2159 H   0  0  0  0  0  0  0  0  0  0  0  0
   -2.4643   -2.7035    1.5552 H   0  0  0  0  0  0  0  0  0  0  0  0
   -3.8985   -3.4104    0.7919 H   0  0  0  0  0  0  0  0  0  0  0  0
    0.2980    2.8078   -0.1403 H   0  0  0  0  0  0  0  0  0  0  0  0
   -0.0120    1.8626   -1.6853 H   0  0  0  0  0  0  0  0  0  0  0  0
    0.2559    0.9852    1.1973 H   0  0  0  0  0  0  0  0  0  0  0  0
    1.8748    0.2617    1.3597 H   0  0  0  0  0  0  0  0  0  0  0  0
    3.1243    1.5134   -0.1510 H   0  0  0  0  0  0  0  0  0  0  0  0
    3.1933    0.1999   -1.3984 H   0  0  0  0  0  0  0  0  0  0  0  0
    5.3113    0.3607   -0.3710 H   0  0  0  0  0  0  0  0  0  0  0  0
    4.6715    0.4811    1.2826 H   0  0  0  0  0  0  0  0  0  0  0  0
    4.5125   -1.7522    1.5488 H   0  0  0  0  0  0  0  0  0  0  0  0
    5.5966   -1.8326    0.0665 H   0  0  0  0  0  0  0  0  0  0  0  0
    3.3850   -1.8343   -1.3021 H   0  0  0  0  0  0  0  0  0  0  0  0
    3.5316   -3.2450   -0.1548 H   0  0  0  0  0  0  0  0  0  0  0  0
    2.3781   -1.9415    1.5712 H   0  0  0  0  0  0  0  0  0  0  0  0
    1.3640   -2.2815    0.0776 H   0  0  0  0  0  0  0  0  0  0  0  0
   -1.1457    5.3854    0.3821 H   0  0  0  0  0  0  0  0  0  0  0  0
   -2.3181    2.0993   -1.4658 H   0  0  0  0  0  0  0  0  0  0  0  0
   -3.2471    2.7050    0.9103 H   0  0  0  0  0  0  0  0  0  0  0  0
   -1.5851    2.4412    1.4967 H   0  0  0  0  0  0  0  0  0  0  0  0
   -2.8268    0.4303    1.8310 H   0  0  0  0  0  0  0  0  0  0  0  0
   -3.4045    0.4475    0.1364 H   0  0  0  0  0  0  0  0  0  0  0  0
   -1.0817   -0.8313    1.1743 H   0  0  0  0  0  0  0  0  0  0  0  0
   -1.6224   -0.3559   -1.6587 H   0  0  0  0  0  0  0  0  0  0  0  0
   -2.4321   -4.1834   -1.2078 H   0  0  0  0  0  0  0  0  0  0  0  0
   -4.0409   -1.2961   -2.3306 H   0  0  0  0  0  0  0  0  0  0  0  0
   -3.8733   -1.6377    1.2159 H   0  0  0  0  0  0  0  0  0  0  0  0
   -2.4643   -2.7035    1.5552 H   0  0  0  0  0  0  0  0  0  0  0  0
   -3.8985   -3.4104    0.7919 H   0  0  0  0  0  0  0  0  0  0  0  0
    0.2980    2.8078   -0.1403 H   0  0  0  0  0  0  0  0  0  0  0  0
   -0.0120    1.8626   -1.6853 H   0  0  0  0  0  0  0  0  0  0  0  0
    0.2559    0.9852    1.1973 H   0  0  0  0  0  0  0  0  0  0  0  0
    1.8748    0.2617    1.3597 H   0  0  0  0  0  0  0  0  0  0  0  0
    3.1243    1.5134   -0.1510 H   0  0  0  0  0  0  0  0  0  0  0  0
    3.1933    0.1999   -1.3984 H   0  0  0  0  0  0  0  0  0  0  0  0
    5.3113    0.3607   -0.3710 H   0  0  0  0  0  0  0  0  0  0  0  0
    4.6715    0.4811    1.2826 H   0  0  0  0  0  0  0  0  0  0  0  0
    4.5125   -1.7522    1.5488 H   0  0  0  0  0  0  0  0  0  0  0  0
    5.5966   -1.8326    0.0665 H   0  0  0  0  0  0  0  0  0  0  0  0
    3.3850   -1.8343   -1.3021 H   0  0  0  0  0  0  0  0  0  0  0  0
    3.5316   -3.2450   -0.1548 H   0  0  0  0  0  0  0  0  0  0  0  0
    2.3781   -1.9415    1.5712 H   0  0  0  0  0  0  0  0  0  0  0  0
    1.3640   -2.2815    0.0776 H   0  0  0  0  0  0  0  0  0  0  0  0
  1  2  1  0
  2  3  1  0
  2  4  1  0
  4  5  1  0
  5  6  1  0
  6  7  1  0
  7  8  1  0
  8  9  1  0
  9 10  1  0
  9 11  1  0
  9 12  1  0
  4 13  1  0
  7 14  1  0
 13 14  1  0
 14 15  1  0
 15 16  1  0
 16 17  1  0
 17 18  1  0
 18 19  1  0
 19 20  1  0
 16 21  1  0
 20 21  1  0
 22 23  1  0
 23 24  1  0
 23 25  1  0
 25 26  1  0
 26 27  1  0
 27 28  1  0
 28 29  1  0
 29 30  1  0
 30 31  1  0
 30 32  1  0
 30 33  1  0
 25 34  1  0
 28 35  1  0
 34 35  1  0
 35 36  1  0
 36 37  1  0
 37 38  1  0
 38 39  1  0
 39 40  1  0
 40 41  1  0
 37 42  1  0
 41 42  1  0
  3 43  1  0
  4 44  1  0
  5 45  1  0
  5 46  1  0
  6 47  1  0
  6 48  1  0
  7 49  1  0
  8 50  1  0
 10 51  1  0
 11 52  1  0
 12 53  1  0
 12 54  1  0
 12 55  1  0
 13 56  1  0
 13 57  1  0
 14 58  1  0
 16 59  1  0
 17 60  1  0
 17 61  1  0
 18 62  1  0
 18 63  1  0
 19 64  1  0
 19 65  1  0
 20 66  1  0
 20 67  1  0
 21 68  1  0
 21 69  1  0
 24 70  1  0
 25 71  1  0
 26 72  1  0
 26 73  1  0
 27 74  1  0
 27 75  1  0
 28 76  1  0
 29 77  1  0
 31 78  1  0
 32 79  1  0
 33 80  1  0
 33 81  1  0
 33 82  1  0
 34 83  1  0
 34 84  1  0
 35 85  1  0
 37 86  1  0
 38 87  1  0
 38 88  1  0
 39 89  1  0
 39 90  1  0
 40 91  1  0
 40 92  1  0
 41 93  1  0
 41 94  1  0
 42 95  1  0
 42 96  1  0
M  CHG  2   1  -1  22  -1
M  END
>  <PDBID>  (1) 
3N8X

>  <PDB ID>  (1) 
3N8X

>  <Generic Name>  (1) 
Nimesulide

>  <Brand Name>  (1) 
Ainex#Aulin#Coxtal#Eskaflam#Mesulid#Nilsid#Nimalox#Nimside#Nise#Octaprin#Sintalgin#Sulide

>  <DrugBank ID>  (1) 
DB04743

>  <ATC Codes>  (1) 
M02AA26#M01AX17

>  <Ligand ID>  (1) 
NIM

>  <Target Name>  (1) 
Prostaglandin G/H synthase 2

>  <UniProt ID>  (1) 
P35354

>  <PDB ID.1>  (1) 
3N8X

>  <Seq. Identity>  (1) 
61%

$$$$
