PDB_DB08916_09
     RDKit          3D

158164  0  0  0  0  0  0  0  0999 V2000
    3.7700    1.0693    2.1315 C   0  0  0  0  0  0  0  0  0  0  0  0
    3.3891   -0.2830    2.1345 N   0  0  0  0  0  0  0  0  0  0  0  0
    3.2513    1.9356    1.1313 N   0  0  0  0  0  0  0  0  0  0  0  0
    2.3680   -0.6803    1.1684 C   0  0  0  0  0  0  0  0  0  0  0  0
    1.8350    1.7988    1.1082 C   0  0  0  0  0  0  0  0  0  0  0  0
    1.3816    0.3947    1.0554 C   0  0  0  0  0  0  0  0  0  0  0  0
   -0.8241    1.0929    0.3281 C   0  0  0  0  0  0  0  0  0  0  0  0
    0.2835    0.1463    0.0054 C   0  0  0  0  0  0  0  0  0  0  0  0
   -0.3551    2.5333    0.3648 C   0  0  0  0  0  0  0  0  0  0  0  0
    1.1260    2.5536    0.0014 C   0  0  0  0  0  0  0  0  0  0  0  0
    2.9917   -1.2372    0.0353 N   0  0  0  0  0  0  0  0  0  0  0  0
    5.5982   -2.6911   -1.6615 C   0  0  0  0  0  0  0  0  0  0  0  0
    5.0276   -3.8473   -0.9062 C   0  0  0  0  0  0  0  0  0  0  0  0
    4.9063   -1.3877   -1.4804 C   0  0  0  0  0  0  0  0  0  0  0  0
    4.7477   -3.5322    0.5335 C   0  0  0  0  0  0  0  0  0  0  0  0
    4.4098   -1.1268   -0.0730 C   0  0  0  0  0  0  0  0  0  0  0  0
    5.1133   -2.1123    0.8506 C   0  0  0  0  0  0  0  0  0  0  0  0
    3.9079   -4.3491   -1.5440 F   0  0  0  0  0  0  0  0  0  0  0  0
    7.3753   -2.5753   -1.4717 Cl  0  0  0  0  0  0  0  0  0  0  0  0
   -0.9935    3.3844   -0.5298 O   0  0  0  0  0  0  0  0  0  0  0  0
   -1.6292    4.4375    0.0730 C   0  0  2  0  0  0  0  0  0  0  0  0
   -3.0037    4.6264   -0.4781 C   0  0  0  0  0  0  0  0  0  0  0  0
   -2.7622    5.3832   -1.6505 O   0  0  0  0  0  0  0  0  0  0  0  0
   -1.9717    6.4223   -1.2224 C   0  0  0  0  0  0  0  0  0  0  0  0
   -0.9799    5.7757   -0.2870 C   0  0  0  0  0  0  0  0  0  0  0  0
   -2.0511    0.9346   -0.3060 N   0  0  0  0  0  0  0  0  0  0  0  0
   -2.8409   -0.1982   -0.2038 C   0  0  0  0  0  0  0  0  0  0  0  0
   -2.4584   -1.4025   -0.9574 C   0  0  0  0  0  0  0  0  0  0  0  0
   -3.1954   -0.5051    1.1428 O   0  0  0  0  0  0  0  0  0  0  0  0
   -3.3901   -2.5741   -0.6334 C   0  0  0  0  0  0  0  0  0  0  0  0
   -4.8278   -2.2766   -0.8725 C   0  0  0  0  0  0  0  0  0  0  0  0
   -5.6221   -3.4737   -0.4840 N   0  0  0  0  0  0  0  0  0  0  0  0
   -5.4721   -3.5936    0.9674 C   0  0  0  0  0  0  0  0  0  0  0  0
   -7.0248   -3.1404   -0.7203 C   0  0  0  0  0  0  0  0  0  0  0  0
    3.7700    1.0693    2.1315 C   0  0  0  0  0  0  0  0  0  0  0  0
    3.3891   -0.2830    2.1345 N   0  0  0  0  0  0  0  0  0  0  0  0
    3.2513    1.9356    1.1313 N   0  0  0  0  0  0  0  0  0  0  0  0
    2.3680   -0.6803    1.1684 C   0  0  0  0  0  0  0  0  0  0  0  0
    1.8350    1.7988    1.1082 C   0  0  0  0  0  0  0  0  0  0  0  0
    1.3816    0.3947    1.0554 C   0  0  0  0  0  0  0  0  0  0  0  0
   -0.8241    1.0929    0.3281 C   0  0  0  0  0  0  0  0  0  0  0  0
    0.2835    0.1463    0.0054 C   0  0  0  0  0  0  0  0  0  0  0  0
   -0.3551    2.5333    0.3648 C   0  0  0  0  0  0  0  0  0  0  0  0
    1.1260    2.5536    0.0014 C   0  0  0  0  0  0  0  0  0  0  0  0
    2.9917   -1.2372    0.0353 N   0  0  0  0  0  0  0  0  0  0  0  0
    5.5982   -2.6911   -1.6615 C   0  0  0  0  0  0  0  0  0  0  0  0
    5.0276   -3.8473   -0.9062 C   0  0  0  0  0  0  0  0  0  0  0  0
    4.9063   -1.3877   -1.4804 C   0  0  0  0  0  0  0  0  0  0  0  0
    4.7477   -3.5322    0.5335 C   0  0  0  0  0  0  0  0  0  0  0  0
    4.4098   -1.1268   -0.0730 C   0  0  0  0  0  0  0  0  0  0  0  0
    5.1133   -2.1123    0.8506 C   0  0  0  0  0  0  0  0  0  0  0  0
    3.9079   -4.3491   -1.5440 F   0  0  0  0  0  0  0  0  0  0  0  0
    7.3753   -2.5753   -1.4717 Cl  0  0  0  0  0  0  0  0  0  0  0  0
   -0.9935    3.3844   -0.5298 O   0  0  0  0  0  0  0  0  0  0  0  0
   -1.6292    4.4375    0.0730 C   0  0  2  0  0  0  0  0  0  0  0  0
   -3.0037    4.6264   -0.4781 C   0  0  0  0  0  0  0  0  0  0  0  0
   -2.7622    5.3832   -1.6505 O   0  0  0  0  0  0  0  0  0  0  0  0
   -1.9717    6.4223   -1.2224 C   0  0  0  0  0  0  0  0  0  0  0  0
   -0.9799    5.7757   -0.2870 C   0  0  0  0  0  0  0  0  0  0  0  0
   -2.0511    0.9346   -0.3060 N   0  0  0  0  0  0  0  0  0  0  0  0
   -2.8409   -0.1982   -0.2038 C   0  0  0  0  0  0  0  0  0  0  0  0
   -2.4584   -1.4025   -0.9574 C   0  0  0  0  0  0  0  0  0  0  0  0
   -3.1954   -0.5051    1.1428 O   0  0  0  0  0  0  0  0  0  0  0  0
   -3.3901   -2.5741   -0.6334 C   0  0  0  0  0  0  0  0  0  0  0  0
   -4.8278   -2.2766   -0.8725 C   0  0  0  0  0  0  0  0  0  0  0  0
   -5.6221   -3.4737   -0.4840 N   0  0  0  0  0  0  0  0  0  0  0  0
   -5.4721   -3.5936    0.9674 C   0  0  0  0  0  0  0  0  0  0  0  0
   -7.0248   -3.1404   -0.7203 C   0  0  0  0  0  0  0  0  0  0  0  0
    3.4331    1.5191    3.1243 H   0  0  0  0  0  0  0  0  0  0  0  0
    4.9005    1.1971    2.2022 H   0  0  0  0  0  0  0  0  0  0  0  0
    3.1090   -0.6136    3.0921 H   0  0  0  0  0  0  0  0  0  0  0  0
    3.7443    2.0072    0.2447 H   0  0  0  0  0  0  0  0  0  0  0  0
    1.8518   -1.5663    1.6781 H   0  0  0  0  0  0  0  0  0  0  0  0
    1.4839    2.3414    2.0527 H   0  0  0  0  0  0  0  0  0  0  0  0
    0.7390    0.2844    2.0236 H   0  0  0  0  0  0  0  0  0  0  0  0
   -1.0237    0.8483    1.4567 H   0  0  0  0  0  0  0  0  0  0  0  0
   -0.0357   -0.8983    0.2820 H   0  0  0  0  0  0  0  0  0  0  0  0
    0.6018    0.1943   -1.0094 H   0  0  0  0  0  0  0  0  0  0  0  0
   -0.4770    2.9259    1.4063 H   0  0  0  0  0  0  0  0  0  0  0  0
    1.5339    3.5882   -0.0610 H   0  0  0  0  0  0  0  0  0  0  0  0
    1.2814    2.1053   -1.0037 H   0  0  0  0  0  0  0  0  0  0  0  0
    2.4948   -1.1525   -0.8753 H   0  0  0  0  0  0  0  0  0  0  0  0
    5.4715   -2.9586   -2.7592 H   0  0  0  0  0  0  0  0  0  0  0  0
    5.7984   -4.6628   -0.9242 H   0  0  0  0  0  0  0  0  0  0  0  0
    5.6637   -0.6007   -1.7694 H   0  0  0  0  0  0  0  0  0  0  0  0
    4.0673   -1.2547   -2.2012 H   0  0  0  0  0  0  0  0  0  0  0  0
    5.2920   -4.1842    1.2325 H   0  0  0  0  0  0  0  0  0  0  0  0
    3.6654   -3.7001    0.7627 H   0  0  0  0  0  0  0  0  0  0  0  0
    4.7534   -0.1352    0.2203 H   0  0  0  0  0  0  0  0  0  0  0  0
    6.2132   -1.9643    0.6834 H   0  0  0  0  0  0  0  0  0  0  0  0
    4.9483   -1.9119    1.8968 H   0  0  0  0  0  0  0  0  0  0  0  0
   -1.6254    4.3164    1.1730 H   0  0  0  0  0  0  0  0  0  0  0  0
   -3.6225    5.3238    0.1596 H   0  0  0  0  0  0  0  0  0  0  0  0
   -3.5537    3.6962   -0.7103 H   0  0  0  0  0  0  0  0  0  0  0  0
   -2.5257    7.2607   -0.7351 H   0  0  0  0  0  0  0  0  0  0  0  0
   -1.4643    6.9114   -2.0980 H   0  0  0  0  0  0  0  0  0  0  0  0
   -0.9154    6.3925    0.6272 H   0  0  0  0  0  0  0  0  0  0  0  0
   -0.0316    5.6595   -0.8245 H   0  0  0  0  0  0  0  0  0  0  0  0
   -2.3102    1.6018   -1.0450 H   0  0  0  0  0  0  0  0  0  0  0  0
   -3.8773    0.0929   -0.6278 H   0  0  0  0  0  0  0  0  0  0  0  0
   -2.6630   -1.2408   -2.0778 H   0  0  0  0  0  0  0  0  0  0  0  0
   -1.4668   -1.7746   -0.8565 H   0  0  0  0  0  0  0  0  0  0  0  0
   -2.5939   -1.1968    1.5307 H   0  0  0  0  0  0  0  0  0  0  0  0
   -3.1759   -2.9787    0.3624 H   0  0  0  0  0  0  0  0  0  0  0  0
   -3.0657   -3.3873   -1.3511 H   0  0  0  0  0  0  0  0  0  0  0  0
   -5.0463   -2.0062   -1.9010 H   0  0  0  0  0  0  0  0  0  0  0  0
   -5.2052   -1.4687   -0.1830 H   0  0  0  0  0  0  0  0  0  0  0  0
   -6.4550   -3.5938    1.4695 H   0  0  0  0  0  0  0  0  0  0  0  0
   -4.9331   -4.5452    1.2101 H   0  0  0  0  0  0  0  0  0  0  0  0
   -4.9125   -2.7249    1.3765 H   0  0  0  0  0  0  0  0  0  0  0  0
   -7.4396   -2.7124    0.2392 H   0  0  0  0  0  0  0  0  0  0  0  0
   -7.1566   -2.4533   -1.5698 H   0  0  0  0  0  0  0  0  0  0  0  0
   -7.5503   -4.0823   -0.9384 H   0  0  0  0  0  0  0  0  0  0  0  0
    3.4331    1.5191    3.1243 H   0  0  0  0  0  0  0  0  0  0  0  0
    4.9005    1.1971    2.2022 H   0  0  0  0  0  0  0  0  0  0  0  0
    3.1090   -0.6136    3.0921 H   0  0  0  0  0  0  0  0  0  0  0  0
    3.7443    2.0072    0.2447 H   0  0  0  0  0  0  0  0  0  0  0  0
    1.8518   -1.5663    1.6781 H   0  0  0  0  0  0  0  0  0  0  0  0
    1.4839    2.3414    2.0527 H   0  0  0  0  0  0  0  0  0  0  0  0
    0.7390    0.2844    2.0236 H   0  0  0  0  0  0  0  0  0  0  0  0
   -1.0237    0.8483    1.4567 H   0  0  0  0  0  0  0  0  0  0  0  0
   -0.0357   -0.8983    0.2820 H   0  0  0  0  0  0  0  0  0  0  0  0
    0.6018    0.1943   -1.0094 H   0  0  0  0  0  0  0  0  0  0  0  0
   -0.4770    2.9259    1.4063 H   0  0  0  0  0  0  0  0  0  0  0  0
    1.5339    3.5882   -0.0610 H   0  0  0  0  0  0  0  0  0  0  0  0
    1.2814    2.1053   -1.0037 H   0  0  0  0  0  0  0  0  0  0  0  0
    2.4948   -1.1525   -0.8753 H   0  0  0  0  0  0  0  0  0  0  0  0
    5.4715   -2.9586   -2.7592 H   0  0  0  0  0  0  0  0  0  0  0  0
    5.7984   -4.6628   -0.9242 H   0  0  0  0  0  0  0  0  0  0  0  0
    5.6637   -0.6007   -1.7694 H   0  0  0  0  0  0  0  0  0  0  0  0
    4.0673   -1.2547   -2.2012 H   0  0  0  0  0  0  0  0  0  0  0  0
    5.2920   -4.1842    1.2325 H   0  0  0  0  0  0  0  0  0  0  0  0
    3.6654   -3.7001    0.7627 H   0  0  0  0  0  0  0  0  0  0  0  0
    4.7534   -0.1352    0.2203 H   0  0  0  0  0  0  0  0  0  0  0  0
    6.2132   -1.9643    0.6834 H   0  0  0  0  0  0  0  0  0  0  0  0
    4.9483   -1.9119    1.8968 H   0  0  0  0  0  0  0  0  0  0  0  0
   -1.6254    4.3164    1.1730 H   0  0  0  0  0  0  0  0  0  0  0  0
   -3.6225    5.3238    0.1596 H   0  0  0  0  0  0  0  0  0  0  0  0
   -3.5537    3.6962   -0.7103 H   0  0  0  0  0  0  0  0  0  0  0  0
   -2.5257    7.2607   -0.7351 H   0  0  0  0  0  0  0  0  0  0  0  0
   -1.4643    6.9114   -2.0980 H   0  0  0  0  0  0  0  0  0  0  0  0
   -0.9154    6.3925    0.6272 H   0  0  0  0  0  0  0  0  0  0  0  0
   -0.0316    5.6595   -0.8245 H   0  0  0  0  0  0  0  0  0  0  0  0
   -2.3102    1.6018   -1.0450 H   0  0  0  0  0  0  0  0  0  0  0  0
   -3.8773    0.0929   -0.6278 H   0  0  0  0  0  0  0  0  0  0  0  0
   -2.6630   -1.2408   -2.0778 H   0  0  0  0  0  0  0  0  0  0  0  0
   -1.4668   -1.7746   -0.8565 H   0  0  0  0  0  0  0  0  0  0  0  0
   -2.5939   -1.1968    1.5307 H   0  0  0  0  0  0  0  0  0  0  0  0
   -3.1759   -2.9787    0.3624 H   0  0  0  0  0  0  0  0  0  0  0  0
   -3.0657   -3.3873   -1.3511 H   0  0  0  0  0  0  0  0  0  0  0  0
   -5.0463   -2.0062   -1.9010 H   0  0  0  0  0  0  0  0  0  0  0  0
   -5.2052   -1.4687   -0.1830 H   0  0  0  0  0  0  0  0  0  0  0  0
   -6.4550   -3.5938    1.4695 H   0  0  0  0  0  0  0  0  0  0  0  0
   -4.9331   -4.5452    1.2101 H   0  0  0  0  0  0  0  0  0  0  0  0
   -4.9125   -2.7249    1.3765 H   0  0  0  0  0  0  0  0  0  0  0  0
   -7.4396   -2.7124    0.2392 H   0  0  0  0  0  0  0  0  0  0  0  0
   -7.1566   -2.4533   -1.5698 H   0  0  0  0  0  0  0  0  0  0  0  0
   -7.5503   -4.0823   -0.9384 H   0  0  0  0  0  0  0  0  0  0  0  0
  1  2  1  0
  1  3  1  0
  2  4  1  0
  3  5  1  0
  4  6  1  0
  5  6  1  0
  6  8  1  0
  7  8  1  0
  7  9  1  0
  5 10  1  0
  9 10  1  0
  4 11  1  0
 12 13  1  0
 12 14  1  0
 13 15  1  0
 11 16  1  0
 14 16  1  0
 15 17  1  0
 16 17  1  0
 13 18  1  0
 12 19  1  0
  9 20  1  0
 20 21  1  0
 21 22  1  0
 22 23  1  0
 23 24  1  0
 21 25  1  0
 24 25  1  0
  7 26  1  0
 26 27  1  0
 27 28  1  0
 27 29  1  0
 28 30  1  0
 30 31  1  0
 31 32  1  0
 32 33  1  0
 32 34  1  0
 35 36  1  0
 35 37  1  0
 36 38  1  0
 37 39  1  0
 38 40  1  0
 39 40  1  0
 40 42  1  0
 41 42  1  0
 41 43  1  0
 39 44  1  0
 43 44  1  0
 38 45  1  0
 46 47  1  0
 46 48  1  0
 47 49  1  0
 45 50  1  0
 48 50  1  0
 49 51  1  0
 50 51  1  0
 47 52  1  0
 46 53  1  0
 43 54  1  0
 54 55  1  0
 55 56  1  0
 56 57  1  0
 57 58  1  0
 55 59  1  0
 58 59  1  0
 41 60  1  0
 60 61  1  0
 61 62  1  0
 61 63  1  0
 62 64  1  0
 64 65  1  0
 65 66  1  0
 66 67  1  0
 66 68  1  0
  1 69  1  0
  1 70  1  0
  2 71  1  0
  3 72  1  0
  4 73  1  0
  5 74  1  0
  6 75  1  0
  7 76  1  0
  8 77  1  0
  8 78  1  0
  9 79  1  0
 10 80  1  0
 10 81  1  0
 11 82  1  0
 12 83  1  0
 13 84  1  0
 14 85  1  0
 14 86  1  0
 15 87  1  0
 15 88  1  0
 16 89  1  0
 17 90  1  0
 17 91  1  0
 21 92  1  1
 22 93  1  0
 22 94  1  0
 24 95  1  0
 24 96  1  0
 25 97  1  0
 25 98  1  0
 26 99  1  0
 27100  1  0
 28101  1  0
 28102  1  0
 29103  1  0
 30104  1  0
 30105  1  0
 31106  1  0
 31107  1  0
 33108  1  0
 33109  1  0
 33110  1  0
 34111  1  0
 34112  1  0
 34113  1  0
 35114  1  0
 35115  1  0
 36116  1  0
 37117  1  0
 38118  1  0
 39119  1  0
 40120  1  0
 41121  1  0
 42122  1  0
 42123  1  0
 43124  1  0
 44125  1  0
 44126  1  0
 45127  1  0
 46128  1  0
 47129  1  0
 48130  1  0
 48131  1  0
 49132  1  0
 49133  1  0
 50134  1  0
 51135  1  0
 51136  1  0
 55137  1  1
 56138  1  0
 56139  1  0
 58140  1  0
 58141  1  0
 59142  1  0
 59143  1  0
 60144  1  0
 61145  1  0
 62146  1  0
 62147  1  0
 63148  1  0
 64149  1  0
 64150  1  0
 65151  1  0
 65152  1  0
 67153  1  0
 67154  1  0
 67155  1  0
 68156  1  0
 68157  1  0
 68158  1  0
M  END
>  <PDBID>  (1) 
4G5J

>  <PDB ID>  (1) 
4G5J

>  <Generic Name>  (1) 
Afatinib

>  <Brand Name>  (1) 
Gilotrif#Giotrif

>  <DrugBank ID>  (1) 
DB08916

>  <ATC Codes>  (1) 
L01XE13

>  <Ligand ID>  (1) 
0WM

>  <Target Name>  (1) 
Receptor tyrosine-protein kinase erbB-2

>  <UniProt ID>  (1) 
P04626

>  <PDB ID.1>  (1) 
4G5J

>  <Seq. Identity>  (1) 
78%

$$$$
