PDB_DB00218_01
     RDKit          3D

390414  0  0  0  0  0  0  0  0999 V2000
    1.4678    0.9490    2.3698 F   0  0  0  0  0  0  0  0  0  0  0  0
   -0.0569   -0.0858   -2.0202 O   0  0  0  0  0  0  0  0  0  0  0  0
   -3.8224    2.5883    0.7876 O   0  0  0  0  0  0  0  0  0  0  0  0
   -5.1158    0.7308    3.3003 O   0  0  0  0  0  0  0  0  0  0  0  0
   -5.4962   -1.2555    2.3275 O   0  0  0  0  0  0  0  0  0  0  0  0
    1.8793   -0.3234   -0.2380 N   0  0  0  0  0  0  0  0  0  0  0  0
    4.8419    0.9192   -0.9272 N   0  0  0  0  0  0  0  0  0  0  0  0
   -2.6903   -0.2119   -0.6911 N   0  0  0  0  0  0  0  0  0  0  0  0
    4.0038   -1.1754    0.0566 C   0  0  2  0  0  0  0  0  0  0  0  0
    4.0977   -0.2967   -1.1531 C   0  0  1  0  0  0  0  0  0  0  0  0
    2.8649   -0.4512    0.8000 C   0  0  0  0  0  0  0  0  0  0  0  0
    2.6329    0.0156   -1.4157 C   0  0  0  0  0  0  0  0  0  0  0  0
    5.2459   -1.2551    0.8771 C   0  0  0  0  0  0  0  0  0  0  0  0
   -2.6545   -1.1970   -1.7231 C   0  0  0  0  0  0  0  0  0  0  0  0
    5.9017    0.0978    1.0578 C   0  0  0  0  0  0  0  0  0  0  0  0
   -3.9517   -1.7001   -2.2404 C   0  0  0  0  0  0  0  0  0  0  0  0
   -3.2491   -0.7207   -3.0908 C   0  0  0  0  0  0  0  0  0  0  0  0
    6.1201    0.6479   -0.3505 C   0  0  0  0  0  0  0  0  0  0  0  0
    0.8621    0.6582    0.0832 C   0  0  1  0  0  0  0  0  0  0  0  0
   -1.4959    0.1745   -0.0723 C   0  0  1  0  0  0  0  0  0  0  0  0
   -0.3135    0.5838   -0.8607 C   0  0  2  0  0  0  0  0  0  0  0  0
   -1.7883    1.3396    0.8563 C   0  0  0  0  0  0  0  0  0  0  0  0
    0.4594    0.4569    1.5191 C   0  0  0  0  0  0  0  0  0  0  0  0
   -3.4814   -0.8310    0.3955 C   0  0  0  0  0  0  0  0  0  0  0  0
   -0.7541    1.2421    1.9487 C   0  0  0  0  0  0  0  0  0  0  0  0
   -4.0722    0.3013    1.1646 C   0  0  2  0  0  0  0  0  0  0  0  0
   -3.1700    1.4542    1.3330 C   0  0  0  0  0  0  0  0  0  0  0  0
   -4.5453   -0.2609    2.5075 C   0  0  0  0  0  0  0  0  0  0  0  0
   -0.0724    0.7299   -3.1675 C   0  0  0  0  0  0  0  0  0  0  0  0
    1.1584    1.4157    2.4876 F   0  0  0  0  0  0  0  0  0  0  0  0
    0.1522    1.0950   -2.1325 O   0  0  0  0  0  0  0  0  0  0  0  0
   -4.4314    1.6777    1.1137 O   0  0  0  0  0  0  0  0  0  0  0  0
   -4.7697   -0.5435    3.1626 O   0  0  0  0  0  0  0  0  0  0  0  0
   -4.2132   -2.4882    2.1436 O   0  0  0  0  0  0  0  0  0  0  0  0
    1.3800   -0.3669   -0.1710 N   0  0  0  0  0  0  0  0  0  0  0  0
    4.6467    0.1474   -1.0067 N   0  0  0  0  0  0  0  0  0  0  0  0
   -1.8755   -0.4696   -0.7075 N   0  0  0  0  0  0  0  0  0  0  0  0
    3.3807   -1.5241    0.2830 C   0  0  2  0  0  0  0  0  0  0  0  0
    3.5827   -0.7991   -0.9908 C   0  0  1  0  0  0  0  0  0  0  0  0
    2.2475   -0.7534    0.9315 C   0  0  0  0  0  0  0  0  0  0  0  0
    2.2835   -0.0651   -1.2753 C   0  0  0  0  0  0  0  0  0  0  0  0
    4.5703   -1.6714    1.1553 C   0  0  0  0  0  0  0  0  0  0  0  0
   -2.4018   -0.9276   -1.9491 C   0  0  0  0  0  0  0  0  0  0  0  0
    5.5782   -0.5858    1.0550 C   0  0  0  0  0  0  0  0  0  0  0  0
   -3.7504   -0.5462   -2.4280 C   0  0  0  0  0  0  0  0  0  0  0  0
   -2.4887   -0.1557   -3.1974 C   0  0  0  0  0  0  0  0  0  0  0  0
    5.8719   -0.3061   -0.4102 C   0  0  0  0  0  0  0  0  0  0  0  0
    0.7490    0.9057    0.1872 C   0  0  1  0  0  0  0  0  0  0  0  0
   -1.6751    0.9095   -0.5433 C   0  0  0  0  0  0  0  0  0  0  0  0
   -0.2419    1.3557   -0.8265 C   0  0  2  0  0  0  0  0  0  0  0  0
   -2.0724    1.5729    0.7165 C   0  0  2  0  0  0  0  0  0  0  0  0
    0.2111    0.9339    1.5700 C   0  0  0  0  0  0  0  0  0  0  0  0
   -2.4291   -1.1950    0.4204 C   0  0  0  0  0  0  0  0  0  0  0  0
   -0.9214    1.9100    1.6465 C   0  0  0  0  0  0  0  0  0  0  0  0
   -3.5120   -0.4648    1.1297 C   0  0  2  0  0  0  0  0  0  0  0  0
   -3.2415    0.9656    1.4211 C   0  0  0  0  0  0  0  0  0  0  0  0
   -3.7674   -1.1786    2.4477 C   0  0  0  0  0  0  0  0  0  0  0  0
    0.3173    2.2878   -2.8719 C   0  0  0  0  0  0  0  0  0  0  0  0
    1.2811   -1.6618    1.7176 F   0  0  0  0  0  0  0  0  0  0  0  0
    0.0247    1.3953   -1.4773 O   0  0  0  0  0  0  0  0  0  0  0  0
   -3.2046    2.3025    1.1977 O   0  0  0  0  0  0  0  0  0  0  0  0
   -5.0948    1.0048    2.9924 O   0  0  0  0  0  0  0  0  0  0  0  0
   -5.7043   -1.0082    2.2625 O   0  0  0  0  0  0  0  0  0  0  0  0
    1.9152    0.4218   -0.2781 N   0  0  0  0  0  0  0  0  0  0  0  0
    4.8796    1.1894   -0.9799 N   0  0  0  0  0  0  0  0  0  0  0  0
   -2.3607   -1.1065   -0.3652 N   0  0  0  0  0  0  0  0  0  0  0  0
    3.8675   -0.6213    0.3314 C   0  0  2  0  0  0  0  0  0  0  0  0
    4.1472   -0.0334   -1.0371 C   0  0  1  0  0  0  0  0  0  0  0  0
    2.8212    0.3793    0.7925 C   0  0  0  0  0  0  0  0  0  0  0  0
    2.7170    0.2951   -1.4772 C   0  0  0  0  0  0  0  0  0  0  0  0
    5.0586   -0.6293    1.2317 C   0  0  0  0  0  0  0  0  0  0  0  0
   -3.1140   -1.5220   -1.5008 C   0  0  0  0  0  0  0  0  0  0  0  0
    5.8265    0.6701    1.1964 C   0  0  0  0  0  0  0  0  0  0  0  0
   -4.2706   -0.7737   -2.0359 C   0  0  0  0  0  0  0  0  0  0  0  0
   -3.0009   -1.0405   -2.8733 C   0  0  0  0  0  0  0  0  0  0  0  0
    6.0632    1.1795   -0.1854 C   0  0  0  0  0  0  0  0  0  0  0  0
    0.8359   -0.4855   -0.3334 C   0  0  2  0  0  0  0  0  0  0  0  0
   -1.6392    0.0975   -0.4296 C   0  0  2  0  0  0  0  0  0  0  0  0
   -0.3041    0.0581   -1.1654 C   0  0  0  0  0  0  0  0  0  0  0  0
   -1.4053    0.7573    0.9232 C   0  0  2  0  0  0  0  0  0  0  0  0
    0.3171   -0.9903    0.9573 C   0  0  0  0  0  0  0  0  0  0  0  0
   -3.1607   -1.2533    0.8534 C   0  0  0  0  0  0  0  0  0  0  0  0
   -0.4357    0.0065    1.7685 C   0  0  0  0  0  0  0  0  0  0  0  0
   -3.7543    0.0151    1.3380 C   0  0  0  0  0  0  0  0  0  0  0  0
   -2.7041    1.0615    1.5932 C   0  0  0  0  0  0  0  0  0  0  0  0
   -4.5593   -0.2372    2.5763 C   0  0  0  0  0  0  0  0  0  0  0  0
    0.0089    1.7064   -2.8006 C   0  0  0  0  0  0  0  0  0  0  0  0
    1.4081    1.1631    2.3575 F   0  0  0  0  0  0  0  0  0  0  0  0
   -0.0747   -0.0361   -2.0289 O   0  0  0  0  0  0  0  0  0  0  0  0
   -3.8906    2.5589    1.1682 O   0  0  0  0  0  0  0  0  0  0  0  0
   -4.0688   -0.8844    3.1541 O   0  0  0  0  0  0  0  0  0  0  0  0
   -5.5452    0.7756    2.9260 O   0  0  0  0  0  0  0  0  0  0  0  0
    1.8266   -0.3258   -0.1731 N   0  0  0  0  0  0  0  0  0  0  0  0
    4.7310    0.8913   -0.9324 N   0  0  0  0  0  0  0  0  0  0  0  0
   -2.6556   -0.3036   -0.7255 N   0  0  0  0  0  0  0  0  0  0  0  0
    3.9591   -1.1629    0.1854 C   0  0  2  0  0  0  0  0  0  0  0  0
    4.0401   -0.3668   -1.0932 C   0  0  1  0  0  0  0  0  0  0  0  0
    2.8168   -0.3887    0.8696 C   0  0  0  0  0  0  0  0  0  0  0  0
    2.5725   -0.1167   -1.3832 C   0  0  0  0  0  0  0  0  0  0  0  0
    5.2037   -1.1395    1.0069 C   0  0  0  0  0  0  0  0  0  0  0  0
   -2.4855   -1.3857   -1.6559 C   0  0  0  0  0  0  0  0  0  0  0  0
    5.8764    0.2096    1.0352 C   0  0  0  0  0  0  0  0  0  0  0  0
   -3.7173   -2.0042   -2.2114 C   0  0  0  0  0  0  0  0  0  0  0  0
   -2.9547   -1.0812   -3.1029 C   0  0  0  0  0  0  0  0  0  0  0  0
    6.0465    0.6687   -0.4190 C   0  0  0  0  0  0  0  0  0  0  0  0
    0.8448    0.7119    0.0756 C   0  0  1  0  0  0  0  0  0  0  0  0
   -1.5081    0.1716   -0.0711 C   0  0  1  0  0  0  0  0  0  0  0  0
   -0.3312    0.6275   -0.8616 C   0  0  2  0  0  0  0  0  0  0  0  0
   -1.8762    1.3283    0.8170 C   0  0  0  0  0  0  0  0  0  0  0  0
    0.4258    0.6060    1.5218 C   0  0  2  0  0  0  0  0  0  0  0  0
   -3.4692   -0.8946    0.3604 C   0  0  0  0  0  0  0  0  0  0  0  0
   -0.8031    1.4051    1.8712 C   0  0  0  0  0  0  0  0  0  0  0  0
   -4.1518    0.2519    1.0234 C   0  0  2  0  0  0  0  0  0  0  0  0
   -3.2200    1.3312    1.4002 C   0  0  0  0  0  0  0  0  0  0  0  0
   -4.9326   -0.2697    2.2372 C   0  0  0  0  0  0  0  0  0  0  0  0
   -0.1358    0.7901   -3.1585 C   0  0  0  0  0  0  0  0  0  0  0  0
    1.0924    1.6219    2.5413 F   0  0  0  0  0  0  0  0  0  0  0  0
   -0.1697    2.8579   -1.1156 O   0  0  0  0  0  0  0  0  0  0  0  0
   -4.2011    1.7664    1.8629 O   0  0  0  0  0  0  0  0  0  0  0  0
   -5.1475   -0.5300    2.8096 O   0  0  0  0  0  0  0  0  0  0  0  0
   -4.5667   -2.3988    1.7081 O   0  0  0  0  0  0  0  0  0  0  0  0
    1.3486   -0.1950   -0.1019 N   0  0  0  0  0  0  0  0  0  0  0  0
    4.6300   -0.2255   -0.9663 N   0  0  0  0  0  0  0  0  0  0  0  0
   -1.7279   -0.3765   -0.6015 N   0  0  0  0  0  0  0  0  0  0  0  0
    3.0872   -1.7149    0.2383 C   0  0  2  0  0  0  0  0  0  0  0  0
    3.4213   -0.9769   -0.9960 C   0  0  1  0  0  0  0  0  0  0  0  0
    2.1309   -0.7613    0.9554 C   0  0  0  0  0  0  0  0  0  0  0  0
    2.2540   -0.0621   -1.2321 C   0  0  0  0  0  0  0  0  0  0  0  0
    4.2208   -2.1175    1.1020 C   0  0  0  0  0  0  0  0  0  0  0  0
   -2.0269   -0.9320   -1.8977 C   0  0  0  0  0  0  0  0  0  0  0  0
    5.3680   -1.1355    1.1074 C   0  0  0  0  0  0  0  0  0  0  0  0
   -3.2904   -0.6455   -2.6069 C   0  0  0  0  0  0  0  0  0  0  0  0
   -1.9362   -0.1730   -3.1602 C   0  0  0  0  0  0  0  0  0  0  0  0
    5.7404   -0.8813   -0.3396 C   0  0  0  0  0  0  0  0  0  0  0  0
    0.7978    1.1078    0.2173 C   0  0  1  0  0  0  0  0  0  0  0  0
   -1.6254    1.0194   -0.5160 C   0  0  0  0  0  0  0  0  0  0  0  0
   -0.2134    1.4964   -0.8284 C   0  0  0  0  0  0  0  0  0  0  0  0
   -2.0941    1.7152    0.7172 C   0  0  2  0  0  0  0  0  0  0  0  0
    0.2042    1.2170    1.5603 C   0  0  0  0  0  0  0  0  0  0  0  0
   -2.3281   -1.1009    0.4702 C   0  0  0  0  0  0  0  0  0  0  0  0
   -0.9256    2.1949    1.5653 C   0  0  0  0  0  0  0  0  0  0  0  0
   -3.4580   -0.3523    1.0994 C   0  0  2  0  0  0  0  0  0  0  0  0
   -3.0439    0.9998    1.5867 C   0  0  0  0  0  0  0  0  0  0  0  0
   -4.0955   -1.1844    2.2010 C   0  0  0  0  0  0  0  0  0  0  0  0
    0.2440    3.1745   -2.3814 C   0  0  0  0  0  0  0  0  0  0  0  0
    1.2951   -1.5921    1.7746 F   0  0  0  0  0  0  0  0  0  0  0  0
    0.0348    1.2525   -1.6558 O   0  0  0  0  0  0  0  0  0  0  0  0
   -3.2228    2.3387    1.2671 O   0  0  0  0  0  0  0  0  0  0  0  0
   -5.0581    0.9710    3.2256 O   0  0  0  0  0  0  0  0  0  0  0  0
   -5.6264   -1.0327    2.4383 O   0  0  0  0  0  0  0  0  0  0  0  0
    1.8789    0.4495   -0.3039 N   0  0  0  0  0  0  0  0  0  0  0  0
    4.9288    1.0693   -1.1719 N   0  0  0  0  0  0  0  0  0  0  0  0
   -2.3759   -1.0787   -0.2939 N   0  0  0  0  0  0  0  0  0  0  0  0
    3.8263   -0.6006    0.2675 C   0  0  2  0  0  0  0  0  0  0  0  0
    4.0723   -0.0708   -1.1301 C   0  0  1  0  0  0  0  0  0  0  0  0
    2.8251    0.4347    0.7318 C   0  0  0  0  0  0  0  0  0  0  0  0
    2.6513    0.3059   -1.5398 C   0  0  0  0  0  0  0  0  0  0  0  0
    5.0405   -0.6139    1.1286 C   0  0  0  0  0  0  0  0  0  0  0  0
   -3.1621   -1.4616   -1.4218 C   0  0  0  0  0  0  0  0  0  0  0  0
    5.8132    0.6852    1.0806 C   0  0  0  0  0  0  0  0  0  0  0  0
   -4.3304   -0.7064   -1.9152 C   0  0  0  0  0  0  0  0  0  0  0  0
   -3.0785   -0.8796   -2.7765 C   0  0  0  0  0  0  0  0  0  0  0  0
    6.0961    1.0151   -0.3579 C   0  0  0  0  0  0  0  0  0  0  0  0
    0.8178   -0.4750   -0.3149 C   0  0  0  0  0  0  0  0  0  0  0  0
   -1.6522    0.1283   -0.3717 C   0  0  2  0  0  0  0  0  0  0  0  0
   -0.3513    0.0246   -1.1473 C   0  0  1  0  0  0  0  0  0  0  0  0
   -1.4008    0.8073    0.9594 C   0  0  0  0  0  0  0  0  0  0  0  0
    0.3151   -0.9379    1.0031 C   0  0  0  0  0  0  0  0  0  0  0  0
   -3.1688   -1.2092    0.9330 C   0  0  0  0  0  0  0  0  0  0  0  0
   -0.4063    0.0906    1.8061 C   0  0  0  0  0  0  0  0  0  0  0  0
   -3.7378    0.0613    1.4347 C   0  0  0  0  0  0  0  0  0  0  0  0
   -2.6838    1.1100    1.6603 C   0  0  2  0  0  0  0  0  0  0  0  0
   -4.5008   -0.2233    2.7077 C   0  0  0  0  0  0  0  0  0  0  0  0
    0.0550    1.4126   -2.9992 C   0  0  0  0  0  0  0  0  0  0  0  0
   -3.5068    2.7022   -0.1494 H   0  0  0  0  0  0  0  0  0  0  0  0
   -4.4400    1.1112    3.8951 H   0  0  0  0  0  0  0  0  0  0  0  0
   -6.3792   -0.7971    2.3050 H   0  0  0  0  0  0  0  0  0  0  0  0
    4.3039    1.6295   -0.3926 H   0  0  0  0  0  0  0  0  0  0  0  0
    3.6839   -2.1853   -0.2461 H   0  0  0  0  0  0  0  0  0  0  0  0
    4.5710   -0.8506   -1.9825 H   0  0  0  0  0  0  0  0  0  0  0  0
    2.5899   -1.1049    1.6226 H   0  0  0  0  0  0  0  0  0  0  0  0
    3.3278    0.5114    1.1000 H   0  0  0  0  0  0  0  0  0  0  0  0
    2.3364   -0.6895   -2.2190 H   0  0  0  0  0  0  0  0  0  0  0  0
    2.5525    1.0831   -1.6915 H   0  0  0  0  0  0  0  0  0  0  0  0
    4.9717   -1.6273    1.8969 H   0  0  0  0  0  0  0  0  0  0  0  0
    5.9433   -1.9401    0.3897 H   0  0  0  0  0  0  0  0  0  0  0  0
   -1.8035   -1.9025   -1.8110 H   0  0  0  0  0  0  0  0  0  0  0  0
    6.8707   -0.0758    1.5603 H   0  0  0  0  0  0  0  0  0  0  0  0
    5.3195    0.7791    1.6901 H   0  0  0  0  0  0  0  0  0  0  0  0
   -4.9270   -1.3514   -1.8446 H   0  0  0  0  0  0  0  0  0  0  0  0
   -4.0135   -2.7614   -2.6015 H   0  0  0  0  0  0  0  0  0  0  0  0
   -2.6829   -1.0066   -3.9909 H   0  0  0  0  0  0  0  0  0  0  0  0
   -3.5911    0.3411   -3.1222 H   0  0  0  0  0  0  0  0  0  0  0  0
    6.7014    1.6039   -0.2476 H   0  0  0  0  0  0  0  0  0  0  0  0
    6.6537   -0.1142   -0.9204 H   0  0  0  0  0  0  0  0  0  0  0  0
    1.3882    1.6506    0.0464 H   0  0  0  0  0  0  0  0  0  0  0  0
   -1.1702   -0.7106    0.5557 H   0  0  0  0  0  0  0  0  0  0  0  0
   -0.4887    1.6615   -1.1712 H   0  0  0  0  0  0  0  0  0  0  0  0
   -1.5427    2.2913    0.2926 H   0  0  0  0  0  0  0  0  0  0  0  0
    0.4087   -0.6230    1.7982 H   0  0  0  0  0  0  0  0  0  0  0  0
   -4.1786   -1.5737    0.0355 H   0  0  0  0  0  0  0  0  0  0  0  0
   -2.7836   -1.3699    1.1020 H   0  0  0  0  0  0  0  0  0  0  0  0
   -0.4933    2.2711    2.2756 H   0  0  0  0  0  0  0  0  0  0  0  0
   -1.2679    0.7253    2.8029 H   0  0  0  0  0  0  0  0  0  0  0  0
   -5.0364    0.5724    0.6380 H   0  0  0  0  0  0  0  0  0  0  0  0
   -3.1291    1.6949    2.4395 H   0  0  0  0  0  0  0  0  0  0  0  0
   -3.7121   -0.6939    3.0733 H   0  0  0  0  0  0  0  0  0  0  0  0
    0.6886    1.5387   -3.1149 H   0  0  0  0  0  0  0  0  0  0  0  0
    0.2469    0.0646   -4.0105 H   0  0  0  0  0  0  0  0  0  0  0  0
   -1.0588    1.1069   -3.4376 H   0  0  0  0  0  0  0  0  0  0  0  0
   -4.1907    2.3268    0.3921 H   0  0  0  0  0  0  0  0  0  0  0  0
   -4.3563   -0.0265    3.9031 H   0  0  0  0  0  0  0  0  0  0  0  0
   -5.1434   -2.6242    2.4849 H   0  0  0  0  0  0  0  0  0  0  0  0
    4.4200    1.0944   -0.6634 H   0  0  0  0  0  0  0  0  0  0  0  0
    2.9804   -2.5374    0.0460 H   0  0  0  0  0  0  0  0  0  0  0  0
    3.8130   -1.5500   -1.8006 H   0  0  0  0  0  0  0  0  0  0  0  0
    1.7514   -1.4490    1.6401 H   0  0  0  0  0  0  0  0  0  0  0  0
    2.7133    0.1244    1.4037 H   0  0  0  0  0  0  0  0  0  0  0  0
    1.8442   -0.5254   -2.1838 H   0  0  0  0  0  0  0  0  0  0  0  0
    2.4592    1.0319   -1.3785 H   0  0  0  0  0  0  0  0  0  0  0  0
    4.2293   -1.7444    2.2194 H   0  0  0  0  0  0  0  0  0  0  0  0
    5.0948   -2.6424    0.9441 H   0  0  0  0  0  0  0  0  0  0  0  0
   -2.1611   -2.0256   -2.1182 H   0  0  0  0  0  0  0  0  0  0  0  0
    6.5315   -0.9580    1.5028 H   0  0  0  0  0  0  0  0  0  0  0  0
    5.3039    0.3496    1.5513 H   0  0  0  0  0  0  0  0  0  0  0  0
   -4.3074    0.3230   -2.0516 H   0  0  0  0  0  0  0  0  0  0  0  0
   -4.4152   -1.3392   -2.8576 H   0  0  0  0  0  0  0  0  0  0  0  0
   -2.4263   -0.6789   -4.1847 H   0  0  0  0  0  0  0  0  0  0  0  0
   -2.2686    0.9170   -3.3099 H   0  0  0  0  0  0  0  0  0  0  0  0
    6.5955    0.5356   -0.4265 H   0  0  0  0  0  0  0  0  0  0  0  0
    6.3369   -1.1483   -0.9195 H   0  0  0  0  0  0  0  0  0  0  0  0
    1.6306    1.6284    0.1939 H   0  0  0  0  0  0  0  0  0  0  0  0
   -2.2691    1.4115   -1.3808 H   0  0  0  0  0  0  0  0  0  0  0  0
   -0.3027    2.4837   -0.7422 H   0  0  0  0  0  0  0  0  0  0  0  0
   -2.4646    2.6125    0.3878 H   0  0  0  0  0  0  0  0  0  0  0  0
   -0.0121   -0.0791    1.9548 H   0  0  0  0  0  0  0  0  0  0  0  0
   -2.8791   -2.1570    0.0487 H   0  0  0  0  0  0  0  0  0  0  0  0
   -1.5828   -1.5302    1.0409 H   0  0  0  0  0  0  0  0  0  0  0  0
   -0.4712    2.9035    1.3433 H   0  0  0  0  0  0  0  0  0  0  0  0
   -1.2750    2.0853    2.6848 H   0  0  0  0  0  0  0  0  0  0  0  0
   -4.4351   -0.5794    0.4925 H   0  0  0  0  0  0  0  0  0  0  0  0
   -3.1025    1.1666    2.5152 H   0  0  0  0  0  0  0  0  0  0  0  0
   -2.8679   -1.2954    3.0590 H   0  0  0  0  0  0  0  0  0  0  0  0
    0.6269    2.0819   -3.9010 H   0  0  0  0  0  0  0  0  0  0  0  0
    0.9687    3.0081   -2.3388 H   0  0  0  0  0  0  0  0  0  0  0  0
   -0.7066    2.7559   -2.9129 H   0  0  0  0  0  0  0  0  0  0  0  0
   -2.9360    2.4005    0.2327 H   0  0  0  0  0  0  0  0  0  0  0  0
   -5.3295    1.5277    2.2085 H   0  0  0  0  0  0  0  0  0  0  0  0
   -6.3458   -0.4758    1.7004 H   0  0  0  0  0  0  0  0  0  0  0  0
    4.3122    2.0500   -0.8848 H   0  0  0  0  0  0  0  0  0  0  0  0
    3.4607   -1.6210    0.1708 H   0  0  0  0  0  0  0  0  0  0  0  0
    4.6403   -0.7272   -1.7245 H   0  0  0  0  0  0  0  0  0  0  0  0
    2.4865    0.2363    1.7991 H   0  0  0  0  0  0  0  0  0  0  0  0
    3.3783    1.3694    0.7953 H   0  0  0  0  0  0  0  0  0  0  0  0
    2.4081   -0.5491   -2.1241 H   0  0  0  0  0  0  0  0  0  0  0  0
    2.7628    1.2541   -2.0567 H   0  0  0  0  0  0  0  0  0  0  0  0
    4.6738   -0.7363    2.2876 H   0  0  0  0  0  0  0  0  0  0  0  0
    5.6862   -1.5196    1.0498 H   0  0  0  0  0  0  0  0  0  0  0  0
   -3.3254   -2.6474   -1.4363 H   0  0  0  0  0  0  0  0  0  0  0  0
    6.8362    0.4431    1.6394 H   0  0  0  0  0  0  0  0  0  0  0  0
    5.3399    1.4167    1.8675 H   0  0  0  0  0  0  0  0  0  0  0  0
   -4.4461    0.2872   -1.8656 H   0  0  0  0  0  0  0  0  0  0  0  0
   -5.1999   -1.3203   -2.3162 H   0  0  0  0  0  0  0  0  0  0  0  0
   -3.2122   -1.7757   -3.7210 H   0  0  0  0  0  0  0  0  0  0  0  0
   -2.4619   -0.1784   -3.2467 H   0  0  0  0  0  0  0  0  0  0  0  0
    6.3874    2.2499   -0.0796 H   0  0  0  0  0  0  0  0  0  0  0  0
    6.8668    0.5891   -0.6615 H   0  0  0  0  0  0  0  0  0  0  0  0
    1.2051   -1.3930   -0.9072 H   0  0  0  0  0  0  0  0  0  0  0  0
   -2.2543    0.8396   -1.0028 H   0  0  0  0  0  0  0  0  0  0  0  0
   -0.4824   -0.5175   -2.0861 H   0  0  0  0  0  0  0  0  0  0  0  0
   -0.9381    1.7510    0.6743 H   0  0  0  0  0  0  0  0  0  0  0  0
   -0.3839   -1.8289    0.7009 H   0  0  0  0  0  0  0  0  0  0  0  0
   -4.0100   -1.9540    0.5832 H   0  0  0  0  0  0  0  0  0  0  0  0
   -2.5721   -1.8380    1.5696 H   0  0  0  0  0  0  0  0  0  0  0  0
    0.2335    0.7430    2.3096 H   0  0  0  0  0  0  0  0  0  0  0  0
   -0.9117   -0.5357    2.6409 H   0  0  0  0  0  0  0  0  0  0  0  0
   -4.4410    0.3888    0.5587 H   0  0  0  0  0  0  0  0  0  0  0  0
   -2.5278    1.1190    2.6931 H   0  0  0  0  0  0  0  0  0  0  0  0
   -4.0207   -0.7504    3.3824 H   0  0  0  0  0  0  0  0  0  0  0  0
   -0.9766    1.5903   -3.2654 H   0  0  0  0  0  0  0  0  0  0  0  0
    0.8110    1.2151   -3.4026 H   0  0  0  0  0  0  0  0  0  0  0  0
    0.2354    2.8058   -2.8759 H   0  0  0  0  0  0  0  0  0  0  0  0
   -3.5987    2.8947    0.2819 H   0  0  0  0  0  0  0  0  0  0  0  0
   -3.7254   -0.1919    3.7722 H   0  0  0  0  0  0  0  0  0  0  0  0
   -5.6644    1.5133    2.2745 H   0  0  0  0  0  0  0  0  0  0  0  0
    4.1857    1.6033   -0.4182 H   0  0  0  0  0  0  0  0  0  0  0  0
    3.6620   -2.1903   -0.0537 H   0  0  0  0  0  0  0  0  0  0  0  0
    4.5419   -0.9131   -1.9056 H   0  0  0  0  0  0  0  0  0  0  0  0
    2.5376   -0.9826    1.7369 H   0  0  0  0  0  0  0  0  0  0  0  0
    3.2817    0.5907    1.1050 H   0  0  0  0  0  0  0  0  0  0  0  0
    2.2894   -0.8944   -2.1222 H   0  0  0  0  0  0  0  0  0  0  0  0
    2.5011    0.9121   -1.7731 H   0  0  0  0  0  0  0  0  0  0  0  0
    4.9408   -1.3740    2.0738 H   0  0  0  0  0  0  0  0  0  0  0  0
    5.8932   -1.9008    0.6318 H   0  0  0  0  0  0  0  0  0  0  0  0
   -1.6252   -2.0796   -1.5591 H   0  0  0  0  0  0  0  0  0  0  0  0
    6.8894    0.1214    1.4504 H   0  0  0  0  0  0  0  0  0  0  0  0
    5.3144    0.9486    1.6327 H   0  0  0  0  0  0  0  0  0  0  0  0
   -4.7255   -1.6344   -1.9504 H   0  0  0  0  0  0  0  0  0  0  0  0
   -3.7249   -3.0686   -2.5185 H   0  0  0  0  0  0  0  0  0  0  0  0
   -3.2850   -0.0527   -3.3043 H   0  0  0  0  0  0  0  0  0  0  0  0
   -2.3267   -1.5193   -3.9061 H   0  0  0  0  0  0  0  0  0  0  0  0
    6.6354    1.6183   -0.4376 H   0  0  0  0  0  0  0  0  0  0  0  0
    6.5168   -0.1419   -0.9760 H   0  0  0  0  0  0  0  0  0  0  0  0
    1.4027    1.6804   -0.0144 H   0  0  0  0  0  0  0  0  0  0  0  0
   -1.1529   -0.6845    0.5788 H   0  0  0  0  0  0  0  0  0  0  0  0
   -0.5361    1.7034   -1.1542 H   0  0  0  0  0  0  0  0  0  0  0  0
   -1.7643    2.2703    0.1973 H   0  0  0  0  0  0  0  0  0  0  0  0
    0.3769   -0.4509    1.8717 H   0  0  0  0  0  0  0  0  0  0  0  0
   -4.1246   -1.6752   -0.0007 H   0  0  0  0  0  0  0  0  0  0  0  0
   -2.7828   -1.3712    1.1205 H   0  0  0  0  0  0  0  0  0  0  0  0
   -0.5685    2.4696    2.0813 H   0  0  0  0  0  0  0  0  0  0  0  0
   -1.2390    0.9485    2.7919 H   0  0  0  0  0  0  0  0  0  0  0  0
   -4.9482    0.6088    0.3093 H   0  0  0  0  0  0  0  0  0  0  0  0
   -3.1212    1.3067    2.5280 H   0  0  0  0  0  0  0  0  0  0  0  0
   -5.6563   -1.0461    1.9304 H   0  0  0  0  0  0  0  0  0  0  0  0
    0.6172    1.6113   -3.0691 H   0  0  0  0  0  0  0  0  0  0  0  0
    0.1923    0.1687   -4.0202 H   0  0  0  0  0  0  0  0  0  0  0  0
   -1.1398    1.1558   -3.3779 H   0  0  0  0  0  0  0  0  0  0  0  0
   -4.2830    2.4002    1.1238 H   0  0  0  0  0  0  0  0  0  0  0  0
   -4.8087    0.1176    3.4845 H   0  0  0  0  0  0  0  0  0  0  0  0
   -5.2171   -2.2753    0.9689 H   0  0  0  0  0  0  0  0  0  0  0  0
    4.5546    0.7523   -0.6681 H   0  0  0  0  0  0  0  0  0  0  0  0
    2.5076   -2.6306   -0.0310 H   0  0  0  0  0  0  0  0  0  0  0  0
    3.5256   -1.7325   -1.8293 H   0  0  0  0  0  0  0  0  0  0  0  0
    1.5402   -1.4033    1.6431 H   0  0  0  0  0  0  0  0  0  0  0  0
    2.7698   -0.0264    1.4749 H   0  0  0  0  0  0  0  0  0  0  0  0
    1.7542   -0.3769   -2.1666 H   0  0  0  0  0  0  0  0  0  0  0  0
    2.5900    0.9952   -1.2562 H   0  0  0  0  0  0  0  0  0  0  0  0
    3.8628   -2.2002    2.1526 H   0  0  0  0  0  0  0  0  0  0  0  0
    4.6172   -3.1436    0.8554 H   0  0  0  0  0  0  0  0  0  0  0  0
   -1.6877   -2.0077   -1.9816 H   0  0  0  0  0  0  0  0  0  0  0  0
    6.2192   -1.6417    1.6182 H   0  0  0  0  0  0  0  0  0  0  0  0
    5.1238   -0.2145    1.6376 H   0  0  0  0  0  0  0  0  0  0  0  0
   -3.9519    0.1878   -2.3418 H   0  0  0  0  0  0  0  0  0  0  0  0
   -3.8122   -1.4676   -3.1437 H   0  0  0  0  0  0  0  0  0  0  0  0
   -1.6509   -0.7157   -4.1121 H   0  0  0  0  0  0  0  0  0  0  0  0
   -1.7610    0.8949   -3.2526 H   0  0  0  0  0  0  0  0  0  0  0  0
    6.5754   -0.1235   -0.3079 H   0  0  0  0  0  0  0  0  0  0  0  0
    6.0408   -1.8170   -0.8197 H   0  0  0  0  0  0  0  0  0  0  0  0
    1.6828    1.8085    0.1512 H   0  0  0  0  0  0  0  0  0  0  0  0
   -2.2431    1.4313   -1.3720 H   0  0  0  0  0  0  0  0  0  0  0  0
    0.1067    0.9833   -1.7591 H   0  0  0  0  0  0  0  0  0  0  0  0
   -2.6035    2.6663    0.3848 H   0  0  0  0  0  0  0  0  0  0  0  0
   -0.1926    0.2311    1.9340 H   0  0  0  0  0  0  0  0  0  0  0  0
   -2.8011   -2.0205    0.0012 H   0  0  0  0  0  0  0  0  0  0  0  0
   -1.5827   -1.5171    1.1556 H   0  0  0  0  0  0  0  0  0  0  0  0
   -0.5670    3.1550    1.1468 H   0  0  0  0  0  0  0  0  0  0  0  0
   -1.2309    2.4166    2.6004 H   0  0  0  0  0  0  0  0  0  0  0  0
   -4.2385   -0.2068    0.3227 H   0  0  0  0  0  0  0  0  0  0  0  0
   -2.6079    0.8277    2.6169 H   0  0  0  0  0  0  0  0  0  0  0  0
   -3.2962   -1.4384    2.9460 H   0  0  0  0  0  0  0  0  0  0  0  0
   -0.3473    2.7970   -3.2104 H   0  0  0  0  0  0  0  0  0  0  0  0
    1.2655    2.7034   -2.5086 H   0  0  0  0  0  0  0  0  0  0  0  0
    0.4581    4.2691   -2.4569 H   0  0  0  0  0  0  0  0  0  0  0  0
   -3.0191    2.4481    0.2977 H   0  0  0  0  0  0  0  0  0  0  0  0
   -5.1523    1.5722    2.4592 H   0  0  0  0  0  0  0  0  0  0  0  0
   -6.3079   -0.4878    1.9384 H   0  0  0  0  0  0  0  0  0  0  0  0
    4.4277    1.9696   -1.1167 H   0  0  0  0  0  0  0  0  0  0  0  0
    3.4276   -1.6099    0.1786 H   0  0  0  0  0  0  0  0  0  0  0  0
    4.4688   -0.8862   -1.7728 H   0  0  0  0  0  0  0  0  0  0  0  0
    2.5370    0.2935    1.7505 H   0  0  0  0  0  0  0  0  0  0  0  0
    3.3878    1.4200    0.6789 H   0  0  0  0  0  0  0  0  0  0  0  0
    2.2808   -0.5257   -2.1722 H   0  0  0  0  0  0  0  0  0  0  0  0
    2.7574    1.2708   -2.0794 H   0  0  0  0  0  0  0  0  0  0  0  0
    4.7133   -0.7579    2.1791 H   0  0  0  0  0  0  0  0  0  0  0  0
    5.6778   -1.4771    0.8806 H   0  0  0  0  0  0  0  0  0  0  0  0
   -3.3109   -2.5909   -1.4448 H   0  0  0  0  0  0  0  0  0  0  0  0
    6.7720    0.5507    1.6024 H   0  0  0  0  0  0  0  0  0  0  0  0
    5.2240    1.4819    1.5668 H   0  0  0  0  0  0  0  0  0  0  0  0
   -4.5590    0.3309   -1.6898 H   0  0  0  0  0  0  0  0  0  0  0  0
   -5.2428   -1.2772   -2.2592 H   0  0  0  0  0  0  0  0  0  0  0  0
   -3.2125   -1.5544   -3.6773 H   0  0  0  0  0  0  0  0  0  0  0  0
   -2.5237    0.0189   -3.0505 H   0  0  0  0  0  0  0  0  0  0  0  0
    6.5542    2.0376   -0.3697 H   0  0  0  0  0  0  0  0  0  0  0  0
    6.8463    0.3176   -0.7770 H   0  0  0  0  0  0  0  0  0  0  0  0
    1.2012   -1.4058   -0.8401 H   0  0  0  0  0  0  0  0  0  0  0  0
   -2.2801    0.8637   -0.9551 H   0  0  0  0  0  0  0  0  0  0  0  0
   -0.5573   -0.6522   -1.9950 H   0  0  0  0  0  0  0  0  0  0  0  0
   -0.9429    1.8074    0.6897 H   0  0  0  0  0  0  0  0  0  0  0  0
   -0.3895   -1.7724    0.7891 H   0  0  0  0  0  0  0  0  0  0  0  0
   -4.0048   -1.9196    0.7045 H   0  0  0  0  0  0  0  0  0  0  0  0
   -2.5671   -1.7196    1.6951 H   0  0  0  0  0  0  0  0  0  0  0  0
    0.2911    0.8361    2.2974 H   0  0  0  0  0  0  0  0  0  0  0  0
   -0.8607   -0.4195    2.7045 H   0  0  0  0  0  0  0  0  0  0  0  0
   -4.5074    0.4223    0.6977 H   0  0  0  0  0  0  0  0  0  0  0  0
   -2.4684    1.1841    2.7528 H   0  0  0  0  0  0  0  0  0  0  0  0
   -3.9253   -0.7070    3.4925 H   0  0  0  0  0  0  0  0  0  0  0  0
    0.6912    0.7131   -3.5812 H   0  0  0  0  0  0  0  0  0  0  0  0
    0.6099    2.4119   -3.1623 H   0  0  0  0  0  0  0  0  0  0  0  0
   -0.9305    1.6237   -3.4308 H   0  0  0  0  0  0  0  0  0  0  0  0
  7 10  1  0
  9 10  1  0
  6 11  1  0
  9 11  1  0
  6 12  1  0
 10 12  1  0
  9 13  1  0
  8 14  1  0
 13 15  1  0
 14 16  1  0
 14 17  1  0
 16 17  1  0
  7 18  1  0
 15 18  1  0
  6 19  1  0
  8 20  1  0
  2 21  1  0
 19 21  1  0
 20 21  1  0
 20 22  1  0
  1 23  1  0
 19 23  1  0
  8 24  1  0
 22 25  1  0
 23 25  1  0
 24 26  1  0
 22 27  1  0
 26 27  1  0
 27  3  1  0
  4 28  1  0
 26 28  1  0
 28  5  1  0
  2 29  1  0
 36 39  1  0
 38 39  1  0
 35 40  1  0
 38 40  1  0
 35 41  1  0
 39 41  1  0
 38 42  1  0
 37 43  1  0
 42 44  1  0
 43 45  1  0
 43 46  1  0
 45 46  1  0
 36 47  1  0
 44 47  1  0
 35 48  1  0
 37 49  1  0
 31 50  1  0
 48 50  1  0
 49 50  1  0
 49 51  1  0
 30 52  1  0
 48 52  1  0
 37 53  1  0
 51 54  1  0
 52 54  1  0
 53 55  1  0
 51 56  1  0
 55 56  1  0
 56 32  1  0
 33 57  1  0
 55 57  1  0
 57 34  1  0
 31 58  1  0
 65 68  1  0
 67 68  1  0
 64 69  1  0
 67 69  1  0
 64 70  1  0
 68 70  1  0
 67 71  1  0
 66 72  1  0
 71 73  1  0
 72 74  1  0
 72 75  1  0
 74 75  1  0
 65 76  1  0
 73 76  1  0
 64 77  1  0
 66 78  1  0
 60 79  1  0
 77 79  1  0
 78 79  1  0
 78 80  1  0
 59 81  1  0
 77 81  1  0
 66 82  1  0
 80 83  1  0
 81 83  1  0
 82 84  1  0
 80 85  1  0
 84 85  1  0
 85 61  1  0
 62 86  1  0
 84 86  1  0
 86 63  1  0
 60 87  1  0
 94 97  1  0
 96 97  1  0
 93 98  1  0
 96 98  1  0
 93 99  1  0
 97 99  1  0
 96100  1  0
 95101  1  0
100102  1  0
101103  1  0
101104  1  0
103104  1  0
 94105  1  0
102105  1  0
 93106  1  0
 95107  1  0
 89108  1  0
106108  1  0
107108  1  0
107109  1  0
 88110  1  0
106110  1  0
 95111  1  0
109112  1  0
110112  1  0
111113  1  0
109114  1  0
113114  1  0
114 90  1  0
 91115  1  0
113115  1  0
115 92  1  0
 89116  1  0
123126  1  0
125126  1  0
122127  1  0
125127  1  0
122128  1  0
126128  1  0
125129  1  0
124130  1  0
129131  1  0
130132  1  0
130133  1  0
132133  1  0
123134  1  0
131134  1  0
122135  1  0
124136  1  0
118137  1  0
135137  1  0
136137  1  0
136138  1  0
117139  1  0
135139  1  0
124140  1  0
138141  1  0
139141  1  0
140142  1  0
138143  1  0
142143  1  0
143119  1  0
120144  1  0
142144  1  0
144121  1  0
118145  1  0
152155  1  0
154155  1  0
151156  1  0
154156  1  0
151157  1  0
155157  1  0
154158  1  0
153159  1  0
158160  1  0
159161  1  0
159162  1  0
161162  1  0
152163  1  0
160163  1  0
151164  1  0
153165  1  0
147166  1  0
164166  1  0
165166  1  0
165167  1  0
146168  1  0
164168  1  0
153169  1  0
167170  1  0
168170  1  0
169171  1  0
167172  1  0
171172  1  0
172148  1  0
149173  1  0
171173  1  0
173150  1  0
147174  1  0
  3175  1  0
  4176  1  0
  5177  1  0
  7178  1  0
  9179  1  6
 10180  1  6
 11181  1  0
 11182  1  0
 12183  1  0
 12184  1  0
 13185  1  0
 13186  1  0
 14187  1  0
 15188  1  0
 15189  1  0
 16190  1  0
 16191  1  0
 17192  1  0
 17193  1  0
 18194  1  0
 18195  1  0
 19196  1  1
 20197  1  1
 21198  1  6
 22199  1  0
 23200  1  0
 24201  1  0
 24202  1  0
 25203  1  0
 25204  1  0
 26205  1  6
 27206  1  0
 28207  1  0
 29208  1  0
 29209  1  0
 29210  1  0
 32211  1  0
 33212  1  0
 34213  1  0
 36214  1  0
 38215  1  6
 39216  1  6
 40217  1  0
 40218  1  0
 41219  1  0
 41220  1  0
 42221  1  0
 42222  1  0
 43223  1  0
 44224  1  0
 44225  1  0
 45226  1  0
 45227  1  0
 46228  1  0
 46229  1  0
 47230  1  0
 47231  1  0
 48232  1  1
 49233  1  0
 50234  1  6
 51235  1  6
 52236  1  0
 53237  1  0
 53238  1  0
 54239  1  0
 54240  1  0
 55241  1  6
 56242  1  0
 57243  1  0
 58244  1  0
 58245  1  0
 58246  1  0
 61247  1  0
 62248  1  0
 63249  1  0
 65250  1  0
 67251  1  6
 68252  1  6
 69253  1  0
 69254  1  0
 70255  1  0
 70256  1  0
 71257  1  0
 71258  1  0
 72259  1  0
 73260  1  0
 73261  1  0
 74262  1  0
 74263  1  0
 75264  1  0
 75265  1  0
 76266  1  0
 76267  1  0
 77268  1  6
 78269  1  6
 79270  1  0
 80271  1  6
 81272  1  0
 82273  1  0
 82274  1  0
 83275  1  0
 83276  1  0
 84277  1  0
 85278  1  0
 86279  1  0
 87280  1  0
 87281  1  0
 87282  1  0
 90283  1  0
 91284  1  0
 92285  1  0
 94286  1  0
 96287  1  6
 97288  1  6
 98289  1  0
 98290  1  0
 99291  1  0
 99292  1  0
100293  1  0
100294  1  0
101295  1  0
102296  1  0
102297  1  0
103298  1  0
103299  1  0
104300  1  0
104301  1  0
105302  1  0
105303  1  0
106304  1  1
107305  1  1
108306  1  6
109307  1  0
110308  1  1
111309  1  0
111310  1  0
112311  1  0
112312  1  0
113313  1  6
114314  1  0
115315  1  0
116316  1  0
116317  1  0
116318  1  0
119319  1  0
120320  1  0
121321  1  0
123322  1  0
125323  1  6
126324  1  6
127325  1  0
127326  1  0
128327  1  0
128328  1  0
129329  1  0
129330  1  0
130331  1  0
131332  1  0
131333  1  0
132334  1  0
132335  1  0
133336  1  0
133337  1  0
134338  1  0
134339  1  0
135340  1  1
136341  1  0
137342  1  0
138343  1  6
139344  1  0
140345  1  0
140346  1  0
141347  1  0
141348  1  0
142349  1  6
143350  1  0
144351  1  0
145352  1  0
145353  1  0
145354  1  0
148355  1  0
149356  1  0
150357  1  0
152358  1  0
154359  1  6
155360  1  6
156361  1  0
156362  1  0
157363  1  0
157364  1  0
158365  1  0
158366  1  0
159367  1  0
160368  1  0
160369  1  0
161370  1  0
161371  1  0
162372  1  0
162373  1  0
163374  1  0
163375  1  0
164376  1  0
165377  1  6
166378  1  6
167379  1  0
168380  1  0
169381  1  0
169382  1  0
170383  1  0
170384  1  0
171385  1  0
172386  1  1
173387  1  0
174388  1  0
174389  1  0
174390  1  0
M  END
>  <PDBID>  (1) 
5CDQ

>  <PDB ID>  (1) 
5CDQ

>  <Generic Name>  (1) 
Moxifloxacin

>  <Brand Name>  (1) 
Act Moxifloxacin#Apo-moxifloxacin#Auro-moxifloxacin#Avelox#Avelox Abc Pack#Avelox I.V.#Bio-moxifloxacin#Dom-moxifloxacin#Ipg-moxifloxacin#Jamp-moxifloxacin#Jamp-moxifloxacin Tablets#Mar-moxifloxacin#Med-moxifloxacin#Moxeza#Moxifloxacin#Moxifloxacin Hydrochloride#Moxifloxacin Injection#Mylan-moxifloxacin#Mylan-moxifloxacin HCl Ophthalmic Solution#PHL-moxifloxacin#PMS-moxifloxacin#Priva-moxifloxacin#Riva-moxifloxacin#Sandoz Moxifloxacin#Teva-moxifloxacin#Torrent-moxifloxacin#Vigamox

>  <DrugBank ID>  (1) 
DB00218

>  <ATC Codes>  (1) 
J01MA14#S01AE07

>  <Ligand ID>  (1) 
MFX

>  <Target Name>  (1) 
DNA gyrase subunit A

>  <UniProt ID>  (1) 
P43700

>  <PDB ID.1>  (1) 
5CDQ

>  <Seq. Identity>  (1) 
53%

$$$$
