PDB_DB00552_00
     RDKit          3D

164172  0  0  0  0  0  0  0  0999 V2000
    1.5992    0.9420    1.2289 N   0  0  0  0  0  0  0  0  0  0  0  0
    0.2801    1.2251    0.7127 C   0  0  0  0  0  0  0  0  0  0  0  0
   -0.0769    0.0469    0.0547 N   0  0  0  0  0  0  0  0  0  0  0  0
    1.9765   -0.3755    0.8363 C   0  0  1  0  0  0  0  0  0  0  0  0
    1.0487   -0.7306   -0.2928 C   0  0  2  0  0  0  0  0  0  0  0  0
    1.5699   -0.5425   -1.5988 N   0  0  0  0  0  0  0  0  0  0  0  0
    2.3560    0.6207   -1.8207 C   0  0  0  0  0  0  0  0  0  0  0  0
    3.7754    0.3801   -1.6096 N   0  0  0  0  0  0  0  0  0  0  0  0
    4.1361    0.4068   -0.2121 C   0  0  0  0  0  0  0  0  0  0  0  0
    3.4082   -0.6199    0.5857 C   0  0  1  0  0  0  0  0  0  0  0  0
    4.0405   -0.8292    1.8188 O   0  0  0  0  0  0  0  0  0  0  0  0
   -1.9463   -1.3936   -0.1048 C   0  0  0  0  0  0  0  0  0  0  0  0
   -3.3804   -1.0254    0.1266 C   0  0  2  0  0  0  0  0  0  0  0  0
   -4.2317   -1.9271   -0.5098 O   0  0  0  0  0  0  0  0  0  0  0  0
   -4.1735    2.5350    0.0863 O   0  0  0  0  0  0  0  0  0  0  0  0
   -4.4243    1.1996    0.3684 C   0  0  0  0  0  0  0  0  0  0  0  0
   -3.4611    0.3680   -0.4666 C   0  0  1  0  0  0  0  0  0  0  0  0
   -2.1717    0.8914   -0.3550 O   0  0  0  0  0  0  0  0  0  0  0  0
   -1.2747   -0.1200   -0.6041 C   0  0  1  0  0  0  0  0  0  0  0  0
    1.7462   -2.1482    0.2947 N   0  0  0  0  0  0  0  0  0  0  0  0
    0.3293   -2.1014   -0.0178 C   0  0  0  0  0  0  0  0  0  0  0  0
   -0.0822   -0.7088    0.2468 N   0  0  0  0  0  0  0  0  0  0  0  0
    2.1739   -0.8022    0.4955 C   0  0  0  0  0  0  0  0  0  0  0  0
    1.0901   -0.0222   -0.2670 C   0  0  2  0  0  0  0  0  0  0  0  0
    1.2110    1.3428    0.1235 N   0  0  0  0  0  0  0  0  0  0  0  0
    2.0285    2.0149   -0.8807 C   0  0  0  0  0  0  0  0  0  0  0  0
    3.4306    1.8792   -0.6702 N   0  0  0  0  0  0  0  0  0  0  0  0
    3.8187    0.9778    0.3616 C   0  0  0  0  0  0  0  0  0  0  0  0
    3.5319   -0.4835   -0.0114 C   0  0  1  0  0  0  0  0  0  0  0  0
    4.4461   -1.2580    0.7149 O   0  0  0  0  0  0  0  0  0  0  0  0
   -2.3409   -1.4066    0.0242 C   0  0  0  0  0  0  0  0  0  0  0  0
   -3.6118   -0.6337    0.1453 C   0  0  2  0  0  0  0  0  0  0  0  0
   -4.6298   -1.1996   -0.6064 O   0  0  0  0  0  0  0  0  0  0  0  0
   -3.5686    3.0432    0.2243 O   0  0  0  0  0  0  0  0  0  0  0  0
   -3.9273    1.7473    0.4900 C   0  0  0  0  0  0  0  0  0  0  0  0
   -3.1981    0.7299   -0.3689 C   0  0  1  0  0  0  0  0  0  0  0  0
   -1.8302    0.7807   -0.1995 O   0  0  0  0  0  0  0  0  0  0  0  0
   -1.2843   -0.4377   -0.5156 C   0  0  1  0  0  0  0  0  0  0  0  0
    1.5992    0.9420    1.2289 N   0  0  0  0  0  0  0  0  0  0  0  0
    0.2801    1.2251    0.7127 C   0  0  0  0  0  0  0  0  0  0  0  0
   -0.0769    0.0469    0.0547 N   0  0  0  0  0  0  0  0  0  0  0  0
    1.9765   -0.3755    0.8363 C   0  0  1  0  0  0  0  0  0  0  0  0
    1.0487   -0.7306   -0.2928 C   0  0  2  0  0  0  0  0  0  0  0  0
    1.5699   -0.5425   -1.5988 N   0  0  0  0  0  0  0  0  0  0  0  0
    2.3560    0.6207   -1.8207 C   0  0  0  0  0  0  0  0  0  0  0  0
    3.7754    0.3801   -1.6096 N   0  0  0  0  0  0  0  0  0  0  0  0
    4.1361    0.4068   -0.2121 C   0  0  0  0  0  0  0  0  0  0  0  0
    3.4082   -0.6199    0.5857 C   0  0  1  0  0  0  0  0  0  0  0  0
    4.0405   -0.8292    1.8188 O   0  0  0  0  0  0  0  0  0  0  0  0
   -1.9463   -1.3936   -0.1048 C   0  0  0  0  0  0  0  0  0  0  0  0
   -3.3804   -1.0254    0.1266 C   0  0  2  0  0  0  0  0  0  0  0  0
   -4.2317   -1.9271   -0.5098 O   0  0  0  0  0  0  0  0  0  0  0  0
   -4.1735    2.5350    0.0863 O   0  0  0  0  0  0  0  0  0  0  0  0
   -4.4243    1.1996    0.3684 C   0  0  0  0  0  0  0  0  0  0  0  0
   -3.4611    0.3680   -0.4666 C   0  0  1  0  0  0  0  0  0  0  0  0
   -2.1717    0.8914   -0.3550 O   0  0  0  0  0  0  0  0  0  0  0  0
   -1.2747   -0.1200   -0.6041 C   0  0  1  0  0  0  0  0  0  0  0  0
    1.5992    0.9420    1.2289 N   0  0  0  0  0  0  0  0  0  0  0  0
    0.2801    1.2251    0.7127 C   0  0  0  0  0  0  0  0  0  0  0  0
   -0.0769    0.0469    0.0547 N   0  0  0  0  0  0  0  0  0  0  0  0
    1.9765   -0.3755    0.8363 C   0  0  1  0  0  0  0  0  0  0  0  0
    1.0487   -0.7306   -0.2928 C   0  0  2  0  0  0  0  0  0  0  0  0
    1.5699   -0.5425   -1.5988 N   0  0  0  0  0  0  0  0  0  0  0  0
    2.3560    0.6207   -1.8207 C   0  0  0  0  0  0  0  0  0  0  0  0
    3.7754    0.3801   -1.6096 N   0  0  0  0  0  0  0  0  0  0  0  0
    4.1361    0.4068   -0.2121 C   0  0  0  0  0  0  0  0  0  0  0  0
    3.4082   -0.6199    0.5857 C   0  0  1  0  0  0  0  0  0  0  0  0
    4.0405   -0.8292    1.8188 O   0  0  0  0  0  0  0  0  0  0  0  0
   -1.9463   -1.3936   -0.1048 C   0  0  0  0  0  0  0  0  0  0  0  0
   -3.3804   -1.0254    0.1266 C   0  0  2  0  0  0  0  0  0  0  0  0
   -4.2317   -1.9271   -0.5098 O   0  0  0  0  0  0  0  0  0  0  0  0
   -4.1735    2.5350    0.0863 O   0  0  0  0  0  0  0  0  0  0  0  0
   -4.4243    1.1996    0.3684 C   0  0  0  0  0  0  0  0  0  0  0  0
   -3.4611    0.3680   -0.4666 C   0  0  1  0  0  0  0  0  0  0  0  0
   -2.1717    0.8914   -0.3550 O   0  0  0  0  0  0  0  0  0  0  0  0
   -1.2747   -0.1200   -0.6041 C   0  0  1  0  0  0  0  0  0  0  0  0
    2.2907    1.6831    1.0967 H   0  0  0  0  0  0  0  0  0  0  0  0
   -0.3793    1.3796    1.5968 H   0  0  0  0  0  0  0  0  0  0  0  0
    0.2216    2.1556    0.1239 H   0  0  0  0  0  0  0  0  0  0  0  0
    1.6785   -1.0448    1.6894 H   0  0  0  0  0  0  0  0  0  0  0  0
    0.7492   -1.8090   -0.2102 H   0  0  0  0  0  0  0  0  0  0  0  0
    0.7694   -0.5488   -2.2716 H   0  0  0  0  0  0  0  0  0  0  0  0
    2.0552    1.5213   -1.2749 H   0  0  0  0  0  0  0  0  0  0  0  0
    2.2656    0.8849   -2.9067 H   0  0  0  0  0  0  0  0  0  0  0  0
    4.0621   -0.5056   -2.0682 H   0  0  0  0  0  0  0  0  0  0  0  0
    5.2216    0.1245   -0.1797 H   0  0  0  0  0  0  0  0  0  0  0  0
    4.0904    1.4285    0.1867 H   0  0  0  0  0  0  0  0  0  0  0  0
    3.5034   -1.5914    0.0398 H   0  0  0  0  0  0  0  0  0  0  0  0
    3.8669   -1.7628    2.1317 H   0  0  0  0  0  0  0  0  0  0  0  0
   -1.8689   -2.2118   -0.8415 H   0  0  0  0  0  0  0  0  0  0  0  0
   -1.4899   -1.7244    0.8607 H   0  0  0  0  0  0  0  0  0  0  0  0
   -3.6448   -1.0187    1.1940 H   0  0  0  0  0  0  0  0  0  0  0  0
   -4.5788   -2.5978    0.1431 H   0  0  0  0  0  0  0  0  0  0  0  0
   -3.1843    2.6117   -0.0243 H   0  0  0  0  0  0  0  0  0  0  0  0
   -5.4720    0.9411    0.0866 H   0  0  0  0  0  0  0  0  0  0  0  0
   -4.2280    0.9937    1.4148 H   0  0  0  0  0  0  0  0  0  0  0  0
   -3.8169    0.2724   -1.4993 H   0  0  0  0  0  0  0  0  0  0  0  0
   -1.1615   -0.2333   -1.6955 H   0  0  0  0  0  0  0  0  0  0  0  0
    2.2955   -2.6775   -0.4080 H   0  0  0  0  0  0  0  0  0  0  0  0
    0.2303   -2.2120   -1.1302 H   0  0  0  0  0  0  0  0  0  0  0  0
   -0.2720   -2.8108    0.5489 H   0  0  0  0  0  0  0  0  0  0  0  0
    2.1224   -0.5056    1.5650 H   0  0  0  0  0  0  0  0  0  0  0  0
    1.2191   -0.1826   -1.3540 H   0  0  0  0  0  0  0  0  0  0  0  0
    0.3270    1.8426    0.2990 H   0  0  0  0  0  0  0  0  0  0  0  0
    1.7389    3.0660   -1.0186 H   0  0  0  0  0  0  0  0  0  0  0  0
    1.7946    1.5137   -1.8658 H   0  0  0  0  0  0  0  0  0  0  0  0
    3.9759    1.6355   -1.5298 H   0  0  0  0  0  0  0  0  0  0  0  0
    4.9144    1.0503    0.4944 H   0  0  0  0  0  0  0  0  0  0  0  0
    3.3617    1.1927    1.3405 H   0  0  0  0  0  0  0  0  0  0  0  0
    3.6683   -0.5996   -1.0913 H   0  0  0  0  0  0  0  0  0  0  0  0
    4.4090   -2.2064    0.4163 H   0  0  0  0  0  0  0  0  0  0  0  0
   -2.4163   -2.2658   -0.6784 H   0  0  0  0  0  0  0  0  0  0  0  0
   -2.0448   -1.8262    1.0067 H   0  0  0  0  0  0  0  0  0  0  0  0
   -3.9363   -0.5892    1.2217 H   0  0  0  0  0  0  0  0  0  0  0  0
   -4.6886   -2.1553   -0.3106 H   0  0  0  0  0  0  0  0  0  0  0  0
   -2.6341    3.0861   -0.0536 H   0  0  0  0  0  0  0  0  0  0  0  0
   -5.0130    1.6230    0.2920 H   0  0  0  0  0  0  0  0  0  0  0  0
   -3.7641    1.4477    1.5443 H   0  0  0  0  0  0  0  0  0  0  0  0
   -3.4925    0.8480   -1.4375 H   0  0  0  0  0  0  0  0  0  0  0  0
   -1.1284   -0.5886   -1.5976 H   0  0  0  0  0  0  0  0  0  0  0  0
    2.2907    1.6831    1.0967 H   0  0  0  0  0  0  0  0  0  0  0  0
   -0.3793    1.3796    1.5968 H   0  0  0  0  0  0  0  0  0  0  0  0
    0.2216    2.1556    0.1239 H   0  0  0  0  0  0  0  0  0  0  0  0
    1.6785   -1.0448    1.6894 H   0  0  0  0  0  0  0  0  0  0  0  0
    0.7492   -1.8090   -0.2102 H   0  0  0  0  0  0  0  0  0  0  0  0
    0.7694   -0.5488   -2.2716 H   0  0  0  0  0  0  0  0  0  0  0  0
    2.0552    1.5213   -1.2749 H   0  0  0  0  0  0  0  0  0  0  0  0
    2.2656    0.8849   -2.9067 H   0  0  0  0  0  0  0  0  0  0  0  0
    4.0621   -0.5056   -2.0682 H   0  0  0  0  0  0  0  0  0  0  0  0
    5.2216    0.1245   -0.1797 H   0  0  0  0  0  0  0  0  0  0  0  0
    4.0904    1.4285    0.1867 H   0  0  0  0  0  0  0  0  0  0  0  0
    3.5034   -1.5914    0.0398 H   0  0  0  0  0  0  0  0  0  0  0  0
    3.8669   -1.7628    2.1317 H   0  0  0  0  0  0  0  0  0  0  0  0
   -1.8689   -2.2118   -0.8415 H   0  0  0  0  0  0  0  0  0  0  0  0
   -1.4899   -1.7244    0.8607 H   0  0  0  0  0  0  0  0  0  0  0  0
   -3.6448   -1.0187    1.1940 H   0  0  0  0  0  0  0  0  0  0  0  0
   -4.5788   -2.5978    0.1431 H   0  0  0  0  0  0  0  0  0  0  0  0
   -3.1843    2.6117   -0.0243 H   0  0  0  0  0  0  0  0  0  0  0  0
   -5.4720    0.9411    0.0866 H   0  0  0  0  0  0  0  0  0  0  0  0
   -4.2280    0.9937    1.4148 H   0  0  0  0  0  0  0  0  0  0  0  0
   -3.8169    0.2724   -1.4993 H   0  0  0  0  0  0  0  0  0  0  0  0
   -1.1615   -0.2333   -1.6955 H   0  0  0  0  0  0  0  0  0  0  0  0
    2.2907    1.6831    1.0967 H   0  0  0  0  0  0  0  0  0  0  0  0
   -0.3793    1.3796    1.5968 H   0  0  0  0  0  0  0  0  0  0  0  0
    0.2216    2.1556    0.1239 H   0  0  0  0  0  0  0  0  0  0  0  0
    1.6785   -1.0448    1.6894 H   0  0  0  0  0  0  0  0  0  0  0  0
    0.7492   -1.8090   -0.2102 H   0  0  0  0  0  0  0  0  0  0  0  0
    0.7694   -0.5488   -2.2716 H   0  0  0  0  0  0  0  0  0  0  0  0
    2.0552    1.5213   -1.2749 H   0  0  0  0  0  0  0  0  0  0  0  0
    2.2656    0.8849   -2.9067 H   0  0  0  0  0  0  0  0  0  0  0  0
    4.0621   -0.5056   -2.0682 H   0  0  0  0  0  0  0  0  0  0  0  0
    5.2216    0.1245   -0.1797 H   0  0  0  0  0  0  0  0  0  0  0  0
    4.0904    1.4285    0.1867 H   0  0  0  0  0  0  0  0  0  0  0  0
    3.5034   -1.5914    0.0398 H   0  0  0  0  0  0  0  0  0  0  0  0
    3.8669   -1.7628    2.1317 H   0  0  0  0  0  0  0  0  0  0  0  0
   -1.8689   -2.2118   -0.8415 H   0  0  0  0  0  0  0  0  0  0  0  0
   -1.4899   -1.7244    0.8607 H   0  0  0  0  0  0  0  0  0  0  0  0
   -3.6448   -1.0187    1.1940 H   0  0  0  0  0  0  0  0  0  0  0  0
   -4.5788   -2.5978    0.1431 H   0  0  0  0  0  0  0  0  0  0  0  0
   -3.1843    2.6117   -0.0243 H   0  0  0  0  0  0  0  0  0  0  0  0
   -5.4720    0.9411    0.0866 H   0  0  0  0  0  0  0  0  0  0  0  0
   -4.2280    0.9937    1.4148 H   0  0  0  0  0  0  0  0  0  0  0  0
   -3.8169    0.2724   -1.4993 H   0  0  0  0  0  0  0  0  0  0  0  0
   -1.1615   -0.2333   -1.6955 H   0  0  0  0  0  0  0  0  0  0  0  0
  1  2  1  0
  2  3  1  0
  1  4  1  0
  3  5  1  0
  4  5  1  0
  5  6  1  0
  6  7  1  0
  7  8  1  0
  8  9  1  0
  4 10  1  0
  9 10  1  0
 10 11  1  0
 12 13  1  0
 13 14  1  0
 15 16  1  0
 13 17  1  0
 16 17  1  0
 17 18  1  0
  3 19  1  0
 12 19  1  0
 18 19  1  0
 20 21  1  0
 21 22  1  0
 20 23  1  0
 22 24  1  0
 23 24  1  0
 24 25  1  0
 25 26  1  0
 26 27  1  0
 27 28  1  0
 23 29  1  0
 28 29  1  0
 29 30  1  0
 31 32  1  0
 32 33  1  0
 34 35  1  0
 32 36  1  0
 35 36  1  0
 36 37  1  0
 22 38  1  0
 31 38  1  0
 37 38  1  0
 39 40  1  0
 40 41  1  0
 39 42  1  0
 41 43  1  0
 42 43  1  0
 43 44  1  0
 44 45  1  0
 45 46  1  0
 46 47  1  0
 42 48  1  0
 47 48  1  0
 48 49  1  0
 50 51  1  0
 51 52  1  0
 53 54  1  0
 51 55  1  0
 54 55  1  0
 55 56  1  0
 41 57  1  0
 50 57  1  0
 56 57  1  0
 58 59  1  0
 59 60  1  0
 58 61  1  0
 60 62  1  0
 61 62  1  0
 62 63  1  0
 63 64  1  0
 64 65  1  0
 65 66  1  0
 61 67  1  0
 66 67  1  0
 67 68  1  0
 69 70  1  0
 70 71  1  0
 72 73  1  0
 70 74  1  0
 73 74  1  0
 74 75  1  0
 60 76  1  0
 69 76  1  0
 75 76  1  0
  1 77  1  0
  2 78  1  0
  2 79  1  0
  4 80  1  1
  5 81  1  1
  6 82  1  0
  7 83  1  0
  7 84  1  0
  8 85  1  0
  9 86  1  0
  9 87  1  0
 10 88  1  6
 11 89  1  0
 12 90  1  0
 12 91  1  0
 13 92  1  1
 14 93  1  0
 15 94  1  0
 16 95  1  0
 16 96  1  0
 17 97  1  6
 19 98  1  6
 20 99  1  0
 21100  1  0
 21101  1  0
 23102  1  0
 24103  1  6
 25104  1  0
 26105  1  0
 26106  1  0
 27107  1  0
 28108  1  0
 28109  1  0
 29110  1  6
 30111  1  0
 31112  1  0
 31113  1  0
 32114  1  1
 33115  1  0
 34116  1  0
 35117  1  0
 35118  1  0
 36119  1  6
 38120  1  6
 39121  1  0
 40122  1  0
 40123  1  0
 42124  1  1
 43125  1  1
 44126  1  0
 45127  1  0
 45128  1  0
 46129  1  0
 47130  1  0
 47131  1  0
 48132  1  6
 49133  1  0
 50134  1  0
 50135  1  0
 51136  1  1
 52137  1  0
 53138  1  0
 54139  1  0
 54140  1  0
 55141  1  6
 57142  1  6
 58143  1  0
 59144  1  0
 59145  1  0
 61146  1  1
 62147  1  1
 63148  1  0
 64149  1  0
 64150  1  0
 65151  1  0
 66152  1  0
 66153  1  0
 67154  1  6
 68155  1  0
 69156  1  0
 69157  1  0
 70158  1  1
 71159  1  0
 72160  1  0
 73161  1  0
 73162  1  0
 74163  1  6
 76164  1  6
M  END
>  <PDBID>  (1) 
1A4L

>  <PDB ID>  (1) 
1A4L

>  <Generic Name>  (1) 
Pentostatin

>  <Brand Name>  (1) 
Nipent#Nipent Pws 10mg/vial

>  <DrugBank ID>  (1) 
DB00552

>  <ATC Codes>  (1) 
L01XX08

>  <Ligand ID>  (1) 
DCF

>  <Target Name>  (1) 
Adenosine deaminase

>  <UniProt ID>  (1) 
P00813

>  <PDB ID.1>  (1) 
1A4L

>  <Seq. Identity>  (1) 
83%

$$$$
