PDB_DB00275_04
     RDKit          3D

 81 84  0  0  0  0  0  0  0  0999 V2000
    1.6336    0.1168    1.1878 C   0  0  0  0  0  0  0  0  0  0  0  0
    0.2596    0.7022    0.8371 C   0  0  0  0  0  0  0  0  0  0  0  0
   -5.1708    1.4750    2.9764 O   0  0  0  0  0  0  0  0  0  0  0  0
   -0.0837    0.2146   -0.5202 C   0  0  0  0  0  0  0  0  0  0  0  0
   -3.0176    3.1105   -0.5433 O   0  0  0  0  0  0  0  0  0  0  0  0
   -1.4367    0.6118   -1.0434 C   0  0  0  0  0  0  0  0  0  0  0  0
   -4.8952    2.0093   -0.8978 O   0  0  0  0  0  0  0  0  0  0  0  0
   -5.3936   -1.3865   -2.0927 C   0  0  0  0  0  0  0  0  0  0  0  0
   -3.9802   -1.3314   -2.5509 C   0  0  0  0  0  0  0  0  0  0  0  0
   -3.0208   -1.8538   -1.5499 C   0  0  0  0  0  0  0  0  0  0  0  0
   -2.9924   -1.0982   -0.2732 C   0  0  0  0  0  0  0  0  0  0  0  0
   -4.2611   -1.0560    0.4702 N   0  0  0  0  0  0  0  0  0  0  0  0
   -4.0025    0.0820    1.3998 C   0  0  0  0  0  0  0  0  0  0  0  0
   -5.2383    0.4188    2.0644 C   0  0  0  0  0  0  0  0  0  0  0  0
   -6.4759    0.6130    1.2553 C   0  0  0  0  0  0  0  0  0  0  0  0
   -5.5761   -0.7833    2.9931 C   0  0  0  0  0  0  0  0  0  0  0  0
   -3.2304    1.0522    0.5810 C   0  0  0  0  0  0  0  0  0  0  0  0
   -3.9491    2.2510    0.0888 C   0  0  0  0  0  0  0  0  0  0  0  0
   -2.5715    0.2430   -0.3790 N   0  0  0  0  0  0  0  0  0  0  0  0
    0.9226    0.8937   -1.4709 C   0  0  0  0  0  0  0  0  0  0  0  0
    2.3079    0.3912   -1.2313 C   0  0  0  0  0  0  0  0  0  0  0  0
    2.6885    0.4800    0.2041 C   0  0  0  0  0  0  0  0  0  0  0  0
    3.8960   -0.3903    0.5172 C   0  0  0  0  0  0  0  0  0  0  0  0
    3.5881   -1.8450    0.4119 C   0  0  0  0  0  0  0  0  0  0  0  0
    4.7954   -2.6636    0.0956 C   0  0  0  0  0  0  0  0  0  0  0  0
    5.4484   -2.2452   -1.1754 C   0  0  0  0  0  0  0  0  0  0  0  0
    5.3503   -0.7949   -1.5005 C   0  0  0  0  0  0  0  0  0  0  0  0
    5.0322    0.0876   -0.3234 C   0  0  0  0  0  0  0  0  0  0  0  0
    6.3208    0.3007    0.4722 C   0  0  0  0  0  0  0  0  0  0  0  0
    6.1583    1.2774    1.5098 N   0  0  0  0  0  0  0  0  0  0  0  0
    6.6193    2.4855    0.9963 N   0  0  0  0  0  0  0  0  0  0  0  0
    7.5932    2.1457    0.0492 N   0  0  0  0  0  0  0  0  0  0  0  0
    7.2747    0.8873   -0.4251 N   0  0  0  0  0  0  0  0  0  0  0  0
    1.4645   -0.9932    1.2621 H   0  0  0  0  0  0  0  0  0  0  0  0
    1.8964    0.5295    2.1788 H   0  0  0  0  0  0  0  0  0  0  0  0
   -0.3999    0.3368    1.6458 H   0  0  0  0  0  0  0  0  0  0  0  0
    0.2740    1.7963    0.8425 H   0  0  0  0  0  0  0  0  0  0  0  0
   -5.7905    2.1735    2.7201 H   0  0  0  0  0  0  0  0  0  0  0  0
    0.1183   -0.8786   -0.6675 H   0  0  0  0  0  0  0  0  0  0  0  0
   -2.6382    3.7489    0.1084 H   0  0  0  0  0  0  0  0  0  0  0  0
   -1.4685    0.1673   -2.0939 H   0  0  0  0  0  0  0  0  0  0  0  0
   -1.3362    1.7064   -1.2555 H   0  0  0  0  0  0  0  0  0  0  0  0
   -4.4121    1.8049   -1.7281 H   0  0  0  0  0  0  0  0  0  0  0  0
   -5.9799   -1.8363   -2.9611 H   0  0  0  0  0  0  0  0  0  0  0  0
   -5.7895   -0.3744   -1.8824 H   0  0  0  0  0  0  0  0  0  0  0  0
   -5.5371   -2.0357   -1.2095 H   0  0  0  0  0  0  0  0  0  0  0  0
   -3.8212   -1.8791   -3.5250 H   0  0  0  0  0  0  0  0  0  0  0  0
   -3.7421   -0.2621   -2.7750 H   0  0  0  0  0  0  0  0  0  0  0  0
   -1.9795   -1.8307   -1.9939 H   0  0  0  0  0  0  0  0  0  0  0  0
   -3.2142   -2.9502   -1.3323 H   0  0  0  0  0  0  0  0  0  0  0  0
   -2.3453   -1.7170    0.4137 H   0  0  0  0  0  0  0  0  0  0  0  0
   -4.4311   -1.9242    1.0007 H   0  0  0  0  0  0  0  0  0  0  0  0
   -3.3030   -0.3927    2.1547 H   0  0  0  0  0  0  0  0  0  0  0  0
   -6.5175    0.1359    0.2863 H   0  0  0  0  0  0  0  0  0  0  0  0
   -7.4017    0.2425    1.7993 H   0  0  0  0  0  0  0  0  0  0  0  0
   -6.7118    1.7093    1.1146 H   0  0  0  0  0  0  0  0  0  0  0  0
   -5.9414   -1.6285    2.3577 H   0  0  0  0  0  0  0  0  0  0  0  0
   -6.3725   -0.4335    3.6567 H   0  0  0  0  0  0  0  0  0  0  0  0
   -4.6755   -1.0254    3.5536 H   0  0  0  0  0  0  0  0  0  0  0  0
   -2.4263    1.4743    1.2580 H   0  0  0  0  0  0  0  0  0  0  0  0
   -4.3243    2.8245    0.9432 H   0  0  0  0  0  0  0  0  0  0  0  0
    0.6044    0.7895   -2.5087 H   0  0  0  0  0  0  0  0  0  0  0  0
    0.8956    1.9823   -1.1708 H   0  0  0  0  0  0  0  0  0  0  0  0
    2.3807   -0.6221   -1.6740 H   0  0  0  0  0  0  0  0  0  0  0  0
    2.9978    1.0351   -1.8229 H   0  0  0  0  0  0  0  0  0  0  0  0
    2.9979    1.5330    0.4117 H   0  0  0  0  0  0  0  0  0  0  0  0
    4.1396   -0.1721    1.5981 H   0  0  0  0  0  0  0  0  0  0  0  0
    2.8057   -2.0950   -0.3334 H   0  0  0  0  0  0  0  0  0  0  0  0
    3.1560   -2.1876    1.3951 H   0  0  0  0  0  0  0  0  0  0  0  0
    5.4854   -2.7044    0.9762 H   0  0  0  0  0  0  0  0  0  0  0  0
    4.4515   -3.7331   -0.0151 H   0  0  0  0  0  0  0  0  0  0  0  0
    6.4979   -2.6022   -1.1944 H   0  0  0  0  0  0  0  0  0  0  0  0
    4.9324   -2.8018   -2.0094 H   0  0  0  0  0  0  0  0  0  0  0  0
    4.6735   -0.5904   -2.3767 H   0  0  0  0  0  0  0  0  0  0  0  0
    6.3633   -0.4592   -1.8713 H   0  0  0  0  0  0  0  0  0  0  0  0
    4.8141    1.1066   -0.7624 H   0  0  0  0  0  0  0  0  0  0  0  0
    6.6984   -0.6434    0.9117 H   0  0  0  0  0  0  0  0  0  0  0  0
    6.8042    1.0342    2.3080 H   0  0  0  0  0  0  0  0  0  0  0  0
    5.8739    3.0694    0.5866 H   0  0  0  0  0  0  0  0  0  0  0  0
    7.5575    2.8877   -0.6831 H   0  0  0  0  0  0  0  0  0  0  0  0
    8.0832    0.2839   -0.6358 H   0  0  0  0  0  0  0  0  0  0  0  0
  1  2  1  0
  2  4  1  0
  4  6  1  0
  8  9  1  0
  9 10  1  0
 10 11  1  0
 11 12  1  0
 12 13  1  0
 14  3  1  0
 13 14  1  0
 14 15  1  0
 14 16  1  0
 13 17  1  0
  5 18  1  0
  7 18  1  0
 17 18  1  0
  6 19  1  0
 11 19  1  0
 17 19  1  0
  4 20  1  0
 20 21  1  0
  1 22  1  0
 21 22  1  0
 22 23  1  0
 23 24  1  0
 24 25  1  0
 25 26  1  0
 26 27  1  0
 23 28  1  0
 27 28  1  0
 28 29  1  0
 29 30  1  0
 30 31  1  0
 31 32  1  0
 29 33  1  0
 32 33  1  0
  1 34  1  0
  1 35  1  0
  2 36  1  0
  2 37  1  0
  3 38  1  0
  4 39  1  0
  5 40  1  0
  6 41  1  0
  6 42  1  0
  7 43  1  0
  8 44  1  0
  8 45  1  0
  8 46  1  0
  9 47  1  0
  9 48  1  0
 10 49  1  0
 10 50  1  0
 11 51  1  0
 12 52  1  0
 13 53  1  0
 15 54  1  0
 15 55  1  0
 15 56  1  0
 16 57  1  0
 16 58  1  0
 16 59  1  0
 17 60  1  0
 18 61  1  0
 20 62  1  0
 20 63  1  0
 21 64  1  0
 21 65  1  0
 22 66  1  0
 23 67  1  0
 24 68  1  0
 24 69  1  0
 25 70  1  0
 25 71  1  0
 26 72  1  0
 26 73  1  0
 27 74  1  0
 27 75  1  0
 28 76  1  0
 29 77  1  0
 30 78  1  0
 31 79  1  0
 32 80  1  0
 33 81  1  0
M  END
>  <PDBID>  (1) 
4ZUD

>  <PDB ID>  (1) 
4ZUD

>  <Generic Name>  (1) 
Olmesartan

>  <Brand Name>  (1) 
Amlodipine Besylate and Olmesartan Medoxomil#Amlodipine and Olmesartan Medoxomil#Azor#Benicar#Benicar Hct#Olmesartan Medoxmil and Hydrochlorothiazide#Olmesartan Medoxomil#Olmesartan Medoxomil / Amlodipine Besylate / Hydrochlorothiazide#Olmesartan Medoxomil and Hydrochlorothiazide#Olmesartan Medoxomil, Amlodipine and Hydrochlorothiazide#Olmesartan Medoxomil, Amlodipine and Hydrochlorothiazide 20/5/12.5 mg#Olmesartan Medoxomil, Amlodipine and Hydrochlorothiazide 40/10/12.5 mg#Olmesartan Medoxomil, Amlodipine and Hydrochlorothiazide 40/10/25 mg#Olmesartan Medoxomil, Amlodipine and Hydrochlorothiazide 40/5/12.5 mg#Olmesartan Medoxomil, Amlodipine and Hydrochlorothiazide 40/5/25 mg#Olmetec#Olmetec Plus#Tribenzor#Erastapex#Golme#Olmetec#WinBP

>  <DrugBank ID>  (1) 
DB00275

>  <ATC Codes>  (1) 
C09DA08#C09CA08#C09DX03#C09DB02

>  <Ligand ID>  (1) 
OLM

>  <Target Name>  (1) 
Type-1 angiotensin II receptor

>  <UniProt ID>  (1) 
P30556

>  <PDB ID.1>  (1) 
4ZUD

>  <Seq. Identity>  (1) 
87%

$$$$
