PDB_DB00299_07
     RDKit          3D

 82 84  0  0  0  0  0  0  0  0999 V2000
    3.4251    1.3278   -0.3832 C   0  0  0  0  0  0  0  0  0  0  0  0
    1.4275    0.1855    0.1317 C   0  0  0  0  0  0  0  0  0  0  0  0
    2.1741   -1.1300    0.0397 C   0  0  0  0  0  0  0  0  0  0  0  0
   -3.3590   -1.2272   -0.3176 C   0  0  0  0  0  0  0  0  0  0  0  0
   -4.6100   -1.7912    0.1431 O   0  0  0  0  0  0  0  0  0  0  0  0
   -4.5574    0.8901   -0.4310 C   0  0  0  0  0  0  0  0  0  0  0  0
   -4.5279    2.1987   -0.0150 O   0  0  0  0  0  0  0  0  0  0  0  0
   -3.2711    0.1786    0.1600 C   0  0  0  0  0  0  0  0  0  0  0  0
   -2.1421    1.0334   -0.1833 C   0  0  0  0  0  0  0  0  0  0  0  0
   -0.7641    0.8222    0.1623 C   0  0  0  0  0  0  0  0  0  0  0  0
    0.0814   -0.2323   -0.2542 N   0  0  0  0  0  0  0  0  0  0  0  0
    2.0611    1.0888   -0.7556 N   0  0  0  0  0  0  0  0  0  0  0  0
    4.0943    1.9512   -1.5047 N   0  0  0  0  0  0  0  0  0  0  0  0
    4.1591    0.2455    0.0967 N   0  0  0  0  0  0  0  0  0  0  0  0
    3.5063   -0.8678    0.6567 C   0  0  0  0  0  0  0  0  0  0  0  0
    4.2541   -2.0408    0.5663 O   0  0  0  0  0  0  0  0  0  0  0  0
    1.2903   -1.9146    0.8941 N   0  0  0  0  0  0  0  0  0  0  0  0
   -0.0554   -1.4642    0.4632 C   0  0  0  0  0  0  0  0  0  0  0  0
    3.4251    1.3278   -0.3832 C   0  0  0  0  0  0  0  0  0  0  0  0
    1.4275    0.1855    0.1317 C   0  0  0  0  0  0  0  0  0  0  0  0
    2.1741   -1.1300    0.0397 C   0  0  0  0  0  0  0  0  0  0  0  0
   -3.3590   -1.2272   -0.3176 C   0  0  0  0  0  0  0  0  0  0  0  0
   -4.6100   -1.7912    0.1431 O   0  0  0  0  0  0  0  0  0  0  0  0
   -4.5574    0.8901   -0.4310 C   0  0  0  0  0  0  0  0  0  0  0  0
   -4.5279    2.1987   -0.0150 O   0  0  0  0  0  0  0  0  0  0  0  0
   -3.2711    0.1786    0.1600 C   0  0  0  0  0  0  0  0  0  0  0  0
   -2.1421    1.0334   -0.1833 C   0  0  0  0  0  0  0  0  0  0  0  0
   -0.7641    0.8222    0.1623 C   0  0  0  0  0  0  0  0  0  0  0  0
    0.0814   -0.2323   -0.2542 N   0  0  0  0  0  0  0  0  0  0  0  0
    2.0611    1.0888   -0.7556 N   0  0  0  0  0  0  0  0  0  0  0  0
    4.0943    1.9512   -1.5047 N   0  0  0  0  0  0  0  0  0  0  0  0
    4.1591    0.2455    0.0967 N   0  0  0  0  0  0  0  0  0  0  0  0
    3.5063   -0.8678    0.6567 C   0  0  0  0  0  0  0  0  0  0  0  0
    4.2541   -2.0408    0.5663 O   0  0  0  0  0  0  0  0  0  0  0  0
    1.2903   -1.9146    0.8941 N   0  0  0  0  0  0  0  0  0  0  0  0
   -0.0554   -1.4642    0.4632 C   0  0  0  0  0  0  0  0  0  0  0  0
    3.3884    2.1231    0.4225 H   0  0  0  0  0  0  0  0  0  0  0  0
    1.4619    0.5838    1.1614 H   0  0  0  0  0  0  0  0  0  0  0  0
    2.2360   -1.4996   -0.9847 H   0  0  0  0  0  0  0  0  0  0  0  0
   -3.3207   -1.3087   -1.4198 H   0  0  0  0  0  0  0  0  0  0  0  0
   -2.6333   -1.9150    0.1300 H   0  0  0  0  0  0  0  0  0  0  0  0
   -4.4777   -2.7247    0.4266 H   0  0  0  0  0  0  0  0  0  0  0  0
   -5.4387    0.3309   -0.0902 H   0  0  0  0  0  0  0  0  0  0  0  0
   -4.3798    0.8242   -1.5172 H   0  0  0  0  0  0  0  0  0  0  0  0
   -4.4349    2.3009    0.9502 H   0  0  0  0  0  0  0  0  0  0  0  0
   -3.4600    0.1955    1.2841 H   0  0  0  0  0  0  0  0  0  0  0  0
   -2.2160    1.2508   -1.3344 H   0  0  0  0  0  0  0  0  0  0  0  0
   -2.4445    2.1081    0.1922 H   0  0  0  0  0  0  0  0  0  0  0  0
   -0.1818    1.8012   -0.1149 H   0  0  0  0  0  0  0  0  0  0  0  0
   -0.6255    0.8553    1.3308 H   0  0  0  0  0  0  0  0  0  0  0  0
    1.8720    0.9909   -1.7591 H   0  0  0  0  0  0  0  0  0  0  0  0
    3.7909    1.5657   -2.4302 H   0  0  0  0  0  0  0  0  0  0  0  0
    5.1244    1.8284   -1.4306 H   0  0  0  0  0  0  0  0  0  0  0  0
    5.1569    0.1897   -0.0961 H   0  0  0  0  0  0  0  0  0  0  0  0
    3.3207   -0.6867    1.7468 H   0  0  0  0  0  0  0  0  0  0  0  0
    3.7239   -2.7493    1.0585 H   0  0  0  0  0  0  0  0  0  0  0  0
    1.4827   -1.6929    1.8721 H   0  0  0  0  0  0  0  0  0  0  0  0
   -0.4508   -2.2515   -0.2296 H   0  0  0  0  0  0  0  0  0  0  0  0
   -0.6806   -1.3739    1.3624 H   0  0  0  0  0  0  0  0  0  0  0  0
    3.3884    2.1231    0.4225 H   0  0  0  0  0  0  0  0  0  0  0  0
    1.4619    0.5838    1.1614 H   0  0  0  0  0  0  0  0  0  0  0  0
    2.2360   -1.4996   -0.9847 H   0  0  0  0  0  0  0  0  0  0  0  0
   -3.3207   -1.3087   -1.4198 H   0  0  0  0  0  0  0  0  0  0  0  0
   -2.6333   -1.9150    0.1300 H   0  0  0  0  0  0  0  0  0  0  0  0
   -4.4777   -2.7247    0.4266 H   0  0  0  0  0  0  0  0  0  0  0  0
   -5.4387    0.3309   -0.0902 H   0  0  0  0  0  0  0  0  0  0  0  0
   -4.3798    0.8242   -1.5172 H   0  0  0  0  0  0  0  0  0  0  0  0
   -4.4349    2.3009    0.9502 H   0  0  0  0  0  0  0  0  0  0  0  0
   -3.4600    0.1955    1.2841 H   0  0  0  0  0  0  0  0  0  0  0  0
   -2.2160    1.2508   -1.3344 H   0  0  0  0  0  0  0  0  0  0  0  0
   -2.4445    2.1081    0.1922 H   0  0  0  0  0  0  0  0  0  0  0  0
   -0.1818    1.8012   -0.1149 H   0  0  0  0  0  0  0  0  0  0  0  0
   -0.6255    0.8553    1.3308 H   0  0  0  0  0  0  0  0  0  0  0  0
    1.8720    0.9909   -1.7591 H   0  0  0  0  0  0  0  0  0  0  0  0
    3.7909    1.5657   -2.4302 H   0  0  0  0  0  0  0  0  0  0  0  0
    5.1244    1.8284   -1.4306 H   0  0  0  0  0  0  0  0  0  0  0  0
    5.1569    0.1897   -0.0961 H   0  0  0  0  0  0  0  0  0  0  0  0
    3.3207   -0.6867    1.7468 H   0  0  0  0  0  0  0  0  0  0  0  0
    3.7239   -2.7493    1.0585 H   0  0  0  0  0  0  0  0  0  0  0  0
    1.4827   -1.6929    1.8721 H   0  0  0  0  0  0  0  0  0  0  0  0
   -0.4508   -2.2515   -0.2296 H   0  0  0  0  0  0  0  0  0  0  0  0
   -0.6806   -1.3739    1.3624 H   0  0  0  0  0  0  0  0  0  0  0  0
  2  3  1  0
  4  5  1  0
  6  7  1  0
  4  8  1  0
  6  8  1  0
  8  9  1  0
  9 10  1  0
  2 11  1  0
 10 11  1  0
  1 12  1  0
  2 12  1  0
  1 13  1  0
  1 14  1  0
  3 15  1  0
 14 15  1  0
 15 16  1  0
  3 17  1  0
 11 18  1  0
 17 18  1  0
 20 21  1  0
 22 23  1  0
 24 25  1  0
 22 26  1  0
 24 26  1  0
 26 27  1  0
 27 28  1  0
 20 29  1  0
 28 29  1  0
 19 30  1  0
 20 30  1  0
 19 31  1  0
 19 32  1  0
 21 33  1  0
 32 33  1  0
 33 34  1  0
 21 35  1  0
 29 36  1  0
 35 36  1  0
  1 37  1  0
  2 38  1  0
  3 39  1  0
  4 40  1  0
  4 41  1  0
  5 42  1  0
  6 43  1  0
  6 44  1  0
  7 45  1  0
  8 46  1  0
  9 47  1  0
  9 48  1  0
 10 49  1  0
 10 50  1  0
 12 51  1  0
 13 52  1  0
 13 53  1  0
 14 54  1  0
 15 55  1  0
 16 56  1  0
 17 57  1  0
 18 58  1  0
 18 59  1  0
 19 60  1  0
 20 61  1  0
 21 62  1  0
 22 63  1  0
 22 64  1  0
 23 65  1  0
 24 66  1  0
 24 67  1  0
 25 68  1  0
 26 69  1  0
 27 70  1  0
 27 71  1  0
 28 72  1  0
 28 73  1  0
 30 74  1  0
 31 75  1  0
 31 76  1  0
 32 77  1  0
 33 78  1  0
 34 79  1  0
 35 80  1  0
 36 81  1  0
 36 82  1  0
M  END
>  <PDBID>  (1) 
1KI3

>  <PDB ID>  (1) 
1KI3

>  <Generic Name>  (1) 
Penciclovir

>  <Brand Name>  (1) 
Denavir#Penciclovir

>  <DrugBank ID>  (1) 
DB00299

>  <ATC Codes>  (1) 
D06BB06#J05AB13

>  <Ligand ID>  (1) 
PE2

>  <Target Name>  (1) 
Thymidine kinase

>  <UniProt ID>  (1) 
P06478

>  <PDB ID.1>  (1) 
1KI3

>  <Seq. Identity>  (1) 
98%

$$$$
