PDB_DB01254_09
     RDKit          3D

154160  0  0  0  0  0  0  0  0999 V2000
    2.8042    0.7130   -1.2584 C   0  0  0  0  0  0  0  0  0  0  0  0
    2.9432    0.9656    0.2305 C   0  0  0  0  0  0  0  0  0  0  0  0
    3.8208   -0.1975    0.7197 C   0  0  0  0  0  0  0  0  0  0  0  0
   -7.0438    0.1354   -0.8360 N   0  0  0  0  0  0  0  0  0  0  0  0
    8.7351    0.3657   -0.5390 C   0  0  0  0  0  0  0  0  0  0  0  0
    8.6094   -1.0148    0.0914 C   0  0  0  0  0  0  0  0  0  0  0  0
    7.1381   -1.3118    0.0528 C   0  0  0  0  0  0  0  0  0  0  0  0
    6.7931   -1.3959   -1.4424 C   0  0  0  0  0  0  0  0  0  0  0  0
   -1.4079   -1.0034   -0.4384 C   0  0  0  0  0  0  0  0  0  0  0  0
   -2.8076   -1.1355   -0.9932 C   0  0  0  0  0  0  0  0  0  0  0  0
   -3.8819   -0.6696   -0.0856 C   0  0  0  0  0  0  0  0  0  0  0  0
   -2.3173   -0.6605    1.7753 C   0  0  0  0  0  0  0  0  0  0  0  0
   -2.1476    0.8000    2.1490 C   0  0  0  0  0  0  0  0  0  0  0  0
   -4.8387    0.7678   -1.6848 C   0  0  0  0  0  0  0  0  0  0  0  0
   -5.3321    1.0805    0.5632 C   0  0  0  0  0  0  0  0  0  0  0  0
   -8.4050    0.6699   -0.7623 C   0  0  0  0  0  0  0  0  0  0  0  0
   -9.3718   -0.3493   -0.1969 C   0  0  0  0  0  0  0  0  0  0  0  0
   -0.7216    0.1624   -0.9734 N   0  0  0  0  0  0  0  0  0  0  0  0
    0.6758   -0.0636   -0.9131 C   0  0  1  0  0  0  0  0  0  0  0  0
    1.4477    0.9460   -1.6542 N   0  0  0  0  0  0  0  0  0  0  0  0
    1.2488    0.4840    0.7687 S   0  0  0  0  0  0  0  0  0  0  0  0
    5.0636   -0.1951   -0.0354 N   0  0  0  0  0  0  0  0  0  0  0  0
    6.2733   -0.2942    0.7321 C   0  0  2  0  0  0  0  0  0  0  0  0
    6.8891    1.0127    1.0648 C   0  0  0  0  0  0  0  0  0  0  0  0
    8.2297    1.3119    0.5180 C   0  0  0  0  0  0  0  0  0  0  0  0
    6.9676    1.2283    2.8539 Cl  0  0  0  0  0  0  0  0  0  0  0  0
    4.0949    0.1043    2.0721 O   0  0  0  0  0  0  0  0  0  0  0  0
   -3.6553   -0.9296    1.2997 N   0  0  0  0  0  0  0  0  0  0  0  0
   -1.2869   -1.1916    0.9542 N   0  0  0  0  0  0  0  0  0  0  0  0
   -4.2836    0.7044   -0.3305 N   0  0  0  0  0  0  0  0  0  0  0  0
   -6.3020    1.1079   -1.6567 C   0  0  0  0  0  0  0  0  0  0  0  0
   -6.5376    0.1885    0.5361 C   0  0  0  0  0  0  0  0  0  0  0  0
   -9.0357   -0.7954    1.0613 O   0  0  0  0  0  0  0  0  0  0  0  0
    2.9999    0.0153   -2.2492 C   0  0  0  0  0  0  0  0  0  0  0  0
    3.4793    1.2089   -1.4077 C   0  0  0  0  0  0  0  0  0  0  0  0
    3.6384    0.8746    0.0150 C   0  0  0  0  0  0  0  0  0  0  0  0
   -7.1414   -0.1948   -0.7087 N   0  0  0  0  0  0  0  0  0  0  0  0
    8.0692   -1.1801   -0.0539 C   0  0  0  0  0  0  0  0  0  0  0  0
    8.2239    0.1878    0.5534 C   0  0  0  0  0  0  0  0  0  0  0  0
    6.8755    0.9196    0.4815 C   0  0  0  0  0  0  0  0  0  0  0  0
    6.7902    1.4945   -0.8822 C   0  0  0  0  0  0  0  0  0  0  0  0
   -0.6903   -0.3999   -0.0654 C   0  0  0  0  0  0  0  0  0  0  0  0
   -1.9681   -0.2433   -0.8231 C   0  0  0  0  0  0  0  0  0  0  0  0
   -3.0544    0.4576   -0.1003 C   0  0  2  0  0  0  0  0  0  0  0  0
   -2.0799   -0.4100    1.9285 C   0  0  0  0  0  0  0  0  0  0  0  0
   -2.7650   -1.7307    2.0763 C   0  0  0  0  0  0  0  0  0  0  0  0
   -4.8666   -0.2284   -1.5747 C   0  0  0  0  0  0  0  0  0  0  0  0
   -5.2625    0.5010    0.6669 C   0  0  0  0  0  0  0  0  0  0  0  0
   -8.3908    0.5306   -0.7327 C   0  0  0  0  0  0  0  0  0  0  0  0
   -9.4692   -0.2612   -0.0685 C   0  0  0  0  0  0  0  0  0  0  0  0
    0.2215    0.6684   -0.3173 N   0  0  0  0  0  0  0  0  0  0  0  0
    0.8090    0.7403   -1.6294 C   0  0  2  0  0  0  0  0  0  0  0  0
    1.7007   -0.3398   -1.8836 N   0  0  0  0  0  0  0  0  0  0  0  0
    1.9101    2.1952   -1.6140 S   0  0  0  0  0  0  0  0  0  0  0  0
    4.5556   -0.0995    0.3844 N   0  0  0  0  0  0  0  0  0  0  0  0
    5.7668    0.1536    1.0273 C   0  0  0  0  0  0  0  0  0  0  0  0
    6.2138   -1.2012    1.6529 C   0  0  0  0  0  0  0  0  0  0  0  0
    6.9569   -1.9592    0.6187 C   0  0  0  0  0  0  0  0  0  0  0  0
    7.0620   -0.9514    3.1706 Cl  0  0  0  0  0  0  0  0  0  0  0  0
    3.8897    2.1134    0.7063 O   0  0  0  0  0  0  0  0  0  0  0  0
   -2.8436    0.6210    1.3248 N   0  0  0  0  0  0  0  0  0  0  0  0
   -0.7849   -0.5933    1.3380 N   0  0  0  0  0  0  0  0  0  0  0  0
   -4.3376   -0.1873   -0.2517 N   0  0  0  0  0  0  0  0  0  0  0  0
   -6.2160    0.4960   -1.6049 C   0  0  0  0  0  0  0  0  0  0  0  0
   -6.5859   -0.2159    0.6396 C   0  0  0  0  0  0  0  0  0  0  0  0
   -9.2317   -0.5694    1.2473 O   0  0  0  0  0  0  0  0  0  0  0  0
    3.1459   -0.2653   -1.5681 H   0  0  0  0  0  0  0  0  0  0  0  0
    3.4459    1.4701   -1.7488 H   0  0  0  0  0  0  0  0  0  0  0  0
    3.2469    1.9370    0.5435 H   0  0  0  0  0  0  0  0  0  0  0  0
    3.3122   -1.1538    0.6969 H   0  0  0  0  0  0  0  0  0  0  0  0
    9.8210    0.5666   -0.6636 H   0  0  0  0  0  0  0  0  0  0  0  0
    8.1914    0.3827   -1.4810 H   0  0  0  0  0  0  0  0  0  0  0  0
    9.0162   -1.0388    1.0956 H   0  0  0  0  0  0  0  0  0  0  0  0
    9.1059   -1.7812   -0.5465 H   0  0  0  0  0  0  0  0  0  0  0  0
    6.9829   -2.3311    0.4540 H   0  0  0  0  0  0  0  0  0  0  0  0
    6.3909   -0.4320   -1.8309 H   0  0  0  0  0  0  0  0  0  0  0  0
    7.7266   -1.5609   -2.0400 H   0  0  0  0  0  0  0  0  0  0  0  0
    6.1577   -2.2730   -1.6648 H   0  0  0  0  0  0  0  0  0  0  0  0
   -0.8319   -1.8679   -0.9117 H   0  0  0  0  0  0  0  0  0  0  0  0
   -3.0010   -2.1948   -1.3201 H   0  0  0  0  0  0  0  0  0  0  0  0
   -2.8091   -0.5610   -1.9527 H   0  0  0  0  0  0  0  0  0  0  0  0
   -4.8032   -1.2649   -0.3665 H   0  0  0  0  0  0  0  0  0  0  0  0
   -2.2426   -1.2149    2.7621 H   0  0  0  0  0  0  0  0  0  0  0  0
   -2.4935    1.4811    1.3788 H   0  0  0  0  0  0  0  0  0  0  0  0
   -2.8186    0.9999    3.0381 H   0  0  0  0  0  0  0  0  0  0  0  0
   -1.1379    0.9574    2.5214 H   0  0  0  0  0  0  0  0  0  0  0  0
   -4.3143    1.5829   -2.2130 H   0  0  0  0  0  0  0  0  0  0  0  0
   -4.7768   -0.2156   -2.2154 H   0  0  0  0  0  0  0  0  0  0  0  0
   -5.6567    2.1118    0.3557 H   0  0  0  0  0  0  0  0  0  0  0  0
   -4.9904    1.0977    1.6309 H   0  0  0  0  0  0  0  0  0  0  0  0
   -8.7285    1.0965   -1.7004 H   0  0  0  0  0  0  0  0  0  0  0  0
   -8.4274    1.5205   -0.0071 H   0  0  0  0  0  0  0  0  0  0  0  0
  -10.3779    0.1468   -0.2455 H   0  0  0  0  0  0  0  0  0  0  0  0
   -9.3297   -1.2268   -0.8998 H   0  0  0  0  0  0  0  0  0  0  0  0
   -0.9510    1.0248   -0.4301 H   0  0  0  0  0  0  0  0  0  0  0  0
    1.0051   -1.0775   -1.1160 H   0  0  0  0  0  0  0  0  0  0  0  0
    1.1215    1.8945   -1.4072 H   0  0  0  0  0  0  0  0  0  0  0  0
    4.9542   -1.0475   -0.6913 H   0  0  0  0  0  0  0  0  0  0  0  0
    5.9545   -0.7741    1.6943 H   0  0  0  0  0  0  0  0  0  0  0  0
    6.1849    1.8052    0.7259 H   0  0  0  0  0  0  0  0  0  0  0  0
    9.0233    1.3512    1.2921 H   0  0  0  0  0  0  0  0  0  0  0  0
    8.2552    2.3355    0.0375 H   0  0  0  0  0  0  0  0  0  0  0  0
    3.3265   -0.1759    2.6221 H   0  0  0  0  0  0  0  0  0  0  0  0
   -3.8106   -1.9685    1.4598 H   0  0  0  0  0  0  0  0  0  0  0  0
   -0.9906   -2.1655    1.2332 H   0  0  0  0  0  0  0  0  0  0  0  0
   -6.6853    0.9222   -2.7015 H   0  0  0  0  0  0  0  0  0  0  0  0
   -6.5529    2.1465   -1.4562 H   0  0  0  0  0  0  0  0  0  0  0  0
   -6.3150   -0.8339    0.9472 H   0  0  0  0  0  0  0  0  0  0  0  0
   -7.2684    0.6455    1.2364 H   0  0  0  0  0  0  0  0  0  0  0  0
   -9.4135   -0.3075    1.8099 H   0  0  0  0  0  0  0  0  0  0  0  0
    3.6923   -0.8157   -1.9895 H   0  0  0  0  0  0  0  0  0  0  0  0
    3.1321    0.2482   -3.3300 H   0  0  0  0  0  0  0  0  0  0  0  0
    4.2787    1.6932   -1.9237 H   0  0  0  0  0  0  0  0  0  0  0  0
    2.6360    0.5851    0.4567 H   0  0  0  0  0  0  0  0  0  0  0  0
    9.0155   -1.7320    0.0789 H   0  0  0  0  0  0  0  0  0  0  0  0
    7.8850   -1.0504   -1.1395 H   0  0  0  0  0  0  0  0  0  0  0  0
    8.9436    0.7566   -0.0774 H   0  0  0  0  0  0  0  0  0  0  0  0
    8.6443    0.1931    1.5739 H   0  0  0  0  0  0  0  0  0  0  0  0
    7.0803    1.8336    1.1584 H   0  0  0  0  0  0  0  0  0  0  0  0
    7.8475    1.7650   -1.1947 H   0  0  0  0  0  0  0  0  0  0  0  0
    6.2254    2.4579   -0.8832 H   0  0  0  0  0  0  0  0  0  0  0  0
    6.4628    0.7791   -1.6585 H   0  0  0  0  0  0  0  0  0  0  0  0
   -0.2441   -1.3778   -0.4919 H   0  0  0  0  0  0  0  0  0  0  0  0
   -2.3624   -1.2299   -1.1864 H   0  0  0  0  0  0  0  0  0  0  0  0
   -1.7279    0.3395   -1.7628 H   0  0  0  0  0  0  0  0  0  0  0  0
   -3.1312    1.5161   -0.4947 H   0  0  0  0  0  0  0  0  0  0  0  0
   -1.8819   -0.0535    2.9874 H   0  0  0  0  0  0  0  0  0  0  0  0
   -3.8508   -1.7344    1.9696 H   0  0  0  0  0  0  0  0  0  0  0  0
   -2.3245   -2.4740    1.3467 H   0  0  0  0  0  0  0  0  0  0  0  0
   -2.5457   -2.2107    3.0799 H   0  0  0  0  0  0  0  0  0  0  0  0
   -4.2635    0.2079   -2.3638 H   0  0  0  0  0  0  0  0  0  0  0  0
   -5.0729   -1.3086   -1.8277 H   0  0  0  0  0  0  0  0  0  0  0  0
   -5.3195    1.5619    0.3924 H   0  0  0  0  0  0  0  0  0  0  0  0
   -4.7989    0.3849    1.6875 H   0  0  0  0  0  0  0  0  0  0  0  0
   -8.6709    0.9152   -1.7217 H   0  0  0  0  0  0  0  0  0  0  0  0
   -8.2147    1.4568   -0.0982 H   0  0  0  0  0  0  0  0  0  0  0  0
  -10.4101    0.3473   -0.1754 H   0  0  0  0  0  0  0  0  0  0  0  0
   -9.5772   -1.2300   -0.6128 H   0  0  0  0  0  0  0  0  0  0  0  0
   -0.1701    1.5963   -0.0153 H   0  0  0  0  0  0  0  0  0  0  0  0
    0.0368    0.8462   -2.4194 H   0  0  0  0  0  0  0  0  0  0  0  0
    1.7266   -0.9827   -1.0592 H   0  0  0  0  0  0  0  0  0  0  0  0
    4.4169   -1.0511    0.0006 H   0  0  0  0  0  0  0  0  0  0  0  0
    5.4678    0.7063    2.0401 H   0  0  0  0  0  0  0  0  0  0  0  0
    5.2522   -1.7460    1.8626 H   0  0  0  0  0  0  0  0  0  0  0  0
    7.3689   -2.9282    1.0444 H   0  0  0  0  0  0  0  0  0  0  0  0
    6.2573   -2.2851   -0.1759 H   0  0  0  0  0  0  0  0  0  0  0  0
    3.8407    1.9584    1.6824 H   0  0  0  0  0  0  0  0  0  0  0  0
   -2.5685    1.5667    1.6025 H   0  0  0  0  0  0  0  0  0  0  0  0
   -0.4316   -1.5350    1.6522 H   0  0  0  0  0  0  0  0  0  0  0  0
   -6.6134    0.3553   -2.6283 H   0  0  0  0  0  0  0  0  0  0  0  0
   -6.1110    1.5562   -1.4328 H   0  0  0  0  0  0  0  0  0  0  0  0
   -6.4040   -1.2757    0.9033 H   0  0  0  0  0  0  0  0  0  0  0  0
   -7.2487    0.3038    1.3776 H   0  0  0  0  0  0  0  0  0  0  0  0
   -9.7419   -0.0371    1.9018 H   0  0  0  0  0  0  0  0  0  0  0  0
  1  2  1  0
  2  3  1  0
  5  6  1  0
  6  7  1  0
  7  8  1  0
  9 10  1  0
 10 11  1  0
 12 13  1  0
  4 16  1  0
 16 17  1  0
  9 18  1  0
 18 19  1  0
  1 20  1  0
 19 20  1  0
  2 21  1  0
 19 21  1  0
  3 22  1  0
  7 23  1  0
 22 23  1  0
 23 24  1  0
  5 25  1  0
 24 25  1  0
 24 26  1  0
  3 27  1  0
 11 28  1  0
 12 28  1  0
  9 29  1  0
 12 29  1  0
 11 30  1  0
 14 30  1  0
 15 30  1  0
  4 31  1  0
 14 31  1  0
  4 32  1  0
 15 32  1  0
 17 33  1  0
 34 35  1  0
 35 36  1  0
 38 39  1  0
 39 40  1  0
 40 41  1  0
 42 43  1  0
 43 44  1  0
 45 46  1  0
 37 49  1  0
 49 50  1  0
 42 51  1  0
 51 52  1  0
 34 53  1  0
 52 53  1  0
 35 54  1  0
 52 54  1  0
 36 55  1  0
 40 56  1  0
 55 56  1  0
 56 57  1  0
 38 58  1  0
 57 58  1  0
 57 59  1  0
 36 60  1  0
 44 61  1  0
 45 61  1  0
 42 62  1  0
 45 62  1  0
 44 63  1  0
 47 63  1  0
 48 63  1  0
 37 64  1  0
 47 64  1  0
 37 65  1  0
 48 65  1  0
 50 66  1  0
  1 67  1  0
  1 68  1  0
  2 69  1  0
  3 70  1  0
  5 71  1  0
  5 72  1  0
  6 73  1  0
  6 74  1  0
  7 75  1  0
  8 76  1  0
  8 77  1  0
  8 78  1  0
  9 79  1  0
 10 80  1  0
 10 81  1  0
 11 82  1  0
 12 83  1  0
 13 84  1  0
 13 85  1  0
 13 86  1  0
 14 87  1  0
 14 88  1  0
 15 89  1  0
 15 90  1  0
 16 91  1  0
 16 92  1  0
 17 93  1  0
 17 94  1  0
 18 95  1  0
 19 96  1  6
 20 97  1  0
 22 98  1  0
 23 99  1  1
 24100  1  0
 25101  1  0
 25102  1  0
 27103  1  0
 28104  1  0
 29105  1  0
 31106  1  0
 31107  1  0
 32108  1  0
 32109  1  0
 33110  1  0
 34111  1  0
 34112  1  0
 35113  1  0
 36114  1  0
 38115  1  0
 38116  1  0
 39117  1  0
 39118  1  0
 40119  1  0
 41120  1  0
 41121  1  0
 41122  1  0
 42123  1  0
 43124  1  0
 43125  1  0
 44126  1  6
 45127  1  0
 46128  1  0
 46129  1  0
 46130  1  0
 47131  1  0
 47132  1  0
 48133  1  0
 48134  1  0
 49135  1  0
 49136  1  0
 50137  1  0
 50138  1  0
 51139  1  0
 52140  1  6
 53141  1  0
 55142  1  0
 56143  1  0
 57144  1  0
 58145  1  0
 58146  1  0
 60147  1  0
 61148  1  0
 62149  1  0
 64150  1  0
 64151  1  0
 65152  1  0
 65153  1  0
 66154  1  0
M  END
>  <PDBID>  (1) 
2GQG

>  <PDB ID>  (1) 
2GQG

>  <Generic Name>  (1) 
Dasatinib

>  <Brand Name>  (1) 
Sprycel

>  <DrugBank ID>  (1) 
DB01254

>  <ATC Codes>  (1) 
L01XE06

>  <Ligand ID>  (1) 
1N1

>  <Target Name>  (1) 
Tyrosine-protein kinase ABL1

>  <UniProt ID>  (1) 
P00519

>  <PDB ID.1>  (1) 
2GQG

>  <Seq. Identity>  (1) 
96%

$$$$
