PDB_DB01072_02
     RDKit          3D

129131  0  0  0  0  0  0  0  0999 V2000
   -6.8807    4.4375   -0.1348 C   0  0  0  0  0  0  0  0  0  0  0  0
   -6.8639    3.1914   -0.7385 O   0  0  0  0  0  0  0  0  0  0  0  0
   -5.9713    3.0926   -1.7954 C   0  0  0  0  0  0  0  0  0  0  0  0
   -6.5697    2.9743   -3.0377 O   0  0  0  0  0  0  0  0  0  0  0  0
   -4.9458    2.1610   -1.6232 N   0  0  0  0  0  0  0  0  0  0  0  0
   -5.1322    0.8270   -1.3026 C   0  0  1  0  0  0  0  0  0  0  0  0
   -5.8370   -0.0013   -2.3119 C   0  0  0  0  0  0  0  0  0  0  0  0
   -5.1259    0.0043   -3.6658 C   0  0  0  0  0  0  0  0  0  0  0  0
   -5.6970   -1.4901   -1.8589 C   0  0  0  0  0  0  0  0  0  0  0  0
   -7.2907    0.2644   -2.5355 C   0  0  0  0  0  0  0  0  0  0  0  0
   -3.7746    0.1861   -0.9111 C   0  0  0  0  0  0  0  0  0  0  0  0
   -3.0095    0.3186   -2.0967 O   0  0  0  0  0  0  0  0  0  0  0  0
   -3.1811    0.9126    0.1558 N   0  0  0  0  0  0  0  0  0  0  0  0
   -2.0561    0.3436    0.8098 C   0  0  1  0  0  0  0  0  0  0  0  0
   -2.3334   -0.9298    1.5571 C   0  0  0  0  0  0  0  0  0  0  0  0
   -3.3450   -0.8042    2.6557 C   0  0  0  0  0  0  0  0  0  0  0  0
   -3.5396   -2.1581    3.3564 C   0  0  0  0  0  0  0  0  0  0  0  0
   -4.2118   -1.9441    4.6665 C   0  0  0  0  0  0  0  0  0  0  0  0
   -5.0151   -0.6822    4.6482 C   0  0  0  0  0  0  0  0  0  0  0  0
   -5.7172   -0.4511    3.3248 C   0  0  0  0  0  0  0  0  0  0  0  0
   -4.6999   -0.2938    2.2027 C   0  0  0  0  0  0  0  0  0  0  0  0
   -0.8803    0.1755   -0.1529 C   0  0  1  0  0  0  0  0  0  0  0  0
   -0.6310    1.4729   -0.6210 O   0  0  0  0  0  0  0  0  0  0  0  0
    0.3428   -0.3543    0.5637 C   0  0  0  0  0  0  0  0  0  0  0  0
    1.5116   -0.4406   -0.2659 N   0  0  0  0  0  0  0  0  0  0  0  0
    1.2249   -1.3192   -1.2828 N   0  0  0  0  0  0  0  0  0  0  0  0
    2.1428   -2.3680   -1.5277 C   0  0  0  0  0  0  0  0  0  0  0  0
    3.3647   -1.8344   -1.9167 O   0  0  0  0  0  0  0  0  0  0  0  0
    2.3961   -3.2819   -0.3577 C   0  0  2  0  0  0  0  0  0  0  0  0
    3.6199   -4.1388   -0.5007 C   0  0  0  0  0  0  0  0  0  0  0  0
    3.6521   -5.0429   -1.6840 C   0  0  0  0  0  0  0  0  0  0  0  0
    3.7305   -4.9893    0.7784 C   0  0  0  0  0  0  0  0  0  0  0  0
    4.8804   -3.2736   -0.5047 C   0  0  0  0  0  0  0  0  0  0  0  0
    1.3242   -3.9253    0.2278 N   0  0  0  0  0  0  0  0  0  0  0  0
    0.4617   -4.8143   -0.3836 C   0  0  0  0  0  0  0  0  0  0  0  0
   -0.4962   -5.1952    0.6319 O   0  0  0  0  0  0  0  0  0  0  0  0
    0.9265   -6.0214   -0.8442 O   0  0  0  0  0  0  0  0  0  0  0  0
    0.3756   -6.3783   -2.0750 C   0  0  0  0  0  0  0  0  0  0  0  0
    2.0971    0.7351   -0.7461 C   0  0  0  0  0  0  0  0  0  0  0  0
    2.7424    1.6701    0.2116 C   0  0  0  0  0  0  0  0  0  0  0  0
    3.2670    2.8438   -0.6410 C   0  0  0  0  0  0  0  0  0  0  0  0
    3.7604    3.8538    0.3641 C   0  0  0  0  0  0  0  0  0  0  0  0
    3.9962    1.0638    0.8145 C   0  0  0  0  0  0  0  0  0  0  0  0
    4.8167    2.0194    1.6028 C   0  0  0  0  0  0  0  0  0  0  0  0
    5.0022    3.3763    1.0335 C   0  0  0  0  0  0  0  0  0  0  0  0
    6.2264    3.4704    0.1558 C   0  0  0  0  0  0  0  0  0  0  0  0
    6.5219    4.8558   -0.2990 C   0  0  0  0  0  0  0  0  0  0  0  0
    7.0849    5.7313    0.7977 C   0  0  0  0  0  0  0  0  0  0  0  0
    8.4179    5.1845    1.2102 C   0  0  0  0  0  0  0  0  0  0  0  0
    8.5502    3.7803    0.7165 C   0  0  0  0  0  0  0  0  0  0  0  0
    7.3612    2.9884    0.9204 N   0  0  0  0  0  0  0  0  0  0  0  0
   -7.6088    4.4779    0.7104 H   0  0  0  0  0  0  0  0  0  0  0  0
   -5.8568    4.7043    0.2498 H   0  0  0  0  0  0  0  0  0  0  0  0
   -7.1559    5.2662   -0.8298 H   0  0  0  0  0  0  0  0  0  0  0  0
   -5.5070    4.1582   -1.8394 H   0  0  0  0  0  0  0  0  0  0  0  0
   -6.1396    3.5156   -3.7338 H   0  0  0  0  0  0  0  0  0  0  0  0
   -4.0306    2.6079   -1.5470 H   0  0  0  0  0  0  0  0  0  0  0  0
   -5.7255    0.7411   -0.3346 H   0  0  0  0  0  0  0  0  0  0  0  0
   -4.7741    1.0115   -3.9542 H   0  0  0  0  0  0  0  0  0  0  0  0
   -4.3191   -0.7584   -3.7036 H   0  0  0  0  0  0  0  0  0  0  0  0
   -5.8833   -0.2953   -4.4179 H   0  0  0  0  0  0  0  0  0  0  0  0
   -6.5347   -2.0571   -2.3332 H   0  0  0  0  0  0  0  0  0  0  0  0
   -5.8006   -1.5911   -0.7828 H   0  0  0  0  0  0  0  0  0  0  0  0
   -4.7566   -1.8492   -2.2617 H   0  0  0  0  0  0  0  0  0  0  0  0
   -7.5027    0.5375   -3.6062 H   0  0  0  0  0  0  0  0  0  0  0  0
   -7.7843    0.9143   -1.8159 H   0  0  0  0  0  0  0  0  0  0  0  0
   -7.8514   -0.7366   -2.4538 H   0  0  0  0  0  0  0  0  0  0  0  0
   -3.8986   -0.8720   -0.7236 H   0  0  0  0  0  0  0  0  0  0  0  0
   -2.7710    1.2312   -2.3107 H   0  0  0  0  0  0  0  0  0  0  0  0
   -3.3184    1.9144    0.2019 H   0  0  0  0  0  0  0  0  0  0  0  0
   -1.7049    1.0885    1.5650 H   0  0  0  0  0  0  0  0  0  0  0  0
   -1.3788   -1.2554    2.0722 H   0  0  0  0  0  0  0  0  0  0  0  0
   -2.6604   -1.7522    0.8846 H   0  0  0  0  0  0  0  0  0  0  0  0
   -2.9759   -0.1048    3.4281 H   0  0  0  0  0  0  0  0  0  0  0  0
   -4.1545   -2.7952    2.6836 H   0  0  0  0  0  0  0  0  0  0  0  0
   -2.5254   -2.5881    3.5248 H   0  0  0  0  0  0  0  0  0  0  0  0
   -4.9113   -2.7750    4.9230 H   0  0  0  0  0  0  0  0  0  0  0  0
   -3.4629   -1.8614    5.4894 H   0  0  0  0  0  0  0  0  0  0  0  0
   -4.4469    0.2211    4.9472 H   0  0  0  0  0  0  0  0  0  0  0  0
   -5.8410   -0.7829    5.4121 H   0  0  0  0  0  0  0  0  0  0  0  0
   -6.4579   -1.2388    3.1144 H   0  0  0  0  0  0  0  0  0  0  0  0
   -6.2754    0.4980    3.4068 H   0  0  0  0  0  0  0  0  0  0  0  0
   -4.6922    0.7649    1.9108 H   0  0  0  0  0  0  0  0  0  0  0  0
   -5.0559   -0.9256    1.3863 H   0  0  0  0  0  0  0  0  0  0  0  0
   -1.1273   -0.4974   -0.9919 H   0  0  0  0  0  0  0  0  0  0  0  0
   -0.3233    1.9979    0.1595 H   0  0  0  0  0  0  0  0  0  0  0  0
    0.5089    0.0903    1.5429 H   0  0  0  0  0  0  0  0  0  0  0  0
    0.0911   -1.4444    0.7728 H   0  0  0  0  0  0  0  0  0  0  0  0
    0.8211   -0.9361   -2.1386 H   0  0  0  0  0  0  0  0  0  0  0  0
    1.7658   -2.9339   -2.4201 H   0  0  0  0  0  0  0  0  0  0  0  0
    3.2773   -1.5494   -2.8595 H   0  0  0  0  0  0  0  0  0  0  0  0
    2.7521   -2.5082    0.4617 H   0  0  0  0  0  0  0  0  0  0  0  0
    4.6525   -5.0132   -2.2092 H   0  0  0  0  0  0  0  0  0  0  0  0
    3.5707   -6.0932   -1.3489 H   0  0  0  0  0  0  0  0  0  0  0  0
    2.8341   -4.8525   -2.4003 H   0  0  0  0  0  0  0  0  0  0  0  0
    4.7602   -5.0364    1.1360 H   0  0  0  0  0  0  0  0  0  0  0  0
    3.0195   -4.6395    1.5461 H   0  0  0  0  0  0  0  0  0  0  0  0
    3.4373   -6.0229    0.5091 H   0  0  0  0  0  0  0  0  0  0  0  0
    4.6107   -2.3233   -0.0042 H   0  0  0  0  0  0  0  0  0  0  0  0
    5.6618   -3.7574    0.1258 H   0  0  0  0  0  0  0  0  0  0  0  0
    5.2492   -3.1325   -1.5504 H   0  0  0  0  0  0  0  0  0  0  0  0
    1.1294   -3.7110    1.2373 H   0  0  0  0  0  0  0  0  0  0  0  0
   -0.2217   -4.4178   -1.1737 H   0  0  0  0  0  0  0  0  0  0  0  0
    0.0855   -5.4440    1.3986 H   0  0  0  0  0  0  0  0  0  0  0  0
    0.6315   -5.5835   -2.7972 H   0  0  0  0  0  0  0  0  0  0  0  0
    0.8352   -7.3125   -2.4687 H   0  0  0  0  0  0  0  0  0  0  0  0
   -0.7323   -6.4509   -2.0450 H   0  0  0  0  0  0  0  0  0  0  0  0
    1.4671    1.3105   -1.4787 H   0  0  0  0  0  0  0  0  0  0  0  0
    2.9509    0.3930   -1.4288 H   0  0  0  0  0  0  0  0  0  0  0  0
    2.0966    2.1210    0.9593 H   0  0  0  0  0  0  0  0  0  0  0  0
    2.4490    3.2893   -1.2385 H   0  0  0  0  0  0  0  0  0  0  0  0
    4.1272    2.5260   -1.2541 H   0  0  0  0  0  0  0  0  0  0  0  0
    3.8321    4.8731   -0.0559 H   0  0  0  0  0  0  0  0  0  0  0  0
    2.9558    3.9117    1.1551 H   0  0  0  0  0  0  0  0  0  0  0  0
    4.5612    0.5579    0.0055 H   0  0  0  0  0  0  0  0  0  0  0  0
    3.6588    0.2413    1.5100 H   0  0  0  0  0  0  0  0  0  0  0  0
    4.3944    2.1015    2.6280 H   0  0  0  0  0  0  0  0  0  0  0  0
    5.8291    1.5683    1.7260 H   0  0  0  0  0  0  0  0  0  0  0  0
    5.1884    4.0755    1.9013 H   0  0  0  0  0  0  0  0  0  0  0  0
    6.1419    2.8197   -0.7447 H   0  0  0  0  0  0  0  0  0  0  0  0
    5.6768    5.3455   -0.8239 H   0  0  0  0  0  0  0  0  0  0  0  0
    7.3327    4.7774   -1.0821 H   0  0  0  0  0  0  0  0  0  0  0  0
    7.1782    6.7824    0.4308 H   0  0  0  0  0  0  0  0  0  0  0  0
    6.3890    5.6964    1.6663 H   0  0  0  0  0  0  0  0  0  0  0  0
    9.2603    5.7965    0.8366 H   0  0  0  0  0  0  0  0  0  0  0  0
    8.5403    5.1863    2.3329 H   0  0  0  0  0  0  0  0  0  0  0  0
    8.8822    3.6909   -0.3317 H   0  0  0  0  0  0  0  0  0  0  0  0
    9.3526    3.2892    1.3195 H   0  0  0  0  0  0  0  0  0  0  0  0
    7.6152    2.0022    0.6318 H   0  0  0  0  0  0  0  0  0  0  0  0
  1  2  1  0
  2  3  1  0
  3  4  1  0
  3  5  1  0
  5  6  1  0
  6  7  1  0
  7  8  1  0
  7  9  1  0
  7 10  1  0
  6 11  1  0
 11 12  1  0
 11 13  1  0
 13 14  1  0
 14 15  1  0
 15 16  1  0
 16 17  1  0
 17 18  1  0
 18 19  1  0
 19 20  1  0
 16 21  1  0
 20 21  1  0
 14 22  1  0
 22 23  1  0
 22 24  1  0
 24 25  1  0
 25 26  1  0
 26 27  1  0
 27 28  1  0
 27 29  1  0
 29 30  1  0
 30 31  1  0
 30 32  1  0
 30 33  1  0
 29 34  1  0
 34 35  1  0
 35 36  1  0
 35 37  1  0
 37 38  1  0
 25 39  1  0
 39 40  1  0
 40 41  1  0
 41 42  1  0
 40 43  1  0
 43 44  1  0
 42 45  1  0
 44 45  1  0
 45 46  1  0
 46 47  1  0
 47 48  1  0
 48 49  1  0
 49 50  1  0
 46 51  1  0
 50 51  1  0
  1 52  1  0
  1 53  1  0
  1 54  1  0
  3 55  1  0
  4 56  1  0
  5 57  1  0
  6 58  1  1
  8 59  1  0
  8 60  1  0
  8 61  1  0
  9 62  1  0
  9 63  1  0
  9 64  1  0
 10 65  1  0
 10 66  1  0
 10 67  1  0
 11 68  1  0
 12 69  1  0
 13 70  1  0
 14 71  1  1
 15 72  1  0
 15 73  1  0
 16 74  1  0
 17 75  1  0
 17 76  1  0
 18 77  1  0
 18 78  1  0
 19 79  1  0
 19 80  1  0
 20 81  1  0
 20 82  1  0
 21 83  1  0
 21 84  1  0
 22 85  1  6
 23 86  1  0
 24 87  1  0
 24 88  1  0
 26 89  1  0
 27 90  1  0
 28 91  1  0
 29 92  1  1
 31 93  1  0
 31 94  1  0
 31 95  1  0
 32 96  1  0
 32 97  1  0
 32 98  1  0
 33 99  1  0
 33100  1  0
 33101  1  0
 34102  1  0
 35103  1  0
 36104  1  0
 38105  1  0
 38106  1  0
 38107  1  0
 39108  1  0
 39109  1  0
 40110  1  0
 41111  1  0
 41112  1  0
 42113  1  0
 42114  1  0
 43115  1  0
 43116  1  0
 44117  1  0
 44118  1  0
 45119  1  0
 46120  1  0
 47121  1  0
 47122  1  0
 48123  1  0
 48124  1  0
 49125  1  0
 49126  1  0
 50127  1  0
 50128  1  0
 51129  1  0
M  END
>  <PDBID>  (1) 
2AQU

>  <PDB ID>  (1) 
2AQU

>  <Generic Name>  (1) 
Atazanavir

>  <Brand Name>  (1) 
Evotaz#Reyataz#Latazanavir#Zrivada

>  <DrugBank ID>  (1) 
DB01072

>  <ATC Codes>  (1) 
J05AE08#J05AR15

>  <Ligand ID>  (1) 
DR7

>  <Target Name>  (1) 
Pol polyprotein

>  <UniProt ID>  (1) 
Q72874

>  <PDB ID.1>  (1) 
2AQU

>  <Seq. Identity>  (1) 
99%

$$$$
