PDB_DB00710_07
     RDKit          3D

 46 45  0  0  0  0  0  0  0  0999 V2000
   -1.9643    0.6375   -1.2982 P   0  0  0  0  0  0  0  0  0  0  0  0
   -2.8788    1.7737   -0.7842 O   0  0  0  0  0  0  0  0  0  0  0  0
   -3.0131    0.6487   -2.6638 O   0  0  0  0  0  0  0  0  0  0  0  0
   -0.6207    1.5360   -1.3620 O   0  0  0  0  0  0  0  0  0  0  0  0
   -2.3108   -0.4386    0.0192 C   0  0  0  0  0  0  0  0  0  0  0  0
   -3.9745   -0.8836    0.3145 P   0  0  0  0  0  0  0  0  0  0  0  0
   -4.9482    0.1262    1.2552 O   0  0  0  0  0  0  0  0  0  0  0  0
   -3.7755   -1.7111    1.5988 O   0  0  0  0  0  0  0  0  0  0  0  0
   -4.6603   -2.1686   -0.4548 O   0  0  0  0  0  0  0  0  0  0  0  0
   -1.9715    0.3040    1.2154 O   0  0  0  0  0  0  0  0  0  0  0  0
   -1.4206   -1.6544    0.2240 C   0  0  0  0  0  0  0  0  0  0  0  0
   -0.0069   -1.3773    0.4911 C   0  0  0  0  0  0  0  0  0  0  0  0
    0.7951   -0.7264   -0.4752 N   0  0  0  0  0  0  0  0  0  0  0  0
    2.0966   -0.4540    0.1553 C   0  0  0  0  0  0  0  0  0  0  0  0
    3.0001    0.2389   -0.8123 C   0  0  0  0  0  0  0  0  0  0  0  0
    4.3397    0.5541   -0.2584 C   0  0  0  0  0  0  0  0  0  0  0  0
    4.3222    1.4496    0.9431 C   0  0  0  0  0  0  0  0  0  0  0  0
    3.6901    2.7864    0.6642 C   0  0  0  0  0  0  0  0  0  0  0  0
    1.0322   -1.5670   -1.6602 C   0  0  0  0  0  0  0  0  0  0  0  0
   -1.3716   -0.2334   -2.0286 H   0  0  0  0  0  0  0  0  0  0  0  0
   -2.8586    2.6622   -1.1572 H   0  0  0  0  0  0  0  0  0  0  0  0
   -3.7002    0.0078   -2.4603 H   0  0  0  0  0  0  0  0  0  0  0  0
   -0.4085    2.2068   -0.7175 H   0  0  0  0  0  0  0  0  0  0  0  0
   -4.4893   -0.1768   -0.6293 H   0  0  0  0  0  0  0  0  0  0  0  0
   -4.3489    0.8114    1.5717 H   0  0  0  0  0  0  0  0  0  0  0  0
   -4.4596   -2.2164    2.0576 H   0  0  0  0  0  0  0  0  0  0  0  0
   -3.9535   -2.7658   -0.7093 H   0  0  0  0  0  0  0  0  0  0  0  0
   -2.3546    1.1937    1.1802 H   0  0  0  0  0  0  0  0  0  0  0  0
   -1.6148   -2.3905   -0.5868 H   0  0  0  0  0  0  0  0  0  0  0  0
   -1.8454   -2.1660    1.1409 H   0  0  0  0  0  0  0  0  0  0  0  0
    0.5494   -2.3134    0.8018 H   0  0  0  0  0  0  0  0  0  0  0  0
    0.0452   -0.7499    1.4351 H   0  0  0  0  0  0  0  0  0  0  0  0
    1.9389    0.1404    1.0681 H   0  0  0  0  0  0  0  0  0  0  0  0
    2.5109   -1.4328    0.4583 H   0  0  0  0  0  0  0  0  0  0  0  0
    2.4993    1.1737   -1.1298 H   0  0  0  0  0  0  0  0  0  0  0  0
    3.1537   -0.4617   -1.6736 H   0  0  0  0  0  0  0  0  0  0  0  0
    4.9162   -0.3628   -0.0076 H   0  0  0  0  0  0  0  0  0  0  0  0
    4.9393    1.0669   -1.0473 H   0  0  0  0  0  0  0  0  0  0  0  0
    3.9263    0.9562    1.8309 H   0  0  0  0  0  0  0  0  0  0  0  0
    5.4043    1.6755    1.1816 H   0  0  0  0  0  0  0  0  0  0  0  0
    4.3653    3.4613    0.0947 H   0  0  0  0  0  0  0  0  0  0  0  0
    3.5659    3.2811    1.6709 H   0  0  0  0  0  0  0  0  0  0  0  0
    2.7100    2.7160    0.1866 H   0  0  0  0  0  0  0  0  0  0  0  0
    1.9408   -2.1550   -1.5682 H   0  0  0  0  0  0  0  0  0  0  0  0
    1.1054   -0.8523   -2.5097 H   0  0  0  0  0  0  0  0  0  0  0  0
    0.1031   -2.1504   -1.8341 H   0  0  0  0  0  0  0  0  0  0  0  0
  1  2  1  0
  1  3  1  0
  1  4  1  0
  1  5  1  0
  5  6  1  0
  6  7  1  0
  6  8  1  0
  6  9  1  0
  5 10  1  0
  5 11  1  0
 11 12  1  0
 12 13  1  0
 13 14  1  0
 14 15  1  0
 15 16  1  0
 16 17  1  0
 17 18  1  0
 13 19  1  0
  1 20  1  0
  2 21  1  0
  3 22  1  0
  4 23  1  0
  6 24  1  0
  7 25  1  0
  8 26  1  0
  9 27  1  0
 10 28  1  0
 11 29  1  0
 11 30  1  0
 12 31  1  0
 12 32  1  0
 14 33  1  0
 14 34  1  0
 15 35  1  0
 15 36  1  0
 16 37  1  0
 16 38  1  0
 17 39  1  0
 17 40  1  0
 18 41  1  0
 18 42  1  0
 18 43  1  0
 19 44  1  0
 19 45  1  0
 19 46  1  0
M  END
>  <PDBID>  (1) 
2F94

>  <PDB ID>  (1) 
2F94

>  <Generic Name>  (1) 
Ibandronate

>  <Brand Name>  (1) 
Bondronat#Boniva#Ibandronate Sodium#ADRONiL#Bonviva

>  <DrugBank ID>  (1) 
DB00710

>  <ATC Codes>  (1) 
M05BA06

>  <Ligand ID>  (1) 
BFQ

>  <Target Name>  (1) 
Farnesyl pyrophosphate synthase

>  <UniProt ID>  (1) 
P14324

>  <PDB ID.1>  (1) 
2F94

>  <Seq. Identity>  (1) 
100%

$$$$
