PDB_DB01024_00
     RDKit          3D

110112  0  0  0  0  0  0  0  0999 V2000
   -2.9177    1.8618   -1.8054 C   0  0  0  0  0  0  0  0  0  0  0  0
    1.3616   -0.5137    0.8244 C   0  0  0  0  0  0  0  0  0  0  0  0
    2.7714   -1.0166    0.9172 C   0  0  0  0  0  0  0  0  0  0  0  0
    3.6338   -0.6835   -0.2328 C   0  0  0  0  0  0  0  0  0  0  0  0
    3.8304    0.7759   -0.5127 C   0  0  0  0  0  0  0  0  0  0  0  0
    4.4984    1.5527    0.5866 C   0  0  0  0  0  0  0  0  0  0  0  0
   -3.8066   -0.9434   -0.4851 C   0  0  0  0  0  0  0  0  0  0  0  0
   -1.4841   -2.8787    1.8944 C   0  0  0  0  0  0  0  0  0  0  0  0
    2.7382   -2.5581    1.0085 C   0  0  0  0  0  0  0  0  0  0  0  0
   -4.1332    1.9672    0.0847 C   0  0  0  0  0  0  0  0  0  0  0  0
   -2.8707    1.2152    0.4246 C   0  0  0  0  0  0  0  0  0  0  0  0
   -3.0272   -0.2365    0.5504 C   0  0  0  0  0  0  0  0  0  0  0  0
   -1.6628   -0.9091    0.6604 C   0  0  0  0  0  0  0  0  0  0  0  0
   -0.7874   -0.5692   -0.4968 C   0  0  1  0  0  0  0  0  0  0  0  0
   -0.7831    0.8492   -0.9344 C   0  0  0  0  0  0  0  0  0  0  0  0
   -1.9486    1.6821   -0.6592 C   0  0  0  0  0  0  0  0  0  0  0  0
    0.6171   -1.0410   -0.3448 C   0  0  0  0  0  0  0  0  0  0  0  0
   -2.3815    2.6624   -2.8095 O   0  0  0  0  0  0  0  0  0  0  0  0
   -3.9773    2.5110   -1.1770 O   0  0  0  0  0  0  0  0  0  0  0  0
   -1.8363   -2.2984    0.7070 O   0  0  0  0  0  0  0  0  0  0  0  0
   -0.4984    0.8700   -2.3270 O   0  0  0  0  0  0  0  0  0  0  0  0
    4.6064    2.8813    0.1431 O   0  0  0  0  0  0  0  0  0  0  0  0
    3.7458    1.4900    1.7475 O   0  0  0  0  0  0  0  0  0  0  0  0
   -3.6978    1.3902   -1.9212 C   0  0  2  0  0  0  0  0  0  0  0  0
    1.2911   -0.6866    0.3356 C   0  0  0  0  0  0  0  0  0  0  0  0
    2.6659   -0.0625    0.3476 C   0  0  0  0  0  0  0  0  0  0  0  0
    3.3867   -0.1078   -0.9126 C   0  0  0  0  0  0  0  0  0  0  0  0
    4.7019    0.5359   -1.0777 C   0  0  0  0  0  0  0  0  0  0  0  0
    5.8619    0.1486   -0.2341 C   0  0  0  0  0  0  0  0  0  0  0  0
   -2.6232    0.5566    2.6446 C   0  0  0  0  0  0  0  0  0  0  0  0
   -2.6860   -2.5852    1.7985 C   0  0  0  0  0  0  0  0  0  0  0  0
    3.4112   -0.9035    1.4071 C   0  0  0  0  0  0  0  0  0  0  0  0
   -3.9390    2.0708    0.2200 C   0  0  0  0  0  0  0  0  0  0  0  0
   -3.2087    0.7927    0.2212 C   0  0  0  0  0  0  0  0  0  0  0  0
   -2.1303    0.5986    1.2135 C   0  0  2  0  0  0  0  0  0  0  0  0
   -1.6072   -0.8196    0.9105 C   0  0  2  0  0  0  0  0  0  0  0  0
   -0.9966   -0.8735   -0.4675 C   0  0  1  0  0  0  0  0  0  0  0  0
   -1.9983   -0.4442   -1.5140 C   0  0  2  0  0  0  0  0  0  0  0  0
   -2.5222    0.9044   -1.1534 C   0  0  0  0  0  0  0  0  0  0  0  0
    0.3101   -0.1198   -0.5915 C   0  0  0  0  0  0  0  0  0  0  0  0
   -3.4104    1.8484   -3.1865 O   0  0  0  0  0  0  0  0  0  0  0  0
   -4.1766    2.4328   -1.1087 O   0  0  0  0  0  0  0  0  0  0  0  0
   -2.7623   -1.5983    0.8421 O   0  0  0  0  0  0  0  0  0  0  0  0
   -2.9882   -1.4040   -1.6776 O   0  0  0  0  0  0  0  0  0  0  0  0
    6.9659    0.9316   -0.7056 O   0  0  0  0  0  0  0  0  0  0  0  0
    5.7803    0.5636    1.1025 O   0  0  0  0  0  0  0  0  0  0  0  0
   -3.2731    0.9376   -2.2500 H   0  0  0  0  0  0  0  0  0  0  0  0
    0.8569   -0.8386    1.7786 H   0  0  0  0  0  0  0  0  0  0  0  0
    1.3528    0.5913    0.8787 H   0  0  0  0  0  0  0  0  0  0  0  0
    3.2390   -0.7030    1.8623 H   0  0  0  0  0  0  0  0  0  0  0  0
    3.3149   -1.1489   -1.1941 H   0  0  0  0  0  0  0  0  0  0  0  0
    4.6827   -1.0954   -0.0950 H   0  0  0  0  0  0  0  0  0  0  0  0
    2.8405    1.2788   -0.7427 H   0  0  0  0  0  0  0  0  0  0  0  0
    4.4316    0.9523   -1.4331 H   0  0  0  0  0  0  0  0  0  0  0  0
    5.5121    1.1111    0.7708 H   0  0  0  0  0  0  0  0  0  0  0  0
   -4.1977   -1.8998   -0.0239 H   0  0  0  0  0  0  0  0  0  0  0  0
   -3.2136   -1.2878   -1.3596 H   0  0  0  0  0  0  0  0  0  0  0  0
   -4.6876   -0.4254   -0.8732 H   0  0  0  0  0  0  0  0  0  0  0  0
   -1.6803   -3.9773    1.7792 H   0  0  0  0  0  0  0  0  0  0  0  0
   -2.1239   -2.5676    2.7512 H   0  0  0  0  0  0  0  0  0  0  0  0
   -0.4329   -2.7827    2.1870 H   0  0  0  0  0  0  0  0  0  0  0  0
    3.4757   -2.9377    1.7233 H   0  0  0  0  0  0  0  0  0  0  0  0
    3.0239   -3.0069    0.0123 H   0  0  0  0  0  0  0  0  0  0  0  0
    1.7395   -2.9412    1.2264 H   0  0  0  0  0  0  0  0  0  0  0  0
   -5.0392    1.3627    0.1724 H   0  0  0  0  0  0  0  0  0  0  0  0
   -4.2834    2.8434    0.7825 H   0  0  0  0  0  0  0  0  0  0  0  0
   -2.4882    1.6221    1.3896 H   0  0  0  0  0  0  0  0  0  0  0  0
   -3.5189   -0.4414    1.5494 H   0  0  0  0  0  0  0  0  0  0  0  0
   -1.2322   -0.5132    1.5982 H   0  0  0  0  0  0  0  0  0  0  0  0
   -1.1689   -1.1517   -1.4111 H   0  0  0  0  0  0  0  0  0  0  0  0
    0.1330    1.3368   -0.4844 H   0  0  0  0  0  0  0  0  0  0  0  0
   -1.6210    2.7135   -0.3822 H   0  0  0  0  0  0  0  0  0  0  0  0
    1.1719   -0.7195   -1.2678 H   0  0  0  0  0  0  0  0  0  0  0  0
    0.5981   -2.1561   -0.2667 H   0  0  0  0  0  0  0  0  0  0  0  0
   -3.1114    2.9637   -3.4070 H   0  0  0  0  0  0  0  0  0  0  0  0
    0.0668    1.6451   -2.5584 H   0  0  0  0  0  0  0  0  0  0  0  0
    5.5695    3.1456    0.2545 H   0  0  0  0  0  0  0  0  0  0  0  0
    4.3753    1.4198    2.5077 H   0  0  0  0  0  0  0  0  0  0  0  0
   -4.5015    0.6116   -1.9049 H   0  0  0  0  0  0  0  0  0  0  0  0
    1.3962   -1.7739    0.1532 H   0  0  0  0  0  0  0  0  0  0  0  0
    0.9069   -0.5775    1.3709 H   0  0  0  0  0  0  0  0  0  0  0  0
    2.6190    0.9478    0.7564 H   0  0  0  0  0  0  0  0  0  0  0  0
    2.7771    0.2082   -1.8112 H   0  0  0  0  0  0  0  0  0  0  0  0
    3.5842   -1.2109   -1.2080 H   0  0  0  0  0  0  0  0  0  0  0  0
    4.6082    1.6832   -0.9321 H   0  0  0  0  0  0  0  0  0  0  0  0
    5.0783    0.4145   -2.1589 H   0  0  0  0  0  0  0  0  0  0  0  0
    6.1031   -0.9059   -0.2586 H   0  0  0  0  0  0  0  0  0  0  0  0
   -3.5684    0.0170    2.7174 H   0  0  0  0  0  0  0  0  0  0  0  0
   -2.6875    1.6060    2.9956 H   0  0  0  0  0  0  0  0  0  0  0  0
   -1.8073    0.0564    3.2396 H   0  0  0  0  0  0  0  0  0  0  0  0
   -1.8186   -3.2632    1.6801 H   0  0  0  0  0  0  0  0  0  0  0  0
   -3.6371   -3.1826    1.7359 H   0  0  0  0  0  0  0  0  0  0  0  0
   -2.6245   -2.1863    2.8418 H   0  0  0  0  0  0  0  0  0  0  0  0
    3.6584   -0.3373    2.3014 H   0  0  0  0  0  0  0  0  0  0  0  0
    4.1957   -1.5345    0.9663 H   0  0  0  0  0  0  0  0  0  0  0  0
    2.6771   -1.6954    1.8078 H   0  0  0  0  0  0  0  0  0  0  0  0
   -3.3629    2.8773    0.7287 H   0  0  0  0  0  0  0  0  0  0  0  0
   -4.9114    1.9396    0.7727 H   0  0  0  0  0  0  0  0  0  0  0  0
   -3.8429   -0.1136    0.1984 H   0  0  0  0  0  0  0  0  0  0  0  0
   -1.3063    1.3364    1.1513 H   0  0  0  0  0  0  0  0  0  0  0  0
   -0.9801   -1.2087    1.6920 H   0  0  0  0  0  0  0  0  0  0  0  0
   -0.7646   -1.9402   -0.6700 H   0  0  0  0  0  0  0  0  0  0  0  0
   -1.4502   -0.3642   -2.4755 H   0  0  0  0  0  0  0  0  0  0  0  0
   -1.7089    1.6258   -1.1483 H   0  0  0  0  0  0  0  0  0  0  0  0
    0.1716    0.9668   -0.3587 H   0  0  0  0  0  0  0  0  0  0  0  0
    0.5706   -0.1558   -1.6648 H   0  0  0  0  0  0  0  0  0  0  0  0
   -4.0289    1.3641   -3.8199 H   0  0  0  0  0  0  0  0  0  0  0  0
   -3.0725   -1.6958   -2.6367 H   0  0  0  0  0  0  0  0  0  0  0  0
    6.7076    1.8668   -0.5077 H   0  0  0  0  0  0  0  0  0  0  0  0
    5.3915    1.4553    1.1922 H   0  0  0  0  0  0  0  0  0  0  0  0
  2  3  1  0
  3  4  1  0
  4  5  1  0
  5  6  1  0
  3  9  1  0
 10 11  1  0
  7 12  1  0
 11 12  1  0
 12 13  1  0
 13 14  1  0
 14 15  1  0
  1 16  1  0
 11 16  1  0
 15 16  1  0
  2 17  1  0
 14 17  1  0
  1 18  1  0
  1 19  1  0
 10 19  1  0
  8 20  1  0
 13 20  1  0
 15 21  1  0
  6 22  1  0
  6 23  1  0
 25 26  1  0
 26 27  1  0
 27 28  1  0
 28 29  1  0
 26 32  1  0
 33 34  1  0
 30 35  1  0
 34 35  1  0
 35 36  1  0
 36 37  1  0
 37 38  1  0
 24 39  1  0
 34 39  1  0
 38 39  1  0
 25 40  1  0
 37 40  1  0
 24 41  1  0
 24 42  1  0
 33 42  1  0
 31 43  1  0
 36 43  1  0
 38 44  1  0
 29 45  1  0
 29 46  1  0
  1 47  1  0
  2 48  1  0
  2 49  1  0
  3 50  1  0
  4 51  1  0
  4 52  1  0
  5 53  1  0
  5 54  1  0
  6 55  1  0
  7 56  1  0
  7 57  1  0
  7 58  1  0
  8 59  1  0
  8 60  1  0
  8 61  1  0
  9 62  1  0
  9 63  1  0
  9 64  1  0
 10 65  1  0
 10 66  1  0
 11 67  1  0
 12 68  1  0
 13 69  1  0
 14 70  1  6
 15 71  1  0
 16 72  1  0
 17 73  1  0
 17 74  1  0
 18 75  1  0
 21 76  1  0
 22 77  1  0
 23 78  1  0
 24 79  1  6
 25 80  1  0
 25 81  1  0
 26 82  1  0
 27 83  1  0
 27 84  1  0
 28 85  1  0
 28 86  1  0
 29 87  1  0
 30 88  1  0
 30 89  1  0
 30 90  1  0
 31 91  1  0
 31 92  1  0
 31 93  1  0
 32 94  1  0
 32 95  1  0
 32 96  1  0
 33 97  1  0
 33 98  1  0
 34 99  1  0
 35100  1  1
 36101  1  1
 37102  1  6
 38103  1  6
 39104  1  0
 40105  1  0
 40106  1  0
 41107  1  0
 44108  1  0
 45109  1  0
 46110  1  0
M  END
>  <PDBID>  (1) 
1JR1

>  <PDB ID>  (1) 
1JR1

>  <Generic Name>  (1) 
Mycophenolic acid

>  <Brand Name>  (1) 
Apo-mycophenolic Acid#Mycophenolic Acid#Myfortic#Melbex

>  <DrugBank ID>  (1) 
DB01024

>  <ATC Codes>  (1) 
L04AA06

>  <Ligand ID>  (1) 
MOA

>  <Target Name>  (1) 
Inosine-5'-monophosphate dehydrogenase 2

>  <UniProt ID>  (1) 
P12268

>  <PDB ID.1>  (1) 
1JR1

>  <Seq. Identity>  (1) 
99%

$$$$
