PDB_DB00205_04
     RDKit          3D

 84 86  0  0  0  0  0  0  0  0999 V2000
   -1.2294   -1.4741   -1.3978 N   0  0  0  0  0  0  0  0  0  0  0  0
   -2.4871   -1.2357   -0.6707 C   0  0  0  0  0  0  0  0  0  0  0  0
   -0.7481   -0.1653   -1.7750 C   0  0  0  0  0  0  0  0  0  0  0  0
   -0.1494    0.4848   -0.5663 C   0  0  0  0  0  0  0  0  0  0  0  0
   -1.2625    0.4923    0.4895 C   0  0  0  0  0  0  0  0  0  0  0  0
   -2.5176    0.0366   -0.0421 N   0  0  0  0  0  0  0  0  0  0  0  0
    1.0585   -0.2025   -0.0167 C   0  0  0  0  0  0  0  0  0  0  0  0
    1.5485    0.5731    1.1712 C   0  0  0  0  0  0  0  0  0  0  0  0
    2.8454    0.0654    1.7367 C   0  0  0  0  0  0  0  0  0  0  0  0
    3.8389   -0.1330    0.6141 C   0  0  0  0  0  0  0  0  0  0  0  0
    3.2612   -1.2107   -0.2809 C   0  0  0  0  0  0  0  0  0  0  0  0
    2.0989   -0.5333   -1.0257 C   0  0  0  0  0  0  0  0  0  0  0  0
    0.0746   -0.1557   -2.9415 N   0  0  0  0  0  0  0  0  0  0  0  0
   -2.7987   -2.3420    0.1983 N   0  0  0  0  0  0  0  0  0  0  0  0
   -1.5037    1.8931    1.0154 C   0  0  0  0  0  0  0  0  0  0  0  0
   -2.6205    1.7664    2.0461 C   0  0  0  0  0  0  0  0  0  0  0  0
    3.9677    1.4137   -0.2557 Cl  0  0  0  0  0  0  0  0  0  0  0  0
   -1.2294   -1.4741   -1.3978 N   0  0  0  0  0  0  0  0  0  0  0  0
   -2.4871   -1.2357   -0.6707 C   0  0  0  0  0  0  0  0  0  0  0  0
   -0.7481   -0.1653   -1.7750 C   0  0  0  0  0  0  0  0  0  0  0  0
   -0.1494    0.4848   -0.5663 C   0  0  0  0  0  0  0  0  0  0  0  0
   -1.2625    0.4923    0.4895 C   0  0  0  0  0  0  0  0  0  0  0  0
   -2.5176    0.0366   -0.0421 N   0  0  0  0  0  0  0  0  0  0  0  0
    1.0585   -0.2025   -0.0167 C   0  0  0  0  0  0  0  0  0  0  0  0
    1.5485    0.5731    1.1712 C   0  0  0  0  0  0  0  0  0  0  0  0
    2.8454    0.0654    1.7367 C   0  0  0  0  0  0  0  0  0  0  0  0
    3.8389   -0.1330    0.6141 C   0  0  0  0  0  0  0  0  0  0  0  0
    3.2612   -1.2107   -0.2809 C   0  0  0  0  0  0  0  0  0  0  0  0
    2.0989   -0.5333   -1.0257 C   0  0  0  0  0  0  0  0  0  0  0  0
    0.0746   -0.1557   -2.9415 N   0  0  0  0  0  0  0  0  0  0  0  0
   -2.7987   -2.3420    0.1983 N   0  0  0  0  0  0  0  0  0  0  0  0
   -1.5037    1.8931    1.0154 C   0  0  0  0  0  0  0  0  0  0  0  0
   -2.6205    1.7664    2.0461 C   0  0  0  0  0  0  0  0  0  0  0  0
    3.9677    1.4137   -0.2557 Cl  0  0  0  0  0  0  0  0  0  0  0  0
   -1.3954   -2.0846   -2.2123 H   0  0  0  0  0  0  0  0  0  0  0  0
   -3.2698   -1.2276   -1.4811 H   0  0  0  0  0  0  0  0  0  0  0  0
   -1.6568    0.4579   -2.0343 H   0  0  0  0  0  0  0  0  0  0  0  0
    0.0852    1.5383   -0.8157 H   0  0  0  0  0  0  0  0  0  0  0  0
   -0.9785   -0.2210    1.2892 H   0  0  0  0  0  0  0  0  0  0  0  0
   -2.9960    0.7952   -0.5384 H   0  0  0  0  0  0  0  0  0  0  0  0
    0.6914   -1.1899    0.3975 H   0  0  0  0  0  0  0  0  0  0  0  0
    1.5968    1.6445    0.8856 H   0  0  0  0  0  0  0  0  0  0  0  0
    0.7921    0.4932    1.9766 H   0  0  0  0  0  0  0  0  0  0  0  0
    3.2070    0.8444    2.4557 H   0  0  0  0  0  0  0  0  0  0  0  0
    2.6279   -0.8728    2.2874 H   0  0  0  0  0  0  0  0  0  0  0  0
    4.8255   -0.4083    1.0166 H   0  0  0  0  0  0  0  0  0  0  0  0
    4.0547   -1.5235   -0.9686 H   0  0  0  0  0  0  0  0  0  0  0  0
    2.8568   -2.0347    0.3457 H   0  0  0  0  0  0  0  0  0  0  0  0
    1.7033   -1.3337   -1.6856 H   0  0  0  0  0  0  0  0  0  0  0  0
    2.5388    0.3113   -1.5500 H   0  0  0  0  0  0  0  0  0  0  0  0
   -0.5324   -0.3669   -3.7669 H   0  0  0  0  0  0  0  0  0  0  0  0
    0.4601    0.8086   -3.0485 H   0  0  0  0  0  0  0  0  0  0  0  0
   -3.3592   -1.9785    0.9960 H   0  0  0  0  0  0  0  0  0  0  0  0
   -3.4129   -3.0624   -0.2846 H   0  0  0  0  0  0  0  0  0  0  0  0
   -0.6227    2.3737    1.4260 H   0  0  0  0  0  0  0  0  0  0  0  0
   -1.8544    2.5070    0.1596 H   0  0  0  0  0  0  0  0  0  0  0  0
   -3.2597    0.8849    1.8517 H   0  0  0  0  0  0  0  0  0  0  0  0
   -3.2600    2.6603    1.9357 H   0  0  0  0  0  0  0  0  0  0  0  0
   -2.2187    1.7113    3.0635 H   0  0  0  0  0  0  0  0  0  0  0  0
   -1.3954   -2.0846   -2.2123 H   0  0  0  0  0  0  0  0  0  0  0  0
   -3.2698   -1.2276   -1.4811 H   0  0  0  0  0  0  0  0  0  0  0  0
   -1.6568    0.4579   -2.0343 H   0  0  0  0  0  0  0  0  0  0  0  0
    0.0852    1.5383   -0.8157 H   0  0  0  0  0  0  0  0  0  0  0  0
   -0.9785   -0.2210    1.2892 H   0  0  0  0  0  0  0  0  0  0  0  0
   -2.9960    0.7952   -0.5384 H   0  0  0  0  0  0  0  0  0  0  0  0
    0.6914   -1.1899    0.3975 H   0  0  0  0  0  0  0  0  0  0  0  0
    1.5968    1.6445    0.8856 H   0  0  0  0  0  0  0  0  0  0  0  0
    0.7921    0.4932    1.9766 H   0  0  0  0  0  0  0  0  0  0  0  0
    3.2070    0.8444    2.4557 H   0  0  0  0  0  0  0  0  0  0  0  0
    2.6279   -0.8728    2.2874 H   0  0  0  0  0  0  0  0  0  0  0  0
    4.8255   -0.4083    1.0166 H   0  0  0  0  0  0  0  0  0  0  0  0
    4.0547   -1.5235   -0.9686 H   0  0  0  0  0  0  0  0  0  0  0  0
    2.8568   -2.0347    0.3457 H   0  0  0  0  0  0  0  0  0  0  0  0
    1.7033   -1.3337   -1.6856 H   0  0  0  0  0  0  0  0  0  0  0  0
    2.5388    0.3113   -1.5500 H   0  0  0  0  0  0  0  0  0  0  0  0
   -0.5324   -0.3669   -3.7669 H   0  0  0  0  0  0  0  0  0  0  0  0
    0.4601    0.8086   -3.0485 H   0  0  0  0  0  0  0  0  0  0  0  0
   -3.3592   -1.9785    0.9960 H   0  0  0  0  0  0  0  0  0  0  0  0
   -3.4129   -3.0624   -0.2846 H   0  0  0  0  0  0  0  0  0  0  0  0
   -0.6227    2.3737    1.4260 H   0  0  0  0  0  0  0  0  0  0  0  0
   -1.8544    2.5070    0.1596 H   0  0  0  0  0  0  0  0  0  0  0  0
   -3.2597    0.8849    1.8517 H   0  0  0  0  0  0  0  0  0  0  0  0
   -3.2600    2.6603    1.9357 H   0  0  0  0  0  0  0  0  0  0  0  0
   -2.2187    1.7113    3.0635 H   0  0  0  0  0  0  0  0  0  0  0  0
  1  2  1  0
  1  3  1  0
  3  4  1  0
  4  5  1  0
  2  6  1  0
  5  6  1  0
  4  7  1  0
  7  8  1  0
  8  9  1  0
  9 10  1  0
 10 11  1  0
  7 12  1  0
 11 12  1  0
  3 13  1  0
  2 14  1  0
  5 15  1  0
 15 16  1  0
 10 17  1  0
 18 19  1  0
 18 20  1  0
 20 21  1  0
 21 22  1  0
 19 23  1  0
 22 23  1  0
 21 24  1  0
 24 25  1  0
 25 26  1  0
 26 27  1  0
 27 28  1  0
 24 29  1  0
 28 29  1  0
 20 30  1  0
 19 31  1  0
 22 32  1  0
 32 33  1  0
 27 34  1  0
  1 35  1  0
  2 36  1  0
  3 37  1  0
  4 38  1  0
  5 39  1  0
  6 40  1  0
  7 41  1  0
  8 42  1  0
  8 43  1  0
  9 44  1  0
  9 45  1  0
 10 46  1  0
 11 47  1  0
 11 48  1  0
 12 49  1  0
 12 50  1  0
 13 51  1  0
 13 52  1  0
 14 53  1  0
 14 54  1  0
 15 55  1  0
 15 56  1  0
 16 57  1  0
 16 58  1  0
 16 59  1  0
 18 60  1  0
 19 61  1  0
 20 62  1  0
 21 63  1  0
 22 64  1  0
 23 65  1  0
 24 66  1  0
 25 67  1  0
 25 68  1  0
 26 69  1  0
 26 70  1  0
 27 71  1  0
 28 72  1  0
 28 73  1  0
 29 74  1  0
 29 75  1  0
 30 76  1  0
 30 77  1  0
 31 78  1  0
 31 79  1  0
 32 80  1  0
 32 81  1  0
 33 82  1  0
 33 83  1  0
 33 84  1  0
M  END
>  <PDBID>  (1) 
3QFX

>  <PDB ID>  (1) 
3QFX

>  <Generic Name>  (1) 
Pyrimethamine

>  <Brand Name>  (1) 
Daraprim#Fansidar Tablets#Pyrimethamine Leucovorin

>  <DrugBank ID>  (1) 
DB00205

>  <ATC Codes>  (1) 
P01BF04#P01BD01#P01BD51

>  <Ligand ID>  (1) 
CP6

>  <Target Name>  (1) 
Dihydrofolate reductase

>  <UniProt ID>  (1) 
P00374

>  <PDB ID.1>  (1) 
3QFX

>  <Seq. Identity>  (1) 
32%

$$$$
