PDB_DB06228_01
     RDKit          3D

 63 66  0  0  0  0  0  0  0  0999 V2000
   -5.7609    1.2988    0.9774 C   0  0  0  0  0  0  0  0  0  0  0  0
   -5.3334    0.3796   -0.0360 N   0  0  0  0  0  0  0  0  0  0  0  0
   -7.1066    1.9135    0.6482 C   0  0  0  0  0  0  0  0  0  0  0  0
   -6.3236   -0.6116   -0.2668 C   0  0  0  0  0  0  0  0  0  0  0  0
   -8.0216    0.8630    0.6072 O   0  0  0  0  0  0  0  0  0  0  0  0
   -7.6777    0.0771   -0.4638 C   0  0  0  0  0  0  0  0  0  0  0  0
   -1.2387   -0.5402   -0.3011 C   0  0  0  0  0  0  0  0  0  0  0  0
   -1.6226    0.6474    0.5086 C   0  0  0  0  0  0  0  0  0  0  0  0
   -2.1947   -1.6539   -0.0735 C   0  0  0  0  0  0  0  0  0  0  0  0
   -3.0233    1.0723    0.0447 C   0  0  0  0  0  0  0  0  0  0  0  0
   -3.5542   -1.2156   -0.6607 C   0  0  0  0  0  0  0  0  0  0  0  0
   -4.0096   -0.0485    0.1874 C   0  0  0  0  0  0  0  0  0  0  0  0
   -6.1230   -1.3159   -1.4643 O   0  0  0  0  0  0  0  0  0  0  0  0
    0.1488   -0.8938   -0.2103 N   0  0  0  0  0  0  0  0  0  0  0  0
    0.5866   -1.2453    1.1088 C   0  0  0  0  0  0  0  0  0  0  0  0
    1.0234    0.0947   -0.7307 C   0  0  0  0  0  0  0  0  0  0  0  0
    1.2542   -0.0912    1.5931 O   0  0  0  0  0  0  0  0  0  0  0  0
    1.8773    0.4533    0.4595 C   0  0  1  0  0  0  0  0  0  0  0  0
   -0.3904   -1.5408    2.0106 O   0  0  0  0  0  0  0  0  0  0  0  0
    3.2551   -0.2058    0.4051 C   0  0  0  0  0  0  0  0  0  0  0  0
    4.0167    0.2665   -0.7177 N   0  0  0  0  0  0  0  0  0  0  0  0
    5.3209   -0.3467   -0.8388 C   0  0  0  0  0  0  0  0  0  0  0  0
    6.3585    1.7907    0.5589 S   0  0  0  0  0  0  0  0  0  0  0  0
    8.1939    1.8367    0.4552 C   0  0  0  0  0  0  0  0  0  0  0  0
    6.1318    0.0019    0.3694 C   0  0  0  0  0  0  0  0  0  0  0  0
    8.4388    0.5290   -0.2595 C   0  0  0  0  0  0  0  0  0  0  0  0
    7.5471   -0.5114    0.3134 C   0  0  0  0  0  0  0  0  0  0  0  0
    5.1443   -1.7029   -1.0043 O   0  0  0  0  0  0  0  0  0  0  0  0
    8.7401    3.2035   -0.5205 Cl  0  0  0  0  0  0  0  0  0  0  0  0
   -5.0911    2.1207    1.2168 H   0  0  0  0  0  0  0  0  0  0  0  0
   -5.9067    0.6934    1.9051 H   0  0  0  0  0  0  0  0  0  0  0  0
   -7.4102    2.5482    1.5066 H   0  0  0  0  0  0  0  0  0  0  0  0
   -7.0351    2.4759   -0.2810 H   0  0  0  0  0  0  0  0  0  0  0  0
   -6.4514   -1.2992    0.5898 H   0  0  0  0  0  0  0  0  0  0  0  0
   -8.4756   -0.6582   -0.6963 H   0  0  0  0  0  0  0  0  0  0  0  0
   -7.6005    0.7416   -1.3611 H   0  0  0  0  0  0  0  0  0  0  0  0
   -1.3837   -0.2291   -1.3831 H   0  0  0  0  0  0  0  0  0  0  0  0
   -0.9862    1.5372    0.3567 H   0  0  0  0  0  0  0  0  0  0  0  0
   -1.7027    0.4723    1.5888 H   0  0  0  0  0  0  0  0  0  0  0  0
   -2.4439   -1.8441    1.0044 H   0  0  0  0  0  0  0  0  0  0  0  0
   -1.8841   -2.5500   -0.6150 H   0  0  0  0  0  0  0  0  0  0  0  0
   -3.2991    2.0278    0.4657 H   0  0  0  0  0  0  0  0  0  0  0  0
   -2.8798    1.2439   -1.0663 H   0  0  0  0  0  0  0  0  0  0  0  0
   -4.2172   -2.0768   -0.4152 H   0  0  0  0  0  0  0  0  0  0  0  0
   -3.4850   -0.9840   -1.7230 H   0  0  0  0  0  0  0  0  0  0  0  0
   -3.9490   -0.3969    1.2529 H   0  0  0  0  0  0  0  0  0  0  0  0
   -6.6628   -2.1452   -1.3889 H   0  0  0  0  0  0  0  0  0  0  0  0
    1.3685   -2.0235    1.0253 H   0  0  0  0  0  0  0  0  0  0  0  0
    0.5439    0.9962   -1.1216 H   0  0  0  0  0  0  0  0  0  0  0  0
    1.7210   -0.2786   -1.5107 H   0  0  0  0  0  0  0  0  0  0  0  0
    1.9792    1.5359    0.6272 H   0  0  0  0  0  0  0  0  0  0  0  0
   -0.2328   -2.4282    2.4013 H   0  0  0  0  0  0  0  0  0  0  0  0
    3.7572    0.1517    1.3461 H   0  0  0  0  0  0  0  0  0  0  0  0
    3.1696   -1.2931    0.4300 H   0  0  0  0  0  0  0  0  0  0  0  0
    4.0712    1.3030   -0.7619 H   0  0  0  0  0  0  0  0  0  0  0  0
    5.7655    0.0371   -1.7771 H   0  0  0  0  0  0  0  0  0  0  0  0
    8.5943    1.8339    1.4819 H   0  0  0  0  0  0  0  0  0  0  0  0
    5.6901   -0.3818    1.3098 H   0  0  0  0  0  0  0  0  0  0  0  0
    8.3335    0.6559   -1.3543 H   0  0  0  0  0  0  0  0  0  0  0  0
    9.4926    0.2406    0.0157 H   0  0  0  0  0  0  0  0  0  0  0  0
    7.9139   -0.9019    1.2660 H   0  0  0  0  0  0  0  0  0  0  0  0
    7.5326   -1.3645   -0.4263 H   0  0  0  0  0  0  0  0  0  0  0  0
    5.5062   -2.2646   -0.2867 H   0  0  0  0  0  0  0  0  0  0  0  0
  1  2  1  0
  1  3  1  0
  2  4  1  0
  3  5  1  0
  4  6  1  0
  5  6  1  0
  7  8  1  0
  7  9  1  0
  8 10  1  0
  9 11  1  0
  2 12  1  0
 10 12  1  0
 11 12  1  0
  4 13  1  0
  7 14  1  0
 14 15  1  0
 14 16  1  0
 15 17  1  0
 16 18  1  0
 17 18  1  0
 15 19  1  0
 18 20  1  0
 20 21  1  0
 21 22  1  0
 23 24  1  0
 22 25  1  0
 23 25  1  0
 24 26  1  0
 25 27  1  0
 26 27  1  0
 22 28  1  0
 24 29  1  0
  1 30  1  0
  1 31  1  0
  3 32  1  0
  3 33  1  0
  4 34  1  0
  6 35  1  0
  6 36  1  0
  7 37  1  0
  8 38  1  0
  8 39  1  0
  9 40  1  0
  9 41  1  0
 10 42  1  0
 10 43  1  0
 11 44  1  0
 11 45  1  0
 12 46  1  0
 13 47  1  0
 15 48  1  0
 16 49  1  0
 16 50  1  0
 18 51  1  1
 19 52  1  0
 20 53  1  0
 20 54  1  0
 21 55  1  0
 22 56  1  0
 24 57  1  0
 25 58  1  0
 26 59  1  0
 26 60  1  0
 27 61  1  0
 27 62  1  0
 28 63  1  0
M  END
>  <PDBID>  (1) 
2W26

>  <PDB ID>  (1) 
2W26

>  <Generic Name>  (1) 
Rivaroxaban

>  <Brand Name>  (1) 
Xarelto

>  <DrugBank ID>  (1) 
DB06228

>  <ATC Codes>  (1) 
B01AF01

>  <Ligand ID>  (1) 
RIV

>  <Target Name>  (1) 
Coagulation factor X

>  <UniProt ID>  (1) 
P00742

>  <PDB ID.1>  (1) 
2W26

>  <Seq. Identity>  (1) 
100%

$$$$
