PDB_DB01030_09
     RDKit          3D

 72 76  0  0  0  0  0  0  0  0999 V2000
    5.0349    0.9460   -1.6926 C   0  0  0  0  0  0  0  0  0  0  0  0
    6.4099    0.9923   -2.3207 C   0  0  0  0  0  0  0  0  0  0  0  0
    4.9772   -0.2322   -0.7708 C   0  0  2  0  0  0  0  0  0  0  0  0
    5.2277   -1.3643   -1.5853 O   0  0  0  0  0  0  0  0  0  0  0  0
    3.6556   -0.4551   -0.1378 C   0  0  0  0  0  0  0  0  0  0  0  0
    6.0993   -0.1560    0.2228 C   0  0  0  0  0  0  0  0  0  0  0  0
    3.4828    0.1033    1.2436 C   0  0  0  0  0  0  0  0  0  0  0  0
    2.4770    0.0676   -0.9546 C   0  0  0  0  0  0  0  0  0  0  0  0
    6.5531   -1.4517    0.5068 O   0  0  0  0  0  0  0  0  0  0  0  0
    5.7652    0.5435    1.3816 O   0  0  0  0  0  0  0  0  0  0  0  0
    2.2741   -0.6142    1.8361 C   0  0  0  0  0  0  0  0  0  0  0  0
    4.7203   -0.0250    2.0879 C   0  0  0  0  0  0  0  0  0  0  0  0
    1.2605   -0.5925   -0.3641 C   0  0  0  0  0  0  0  0  0  0  0  0
    2.8123   -1.5938    2.7059 O   0  0  0  0  0  0  0  0  0  0  0  0
    1.5407   -1.3550    0.8320 N   0  0  0  0  0  0  0  0  0  0  0  0
    0.2509    0.4216    0.1732 C   0  0  0  0  0  0  0  0  0  0  0  0
    0.2230   -1.6690    1.3059 C   0  0  0  0  0  0  0  0  0  0  0  0
   -0.6733   -0.4870    0.9410 C   0  0  0  0  0  0  0  0  0  0  0  0
   -0.3573    1.1233   -0.8941 N   0  0  0  0  0  0  0  0  0  0  0  0
   -1.7914   -1.0273    0.1024 C   0  0  0  0  0  0  0  0  0  0  0  0
   -1.7863    1.3172   -0.7900 C   0  0  0  0  0  0  0  0  0  0  0  0
   -2.5304    0.0354   -0.6802 C   0  0  0  0  0  0  0  0  0  0  0  0
   -2.1453    2.3421    0.2576 C   0  0  0  0  0  0  0  0  0  0  0  0
   -3.8987    0.1893   -0.0471 C   0  0  0  0  0  0  0  0  0  0  0  0
   -3.6058    2.6918    0.1412 C   0  0  0  0  0  0  0  0  0  0  0  0
   -4.4690    1.5699   -0.3211 C   0  0  0  0  0  0  0  0  0  0  0  0
   -4.8463   -0.7796   -0.7513 C   0  0  0  0  0  0  0  0  0  0  0  0
   -6.1680   -0.7305   -0.2111 N   0  0  0  0  0  0  0  0  0  0  0  0
   -6.1385   -1.3074    1.1179 C   0  0  0  0  0  0  0  0  0  0  0  0
   -7.1103   -1.4203   -1.0314 C   0  0  0  0  0  0  0  0  0  0  0  0
   -5.7221    1.6452    0.2566 O   0  0  0  0  0  0  0  0  0  0  0  0
    4.2948    0.8957   -2.5096 H   0  0  0  0  0  0  0  0  0  0  0  0
    4.9226    1.9220   -1.1424 H   0  0  0  0  0  0  0  0  0  0  0  0
    6.9385    0.0091   -2.2336 H   0  0  0  0  0  0  0  0  0  0  0  0
    7.0739    1.7541   -1.8912 H   0  0  0  0  0  0  0  0  0  0  0  0
    6.3502    1.1732   -3.4239 H   0  0  0  0  0  0  0  0  0  0  0  0
    4.4550   -1.3562   -2.2374 H   0  0  0  0  0  0  0  0  0  0  0  0
    3.4678   -1.5619   -0.0423 H   0  0  0  0  0  0  0  0  0  0  0  0
    6.9366    0.3755   -0.2365 H   0  0  0  0  0  0  0  0  0  0  0  0
    3.1990    1.1670    1.1714 H   0  0  0  0  0  0  0  0  0  0  0  0
    2.5994   -0.1268   -2.0254 H   0  0  0  0  0  0  0  0  0  0  0  0
    2.4124    1.1591   -0.7062 H   0  0  0  0  0  0  0  0  0  0  0  0
    5.8882   -2.0076    0.9578 H   0  0  0  0  0  0  0  0  0  0  0  0
    1.6132    0.0775    2.3892 H   0  0  0  0  0  0  0  0  0  0  0  0
    4.5796    0.6307    2.9928 H   0  0  0  0  0  0  0  0  0  0  0  0
    4.9149   -1.0321    2.4628 H   0  0  0  0  0  0  0  0  0  0  0  0
    0.7612   -1.2670   -1.0697 H   0  0  0  0  0  0  0  0  0  0  0  0
    2.7420   -1.3479    3.6414 H   0  0  0  0  0  0  0  0  0  0  0  0
    0.7572    1.1181    0.8560 H   0  0  0  0  0  0  0  0  0  0  0  0
   -0.0934   -2.6060    0.7777 H   0  0  0  0  0  0  0  0  0  0  0  0
    0.2020   -1.9060    2.3778 H   0  0  0  0  0  0  0  0  0  0  0  0
   -1.0004   -0.0597    1.9108 H   0  0  0  0  0  0  0  0  0  0  0  0
    0.0679    2.0584   -1.0779 H   0  0  0  0  0  0  0  0  0  0  0  0
   -1.3814   -1.8294   -0.5536 H   0  0  0  0  0  0  0  0  0  0  0  0
   -2.4807   -1.5689    0.8148 H   0  0  0  0  0  0  0  0  0  0  0  0
   -2.0862    1.7954   -1.7737 H   0  0  0  0  0  0  0  0  0  0  0  0
   -2.6764   -0.3726   -1.7022 H   0  0  0  0  0  0  0  0  0  0  0  0
   -1.5649    3.2728   -0.0194 H   0  0  0  0  0  0  0  0  0  0  0  0
   -1.9182    2.0553    1.2822 H   0  0  0  0  0  0  0  0  0  0  0  0
   -3.9215   -0.0561    1.0266 H   0  0  0  0  0  0  0  0  0  0  0  0
   -3.7259    3.5538   -0.5788 H   0  0  0  0  0  0  0  0  0  0  0  0
   -3.9717    3.0656    1.1113 H   0  0  0  0  0  0  0  0  0  0  0  0
   -4.6477    1.5880   -1.4302 H   0  0  0  0  0  0  0  0  0  0  0  0
   -4.4016   -1.7945   -0.7486 H   0  0  0  0  0  0  0  0  0  0  0  0
   -4.9110   -0.3832   -1.8041 H   0  0  0  0  0  0  0  0  0  0  0  0
   -6.9716   -2.0390    1.2456 H   0  0  0  0  0  0  0  0  0  0  0  0
   -6.1579   -0.4944    1.8559 H   0  0  0  0  0  0  0  0  0  0  0  0
   -5.2046   -1.9351    1.2397 H   0  0  0  0  0  0  0  0  0  0  0  0
   -7.1911   -2.5049   -0.8448 H   0  0  0  0  0  0  0  0  0  0  0  0
   -6.8776   -1.3116   -2.1258 H   0  0  0  0  0  0  0  0  0  0  0  0
   -8.1525   -1.0158   -0.9216 H   0  0  0  0  0  0  0  0  0  0  0  0
   -6.3616    2.1779   -0.2457 H   0  0  0  0  0  0  0  0  0  0  0  0
  1  2  1  0
  1  3  1  0
  3  4  1  6
  3  5  1  0
  3  6  1  0
  5  7  1  0
  5  8  1  0
  6  9  1  0
  6 10  1  0
  7 11  1  0
  7 12  1  0
 10 12  1  0
  8 13  1  0
 11 14  1  0
 11 15  1  0
 13 15  1  0
 13 16  1  0
 15 17  1  0
 16 18  1  0
 17 18  1  0
 16 19  1  0
 18 20  1  0
 19 21  1  0
 20 22  1  0
 21 22  1  0
 21 23  1  0
 22 24  1  0
 23 25  1  0
 24 26  1  0
 25 26  1  0
 24 27  1  0
 27 28  1  0
 28 29  1  0
 28 30  1  0
 26 31  1  0
  1 32  1  0
  1 33  1  0
  2 34  1  0
  2 35  1  0
  2 36  1  0
  4 37  1  0
  5 38  1  0
  6 39  1  0
  7 40  1  0
  8 41  1  0
  8 42  1  0
  9 43  1  0
 11 44  1  0
 12 45  1  0
 12 46  1  0
 13 47  1  0
 14 48  1  0
 16 49  1  0
 17 50  1  0
 17 51  1  0
 18 52  1  0
 19 53  1  0
 20 54  1  0
 20 55  1  0
 21 56  1  0
 22 57  1  0
 23 58  1  0
 23 59  1  0
 24 60  1  0
 25 61  1  0
 25 62  1  0
 26 63  1  0
 27 64  1  0
 27 65  1  0
 29 66  1  0
 29 67  1  0
 29 68  1  0
 30 69  1  0
 30 70  1  0
 30 71  1  0
 31 72  1  0
M  END
>  <PDBID>  (1) 
1K4T

>  <PDB ID>  (1) 
1K4T

>  <Generic Name>  (1) 
Topotecan

>  <Brand Name>  (1) 
Act Topotecan#Hycamtin#Mylan-topotecan Hydrochloride for Injection#PMS-topotecan#Topotecan#Topotecan Hydrochloride#Topotecan Hydrochloride for Injection#Topotecan Injection#Topotecan for Injection

>  <DrugBank ID>  (1) 
DB01030

>  <ATC Codes>  (1) 
L01XX17

>  <Ligand ID>  (1) 
TTC

>  <Target Name>  (1) 
DNA topoisomerase 1

>  <UniProt ID>  (1) 
P11387

>  <PDB ID.1>  (1) 
1K4T

>  <Seq. Identity>  (1) 
92%

$$$$
