PDB_DB00273_06
     RDKit          3D

 45 47  0  0  0  0  0  0  0  0999 V2000
    0.7683    3.1542    1.9599 C   0  0  0  0  0  0  0  0  0  0  0  0
    1.2029    1.7692    1.5228 C   0  0  0  0  0  0  0  0  0  0  0  0
    2.5265    1.4149    2.1862 C   0  0  0  0  0  0  0  0  0  0  0  0
    1.2887    1.7822    0.1442 O   0  0  0  0  0  0  0  0  0  0  0  0
    0.2706    0.7921    1.8798 O   0  0  0  0  0  0  0  0  0  0  0  0
    0.1875   -0.0464    0.7736 C   0  0  1  0  0  0  0  0  0  0  0  0
   -1.1241   -0.7610    0.6792 C   0  0  2  0  0  0  0  0  0  0  0  0
   -1.3760   -1.2447   -0.5887 O   0  0  0  0  0  0  0  0  0  0  0  0
   -2.7321   -1.1125   -0.8345 C   0  0  0  0  0  0  0  0  0  0  0  0
   -3.3382   -2.5054   -0.9091 C   0  0  0  0  0  0  0  0  0  0  0  0
   -3.0419   -0.3947   -2.1193 C   0  0  0  0  0  0  0  0  0  0  0  0
   -3.2795   -0.3715    0.2039 O   0  0  0  0  0  0  0  0  0  0  0  0
   -2.2044    0.2652    0.8455 C   0  0  2  0  0  0  0  0  0  0  0  0
   -1.9049    1.5960    0.2617 C   0  0  0  0  0  0  0  0  0  0  0  0
   -0.8325    1.7101   -0.5548 O   0  0  0  0  0  0  0  0  0  0  0  0
    0.2637    0.9509   -0.3373 C   0  0  1  0  0  0  0  0  0  0  0  0
    0.7046    0.3074   -1.6468 C   0  0  0  0  0  0  0  0  0  0  0  0
    1.5453   -0.7425   -1.3511 O   0  0  0  0  0  0  0  0  0  0  0  0
    2.6609   -1.2661   -1.2794 S   0  0  0  0  0  0  0  0  0  0  0  0
    3.6066   -1.2426   -2.9941 O   0  0  0  0  0  0  0  0  0  0  0  0
    3.9338   -1.0336   -0.3244 O   0  0  0  0  0  0  0  0  0  0  0  0
    2.6247   -3.1223   -1.4089 N   0  0  0  0  0  0  0  0  0  0  0  0
    0.4638    3.7904    1.0933 H   0  0  0  0  0  0  0  0  0  0  0  0
    1.5827    3.7114    2.4699 H   0  0  0  0  0  0  0  0  0  0  0  0
   -0.1120    3.0753    2.6456 H   0  0  0  0  0  0  0  0  0  0  0  0
    3.3905    1.6663    1.5222 H   0  0  0  0  0  0  0  0  0  0  0  0
    2.5721    2.0184    3.1277 H   0  0  0  0  0  0  0  0  0  0  0  0
    2.5647    0.3407    2.4816 H   0  0  0  0  0  0  0  0  0  0  0  0
    1.0676   -0.7039    0.7167 H   0  0  0  0  0  0  0  0  0  0  0  0
   -1.1647   -1.5185    1.4749 H   0  0  0  0  0  0  0  0  0  0  0  0
   -2.9695   -3.1694   -0.1092 H   0  0  0  0  0  0  0  0  0  0  0  0
   -4.4456   -2.4824   -0.8442 H   0  0  0  0  0  0  0  0  0  0  0  0
   -3.0695   -2.9217   -1.9126 H   0  0  0  0  0  0  0  0  0  0  0  0
   -2.2582    0.3174   -2.4316 H   0  0  0  0  0  0  0  0  0  0  0  0
   -3.9662    0.2204   -1.9766 H   0  0  0  0  0  0  0  0  0  0  0  0
   -3.2562   -1.0949   -2.9457 H   0  0  0  0  0  0  0  0  0  0  0  0
   -2.4410    0.3033    1.9392 H   0  0  0  0  0  0  0  0  0  0  0  0
   -2.8081    1.8930   -0.3335 H   0  0  0  0  0  0  0  0  0  0  0  0
   -1.8739    2.3384    1.0986 H   0  0  0  0  0  0  0  0  0  0  0  0
    1.2223    1.1030   -2.2331 H   0  0  0  0  0  0  0  0  0  0  0  0
   -0.1817    0.0135   -2.2554 H   0  0  0  0  0  0  0  0  0  0  0  0
    3.8935   -0.2968   -2.8440 H   0  0  0  0  0  0  0  0  0  0  0  0
    4.1568   -1.8347    0.2313 H   0  0  0  0  0  0  0  0  0  0  0  0
    3.6519   -3.3545   -1.3632 H   0  0  0  0  0  0  0  0  0  0  0  0
    2.2300   -3.3136   -0.4501 H   0  0  0  0  0  0  0  0  0  0  0  0
  2  1  1  0
  2  3  1  0
  2  4  1  0
  2  5  1  0
  5  6  1  0
  6  7  1  0
  7  8  1  0
  8  9  1  0
  9 10  1  0
  9 11  1  0
  9 12  1  0
  7 13  1  0
 12 13  1  0
 13 14  1  0
 14 15  1  0
  4 16  1  0
  6 16  1  0
 15 16  1  0
 16 17  1  6
 17 18  1  0
 19 18  1  0
 19 20  1  0
 19 21  1  0
 19 22  1  0
  1 23  1  0
  1 24  1  0
  1 25  1  0
  3 26  1  0
  3 27  1  0
  3 28  1  0
  6 29  1  6
  7 30  1  1
 10 31  1  0
 10 32  1  0
 10 33  1  0
 11 34  1  0
 11 35  1  0
 11 36  1  0
 13 37  1  1
 14 38  1  0
 14 39  1  0
 17 40  1  0
 17 41  1  0
 20 42  1  0
 21 43  1  0
 22 44  1  0
 22 45  1  0
M  END
>  <PDBID>  (1) 
3HKU

>  <PDB ID>  (1) 
3HKU

>  <Generic Name>  (1) 
Topiramate

>  <Brand Name>  (1) 
Abbott-topiramate#Accel-topiramate#Act Topiramate#Apo-topiramate#Auro-topiramate#Ava-topiramate#Dom-topiramate#Gd-topiramate#Ipg-topiramate#Jamp-topiramate#Mar-topiramate#Mint-topiramate#Mylan-topiramate#Nu-topiramate#PHL-topiramate#PMS-topiramate#Pro-topiramate#Q-topiramate#Qsymia#Qudexy XR#Ran-topiramate#Ratio-topiramate#Sandoz Topiramate#Sandoz Topiramate Tablets#Teva-topiramate#Topamax#Topamax 100mg#Topamax 200mg#Topamax 25mg#Topiramate#Topiramate Tablets#Topiramate Tablets USP#Trokendi XR#Van-topiramate#Zym-topiramate

>  <DrugBank ID>  (1) 
DB00273

>  <ATC Codes>  (1) 
N03AX11

>  <Ligand ID>  (1) 
TOR

>  <Target Name>  (1) 
Carbonic anhydrase 2

>  <UniProt ID>  (1) 
P00918

>  <PDB ID.1>  (1) 
3HKU

>  <Seq. Identity>  (1) 
100%

$$$$
