PDB_DB00276_05
     RDKit          3D

138144  0  0  0  0  0  0  0  0999 V2000
    1.3791   -1.3542   -2.7042 C   0  0  0  0  0  0  0  0  0  0  0  0
    1.5642   -1.7569   -1.4039 O   0  0  0  0  0  0  0  0  0  0  0  0
    1.7888   -0.6991   -0.5139 C   0  0  0  0  0  0  0  0  0  0  0  0
    3.3148   -0.8595   -0.2022 C   0  0  0  0  0  0  0  0  0  0  0  0
    3.7908    0.0637    0.8452 C   0  0  0  0  0  0  0  0  0  0  0  0
    4.6614    1.1076    0.4493 N   0  0  0  0  0  0  0  0  0  0  0  0
    6.1489    0.9248    0.3164 S   0  0  0  0  0  0  0  0  0  0  0  0
    6.6456   -0.1215   -0.9719 C   0  0  0  0  0  0  0  0  0  0  0  0
    6.9413    2.3540    0.0935 O   0  0  0  0  0  0  0  0  0  0  0  0
    6.8840    0.2160    1.6739 O   0  0  0  0  0  0  0  0  0  0  0  0
    2.7107    0.5464    1.8147 C   0  0  0  0  0  0  0  0  0  0  0  0
    1.8246   -0.6807    2.0162 C   0  0  0  0  0  0  0  0  0  0  0  0
    0.9996   -0.7882    0.7268 C   0  0  0  0  0  0  0  0  0  0  0  0
   -0.1459    0.0490    0.8804 N   0  0  0  0  0  0  0  0  0  0  0  0
   -1.2737   -0.2704    0.0394 C   0  0  0  0  0  0  0  0  0  0  0  0
   -1.8790    0.9217   -0.6369 C   0  0  0  0  0  0  0  0  0  0  0  0
   -1.6007    0.9411   -2.1227 C   0  0  0  0  0  0  0  0  0  0  0  0
   -2.5575    1.7580   -2.9271 C   0  0  0  0  0  0  0  0  0  0  0  0
   -3.1377    2.8674   -2.0609 C   0  0  0  0  0  0  0  0  0  0  0  0
   -3.9493    2.2913   -0.9467 C   0  0  0  0  0  0  0  0  0  0  0  0
   -3.3656    1.0162   -0.3797 C   0  0  0  0  0  0  0  0  0  0  0  0
   -3.6096    1.0170    1.0145 N   0  0  0  0  0  0  0  0  0  0  0  0
   -3.0825   -0.0981    1.7326 C   0  0  0  0  0  0  0  0  0  0  0  0
   -4.1774   -0.7606    2.4967 C   0  0  0  0  0  0  0  0  0  0  0  0
   -4.3587   -2.2164    2.1293 C   0  0  0  0  0  0  0  0  0  0  0  0
   -4.3829   -2.3159    0.6324 C   0  0  0  0  0  0  0  0  0  0  0  0
   -2.9446   -2.0853    0.1586 C   0  0  0  0  0  0  0  0  0  0  0  0
   -2.2567   -1.0318    0.9173 C   0  0  0  0  0  0  0  0  0  0  0  0
    1.3791   -1.3542   -2.7042 C   0  0  0  0  0  0  0  0  0  0  0  0
    1.5642   -1.7569   -1.4039 O   0  0  0  0  0  0  0  0  0  0  0  0
    1.7888   -0.6991   -0.5139 C   0  0  0  0  0  0  0  0  0  0  0  0
    3.3148   -0.8595   -0.2022 C   0  0  0  0  0  0  0  0  0  0  0  0
    3.7908    0.0637    0.8452 C   0  0  0  0  0  0  0  0  0  0  0  0
    4.6614    1.1076    0.4493 N   0  0  0  0  0  0  0  0  0  0  0  0
    6.1489    0.9248    0.3164 S   0  0  0  0  0  0  0  0  0  0  0  0
    6.6456   -0.1215   -0.9719 C   0  0  0  0  0  0  0  0  0  0  0  0
    6.9413    2.3540    0.0935 O   0  0  0  0  0  0  0  0  0  0  0  0
    6.8840    0.2160    1.6739 O   0  0  0  0  0  0  0  0  0  0  0  0
    2.7107    0.5464    1.8147 C   0  0  0  0  0  0  0  0  0  0  0  0
    1.8246   -0.6807    2.0162 C   0  0  0  0  0  0  0  0  0  0  0  0
    0.9996   -0.7882    0.7268 C   0  0  0  0  0  0  0  0  0  0  0  0
   -0.1459    0.0490    0.8804 N   0  0  0  0  0  0  0  0  0  0  0  0
   -1.2737   -0.2704    0.0394 C   0  0  0  0  0  0  0  0  0  0  0  0
   -1.8790    0.9217   -0.6369 C   0  0  0  0  0  0  0  0  0  0  0  0
   -1.6007    0.9411   -2.1227 C   0  0  0  0  0  0  0  0  0  0  0  0
   -2.5575    1.7580   -2.9271 C   0  0  0  0  0  0  0  0  0  0  0  0
   -3.1377    2.8674   -2.0609 C   0  0  0  0  0  0  0  0  0  0  0  0
   -3.9493    2.2913   -0.9467 C   0  0  0  0  0  0  0  0  0  0  0  0
   -3.3656    1.0162   -0.3797 C   0  0  0  0  0  0  0  0  0  0  0  0
   -3.6096    1.0170    1.0145 N   0  0  0  0  0  0  0  0  0  0  0  0
   -3.0825   -0.0981    1.7326 C   0  0  0  0  0  0  0  0  0  0  0  0
   -4.1774   -0.7606    2.4967 C   0  0  0  0  0  0  0  0  0  0  0  0
   -4.3587   -2.2164    2.1293 C   0  0  0  0  0  0  0  0  0  0  0  0
   -4.3829   -2.3159    0.6324 C   0  0  0  0  0  0  0  0  0  0  0  0
   -2.9446   -2.0853    0.1586 C   0  0  0  0  0  0  0  0  0  0  0  0
   -2.2567   -1.0318    0.9173 C   0  0  0  0  0  0  0  0  0  0  0  0
    1.1767   -2.2824   -3.3135 H   0  0  0  0  0  0  0  0  0  0  0  0
    0.6480   -0.5631   -2.8631 H   0  0  0  0  0  0  0  0  0  0  0  0
    2.3431   -0.9772   -3.1625 H   0  0  0  0  0  0  0  0  0  0  0  0
    1.6654    0.2372   -1.0713 H   0  0  0  0  0  0  0  0  0  0  0  0
    3.7866   -0.6458   -1.1577 H   0  0  0  0  0  0  0  0  0  0  0  0
    3.4170   -1.9308    0.0430 H   0  0  0  0  0  0  0  0  0  0  0  0
    4.4428   -0.6003    1.5425 H   0  0  0  0  0  0  0  0  0  0  0  0
    4.1092    1.9620    0.1216 H   0  0  0  0  0  0  0  0  0  0  0  0
    6.0813   -1.0547   -1.0692 H   0  0  0  0  0  0  0  0  0  0  0  0
    7.7363   -0.3432   -0.7878 H   0  0  0  0  0  0  0  0  0  0  0  0
    6.6084    0.4566   -1.9383 H   0  0  0  0  0  0  0  0  0  0  0  0
    6.4584    3.0423    0.6505 H   0  0  0  0  0  0  0  0  0  0  0  0
    6.6894    0.7880    2.4846 H   0  0  0  0  0  0  0  0  0  0  0  0
    2.0902    1.3559    1.3965 H   0  0  0  0  0  0  0  0  0  0  0  0
    3.2118    0.8207    2.7765 H   0  0  0  0  0  0  0  0  0  0  0  0
    2.4490   -1.5901    2.0832 H   0  0  0  0  0  0  0  0  0  0  0  0
    1.1237   -0.5370    2.8383 H   0  0  0  0  0  0  0  0  0  0  0  0
    0.5804   -1.8776    0.8214 H   0  0  0  0  0  0  0  0  0  0  0  0
    0.1757    1.0383    0.7320 H   0  0  0  0  0  0  0  0  0  0  0  0
   -0.9204   -0.9777   -0.7342 H   0  0  0  0  0  0  0  0  0  0  0  0
   -1.4271    1.8332   -0.2023 H   0  0  0  0  0  0  0  0  0  0  0  0
   -1.6223   -0.1371   -2.4611 H   0  0  0  0  0  0  0  0  0  0  0  0
   -0.5761    1.3673   -2.2418 H   0  0  0  0  0  0  0  0  0  0  0  0
   -2.0073    2.2706   -3.7457 H   0  0  0  0  0  0  0  0  0  0  0  0
   -3.3983    1.1748   -3.3609 H   0  0  0  0  0  0  0  0  0  0  0  0
   -2.3508    3.5546   -1.7404 H   0  0  0  0  0  0  0  0  0  0  0  0
   -3.8514    3.4437   -2.7176 H   0  0  0  0  0  0  0  0  0  0  0  0
   -5.0016    2.0804   -1.2810 H   0  0  0  0  0  0  0  0  0  0  0  0
   -4.0728    3.0730   -0.1609 H   0  0  0  0  0  0  0  0  0  0  0  0
   -3.8327    0.1969   -0.9591 H   0  0  0  0  0  0  0  0  0  0  0  0
   -4.5785    1.2934    1.2836 H   0  0  0  0  0  0  0  0  0  0  0  0
   -2.3838    0.3570    2.4999 H   0  0  0  0  0  0  0  0  0  0  0  0
   -3.9905   -0.7514    3.6119 H   0  0  0  0  0  0  0  0  0  0  0  0
   -5.1680   -0.2738    2.3814 H   0  0  0  0  0  0  0  0  0  0  0  0
   -5.3296   -2.5229    2.5952 H   0  0  0  0  0  0  0  0  0  0  0  0
   -3.5399   -2.7955    2.5532 H   0  0  0  0  0  0  0  0  0  0  0  0
   -4.6956   -3.3063    0.2702 H   0  0  0  0  0  0  0  0  0  0  0  0
   -5.0382   -1.5759    0.1592 H   0  0  0  0  0  0  0  0  0  0  0  0
   -2.4661   -3.1049    0.3252 H   0  0  0  0  0  0  0  0  0  0  0  0
   -2.8809   -1.9651   -0.9411 H   0  0  0  0  0  0  0  0  0  0  0  0
   -1.5934   -1.5684    1.6724 H   0  0  0  0  0  0  0  0  0  0  0  0
    1.1767   -2.2824   -3.3135 H   0  0  0  0  0  0  0  0  0  0  0  0
    0.6480   -0.5631   -2.8631 H   0  0  0  0  0  0  0  0  0  0  0  0
    2.3431   -0.9772   -3.1625 H   0  0  0  0  0  0  0  0  0  0  0  0
    1.6654    0.2372   -1.0713 H   0  0  0  0  0  0  0  0  0  0  0  0
    3.7866   -0.6458   -1.1577 H   0  0  0  0  0  0  0  0  0  0  0  0
    3.4170   -1.9308    0.0430 H   0  0  0  0  0  0  0  0  0  0  0  0
    4.4428   -0.6003    1.5425 H   0  0  0  0  0  0  0  0  0  0  0  0
    4.1092    1.9620    0.1216 H   0  0  0  0  0  0  0  0  0  0  0  0
    6.0813   -1.0547   -1.0692 H   0  0  0  0  0  0  0  0  0  0  0  0
    7.7363   -0.3432   -0.7878 H   0  0  0  0  0  0  0  0  0  0  0  0
    6.6084    0.4566   -1.9383 H   0  0  0  0  0  0  0  0  0  0  0  0
    6.4584    3.0423    0.6505 H   0  0  0  0  0  0  0  0  0  0  0  0
    6.6894    0.7880    2.4846 H   0  0  0  0  0  0  0  0  0  0  0  0
    2.0902    1.3559    1.3965 H   0  0  0  0  0  0  0  0  0  0  0  0
    3.2118    0.8207    2.7765 H   0  0  0  0  0  0  0  0  0  0  0  0
    2.4490   -1.5901    2.0832 H   0  0  0  0  0  0  0  0  0  0  0  0
    1.1237   -0.5370    2.8383 H   0  0  0  0  0  0  0  0  0  0  0  0
    0.5804   -1.8776    0.8214 H   0  0  0  0  0  0  0  0  0  0  0  0
    0.1757    1.0383    0.7320 H   0  0  0  0  0  0  0  0  0  0  0  0
   -0.9204   -0.9777   -0.7342 H   0  0  0  0  0  0  0  0  0  0  0  0
   -1.4271    1.8332   -0.2023 H   0  0  0  0  0  0  0  0  0  0  0  0
   -1.6223   -0.1371   -2.4611 H   0  0  0  0  0  0  0  0  0  0  0  0
   -0.5761    1.3673   -2.2418 H   0  0  0  0  0  0  0  0  0  0  0  0
   -2.0073    2.2706   -3.7457 H   0  0  0  0  0  0  0  0  0  0  0  0
   -3.3983    1.1748   -3.3609 H   0  0  0  0  0  0  0  0  0  0  0  0
   -2.3508    3.5546   -1.7404 H   0  0  0  0  0  0  0  0  0  0  0  0
   -3.8514    3.4437   -2.7176 H   0  0  0  0  0  0  0  0  0  0  0  0
   -5.0016    2.0804   -1.2810 H   0  0  0  0  0  0  0  0  0  0  0  0
   -4.0728    3.0730   -0.1609 H   0  0  0  0  0  0  0  0  0  0  0  0
   -3.8327    0.1969   -0.9591 H   0  0  0  0  0  0  0  0  0  0  0  0
   -4.5785    1.2934    1.2836 H   0  0  0  0  0  0  0  0  0  0  0  0
   -2.3838    0.3570    2.4999 H   0  0  0  0  0  0  0  0  0  0  0  0
   -3.9905   -0.7514    3.6119 H   0  0  0  0  0  0  0  0  0  0  0  0
   -5.1680   -0.2738    2.3814 H   0  0  0  0  0  0  0  0  0  0  0  0
   -5.3296   -2.5229    2.5952 H   0  0  0  0  0  0  0  0  0  0  0  0
   -3.5399   -2.7955    2.5532 H   0  0  0  0  0  0  0  0  0  0  0  0
   -4.6956   -3.3063    0.2702 H   0  0  0  0  0  0  0  0  0  0  0  0
   -5.0382   -1.5759    0.1592 H   0  0  0  0  0  0  0  0  0  0  0  0
   -2.4661   -3.1049    0.3252 H   0  0  0  0  0  0  0  0  0  0  0  0
   -2.8809   -1.9651   -0.9411 H   0  0  0  0  0  0  0  0  0  0  0  0
   -1.5934   -1.5684    1.6724 H   0  0  0  0  0  0  0  0  0  0  0  0
  1  2  1  0
  2  3  1  0
  3  4  1  0
  4  5  1  0
  5  6  1  0
  6  7  1  0
  7  8  1  0
  7  9  1  0
  7 10  1  0
  5 11  1  0
 11 12  1  0
  3 13  1  0
 12 13  1  0
 13 14  1  0
 14 15  1  0
 15 16  1  0
 16 17  1  0
 17 18  1  0
 18 19  1  0
 19 20  1  0
 16 21  1  0
 20 21  1  0
 21 22  1  0
 22 23  1  0
 23 24  1  0
 24 25  1  0
 25 26  1  0
 26 27  1  0
 15 28  1  0
 23 28  1  0
 27 28  1  0
 29 30  1  0
 30 31  1  0
 31 32  1  0
 32 33  1  0
 33 34  1  0
 34 35  1  0
 35 36  1  0
 35 37  1  0
 35 38  1  0
 33 39  1  0
 39 40  1  0
 31 41  1  0
 40 41  1  0
 41 42  1  0
 42 43  1  0
 43 44  1  0
 44 45  1  0
 45 46  1  0
 46 47  1  0
 47 48  1  0
 44 49  1  0
 48 49  1  0
 49 50  1  0
 50 51  1  0
 51 52  1  0
 52 53  1  0
 53 54  1  0
 54 55  1  0
 43 56  1  0
 51 56  1  0
 55 56  1  0
  1 57  1  0
  1 58  1  0
  1 59  1  0
  3 60  1  0
  4 61  1  0
  4 62  1  0
  5 63  1  0
  6 64  1  0
  8 65  1  0
  8 66  1  0
  8 67  1  0
  9 68  1  0
 10 69  1  0
 11 70  1  0
 11 71  1  0
 12 72  1  0
 12 73  1  0
 13 74  1  0
 14 75  1  0
 15 76  1  0
 16 77  1  0
 17 78  1  0
 17 79  1  0
 18 80  1  0
 18 81  1  0
 19 82  1  0
 19 83  1  0
 20 84  1  0
 20 85  1  0
 21 86  1  0
 22 87  1  0
 23 88  1  0
 24 89  1  0
 24 90  1  0
 25 91  1  0
 25 92  1  0
 26 93  1  0
 26 94  1  0
 27 95  1  0
 27 96  1  0
 28 97  1  0
 29 98  1  0
 29 99  1  0
 29100  1  0
 31101  1  0
 32102  1  0
 32103  1  0
 33104  1  0
 34105  1  0
 36106  1  0
 36107  1  0
 36108  1  0
 37109  1  0
 38110  1  0
 39111  1  0
 39112  1  0
 40113  1  0
 40114  1  0
 41115  1  0
 42116  1  0
 43117  1  0
 44118  1  0
 45119  1  0
 45120  1  0
 46121  1  0
 46122  1  0
 47123  1  0
 47124  1  0
 48125  1  0
 48126  1  0
 49127  1  0
 50128  1  0
 51129  1  0
 52130  1  0
 52131  1  0
 53132  1  0
 53133  1  0
 54134  1  0
 54135  1  0
 55136  1  0
 55137  1  0
 56138  1  0
M  END
>  <PDBID>  (1) 
4G0U

>  <PDB ID>  (1) 
4G0U

>  <Generic Name>  (1) 
Amsacrine

>  <Brand Name>  (1) 
Amsa Pd Inj 50mg/ml#AMSA P-D#Amekrin#Amsidine#Amsidyl

>  <DrugBank ID>  (1) 
DB00276

>  <ATC Codes>  (1) 
L01XX01

>  <Ligand ID>  (1) 
ASW

>  <Target Name>  (1) 
DNA topoisomerase 2-alpha

>  <UniProt ID>  (1) 
P11388

>  <PDB ID.1>  (1) 
4G0U

>  <Seq. Identity>  (1) 
78%

$$$$
