PDB_DB00513_04
     RDKit          3D

 25 24  0  0  0  0  0  0  0  0999 V2000
    2.9883    0.5326    0.2318 C   0  0  0  0  0  0  0  0  0  0  0  0
    2.5729    1.8613    0.1527 O   0  0  0  0  0  0  0  0  0  0  0  0
    4.2943    0.4711   -0.2478 O   0  0  0  0  0  0  0  0  0  0  0  0
    2.0724   -0.3662   -0.5881 C   0  0  0  0  0  0  0  0  0  0  0  0
    0.6772   -0.2237   -0.0167 C   0  0  0  0  0  0  0  0  0  0  0  0
   -0.3227   -1.0747   -0.7550 C   0  0  0  0  0  0  0  0  0  0  0  0
   -1.6812   -0.8915   -0.1299 C   0  0  0  0  0  0  0  0  0  0  0  0
   -2.1942    0.5081   -0.1605 C   0  0  0  0  0  0  0  0  0  0  0  0
   -3.5249    0.5563    0.4684 N   0  0  0  0  0  0  0  0  0  0  0  0
    2.3944   -1.4072   -0.4011 H   0  0  0  0  0  0  0  0  0  0  0  0
    2.1025   -0.0860   -1.6478 H   0  0  0  0  0  0  0  0  0  0  0  0
    0.3619    0.8475   -0.1594 H   0  0  0  0  0  0  0  0  0  0  0  0
    0.7229   -0.5192    1.0472 H   0  0  0  0  0  0  0  0  0  0  0  0
   -0.0434   -2.1396   -0.7860 H   0  0  0  0  0  0  0  0  0  0  0  0
   -0.3995   -0.7357   -1.8296 H   0  0  0  0  0  0  0  0  0  0  0  0
   -1.6562   -1.2064    0.9530 H   0  0  0  0  0  0  0  0  0  0  0  0
   -2.4008   -1.5356   -0.6925 H   0  0  0  0  0  0  0  0  0  0  0  0
   -1.5283    1.2132    0.4194 H   0  0  0  0  0  0  0  0  0  0  0  0
   -2.3177    0.8714   -1.1951 H   0  0  0  0  0  0  0  0  0  0  0  0
   -3.4255    0.4635    1.4932 H   0  0  0  0  0  0  0  0  0  0  0  0
   -4.0528   -0.2534    0.0330 H   0  0  0  0  0  0  0  0  0  0  0  0
   -3.9981    1.4321    0.1680 H   0  0  0  0  0  0  0  0  0  0  0  0
    2.9173    0.2004    1.2904 H   0  0  0  0  0  0  0  0  0  0  0  0
    1.8783    1.9724    0.8524 H   0  0  0  0  0  0  0  0  0  0  0  0
    4.5628   -0.4907   -0.1759 H   0  0  0  0  0  0  0  0  0  0  0  0
  1  2  1  0
  1  3  1  0
  1  4  1  0
  4  5  1  0
  5  6  1  0
  6  7  1  0
  7  8  1  0
  8  9  1  0
  4 10  1  0
  4 11  1  0
  5 12  1  0
  5 13  1  0
  6 14  1  0
  6 15  1  0
  7 16  1  0
  7 17  1  0
  8 18  1  0
  8 19  1  0
  9 20  1  0
  9 21  1  0
 22  9  1  0
  1 23  1  0
  2 24  1  0
  3 25  1  0
M  CHG  1   9   1
M  END
>  <PDBID>  (1) 
1HPK

>  <PDB ID>  (1) 
1HPK

>  <Generic Name>  (1) 
Aminocaproic Acid

>  <Brand Name>  (1) 
Amicar#Aminocaproic Acid#Exoden White Tooth#Acepramin#Amocap#Caproamin#Caprocat#Caprolisin#E-Capro#Epsicaprom#Hemocid#Inselon#Ipron#Ipsilon#Kai Nai Yin#Minocap#Plaslloid#Resplamin

>  <DrugBank ID>  (1) 
DB00513

>  <ATC Codes>  (1) 
B02AA01

>  <Ligand ID>  (1) 
ACA

>  <Target Name>  (1) 
Plasminogen

>  <UniProt ID>  (1) 
P00747

>  <PDB ID.1>  (1) 
1HPK

>  <Seq. Identity>  (1) 
100%

$$$$
