PDB_DB06603_00
     RDKit          3D

134138  0  0  0  0  0  0  0  0999 V2000
    7.9249   -0.6307   -0.3074 O   0  0  0  0  0  0  0  0  0  0  0  0
    7.7750    0.6187    0.2521 C   0  0  0  0  0  0  0  0  0  0  0  0
    8.6288    1.6228   -0.3495 N   0  0  0  0  0  0  0  0  0  0  0  0
    8.3966    1.7688   -1.6550 O   0  0  0  0  0  0  0  0  0  0  0  0
    6.2959    1.0041    0.1624 C   0  0  0  0  0  0  0  0  0  0  0  0
    5.5229   -0.0454    0.9340 C   0  0  0  0  0  0  0  0  0  0  0  0
    4.0354    0.2064    0.9458 C   0  0  0  0  0  0  0  0  0  0  0  0
    3.3820   -0.8924    1.7314 C   0  0  0  0  0  0  0  0  0  0  0  0
    1.8723   -0.8807    1.6076 C   0  0  0  0  0  0  0  0  0  0  0  0
    3.5457    0.3308   -0.4518 C   0  0  0  0  0  0  0  0  0  0  0  0
    2.0795    0.0709   -0.6198 C   0  0  0  0  0  0  0  0  0  0  0  0
    1.5563   -1.1158    0.1523 C   0  0  0  0  0  0  0  0  0  0  0  0
    0.0460   -1.1163   -0.0087 C   0  0  0  0  0  0  0  0  0  0  0  0
   -0.6130   -2.1339    0.7572 N   0  0  0  0  0  0  0  0  0  0  0  0
   -2.0396   -2.0793    0.5384 C   0  0  0  0  0  0  0  0  0  0  0  0
   -2.7030   -0.8567    1.1256 C   0  0  0  0  0  0  0  0  0  0  0  0
   -4.1621   -0.8440    0.8943 C   0  0  0  0  0  0  0  0  0  0  0  0
   -4.6456   -0.8434   -0.5201 C   0  0  0  0  0  0  0  0  0  0  0  0
   -6.0390   -0.2518   -0.3673 C   0  0  0  0  0  0  0  0  0  0  0  0
   -5.8858    0.7898    0.5795 N   0  0  0  0  0  0  0  0  0  0  0  0
   -4.8819    0.3234    1.4933 C   0  0  0  0  0  0  0  0  0  0  0  0
   -3.9423    1.4432    1.8871 C   0  0  0  0  0  0  0  0  0  0  0  0
   -6.5869    0.1499   -1.6890 C   0  0  0  0  0  0  0  0  0  0  0  0
   -5.7897    1.2864   -2.2439 C   0  0  0  0  0  0  0  0  0  0  0  0
   -4.3272    1.1954   -1.9909 C   0  0  0  0  0  0  0  0  0  0  0  0
   -3.8275   -0.1358   -1.5163 C   0  0  0  0  0  0  0  0  0  0  0  0
    7.9249   -0.6307   -0.3074 O   0  0  0  0  0  0  0  0  0  0  0  0
    7.7750    0.6187    0.2521 C   0  0  0  0  0  0  0  0  0  0  0  0
    8.6288    1.6228   -0.3495 N   0  0  0  0  0  0  0  0  0  0  0  0
    8.3966    1.7688   -1.6550 O   0  0  0  0  0  0  0  0  0  0  0  0
    6.2959    1.0041    0.1624 C   0  0  0  0  0  0  0  0  0  0  0  0
    5.5229   -0.0454    0.9340 C   0  0  0  0  0  0  0  0  0  0  0  0
    4.0354    0.2064    0.9458 C   0  0  0  0  0  0  0  0  0  0  0  0
    3.3820   -0.8924    1.7314 C   0  0  0  0  0  0  0  0  0  0  0  0
    1.8723   -0.8807    1.6076 C   0  0  0  0  0  0  0  0  0  0  0  0
    3.5457    0.3308   -0.4518 C   0  0  0  0  0  0  0  0  0  0  0  0
    2.0795    0.0709   -0.6198 C   0  0  0  0  0  0  0  0  0  0  0  0
    1.5563   -1.1158    0.1523 C   0  0  0  0  0  0  0  0  0  0  0  0
    0.0460   -1.1163   -0.0087 C   0  0  0  0  0  0  0  0  0  0  0  0
   -0.6130   -2.1339    0.7572 N   0  0  0  0  0  0  0  0  0  0  0  0
   -2.0396   -2.0793    0.5384 C   0  0  0  0  0  0  0  0  0  0  0  0
   -2.7030   -0.8567    1.1256 C   0  0  0  0  0  0  0  0  0  0  0  0
   -4.1621   -0.8440    0.8943 C   0  0  0  0  0  0  0  0  0  0  0  0
   -4.6456   -0.8434   -0.5201 C   0  0  0  0  0  0  0  0  0  0  0  0
   -6.0390   -0.2518   -0.3673 C   0  0  0  0  0  0  0  0  0  0  0  0
   -5.8858    0.7898    0.5795 N   0  0  0  0  0  0  0  0  0  0  0  0
   -4.8819    0.3234    1.4933 C   0  0  0  0  0  0  0  0  0  0  0  0
   -3.9423    1.4432    1.8871 C   0  0  0  0  0  0  0  0  0  0  0  0
   -6.5869    0.1499   -1.6890 C   0  0  0  0  0  0  0  0  0  0  0  0
   -5.7897    1.2864   -2.2439 C   0  0  0  0  0  0  0  0  0  0  0  0
   -4.3272    1.1954   -1.9909 C   0  0  0  0  0  0  0  0  0  0  0  0
   -3.8275   -0.1358   -1.5163 C   0  0  0  0  0  0  0  0  0  0  0  0
    7.4830   -0.6237   -1.1969 H   0  0  0  0  0  0  0  0  0  0  0  0
    8.0598    0.5277    1.3389 H   0  0  0  0  0  0  0  0  0  0  0  0
    8.5734    2.4889    0.2136 H   0  0  0  0  0  0  0  0  0  0  0  0
    8.6456    0.9096   -2.0931 H   0  0  0  0  0  0  0  0  0  0  0  0
    6.1893    1.9852    0.6187 H   0  0  0  0  0  0  0  0  0  0  0  0
    5.9811    1.0630   -0.8907 H   0  0  0  0  0  0  0  0  0  0  0  0
    5.6994   -1.0276    0.4443 H   0  0  0  0  0  0  0  0  0  0  0  0
    5.9433   -0.1100    1.9645 H   0  0  0  0  0  0  0  0  0  0  0  0
    3.8935    1.1640    1.5243 H   0  0  0  0  0  0  0  0  0  0  0  0
    3.7316   -1.8969    1.4406 H   0  0  0  0  0  0  0  0  0  0  0  0
    3.6120   -0.7220    2.8157 H   0  0  0  0  0  0  0  0  0  0  0  0
    1.4790   -1.6589    2.2915 H   0  0  0  0  0  0  0  0  0  0  0  0
    1.4712    0.1354    1.8679 H   0  0  0  0  0  0  0  0  0  0  0  0
    4.1177   -0.2724   -1.1827 H   0  0  0  0  0  0  0  0  0  0  0  0
    3.7037    1.4064   -0.7639 H   0  0  0  0  0  0  0  0  0  0  0  0
    1.8706   -0.1155   -1.6933 H   0  0  0  0  0  0  0  0  0  0  0  0
    1.4925    0.9400   -0.3227 H   0  0  0  0  0  0  0  0  0  0  0  0
    2.0040   -2.0676   -0.1981 H   0  0  0  0  0  0  0  0  0  0  0  0
   -0.2057   -1.3182   -1.0914 H   0  0  0  0  0  0  0  0  0  0  0  0
   -0.3299   -0.1204    0.2764 H   0  0  0  0  0  0  0  0  0  0  0  0
   -0.4284   -1.9453    1.7782 H   0  0  0  0  0  0  0  0  0  0  0  0
   -2.4658   -2.9597    1.0693 H   0  0  0  0  0  0  0  0  0  0  0  0
   -2.1952   -2.1916   -0.5560 H   0  0  0  0  0  0  0  0  0  0  0  0
   -2.1894    0.0903    0.9066 H   0  0  0  0  0  0  0  0  0  0  0  0
   -2.5641   -0.9784    2.2454 H   0  0  0  0  0  0  0  0  0  0  0  0
   -4.5672   -1.7555    1.4374 H   0  0  0  0  0  0  0  0  0  0  0  0
   -4.7972   -1.8979   -0.8285 H   0  0  0  0  0  0  0  0  0  0  0  0
   -6.6949   -1.0400    0.1081 H   0  0  0  0  0  0  0  0  0  0  0  0
   -5.7532    1.7430    0.2379 H   0  0  0  0  0  0  0  0  0  0  0  0
   -5.4147    0.0555    2.4562 H   0  0  0  0  0  0  0  0  0  0  0  0
   -3.5679    2.0014    1.0180 H   0  0  0  0  0  0  0  0  0  0  0  0
   -3.1531    1.0346    2.5336 H   0  0  0  0  0  0  0  0  0  0  0  0
   -4.5406    2.1449    2.5032 H   0  0  0  0  0  0  0  0  0  0  0  0
   -6.4801   -0.7048   -2.3932 H   0  0  0  0  0  0  0  0  0  0  0  0
   -7.6518    0.4354   -1.6458 H   0  0  0  0  0  0  0  0  0  0  0  0
   -6.0607    1.3645   -3.3377 H   0  0  0  0  0  0  0  0  0  0  0  0
   -6.1911    2.2487   -1.8076 H   0  0  0  0  0  0  0  0  0  0  0  0
   -3.8182    1.3938   -2.9826 H   0  0  0  0  0  0  0  0  0  0  0  0
   -3.9927    2.0397   -1.3524 H   0  0  0  0  0  0  0  0  0  0  0  0
   -2.7744    0.0234   -1.1984 H   0  0  0  0  0  0  0  0  0  0  0  0
   -3.7322   -0.7735   -2.4482 H   0  0  0  0  0  0  0  0  0  0  0  0
    7.4830   -0.6237   -1.1969 H   0  0  0  0  0  0  0  0  0  0  0  0
    8.0598    0.5277    1.3389 H   0  0  0  0  0  0  0  0  0  0  0  0
    8.5734    2.4889    0.2136 H   0  0  0  0  0  0  0  0  0  0  0  0
    8.6456    0.9096   -2.0931 H   0  0  0  0  0  0  0  0  0  0  0  0
    6.1893    1.9852    0.6187 H   0  0  0  0  0  0  0  0  0  0  0  0
    5.9811    1.0630   -0.8907 H   0  0  0  0  0  0  0  0  0  0  0  0
    5.6994   -1.0276    0.4443 H   0  0  0  0  0  0  0  0  0  0  0  0
    5.9433   -0.1100    1.9645 H   0  0  0  0  0  0  0  0  0  0  0  0
    3.8935    1.1640    1.5243 H   0  0  0  0  0  0  0  0  0  0  0  0
    3.7316   -1.8969    1.4406 H   0  0  0  0  0  0  0  0  0  0  0  0
    3.6120   -0.7220    2.8157 H   0  0  0  0  0  0  0  0  0  0  0  0
    1.4790   -1.6589    2.2915 H   0  0  0  0  0  0  0  0  0  0  0  0
    1.4712    0.1354    1.8679 H   0  0  0  0  0  0  0  0  0  0  0  0
    4.1177   -0.2724   -1.1827 H   0  0  0  0  0  0  0  0  0  0  0  0
    3.7037    1.4064   -0.7639 H   0  0  0  0  0  0  0  0  0  0  0  0
    1.8706   -0.1155   -1.6933 H   0  0  0  0  0  0  0  0  0  0  0  0
    1.4925    0.9400   -0.3227 H   0  0  0  0  0  0  0  0  0  0  0  0
    2.0040   -2.0676   -0.1981 H   0  0  0  0  0  0  0  0  0  0  0  0
   -0.2057   -1.3182   -1.0914 H   0  0  0  0  0  0  0  0  0  0  0  0
   -0.3299   -0.1204    0.2764 H   0  0  0  0  0  0  0  0  0  0  0  0
   -0.4284   -1.9453    1.7782 H   0  0  0  0  0  0  0  0  0  0  0  0
   -2.4658   -2.9597    1.0693 H   0  0  0  0  0  0  0  0  0  0  0  0
   -2.1952   -2.1916   -0.5560 H   0  0  0  0  0  0  0  0  0  0  0  0
   -2.1894    0.0903    0.9066 H   0  0  0  0  0  0  0  0  0  0  0  0
   -2.5641   -0.9784    2.2454 H   0  0  0  0  0  0  0  0  0  0  0  0
   -4.5672   -1.7555    1.4374 H   0  0  0  0  0  0  0  0  0  0  0  0
   -4.7972   -1.8979   -0.8285 H   0  0  0  0  0  0  0  0  0  0  0  0
   -6.6949   -1.0400    0.1081 H   0  0  0  0  0  0  0  0  0  0  0  0
   -5.7532    1.7430    0.2379 H   0  0  0  0  0  0  0  0  0  0  0  0
   -5.4147    0.0555    2.4562 H   0  0  0  0  0  0  0  0  0  0  0  0
   -3.5679    2.0014    1.0180 H   0  0  0  0  0  0  0  0  0  0  0  0
   -3.1531    1.0346    2.5336 H   0  0  0  0  0  0  0  0  0  0  0  0
   -4.5406    2.1449    2.5032 H   0  0  0  0  0  0  0  0  0  0  0  0
   -6.4801   -0.7048   -2.3932 H   0  0  0  0  0  0  0  0  0  0  0  0
   -7.6518    0.4354   -1.6458 H   0  0  0  0  0  0  0  0  0  0  0  0
   -6.0607    1.3645   -3.3377 H   0  0  0  0  0  0  0  0  0  0  0  0
   -6.1911    2.2487   -1.8076 H   0  0  0  0  0  0  0  0  0  0  0  0
   -3.8182    1.3938   -2.9826 H   0  0  0  0  0  0  0  0  0  0  0  0
   -3.9927    2.0397   -1.3524 H   0  0  0  0  0  0  0  0  0  0  0  0
   -2.7744    0.0234   -1.1984 H   0  0  0  0  0  0  0  0  0  0  0  0
   -3.7322   -0.7735   -2.4482 H   0  0  0  0  0  0  0  0  0  0  0  0
  1  2  1  0
  2  3  1  0
  4  3  1  0
  2  5  1  0
  5  6  1  0
  6  7  1  0
  7  8  1  0
  8  9  1  0
  7 10  1  0
 10 11  1  0
  9 12  1  0
 11 12  1  0
 12 13  1  0
 13 14  1  0
 14 15  1  0
 15 16  1  0
 16 17  1  0
 17 18  1  0
 18 19  1  0
 19 20  1  0
 17 21  1  0
 20 21  1  0
 21 22  1  0
 19 23  1  0
 23 24  1  0
 24 25  1  0
 18 26  1  0
 25 26  1  0
 27 28  1  0
 28 29  1  0
 30 29  1  0
 28 31  1  0
 31 32  1  0
 32 33  1  0
 33 34  1  0
 34 35  1  0
 33 36  1  0
 36 37  1  0
 35 38  1  0
 37 38  1  0
 38 39  1  0
 39 40  1  0
 40 41  1  0
 41 42  1  0
 42 43  1  0
 43 44  1  0
 44 45  1  0
 45 46  1  0
 43 47  1  0
 46 47  1  0
 47 48  1  0
 45 49  1  0
 49 50  1  0
 50 51  1  0
 44 52  1  0
 51 52  1  0
  1 53  1  0
  2 54  1  0
  3 55  1  0
  4 56  1  0
  5 57  1  0
  5 58  1  0
  6 59  1  0
  6 60  1  0
  7 61  1  0
  8 62  1  0
  8 63  1  0
  9 64  1  0
  9 65  1  0
 10 66  1  0
 10 67  1  0
 11 68  1  0
 11 69  1  0
 12 70  1  0
 13 71  1  0
 13 72  1  0
 14 73  1  0
 15 74  1  0
 15 75  1  0
 16 76  1  0
 16 77  1  0
 17 78  1  0
 18 79  1  0
 19 80  1  0
 20 81  1  0
 21 82  1  0
 22 83  1  0
 22 84  1  0
 22 85  1  0
 23 86  1  0
 23 87  1  0
 24 88  1  0
 24 89  1  0
 25 90  1  0
 25 91  1  0
 26 92  1  0
 26 93  1  0
 27 94  1  0
 28 95  1  0
 29 96  1  0
 30 97  1  0
 31 98  1  0
 31 99  1  0
 32100  1  0
 32101  1  0
 33102  1  0
 34103  1  0
 34104  1  0
 35105  1  0
 35106  1  0
 36107  1  0
 36108  1  0
 37109  1  0
 37110  1  0
 38111  1  0
 39112  1  0
 39113  1  0
 40114  1  0
 41115  1  0
 41116  1  0
 42117  1  0
 42118  1  0
 43119  1  0
 44120  1  0
 45121  1  0
 46122  1  0
 47123  1  0
 48124  1  0
 48125  1  0
 48126  1  0
 49127  1  0
 49128  1  0
 50129  1  0
 50130  1  0
 51131  1  0
 51132  1  0
 52133  1  0
 52134  1  0
M  END
>  <PDBID>  (1) 
5EF8

>  <PDB ID>  (1) 
5EF8

>  <Generic Name>  (1) 
Panobinostat

>  <Brand Name>  (1) 
Farydak

>  <DrugBank ID>  (1) 
DB06603

>  <ATC Codes>  (1) 
L01XX42

>  <Ligand ID>  (1) 
LBH

>  <Target Name>  (1) 
Histone deacetylase 9

>  <UniProt ID>  (1) 
Q9UKV0

>  <PDB ID.1>  (1) 
5EF8

>  <Seq. Identity>  (1) 
46%

$$$$
