PDB_DB06616_07
     RDKit          3D

170176  0  0  0  0  0  0  0  0999 V2000
   -1.9022   -2.8838   -0.4759 C   0  0  0  0  0  0  0  0  0  0  0  0
    6.3887    1.2178   -0.3756 O   0  0  0  0  0  0  0  0  0  0  0  0
   -4.4108    0.5623    0.0397 C   0  0  0  0  0  0  0  0  0  0  0  0
    4.6351   -0.9464    2.9740 N   0  0  0  0  0  0  0  0  0  0  0  0
    8.4802   -0.5799    0.0200 Cl  0  0  0  0  0  0  0  0  0  0  0  0
    4.0961   -3.6103   -0.7394 Cl  0  0  0  0  0  0  0  0  0  0  0  0
    4.1078    0.3037    2.5605 C   0  0  0  0  0  0  0  0  0  0  0  0
    2.2512    1.5196    1.6135 C   0  0  0  0  0  0  0  0  0  0  0  0
    6.2294   -1.9461   -0.3603 C   0  0  0  0  0  0  0  0  0  0  0  0
    5.0479    0.0710   -2.0386 C   0  0  0  0  0  0  0  0  0  0  0  0
   -0.0455    0.9066   -1.1856 C   0  0  0  0  0  0  0  0  0  0  0  0
    0.3933   -0.9502    0.9746 C   0  0  0  0  0  0  0  0  0  0  0  0
   -3.8488    1.5667    0.9679 C   0  0  0  0  0  0  0  0  0  0  0  0
   -2.5117    2.1262    0.7201 C   0  0  0  0  0  0  0  0  0  0  0  0
   -9.8606   -0.2043   -0.0137 C   0  0  0  0  0  0  0  0  0  0  0  0
   -6.6129    1.4448    0.3672 C   0  0  0  0  0  0  0  0  0  0  0  0
   -6.2806   -0.8418   -0.2654 C   0  0  0  0  0  0  0  0  0  0  0  0
   -7.8917    1.0634   -0.3380 C   0  0  0  0  0  0  0  0  0  0  0  0
   -7.6866   -1.2256    0.0621 C   0  0  0  0  0  0  0  0  0  0  0  0
    1.0890    1.5481    0.7906 N   0  0  0  0  0  0  0  0  0  0  0  0
    3.9536   -0.3118    0.0341 N   0  0  0  0  0  0  0  0  0  0  0  0
   -1.0062   -1.8739   -0.6585 O   0  0  0  0  0  0  0  0  0  0  0  0
   -1.4099    1.3805    0.6602 O   0  0  0  0  0  0  0  0  0  0  0  0
    6.3957    0.3149   -1.4346 C   0  0  0  0  0  0  0  0  0  0  0  0
    7.1209   -0.9578   -1.0763 C   0  0  0  0  0  0  0  0  0  0  0  0
    5.0140   -2.1861   -1.1855 C   0  0  0  0  0  0  0  0  0  0  0  0
    2.7159    0.1274    2.0028 C   0  0  0  0  0  0  0  0  0  0  0  0
    4.2021   -0.9196   -1.2322 C   0  0  0  0  0  0  0  0  0  0  0  0
   -0.9648   -0.8907    0.2871 C   0  0  0  0  0  0  0  0  0  0  0  0
   -1.2176    0.4485   -0.3234 C   0  0  0  0  0  0  0  0  0  0  0  0
    2.8095   -0.7560    0.7530 C   0  0  0  0  0  0  0  0  0  0  0  0
    1.2651    0.7851   -0.4560 C   0  0  0  0  0  0  0  0  0  0  0  0
    1.5131   -0.6366   -0.0157 C   0  0  0  0  0  0  0  0  0  0  0  0
   -5.7755    0.2535    0.5522 N   0  0  0  0  0  0  0  0  0  0  0  0
   -8.4782   -0.0502    0.4027 N   0  0  0  0  0  0  0  0  0  0  0  0
    7.1349    2.3725   -0.6768 C   0  0  0  0  0  0  0  0  0  0  0  0
   -1.9022   -2.8838   -0.4759 C   0  0  0  0  0  0  0  0  0  0  0  0
    6.3887    1.2178   -0.3756 O   0  0  0  0  0  0  0  0  0  0  0  0
   -4.4108    0.5623    0.0397 C   0  0  0  0  0  0  0  0  0  0  0  0
    4.6351   -0.9464    2.9740 N   0  0  0  0  0  0  0  0  0  0  0  0
    8.4802   -0.5799    0.0200 Cl  0  0  0  0  0  0  0  0  0  0  0  0
    4.0961   -3.6103   -0.7394 Cl  0  0  0  0  0  0  0  0  0  0  0  0
    4.1078    0.3037    2.5605 C   0  0  0  0  0  0  0  0  0  0  0  0
    2.2512    1.5196    1.6135 C   0  0  0  0  0  0  0  0  0  0  0  0
    6.2294   -1.9461   -0.3603 C   0  0  0  0  0  0  0  0  0  0  0  0
    5.0479    0.0710   -2.0386 C   0  0  0  0  0  0  0  0  0  0  0  0
   -0.0455    0.9066   -1.1856 C   0  0  0  0  0  0  0  0  0  0  0  0
    0.3933   -0.9502    0.9746 C   0  0  0  0  0  0  0  0  0  0  0  0
   -3.8488    1.5667    0.9679 C   0  0  0  0  0  0  0  0  0  0  0  0
   -2.5117    2.1262    0.7201 C   0  0  0  0  0  0  0  0  0  0  0  0
   -9.8606   -0.2043   -0.0137 C   0  0  0  0  0  0  0  0  0  0  0  0
   -6.6129    1.4448    0.3672 C   0  0  0  0  0  0  0  0  0  0  0  0
   -6.2806   -0.8418   -0.2654 C   0  0  0  0  0  0  0  0  0  0  0  0
   -7.8917    1.0634   -0.3380 C   0  0  0  0  0  0  0  0  0  0  0  0
   -7.6866   -1.2256    0.0621 C   0  0  0  0  0  0  0  0  0  0  0  0
    1.0890    1.5481    0.7906 N   0  0  0  0  0  0  0  0  0  0  0  0
    3.9536   -0.3118    0.0341 N   0  0  0  0  0  0  0  0  0  0  0  0
   -1.0062   -1.8739   -0.6585 O   0  0  0  0  0  0  0  0  0  0  0  0
   -1.4099    1.3805    0.6602 O   0  0  0  0  0  0  0  0  0  0  0  0
    6.3957    0.3149   -1.4346 C   0  0  0  0  0  0  0  0  0  0  0  0
    7.1209   -0.9578   -1.0763 C   0  0  0  0  0  0  0  0  0  0  0  0
    5.0140   -2.1861   -1.1855 C   0  0  0  0  0  0  0  0  0  0  0  0
    2.7159    0.1274    2.0028 C   0  0  0  0  0  0  0  0  0  0  0  0
    4.2021   -0.9196   -1.2322 C   0  0  0  0  0  0  0  0  0  0  0  0
   -0.9648   -0.8907    0.2871 C   0  0  0  0  0  0  0  0  0  0  0  0
   -1.2176    0.4485   -0.3234 C   0  0  0  0  0  0  0  0  0  0  0  0
    2.8095   -0.7560    0.7530 C   0  0  0  0  0  0  0  0  0  0  0  0
    1.2651    0.7851   -0.4560 C   0  0  0  0  0  0  0  0  0  0  0  0
    1.5131   -0.6366   -0.0157 C   0  0  0  0  0  0  0  0  0  0  0  0
   -5.7755    0.2535    0.5522 N   0  0  0  0  0  0  0  0  0  0  0  0
   -8.4782   -0.0502    0.4027 N   0  0  0  0  0  0  0  0  0  0  0  0
    7.1349    2.3725   -0.6768 C   0  0  0  0  0  0  0  0  0  0  0  0
   -1.8847   -3.6587   -1.2678 H   0  0  0  0  0  0  0  0  0  0  0  0
   -2.9258   -2.4623   -0.5166 H   0  0  0  0  0  0  0  0  0  0  0  0
   -1.8219   -3.4137    0.4839 H   0  0  0  0  0  0  0  0  0  0  0  0
   -4.4275    0.8023   -1.0162 H   0  0  0  0  0  0  0  0  0  0  0  0
   -3.8952   -0.4376    0.1681 H   0  0  0  0  0  0  0  0  0  0  0  0
    4.3838   -1.7072    2.3432 H   0  0  0  0  0  0  0  0  0  0  0  0
    4.3611   -1.1990    3.9427 H   0  0  0  0  0  0  0  0  0  0  0  0
    4.7074    0.7857    1.7414 H   0  0  0  0  0  0  0  0  0  0  0  0
    3.9946    1.0282    3.4160 H   0  0  0  0  0  0  0  0  0  0  0  0
    1.9619    2.0130    2.5856 H   0  0  0  0  0  0  0  0  0  0  0  0
    3.1171    2.0629    1.2119 H   0  0  0  0  0  0  0  0  0  0  0  0
    6.0577   -1.5871    0.6539 H   0  0  0  0  0  0  0  0  0  0  0  0
    6.8139   -2.9095   -0.3417 H   0  0  0  0  0  0  0  0  0  0  0  0
    4.5473    1.0384   -2.1488 H   0  0  0  0  0  0  0  0  0  0  0  0
    5.2336   -0.3188   -3.0767 H   0  0  0  0  0  0  0  0  0  0  0  0
    0.0084    0.2806   -2.0887 H   0  0  0  0  0  0  0  0  0  0  0  0
   -0.1527    1.9516   -1.5136 H   0  0  0  0  0  0  0  0  0  0  0  0
    0.5588   -1.8941    1.5151 H   0  0  0  0  0  0  0  0  0  0  0  0
    0.4233   -0.1361    1.7282 H   0  0  0  0  0  0  0  0  0  0  0  0
   -3.9368    1.1191    2.0128 H   0  0  0  0  0  0  0  0  0  0  0  0
   -4.5612    2.4542    1.0594 H   0  0  0  0  0  0  0  0  0  0  0  0
   -2.3630    2.9096    1.5515 H   0  0  0  0  0  0  0  0  0  0  0  0
   -2.5413    2.7254   -0.2637 H   0  0  0  0  0  0  0  0  0  0  0  0
  -10.5144   -0.0416    0.8432 H   0  0  0  0  0  0  0  0  0  0  0  0
   -9.9819   -1.2655   -0.3411 H   0  0  0  0  0  0  0  0  0  0  0  0
  -10.1056    0.4933   -0.8656 H   0  0  0  0  0  0  0  0  0  0  0  0
   -6.0771    2.1485   -0.3019 H   0  0  0  0  0  0  0  0  0  0  0  0
   -6.8861    1.9168    1.3350 H   0  0  0  0  0  0  0  0  0  0  0  0
   -6.1459   -0.5193   -1.3337 H   0  0  0  0  0  0  0  0  0  0  0  0
   -5.5862   -1.7018   -0.0753 H   0  0  0  0  0  0  0  0  0  0  0  0
   -7.7083    0.8047   -1.3928 H   0  0  0  0  0  0  0  0  0  0  0  0
   -8.5927    1.9417   -0.2586 H   0  0  0  0  0  0  0  0  0  0  0  0
   -8.1326   -1.6884   -0.8666 H   0  0  0  0  0  0  0  0  0  0  0  0
   -7.7278   -1.9550    0.8814 H   0  0  0  0  0  0  0  0  0  0  0  0
    0.8848    2.5341    0.5598 H   0  0  0  0  0  0  0  0  0  0  0  0
    3.8917    0.7205   -0.1143 H   0  0  0  0  0  0  0  0  0  0  0  0
    7.0166    0.7841   -2.2523 H   0  0  0  0  0  0  0  0  0  0  0  0
    7.5435   -1.4223   -1.9688 H   0  0  0  0  0  0  0  0  0  0  0  0
    5.3716   -2.3571   -2.2454 H   0  0  0  0  0  0  0  0  0  0  0  0
    2.1177   -0.3344    2.8037 H   0  0  0  0  0  0  0  0  0  0  0  0
    3.2724   -1.0403   -1.8325 H   0  0  0  0  0  0  0  0  0  0  0  0
   -1.7177   -1.0979    1.0599 H   0  0  0  0  0  0  0  0  0  0  0  0
   -2.0791    0.4152   -0.9878 H   0  0  0  0  0  0  0  0  0  0  0  0
    2.8631   -1.7881    1.1030 H   0  0  0  0  0  0  0  0  0  0  0  0
    2.0654    1.2213   -1.0712 H   0  0  0  0  0  0  0  0  0  0  0  0
    1.4983   -1.3181   -0.8746 H   0  0  0  0  0  0  0  0  0  0  0  0
    7.1334    3.0817    0.1480 H   0  0  0  0  0  0  0  0  0  0  0  0
    8.1985    2.0105   -0.7952 H   0  0  0  0  0  0  0  0  0  0  0  0
    6.7997    2.7693   -1.6380 H   0  0  0  0  0  0  0  0  0  0  0  0
   -1.8847   -3.6587   -1.2678 H   0  0  0  0  0  0  0  0  0  0  0  0
   -2.9258   -2.4623   -0.5166 H   0  0  0  0  0  0  0  0  0  0  0  0
   -1.8219   -3.4137    0.4839 H   0  0  0  0  0  0  0  0  0  0  0  0
   -4.4275    0.8023   -1.0162 H   0  0  0  0  0  0  0  0  0  0  0  0
   -3.8952   -0.4376    0.1681 H   0  0  0  0  0  0  0  0  0  0  0  0
    4.3838   -1.7072    2.3432 H   0  0  0  0  0  0  0  0  0  0  0  0
    4.3611   -1.1990    3.9427 H   0  0  0  0  0  0  0  0  0  0  0  0
    4.7074    0.7857    1.7414 H   0  0  0  0  0  0  0  0  0  0  0  0
    3.9946    1.0282    3.4160 H   0  0  0  0  0  0  0  0  0  0  0  0
    1.9619    2.0130    2.5856 H   0  0  0  0  0  0  0  0  0  0  0  0
    3.1171    2.0629    1.2119 H   0  0  0  0  0  0  0  0  0  0  0  0
    6.0577   -1.5871    0.6539 H   0  0  0  0  0  0  0  0  0  0  0  0
    6.8139   -2.9095   -0.3417 H   0  0  0  0  0  0  0  0  0  0  0  0
    4.5473    1.0384   -2.1488 H   0  0  0  0  0  0  0  0  0  0  0  0
    5.2336   -0.3188   -3.0767 H   0  0  0  0  0  0  0  0  0  0  0  0
    0.0084    0.2806   -2.0887 H   0  0  0  0  0  0  0  0  0  0  0  0
   -0.1527    1.9516   -1.5136 H   0  0  0  0  0  0  0  0  0  0  0  0
    0.5588   -1.8941    1.5151 H   0  0  0  0  0  0  0  0  0  0  0  0
    0.4233   -0.1361    1.7282 H   0  0  0  0  0  0  0  0  0  0  0  0
   -3.9368    1.1191    2.0128 H   0  0  0  0  0  0  0  0  0  0  0  0
   -4.5612    2.4542    1.0594 H   0  0  0  0  0  0  0  0  0  0  0  0
   -2.3630    2.9096    1.5515 H   0  0  0  0  0  0  0  0  0  0  0  0
   -2.5413    2.7254   -0.2637 H   0  0  0  0  0  0  0  0  0  0  0  0
  -10.5144   -0.0416    0.8432 H   0  0  0  0  0  0  0  0  0  0  0  0
   -9.9819   -1.2655   -0.3411 H   0  0  0  0  0  0  0  0  0  0  0  0
  -10.1056    0.4933   -0.8656 H   0  0  0  0  0  0  0  0  0  0  0  0
   -6.0771    2.1485   -0.3019 H   0  0  0  0  0  0  0  0  0  0  0  0
   -6.8861    1.9168    1.3350 H   0  0  0  0  0  0  0  0  0  0  0  0
   -6.1459   -0.5193   -1.3337 H   0  0  0  0  0  0  0  0  0  0  0  0
   -5.5862   -1.7018   -0.0753 H   0  0  0  0  0  0  0  0  0  0  0  0
   -7.7083    0.8047   -1.3928 H   0  0  0  0  0  0  0  0  0  0  0  0
   -8.5927    1.9417   -0.2586 H   0  0  0  0  0  0  0  0  0  0  0  0
   -8.1326   -1.6884   -0.8666 H   0  0  0  0  0  0  0  0  0  0  0  0
   -7.7278   -1.9550    0.8814 H   0  0  0  0  0  0  0  0  0  0  0  0
    0.8848    2.5341    0.5598 H   0  0  0  0  0  0  0  0  0  0  0  0
    3.8917    0.7205   -0.1143 H   0  0  0  0  0  0  0  0  0  0  0  0
    7.0166    0.7841   -2.2523 H   0  0  0  0  0  0  0  0  0  0  0  0
    7.5435   -1.4223   -1.9688 H   0  0  0  0  0  0  0  0  0  0  0  0
    5.3716   -2.3571   -2.2454 H   0  0  0  0  0  0  0  0  0  0  0  0
    2.1177   -0.3344    2.8037 H   0  0  0  0  0  0  0  0  0  0  0  0
    3.2724   -1.0403   -1.8325 H   0  0  0  0  0  0  0  0  0  0  0  0
   -1.7177   -1.0979    1.0599 H   0  0  0  0  0  0  0  0  0  0  0  0
   -2.0791    0.4152   -0.9878 H   0  0  0  0  0  0  0  0  0  0  0  0
    2.8631   -1.7881    1.1030 H   0  0  0  0  0  0  0  0  0  0  0  0
    2.0654    1.2213   -1.0712 H   0  0  0  0  0  0  0  0  0  0  0  0
    1.4983   -1.3181   -0.8746 H   0  0  0  0  0  0  0  0  0  0  0  0
    7.1334    3.0817    0.1480 H   0  0  0  0  0  0  0  0  0  0  0  0
    8.1985    2.0105   -0.7952 H   0  0  0  0  0  0  0  0  0  0  0  0
    6.7997    2.7693   -1.6380 H   0  0  0  0  0  0  0  0  0  0  0  0
  4  7  1  0
  3 13  1  0
 13 14  1  0
 16 18  1  0
 17 19  1  0
  8 20  1  0
  1 22  1  0
 14 23  1  0
  2 24  1  0
 10 24  1  0
  5 25  1  0
  9 25  1  0
 24 25  1  0
  6 26  1  0
  9 26  1  0
  7 27  1  0
  8 27  1  0
 10 28  1  0
 21 28  1  0
 26 28  1  0
 12 29  1  0
 22 29  1  0
 11 30  1  0
 23 30  1  0
 29 30  1  0
 21 31  1  0
 27 31  1  0
 11 32  1  0
 20 32  1  0
 12 33  1  0
 31 33  1  0
 32 33  1  0
  3 34  1  0
 16 34  1  0
 17 34  1  0
 15 35  1  0
 18 35  1  0
 19 35  1  0
  2 36  1  0
 40 43  1  0
 39 49  1  0
 49 50  1  0
 52 54  1  0
 53 55  1  0
 44 56  1  0
 37 58  1  0
 50 59  1  0
 38 60  1  0
 46 60  1  0
 41 61  1  0
 45 61  1  0
 60 61  1  0
 42 62  1  0
 45 62  1  0
 43 63  1  0
 44 63  1  0
 46 64  1  0
 57 64  1  0
 62 64  1  0
 48 65  1  0
 58 65  1  0
 47 66  1  0
 59 66  1  0
 65 66  1  0
 57 67  1  0
 63 67  1  0
 47 68  1  0
 56 68  1  0
 48 69  1  0
 67 69  1  0
 68 69  1  0
 39 70  1  0
 52 70  1  0
 53 70  1  0
 51 71  1  0
 54 71  1  0
 55 71  1  0
 38 72  1  0
  1 73  1  0
  1 74  1  0
  1 75  1  0
  3 76  1  0
  3 77  1  0
  4 78  1  0
  4 79  1  0
  7 80  1  0
  7 81  1  0
  8 82  1  0
  8 83  1  0
  9 84  1  0
  9 85  1  0
 10 86  1  0
 10 87  1  0
 11 88  1  0
 11 89  1  0
 12 90  1  0
 12 91  1  0
 13 92  1  0
 13 93  1  0
 14 94  1  0
 14 95  1  0
 15 96  1  0
 15 97  1  0
 15 98  1  0
 16 99  1  0
 16100  1  0
 17101  1  0
 17102  1  0
 18103  1  0
 18104  1  0
 19105  1  0
 19106  1  0
 20107  1  0
 21108  1  0
 24109  1  0
 25110  1  0
 26111  1  0
 27112  1  0
 28113  1  0
 29114  1  0
 30115  1  0
 31116  1  0
 32117  1  0
 33118  1  0
 36119  1  0
 36120  1  0
 36121  1  0
 37122  1  0
 37123  1  0
 37124  1  0
 39125  1  0
 39126  1  0
 40127  1  0
 40128  1  0
 43129  1  0
 43130  1  0
 44131  1  0
 44132  1  0
 45133  1  0
 45134  1  0
 46135  1  0
 46136  1  0
 47137  1  0
 47138  1  0
 48139  1  0
 48140  1  0
 49141  1  0
 49142  1  0
 50143  1  0
 50144  1  0
 51145  1  0
 51146  1  0
 51147  1  0
 52148  1  0
 52149  1  0
 53150  1  0
 53151  1  0
 54152  1  0
 54153  1  0
 55154  1  0
 55155  1  0
 56156  1  0
 57157  1  0
 60158  1  0
 61159  1  0
 62160  1  0
 63161  1  0
 64162  1  0
 65163  1  0
 66164  1  0
 67165  1  0
 68166  1  0
 69167  1  0
 72168  1  0
 72169  1  0
 72170  1  0
M  END
>  <PDBID>  (1) 
3UE4

>  <PDB ID>  (1) 
3UE4

>  <Generic Name>  (1) 
Bosutinib

>  <Brand Name>  (1) 
Bosulif

>  <DrugBank ID>  (1) 
DB06616

>  <ATC Codes>  (1) 
L01XE14

>  <Ligand ID>  (1) 
DB8

>  <Target Name>  (1) 
Tyrosine-protein kinase ABL1

>  <UniProt ID>  (1) 
P00519

>  <PDB ID.1>  (1) 
3UE4

>  <Seq. Identity>  (1) 
95%

$$$$
