PDB_DB00259_04
     RDKit          3D

 27 27  0  0  0  0  0  0  0  0999 V2000
    2.1438   -0.1447   -0.2680 C   0  0  0  0  0  0  0  0  0  0  0  0
    3.4532    0.1305    0.2640 N   0  0  0  0  0  0  0  0  0  0  0  0
    1.2678   -0.9212    0.6755 C   0  0  0  0  0  0  0  0  0  0  0  0
   -0.0411   -1.2002   -0.0316 C   0  0  0  0  0  0  0  0  0  0  0  0
   -0.7617    0.0767   -0.3983 C   0  0  0  0  0  0  0  0  0  0  0  0
    0.0784    1.2660   -0.0289 C   0  0  0  0  0  0  0  0  0  0  0  0
    1.4353    1.1046   -0.7150 C   0  0  0  0  0  0  0  0  0  0  0  0
   -2.3307    0.0847    0.2692 S   0  0  0  0  0  0  0  0  0  0  0  0
   -3.0688   -1.3199   -0.3364 N   0  0  0  0  0  0  0  0  0  0  0  0
   -2.4920    0.4777    1.6051 O   0  0  0  0  0  0  0  0  0  0  0  0
   -3.1522    1.2820   -0.8048 O   0  0  0  0  0  0  0  0  0  0  0  0
    2.2924   -0.7851   -1.1718 H   0  0  0  0  0  0  0  0  0  0  0  0
    3.6257   -0.2517    1.2026 H   0  0  0  0  0  0  0  0  0  0  0  0
    4.1987   -0.0347   -0.4302 H   0  0  0  0  0  0  0  0  0  0  0  0
    1.7491   -1.8947    0.8714 H   0  0  0  0  0  0  0  0  0  0  0  0
    1.0695   -0.3788    1.5993 H   0  0  0  0  0  0  0  0  0  0  0  0
   -0.6752   -1.8132    0.6727 H   0  0  0  0  0  0  0  0  0  0  0  0
    0.1410   -1.8557   -0.9052 H   0  0  0  0  0  0  0  0  0  0  0  0
   -0.8518    0.0942   -1.5243 H   0  0  0  0  0  0  0  0  0  0  0  0
    0.2333    1.3987    1.0401 H   0  0  0  0  0  0  0  0  0  0  0  0
   -0.3660    2.1843   -0.4593 H   0  0  0  0  0  0  0  0  0  0  0  0
    2.0612    1.9757   -0.4150 H   0  0  0  0  0  0  0  0  0  0  0  0
    1.3336    1.1532   -1.8203 H   0  0  0  0  0  0  0  0  0  0  0  0
   -2.7859   -1.4265   -1.3426 H   0  0  0  0  0  0  0  0  0  0  0  0
   -2.7159   -2.1541    0.1609 H   0  0  0  0  0  0  0  0  0  0  0  0
   -3.2513    0.8746    2.0709 H   0  0  0  0  0  0  0  0  0  0  0  0
   -2.5902    2.0778   -0.5670 H   0  0  0  0  0  0  0  0  0  0  0  0
  1  2  1  0
  1  3  1  0
  3  4  1  0
  4  5  1  0
  5  6  1  0
  1  7  1  0
  6  7  1  0
  5  8  1  0
  8  9  1  0
  8 10  1  0
  8 11  1  0
  1 12  1  0
  2 13  1  0
  2 14  1  0
  3 15  1  0
  3 16  1  0
  4 17  1  0
  4 18  1  0
  5 19  1  0
  6 20  1  0
  6 21  1  0
  7 22  1  0
  7 23  1  0
  9 24  1  0
  9 25  1  0
 10 26  1  0
 11 27  1  0
M  END
>  <PDBID>  (1) 
1AJ0

>  <PDB ID>  (1) 
1AJ0

>  <Generic Name>  (1) 
Sulfanilamide

>  <Brand Name>  (1) 
AVC Vaginal#Avc#Avc Cream - 15%#Streptocid

>  <DrugBank ID>  (1) 
DB00259

>  <ATC Codes>  (1) 
J01EB06#D06BA05

>  <Ligand ID>  (1) 
SAN

>  <Target Name>  (1) 
Dihydropteroate synthase

>  <UniProt ID>  (1) 
P0AC13

>  <PDB ID.1>  (1) 
1AJ0

>  <Seq. Identity>  (1) 
100%

$$$$
