PDB_DB00212_01
     RDKit          3D

220226  0  0  0  0  0  0  0  0999 V2000
   -4.4151    2.4577   -0.3954 O   0  0  0  0  0  0  0  0  0  0  0  0
   -3.0766    2.2526   -0.6587 S   0  0  0  0  0  0  0  0  0  0  0  0
   -2.2050    1.5708    0.8244 O   0  0  0  0  0  0  0  0  0  0  0  0
   -2.0033    3.5887   -0.8948 C   0  0  0  0  0  0  0  0  0  0  0  0
   -2.3451    4.4789   -2.0363 C   0  0  0  0  0  0  0  0  0  0  0  0
   -0.5941    3.0214   -1.0451 C   0  0  0  0  0  0  0  0  0  0  0  0
   -1.9774    4.4387    0.3652 C   0  0  0  0  0  0  0  0  0  0  0  0
   -2.6083    0.9800   -1.7372 C   0  0  0  0  0  0  0  0  0  0  0  0
   -2.9978   -0.3986   -1.2629 C   0  0  1  0  0  0  0  0  0  0  0  0
   -4.4743   -0.4810   -1.1195 C   0  0  0  0  0  0  0  0  0  0  0  0
   -5.0227   -1.8145   -0.6770 C   0  0  0  0  0  0  0  0  0  0  0  0
   -4.5328   -2.2651    0.6449 C   0  0  0  0  0  0  0  0  0  0  0  0
   -5.4468   -2.0204    1.8144 C   0  0  0  0  0  0  0  0  0  0  0  0
   -6.8324   -2.5007    1.4299 C   0  0  0  0  0  0  0  0  0  0  0  0
   -7.3029   -1.4859    0.3737 C   0  0  0  0  0  0  0  0  0  0  0  0
   -6.5169   -1.7836   -0.8537 C   0  0  0  0  0  0  0  0  0  0  0  0
   -2.3824   -1.5232   -2.0318 C   0  0  0  0  0  0  0  0  0  0  0  0
   -2.7924   -1.4447   -3.4004 O   0  0  0  0  0  0  0  0  0  0  0  0
   -0.9679   -1.3929   -2.0984 N   0  0  0  0  0  0  0  0  0  0  0  0
   -0.2690   -1.3645   -0.8104 C   0  0  1  0  0  0  0  0  0  0  0  0
   -0.5045   -2.6187   -0.0539 C   0  0  0  0  0  0  0  0  0  0  0  0
    0.1471   -2.6525    1.2813 C   0  0  0  0  0  0  0  0  0  0  0  0
   -0.1401   -3.9741    2.0058 C   0  0  0  0  0  0  0  0  0  0  0  0
   -0.2890   -3.6160    3.4040 N   0  0  0  0  0  0  0  0  0  0  0  0
    0.1163   -2.2220    3.4809 C   0  0  0  0  0  0  0  0  0  0  0  0
   -0.4331   -1.7176    2.2301 N   0  0  0  0  0  0  0  0  0  0  0  0
    1.2331   -1.2871   -1.1636 C   0  0  0  0  0  0  0  0  0  0  0  0
    1.3389   -0.1557   -2.0459 O   0  0  0  0  0  0  0  0  0  0  0  0
    1.9232   -0.8017    0.0226 N   0  0  0  0  0  0  0  0  0  0  0  0
    2.9909    0.1479   -0.3667 C   0  0  2  0  0  0  0  0  0  0  0  0
    3.9866   -0.5985   -1.1596 C   0  0  1  0  0  0  0  0  0  0  0  0
    5.0375    0.2378   -1.6234 O   0  0  0  0  0  0  0  0  0  0  0  0
    4.5914   -1.7840   -0.4258 C   0  0  2  0  0  0  0  0  0  0  0  0
    5.4952   -2.5743   -1.3673 C   0  0  0  0  0  0  0  0  0  0  0  0
    6.1517   -3.7966   -0.7040 C   0  0  0  0  0  0  0  0  0  0  0  0
    6.9781   -2.6142   -1.0468 C   0  0  0  0  0  0  0  0  0  0  0  0
    3.6550   -2.6703    0.0706 O   0  0  0  0  0  0  0  0  0  0  0  0
    3.4313    0.8116    0.8779 C   0  0  0  0  0  0  0  0  0  0  0  0
    4.5253    1.8382    0.7264 C   0  0  0  0  0  0  0  0  0  0  0  0
    4.9054    2.4587    2.0259 C   0  0  0  0  0  0  0  0  0  0  0  0
    5.3877    3.8801    1.9258 C   0  0  0  0  0  0  0  0  0  0  0  0
    4.3301    4.8072    1.3687 C   0  0  0  0  0  0  0  0  0  0  0  0
    3.4378    4.0873    0.3793 C   0  0  0  0  0  0  0  0  0  0  0  0
    4.1799    2.9341   -0.2559 C   0  0  0  0  0  0  0  0  0  0  0  0
   -4.4151    2.4577   -0.3954 O   0  0  0  0  0  0  0  0  0  0  0  0
   -3.0766    2.2526   -0.6587 S   0  0  0  0  0  0  0  0  0  0  0  0
   -2.2050    1.5708    0.8244 O   0  0  0  0  0  0  0  0  0  0  0  0
   -2.0033    3.5887   -0.8948 C   0  0  0  0  0  0  0  0  0  0  0  0
   -2.3451    4.4789   -2.0363 C   0  0  0  0  0  0  0  0  0  0  0  0
   -0.5941    3.0214   -1.0451 C   0  0  0  0  0  0  0  0  0  0  0  0
   -1.9774    4.4387    0.3652 C   0  0  0  0  0  0  0  0  0  0  0  0
   -2.6083    0.9800   -1.7372 C   0  0  0  0  0  0  0  0  0  0  0  0
   -2.9978   -0.3986   -1.2629 C   0  0  1  0  0  0  0  0  0  0  0  0
   -4.4743   -0.4810   -1.1195 C   0  0  0  0  0  0  0  0  0  0  0  0
   -5.0227   -1.8145   -0.6770 C   0  0  0  0  0  0  0  0  0  0  0  0
   -4.5328   -2.2651    0.6449 C   0  0  0  0  0  0  0  0  0  0  0  0
   -5.4468   -2.0204    1.8144 C   0  0  0  0  0  0  0  0  0  0  0  0
   -6.8324   -2.5007    1.4299 C   0  0  0  0  0  0  0  0  0  0  0  0
   -7.3029   -1.4859    0.3737 C   0  0  0  0  0  0  0  0  0  0  0  0
   -6.5169   -1.7836   -0.8537 C   0  0  0  0  0  0  0  0  0  0  0  0
   -2.3824   -1.5232   -2.0318 C   0  0  0  0  0  0  0  0  0  0  0  0
   -2.7924   -1.4447   -3.4004 O   0  0  0  0  0  0  0  0  0  0  0  0
   -0.9679   -1.3929   -2.0984 N   0  0  0  0  0  0  0  0  0  0  0  0
   -0.2690   -1.3645   -0.8104 C   0  0  1  0  0  0  0  0  0  0  0  0
   -0.5045   -2.6187   -0.0539 C   0  0  0  0  0  0  0  0  0  0  0  0
    0.1471   -2.6525    1.2813 C   0  0  0  0  0  0  0  0  0  0  0  0
   -0.1401   -3.9741    2.0058 C   0  0  0  0  0  0  0  0  0  0  0  0
   -0.2890   -3.6160    3.4040 N   0  0  0  0  0  0  0  0  0  0  0  0
    0.1163   -2.2220    3.4809 C   0  0  0  0  0  0  0  0  0  0  0  0
   -0.4331   -1.7176    2.2301 N   0  0  0  0  0  0  0  0  0  0  0  0
    1.2331   -1.2871   -1.1636 C   0  0  0  0  0  0  0  0  0  0  0  0
    1.3389   -0.1557   -2.0459 O   0  0  0  0  0  0  0  0  0  0  0  0
    1.9232   -0.8017    0.0226 N   0  0  0  0  0  0  0  0  0  0  0  0
    2.9909    0.1479   -0.3667 C   0  0  2  0  0  0  0  0  0  0  0  0
    3.9866   -0.5985   -1.1596 C   0  0  1  0  0  0  0  0  0  0  0  0
    5.0375    0.2378   -1.6234 O   0  0  0  0  0  0  0  0  0  0  0  0
    4.5914   -1.7840   -0.4258 C   0  0  2  0  0  0  0  0  0  0  0  0
    5.4952   -2.5743   -1.3673 C   0  0  0  0  0  0  0  0  0  0  0  0
    6.1517   -3.7966   -0.7040 C   0  0  0  0  0  0  0  0  0  0  0  0
    6.9781   -2.6142   -1.0468 C   0  0  0  0  0  0  0  0  0  0  0  0
    3.6550   -2.6703    0.0706 O   0  0  0  0  0  0  0  0  0  0  0  0
    3.4313    0.8116    0.8779 C   0  0  0  0  0  0  0  0  0  0  0  0
    4.5253    1.8382    0.7264 C   0  0  0  0  0  0  0  0  0  0  0  0
    4.9054    2.4587    2.0259 C   0  0  0  0  0  0  0  0  0  0  0  0
    5.3877    3.8801    1.9258 C   0  0  0  0  0  0  0  0  0  0  0  0
    4.3301    4.8072    1.3687 C   0  0  0  0  0  0  0  0  0  0  0  0
    3.4378    4.0873    0.3793 C   0  0  0  0  0  0  0  0  0  0  0  0
    4.1799    2.9341   -0.2559 C   0  0  0  0  0  0  0  0  0  0  0  0
   -4.9469    3.2495   -0.2023 H   0  0  0  0  0  0  0  0  0  0  0  0
   -2.9674    1.5742    1.4438 H   0  0  0  0  0  0  0  0  0  0  0  0
   -2.7786    3.9663   -2.9111 H   0  0  0  0  0  0  0  0  0  0  0  0
   -1.4387    5.0591   -2.3568 H   0  0  0  0  0  0  0  0  0  0  0  0
   -3.0756    5.2691   -1.7216 H   0  0  0  0  0  0  0  0  0  0  0  0
   -0.4535    2.1192   -0.4117 H   0  0  0  0  0  0  0  0  0  0  0  0
    0.1772    3.7490   -0.6934 H   0  0  0  0  0  0  0  0  0  0  0  0
   -0.4045    2.7172   -2.0886 H   0  0  0  0  0  0  0  0  0  0  0  0
   -1.6612    5.4576    0.0685 H   0  0  0  0  0  0  0  0  0  0  0  0
   -2.9798    4.5402    0.8291 H   0  0  0  0  0  0  0  0  0  0  0  0
   -1.2279    4.0524    1.0726 H   0  0  0  0  0  0  0  0  0  0  0  0
   -1.5564    1.0438   -2.0510 H   0  0  0  0  0  0  0  0  0  0  0  0
   -3.1807    1.1647   -2.7021 H   0  0  0  0  0  0  0  0  0  0  0  0
   -2.5413   -0.4722   -0.2208 H   0  0  0  0  0  0  0  0  0  0  0  0
   -4.7576    0.2288   -0.2862 H   0  0  0  0  0  0  0  0  0  0  0  0
   -4.9961   -0.1100   -2.0205 H   0  0  0  0  0  0  0  0  0  0  0  0
   -4.6960   -2.6188   -1.4155 H   0  0  0  0  0  0  0  0  0  0  0  0
   -3.5719   -1.7649    0.8784 H   0  0  0  0  0  0  0  0  0  0  0  0
   -4.3203   -3.3655    0.6545 H   0  0  0  0  0  0  0  0  0  0  0  0
   -5.0930   -2.6600    2.6554 H   0  0  0  0  0  0  0  0  0  0  0  0
   -5.5619   -0.9507    2.0833 H   0  0  0  0  0  0  0  0  0  0  0  0
   -7.5274   -2.5642    2.2634 H   0  0  0  0  0  0  0  0  0  0  0  0
   -6.7811   -3.4825    0.9247 H   0  0  0  0  0  0  0  0  0  0  0  0
   -8.3615   -1.7214    0.1707 H   0  0  0  0  0  0  0  0  0  0  0  0
   -7.1903   -0.4591    0.7489 H   0  0  0  0  0  0  0  0  0  0  0  0
   -6.9279   -2.7278   -1.2879 H   0  0  0  0  0  0  0  0  0  0  0  0
   -6.7642   -0.9995   -1.6129 H   0  0  0  0  0  0  0  0  0  0  0  0
   -2.6957   -2.4701   -1.5920 H   0  0  0  0  0  0  0  0  0  0  0  0
   -3.7431   -1.1915   -3.4439 H   0  0  0  0  0  0  0  0  0  0  0  0
   -0.6218   -0.6293   -2.7093 H   0  0  0  0  0  0  0  0  0  0  0  0
   -0.5202   -0.4300   -0.3118 H   0  0  0  0  0  0  0  0  0  0  0  0
   -0.0891   -3.5215   -0.6076 H   0  0  0  0  0  0  0  0  0  0  0  0
   -1.6031   -2.8879    0.0212 H   0  0  0  0  0  0  0  0  0  0  0  0
    1.2288   -2.5405    1.3089 H   0  0  0  0  0  0  0  0  0  0  0  0
   -1.0511   -4.4315    1.5856 H   0  0  0  0  0  0  0  0  0  0  0  0
    0.7370   -4.6492    1.9425 H   0  0  0  0  0  0  0  0  0  0  0  0
   -1.3440   -3.6499    3.5812 H   0  0  0  0  0  0  0  0  0  0  0  0
    1.2167   -2.1958    3.5186 H   0  0  0  0  0  0  0  0  0  0  0  0
   -0.3337   -1.7007    4.3500 H   0  0  0  0  0  0  0  0  0  0  0  0
   -1.4718   -1.8116    2.3061 H   0  0  0  0  0  0  0  0  0  0  0  0
    1.6111   -2.1535   -1.6402 H   0  0  0  0  0  0  0  0  0  0  0  0
    0.7327    0.5369   -1.7529 H   0  0  0  0  0  0  0  0  0  0  0  0
    1.2347   -0.2800    0.6338 H   0  0  0  0  0  0  0  0  0  0  0  0
    2.5539    0.9448   -1.0252 H   0  0  0  0  0  0  0  0  0  0  0  0
    3.5093   -0.9966   -2.0708 H   0  0  0  0  0  0  0  0  0  0  0  0
    4.6989    0.6831   -2.4422 H   0  0  0  0  0  0  0  0  0  0  0  0
    5.2275   -1.4545    0.4217 H   0  0  0  0  0  0  0  0  0  0  0  0
    5.1537   -2.7562   -2.3909 H   0  0  0  0  0  0  0  0  0  0  0  0
    5.9848   -3.9634    0.3819 H   0  0  0  0  0  0  0  0  0  0  0  0
    6.2164   -4.7235   -1.2779 H   0  0  0  0  0  0  0  0  0  0  0  0
    7.7027   -2.6873   -1.8715 H   0  0  0  0  0  0  0  0  0  0  0  0
    7.2567   -1.9090   -0.2150 H   0  0  0  0  0  0  0  0  0  0  0  0
    3.6493   -2.6229    1.0494 H   0  0  0  0  0  0  0  0  0  0  0  0
    2.5441    1.3839    1.2742 H   0  0  0  0  0  0  0  0  0  0  0  0
    3.7310    0.1435    1.7078 H   0  0  0  0  0  0  0  0  0  0  0  0
    5.4747    1.3682    0.3277 H   0  0  0  0  0  0  0  0  0  0  0  0
    5.7144    1.8707    2.5005 H   0  0  0  0  0  0  0  0  0  0  0  0
    4.0666    2.4411    2.7755 H   0  0  0  0  0  0  0  0  0  0  0  0
    6.3047    3.9512    1.3005 H   0  0  0  0  0  0  0  0  0  0  0  0
    5.6511    4.2551    2.9307 H   0  0  0  0  0  0  0  0  0  0  0  0
    4.8581    5.5921    0.7860 H   0  0  0  0  0  0  0  0  0  0  0  0
    3.7665    5.3080    2.1648 H   0  0  0  0  0  0  0  0  0  0  0  0
    2.5147    3.6911    0.8464 H   0  0  0  0  0  0  0  0  0  0  0  0
    3.1450    4.7744   -0.4374 H   0  0  0  0  0  0  0  0  0  0  0  0
    3.6968    2.5962   -1.1695 H   0  0  0  0  0  0  0  0  0  0  0  0
    5.1637    3.3885   -0.5853 H   0  0  0  0  0  0  0  0  0  0  0  0
   -4.9469    3.2495   -0.2023 H   0  0  0  0  0  0  0  0  0  0  0  0
   -2.9674    1.5742    1.4438 H   0  0  0  0  0  0  0  0  0  0  0  0
   -2.7786    3.9663   -2.9111 H   0  0  0  0  0  0  0  0  0  0  0  0
   -1.4387    5.0591   -2.3568 H   0  0  0  0  0  0  0  0  0  0  0  0
   -3.0756    5.2691   -1.7216 H   0  0  0  0  0  0  0  0  0  0  0  0
   -0.4535    2.1192   -0.4117 H   0  0  0  0  0  0  0  0  0  0  0  0
    0.1772    3.7490   -0.6934 H   0  0  0  0  0  0  0  0  0  0  0  0
   -0.4045    2.7172   -2.0886 H   0  0  0  0  0  0  0  0  0  0  0  0
   -1.6612    5.4576    0.0685 H   0  0  0  0  0  0  0  0  0  0  0  0
   -2.9798    4.5402    0.8291 H   0  0  0  0  0  0  0  0  0  0  0  0
   -1.2279    4.0524    1.0726 H   0  0  0  0  0  0  0  0  0  0  0  0
   -1.5564    1.0438   -2.0510 H   0  0  0  0  0  0  0  0  0  0  0  0
   -3.1807    1.1647   -2.7021 H   0  0  0  0  0  0  0  0  0  0  0  0
   -2.5413   -0.4722   -0.2208 H   0  0  0  0  0  0  0  0  0  0  0  0
   -4.7576    0.2288   -0.2862 H   0  0  0  0  0  0  0  0  0  0  0  0
   -4.9961   -0.1100   -2.0205 H   0  0  0  0  0  0  0  0  0  0  0  0
   -4.6960   -2.6188   -1.4155 H   0  0  0  0  0  0  0  0  0  0  0  0
   -3.5719   -1.7649    0.8784 H   0  0  0  0  0  0  0  0  0  0  0  0
   -4.3203   -3.3655    0.6545 H   0  0  0  0  0  0  0  0  0  0  0  0
   -5.0930   -2.6600    2.6554 H   0  0  0  0  0  0  0  0  0  0  0  0
   -5.5619   -0.9507    2.0833 H   0  0  0  0  0  0  0  0  0  0  0  0
   -7.5274   -2.5642    2.2634 H   0  0  0  0  0  0  0  0  0  0  0  0
   -6.7811   -3.4825    0.9247 H   0  0  0  0  0  0  0  0  0  0  0  0
   -8.3615   -1.7214    0.1707 H   0  0  0  0  0  0  0  0  0  0  0  0
   -7.1903   -0.4591    0.7489 H   0  0  0  0  0  0  0  0  0  0  0  0
   -6.9279   -2.7278   -1.2879 H   0  0  0  0  0  0  0  0  0  0  0  0
   -6.7642   -0.9995   -1.6129 H   0  0  0  0  0  0  0  0  0  0  0  0
   -2.6957   -2.4701   -1.5920 H   0  0  0  0  0  0  0  0  0  0  0  0
   -3.7431   -1.1915   -3.4439 H   0  0  0  0  0  0  0  0  0  0  0  0
   -0.6218   -0.6293   -2.7093 H   0  0  0  0  0  0  0  0  0  0  0  0
   -0.5202   -0.4300   -0.3118 H   0  0  0  0  0  0  0  0  0  0  0  0
   -0.0891   -3.5215   -0.6076 H   0  0  0  0  0  0  0  0  0  0  0  0
   -1.6031   -2.8879    0.0212 H   0  0  0  0  0  0  0  0  0  0  0  0
    1.2288   -2.5405    1.3089 H   0  0  0  0  0  0  0  0  0  0  0  0
   -1.0511   -4.4315    1.5856 H   0  0  0  0  0  0  0  0  0  0  0  0
    0.7370   -4.6492    1.9425 H   0  0  0  0  0  0  0  0  0  0  0  0
   -1.3440   -3.6499    3.5812 H   0  0  0  0  0  0  0  0  0  0  0  0
    1.2167   -2.1958    3.5186 H   0  0  0  0  0  0  0  0  0  0  0  0
   -0.3337   -1.7007    4.3500 H   0  0  0  0  0  0  0  0  0  0  0  0
   -1.4718   -1.8116    2.3061 H   0  0  0  0  0  0  0  0  0  0  0  0
    1.6111   -2.1535   -1.6402 H   0  0  0  0  0  0  0  0  0  0  0  0
    0.7327    0.5369   -1.7529 H   0  0  0  0  0  0  0  0  0  0  0  0
    1.2347   -0.2800    0.6338 H   0  0  0  0  0  0  0  0  0  0  0  0
    2.5539    0.9448   -1.0252 H   0  0  0  0  0  0  0  0  0  0  0  0
    3.5093   -0.9966   -2.0708 H   0  0  0  0  0  0  0  0  0  0  0  0
    4.6989    0.6831   -2.4422 H   0  0  0  0  0  0  0  0  0  0  0  0
    5.2275   -1.4545    0.4217 H   0  0  0  0  0  0  0  0  0  0  0  0
    5.1537   -2.7562   -2.3909 H   0  0  0  0  0  0  0  0  0  0  0  0
    5.9848   -3.9634    0.3819 H   0  0  0  0  0  0  0  0  0  0  0  0
    6.2164   -4.7235   -1.2779 H   0  0  0  0  0  0  0  0  0  0  0  0
    7.7027   -2.6873   -1.8715 H   0  0  0  0  0  0  0  0  0  0  0  0
    7.2567   -1.9090   -0.2150 H   0  0  0  0  0  0  0  0  0  0  0  0
    3.6493   -2.6229    1.0494 H   0  0  0  0  0  0  0  0  0  0  0  0
    2.5441    1.3839    1.2742 H   0  0  0  0  0  0  0  0  0  0  0  0
    3.7310    0.1435    1.7078 H   0  0  0  0  0  0  0  0  0  0  0  0
    5.4747    1.3682    0.3277 H   0  0  0  0  0  0  0  0  0  0  0  0
    5.7144    1.8707    2.5005 H   0  0  0  0  0  0  0  0  0  0  0  0
    4.0666    2.4411    2.7755 H   0  0  0  0  0  0  0  0  0  0  0  0
    6.3047    3.9512    1.3005 H   0  0  0  0  0  0  0  0  0  0  0  0
    5.6511    4.2551    2.9307 H   0  0  0  0  0  0  0  0  0  0  0  0
    4.8581    5.5921    0.7860 H   0  0  0  0  0  0  0  0  0  0  0  0
    3.7665    5.3080    2.1648 H   0  0  0  0  0  0  0  0  0  0  0  0
    2.5147    3.6911    0.8464 H   0  0  0  0  0  0  0  0  0  0  0  0
    3.1450    4.7744   -0.4374 H   0  0  0  0  0  0  0  0  0  0  0  0
    3.6968    2.5962   -1.1695 H   0  0  0  0  0  0  0  0  0  0  0  0
    5.1637    3.3885   -0.5853 H   0  0  0  0  0  0  0  0  0  0  0  0
  2  1  1  0
  2  3  1  0
  2  4  1  0
  4  5  1  0
  4  6  1  0
  4  7  1  0
  2  8  1  0
  8  9  1  0
  9 10  1  0
 10 11  1  0
 11 12  1  0
 12 13  1  0
 13 14  1  0
 14 15  1  0
 11 16  1  0
 15 16  1  0
  9 17  1  0
 17 18  1  0
 17 19  1  0
 19 20  1  0
 20 21  1  0
 21 22  1  0
 22 23  1  0
 23 24  1  0
 24 25  1  0
 22 26  1  0
 25 26  1  0
 20 27  1  0
 27 28  1  0
 27 29  1  0
 29 30  1  0
 30 31  1  0
 31 32  1  0
 31 33  1  0
 33 34  1  0
 34 35  1  0
 34 36  1  0
 35 36  1  0
 33 37  1  0
 30 38  1  0
 38 39  1  0
 39 40  1  0
 40 41  1  0
 41 42  1  0
 42 43  1  0
 39 44  1  0
 43 44  1  0
 46 45  1  0
 46 47  1  0
 46 48  1  0
 48 49  1  0
 48 50  1  0
 48 51  1  0
 46 52  1  0
 52 53  1  0
 53 54  1  0
 54 55  1  0
 55 56  1  0
 56 57  1  0
 57 58  1  0
 58 59  1  0
 55 60  1  0
 59 60  1  0
 53 61  1  0
 61 62  1  0
 61 63  1  0
 63 64  1  0
 64 65  1  0
 65 66  1  0
 66 67  1  0
 67 68  1  0
 68 69  1  0
 66 70  1  0
 69 70  1  0
 64 71  1  0
 71 72  1  0
 71 73  1  0
 73 74  1  0
 74 75  1  0
 75 76  1  0
 75 77  1  0
 77 78  1  0
 78 79  1  0
 78 80  1  0
 79 80  1  0
 77 81  1  0
 74 82  1  0
 82 83  1  0
 83 84  1  0
 84 85  1  0
 85 86  1  0
 86 87  1  0
 83 88  1  0
 87 88  1  0
  1 89  1  0
  3 90  1  0
  5 91  1  0
  5 92  1  0
  5 93  1  0
  6 94  1  0
  6 95  1  0
  6 96  1  0
  7 97  1  0
  7 98  1  0
  7 99  1  0
  8100  1  0
  8101  1  0
  9102  1  1
 10103  1  0
 10104  1  0
 11105  1  0
 12106  1  0
 12107  1  0
 13108  1  0
 13109  1  0
 14110  1  0
 14111  1  0
 15112  1  0
 15113  1  0
 16114  1  0
 16115  1  0
 17116  1  0
 18117  1  0
 19118  1  0
 20119  1  1
 21120  1  0
 21121  1  0
 22122  1  0
 23123  1  0
 23124  1  0
 24125  1  0
 25126  1  0
 25127  1  0
 26128  1  0
 27129  1  0
 28130  1  0
 29131  1  0
 30132  1  6
 31133  1  6
 32134  1  0
 33135  1  1
 34136  1  0
 35137  1  0
 35138  1  0
 36139  1  0
 36140  1  0
 37141  1  0
 38142  1  0
 38143  1  0
 39144  1  0
 40145  1  0
 40146  1  0
 41147  1  0
 41148  1  0
 42149  1  0
 42150  1  0
 43151  1  0
 43152  1  0
 44153  1  0
 44154  1  0
 45155  1  0
 47156  1  0
 49157  1  0
 49158  1  0
 49159  1  0
 50160  1  0
 50161  1  0
 50162  1  0
 51163  1  0
 51164  1  0
 51165  1  0
 52166  1  0
 52167  1  0
 53168  1  1
 54169  1  0
 54170  1  0
 55171  1  0
 56172  1  0
 56173  1  0
 57174  1  0
 57175  1  0
 58176  1  0
 58177  1  0
 59178  1  0
 59179  1  0
 60180  1  0
 60181  1  0
 61182  1  0
 62183  1  0
 63184  1  0
 64185  1  1
 65186  1  0
 65187  1  0
 66188  1  0
 67189  1  0
 67190  1  0
 68191  1  0
 69192  1  0
 69193  1  0
 70194  1  0
 71195  1  0
 72196  1  0
 73197  1  0
 74198  1  6
 75199  1  6
 76200  1  0
 77201  1  1
 78202  1  0
 79203  1  0
 79204  1  0
 80205  1  0
 80206  1  0
 81207  1  0
 82208  1  0
 82209  1  0
 83210  1  0
 84211  1  0
 84212  1  0
 85213  1  0
 85214  1  0
 86215  1  0
 86216  1  0
 87217  1  0
 87218  1  0
 88219  1  0
 88220  1  0
M  END
>  <PDBID>  (1) 
3D91

>  <PDB ID>  (1) 
3D91

>  <Generic Name>  (1) 
Remikiren

>  <Brand Name>  (1) 
nan

>  <DrugBank ID>  (1) 
DB00212

>  <ATC Codes>  (1) 
C09XA01

>  <Ligand ID>  (1) 
REM

>  <Target Name>  (1) 
Renin

>  <UniProt ID>  (1) 
P00797

>  <PDB ID.1>  (1) 
3D91

>  <Seq. Identity>  (1) 
100%

$$$$
