PDB_DB00537_02
     RDKit          3D

108114  0  0  0  0  0  0  0  0999 V2000
   -5.4402   -0.8833    0.2496 O   0  0  0  0  0  0  0  0  0  0  0  0
   -4.2939   -1.6553    0.0783 C   0  0  0  0  0  0  0  0  0  0  0  0
   -4.4305   -2.8652    0.7859 O   0  0  0  0  0  0  0  0  0  0  0  0
   -3.0626   -0.9675    0.6325 C   0  0  0  0  0  0  0  0  0  0  0  0
   -2.8993    0.3279   -0.0990 C   0  0  0  0  0  0  0  0  0  0  0  0
   -1.5418    0.8491   -0.0058 N   0  0  0  0  0  0  0  0  0  0  0  0
   -0.7202   -0.1265   -0.6823 C   0  0  0  0  0  0  0  0  0  0  0  0
    0.6540    0.2882   -1.0415 C   0  0  0  0  0  0  0  0  0  0  0  0
    1.5478    0.6173    0.1402 C   0  0  0  0  0  0  0  0  0  0  0  0
    2.7925    0.0521   -0.1067 N   0  0  0  0  0  0  0  0  0  0  0  0
    3.5504    0.4985   -1.2154 C   0  0  0  0  0  0  0  0  0  0  0  0
    4.9770   -0.0121   -1.1887 C   0  0  0  0  0  0  0  0  0  0  0  0
    5.6424    0.1147    0.0546 N   0  0  0  0  0  0  0  0  0  0  0  0
    4.7694   -0.0850    1.1792 C   0  0  0  0  0  0  0  0  0  0  0  0
    3.4954   -0.7614    0.7568 C   0  0  0  0  0  0  0  0  0  0  0  0
    0.9135    0.4016    1.4525 C   0  0  0  0  0  0  0  0  0  0  0  0
    0.2794    1.5790    1.8920 F   0  0  0  0  0  0  0  0  0  0  0  0
   -0.0773   -0.6954    1.5816 C   0  0  0  0  0  0  0  0  0  0  0  0
   -0.5803   -1.2807    0.3049 C   0  0  0  0  0  0  0  0  0  0  0  0
   -1.9066   -1.9045    0.4941 C   0  0  0  0  0  0  0  0  0  0  0  0
   -2.1231   -2.8222   -0.5558 O   0  0  0  0  0  0  0  0  0  0  0  0
   -1.4696    2.0930   -0.7172 C   0  0  0  0  0  0  0  0  0  0  0  0
   -2.3200    3.2393   -0.2872 C   0  0  0  0  0  0  0  0  0  0  0  0
   -2.4619    2.5811   -1.6682 C   0  0  0  0  0  0  0  0  0  0  0  0
   -3.5754    1.1081    0.2796 H   0  0  0  0  0  0  0  0  0  0  0  0
    1.0879   -0.6061   -1.6072 H   0  0  0  0  0  0  0  0  0  0  0  0
    3.0900    0.0494   -2.1429 H   0  0  0  0  0  0  0  0  0  0  0  0
    3.5994    1.6021   -1.3074 H   0  0  0  0  0  0  0  0  0  0  0  0
    5.5122    0.5817   -1.9873 H   0  0  0  0  0  0  0  0  0  0  0  0
    5.0515   -1.0672   -1.5349 H   0  0  0  0  0  0  0  0  0  0  0  0
    6.1313    1.0385    0.0975 H   0  0  0  0  0  0  0  0  0  0  0  0
    4.5705    0.9457    1.6010 H   0  0  0  0  0  0  0  0  0  0  0  0
    5.3052   -0.7016    1.9576 H   0  0  0  0  0  0  0  0  0  0  0  0
    2.9454   -1.2183    1.6009 H   0  0  0  0  0  0  0  0  0  0  0  0
    3.8448   -1.6720    0.1697 H   0  0  0  0  0  0  0  0  0  0  0  0
    0.3403   -1.5503    2.1923 H   0  0  0  0  0  0  0  0  0  0  0  0
   -0.3953    2.4243   -0.8788 H   0  0  0  0  0  0  0  0  0  0  0  0
   -3.1434    3.0911    0.4307 H   0  0  0  0  0  0  0  0  0  0  0  0
   -1.9422    4.2638   -0.3218 H   0  0  0  0  0  0  0  0  0  0  0  0
   -2.1308    3.1957   -2.5569 H   0  0  0  0  0  0  0  0  0  0  0  0
   -3.4101    2.0574   -1.9010 H   0  0  0  0  0  0  0  0  0  0  0  0
   -5.4347   -0.9022    0.2281 O   0  0  0  0  0  0  0  0  0  0  0  0
   -4.2895   -1.6612    0.0611 C   0  0  0  0  0  0  0  0  0  0  0  0
   -4.4262   -2.8555    0.7880 O   0  0  0  0  0  0  0  0  0  0  0  0
   -3.0627   -0.9696    0.6264 C   0  0  0  0  0  0  0  0  0  0  0  0
   -2.8956    0.3303   -0.0897 C   0  0  0  0  0  0  0  0  0  0  0  0
   -1.5380    0.8461   -0.0138 N   0  0  0  0  0  0  0  0  0  0  0  0
   -0.7190   -0.1289   -0.6893 C   0  0  0  0  0  0  0  0  0  0  0  0
    0.6570    0.2797   -1.0452 C   0  0  0  0  0  0  0  0  0  0  0  0
    1.5393    0.6198    0.1390 C   0  0  0  0  0  0  0  0  0  0  0  0
    2.7878    0.0621   -0.0988 N   0  0  0  0  0  0  0  0  0  0  0  0
    3.5506    0.5073   -1.2034 C   0  0  0  0  0  0  0  0  0  0  0  0
    4.9725   -0.0287   -1.1791 C   0  0  0  0  0  0  0  0  0  0  0  0
    5.6410    0.1059    0.0642 N   0  0  0  0  0  0  0  0  0  0  0  0
    4.7624   -0.0551    1.1912 C   0  0  0  0  0  0  0  0  0  0  0  0
    3.4935   -0.7447    0.7705 C   0  0  0  0  0  0  0  0  0  0  0  0
    0.9024    0.3975    1.4506 C   0  0  0  0  0  0  0  0  0  0  0  0
    0.2703    1.5706    1.8909 F   0  0  0  0  0  0  0  0  0  0  0  0
   -0.0751   -0.7079    1.5724 C   0  0  0  0  0  0  0  0  0  0  0  0
   -0.5838   -1.2851    0.2950 C   0  0  0  0  0  0  0  0  0  0  0  0
   -1.9088   -1.9100    0.4832 C   0  0  0  0  0  0  0  0  0  0  0  0
   -2.1263   -2.8267   -0.5684 O   0  0  0  0  0  0  0  0  0  0  0  0
   -1.4745    2.0933   -0.7211 C   0  0  0  0  0  0  0  0  0  0  0  0
   -2.3070    3.2508   -0.2905 C   0  0  0  0  0  0  0  0  0  0  0  0
   -2.4739    2.5764   -1.6716 C   0  0  0  0  0  0  0  0  0  0  0  0
   -3.5633    1.1128    0.3086 H   0  0  0  0  0  0  0  0  0  0  0  0
    1.0957   -0.6206   -1.6006 H   0  0  0  0  0  0  0  0  0  0  0  0
    3.0921    0.1002   -2.1443 H   0  0  0  0  0  0  0  0  0  0  0  0
    3.6351    1.6137   -1.2936 H   0  0  0  0  0  0  0  0  0  0  0  0
    5.5157    0.5475   -1.9850 H   0  0  0  0  0  0  0  0  0  0  0  0
    5.0190   -1.0929   -1.4884 H   0  0  0  0  0  0  0  0  0  0  0  0
    6.1383    1.0321    0.0863 H   0  0  0  0  0  0  0  0  0  0  0  0
    4.5540    0.9915    1.5702 H   0  0  0  0  0  0  0  0  0  0  0  0
    5.2867   -0.6425    1.9955 H   0  0  0  0  0  0  0  0  0  0  0  0
    2.9468   -1.1995    1.6166 H   0  0  0  0  0  0  0  0  0  0  0  0
    3.8434   -1.6565    0.1885 H   0  0  0  0  0  0  0  0  0  0  0  0
    0.3470   -1.5698    2.1700 H   0  0  0  0  0  0  0  0  0  0  0  0
   -0.4002    2.4095   -0.9052 H   0  0  0  0  0  0  0  0  0  0  0  0
   -3.1051    3.1028    0.4494 H   0  0  0  0  0  0  0  0  0  0  0  0
   -1.9033    4.2717   -0.3364 H   0  0  0  0  0  0  0  0  0  0  0  0
   -2.1459    3.1890   -2.5649 H   0  0  0  0  0  0  0  0  0  0  0  0
   -3.4308    2.0708   -1.8864 H   0  0  0  0  0  0  0  0  0  0  0  0
   -5.3286   -0.1458    0.8876 H   0  0  0  0  0  0  0  0  0  0  0  0
   -4.1592   -1.8949   -0.9990 H   0  0  0  0  0  0  0  0  0  0  0  0
   -4.8804   -3.5371    0.2403 H   0  0  0  0  0  0  0  0  0  0  0  0
   -3.2872   -0.7255    1.6909 H   0  0  0  0  0  0  0  0  0  0  0  0
   -3.1135    0.1892   -1.1749 H   0  0  0  0  0  0  0  0  0  0  0  0
   -1.2084   -0.5189   -1.6008 H   0  0  0  0  0  0  0  0  0  0  0  0
    0.6312    1.0651   -1.8232 H   0  0  0  0  0  0  0  0  0  0  0  0
    1.6967    1.7448    0.0448 H   0  0  0  0  0  0  0  0  0  0  0  0
    1.7022    0.2464    2.2345 H   0  0  0  0  0  0  0  0  0  0  0  0
   -0.9934   -0.3846    2.1701 H   0  0  0  0  0  0  0  0  0  0  0  0
    0.1129   -2.0640   -0.1093 H   0  0  0  0  0  0  0  0  0  0  0  0
   -1.8710   -2.5339    1.4234 H   0  0  0  0  0  0  0  0  0  0  0  0
   -1.4773   -3.5655   -0.3829 H   0  0  0  0  0  0  0  0  0  0  0  0
   -5.3313   -0.1618    0.8685 H   0  0  0  0  0  0  0  0  0  0  0  0
   -4.1312   -1.9088   -1.0053 H   0  0  0  0  0  0  0  0  0  0  0  0
   -4.8760   -3.5396    0.2587 H   0  0  0  0  0  0  0  0  0  0  0  0
   -3.2879   -0.7530    1.6945 H   0  0  0  0  0  0  0  0  0  0  0  0
   -3.1330    0.2025   -1.1634 H   0  0  0  0  0  0  0  0  0  0  0  0
   -1.2051   -0.5195   -1.6146 H   0  0  0  0  0  0  0  0  0  0  0  0
    0.6336    1.0471   -1.8352 H   0  0  0  0  0  0  0  0  0  0  0  0
    1.6816    1.7474    0.0399 H   0  0  0  0  0  0  0  0  0  0  0  0
    1.6874    0.2474    2.2381 H   0  0  0  0  0  0  0  0  0  0  0  0
   -0.9864   -0.4059    2.1695 H   0  0  0  0  0  0  0  0  0  0  0  0
    0.1117   -2.0703   -0.1144 H   0  0  0  0  0  0  0  0  0  0  0  0
   -1.8731   -2.5408    1.4077 H   0  0  0  0  0  0  0  0  0  0  0  0
   -1.4769   -3.5687   -0.3869 H   0  0  0  0  0  0  0  0  0  0  0  0
  1  2  1  0
  2  3  1  0
  2  4  1  0
  4  5  1  0
  5  6  1  0
  6  7  1  0
  7  8  1  0
  8  9  1  0
  9 10  1  0
 10 11  1  0
 11 12  1  0
 12 13  1  0
 13 14  1  0
 10 15  1  0
 14 15  1  0
  9 16  1  0
 16 17  1  0
 16 18  1  0
  7 19  1  0
 18 19  1  0
  4 20  1  0
 19 20  1  0
 20 21  1  0
  6 22  1  0
 22 23  1  0
 22 24  1  0
 23 24  1  0
  5 25  1  0
  8 26  1  0
 11 27  1  0
 11 28  1  0
 12 29  1  0
 12 30  1  0
 13 31  1  0
 14 32  1  0
 14 33  1  0
 15 34  1  0
 15 35  1  0
 18 36  1  0
 22 37  1  0
 23 38  1  0
 23 39  1  0
 24 40  1  0
 24 41  1  0
 43 42  1  0
 43 44  1  0
 43 45  1  0
 45 46  1  0
 46 47  1  0
 47 48  1  0
 48 49  1  0
 49 50  1  0
 50 51  1  0
 51 52  1  0
 52 53  1  0
 53 54  1  0
 54 55  1  0
 51 56  1  0
 55 56  1  0
 50 57  1  0
 57 58  1  0
 57 59  1  0
 48 60  1  0
 59 60  1  0
 45 61  1  0
 60 61  1  0
 61 62  1  0
 47 63  1  0
 63 64  1  0
 63 65  1  0
 64 65  1  0
 46 66  1  0
 49 67  1  0
 52 68  1  0
 52 69  1  0
 53 70  1  0
 53 71  1  0
 54 72  1  0
 55 73  1  0
 55 74  1  0
 56 75  1  0
 56 76  1  0
 59 77  1  0
 63 78  1  0
 64 79  1  0
 64 80  1  0
 65 81  1  0
 65 82  1  0
  1 83  1  0
  2 84  1  0
  3 85  1  0
  4 86  1  0
  5 87  1  0
  7 88  1  0
  8 89  1  0
  9 90  1  0
 16 91  1  0
 18 92  1  0
 19 93  1  0
 20 94  1  0
 21 95  1  0
 42 96  1  0
 43 97  1  0
 44 98  1  0
 45 99  1  0
 46100  1  0
 48101  1  0
 49102  1  0
 50103  1  0
 57104  1  0
 59105  1  0
 60106  1  0
 61107  1  0
 62108  1  0
M  END
>  <PDBID>  (1) 
5BTC

>  <PDB ID>  (1) 
5BTC

>  <Generic Name>  (1) 
Ciprofloxacin

>  <Brand Name>  (1) 
Act Ciprofloxacin#Apo-ciproflox#Auro-ciprofloxacin#Bio-ciprofloxacin#Ciloxan#Cipro#Cipro 100 - Tab 100mg#Cipro 250 - Tab 250mg#Cipro 500 - Tab 500mg#Cipro 750 - Tab 750mg#Cipro HC#Cipro HC Otic Suspension#Cipro I.V. - Liq 10mg/ml#Cipro I.V. Minibags 2mg/ml#Cipro IV 10mg/ml#Cipro Oral Suspension 10%#Cipro Tab 100mg#Cipro Tab 250mg#Cipro Tab 500mg#Cipro Tab 750mg#Cipro XL#Ciprodex#Ciprofloxacin#Ciprofloxacin Extended-release#Ciprofloxacin Hydrochloride#Ciprofloxacin Injection#Ciprofloxacin Injection USP#Ciprofloxacin Injection, USP#Ciprofloxacin Intravenous Infusion#Ciprofloxacin Intravenous Infusion BP#Ciprofloxacin Intravenous Infusion, BP#Ciprofloxacin Omega#Ciprofloxacin Otic#Ciprofloxacin Tablets#Ciprofloxacin Tablets USP - 100 mg#Ciprofloxacin Tablets USP - 250 mg#Ciprofloxacin Tablets USP - 500 mg#Ciprofloxacin Tablets USP - 750 mg#Ciprofloxacin-250#Ciprofloxacin-500#Ciprofloxacin-750#Dom-ciprofloxacin#Ipg-ciprofloxacin#Jamp-ciprofloxacin#Mar-ciprofloxacin#Mint-ciproflox#Mint-ciprofloxacin#Mylan-ciprofloxacin#Mylan-ciprofloxacin XL#Nu-ciproflox#Nu-ciprofloxacin Tablets#Otiprio#Otixal#Otovel#PHL-ciprofloxacin#PMS-ciprofloxacin#PMS-ciprofloxacin 0.3%#PMS-ciprofloxacin XL#Priva-ciprofloxacin#Pro-ciprofloxacin#Proquin XR#Q-ciprofloxacin#Ran-ciproflox#Ran-ciprofloxacin#Ratio-ciprofloxacin#Riva-ciprofloxacin#Sandoz Ciprofloxacin#Septa-ciprofloxacin#Taro-ciprofloxacin#Teva-ciprofloxacin#Van-ciprofloxacin#Bacquinor#Baycip#Ciflox#Cifloxin#Ciprinol#Ciprobay#Ciprocinol#Ciprodar#Ciproxan#Ciproxin#Flociprin#Proquin

>  <DrugBank ID>  (1) 
DB00537

>  <ATC Codes>  (1) 
J01MA02#J01RA11#J01RA12#S02AA15#S03AA07#S01AE03#J01RA10

>  <Ligand ID>  (1) 
CPF

>  <Target Name>  (1) 
DNA gyrase subunit A

>  <UniProt ID>  (1) 
P43700

>  <PDB ID.1>  (1) 
5BTC

>  <Seq. Identity>  (1) 
48%

$$$$
