PDB_DB00710_05
     RDKit          3D

 46 45  0  0  0  0  0  0  0  0999 V2000
   -3.5885   -0.7681   -0.2657 P   0  0  0  0  0  0  0  0  0  0  0  0
   -3.0432   -1.5012   -1.6027 O   0  0  0  0  0  0  0  0  0  0  0  0
   -4.9931   -1.3355    0.5337 O   0  0  0  0  0  0  0  0  0  0  0  0
   -4.5362    0.1338   -1.0770 O   0  0  0  0  0  0  0  0  0  0  0  0
   -2.6741    0.5204    0.5162 C   0  0  0  0  0  0  0  0  0  0  0  0
   -2.5802    2.0598   -0.3403 P   0  0  0  0  0  0  0  0  0  0  0  0
   -3.8085    3.1183   -0.3020 O   0  0  0  0  0  0  0  0  0  0  0  0
   -2.9709    1.4928   -1.7127 O   0  0  0  0  0  0  0  0  0  0  0  0
   -1.1271    2.5176   -1.0935 O   0  0  0  0  0  0  0  0  0  0  0  0
   -3.4095    0.6925    1.6964 O   0  0  0  0  0  0  0  0  0  0  0  0
   -1.2764    0.1214    1.0114 C   0  0  0  0  0  0  0  0  0  0  0  0
   -0.3285   -0.3153   -0.0072 C   0  0  0  0  0  0  0  0  0  0  0  0
    0.9576   -0.6298    0.6835 N   0  0  0  0  0  0  0  0  0  0  0  0
    1.9740   -0.8160   -0.3341 C   0  0  0  0  0  0  0  0  0  0  0  0
    3.3120   -1.0990    0.2606 C   0  0  0  0  0  0  0  0  0  0  0  0
    4.3938   -1.2351   -0.8093 C   0  0  0  0  0  0  0  0  0  0  0  0
    4.5425    0.0404   -1.6003 C   0  0  0  0  0  0  0  0  0  0  0  0
    4.9375    1.1736   -0.6528 C   0  0  0  0  0  0  0  0  0  0  0  0
    0.7751   -1.8150    1.4794 C   0  0  0  0  0  0  0  0  0  0  0  0
   -3.0568   -1.6977    0.4292 H   0  0  0  0  0  0  0  0  0  0  0  0
   -3.6777   -2.1500   -1.9019 H   0  0  0  0  0  0  0  0  0  0  0  0
   -5.0895   -0.6983    1.2641 H   0  0  0  0  0  0  0  0  0  0  0  0
   -4.9616    0.8822   -0.6446 H   0  0  0  0  0  0  0  0  0  0  0  0
   -1.9873    2.5986    0.6718 H   0  0  0  0  0  0  0  0  0  0  0  0
   -4.2346    3.3826    0.5095 H   0  0  0  0  0  0  0  0  0  0  0  0
   -2.5339    0.7123   -2.0739 H   0  0  0  0  0  0  0  0  0  0  0  0
   -1.3035    3.3684   -1.4990 H   0  0  0  0  0  0  0  0  0  0  0  0
   -2.9092    1.3823    2.2366 H   0  0  0  0  0  0  0  0  0  0  0  0
   -0.8431    0.8293    1.7003 H   0  0  0  0  0  0  0  0  0  0  0  0
   -1.5209   -0.7891    1.6554 H   0  0  0  0  0  0  0  0  0  0  0  0
   -0.5718   -1.2432   -0.5414 H   0  0  0  0  0  0  0  0  0  0  0  0
   -0.0447    0.5263   -0.6751 H   0  0  0  0  0  0  0  0  0  0  0  0
    2.0177    0.1339   -0.9343 H   0  0  0  0  0  0  0  0  0  0  0  0
    1.6385   -1.6906   -0.9704 H   0  0  0  0  0  0  0  0  0  0  0  0
    3.5583   -0.2851    0.9797 H   0  0  0  0  0  0  0  0  0  0  0  0
    3.3066   -2.0550    0.8291 H   0  0  0  0  0  0  0  0  0  0  0  0
    4.1204   -2.0795   -1.4611 H   0  0  0  0  0  0  0  0  0  0  0  0
    5.3568   -1.4377   -0.3099 H   0  0  0  0  0  0  0  0  0  0  0  0
    3.6540    0.3162   -2.1848 H   0  0  0  0  0  0  0  0  0  0  0  0
    5.3820   -0.1281   -2.3279 H   0  0  0  0  0  0  0  0  0  0  0  0
    5.3942    0.6913    0.2604 H   0  0  0  0  0  0  0  0  0  0  0  0
    4.0472    1.7567   -0.3209 H   0  0  0  0  0  0  0  0  0  0  0  0
    5.7142    1.8235   -1.0778 H   0  0  0  0  0  0  0  0  0  0  0  0
    1.6908   -2.3147    1.7719 H   0  0  0  0  0  0  0  0  0  0  0  0
    0.0847   -1.6610    2.3426 H   0  0  0  0  0  0  0  0  0  0  0  0
    0.2129   -2.5294    0.8064 H   0  0  0  0  0  0  0  0  0  0  0  0
  1  2  1  0
  1  3  1  0
  1  4  1  0
  1  5  1  0
  5  6  1  0
  6  7  1  0
  6  8  1  0
  6  9  1  0
  5 10  1  0
  5 11  1  0
 11 12  1  0
 12 13  1  0
 13 14  1  0
 14 15  1  0
 15 16  1  0
 16 17  1  0
 17 18  1  0
 13 19  1  0
  1 20  1  0
  2 21  1  0
  3 22  1  0
  4 23  1  0
  6 24  1  0
  7 25  1  0
  8 26  1  0
  9 27  1  0
 10 28  1  0
 11 29  1  0
 11 30  1  0
 12 31  1  0
 12 32  1  0
 14 33  1  0
 14 34  1  0
 15 35  1  0
 15 36  1  0
 16 37  1  0
 16 38  1  0
 17 39  1  0
 17 40  1  0
 18 41  1  0
 18 42  1  0
 18 43  1  0
 19 44  1  0
 19 45  1  0
 19 46  1  0
M  END
>  <PDBID>  (1) 
2F94

>  <PDB ID>  (1) 
2F94

>  <Generic Name>  (1) 
Ibandronate

>  <Brand Name>  (1) 
Bondronat#Boniva#Ibandronate Sodium#ADRONiL#Bonviva

>  <DrugBank ID>  (1) 
DB00710

>  <ATC Codes>  (1) 
M05BA06

>  <Ligand ID>  (1) 
BFQ

>  <Target Name>  (1) 
Farnesyl pyrophosphate synthase

>  <UniProt ID>  (1) 
P14324

>  <PDB ID.1>  (1) 
2F94

>  <Seq. Identity>  (1) 
100%

$$$$
