PDB_DB00277_02
     RDKit          3D

 29 30  0  0  0  0  0  0  0  0999 V2000
   -2.3302   -1.4931    0.8644 C   0  0  0  0  0  0  0  0  0  0  0  0
   -1.4042   -0.9200   -0.1261 N   0  0  0  0  0  0  0  0  0  0  0  0
   -1.4558    0.4804   -0.1773 C   0  0  0  0  0  0  0  0  0  0  0  0
   -2.4290    0.8398   -1.1414 O   0  0  0  0  0  0  0  0  0  0  0  0
   -0.2609    1.1766   -0.5104 N   0  0  0  0  0  0  0  0  0  0  0  0
   -0.4376    2.5917   -0.3281 C   0  0  0  0  0  0  0  0  0  0  0  0
    0.8519    0.6209    0.1657 C   0  0  0  0  0  0  0  0  0  0  0  0
    1.0141   -0.7798   -0.4562 C   0  0  0  0  0  0  0  0  0  0  0  0
   -0.1538   -1.5512    0.0372 C   0  0  0  0  0  0  0  0  0  0  0  0
   -0.1914   -2.7851   -0.6394 O   0  0  0  0  0  0  0  0  0  0  0  0
    2.2834   -1.1535    0.0465 N   0  0  0  0  0  0  0  0  0  0  0  0
    3.0465    0.0818    0.2085 C   0  0  0  0  0  0  0  0  0  0  0  0
    2.1261    1.1767   -0.1010 N   0  0  0  0  0  0  0  0  0  0  0  0
   -1.8491   -1.4637    1.8752 H   0  0  0  0  0  0  0  0  0  0  0  0
   -2.3935   -2.5835    0.6118 H   0  0  0  0  0  0  0  0  0  0  0  0
   -3.3032   -0.9894    0.8588 H   0  0  0  0  0  0  0  0  0  0  0  0
   -1.8386    0.9201    0.7888 H   0  0  0  0  0  0  0  0  0  0  0  0
   -3.0326    1.5290   -0.8246 H   0  0  0  0  0  0  0  0  0  0  0  0
    0.4432    3.1803   -0.6630 H   0  0  0  0  0  0  0  0  0  0  0  0
   -1.2956    2.8937   -0.9888 H   0  0  0  0  0  0  0  0  0  0  0  0
   -0.7589    2.8609    0.7025 H   0  0  0  0  0  0  0  0  0  0  0  0
    0.6914    0.4309    1.2489 H   0  0  0  0  0  0  0  0  0  0  0  0
    0.9615   -0.6602   -1.5585 H   0  0  0  0  0  0  0  0  0  0  0  0
    0.0338   -1.8099    1.1192 H   0  0  0  0  0  0  0  0  0  0  0  0
    0.0800   -2.5766   -1.5725 H   0  0  0  0  0  0  0  0  0  0  0  0
    2.1640   -1.6498    0.9685 H   0  0  0  0  0  0  0  0  0  0  0  0
    3.8642    0.0737   -0.5409 H   0  0  0  0  0  0  0  0  0  0  0  0
    3.4006    0.1234    1.2491 H   0  0  0  0  0  0  0  0  0  0  0  0
    2.1739    1.4360   -1.1168 H   0  0  0  0  0  0  0  0  0  0  0  0
  1  2  1  0
  2  3  1  0
  3  4  1  0
  3  5  1  0
  5  6  1  0
  5  7  1  0
  7  8  1  0
  2  9  1  0
  8  9  1  0
  9 10  1  0
  8 11  1  0
 11 12  1  0
  7 13  1  0
 12 13  1  0
  1 14  1  0
  1 15  1  0
  1 16  1  0
  3 17  1  0
  4 18  1  0
  6 19  1  0
  6 20  1  0
  6 21  1  0
  7 22  1  0
  8 23  1  0
  9 24  1  0
 10 25  1  0
 11 26  1  0
 12 27  1  0
 12 28  1  0
 13 29  1  0
M  END
>  <PDBID>  (1) 
5MZJ

>  <PDB ID>  (1) 
5MZJ

>  <Generic Name>  (1) 
Theophylline

>  <Brand Name>  (1) 
Apo-theo ER#Apo-theo-LA Srt 100mg#Apo-theo-LA Srt 200mg#Apo-theo-LA Srt 300mg#Elixir De Theophylline#Elixophyllin#I D M Expectorant Tab#Idm Tab#PMS-theophylline Elixir#Pulmophylline Elx#Quibron T SR Tab 300mg#Ratio-theo-bronc#Senophylline#Slo-bid 100#Slo-bid 200#Slo-bid 300#Slo-bid 50#Tedral Tab#Teva-theophylline SR#Theo ER#Theo-24#Theo-SR 300 Srt 300mg#Theo-dur 100 mg#Theo-dur 200 mg#Theo-dur 300 mg#Theo-dur 450 mg#Theolair#Theolair SR Tab 200mg#Theolair SR Tab 250mg#Theolair SR Tab 300mg#Theolair SR Tab 500mg#Theolair Tab 125mg#Theolair Tab 250mg#Theophylline#Theophylline (anhydrous)#Theophylline 80mg/15ml#Theophylline Anhydrous#Theophylline Elixir#Theophylline Elx#Theophylline Extended Release#Theophylline In Dextrose#Theophylline Rougier Elixir#Theophylline Srt 300mg#Theophylline Sustained Release Tab 100mg#Theophylline Sustained Release Tab 200mg#Theophylline(anhydrous)#Uniphyl#Quibron-T#Respbid#Slo-Bid#Theo 24#Theo-Dur#Theodur G

>  <DrugBank ID>  (1) 
DB00277

>  <ATC Codes>  (1) 
R03DA54#R03DA74#R03DB04#R03DA04

>  <Ligand ID>  (1) 
TEP

>  <Target Name>  (1) 
Adenosine receptor A1

>  <UniProt ID>  (1) 
P30542

>  <PDB ID.1>  (1) 
5MZJ

>  <Seq. Identity>  (1) 
46%

$$$$
