PDB_DB01263_03
     RDKit          3D

119125  0  0  0  0  0  0  0  0999 V2000
   10.8167    2.2368    2.4256 C   0  0  0  0  0  0  0  0  0  0  0  0
   12.5273   -0.3140    0.0020 C   0  0  0  0  0  0  0  0  0  0  0  0
    8.0576    1.4249   -0.9537 O   0  0  0  0  0  0  0  0  0  0  0  0
   12.6718    2.0123    0.6213 O   0  0  0  0  0  0  0  0  0  0  0  0
   -7.4330   -0.4511    2.4568 F   0  0  0  0  0  0  0  0  0  0  0  0
  -11.7423   -0.5960    2.8872 F   0  0  0  0  0  0  0  0  0  0  0  0
   -9.5885   -1.4013    2.6595 C   0  0  0  0  0  0  0  0  0  0  0  0
   -1.6265   -2.0509   -1.1340 C   0  0  0  0  0  0  0  0  0  0  0  0
   -2.8513   -1.4194    0.9079 C   0  0  0  0  0  0  0  0  0  0  0  0
   -0.5822   -1.0312   -0.8476 C   0  0  0  0  0  0  0  0  0  0  0  0
   -1.5239   -0.8944    1.3845 C   0  0  0  0  0  0  0  0  0  0  0  0
    4.9888    0.6330   -1.2890 C   0  0  0  0  0  0  0  0  0  0  0  0
    4.3734   -1.6858   -0.9427 C   0  0  0  0  0  0  0  0  0  0  0  0
    6.0165   -0.0195   -2.2320 C   0  0  0  0  0  0  0  0  0  0  0  0
    5.8075   -1.5898   -0.4083 C   0  0  0  0  0  0  0  0  0  0  0  0
  -10.6102   -0.4918    2.0712 C   0  0  0  0  0  0  0  0  0  0  0  0
   -9.3514    3.8556   -0.5031 C   0  0  0  0  0  0  0  0  0  0  0  0
   -8.4509   -1.2940    0.4200 C   0  0  1  0  0  0  0  0  0  0  0  0
   -8.0100    2.5768   -1.8438 C   0  0  0  0  0  0  0  0  0  0  0  0
    8.8398   -1.9502   -0.7465 C   0  0  0  0  0  0  0  0  0  0  0  0
   10.2057    1.0209    1.7598 C   0  0  0  0  0  0  0  0  0  0  0  0
   -6.2816   -0.2796   -0.0740 C   0  0  0  0  0  0  0  0  0  0  0  0
    1.3283   -0.2328    1.3118 C   0  0  0  0  0  0  0  0  0  0  0  0
    0.7753    1.5396   -0.2234 C   0  0  0  0  0  0  0  0  0  0  0  0
    2.7219    0.2173    0.8293 C   0  0  0  0  0  0  0  0  0  0  0  0
    1.8747    1.0653   -1.1284 C   0  0  0  0  0  0  0  0  0  0  0  0
   -4.5582   -0.5188   -1.9036 C   0  0  0  0  0  0  0  0  0  0  0  0
   -8.2633    1.1950    0.1436 C   0  0  0  0  0  0  0  0  0  0  0  0
   -9.3355    3.1988   -1.7877 N   0  0  0  0  0  0  0  0  0  0  0  0
   -8.1017    3.4878    0.1764 N   0  0  0  0  0  0  0  0  0  0  0  0
    9.9395   -1.2438   -0.0470 N   0  0  0  0  0  0  0  0  0  0  0  0
   -3.4290   -0.4558   -1.1561 O   0  0  0  0  0  0  0  0  0  0  0  0
   -8.0158   -0.3238   -1.6336 O   0  0  0  0  0  0  0  0  0  0  0  0
   -8.2688   -1.3869    1.8855 C   0  0  0  0  0  0  0  0  0  0  0  0
   -9.8646   -1.5622   -0.0639 C   0  0  0  0  0  0  0  0  0  0  0  0
   -2.9603   -1.5946   -0.5751 C   0  0  0  0  0  0  0  0  0  0  0  0
   -0.8765   -0.1050    0.2920 C   0  0  0  0  0  0  0  0  0  0  0  0
    3.8186   -0.3223   -1.2851 C   0  0  0  0  0  0  0  0  0  0  0  0
    6.6737   -1.1987   -1.5558 C   0  0  0  0  0  0  0  0  0  0  0  0
  -10.9374   -0.8281    0.6445 C   0  0  0  0  0  0  0  0  0  0  0  0
    8.3276    0.1875   -0.4339 C   0  0  0  0  0  0  0  0  0  0  0  0
   11.9388    1.0556   -0.0768 C   0  0  2  0  0  0  0  0  0  0  0  0
   10.4722    1.0573    0.2854 C   0  0  1  0  0  0  0  0  0  0  0  0
    0.3082    0.5969    0.7469 N   0  0  0  0  0  0  0  0  0  0  0  0
    2.6841    0.0426   -0.5700 N   0  0  0  0  0  0  0  0  0  0  0  0
   -7.6711    2.3323   -0.4792 N   0  0  0  0  0  0  0  0  0  0  0  0
    8.0233   -0.9247   -1.3078 N   0  0  0  0  0  0  0  0  0  0  0  0
    9.8040    0.0580   -0.4716 N   0  0  0  0  0  0  0  0  0  0  0  0
   -7.7882   -0.1390   -0.2799 C   0  0  2  0  0  0  0  0  0  0  0  0
   -6.9541   -0.9190   -2.2348 C   0  0  0  0  0  0  0  0  0  0  0  0
   -5.8001   -1.0384   -1.2703 C   0  0  2  0  0  0  0  0  0  0  0  0
   11.8438    2.0542    2.7991 H   0  0  0  0  0  0  0  0  0  0  0  0
   10.2002    2.4394    3.3515 H   0  0  0  0  0  0  0  0  0  0  0  0
   10.7157    3.1602    1.8196 H   0  0  0  0  0  0  0  0  0  0  0  0
   12.3057   -0.8224    0.9415 H   0  0  0  0  0  0  0  0  0  0  0  0
   12.1564   -0.9047   -0.8673 H   0  0  0  0  0  0  0  0  0  0  0  0
   13.6313   -0.2624   -0.1337 H   0  0  0  0  0  0  0  0  0  0  0  0
    7.6761    2.0836   -0.3527 H   0  0  0  0  0  0  0  0  0  0  0  0
   12.5280    2.9265    0.2644 H   0  0  0  0  0  0  0  0  0  0  0  0
   -9.9901   -2.4034    2.7922 H   0  0  0  0  0  0  0  0  0  0  0  0
   -9.3469   -0.9970    3.6788 H   0  0  0  0  0  0  0  0  0  0  0  0
   -1.4070   -3.0527   -0.7032 H   0  0  0  0  0  0  0  0  0  0  0  0
   -1.6949   -2.2168   -2.2241 H   0  0  0  0  0  0  0  0  0  0  0  0
   -3.1196   -2.3830    1.4253 H   0  0  0  0  0  0  0  0  0  0  0  0
   -3.6692   -0.7160    1.2487 H   0  0  0  0  0  0  0  0  0  0  0  0
    0.3851   -1.5688   -0.7540 H   0  0  0  0  0  0  0  0  0  0  0  0
   -0.4496   -0.4260   -1.8008 H   0  0  0  0  0  0  0  0  0  0  0  0
   -1.7322   -0.2188    2.2592 H   0  0  0  0  0  0  0  0  0  0  0  0
   -0.9189   -1.7635    1.7178 H   0  0  0  0  0  0  0  0  0  0  0  0
    4.7471    1.6093   -1.7847 H   0  0  0  0  0  0  0  0  0  0  0  0
    5.4042    0.8418   -0.3045 H   0  0  0  0  0  0  0  0  0  0  0  0
    4.4369   -2.3587   -1.8230 H   0  0  0  0  0  0  0  0  0  0  0  0
    3.7062   -2.2243   -0.2113 H   0  0  0  0  0  0  0  0  0  0  0  0
    5.4002   -0.4061   -3.0943 H   0  0  0  0  0  0  0  0  0  0  0  0
    6.7040    0.7024   -2.6778 H   0  0  0  0  0  0  0  0  0  0  0  0
    6.0625   -2.6538   -0.1254 H   0  0  0  0  0  0  0  0  0  0  0  0
    5.8903   -0.9682    0.4883 H   0  0  0  0  0  0  0  0  0  0  0  0
  -10.3255    0.5778    2.1223 H   0  0  0  0  0  0  0  0  0  0  0  0
  -10.1956    3.5864    0.1352 H   0  0  0  0  0  0  0  0  0  0  0  0
   -9.3967    4.9617   -0.6784 H   0  0  0  0  0  0  0  0  0  0  0  0
   -7.8862   -2.1932   -0.0086 H   0  0  0  0  0  0  0  0  0  0  0  0
   -7.3380    3.3944   -2.2102 H   0  0  0  0  0  0  0  0  0  0  0  0
   -7.9780    1.7473   -2.5360 H   0  0  0  0  0  0  0  0  0  0  0  0
    8.3427   -2.6551   -0.0842 H   0  0  0  0  0  0  0  0  0  0  0  0
    9.3510   -2.5122   -1.5776 H   0  0  0  0  0  0  0  0  0  0  0  0
   10.6775    0.1249    2.2114 H   0  0  0  0  0  0  0  0  0  0  0  0
    9.1323    1.0626    1.9286 H   0  0  0  0  0  0  0  0  0  0  0  0
   -5.8106    0.6896    0.0832 H   0  0  0  0  0  0  0  0  0  0  0  0
   -6.0586   -0.9495    0.8114 H   0  0  0  0  0  0  0  0  0  0  0  0
    1.2648   -1.3070    1.0496 H   0  0  0  0  0  0  0  0  0  0  0  0
    1.3276   -0.1724    2.4176 H   0  0  0  0  0  0  0  0  0  0  0  0
    1.0297    2.4897    0.3293 H   0  0  0  0  0  0  0  0  0  0  0  0
   -0.0945    1.8180   -0.8723 H   0  0  0  0  0  0  0  0  0  0  0  0
    2.7439    1.3179    1.0485 H   0  0  0  0  0  0  0  0  0  0  0  0
    3.5015   -0.2840    1.3852 H   0  0  0  0  0  0  0  0  0  0  0  0
    2.5474    1.9699   -1.2626 H   0  0  0  0  0  0  0  0  0  0  0  0
    1.5334    0.8541   -2.1740 H   0  0  0  0  0  0  0  0  0  0  0  0
   -4.4299   -1.0350   -2.8832 H   0  0  0  0  0  0  0  0  0  0  0  0
   -4.7896    0.5517   -2.2127 H   0  0  0  0  0  0  0  0  0  0  0  0
   -9.3640    1.3320    0.0642 H   0  0  0  0  0  0  0  0  0  0  0  0
   -8.0516    1.3103    1.2521 H   0  0  0  0  0  0  0  0  0  0  0  0
  -10.1058    2.4995   -1.9018 H   0  0  0  0  0  0  0  0  0  0  0  0
   -7.3706    4.2217   -0.0191 H   0  0  0  0  0  0  0  0  0  0  0  0
    9.7256   -1.3381    0.9651 H   0  0  0  0  0  0  0  0  0  0  0  0
   -7.7984   -2.3745    2.2025 H   0  0  0  0  0  0  0  0  0  0  0  0
  -10.0719   -2.6745   -0.0100 H   0  0  0  0  0  0  0  0  0  0  0  0
   -9.8955   -1.3271   -1.1478 H   0  0  0  0  0  0  0  0  0  0  0  0
   -3.7159   -2.4047   -0.8039 H   0  0  0  0  0  0  0  0  0  0  0  0
   -1.5930    0.6601   -0.0595 H   0  0  0  0  0  0  0  0  0  0  0  0
    3.5192   -0.3904   -2.3769 H   0  0  0  0  0  0  0  0  0  0  0  0
    6.6456   -2.0761   -2.2711 H   0  0  0  0  0  0  0  0  0  0  0  0
  -11.8373   -1.5140    0.7060 H   0  0  0  0  0  0  0  0  0  0  0  0
  -11.3528    0.0469    0.0690 H   0  0  0  0  0  0  0  0  0  0  0  0
    8.0318    0.0166    0.5986 H   0  0  0  0  0  0  0  0  0  0  0  0
   11.9813    1.3854   -1.1581 H   0  0  0  0  0  0  0  0  0  0  0  0
   10.0918    2.0589   -0.1078 H   0  0  0  0  0  0  0  0  0  0  0  0
   -7.2709   -1.9371   -2.5964 H   0  0  0  0  0  0  0  0  0  0  0  0
   -6.6138   -0.4066   -3.1661 H   0  0  0  0  0  0  0  0  0  0  0  0
   -5.6862   -2.1286   -1.0601 H   0  0  0  0  0  0  0  0  0  0  0  0
  8 10  1  0
  9 11  1  0
 12 14  1  0
 13 15  1  0
  6 16  1  0
  7 16  1  0
  1 21  1  0
 23 25  1  0
 24 26  1  0
 17 29  1  0
 19 29  1  0
 17 30  1  0
 20 31  1  0
 27 32  1  0
  5 34  1  0
  7 34  1  0
 18 34  1  0
 18 35  1  0
  8 36  1  0
  9 36  1  0
 32 36  1  0
 10 37  1  0
 11 37  1  0
 12 38  1  0
 13 38  1  0
 14 39  1  0
 15 39  1  0
 16 40  1  0
 35 40  1  0
  3 41  1  0
  2 42  1  0
  4 42  1  0
 21 43  1  0
 42 43  1  0
 23 44  1  0
 24 44  1  0
 37 44  1  0
 25 45  1  0
 26 45  1  0
 38 45  1  0
 19 46  1  0
 28 46  1  0
 30 46  1  0
 20 47  1  0
 39 47  1  0
 41 47  1  0
 31 48  1  0
 41 48  1  0
 43 48  1  0
 18 49  1  0
 22 49  1  0
 49 28  1  1
 33 49  1  0
 33 50  1  0
 22 51  1  0
 27 51  1  0
 50 51  1  0
  1 52  1  0
  1 53  1  0
  1 54  1  0
  2 55  1  0
  2 56  1  0
  2 57  1  0
  3 58  1  0
  4 59  1  0
  7 60  1  0
  7 61  1  0
  8 62  1  0
  8 63  1  0
  9 64  1  0
  9 65  1  0
 10 66  1  0
 10 67  1  0
 11 68  1  0
 11 69  1  0
 12 70  1  0
 12 71  1  0
 13 72  1  0
 13 73  1  0
 14 74  1  0
 14 75  1  0
 15 76  1  0
 15 77  1  0
 16 78  1  0
 17 79  1  0
 17 80  1  0
 18 81  1  6
 19 82  1  0
 19 83  1  0
 20 84  1  0
 20 85  1  0
 21 86  1  0
 21 87  1  0
 22 88  1  0
 22 89  1  0
 23 90  1  0
 23 91  1  0
 24 92  1  0
 24 93  1  0
 25 94  1  0
 25 95  1  0
 26 96  1  0
 26 97  1  0
 27 98  1  0
 27 99  1  0
 28100  1  0
 28101  1  0
 29102  1  0
 30103  1  0
 31104  1  0
 34105  1  0
 35106  1  0
 35107  1  0
 36108  1  0
 37109  1  0
 38110  1  0
 39111  1  0
 40112  1  0
 40113  1  0
 41114  1  0
 42115  1  6
 43116  1  6
 50117  1  0
 50118  1  0
 51119  1  1
M  END
>  <PDBID>  (1) 
4ZE1

>  <PDB ID>  (1) 
4ZE1

>  <Generic Name>  (1) 
Posaconazole

>  <Brand Name>  (1) 
Noxafil#Posanol

>  <DrugBank ID>  (1) 
DB01263

>  <ATC Codes>  (1) 
J02AC04

>  <Ligand ID>  (1) 
X2N

>  <Target Name>  (1) 
Lanosterol 14-alpha demethylase

>  <UniProt ID>  (1) 
P10613

>  <PDB ID.1>  (1) 
4ZE1

>  <Seq. Identity>  (1) 
65%

$$$$
