PDB_DB09079_09
     RDKit          3D

 99103  0  0  0  0  0  0  0  0999 V2000
   -2.5748   -0.3709   -1.6098 C   0  0  0  0  0  0  0  0  0  0  0  0
   -3.9005   -0.7954   -2.0856 C   0  0  0  0  0  0  0  0  0  0  0  0
   -2.2572   -0.0198   -0.2257 C   0  0  0  0  0  0  0  0  0  0  0  0
   -2.2229    0.7483   -2.5985 C   0  0  0  0  0  0  0  0  0  0  0  0
   -4.4212    0.1972   -3.0789 C   0  0  0  0  0  0  0  0  0  0  0  0
   -4.8877   -1.3956   -1.1693 C   0  0  0  0  0  0  0  0  0  0  0  0
   -2.7388    1.0876    0.5608 C   0  0  0  0  0  0  0  0  0  0  0  0
   -5.8365    0.5730   -2.8414 C   0  0  0  0  0  0  0  0  0  0  0  0
   -6.0418   -1.8463   -2.1124 C   0  0  0  0  0  0  0  0  0  0  0  0
    0.2311    0.0539   -0.3680 C   0  0  0  0  0  0  0  0  0  0  0  0
   -6.7173   -0.5723   -2.5196 C   0  0  1  0  0  0  0  0  0  0  0  0
   -2.8376    1.6383    3.0247 C   0  0  0  0  0  0  0  0  0  0  0  0
   -4.7107    0.5058    1.9998 C   0  0  0  0  0  0  0  0  0  0  0  0
    1.2749   -1.0290    0.0567 C   0  0  0  0  0  0  0  0  0  0  0  0
   -7.6875   -0.1301   -1.4125 C   0  0  2  0  0  0  0  0  0  0  0  0
    2.6605   -0.5268   -0.1811 C   0  0  0  0  0  0  0  0  0  0  0  0
    1.7359    1.1987    1.2370 C   0  0  0  0  0  0  0  0  0  0  0  0
   -8.5558   -1.1194   -1.0336 O   0  0  0  0  0  0  0  0  0  0  0  0
   -8.4175    0.9599   -1.8891 O   0  0  0  0  0  0  0  0  0  0  0  0
    3.0586    0.5706    0.7737 C   0  0  0  0  0  0  0  0  0  0  0  0
    4.9830   -0.5419    1.7505 C   0  0  1  0  0  0  0  0  0  0  0  0
    3.8897    1.2263    2.8569 C   0  0  0  0  0  0  0  0  0  0  0  0
    6.0358    0.3558    1.1371 C   0  0  0  0  0  0  0  0  0  0  0  0
    8.2510    0.7185    0.4876 C   0  0  0  0  0  0  0  0  0  0  0  0
    7.2999   -1.4754    0.3406 C   0  0  0  0  0  0  0  0  0  0  0  0
    9.5694    0.0901    0.1047 C   0  0  0  0  0  0  0  0  0  0  0  0
    8.6766   -2.0734    0.1279 C   0  0  0  0  0  0  0  0  0  0  0  0
    9.0300   -0.9833   -1.9822 C   0  0  0  0  0  0  0  0  0  0  0  0
    5.4690   -0.8232    3.0568 O   0  0  0  0  0  0  0  0  0  0  0  0
    7.3432   -0.2510    1.0740 N   0  0  0  0  0  0  0  0  0  0  0  0
    9.4610   -1.1291   -0.6280 N   0  0  0  0  0  0  0  0  0  0  0  0
    3.7315    0.1102    1.9349 N   0  0  0  0  0  0  0  0  0  0  0  0
    0.8746    1.3465    0.0313 C   0  0  0  0  0  0  0  0  0  0  0  0
   -0.9364   -0.3737    0.1984 N   0  0  0  0  0  0  0  0  0  0  0  0
   -4.1459    1.3613    0.8595 C   0  0  0  0  0  0  0  0  0  0  0  0
   -4.1607    0.9702    3.3323 C   0  0  0  0  0  0  0  0  0  0  0  0
   -2.1479    0.7964    1.9890 C   0  0  0  0  0  0  0  0  0  0  0  0
   -8.4409   -1.3255    0.3379 C   0  0  0  0  0  0  0  0  0  0  0  0
   -3.4792    1.2898   -3.0911 N   0  0  0  0  0  0  0  0  0  0  0  0
   -1.5335    1.7926   -2.0530 O   0  0  0  0  0  0  0  0  0  0  0  0
   -1.8696   -1.1949   -1.8738 H   0  0  0  0  0  0  0  0  0  0  0  0
   -3.7466   -1.7367   -2.8088 H   0  0  0  0  0  0  0  0  0  0  0  0
   -2.8497   -0.9236    0.3144 H   0  0  0  0  0  0  0  0  0  0  0  0
   -1.6750    0.3774   -3.4725 H   0  0  0  0  0  0  0  0  0  0  0  0
   -4.4006   -0.1815   -4.1549 H   0  0  0  0  0  0  0  0  0  0  0  0
   -5.3887   -0.8241   -0.4264 H   0  0  0  0  0  0  0  0  0  0  0  0
   -4.4431   -2.3465   -0.7603 H   0  0  0  0  0  0  0  0  0  0  0  0
   -2.2321    2.0851    0.3492 H   0  0  0  0  0  0  0  0  0  0  0  0
   -5.9043    1.3310   -2.0228 H   0  0  0  0  0  0  0  0  0  0  0  0
   -6.2360    1.0927   -3.7566 H   0  0  0  0  0  0  0  0  0  0  0  0
   -6.7145   -2.4333   -1.4700 H   0  0  0  0  0  0  0  0  0  0  0  0
   -5.6343   -2.4405   -2.9312 H   0  0  0  0  0  0  0  0  0  0  0  0
    0.3385   -0.0153   -1.4790 H   0  0  0  0  0  0  0  0  0  0  0  0
   -7.3410   -0.8150   -3.4122 H   0  0  0  0  0  0  0  0  0  0  0  0
   -2.2170    1.5305    3.9524 H   0  0  0  0  0  0  0  0  0  0  0  0
   -2.8897    2.7020    2.8195 H   0  0  0  0  0  0  0  0  0  0  0  0
   -4.4620   -0.5330    1.7740 H   0  0  0  0  0  0  0  0  0  0  0  0
   -5.8116    0.6159    1.9568 H   0  0  0  0  0  0  0  0  0  0  0  0
    1.1285   -1.9408   -0.5614 H   0  0  0  0  0  0  0  0  0  0  0  0
    1.1624   -1.3028    1.1050 H   0  0  0  0  0  0  0  0  0  0  0  0
   -7.1312    0.2302   -0.5264 H   0  0  0  0  0  0  0  0  0  0  0  0
    2.8238   -0.2158   -1.2559 H   0  0  0  0  0  0  0  0  0  0  0  0
    3.3459   -1.3756   -0.0303 H   0  0  0  0  0  0  0  0  0  0  0  0
    1.2451    0.5227    1.9598 H   0  0  0  0  0  0  0  0  0  0  0  0
    1.9962    2.1687    1.7136 H   0  0  0  0  0  0  0  0  0  0  0  0
   -7.8692    1.7667   -1.7349 H   0  0  0  0  0  0  0  0  0  0  0  0
    3.5709    1.3468    0.1984 H   0  0  0  0  0  0  0  0  0  0  0  0
    4.8920   -1.5181    1.2509 H   0  0  0  0  0  0  0  0  0  0  0  0
    4.7416    1.0702    3.5443 H   0  0  0  0  0  0  0  0  0  0  0  0
    4.0663    2.1414    2.2377 H   0  0  0  0  0  0  0  0  0  0  0  0
    2.9812    1.3939    3.4551 H   0  0  0  0  0  0  0  0  0  0  0  0
    5.7087    0.5429    0.0808 H   0  0  0  0  0  0  0  0  0  0  0  0
    6.1200    1.3156    1.6414 H   0  0  0  0  0  0  0  0  0  0  0  0
    7.7512    1.2288   -0.3407 H   0  0  0  0  0  0  0  0  0  0  0  0
    8.4590    1.4768    1.2727 H   0  0  0  0  0  0  0  0  0  0  0  0
    6.7588   -2.2330    0.9774 H   0  0  0  0  0  0  0  0  0  0  0  0
    6.7917   -1.4386   -0.6229 H   0  0  0  0  0  0  0  0  0  0  0  0
   10.1890   -0.0511    1.0040 H   0  0  0  0  0  0  0  0  0  0  0  0
   10.0910    0.8334   -0.5404 H   0  0  0  0  0  0  0  0  0  0  0  0
    9.1742   -2.2424    1.0919 H   0  0  0  0  0  0  0  0  0  0  0  0
    8.5303   -3.0001   -0.4609 H   0  0  0  0  0  0  0  0  0  0  0  0
    8.2745   -0.1917   -2.1544 H   0  0  0  0  0  0  0  0  0  0  0  0
    9.8806   -0.7535   -2.6854 H   0  0  0  0  0  0  0  0  0  0  0  0
    8.5868   -1.9192   -2.3964 H   0  0  0  0  0  0  0  0  0  0  0  0
    5.0944   -1.6848    3.3752 H   0  0  0  0  0  0  0  0  0  0  0  0
    1.5509    1.6913   -0.8115 H   0  0  0  0  0  0  0  0  0  0  0  0
    0.1545    2.1893    0.1011 H   0  0  0  0  0  0  0  0  0  0  0  0
   -0.8782   -0.9433    1.0736 H   0  0  0  0  0  0  0  0  0  0  0  0
   -4.1934    2.4111    1.3024 H   0  0  0  0  0  0  0  0  0  0  0  0
   -4.8781    1.3835    0.0745 H   0  0  0  0  0  0  0  0  0  0  0  0
   -4.8898    1.6018    3.8330 H   0  0  0  0  0  0  0  0  0  0  0  0
   -3.9029    0.0288    3.8905 H   0  0  0  0  0  0  0  0  0  0  0  0
   -1.0774    0.9265    2.0111 H   0  0  0  0  0  0  0  0  0  0  0  0
   -2.3787   -0.2655    2.2548 H   0  0  0  0  0  0  0  0  0  0  0  0
   -9.1309   -2.1235    0.7031 H   0  0  0  0  0  0  0  0  0  0  0  0
   -8.7126   -0.3897    0.9025 H   0  0  0  0  0  0  0  0  0  0  0  0
   -7.4076   -1.5606    0.6533 H   0  0  0  0  0  0  0  0  0  0  0  0
   -3.3699    1.7210   -4.0329 H   0  0  0  0  0  0  0  0  0  0  0  0
   -0.6955    2.0343   -2.5439 H   0  0  0  0  0  0  0  0  0  0  0  0
  1  2  1  0
  1  3  1  0
  1  4  1  0
  2  5  1  0
  2  6  1  0
  3  7  1  0
  5  8  1  0
  6  9  1  0
  8 11  1  0
  9 11  1  0
 10 14  1  0
 11 15  1  0
 14 16  1  0
 15 18  1  0
 15 19  1  0
 16 20  1  0
 17 20  1  0
 21 23  1  0
 24 26  1  0
 25 27  1  0
 21 29  1  0
 23 30  1  0
 24 30  1  0
 25 30  1  0
 26 31  1  0
 27 31  1  0
 28 31  1  0
 20 32  1  0
 21 32  1  0
 22 32  1  0
 10 33  1  0
 17 33  1  0
  3 34  1  0
 10 34  1  0
  7 35  1  0
 13 35  1  0
 12 36  1  0
 13 36  1  0
  7 37  1  0
 12 37  1  0
 18 38  1  0
  4 39  1  0
  5 39  1  0
  4 40  1  0
  1 41  1  0
  2 42  1  0
  3 43  1  0
  4 44  1  0
  5 45  1  0
  6 46  1  0
  6 47  1  0
  7 48  1  0
  8 49  1  0
  8 50  1  0
  9 51  1  0
  9 52  1  0
 10 53  1  0
 11 54  1  6
 12 55  1  0
 12 56  1  0
 13 57  1  0
 13 58  1  0
 14 59  1  0
 14 60  1  0
 15 61  1  1
 16 62  1  0
 16 63  1  0
 17 64  1  0
 17 65  1  0
 19 66  1  0
 20 67  1  0
 21 68  1  6
 22 69  1  0
 22 70  1  0
 22 71  1  0
 23 72  1  0
 23 73  1  0
 24 74  1  0
 24 75  1  0
 25 76  1  0
 25 77  1  0
 26 78  1  0
 26 79  1  0
 27 80  1  0
 27 81  1  0
 28 82  1  0
 28 83  1  0
 28 84  1  0
 29 85  1  0
 33 86  1  0
 33 87  1  0
 34 88  1  0
 35 89  1  0
 35 90  1  0
 36 91  1  0
 36 92  1  0
 37 93  1  0
 37 94  1  0
 38 95  1  0
 38 96  1  0
 38 97  1  0
 39 98  1  0
 40 99  1  0
M  END
>  <PDBID>  (1) 
3C7Q

>  <PDB ID>  (1) 
3C7Q

>  <Generic Name>  (1) 
Nintedanib

>  <Brand Name>  (1) 
Ofev#Vargatef

>  <DrugBank ID>  (1) 
DB09079

>  <ATC Codes>  (1) 
L01XE31

>  <Ligand ID>  (1) 
XIN

>  <Target Name>  (1) 
Vascular endothelial growth factor receptor 3

>  <UniProt ID>  (1) 
P35916

>  <PDB ID.1>  (1) 
3C7Q

>  <Seq. Identity>  (1) 
67%

$$$$
