PDB_DB00421_09
     RDKit          3D

138146  0  0  0  0  0  0  0  0999 V2000
    3.3125    0.5679    1.3488 C   0  0  0  0  0  0  0  0  0  0  0  0
    1.7217   -1.4309   -1.2389 C   0  0  0  0  0  0  0  0  0  0  0  0
    2.1260   -0.1403   -0.5947 C   0  0  1  0  0  0  0  0  0  0  0  0
   -2.0543   -1.0999   -0.7220 C   0  0  1  0  0  0  0  0  0  0  0  0
    1.1837    0.0526    0.5928 C   0  0  1  0  0  0  0  0  0  0  0  0
   -2.4063   -2.4776   -1.2501 C   0  0  0  0  0  0  0  0  0  0  0  0
    0.2731   -1.4008   -1.6477 C   0  0  0  0  0  0  0  0  0  0  0  0
    1.8684    1.0704    1.3964 C   0  0  0  0  0  0  0  0  0  0  0  0
    3.4728   -0.1407    0.0314 C   0  0  2  0  0  0  0  0  0  0  0  0
    2.0524    1.0215   -1.5580 C   0  0  0  0  0  0  0  0  0  0  0  0
   -2.5099   -0.0931   -1.7232 C   0  0  0  0  0  0  0  0  0  0  0  0
   -3.6278   -3.0540   -0.5951 C   0  0  0  0  0  0  0  0  0  0  0  0
    4.1224   -1.4841    0.1349 C   0  0  0  0  0  0  0  0  0  0  0  0
    5.5982   -1.1873    0.1626 C   0  0  0  0  0  0  0  0  0  0  0  0
    5.6533    0.2362   -0.3114 C   0  0  0  0  0  0  0  0  0  0  0  0
   -1.6287    3.6544    2.0922 C   0  0  0  0  0  0  0  0  0  0  0  0
   -1.3921    4.5673    0.9156 C   0  0  0  0  0  0  0  0  0  0  0  0
   -4.7040   -2.0461   -0.3125 C   0  0  0  0  0  0  0  0  0  0  0  0
   -4.2297   -0.8808    0.5219 C   0  0  0  0  0  0  0  0  0  0  0  0
   -2.7276   -0.9976    0.6241 C   0  0  2  0  0  0  0  0  0  0  0  0
   -2.1034    0.0098    1.5379 C   0  0  0  0  0  0  0  0  0  0  0  0
   -1.1741    0.9736    0.8320 C   0  0  2  0  0  0  0  0  0  0  0  0
   -0.1364    0.3322    0.0063 C   0  0  2  0  0  0  0  0  0  0  0  0
   -0.5877   -1.0460   -0.4797 C   0  0  1  0  0  0  0  0  0  0  0  0
    6.1848    1.0976    0.6535 O   0  0  0  0  0  0  0  0  0  0  0  0
    4.3854    0.6009   -0.7199 O   0  0  0  0  0  0  0  0  0  0  0  0
   -2.9835    3.3409    2.1392 O   0  0  0  0  0  0  0  0  0  0  0  0
   -5.3476   -1.6579   -1.4744 O   0  0  0  0  0  0  0  0  0  0  0  0
   -0.5852    2.1733    2.0344 S   0  0  0  0  0  0  0  0  0  0  0  0
    3.3125    0.5679    1.3488 C   0  0  0  0  0  0  0  0  0  0  0  0
    1.7217   -1.4309   -1.2389 C   0  0  0  0  0  0  0  0  0  0  0  0
    2.1260   -0.1403   -0.5947 C   0  0  1  0  0  0  0  0  0  0  0  0
   -2.0543   -1.0999   -0.7220 C   0  0  1  0  0  0  0  0  0  0  0  0
    1.1837    0.0526    0.5928 C   0  0  1  0  0  0  0  0  0  0  0  0
   -2.4063   -2.4776   -1.2501 C   0  0  0  0  0  0  0  0  0  0  0  0
    0.2731   -1.4008   -1.6477 C   0  0  0  0  0  0  0  0  0  0  0  0
    1.8684    1.0704    1.3964 C   0  0  0  0  0  0  0  0  0  0  0  0
    3.4728   -0.1407    0.0314 C   0  0  2  0  0  0  0  0  0  0  0  0
    2.0524    1.0215   -1.5580 C   0  0  0  0  0  0  0  0  0  0  0  0
   -2.5099   -0.0931   -1.7232 C   0  0  0  0  0  0  0  0  0  0  0  0
   -3.6278   -3.0540   -0.5951 C   0  0  0  0  0  0  0  0  0  0  0  0
    4.1224   -1.4841    0.1349 C   0  0  0  0  0  0  0  0  0  0  0  0
    5.5982   -1.1873    0.1626 C   0  0  0  0  0  0  0  0  0  0  0  0
    5.6533    0.2362   -0.3114 C   0  0  0  0  0  0  0  0  0  0  0  0
   -1.6287    3.6544    2.0922 C   0  0  0  0  0  0  0  0  0  0  0  0
   -1.3921    4.5673    0.9156 C   0  0  0  0  0  0  0  0  0  0  0  0
   -4.7040   -2.0461   -0.3125 C   0  0  0  0  0  0  0  0  0  0  0  0
   -4.2297   -0.8808    0.5219 C   0  0  0  0  0  0  0  0  0  0  0  0
   -2.7276   -0.9976    0.6241 C   0  0  2  0  0  0  0  0  0  0  0  0
   -2.1034    0.0098    1.5379 C   0  0  0  0  0  0  0  0  0  0  0  0
   -1.1741    0.9736    0.8320 C   0  0  2  0  0  0  0  0  0  0  0  0
   -0.1364    0.3322    0.0063 C   0  0  2  0  0  0  0  0  0  0  0  0
   -0.5877   -1.0460   -0.4797 C   0  0  1  0  0  0  0  0  0  0  0  0
    6.1848    1.0976    0.6535 O   0  0  0  0  0  0  0  0  0  0  0  0
    4.3854    0.6009   -0.7199 O   0  0  0  0  0  0  0  0  0  0  0  0
   -2.9835    3.3409    2.1392 O   0  0  0  0  0  0  0  0  0  0  0  0
   -5.3476   -1.6579   -1.4744 O   0  0  0  0  0  0  0  0  0  0  0  0
   -0.5852    2.1733    2.0344 S   0  0  0  0  0  0  0  0  0  0  0  0
    3.4712   -0.2061    2.1421 H   0  0  0  0  0  0  0  0  0  0  0  0
    4.0299    1.3842    1.5099 H   0  0  0  0  0  0  0  0  0  0  0  0
    1.8116   -2.2272   -0.4601 H   0  0  0  0  0  0  0  0  0  0  0  0
    2.3547   -1.6830   -2.1269 H   0  0  0  0  0  0  0  0  0  0  0  0
    1.2095   -0.9228    1.1405 H   0  0  0  0  0  0  0  0  0  0  0  0
   -2.5911   -2.4275   -2.3505 H   0  0  0  0  0  0  0  0  0  0  0  0
   -1.5784   -3.2100   -1.0720 H   0  0  0  0  0  0  0  0  0  0  0  0
    0.0846   -0.7203   -2.5118 H   0  0  0  0  0  0  0  0  0  0  0  0
    0.0361   -2.4236   -2.0368 H   0  0  0  0  0  0  0  0  0  0  0  0
    1.6077    1.0093    2.4846 H   0  0  0  0  0  0  0  0  0  0  0  0
    1.8064    2.0945    0.9992 H   0  0  0  0  0  0  0  0  0  0  0  0
    1.7615    1.9599   -1.0349 H   0  0  0  0  0  0  0  0  0  0  0  0
    3.0705    1.2117   -1.9830 H   0  0  0  0  0  0  0  0  0  0  0  0
    1.3968    0.8357   -2.4203 H   0  0  0  0  0  0  0  0  0  0  0  0
   -1.6895    0.6031   -2.0341 H   0  0  0  0  0  0  0  0  0  0  0  0
   -2.8353   -0.5781   -2.6791 H   0  0  0  0  0  0  0  0  0  0  0  0
   -3.3482    0.5404   -1.4081 H   0  0  0  0  0  0  0  0  0  0  0  0
   -3.3913   -3.6685    0.3100 H   0  0  0  0  0  0  0  0  0  0  0  0
   -4.0675   -3.7834   -1.3220 H   0  0  0  0  0  0  0  0  0  0  0  0
    3.7738   -2.1006    0.9744 H   0  0  0  0  0  0  0  0  0  0  0  0
    3.9280   -2.0165   -0.8307 H   0  0  0  0  0  0  0  0  0  0  0  0
    5.9995   -1.3170    1.1918 H   0  0  0  0  0  0  0  0  0  0  0  0
    6.1782   -1.8785   -0.4996 H   0  0  0  0  0  0  0  0  0  0  0  0
    6.3194    0.3421   -1.2047 H   0  0  0  0  0  0  0  0  0  0  0  0
   -1.3924    4.2190    3.0199 H   0  0  0  0  0  0  0  0  0  0  0  0
   -0.6816    4.1313    0.1718 H   0  0  0  0  0  0  0  0  0  0  0  0
   -2.3377    4.7944    0.3648 H   0  0  0  0  0  0  0  0  0  0  0  0
   -0.9918    5.5591    1.2377 H   0  0  0  0  0  0  0  0  0  0  0  0
   -5.4737   -2.5770    0.3042 H   0  0  0  0  0  0  0  0  0  0  0  0
   -4.6048   -0.9394    1.5763 H   0  0  0  0  0  0  0  0  0  0  0  0
   -4.5734    0.0958    0.1483 H   0  0  0  0  0  0  0  0  0  0  0  0
   -2.5532   -1.9931    1.1116 H   0  0  0  0  0  0  0  0  0  0  0  0
   -1.5610   -0.4346    2.3966 H   0  0  0  0  0  0  0  0  0  0  0  0
   -2.9282    0.6151    1.9891 H   0  0  0  0  0  0  0  0  0  0  0  0
   -1.8497    1.5588    0.1538 H   0  0  0  0  0  0  0  0  0  0  0  0
    0.0011    0.9266   -0.9332 H   0  0  0  0  0  0  0  0  0  0  0  0
   -0.3598   -1.7834    0.3316 H   0  0  0  0  0  0  0  0  0  0  0  0
    6.0167    2.0198    0.3135 H   0  0  0  0  0  0  0  0  0  0  0  0
   -3.4662    4.2081    2.0737 H   0  0  0  0  0  0  0  0  0  0  0  0
   -6.3388   -1.7797   -1.4338 H   0  0  0  0  0  0  0  0  0  0  0  0
    3.4712   -0.2061    2.1421 H   0  0  0  0  0  0  0  0  0  0  0  0
    4.0299    1.3842    1.5099 H   0  0  0  0  0  0  0  0  0  0  0  0
    1.8116   -2.2272   -0.4601 H   0  0  0  0  0  0  0  0  0  0  0  0
    2.3547   -1.6830   -2.1269 H   0  0  0  0  0  0  0  0  0  0  0  0
    1.2095   -0.9228    1.1405 H   0  0  0  0  0  0  0  0  0  0  0  0
   -2.5911   -2.4275   -2.3505 H   0  0  0  0  0  0  0  0  0  0  0  0
   -1.5784   -3.2100   -1.0720 H   0  0  0  0  0  0  0  0  0  0  0  0
    0.0846   -0.7203   -2.5118 H   0  0  0  0  0  0  0  0  0  0  0  0
    0.0361   -2.4236   -2.0368 H   0  0  0  0  0  0  0  0  0  0  0  0
    1.6077    1.0093    2.4846 H   0  0  0  0  0  0  0  0  0  0  0  0
    1.8064    2.0945    0.9992 H   0  0  0  0  0  0  0  0  0  0  0  0
    1.7615    1.9599   -1.0349 H   0  0  0  0  0  0  0  0  0  0  0  0
    3.0705    1.2117   -1.9830 H   0  0  0  0  0  0  0  0  0  0  0  0
    1.3968    0.8357   -2.4203 H   0  0  0  0  0  0  0  0  0  0  0  0
   -1.6895    0.6031   -2.0341 H   0  0  0  0  0  0  0  0  0  0  0  0
   -2.8353   -0.5781   -2.6791 H   0  0  0  0  0  0  0  0  0  0  0  0
   -3.3482    0.5404   -1.4081 H   0  0  0  0  0  0  0  0  0  0  0  0
   -3.3913   -3.6685    0.3100 H   0  0  0  0  0  0  0  0  0  0  0  0
   -4.0675   -3.7834   -1.3220 H   0  0  0  0  0  0  0  0  0  0  0  0
    3.7738   -2.1006    0.9744 H   0  0  0  0  0  0  0  0  0  0  0  0
    3.9280   -2.0165   -0.8307 H   0  0  0  0  0  0  0  0  0  0  0  0
    5.9995   -1.3170    1.1918 H   0  0  0  0  0  0  0  0  0  0  0  0
    6.1782   -1.8785   -0.4996 H   0  0  0  0  0  0  0  0  0  0  0  0
    6.3194    0.3421   -1.2047 H   0  0  0  0  0  0  0  0  0  0  0  0
   -1.3924    4.2190    3.0199 H   0  0  0  0  0  0  0  0  0  0  0  0
   -0.6816    4.1313    0.1718 H   0  0  0  0  0  0  0  0  0  0  0  0
   -2.3377    4.7944    0.3648 H   0  0  0  0  0  0  0  0  0  0  0  0
   -0.9918    5.5591    1.2377 H   0  0  0  0  0  0  0  0  0  0  0  0
   -5.4737   -2.5770    0.3042 H   0  0  0  0  0  0  0  0  0  0  0  0
   -4.6048   -0.9394    1.5763 H   0  0  0  0  0  0  0  0  0  0  0  0
   -4.5734    0.0958    0.1483 H   0  0  0  0  0  0  0  0  0  0  0  0
   -2.5532   -1.9931    1.1116 H   0  0  0  0  0  0  0  0  0  0  0  0
   -1.5610   -0.4346    2.3966 H   0  0  0  0  0  0  0  0  0  0  0  0
   -2.9282    0.6151    1.9891 H   0  0  0  0  0  0  0  0  0  0  0  0
   -1.8497    1.5588    0.1538 H   0  0  0  0  0  0  0  0  0  0  0  0
    0.0011    0.9266   -0.9332 H   0  0  0  0  0  0  0  0  0  0  0  0
   -0.3598   -1.7834    0.3316 H   0  0  0  0  0  0  0  0  0  0  0  0
    6.0167    2.0198    0.3135 H   0  0  0  0  0  0  0  0  0  0  0  0
   -3.4662    4.2081    2.0737 H   0  0  0  0  0  0  0  0  0  0  0  0
   -6.3388   -1.7797   -1.4338 H   0  0  0  0  0  0  0  0  0  0  0  0
  2  3  1  0
  3  5  1  0
  4  6  1  0
  2  7  1  0
  1  8  1  0
  5  8  1  0
  1  9  1  0
  3  9  1  0
  3 10  1  6
  4 11  1  6
  6 12  1  0
  9 13  1  0
 13 14  1  0
 14 15  1  0
 16 17  1  0
 12 18  1  0
 18 19  1  0
  4 20  1  0
 19 20  1  0
 20 21  1  0
 21 22  1  0
  5 23  1  0
 22 23  1  0
  4 24  1  0
  7 24  1  0
 23 24  1  0
 15 25  1  0
  9 26  1  6
 15 26  1  0
 16 27  1  0
 18 28  1  0
 16 29  1  0
 22 29  1  0
 31 32  1  0
 32 34  1  0
 33 35  1  0
 31 36  1  0
 30 37  1  0
 34 37  1  0
 30 38  1  0
 32 38  1  0
 32 39  1  6
 33 40  1  6
 35 41  1  0
 38 42  1  0
 42 43  1  0
 43 44  1  0
 45 46  1  0
 41 47  1  0
 47 48  1  0
 33 49  1  0
 48 49  1  0
 49 50  1  0
 50 51  1  0
 34 52  1  0
 51 52  1  0
 33 53  1  0
 36 53  1  0
 52 53  1  0
 44 54  1  0
 38 55  1  6
 44 55  1  0
 45 56  1  0
 47 57  1  0
 45 58  1  0
 51 58  1  0
  1 59  1  0
  1 60  1  0
  2 61  1  0
  2 62  1  0
  5 63  1  1
  6 64  1  0
  6 65  1  0
  7 66  1  0
  7 67  1  0
  8 68  1  0
  8 69  1  0
 10 70  1  0
 10 71  1  0
 10 72  1  0
 11 73  1  0
 11 74  1  0
 11 75  1  0
 12 76  1  0
 12 77  1  0
 13 78  1  0
 13 79  1  0
 14 80  1  0
 14 81  1  0
 15 82  1  0
 16 83  1  0
 17 84  1  0
 17 85  1  0
 17 86  1  0
 18 87  1  0
 19 88  1  0
 19 89  1  0
 20 90  1  1
 21 91  1  0
 21 92  1  0
 22 93  1  6
 23 94  1  6
 24 95  1  1
 25 96  1  0
 27 97  1  0
 28 98  1  0
 30 99  1  0
 30100  1  0
 31101  1  0
 31102  1  0
 34103  1  1
 35104  1  0
 35105  1  0
 36106  1  0
 36107  1  0
 37108  1  0
 37109  1  0
 39110  1  0
 39111  1  0
 39112  1  0
 40113  1  0
 40114  1  0
 40115  1  0
 41116  1  0
 41117  1  0
 42118  1  0
 42119  1  0
 43120  1  0
 43121  1  0
 44122  1  0
 45123  1  0
 46124  1  0
 46125  1  0
 46126  1  0
 47127  1  0
 48128  1  0
 48129  1  0
 49130  1  1
 50131  1  0
 50132  1  0
 51133  1  6
 52134  1  6
 53135  1  1
 54136  1  0
 56137  1  0
 57138  1  0
M  END
>  <PDBID>  (1) 
2AB2

>  <PDB ID>  (1) 
2AB2

>  <Generic Name>  (1) 
Spironolactone

>  <Brand Name>  (1) 
Aldactazide#Aldactazide 25#Aldactazide 50#Aldactone#Aldactone 100 mg#Aldactone 25 mg#Apo-spirozide Tab#Ntp-spironolactone#Spironolactone#Spironolactone and Hydrochlorothiazide#Teva-spironolactone#Teva-spironolactone/hctz#Osyrol#Spiresis#Spiretic#Spiroctan#Uractone#Verospiron#Xenalon

>  <DrugBank ID>  (1) 
DB00421

>  <ATC Codes>  (1) 
C03DA01

>  <Ligand ID>  (1) 
SNL

>  <Target Name>  (1) 
Mineralocorticoid receptor

>  <UniProt ID>  (1) 
P08235

>  <PDB ID.1>  (1) 
2AB2

>  <Seq. Identity>  (1) 
99%

$$$$
