PDB_DB00276_02
     RDKit          3D

138144  0  0  0  0  0  0  0  0999 V2000
    2.1581   -2.7804   -0.9729 C   0  0  0  0  0  0  0  0  0  0  0  0
    2.3012   -1.5371   -0.4068 O   0  0  0  0  0  0  0  0  0  0  0  0
    1.8672   -0.5029   -1.1833 C   0  0  0  0  0  0  0  0  0  0  0  0
    2.9771    0.4508   -1.5764 C   0  0  0  0  0  0  0  0  0  0  0  0
    3.6593    0.9058   -0.3211 C   0  0  0  0  0  0  0  0  0  0  0  0
    4.9137    0.2245   -0.2229 N   0  0  0  0  0  0  0  0  0  0  0  0
    5.8983    0.4439    0.9361 S   0  0  0  0  0  0  0  0  0  0  0  0
    7.5496   -0.1128    0.1619 C   0  0  0  0  0  0  0  0  0  0  0  0
    5.7404   -0.3734    2.2247 O   0  0  0  0  0  0  0  0  0  0  0  0
    6.3391    2.0241    1.2281 O   0  0  0  0  0  0  0  0  0  0  0  0
    2.8235    0.7139    0.9119 C   0  0  0  0  0  0  0  0  0  0  0  0
    1.3674    0.9406    0.7144 C   0  0  0  0  0  0  0  0  0  0  0  0
    0.7857    0.3610   -0.5357 C   0  0  0  0  0  0  0  0  0  0  0  0
   -0.3514   -0.4538   -0.3672 N   0  0  0  0  0  0  0  0  0  0  0  0
   -1.4822   -0.0278    0.3250 C   0  0  0  0  0  0  0  0  0  0  0  0
   -2.3467   -1.2828    0.5659 C   0  0  0  0  0  0  0  0  0  0  0  0
   -2.3080   -2.2369   -0.5795 C   0  0  0  0  0  0  0  0  0  0  0  0
   -2.9731   -3.5229   -0.0697 C   0  0  0  0  0  0  0  0  0  0  0  0
   -4.4012   -3.2400    0.3254 C   0  0  0  0  0  0  0  0  0  0  0  0
   -4.4675   -2.1552    1.3723 C   0  0  0  0  0  0  0  0  0  0  0  0
   -3.8070   -0.9187    0.7440 C   0  0  0  0  0  0  0  0  0  0  0  0
   -3.9563    0.2500    1.5386 N   0  0  0  0  0  0  0  0  0  0  0  0
   -3.3675    1.3618    0.8726 C   0  0  0  0  0  0  0  0  0  0  0  0
   -4.3807    2.3726    0.4553 C   0  0  0  0  0  0  0  0  0  0  0  0
   -3.5806    3.6542    0.1786 C   0  0  0  0  0  0  0  0  0  0  0  0
   -2.7426    3.3483   -1.0095 C   0  0  0  0  0  0  0  0  0  0  0  0
   -1.7990    2.1937   -0.8361 C   0  0  0  0  0  0  0  0  0  0  0  0
   -2.4104    0.9640   -0.2623 C   0  0  0  0  0  0  0  0  0  0  0  0
    2.1581   -2.7804   -0.9729 C   0  0  0  0  0  0  0  0  0  0  0  0
    2.3012   -1.5371   -0.4068 O   0  0  0  0  0  0  0  0  0  0  0  0
    1.8672   -0.5029   -1.1833 C   0  0  0  0  0  0  0  0  0  0  0  0
    2.9771    0.4508   -1.5764 C   0  0  0  0  0  0  0  0  0  0  0  0
    3.6593    0.9058   -0.3211 C   0  0  0  0  0  0  0  0  0  0  0  0
    4.9137    0.2245   -0.2229 N   0  0  0  0  0  0  0  0  0  0  0  0
    5.8983    0.4439    0.9361 S   0  0  0  0  0  0  0  0  0  0  0  0
    7.5496   -0.1128    0.1619 C   0  0  0  0  0  0  0  0  0  0  0  0
    5.7404   -0.3734    2.2247 O   0  0  0  0  0  0  0  0  0  0  0  0
    6.3391    2.0241    1.2281 O   0  0  0  0  0  0  0  0  0  0  0  0
    2.8235    0.7139    0.9119 C   0  0  0  0  0  0  0  0  0  0  0  0
    1.3674    0.9406    0.7144 C   0  0  0  0  0  0  0  0  0  0  0  0
    0.7857    0.3610   -0.5357 C   0  0  0  0  0  0  0  0  0  0  0  0
   -0.3514   -0.4538   -0.3672 N   0  0  0  0  0  0  0  0  0  0  0  0
   -1.4822   -0.0278    0.3250 C   0  0  0  0  0  0  0  0  0  0  0  0
   -2.3467   -1.2828    0.5659 C   0  0  0  0  0  0  0  0  0  0  0  0
   -2.3080   -2.2369   -0.5795 C   0  0  0  0  0  0  0  0  0  0  0  0
   -2.9731   -3.5229   -0.0697 C   0  0  0  0  0  0  0  0  0  0  0  0
   -4.4012   -3.2400    0.3254 C   0  0  0  0  0  0  0  0  0  0  0  0
   -4.4675   -2.1552    1.3723 C   0  0  0  0  0  0  0  0  0  0  0  0
   -3.8070   -0.9187    0.7440 C   0  0  0  0  0  0  0  0  0  0  0  0
   -3.9563    0.2500    1.5386 N   0  0  0  0  0  0  0  0  0  0  0  0
   -3.3675    1.3618    0.8726 C   0  0  0  0  0  0  0  0  0  0  0  0
   -4.3807    2.3726    0.4553 C   0  0  0  0  0  0  0  0  0  0  0  0
   -3.5806    3.6542    0.1786 C   0  0  0  0  0  0  0  0  0  0  0  0
   -2.7426    3.3483   -1.0095 C   0  0  0  0  0  0  0  0  0  0  0  0
   -1.7990    2.1937   -0.8361 C   0  0  0  0  0  0  0  0  0  0  0  0
   -2.4104    0.9640   -0.2623 C   0  0  0  0  0  0  0  0  0  0  0  0
    1.0961   -2.9785   -1.1934 H   0  0  0  0  0  0  0  0  0  0  0  0
    2.7520   -2.8536   -1.9169 H   0  0  0  0  0  0  0  0  0  0  0  0
    2.5115   -3.5835   -0.2850 H   0  0  0  0  0  0  0  0  0  0  0  0
    1.4622   -0.9271   -2.1408 H   0  0  0  0  0  0  0  0  0  0  0  0
    2.5488    1.2686   -2.1625 H   0  0  0  0  0  0  0  0  0  0  0  0
    3.6626   -0.1063   -2.2492 H   0  0  0  0  0  0  0  0  0  0  0  0
    3.8152    2.0179   -0.4311 H   0  0  0  0  0  0  0  0  0  0  0  0
    5.2833   -0.0767   -1.1521 H   0  0  0  0  0  0  0  0  0  0  0  0
    8.2030   -0.1988    1.0281 H   0  0  0  0  0  0  0  0  0  0  0  0
    7.7725    0.6907   -0.5388 H   0  0  0  0  0  0  0  0  0  0  0  0
    7.2697   -1.0765   -0.3054 H   0  0  0  0  0  0  0  0  0  0  0  0
    6.4953   -0.8312    2.6784 H   0  0  0  0  0  0  0  0  0  0  0  0
    6.5193    2.4549    0.3591 H   0  0  0  0  0  0  0  0  0  0  0  0
    2.9989   -0.2612    1.4204 H   0  0  0  0  0  0  0  0  0  0  0  0
    3.1769    1.4822    1.6632 H   0  0  0  0  0  0  0  0  0  0  0  0
    0.8516    0.5708    1.6397 H   0  0  0  0  0  0  0  0  0  0  0  0
    1.1917    2.0360    0.7099 H   0  0  0  0  0  0  0  0  0  0  0  0
    0.6770    1.1849   -1.3016 H   0  0  0  0  0  0  0  0  0  0  0  0
   -0.0040   -1.3303    0.1350 H   0  0  0  0  0  0  0  0  0  0  0  0
   -1.2481    0.3244    1.3759 H   0  0  0  0  0  0  0  0  0  0  0  0
   -2.0259   -1.7855    1.5182 H   0  0  0  0  0  0  0  0  0  0  0  0
   -2.9550   -1.8812   -1.4102 H   0  0  0  0  0  0  0  0  0  0  0  0
   -1.3268   -2.5167   -0.9371 H   0  0  0  0  0  0  0  0  0  0  0  0
   -2.4476   -3.8629    0.8715 H   0  0  0  0  0  0  0  0  0  0  0  0
   -2.9109   -4.3314   -0.7952 H   0  0  0  0  0  0  0  0  0  0  0  0
   -4.8529   -4.1806    0.6949 H   0  0  0  0  0  0  0  0  0  0  0  0
   -4.9147   -2.8636   -0.5876 H   0  0  0  0  0  0  0  0  0  0  0  0
   -5.5328   -1.8733    1.5192 H   0  0  0  0  0  0  0  0  0  0  0  0
   -3.9608   -2.4441    2.3032 H   0  0  0  0  0  0  0  0  0  0  0  0
   -4.3240   -0.8293   -0.2575 H   0  0  0  0  0  0  0  0  0  0  0  0
   -4.9830    0.4185    1.6917 H   0  0  0  0  0  0  0  0  0  0  0  0
   -2.6941    1.8708    1.6245 H   0  0  0  0  0  0  0  0  0  0  0  0
   -4.8456    2.0901   -0.5053 H   0  0  0  0  0  0  0  0  0  0  0  0
   -5.0947    2.5042    1.2621 H   0  0  0  0  0  0  0  0  0  0  0  0
   -4.2195    4.5075   -0.0340 H   0  0  0  0  0  0  0  0  0  0  0  0
   -2.9435    3.7874    1.0994 H   0  0  0  0  0  0  0  0  0  0  0  0
   -2.1182    4.2502   -1.2290 H   0  0  0  0  0  0  0  0  0  0  0  0
   -3.4148    3.2389   -1.8867 H   0  0  0  0  0  0  0  0  0  0  0  0
   -1.4964    1.9342   -1.8961 H   0  0  0  0  0  0  0  0  0  0  0  0
   -0.9409    2.5848   -0.2417 H   0  0  0  0  0  0  0  0  0  0  0  0
   -3.0395    0.5109   -1.0847 H   0  0  0  0  0  0  0  0  0  0  0  0
    1.0961   -2.9785   -1.1934 H   0  0  0  0  0  0  0  0  0  0  0  0
    2.7520   -2.8536   -1.9169 H   0  0  0  0  0  0  0  0  0  0  0  0
    2.5115   -3.5835   -0.2850 H   0  0  0  0  0  0  0  0  0  0  0  0
    1.4622   -0.9271   -2.1408 H   0  0  0  0  0  0  0  0  0  0  0  0
    2.5488    1.2686   -2.1625 H   0  0  0  0  0  0  0  0  0  0  0  0
    3.6626   -0.1063   -2.2492 H   0  0  0  0  0  0  0  0  0  0  0  0
    3.8152    2.0179   -0.4311 H   0  0  0  0  0  0  0  0  0  0  0  0
    5.2833   -0.0767   -1.1521 H   0  0  0  0  0  0  0  0  0  0  0  0
    8.2030   -0.1988    1.0281 H   0  0  0  0  0  0  0  0  0  0  0  0
    7.7725    0.6907   -0.5388 H   0  0  0  0  0  0  0  0  0  0  0  0
    7.2697   -1.0765   -0.3054 H   0  0  0  0  0  0  0  0  0  0  0  0
    6.4953   -0.8312    2.6784 H   0  0  0  0  0  0  0  0  0  0  0  0
    6.5193    2.4549    0.3591 H   0  0  0  0  0  0  0  0  0  0  0  0
    2.9989   -0.2612    1.4204 H   0  0  0  0  0  0  0  0  0  0  0  0
    3.1769    1.4822    1.6632 H   0  0  0  0  0  0  0  0  0  0  0  0
    0.8516    0.5708    1.6397 H   0  0  0  0  0  0  0  0  0  0  0  0
    1.1917    2.0360    0.7099 H   0  0  0  0  0  0  0  0  0  0  0  0
    0.6770    1.1849   -1.3016 H   0  0  0  0  0  0  0  0  0  0  0  0
   -0.0040   -1.3303    0.1350 H   0  0  0  0  0  0  0  0  0  0  0  0
   -1.2481    0.3244    1.3759 H   0  0  0  0  0  0  0  0  0  0  0  0
   -2.0259   -1.7855    1.5182 H   0  0  0  0  0  0  0  0  0  0  0  0
   -2.9550   -1.8812   -1.4102 H   0  0  0  0  0  0  0  0  0  0  0  0
   -1.3268   -2.5167   -0.9371 H   0  0  0  0  0  0  0  0  0  0  0  0
   -2.4476   -3.8629    0.8715 H   0  0  0  0  0  0  0  0  0  0  0  0
   -2.9109   -4.3314   -0.7952 H   0  0  0  0  0  0  0  0  0  0  0  0
   -4.8529   -4.1806    0.6949 H   0  0  0  0  0  0  0  0  0  0  0  0
   -4.9147   -2.8636   -0.5876 H   0  0  0  0  0  0  0  0  0  0  0  0
   -5.5328   -1.8733    1.5192 H   0  0  0  0  0  0  0  0  0  0  0  0
   -3.9608   -2.4441    2.3032 H   0  0  0  0  0  0  0  0  0  0  0  0
   -4.3240   -0.8293   -0.2575 H   0  0  0  0  0  0  0  0  0  0  0  0
   -4.9830    0.4185    1.6917 H   0  0  0  0  0  0  0  0  0  0  0  0
   -2.6941    1.8708    1.6245 H   0  0  0  0  0  0  0  0  0  0  0  0
   -4.8456    2.0901   -0.5053 H   0  0  0  0  0  0  0  0  0  0  0  0
   -5.0947    2.5042    1.2621 H   0  0  0  0  0  0  0  0  0  0  0  0
   -4.2195    4.5075   -0.0340 H   0  0  0  0  0  0  0  0  0  0  0  0
   -2.9435    3.7874    1.0994 H   0  0  0  0  0  0  0  0  0  0  0  0
   -2.1182    4.2502   -1.2290 H   0  0  0  0  0  0  0  0  0  0  0  0
   -3.4148    3.2389   -1.8867 H   0  0  0  0  0  0  0  0  0  0  0  0
   -1.4964    1.9342   -1.8961 H   0  0  0  0  0  0  0  0  0  0  0  0
   -0.9409    2.5848   -0.2417 H   0  0  0  0  0  0  0  0  0  0  0  0
   -3.0395    0.5109   -1.0847 H   0  0  0  0  0  0  0  0  0  0  0  0
  1  2  1  0
  2  3  1  0
  3  4  1  0
  4  5  1  0
  5  6  1  0
  6  7  1  0
  7  8  1  0
  7  9  1  0
  7 10  1  0
  5 11  1  0
 11 12  1  0
  3 13  1  0
 12 13  1  0
 13 14  1  0
 14 15  1  0
 15 16  1  0
 16 17  1  0
 17 18  1  0
 18 19  1  0
 19 20  1  0
 16 21  1  0
 20 21  1  0
 21 22  1  0
 22 23  1  0
 23 24  1  0
 24 25  1  0
 25 26  1  0
 26 27  1  0
 15 28  1  0
 23 28  1  0
 27 28  1  0
 29 30  1  0
 30 31  1  0
 31 32  1  0
 32 33  1  0
 33 34  1  0
 34 35  1  0
 35 36  1  0
 35 37  1  0
 35 38  1  0
 33 39  1  0
 39 40  1  0
 31 41  1  0
 40 41  1  0
 41 42  1  0
 42 43  1  0
 43 44  1  0
 44 45  1  0
 45 46  1  0
 46 47  1  0
 47 48  1  0
 44 49  1  0
 48 49  1  0
 49 50  1  0
 50 51  1  0
 51 52  1  0
 52 53  1  0
 53 54  1  0
 54 55  1  0
 43 56  1  0
 51 56  1  0
 55 56  1  0
  1 57  1  0
  1 58  1  0
  1 59  1  0
  3 60  1  0
  4 61  1  0
  4 62  1  0
  5 63  1  0
  6 64  1  0
  8 65  1  0
  8 66  1  0
  8 67  1  0
  9 68  1  0
 10 69  1  0
 11 70  1  0
 11 71  1  0
 12 72  1  0
 12 73  1  0
 13 74  1  0
 14 75  1  0
 15 76  1  0
 16 77  1  0
 17 78  1  0
 17 79  1  0
 18 80  1  0
 18 81  1  0
 19 82  1  0
 19 83  1  0
 20 84  1  0
 20 85  1  0
 21 86  1  0
 22 87  1  0
 23 88  1  0
 24 89  1  0
 24 90  1  0
 25 91  1  0
 25 92  1  0
 26 93  1  0
 26 94  1  0
 27 95  1  0
 27 96  1  0
 28 97  1  0
 29 98  1  0
 29 99  1  0
 29100  1  0
 31101  1  0
 32102  1  0
 32103  1  0
 33104  1  0
 34105  1  0
 36106  1  0
 36107  1  0
 36108  1  0
 37109  1  0
 38110  1  0
 39111  1  0
 39112  1  0
 40113  1  0
 40114  1  0
 41115  1  0
 42116  1  0
 43117  1  0
 44118  1  0
 45119  1  0
 45120  1  0
 46121  1  0
 46122  1  0
 47123  1  0
 47124  1  0
 48125  1  0
 48126  1  0
 49127  1  0
 50128  1  0
 51129  1  0
 52130  1  0
 52131  1  0
 53132  1  0
 53133  1  0
 54134  1  0
 54135  1  0
 55136  1  0
 55137  1  0
 56138  1  0
M  END
>  <PDBID>  (1) 
4G0U

>  <PDB ID>  (1) 
4G0U

>  <Generic Name>  (1) 
Amsacrine

>  <Brand Name>  (1) 
Amsa Pd Inj 50mg/ml#AMSA P-D#Amekrin#Amsidine#Amsidyl

>  <DrugBank ID>  (1) 
DB00276

>  <ATC Codes>  (1) 
L01XX01

>  <Ligand ID>  (1) 
ASW

>  <Target Name>  (1) 
DNA topoisomerase 2-alpha

>  <UniProt ID>  (1) 
P11388

>  <PDB ID.1>  (1) 
4G0U

>  <Seq. Identity>  (1) 
78%

$$$$
