PDB_DB08873_08
     RDKit          3D

 91 93  0  0  0  0  0  0  0  0999 V2000
    4.7310    0.3265    0.2943 C   0  0  0  0  0  0  0  0  0  0  0  0
    5.0758    1.6304   -0.0272 O   0  0  0  0  0  0  0  0  0  0  0  0
    4.9220    0.1047    1.7296 N   0  0  0  0  0  0  0  0  0  0  0  0
    6.2925    0.3165    2.1346 C   0  0  0  0  0  0  0  0  0  0  0  0
    6.3129    0.0978    3.6544 C   0  0  0  0  0  0  0  0  0  0  0  0
    6.7918    1.7133    1.8941 C   0  0  0  0  0  0  0  0  0  0  0  0
    7.2392   -0.7276    1.5650 C   0  0  0  0  0  0  0  0  0  0  0  0
    3.5458   -0.0788   -0.2264 N   0  0  0  0  0  0  0  0  0  0  0  0
    2.2203    0.2281    0.1127 C   0  0  1  0  0  0  0  0  0  0  0  0
    1.8982    1.6559   -0.1047 C   0  0  0  0  0  0  0  0  0  0  0  0
    2.1699    2.0491   -1.5456 C   0  0  0  0  0  0  0  0  0  0  0  0
    0.4006    1.9419    0.1785 C   0  0  0  0  0  0  0  0  0  0  0  0
    2.6098    2.5741    0.8168 C   0  0  0  0  0  0  0  0  0  0  0  0
    1.3808   -0.7547   -0.7065 C   0  0  1  0  0  0  0  0  0  0  0  0
    1.9337   -2.0077   -0.2567 O   0  0  0  0  0  0  0  0  0  0  0  0
    0.0065   -0.8523   -0.3752 N   0  0  0  0  0  0  0  0  0  0  0  0
   -0.2880   -1.3656    0.9410 C   0  0  0  0  0  0  0  0  0  0  0  0
   -0.7668   -1.6376   -1.2967 C   0  0  1  0  0  0  0  0  0  0  0  0
   -1.7524   -2.4699   -0.5711 C   0  0  2  0  0  0  0  0  0  0  0  0
   -1.4767   -2.2896    0.8499 C   0  0  1  0  0  0  0  0  0  0  0  0
   -1.4018   -3.6287    0.2928 C   0  0  0  0  0  0  0  0  0  0  0  0
   -0.1738   -4.3979   -0.0217 C   0  0  0  0  0  0  0  0  0  0  0  0
   -2.5755   -4.5521    0.6800 C   0  0  0  0  0  0  0  0  0  0  0  0
   -1.4366   -0.8509   -2.3941 C   0  0  0  0  0  0  0  0  0  0  0  0
   -0.2889   -0.3106   -3.1233 O   0  0  0  0  0  0  0  0  0  0  0  0
   -2.1628    0.2576   -2.0575 N   0  0  0  0  0  0  0  0  0  0  0  0
   -3.3392    0.3541   -1.2872 C   0  0  1  0  0  0  0  0  0  0  0  0
   -3.4200    1.7573   -0.7702 C   0  0  0  0  0  0  0  0  0  0  0  0
   -4.5392    2.1644    0.0834 C   0  0  0  0  0  0  0  0  0  0  0  0
   -5.9327    2.1000   -0.4642 C   0  0  0  0  0  0  0  0  0  0  0  0
   -4.6616    3.6753    0.1205 C   0  0  0  0  0  0  0  0  0  0  0  0
   -6.1205    3.5937   -0.2166 C   0  0  0  0  0  0  0  0  0  0  0  0
   -4.9513    0.0718   -3.0977 O   0  0  0  0  0  0  0  0  0  0  0  0
   -4.5324   -0.2643   -1.8555 C   0  0  0  0  0  0  0  0  0  0  0  0
   -6.7299   -0.9496   -1.0809 O   0  0  0  0  0  0  0  0  0  0  0  0
   -4.8302   -1.3849    0.2676 N   0  0  0  0  0  0  0  0  0  0  0  0
   -5.3544   -1.1925   -1.0658 C   0  0  0  0  0  0  0  0  0  0  0  0
    5.6315   -0.2670   -0.1496 H   0  0  0  0  0  0  0  0  0  0  0  0
    5.2461    1.6939   -0.9925 H   0  0  0  0  0  0  0  0  0  0  0  0
    4.6644   -0.8571    1.9941 H   0  0  0  0  0  0  0  0  0  0  0  0
    5.7379    0.9514    4.1063 H   0  0  0  0  0  0  0  0  0  0  0  0
    5.7722   -0.8339    3.9306 H   0  0  0  0  0  0  0  0  0  0  0  0
    7.3616    0.0856    3.9943 H   0  0  0  0  0  0  0  0  0  0  0  0
    7.2264    1.8325    0.8753 H   0  0  0  0  0  0  0  0  0  0  0  0
    5.9725    2.4573    1.9676 H   0  0  0  0  0  0  0  0  0  0  0  0
    7.5401    2.0214    2.6808 H   0  0  0  0  0  0  0  0  0  0  0  0
    7.7589   -0.3749    0.6481 H   0  0  0  0  0  0  0  0  0  0  0  0
    8.0528   -0.9486    2.3097 H   0  0  0  0  0  0  0  0  0  0  0  0
    6.7153   -1.6566    1.2889 H   0  0  0  0  0  0  0  0  0  0  0  0
    3.6742   -0.3846   -1.2346 H   0  0  0  0  0  0  0  0  0  0  0  0
    1.9721   -0.0707    1.1831 H   0  0  0  0  0  0  0  0  0  0  0  0
    2.8487    2.9335   -1.5950 H   0  0  0  0  0  0  0  0  0  0  0  0
    1.2408    2.3074   -2.0951 H   0  0  0  0  0  0  0  0  0  0  0  0
    2.7203    1.2140   -2.0169 H   0  0  0  0  0  0  0  0  0  0  0  0
   -0.1595    1.4256   -0.5967 H   0  0  0  0  0  0  0  0  0  0  0  0
    0.2188    3.0338    0.0615 H   0  0  0  0  0  0  0  0  0  0  0  0
    0.0915    1.6519    1.1667 H   0  0  0  0  0  0  0  0  0  0  0  0
    3.1827    3.3782    0.2985 H   0  0  0  0  0  0  0  0  0  0  0  0
    1.7962    3.1894    1.3734 H   0  0  0  0  0  0  0  0  0  0  0  0
    3.1115    2.0865    1.6493 H   0  0  0  0  0  0  0  0  0  0  0  0
    1.6015   -0.7289   -1.7788 H   0  0  0  0  0  0  0  0  0  0  0  0
    2.9122   -1.9274   -0.2315 H   0  0  0  0  0  0  0  0  0  0  0  0
   -0.5305   -0.5321    1.6063 H   0  0  0  0  0  0  0  0  0  0  0  0
    0.5367   -1.9298    1.4003 H   0  0  0  0  0  0  0  0  0  0  0  0
   -0.0197   -2.3622   -1.7468 H   0  0  0  0  0  0  0  0  0  0  0  0
   -2.7862   -2.5182   -0.9739 H   0  0  0  0  0  0  0  0  0  0  0  0
   -2.3207   -2.0361    1.5434 H   0  0  0  0  0  0  0  0  0  0  0  0
   -0.3203   -5.5140    0.0072 H   0  0  0  0  0  0  0  0  0  0  0  0
    0.3089   -4.1956   -0.9778 H   0  0  0  0  0  0  0  0  0  0  0  0
    0.5866   -4.2029    0.7777 H   0  0  0  0  0  0  0  0  0  0  0  0
   -2.2534   -5.1631    1.5526 H   0  0  0  0  0  0  0  0  0  0  0  0
   -2.7951   -5.2727   -0.1342 H   0  0  0  0  0  0  0  0  0  0  0  0
   -3.4931   -3.9737    0.8616 H   0  0  0  0  0  0  0  0  0  0  0  0
   -1.8628   -1.5337   -3.1658 H   0  0  0  0  0  0  0  0  0  0  0  0
   -0.6510    0.1140   -3.9404 H   0  0  0  0  0  0  0  0  0  0  0  0
   -1.9799    1.1395   -2.6259 H   0  0  0  0  0  0  0  0  0  0  0  0
   -3.1121   -0.2560   -0.3386 H   0  0  0  0  0  0  0  0  0  0  0  0
   -3.3923    2.4753   -1.6477 H   0  0  0  0  0  0  0  0  0  0  0  0
   -2.4700    2.0332   -0.2173 H   0  0  0  0  0  0  0  0  0  0  0  0
   -4.4711    1.8310    1.1641 H   0  0  0  0  0  0  0  0  0  0  0  0
   -6.0665    1.9207   -1.5373 H   0  0  0  0  0  0  0  0  0  0  0  0
   -6.6464    1.4823    0.1235 H   0  0  0  0  0  0  0  0  0  0  0  0
   -4.5517    4.1275    1.1420 H   0  0  0  0  0  0  0  0  0  0  0  0
   -4.0819    4.2010   -0.6651 H   0  0  0  0  0  0  0  0  0  0  0  0
   -6.3806    4.1894   -1.1223 H   0  0  0  0  0  0  0  0  0  0  0  0
   -6.8333    3.7591    0.6064 H   0  0  0  0  0  0  0  0  0  0  0  0
   -5.5527   -0.6068   -3.4638 H   0  0  0  0  0  0  0  0  0  0  0  0
   -7.1186   -1.1880   -0.1828 H   0  0  0  0  0  0  0  0  0  0  0  0
   -4.9572   -0.5762    0.9005 H   0  0  0  0  0  0  0  0  0  0  0  0
   -5.1939   -2.2809    0.6818 H   0  0  0  0  0  0  0  0  0  0  0  0
   -5.2780   -2.2407   -1.5358 H   0  0  0  0  0  0  0  0  0  0  0  0
  1  2  1  0
  1  3  1  0
  4  3  1  0
  4  5  1  0
  4  6  1  0
  4  7  1  0
  1  8  1  0
  8  9  1  0
  9 10  1  0
 10 11  1  0
 10 12  1  0
 10 13  1  0
  9 14  1  0
 14 15  1  0
 14 16  1  0
 16 17  1  0
 16 18  1  0
 18 19  1  0
 17 20  1  0
 19 20  1  0
 19 21  1  0
 20 21  1  0
 21 22  1  0
 21 23  1  0
 18 24  1  0
 24 25  1  0
 24 26  1  0
 26 27  1  0
 27 28  1  0
 28 29  1  0
 29 30  1  0
 29 31  1  0
 30 32  1  0
 31 32  1  0
 27 34  1  0
 34 33  1  0
 34 37  1  0
 35 37  1  0
 36 37  1  0
  1 38  1  0
  2 39  1  0
  3 40  1  0
  5 41  1  0
  5 42  1  0
  5 43  1  0
  6 44  1  0
  6 45  1  0
  6 46  1  0
  7 47  1  0
  7 48  1  0
  7 49  1  0
  8 50  1  0
  9 51  1  1
 11 52  1  0
 11 53  1  0
 11 54  1  0
 12 55  1  0
 12 56  1  0
 12 57  1  0
 13 58  1  0
 13 59  1  0
 13 60  1  0
 14 61  1  6
 15 62  1  0
 17 63  1  0
 17 64  1  0
 18 65  1  6
 19 66  1  1
 20 67  1  1
 22 68  1  0
 22 69  1  0
 22 70  1  0
 23 71  1  0
 23 72  1  0
 23 73  1  0
 24 74  1  0
 25 75  1  0
 26 76  1  0
 27 77  1  1
 28 78  1  0
 28 79  1  0
 29 80  1  0
 30 81  1  0
 30 82  1  0
 31 83  1  0
 31 84  1  0
 32 85  1  0
 32 86  1  0
 33 87  1  0
 35 88  1  0
 36 89  1  0
 36 90  1  0
 37 91  1  0
M  END
>  <PDBID>  (1) 
2OC8

>  <PDB ID>  (1) 
2OC8

>  <Generic Name>  (1) 
Boceprevir

>  <Brand Name>  (1) 
Victrelis#Victrelis Triple

>  <DrugBank ID>  (1) 
DB08873

>  <ATC Codes>  (1) 
J05AE12

>  <Ligand ID>  (1) 
HU5

>  <Target Name>  (1) 
Genome polyprotein

>  <UniProt ID>  (1) 
B0B3C9

>  <PDB ID.1>  (1) 
2OC8

>  <Seq. Identity>  (1) 
69%

$$$$
