PDB_DB00537_07
     RDKit          3D

108114  0  0  0  0  0  0  0  0999 V2000
   -5.5440   -0.3618   -0.2352 O   0  0  0  0  0  0  0  0  0  0  0  0
   -4.3616   -1.0786   -0.2215 C   0  0  0  0  0  0  0  0  0  0  0  0
   -4.5456   -2.3785    0.2933 O   0  0  0  0  0  0  0  0  0  0  0  0
   -3.2939   -0.4452    0.6234 C   0  0  0  0  0  0  0  0  0  0  0  0
   -2.9084    0.9490    0.1709 C   0  0  0  0  0  0  0  0  0  0  0  0
   -1.5308    1.1375    0.4829 N   0  0  0  0  0  0  0  0  0  0  0  0
   -0.6800    0.4375   -0.4619 C   0  0  0  0  0  0  0  0  0  0  0  0
    0.6885    0.4157    0.1054 C   0  0  0  0  0  0  0  0  0  0  0  0
    1.4409   -0.8790   -0.0271 C   0  0  0  0  0  0  0  0  0  0  0  0
    2.8114   -0.6135    0.1008 N   0  0  0  0  0  0  0  0  0  0  0  0
    3.4240    0.2182   -0.8645 C   0  0  0  0  0  0  0  0  0  0  0  0
    4.8867   -0.1473   -1.0369 C   0  0  0  0  0  0  0  0  0  0  0  0
    5.5454   -0.3283    0.2379 N   0  0  0  0  0  0  0  0  0  0  0  0
    4.7217    0.0258    1.3516 C   0  0  0  0  0  0  0  0  0  0  0  0
    3.4670   -0.8221    1.3127 C   0  0  0  0  0  0  0  0  0  0  0  0
    1.0487   -1.5158   -1.3441 C   0  0  0  0  0  0  0  0  0  0  0  0
    1.8232   -2.6490   -1.5009 F   0  0  0  0  0  0  0  0  0  0  0  0
   -0.3826   -1.9572   -1.2175 C   0  0  0  0  0  0  0  0  0  0  0  0
   -1.3057   -0.9134   -0.6968 C   0  0  0  0  0  0  0  0  0  0  0  0
   -2.0445   -1.3114    0.5420 C   0  0  0  0  0  0  0  0  0  0  0  0
   -2.3410   -2.6537    0.5734 O   0  0  0  0  0  0  0  0  0  0  0  0
   -1.0827    2.4503    0.7201 C   0  0  0  0  0  0  0  0  0  0  0  0
   -1.1620    3.4788   -0.3855 C   0  0  0  0  0  0  0  0  0  0  0  0
   -1.9587    3.6240    0.8921 C   0  0  0  0  0  0  0  0  0  0  0  0
   -3.1065    0.9735   -0.9414 H   0  0  0  0  0  0  0  0  0  0  0  0
    0.7240    0.6586    1.2088 H   0  0  0  0  0  0  0  0  0  0  0  0
    3.3984    1.2717   -0.5200 H   0  0  0  0  0  0  0  0  0  0  0  0
    2.9331    0.1793   -1.8389 H   0  0  0  0  0  0  0  0  0  0  0  0
    5.3816    0.6898   -1.5570 H   0  0  0  0  0  0  0  0  0  0  0  0
    4.9378   -1.0665   -1.6590 H   0  0  0  0  0  0  0  0  0  0  0  0
    5.8301   -1.3144    0.3278 H   0  0  0  0  0  0  0  0  0  0  0  0
    4.4149    1.0935    1.2360 H   0  0  0  0  0  0  0  0  0  0  0  0
    5.3057   -0.1342    2.2762 H   0  0  0  0  0  0  0  0  0  0  0  0
    3.7916   -1.8842    1.4349 H   0  0  0  0  0  0  0  0  0  0  0  0
    2.8249   -0.5699    2.2070 H   0  0  0  0  0  0  0  0  0  0  0  0
   -0.3853   -2.7962   -0.4616 H   0  0  0  0  0  0  0  0  0  0  0  0
   -0.0993    2.4992    1.2693 H   0  0  0  0  0  0  0  0  0  0  0  0
   -1.7611    3.2546   -1.2871 H   0  0  0  0  0  0  0  0  0  0  0  0
   -0.2973    4.1574   -0.5655 H   0  0  0  0  0  0  0  0  0  0  0  0
   -3.0453    3.6171    0.8255 H   0  0  0  0  0  0  0  0  0  0  0  0
   -1.5838    4.4296    1.5822 H   0  0  0  0  0  0  0  0  0  0  0  0
   -5.5440   -0.3618   -0.2352 O   0  0  0  0  0  0  0  0  0  0  0  0
   -4.3616   -1.0786   -0.2215 C   0  0  0  0  0  0  0  0  0  0  0  0
   -4.5456   -2.3786    0.2933 O   0  0  0  0  0  0  0  0  0  0  0  0
   -3.2939   -0.4452    0.6234 C   0  0  0  0  0  0  0  0  0  0  0  0
   -2.9084    0.9490    0.1709 C   0  0  0  0  0  0  0  0  0  0  0  0
   -1.5308    1.1375    0.4829 N   0  0  0  0  0  0  0  0  0  0  0  0
   -0.6800    0.4375   -0.4619 C   0  0  0  0  0  0  0  0  0  0  0  0
    0.6884    0.4157    0.1054 C   0  0  0  0  0  0  0  0  0  0  0  0
    1.4409   -0.8790   -0.0271 C   0  0  0  0  0  0  0  0  0  0  0  0
    2.8114   -0.6135    0.1008 N   0  0  0  0  0  0  0  0  0  0  0  0
    3.4240    0.2182   -0.8645 C   0  0  0  0  0  0  0  0  0  0  0  0
    4.8867   -0.1473   -1.0369 C   0  0  0  0  0  0  0  0  0  0  0  0
    5.5453   -0.3283    0.2379 N   0  0  0  0  0  0  0  0  0  0  0  0
    4.7217    0.0258    1.3517 C   0  0  0  0  0  0  0  0  0  0  0  0
    3.4670   -0.8221    1.3127 C   0  0  0  0  0  0  0  0  0  0  0  0
    1.0487   -1.5159   -1.3441 C   0  0  0  0  0  0  0  0  0  0  0  0
    1.8232   -2.6490   -1.5009 F   0  0  0  0  0  0  0  0  0  0  0  0
   -0.3826   -1.9572   -1.2175 C   0  0  0  0  0  0  0  0  0  0  0  0
   -1.3057   -0.9134   -0.6968 C   0  0  0  0  0  0  0  0  0  0  0  0
   -2.0445   -1.3114    0.5420 C   0  0  0  0  0  0  0  0  0  0  0  0
   -2.3410   -2.6537    0.5734 O   0  0  0  0  0  0  0  0  0  0  0  0
   -1.0827    2.4503    0.7201 C   0  0  0  0  0  0  0  0  0  0  0  0
   -1.1620    3.4788   -0.3855 C   0  0  0  0  0  0  0  0  0  0  0  0
   -1.9587    3.6240    0.8921 C   0  0  0  0  0  0  0  0  0  0  0  0
   -3.1065    0.9735   -0.9414 H   0  0  0  0  0  0  0  0  0  0  0  0
    0.7240    0.6586    1.2089 H   0  0  0  0  0  0  0  0  0  0  0  0
    3.3984    1.2718   -0.5199 H   0  0  0  0  0  0  0  0  0  0  0  0
    2.9331    0.1794   -1.8389 H   0  0  0  0  0  0  0  0  0  0  0  0
    5.3816    0.6898   -1.5570 H   0  0  0  0  0  0  0  0  0  0  0  0
    4.9378   -1.0665   -1.6590 H   0  0  0  0  0  0  0  0  0  0  0  0
    5.8301   -1.3144    0.3278 H   0  0  0  0  0  0  0  0  0  0  0  0
    4.4149    1.0935    1.2360 H   0  0  0  0  0  0  0  0  0  0  0  0
    5.3057   -0.1342    2.2762 H   0  0  0  0  0  0  0  0  0  0  0  0
    3.7916   -1.8843    1.4349 H   0  0  0  0  0  0  0  0  0  0  0  0
    2.8249   -0.5699    2.2070 H   0  0  0  0  0  0  0  0  0  0  0  0
   -0.3853   -2.7962   -0.4616 H   0  0  0  0  0  0  0  0  0  0  0  0
   -0.0993    2.4992    1.2693 H   0  0  0  0  0  0  0  0  0  0  0  0
   -1.7611    3.2546   -1.2871 H   0  0  0  0  0  0  0  0  0  0  0  0
   -0.2973    4.1574   -0.5655 H   0  0  0  0  0  0  0  0  0  0  0  0
   -3.0452    3.6171    0.8255 H   0  0  0  0  0  0  0  0  0  0  0  0
   -1.5838    4.4296    1.5822 H   0  0  0  0  0  0  0  0  0  0  0  0
   -5.8462   -0.1599   -1.1720 H   0  0  0  0  0  0  0  0  0  0  0  0
   -4.0400   -1.2321   -1.2700 H   0  0  0  0  0  0  0  0  0  0  0  0
   -4.9803   -2.3631    1.1821 H   0  0  0  0  0  0  0  0  0  0  0  0
   -3.6444   -0.3582    1.6870 H   0  0  0  0  0  0  0  0  0  0  0  0
   -3.5741    1.6704    0.6384 H   0  0  0  0  0  0  0  0  0  0  0  0
   -0.6899    1.0097   -1.4289 H   0  0  0  0  0  0  0  0  0  0  0  0
    1.2770    1.2523   -0.3739 H   0  0  0  0  0  0  0  0  0  0  0  0
    1.0931   -1.5633    0.7746 H   0  0  0  0  0  0  0  0  0  0  0  0
    1.1456   -0.8225   -2.1945 H   0  0  0  0  0  0  0  0  0  0  0  0
   -0.7021   -2.4169   -2.1792 H   0  0  0  0  0  0  0  0  0  0  0  0
   -2.0834   -0.7552   -1.5012 H   0  0  0  0  0  0  0  0  0  0  0  0
   -1.3766   -1.0246    1.4081 H   0  0  0  0  0  0  0  0  0  0  0  0
   -2.5582   -2.9776    1.4777 H   0  0  0  0  0  0  0  0  0  0  0  0
   -5.8462   -0.1599   -1.1720 H   0  0  0  0  0  0  0  0  0  0  0  0
   -4.0400   -1.2321   -1.2700 H   0  0  0  0  0  0  0  0  0  0  0  0
   -4.9803   -2.3631    1.1821 H   0  0  0  0  0  0  0  0  0  0  0  0
   -3.6444   -0.3582    1.6870 H   0  0  0  0  0  0  0  0  0  0  0  0
   -3.5741    1.6704    0.6384 H   0  0  0  0  0  0  0  0  0  0  0  0
   -0.6899    1.0097   -1.4289 H   0  0  0  0  0  0  0  0  0  0  0  0
    1.2770    1.2523   -0.3739 H   0  0  0  0  0  0  0  0  0  0  0  0
    1.0931   -1.5633    0.7746 H   0  0  0  0  0  0  0  0  0  0  0  0
    1.1456   -0.8225   -2.1945 H   0  0  0  0  0  0  0  0  0  0  0  0
   -0.7022   -2.4169   -2.1792 H   0  0  0  0  0  0  0  0  0  0  0  0
   -2.0834   -0.7552   -1.5012 H   0  0  0  0  0  0  0  0  0  0  0  0
   -1.3766   -1.0246    1.4081 H   0  0  0  0  0  0  0  0  0  0  0  0
   -2.5581   -2.9776    1.4777 H   0  0  0  0  0  0  0  0  0  0  0  0
  1  2  1  0
  2  3  1  0
  2  4  1  0
  4  5  1  0
  5  6  1  0
  6  7  1  0
  7  8  1  0
  8  9  1  0
  9 10  1  0
 10 11  1  0
 11 12  1  0
 12 13  1  0
 13 14  1  0
 10 15  1  0
 14 15  1  0
  9 16  1  0
 16 17  1  0
 16 18  1  0
  7 19  1  0
 18 19  1  0
  4 20  1  0
 19 20  1  0
 20 21  1  0
  6 22  1  0
 22 23  1  0
 22 24  1  0
 23 24  1  0
  5 25  1  0
  8 26  1  0
 11 27  1  0
 11 28  1  0
 12 29  1  0
 12 30  1  0
 13 31  1  0
 14 32  1  0
 14 33  1  0
 15 34  1  0
 15 35  1  0
 18 36  1  0
 22 37  1  0
 23 38  1  0
 23 39  1  0
 24 40  1  0
 24 41  1  0
 43 42  1  0
 43 44  1  0
 43 45  1  0
 45 46  1  0
 46 47  1  0
 47 48  1  0
 48 49  1  0
 49 50  1  0
 50 51  1  0
 51 52  1  0
 52 53  1  0
 53 54  1  0
 54 55  1  0
 51 56  1  0
 55 56  1  0
 50 57  1  0
 57 58  1  0
 57 59  1  0
 48 60  1  0
 59 60  1  0
 45 61  1  0
 60 61  1  0
 61 62  1  0
 47 63  1  0
 63 64  1  0
 63 65  1  0
 64 65  1  0
 46 66  1  0
 49 67  1  0
 52 68  1  0
 52 69  1  0
 53 70  1  0
 53 71  1  0
 54 72  1  0
 55 73  1  0
 55 74  1  0
 56 75  1  0
 56 76  1  0
 59 77  1  0
 63 78  1  0
 64 79  1  0
 64 80  1  0
 65 81  1  0
 65 82  1  0
  1 83  1  0
  2 84  1  0
  3 85  1  0
  4 86  1  0
  5 87  1  0
  7 88  1  0
  8 89  1  0
  9 90  1  0
 16 91  1  0
 18 92  1  0
 19 93  1  0
 20 94  1  0
 21 95  1  0
 42 96  1  0
 43 97  1  0
 44 98  1  0
 45 99  1  0
 46100  1  0
 48101  1  0
 49102  1  0
 50103  1  0
 57104  1  0
 59105  1  0
 60106  1  0
 61107  1  0
 62108  1  0
M  END
>  <PDBID>  (1) 
5BTC

>  <PDB ID>  (1) 
5BTC

>  <Generic Name>  (1) 
Ciprofloxacin

>  <Brand Name>  (1) 
Act Ciprofloxacin#Apo-ciproflox#Auro-ciprofloxacin#Bio-ciprofloxacin#Ciloxan#Cipro#Cipro 100 - Tab 100mg#Cipro 250 - Tab 250mg#Cipro 500 - Tab 500mg#Cipro 750 - Tab 750mg#Cipro HC#Cipro HC Otic Suspension#Cipro I.V. - Liq 10mg/ml#Cipro I.V. Minibags 2mg/ml#Cipro IV 10mg/ml#Cipro Oral Suspension 10%#Cipro Tab 100mg#Cipro Tab 250mg#Cipro Tab 500mg#Cipro Tab 750mg#Cipro XL#Ciprodex#Ciprofloxacin#Ciprofloxacin Extended-release#Ciprofloxacin Hydrochloride#Ciprofloxacin Injection#Ciprofloxacin Injection USP#Ciprofloxacin Injection, USP#Ciprofloxacin Intravenous Infusion#Ciprofloxacin Intravenous Infusion BP#Ciprofloxacin Intravenous Infusion, BP#Ciprofloxacin Omega#Ciprofloxacin Otic#Ciprofloxacin Tablets#Ciprofloxacin Tablets USP - 100 mg#Ciprofloxacin Tablets USP - 250 mg#Ciprofloxacin Tablets USP - 500 mg#Ciprofloxacin Tablets USP - 750 mg#Ciprofloxacin-250#Ciprofloxacin-500#Ciprofloxacin-750#Dom-ciprofloxacin#Ipg-ciprofloxacin#Jamp-ciprofloxacin#Mar-ciprofloxacin#Mint-ciproflox#Mint-ciprofloxacin#Mylan-ciprofloxacin#Mylan-ciprofloxacin XL#Nu-ciproflox#Nu-ciprofloxacin Tablets#Otiprio#Otixal#Otovel#PHL-ciprofloxacin#PMS-ciprofloxacin#PMS-ciprofloxacin 0.3%#PMS-ciprofloxacin XL#Priva-ciprofloxacin#Pro-ciprofloxacin#Proquin XR#Q-ciprofloxacin#Ran-ciproflox#Ran-ciprofloxacin#Ratio-ciprofloxacin#Riva-ciprofloxacin#Sandoz Ciprofloxacin#Septa-ciprofloxacin#Taro-ciprofloxacin#Teva-ciprofloxacin#Van-ciprofloxacin#Bacquinor#Baycip#Ciflox#Cifloxin#Ciprinol#Ciprobay#Ciprocinol#Ciprodar#Ciproxan#Ciproxin#Flociprin#Proquin

>  <DrugBank ID>  (1) 
DB00537

>  <ATC Codes>  (1) 
J01MA02#J01RA11#J01RA12#S02AA15#S03AA07#S01AE03#J01RA10

>  <Ligand ID>  (1) 
CPF

>  <Target Name>  (1) 
DNA gyrase subunit A

>  <UniProt ID>  (1) 
P43700

>  <PDB ID.1>  (1) 
5BTC

>  <Seq. Identity>  (1) 
48%

$$$$
