PDB_DB08901_01
     RDKit          3D

184192  0  0  0  0  0  0  0  0999 V2000
   -8.5384    1.7603    1.4821 N   0  0  0  0  0  0  0  0  0  0  0  0
    7.1944   -0.2970   -0.2004 N   0  0  0  0  0  0  0  0  0  0  0  0
   -4.8547   -0.4283    0.6236 C   0  0  0  0  0  0  0  0  0  0  0  0
   -3.5152   -1.0732    0.8843 C   0  0  0  0  0  0  0  0  0  0  0  0
   -3.3838   -2.3498    0.0894 C   0  0  0  0  0  0  0  0  0  0  0  0
   -2.2710   -3.1322    0.8024 C   0  0  0  0  0  0  0  0  0  0  0  0
   -1.0045   -2.3467    0.8054 C   0  0  0  0  0  0  0  0  0  0  0  0
   -2.3366   -0.2188    0.4487 C   0  0  0  0  0  0  0  0  0  0  0  0
    1.9807   -0.9421   -0.9209 C   0  0  0  0  0  0  0  0  0  0  0  0
    3.9803   -2.2190   -0.4248 C   0  0  0  0  0  0  0  0  0  0  0  0
    4.2267    0.0109   -1.2848 C   0  0  0  0  0  0  0  0  0  0  0  0
    6.1900   -1.2765   -0.3263 C   0  0  0  0  0  0  0  0  0  0  0  0
    7.3583    0.3298    1.0563 C   0  0  0  0  0  0  0  0  0  0  0  0
    8.8372    0.4947    1.3411 C   0  0  0  0  0  0  0  0  0  0  0  0
    8.4290   -0.6384   -0.8728 C   0  0  0  0  0  0  0  0  0  0  0  0
   -8.9991    2.7946   -0.6909 C   0  0  0  0  0  0  0  0  0  0  0  0
   -8.7866    1.7507   -1.7772 C   0  0  0  0  0  0  0  0  0  0  0  0
   -7.3563    1.6978   -2.1852 C   0  0  0  0  0  0  0  0  0  0  0  0
   -6.5127    1.4802   -1.0346 N   0  0  0  0  0  0  0  0  0  0  0  0
   -6.7179    2.1704    0.0808 N   0  0  0  0  0  0  0  0  0  0  0  0
   -8.0214    2.6331    0.4208 C   0  0  0  0  0  0  0  0  0  0  0  0
   -7.5270    0.7239    1.6202 C   0  0  0  0  0  0  0  0  0  0  0  0
   -6.2847    1.5802    1.2877 C   0  0  0  0  0  0  0  0  0  0  0  0
   -5.0501    0.8171    1.3958 C   0  0  0  0  0  0  0  0  0  0  0  0
   -1.1198   -0.8823    0.9984 C   0  0  0  0  0  0  0  0  0  0  0  0
   -4.6288   -3.1891    0.0722 C   0  0  0  0  0  0  0  0  0  0  0  0
    0.1792   -0.2480    0.5000 C   0  0  0  0  0  0  0  0  0  0  0  0
    0.1016    1.1251    0.6179 O   0  0  0  0  0  0  0  0  0  0  0  0
    0.5576   -0.7469   -0.7784 N   0  0  0  0  0  0  0  0  0  0  0  0
    2.5757   -1.9112    0.0430 C   0  0  0  0  0  0  0  0  0  0  0  0
    4.7714   -0.8936   -0.2448 C   0  0  0  0  0  0  0  0  0  0  0  0
    2.7638    0.3200   -0.9152 C   0  0  0  0  0  0  0  0  0  0  0  0
    4.8657    1.3341   -1.4784 C   0  0  0  0  0  0  0  0  0  0  0  0
    4.7720    2.0380   -0.2692 F   0  0  0  0  0  0  0  0  0  0  0  0
    4.0309    2.0579   -2.3399 F   0  0  0  0  0  0  0  0  0  0  0  0
    6.1501    1.3605   -1.8864 F   0  0  0  0  0  0  0  0  0  0  0  0
    9.4045    0.4831   -0.9875 C   0  0  0  0  0  0  0  0  0  0  0  0
    8.9938    2.5444    0.0631 C   0  0  0  0  0  0  0  0  0  0  0  0
    9.4704    1.2012    0.2720 N   0  0  0  0  0  0  0  0  0  0  0  0
   -6.5756    1.9426    0.7100 N   0  0  0  0  0  0  0  0  0  0  0  0
    5.5218    1.3819   -0.2649 N   0  0  0  0  0  0  0  0  0  0  0  0
   -3.7849   -0.8608   -0.8486 C   0  0  0  0  0  0  0  0  0  0  0  0
   -3.0558   -2.1413   -1.2703 C   0  0  0  0  0  0  0  0  0  0  0  0
   -3.8220   -3.3795   -1.0996 C   0  0  0  0  0  0  0  0  0  0  0  0
   -3.1947   -4.2779   -0.0179 C   0  0  0  0  0  0  0  0  0  0  0  0
   -1.7772   -4.6020   -0.4780 C   0  0  0  0  0  0  0  0  0  0  0  0
   -1.6839   -2.1419   -0.7505 C   0  0  0  0  0  0  0  0  0  0  0  0
    1.2579   -1.4777    0.5181 C   0  0  0  0  0  0  0  0  0  0  0  0
    3.5929   -1.8256   -0.0354 C   0  0  0  0  0  0  0  0  0  0  0  0
    2.6929    0.4947    0.2182 C   0  0  0  0  0  0  0  0  0  0  0  0
    5.0757    0.0404   -0.4576 C   0  0  0  0  0  0  0  0  0  0  0  0
    6.0695    1.6752    1.0217 C   0  0  0  0  0  0  0  0  0  0  0  0
    7.4652    2.2265    1.0118 C   0  0  0  0  0  0  0  0  0  0  0  0
    6.5255    1.6532   -1.2752 C   0  0  0  0  0  0  0  0  0  0  0  0
   -5.1729    3.9571    0.6931 C   0  0  0  0  0  0  0  0  0  0  0  0
   -4.8536    4.0023   -0.7817 C   0  0  0  0  0  0  0  0  0  0  0  0
   -4.3097    2.6932   -1.2413 C   0  0  0  0  0  0  0  0  0  0  0  0
   -3.6061    1.9708   -0.2144 N   0  0  0  0  0  0  0  0  0  0  0  0
   -4.3142    1.6622    0.8909 N   0  0  0  0  0  0  0  0  0  0  0  0
   -5.3945    2.5668    1.2071 C   0  0  0  0  0  0  0  0  0  0  0  0
   -6.2928    0.5482    0.4455 C   0  0  0  0  0  0  0  0  0  0  0  0
   -4.9162    0.3939    1.0167 C   0  0  0  0  0  0  0  0  0  0  0  0
   -4.1633   -0.8090    0.5563 C   0  0  0  0  0  0  0  0  0  0  0  0
   -0.9361   -3.3578   -0.4027 C   0  0  0  0  0  0  0  0  0  0  0  0
   -5.2752   -3.2678   -0.8018 C   0  0  0  0  0  0  0  0  0  0  0  0
   -0.3958   -3.2184    1.0500 C   0  0  1  0  0  0  0  0  0  0  0  0
    0.3599   -4.3109    1.3887 O   0  0  0  0  0  0  0  0  0  0  0  0
    0.1332   -1.9443    1.2166 N   0  0  0  0  0  0  0  0  0  0  0  0
    2.4843   -2.2758    0.9000 C   0  0  0  0  0  0  0  0  0  0  0  0
    3.8862   -0.3838    0.3142 C   0  0  0  0  0  0  0  0  0  0  0  0
    1.5228   -0.0386    0.9528 C   0  0  0  0  0  0  0  0  0  0  0  0
    2.3546    0.9922   -1.1598 C   0  0  0  0  0  0  0  0  0  0  0  0
    3.3818    1.7538   -1.7128 F   0  0  0  0  0  0  0  0  0  0  0  0
    1.2626    1.8289   -1.0721 F   0  0  0  0  0  0  0  0  0  0  0  0
    2.0493    0.0003   -2.0620 F   0  0  0  0  0  0  0  0  0  0  0  0
    6.9098    3.1119   -1.1456 C   0  0  0  0  0  0  0  0  0  0  0  0
    7.5264    4.6133    0.6243 C   0  0  0  0  0  0  0  0  0  0  0  0
    7.6684    3.3006    0.0782 N   0  0  0  0  0  0  0  0  0  0  0  0
   -9.4645    1.3813    1.1991 H   0  0  0  0  0  0  0  0  0  0  0  0
   -4.9069   -0.2425   -0.4542 H   0  0  0  0  0  0  0  0  0  0  0  0
   -5.6052   -1.2173    0.8472 H   0  0  0  0  0  0  0  0  0  0  0  0
   -3.4203   -1.2899    1.9436 H   0  0  0  0  0  0  0  0  0  0  0  0
   -3.0537   -2.1715   -0.9507 H   0  0  0  0  0  0  0  0  0  0  0  0
   -2.5968   -3.2912    1.8433 H   0  0  0  0  0  0  0  0  0  0  0  0
   -2.1061   -4.0598    0.2455 H   0  0  0  0  0  0  0  0  0  0  0  0
   -0.3681   -2.7414    1.6530 H   0  0  0  0  0  0  0  0  0  0  0  0
   -0.3768   -2.5467   -0.1018 H   0  0  0  0  0  0  0  0  0  0  0  0
   -2.3288   -0.0919   -0.6406 H   0  0  0  0  0  0  0  0  0  0  0  0
   -2.3706    0.7997    0.8790 H   0  0  0  0  0  0  0  0  0  0  0  0
    2.1279   -1.3952   -1.9476 H   0  0  0  0  0  0  0  0  0  0  0  0
    3.9282   -2.3779   -1.5236 H   0  0  0  0  0  0  0  0  0  0  0  0
    4.4534   -3.0257    0.1331 H   0  0  0  0  0  0  0  0  0  0  0  0
    4.2473   -0.5352   -2.2533 H   0  0  0  0  0  0  0  0  0  0  0  0
    6.3615   -1.8281   -1.3069 H   0  0  0  0  0  0  0  0  0  0  0  0
    6.4458   -2.0866    0.4280 H   0  0  0  0  0  0  0  0  0  0  0  0
    6.9250    1.3481    1.1601 H   0  0  0  0  0  0  0  0  0  0  0  0
    6.9765   -0.3574    1.8642 H   0  0  0  0  0  0  0  0  0  0  0  0
    9.3483   -0.4907    1.4243 H   0  0  0  0  0  0  0  0  0  0  0  0
    8.9160    1.0926    2.2606 H   0  0  0  0  0  0  0  0  0  0  0  0
    8.8933   -1.4863   -0.2979 H   0  0  0  0  0  0  0  0  0  0  0  0
    8.1871   -1.0683   -1.8633 H   0  0  0  0  0  0  0  0  0  0  0  0
  -10.0304    2.6238   -0.2892 H   0  0  0  0  0  0  0  0  0  0  0  0
   -8.9893    3.8233   -1.0906 H   0  0  0  0  0  0  0  0  0  0  0  0
   -9.2161    0.7818   -1.5159 H   0  0  0  0  0  0  0  0  0  0  0  0
   -9.3744    2.1381   -2.6595 H   0  0  0  0  0  0  0  0  0  0  0  0
   -7.2286    0.8110   -2.8573 H   0  0  0  0  0  0  0  0  0  0  0  0
   -7.0649    2.6090   -2.7585 H   0  0  0  0  0  0  0  0  0  0  0  0
   -5.5250    1.6967   -1.4154 H   0  0  0  0  0  0  0  0  0  0  0  0
   -7.8802    3.6600    0.8784 H   0  0  0  0  0  0  0  0  0  0  0  0
   -7.7237    0.0047    0.7928 H   0  0  0  0  0  0  0  0  0  0  0  0
   -7.4830    0.2781    2.6082 H   0  0  0  0  0  0  0  0  0  0  0  0
   -6.3354    2.3890    2.0790 H   0  0  0  0  0  0  0  0  0  0  0  0
   -4.9516    0.5098    2.4936 H   0  0  0  0  0  0  0  0  0  0  0  0
   -4.1634    1.5224    1.2955 H   0  0  0  0  0  0  0  0  0  0  0  0
   -1.1297   -0.6550    2.1142 H   0  0  0  0  0  0  0  0  0  0  0  0
   -5.2931   -2.7443   -0.7106 H   0  0  0  0  0  0  0  0  0  0  0  0
   -5.1194   -3.1869    1.0686 H   0  0  0  0  0  0  0  0  0  0  0  0
   -4.4015   -4.2330   -0.2171 H   0  0  0  0  0  0  0  0  0  0  0  0
    0.9251   -0.5499    1.2958 H   0  0  0  0  0  0  0  0  0  0  0  0
    0.0830    1.3334    1.5830 H   0  0  0  0  0  0  0  0  0  0  0  0
    0.2523   -0.0950   -1.5256 H   0  0  0  0  0  0  0  0  0  0  0  0
    1.9809   -2.8305    0.2115 H   0  0  0  0  0  0  0  0  0  0  0  0
    2.7413   -1.3529    1.0179 H   0  0  0  0  0  0  0  0  0  0  0  0
    4.4514   -0.5612    0.7825 H   0  0  0  0  0  0  0  0  0  0  0  0
    2.3645    1.0994   -1.5991 H   0  0  0  0  0  0  0  0  0  0  0  0
    2.7837    0.7242    0.1138 H   0  0  0  0  0  0  0  0  0  0  0  0
   10.4008    0.0336   -1.2179 H   0  0  0  0  0  0  0  0  0  0  0  0
    9.1095    1.1210   -1.8397 H   0  0  0  0  0  0  0  0  0  0  0  0
    9.4729    2.9569   -0.8635 H   0  0  0  0  0  0  0  0  0  0  0  0
    9.2967    3.2296    0.8707 H   0  0  0  0  0  0  0  0  0  0  0  0
    7.9098    2.6299   -0.0774 H   0  0  0  0  0  0  0  0  0  0  0  0
   -7.0063    2.4267   -0.1047 H   0  0  0  0  0  0  0  0  0  0  0  0
   -3.0091   -0.0585   -1.0431 H   0  0  0  0  0  0  0  0  0  0  0  0
   -4.5624   -0.6903   -1.5965 H   0  0  0  0  0  0  0  0  0  0  0  0
   -2.9283   -2.0376   -2.4265 H   0  0  0  0  0  0  0  0  0  0  0  0
   -3.7272   -4.0426   -2.0370 H   0  0  0  0  0  0  0  0  0  0  0  0
   -3.7468   -5.2134    0.0686 H   0  0  0  0  0  0  0  0  0  0  0  0
   -3.1095   -3.7189    0.9281 H   0  0  0  0  0  0  0  0  0  0  0  0
   -1.4147   -5.4284    0.1344 H   0  0  0  0  0  0  0  0  0  0  0  0
   -1.8337   -4.9461   -1.5289 H   0  0  0  0  0  0  0  0  0  0  0  0
   -0.9895   -1.5542   -1.4633 H   0  0  0  0  0  0  0  0  0  0  0  0
   -1.7017   -1.5089    0.2118 H   0  0  0  0  0  0  0  0  0  0  0  0
    1.1449   -1.4152   -0.5843 H   0  0  0  0  0  0  0  0  0  0  0  0
    3.2575   -1.9774   -1.0603 H   0  0  0  0  0  0  0  0  0  0  0  0
    4.4986   -2.4104    0.1446 H   0  0  0  0  0  0  0  0  0  0  0  0
    2.9880    1.4500    0.7852 H   0  0  0  0  0  0  0  0  0  0  0  0
    4.9981   -0.1326   -1.5496 H   0  0  0  0  0  0  0  0  0  0  0  0
    5.9273   -0.6278   -0.1268 H   0  0  0  0  0  0  0  0  0  0  0  0
    5.4365    2.3895    1.5930 H   0  0  0  0  0  0  0  0  0  0  0  0
    6.0752    0.7165    1.6101 H   0  0  0  0  0  0  0  0  0  0  0  0
    8.1850    1.4169    0.7345 H   0  0  0  0  0  0  0  0  0  0  0  0
    7.7439    2.5831    2.0115 H   0  0  0  0  0  0  0  0  0  0  0  0
    7.4180    1.0269   -1.1568 H   0  0  0  0  0  0  0  0  0  0  0  0
    6.0592    1.4623   -2.2612 H   0  0  0  0  0  0  0  0  0  0  0  0
   -4.3269    4.4184    1.2408 H   0  0  0  0  0  0  0  0  0  0  0  0
   -6.0777    4.5503    0.9309 H   0  0  0  0  0  0  0  0  0  0  0  0
   -4.1375    4.8025   -1.0336 H   0  0  0  0  0  0  0  0  0  0  0  0
   -5.7953    4.1910   -1.3558 H   0  0  0  0  0  0  0  0  0  0  0  0
   -5.1033    2.0305   -1.6940 H   0  0  0  0  0  0  0  0  0  0  0  0
   -3.5909    2.8836   -2.0659 H   0  0  0  0  0  0  0  0  0  0  0  0
   -2.7385    2.5121    0.0287 H   0  0  0  0  0  0  0  0  0  0  0  0
   -5.4670    2.6203    2.3109 H   0  0  0  0  0  0  0  0  0  0  0  0
   -6.3910    0.3216   -0.6074 H   0  0  0  0  0  0  0  0  0  0  0  0
   -7.0259   -0.0611    1.0352 H   0  0  0  0  0  0  0  0  0  0  0  0
   -5.0774    0.2370    2.1300 H   0  0  0  0  0  0  0  0  0  0  0  0
   -4.6741   -1.6860    0.9979 H   0  0  0  0  0  0  0  0  0  0  0  0
   -3.1986   -0.7612    1.1707 H   0  0  0  0  0  0  0  0  0  0  0  0
   -0.0618   -3.4891   -1.0866 H   0  0  0  0  0  0  0  0  0  0  0  0
   -5.7289   -2.2738   -1.0017 H   0  0  0  0  0  0  0  0  0  0  0  0
   -5.5272   -3.7038    0.1776 H   0  0  0  0  0  0  0  0  0  0  0  0
   -5.8246   -3.9418   -1.5352 H   0  0  0  0  0  0  0  0  0  0  0  0
   -1.2969   -3.2856    1.7443 H   0  0  0  0  0  0  0  0  0  0  0  0
    0.4985   -4.9676    0.6763 H   0  0  0  0  0  0  0  0  0  0  0  0
    0.1448   -1.5788    2.1976 H   0  0  0  0  0  0  0  0  0  0  0  0
    2.7705   -1.9102    1.9307 H   0  0  0  0  0  0  0  0  0  0  0  0
    2.3613   -3.3513    0.9209 H   0  0  0  0  0  0  0  0  0  0  0  0
    4.1855   -0.4023    1.4053 H   0  0  0  0  0  0  0  0  0  0  0  0
    0.6127    0.5546    0.6639 H   0  0  0  0  0  0  0  0  0  0  0  0
    1.6408    0.0288    2.0519 H   0  0  0  0  0  0  0  0  0  0  0  0
    5.9928    3.7352   -1.0838 H   0  0  0  0  0  0  0  0  0  0  0  0
    7.4730    3.4150   -2.0298 H   0  0  0  0  0  0  0  0  0  0  0  0
    6.8795    5.2379   -0.0339 H   0  0  0  0  0  0  0  0  0  0  0  0
    8.5373    5.1098    0.7037 H   0  0  0  0  0  0  0  0  0  0  0  0
    7.0278    4.5577    1.6025 H   0  0  0  0  0  0  0  0  0  0  0  0
  3  4  1  0
  4  5  1  0
  5  6  1  0
  6  7  1  0
  4  8  1  0
  2 12  1  0
  2 13  1  0
 13 14  1  0
  2 15  1  0
 16 17  1  0
 17 18  1  0
 18 19  1  0
 19 20  1  0
  1 21  1  0
 16 21  1  0
 20 21  1  0
  1 22  1  0
 20 23  1  0
 22 23  1  0
  3 24  1  0
 23 24  1  0
  7 25  1  0
  8 25  1  0
  5 26  1  0
 25 27  1  0
 27 28  1  0
  9 29  1  0
 27 29  1  0
  9 30  1  0
 10 30  1  0
 10 31  1  0
 11 31  1  0
 12 31  1  0
  9 32  1  0
 11 32  1  0
 11 33  1  0
 33 34  1  0
 33 35  1  0
 33 36  1  0
 15 37  1  0
 14 39  1  0
 37 39  1  0
 38 39  1  0
 42 43  1  0
 43 44  1  0
 44 45  1  0
 45 46  1  0
 43 47  1  0
 41 51  1  0
 41 52  1  0
 52 53  1  0
 41 54  1  0
 55 56  1  0
 56 57  1  0
 57 58  1  0
 58 59  1  0
 40 60  1  0
 55 60  1  0
 59 60  1  0
 40 61  1  0
 59 62  1  0
 61 62  1  0
 42 63  1  0
 62 63  1  0
 46 64  1  0
 47 64  1  0
 44 65  1  0
 64 66  1  0
 66 67  1  0
 48 68  1  0
 66 68  1  0
 48 69  1  0
 49 69  1  0
 49 70  1  0
 50 70  1  0
 51 70  1  0
 48 71  1  0
 50 71  1  0
 50 72  1  0
 72 73  1  0
 72 74  1  0
 72 75  1  0
 54 76  1  0
 53 78  1  0
 76 78  1  0
 77 78  1  0
  1 79  1  0
  3 80  1  0
  3 81  1  0
  4 82  1  0
  5 83  1  0
  6 84  1  0
  6 85  1  0
  7 86  1  0
  7 87  1  0
  8 88  1  0
  8 89  1  0
  9 90  1  0
 10 91  1  0
 10 92  1  0
 11 93  1  0
 12 94  1  0
 12 95  1  0
 13 96  1  0
 13 97  1  0
 14 98  1  0
 14 99  1  0
 15100  1  0
 15101  1  0
 16102  1  0
 16103  1  0
 17104  1  0
 17105  1  0
 18106  1  0
 18107  1  0
 19108  1  0
 21109  1  0
 22110  1  0
 22111  1  0
 23112  1  0
 24113  1  0
 24114  1  0
 25115  1  0
 26116  1  0
 26117  1  0
 26118  1  0
 27119  1  0
 28120  1  0
 29121  1  0
 30122  1  0
 30123  1  0
 31124  1  0
 32125  1  0
 32126  1  0
 37127  1  0
 37128  1  0
 38129  1  0
 38130  1  0
 38131  1  0
 40132  1  0
 42133  1  0
 42134  1  0
 43135  1  0
 44136  1  0
 45137  1  0
 45138  1  0
 46139  1  0
 46140  1  0
 47141  1  0
 47142  1  0
 48143  1  0
 49144  1  0
 49145  1  0
 50146  1  0
 51147  1  0
 51148  1  0
 52149  1  0
 52150  1  0
 53151  1  0
 53152  1  0
 54153  1  0
 54154  1  0
 55155  1  0
 55156  1  0
 56157  1  0
 56158  1  0
 57159  1  0
 57160  1  0
 58161  1  0
 60162  1  0
 61163  1  0
 61164  1  0
 62165  1  0
 63166  1  0
 63167  1  0
 64168  1  0
 65169  1  0
 65170  1  0
 65171  1  0
 66172  1  1
 67173  1  0
 68174  1  0
 69175  1  0
 69176  1  0
 70177  1  0
 71178  1  0
 71179  1  0
 76180  1  0
 76181  1  0
 77182  1  0
 77183  1  0
 77184  1  0
M  END
>  <PDBID>  (1) 
3IK3

>  <PDB ID>  (1) 
3IK3

>  <Generic Name>  (1) 
Ponatinib

>  <Brand Name>  (1) 
Iclusig

>  <DrugBank ID>  (1) 
DB08901

>  <ATC Codes>  (1) 
L01XE24

>  <Ligand ID>  (1) 
0LI

>  <Target Name>  (1) 
Tyrosine-protein kinase ABL1

>  <UniProt ID>  (1) 
P00519

>  <PDB ID.1>  (1) 
3IK3

>  <Seq. Identity>  (1) 
95%

$$$$
