PDB_DB00966_05
     RDKit          3D

 99104  0  0  0  0  0  0  0  0999 V2000
   -1.3635    1.7047   -0.7208 C   0  0  0  0  0  0  0  0  0  0  0  0
   -0.2122    2.1599   -0.0249 N   0  0  0  0  0  0  0  0  0  0  0  0
   -1.8792    2.9202   -1.3861 C   0  0  0  0  0  0  0  0  0  0  0  0
   -2.3293    0.9417    0.1364 C   0  0  0  0  0  0  0  0  0  0  0  0
    0.1573    3.4520   -0.3908 C   0  0  0  0  0  0  0  0  0  0  0  0
    0.5323    1.3242    0.7672 C   0  0  0  0  0  0  0  0  0  0  0  0
   -1.0604    4.0506   -0.9851 N   0  0  0  0  0  0  0  0  0  0  0  0
   -3.3275    3.1380   -1.1984 C   0  0  0  0  0  0  0  0  0  0  0  0
   -3.6969    0.7832   -0.4349 C   0  0  0  0  0  0  0  0  0  0  0  0
    0.5754    4.3733    0.7212 C   0  0  0  0  0  0  0  0  0  0  0  0
    1.3222    0.2156    0.1137 C   0  0  0  0  0  0  0  0  0  0  0  0
   -4.0249    1.8010   -1.4973 C   0  0  0  0  0  0  0  0  0  0  0  0
   -3.7954    3.6026    0.1250 C   0  0  0  0  0  0  0  0  0  0  0  0
   -3.9567   -0.6085   -0.8618 C   0  0  0  0  0  0  0  0  0  0  0  0
   -0.4822    4.6058    1.7502 C   0  0  0  0  0  0  0  0  0  0  0  0
    2.0205   -0.5197    1.2355 C   0  0  0  0  0  0  0  0  0  0  0  0
    2.4311    0.7575   -0.7634 C   0  0  0  0  0  0  0  0  0  0  0  0
   -5.2056   -0.9257   -1.4355 N   0  0  0  0  0  0  0  0  0  0  0  0
   -3.8943   -1.5738    0.2287 N   0  0  0  0  0  0  0  0  0  0  0  0
    0.0595    5.5390    2.8115 C   0  0  0  0  0  0  0  0  0  0  0  0
    2.9348   -1.6061    0.7906 C   0  0  0  0  0  0  0  0  0  0  0  0
    3.0489   -0.4307   -1.4253 C   0  0  0  0  0  0  0  0  0  0  0  0
   -5.3170   -2.3634   -1.3686 C   0  0  0  0  0  0  0  0  0  0  0  0
   -6.3506   -0.1984   -1.0632 C   0  0  0  0  0  0  0  0  0  0  0  0
   -4.1405   -2.7899   -0.5709 C   0  0  0  0  0  0  0  0  0  0  0  0
    3.7078   -1.3706   -0.4479 C   0  0  0  0  0  0  0  0  0  0  0  0
   -6.6251   -2.8738   -0.8657 C   0  0  0  0  0  0  0  0  0  0  0  0
   -4.2210   -4.0226    0.2029 C   0  0  0  0  0  0  0  0  0  0  0  0
    5.1661   -1.0297   -0.2086 C   0  0  1  0  0  0  0  0  0  0  0  0
   -6.4757   -4.4030   -0.7620 C   0  0  0  0  0  0  0  0  0  0  0  0
   -5.5691   -4.5873    0.4628 C   0  0  0  0  0  0  0  0  0  0  0  0
    5.8099   -2.1792    0.4885 C   0  0  0  0  0  0  0  0  0  0  0  0
    5.8318   -0.6180   -1.4878 C   0  0  0  0  0  0  0  0  0  0  0  0
    6.7902   -2.9448   -0.3779 C   0  0  0  0  0  0  0  0  0  0  0  0
    6.5072   -1.7963    1.7764 C   0  0  0  0  0  0  0  0  0  0  0  0
    7.3335   -0.7232   -1.4396 C   0  0  0  0  0  0  0  0  0  0  0  0
    7.8279   -2.0277   -0.9198 C   0  0  0  0  0  0  0  0  0  0  0  0
    7.0713   -2.9638    2.3318 O   0  0  0  0  0  0  0  0  0  0  0  0
    7.4916   -0.8526    1.6287 O   0  0  0  0  0  0  0  0  0  0  0  0
   -0.9756    1.0019   -1.5266 H   0  0  0  0  0  0  0  0  0  0  0  0
   -1.7163    2.8352   -2.5047 H   0  0  0  0  0  0  0  0  0  0  0  0
   -2.3097    1.3268    1.1762 H   0  0  0  0  0  0  0  0  0  0  0  0
   -1.8664   -0.0865    0.2289 H   0  0  0  0  0  0  0  0  0  0  0  0
    0.9201    3.5430   -1.1885 H   0  0  0  0  0  0  0  0  0  0  0  0
   -0.1408    0.8433    1.5401 H   0  0  0  0  0  0  0  0  0  0  0  0
    1.2693    1.8885    1.4102 H   0  0  0  0  0  0  0  0  0  0  0  0
   -0.8324    4.6752   -1.7768 H   0  0  0  0  0  0  0  0  0  0  0  0
   -3.7302    3.8255   -1.9974 H   0  0  0  0  0  0  0  0  0  0  0  0
   -4.4078    1.0076    0.4188 H   0  0  0  0  0  0  0  0  0  0  0  0
    1.4603    3.9067    1.2337 H   0  0  0  0  0  0  0  0  0  0  0  0
    0.9835    5.3377    0.3099 H   0  0  0  0  0  0  0  0  0  0  0  0
    0.6864   -0.5290   -0.4047 H   0  0  0  0  0  0  0  0  0  0  0  0
   -3.6237    1.4717   -2.4719 H   0  0  0  0  0  0  0  0  0  0  0  0
   -5.1045    2.0725   -1.5310 H   0  0  0  0  0  0  0  0  0  0  0  0
   -4.7352    3.0841    0.4805 H   0  0  0  0  0  0  0  0  0  0  0  0
   -4.1236    4.6812    0.0454 H   0  0  0  0  0  0  0  0  0  0  0  0
   -3.0984    3.5668    0.9542 H   0  0  0  0  0  0  0  0  0  0  0  0
   -3.1586   -0.8958   -1.6094 H   0  0  0  0  0  0  0  0  0  0  0  0
   -0.8351    3.6511    2.1387 H   0  0  0  0  0  0  0  0  0  0  0  0
   -1.3212    5.1376    1.2185 H   0  0  0  0  0  0  0  0  0  0  0  0
    2.5368    0.2481    1.8480 H   0  0  0  0  0  0  0  0  0  0  0  0
    1.2134   -0.9369    1.8838 H   0  0  0  0  0  0  0  0  0  0  0  0
    3.1781    1.2299   -0.0837 H   0  0  0  0  0  0  0  0  0  0  0  0
    2.0636    1.4691   -1.5227 H   0  0  0  0  0  0  0  0  0  0  0  0
   -2.9722   -1.7147    0.6378 H   0  0  0  0  0  0  0  0  0  0  0  0
   -0.8047    6.0886    3.2347 H   0  0  0  0  0  0  0  0  0  0  0  0
    0.7426    6.2945    2.3741 H   0  0  0  0  0  0  0  0  0  0  0  0
    0.5245    4.9820    3.6497 H   0  0  0  0  0  0  0  0  0  0  0  0
    3.6419   -1.7924    1.6260 H   0  0  0  0  0  0  0  0  0  0  0  0
    2.3139   -2.5502    0.7334 H   0  0  0  0  0  0  0  0  0  0  0  0
    2.2171   -1.0016   -1.9294 H   0  0  0  0  0  0  0  0  0  0  0  0
    3.7249   -0.1114   -2.2111 H   0  0  0  0  0  0  0  0  0  0  0  0
   -5.1974   -2.7392   -2.4113 H   0  0  0  0  0  0  0  0  0  0  0  0
   -7.2552   -0.8351   -0.8204 H   0  0  0  0  0  0  0  0  0  0  0  0
   -6.7105    0.3611   -1.9801 H   0  0  0  0  0  0  0  0  0  0  0  0
   -6.2654    0.4652   -0.1902 H   0  0  0  0  0  0  0  0  0  0  0  0
   -3.2593   -2.8432   -1.2669 H   0  0  0  0  0  0  0  0  0  0  0  0
    3.7489   -2.3652   -0.9932 H   0  0  0  0  0  0  0  0  0  0  0  0
   -6.8559   -2.5580    0.1793 H   0  0  0  0  0  0  0  0  0  0  0  0
   -7.4282   -2.7105   -1.5827 H   0  0  0  0  0  0  0  0  0  0  0  0
   -3.7223   -3.8671    1.2007 H   0  0  0  0  0  0  0  0  0  0  0  0
   -3.6061   -4.8435   -0.2720 H   0  0  0  0  0  0  0  0  0  0  0  0
    5.1811   -0.1437    0.4780 H   0  0  0  0  0  0  0  0  0  0  0  0
   -7.4467   -4.8832   -0.5856 H   0  0  0  0  0  0  0  0  0  0  0  0
   -5.9219   -4.8097   -1.6270 H   0  0  0  0  0  0  0  0  0  0  0  0
   -6.0287   -4.0186    1.2965 H   0  0  0  0  0  0  0  0  0  0  0  0
   -5.5021   -5.6459    0.7569 H   0  0  0  0  0  0  0  0  0  0  0  0
    5.0577   -2.9694    0.7924 H   0  0  0  0  0  0  0  0  0  0  0  0
    5.6045    0.4663   -1.6487 H   0  0  0  0  0  0  0  0  0  0  0  0
    5.4960   -1.2359   -2.3498 H   0  0  0  0  0  0  0  0  0  0  0  0
    6.2728   -3.5378   -1.1588 H   0  0  0  0  0  0  0  0  0  0  0  0
    7.2998   -3.6793    0.2930 H   0  0  0  0  0  0  0  0  0  0  0  0
    5.8087   -1.4205    2.5530 H   0  0  0  0  0  0  0  0  0  0  0  0
    7.6952   -0.6135   -2.4944 H   0  0  0  0  0  0  0  0  0  0  0  0
    7.7655    0.1680   -0.9063 H   0  0  0  0  0  0  0  0  0  0  0  0
    8.3751   -2.6165   -1.7174 H   0  0  0  0  0  0  0  0  0  0  0  0
    8.6183   -1.8294   -0.1592 H   0  0  0  0  0  0  0  0  0  0  0  0
    6.3479   -3.6271    2.5429 H   0  0  0  0  0  0  0  0  0  0  0  0
    7.5164   -0.1794    2.3365 H   0  0  0  0  0  0  0  0  0  0  0  0
  1  2  1  0
  1  3  1  0
  1  4  1  0
  2  5  1  0
  2  6  1  0
  3  7  1  0
  5  7  1  0
  3  8  1  0
  4  9  1  0
  5 10  1  0
  6 11  1  0
  8 12  1  0
  9 12  1  0
  8 13  1  0
  9 14  1  0
 10 15  1  0
 11 16  1  0
 11 17  1  0
 14 18  1  0
 14 19  1  0
 15 20  1  0
 16 21  1  0
 17 22  1  0
 18 23  1  0
 18 24  1  0
 19 25  1  0
 23 25  1  0
 21 26  1  0
 22 26  1  0
 23 27  1  0
 25 28  1  0
 26 29  1  0
 27 30  1  0
 28 31  1  0
 30 31  1  0
 29 32  1  0
 29 33  1  0
 32 34  1  0
 32 35  1  0
 33 36  1  0
 34 37  1  0
 36 37  1  0
 35 38  1  0
 35 39  1  0
  1 40  1  0
  3 41  1  0
  4 42  1  0
  4 43  1  0
  5 44  1  0
  6 45  1  0
  6 46  1  0
  7 47  1  0
  8 48  1  0
  9 49  1  0
 10 50  1  0
 10 51  1  0
 11 52  1  0
 12 53  1  0
 12 54  1  0
 13 55  1  0
 13 56  1  0
 13 57  1  0
 14 58  1  0
 15 59  1  0
 15 60  1  0
 16 61  1  0
 16 62  1  0
 17 63  1  0
 17 64  1  0
 19 65  1  0
 20 66  1  0
 20 67  1  0
 20 68  1  0
 21 69  1  0
 21 70  1  0
 22 71  1  0
 22 72  1  0
 23 73  1  0
 24 74  1  0
 24 75  1  0
 24 76  1  0
 25 77  1  0
 26 78  1  0
 27 79  1  0
 27 80  1  0
 28 81  1  0
 28 82  1  0
 29 83  1  1
 30 84  1  0
 30 85  1  0
 31 86  1  0
 31 87  1  0
 32 88  1  0
 33 89  1  0
 33 90  1  0
 34 91  1  0
 34 92  1  0
 35 93  1  0
 36 94  1  0
 36 95  1  0
 37 96  1  0
 37 97  1  0
 38 98  1  0
 39 99  1  0
M  END
>  <PDBID>  (1) 
3VN2

>  <PDB ID>  (1) 
3VN2

>  <Generic Name>  (1) 
Telmisartan

>  <Brand Name>  (1) 
Ach-telmisartan Hctz#Act Telmisartan#Act Telmisartan/hct#Apo-telmisartan#Apo-telmisartan/hctz#Auro-telmisartan#Auro-telmisartan Hctz#Mar-telmisartan#Micardis#Micardis 40mg Tab#Micardis 80mg Tab#Micardis Hct#Micardis Plus#Mylan-telmisartan#Mylan-telmisartan Hctz#Ntp-telmisartan#Ntp-telmisartan Hctz#PMS-telmisartan#PMS-telmisartan-hctz#Pendo-telmisartan#Pendo-telmisartan-hctz#Ran-telmisartan#Ran-telmisartan Hctz#Sandoz Telmisartan#Sandoz Telmisartan Hct#Septa-telmisartan#Telmisartan#Telmisartan Hctz#Telmisartan Tablets#Telmisartan and Amlodipine#Telmisartan and Hydrochlorothiazide#Telmisartan and Hydrochlorothiazide 40 Mg/12.5 mg#Telmisartan and Hydrochlorothiazide 80 Mg/12.5 mg#Telmisartan and Hydrochlorothiazide 80 Mg/25 mg#Telmisartan and Hydrochlorthiazide#Telmisartan-hctz#Telmisartan/hctz#Teva-telmisartan#Teva-telmisartan Hctz#Torrent-telmisartan#Torrent-telmisartan and Hydrochlorothiazide#Twynsta#Van-telmisartan#Van-telmisartan-hctz#Zinda-telmisartan#Zinda-telmisartan/ Hctz#Pritor

>  <DrugBank ID>  (1) 
DB00966

>  <ATC Codes>  (1) 
C09DB04#C09DA07#C09CA07

>  <Ligand ID>  (1) 
TLS

>  <Target Name>  (1) 
Peroxisome proliferator-activated receptor gamma

>  <UniProt ID>  (1) 
P37231

>  <PDB ID.1>  (1) 
3VN2

>  <Seq. Identity>  (1) 
95%

$$$$
