PDB_DB01117_09
     RDKit          3D

 63 66  0  0  0  0  0  0  0  0999 V2000
   -2.0800   -0.6812   -2.1337 O   0  0  0  0  0  0  0  0  0  0  0  0
   -4.1884    2.3946    1.1297 O   0  0  0  0  0  0  0  0  0  0  0  0
   -2.1885   -0.7853   -0.7486 C   0  0  0  0  0  0  0  0  0  0  0  0
   -1.4053    0.3648   -0.1525 C   0  0  0  0  0  0  0  0  0  0  0  0
   -2.3264    1.5575   -0.1489 C   0  0  0  0  0  0  0  0  0  0  0  0
   -3.2782    1.3701    1.0141 C   0  0  0  0  0  0  0  0  0  0  0  0
   -5.4169    0.2183    1.0214 C   0  0  0  0  0  0  0  0  0  0  0  0
   -6.1915   -1.0541    0.9711 C   0  0  0  0  0  0  0  0  0  0  0  0
   -5.2540   -2.2096    0.7676 C   0  0  0  0  0  0  0  0  0  0  0  0
   -4.3100   -2.0221   -0.3706 C   0  0  0  0  0  0  0  0  0  0  0  0
   -3.6524   -0.6616   -0.3980 C   0  0  0  0  0  0  0  0  0  0  0  0
   -3.9102    0.0032    0.9124 C   0  0  0  0  0  0  0  0  0  0  0  0
   -1.7084    2.7770   -0.1395 O   0  0  0  0  0  0  0  0  0  0  0  0
    0.6690    1.7646   -0.3905 C   0  0  0  0  0  0  0  0  0  0  0  0
    2.1339    1.4973   -0.6608 C   0  0  0  0  0  0  0  0  0  0  0  0
    2.5929    0.3843    0.2269 C   0  0  0  0  0  0  0  0  0  0  0  0
    1.6697   -0.7779    0.0459 C   0  0  0  0  0  0  0  0  0  0  0  0
    0.7051   -0.5711   -1.1017 C   0  0  0  0  0  0  0  0  0  0  0  0
   -0.1518    0.6458   -0.9532 C   0  0  0  0  0  0  0  0  0  0  0  0
    6.4459   -0.5926   -2.0821 Cl  0  0  0  0  0  0  0  0  0  0  0  0
    4.0421    0.0184   -0.0097 C   0  0  0  0  0  0  0  0  0  0  0  0
    4.9213    1.2425    0.2593 C   0  0  0  0  0  0  0  0  0  0  0  0
    6.3714    0.8666    0.2274 C   0  0  0  0  0  0  0  0  0  0  0  0
    6.6272   -0.5134   -0.3041 C   0  0  0  0  0  0  0  0  0  0  0  0
    5.8368   -1.5756    0.3935 C   0  0  0  0  0  0  0  0  0  0  0  0
    4.5164   -1.0448    0.9454 C   0  0  0  0  0  0  0  0  0  0  0  0
   -1.9453   -1.5619   -2.5694 H   0  0  0  0  0  0  0  0  0  0  0  0
   -4.5680    2.6944    0.2660 H   0  0  0  0  0  0  0  0  0  0  0  0
   -1.8447   -1.7688   -0.3719 H   0  0  0  0  0  0  0  0  0  0  0  0
   -1.1499    0.1101    0.9051 H   0  0  0  0  0  0  0  0  0  0  0  0
   -2.9393    1.5076   -1.0951 H   0  0  0  0  0  0  0  0  0  0  0  0
   -2.6384    1.3792    1.9346 H   0  0  0  0  0  0  0  0  0  0  0  0
   -5.7663    0.8961    0.2375 H   0  0  0  0  0  0  0  0  0  0  0  0
   -5.5702    0.6851    2.0310 H   0  0  0  0  0  0  0  0  0  0  0  0
   -6.7590   -1.2333    1.9125 H   0  0  0  0  0  0  0  0  0  0  0  0
   -6.9614   -1.0563    0.1560 H   0  0  0  0  0  0  0  0  0  0  0  0
   -5.9028   -3.0980    0.5114 H   0  0  0  0  0  0  0  0  0  0  0  0
   -4.7387   -2.4362    1.7109 H   0  0  0  0  0  0  0  0  0  0  0  0
   -4.7497   -2.2741   -1.3592 H   0  0  0  0  0  0  0  0  0  0  0  0
   -3.4751   -2.7670   -0.2301 H   0  0  0  0  0  0  0  0  0  0  0  0
   -4.2202   -0.0739   -1.1786 H   0  0  0  0  0  0  0  0  0  0  0  0
   -3.5981   -0.6638    1.7453 H   0  0  0  0  0  0  0  0  0  0  0  0
   -2.1657    3.4093    0.4741 H   0  0  0  0  0  0  0  0  0  0  0  0
    0.4583    2.7439   -0.8772 H   0  0  0  0  0  0  0  0  0  0  0  0
    0.4914    1.9214    0.6958 H   0  0  0  0  0  0  0  0  0  0  0  0
    2.7408    2.4263   -0.5086 H   0  0  0  0  0  0  0  0  0  0  0  0
    2.2376    1.2807   -1.7436 H   0  0  0  0  0  0  0  0  0  0  0  0
    2.5350    0.7581    1.2763 H   0  0  0  0  0  0  0  0  0  0  0  0
    1.1161   -1.0220    0.9924 H   0  0  0  0  0  0  0  0  0  0  0  0
    2.2560   -1.6946   -0.1908 H   0  0  0  0  0  0  0  0  0  0  0  0
    0.1040   -1.5044   -1.2218 H   0  0  0  0  0  0  0  0  0  0  0  0
    1.3131   -0.4668   -2.0234 H   0  0  0  0  0  0  0  0  0  0  0  0
   -0.5255    0.9893   -1.9636 H   0  0  0  0  0  0  0  0  0  0  0  0
    4.1352   -0.3535   -1.0302 H   0  0  0  0  0  0  0  0  0  0  0  0
    4.7471    2.0306   -0.4889 H   0  0  0  0  0  0  0  0  0  0  0  0
    4.6879    1.5754    1.2973 H   0  0  0  0  0  0  0  0  0  0  0  0
    6.9553    1.5715   -0.4309 H   0  0  0  0  0  0  0  0  0  0  0  0
    6.8642    0.9506    1.2273 H   0  0  0  0  0  0  0  0  0  0  0  0
    7.7187   -0.7263   -0.1126 H   0  0  0  0  0  0  0  0  0  0  0  0
    5.6443   -2.3978   -0.3345 H   0  0  0  0  0  0  0  0  0  0  0  0
    6.4490   -2.0368    1.2131 H   0  0  0  0  0  0  0  0  0  0  0  0
    4.7771   -0.5443    1.9212 H   0  0  0  0  0  0  0  0  0  0  0  0
    3.8174   -1.8656    1.1026 H   0  0  0  0  0  0  0  0  0  0  0  0
  1  3  1  0
  3  4  1  0
  4  5  1  0
  2  6  1  0
  5  6  1  0
  7  8  1  0
  8  9  1  0
  9 10  1  0
  3 11  1  0
 10 11  1  0
  6 12  1  0
  7 12  1  0
 11 12  1  0
  5 13  1  0
 14 15  1  0
 15 16  1  0
 16 17  1  0
 17 18  1  0
  4 19  1  0
 14 19  1  0
 18 19  1  0
 16 21  1  0
 21 22  1  0
 22 23  1  0
 20 24  1  0
 23 24  1  0
 24 25  1  0
 21 26  1  0
 25 26  1  0
  1 27  1  0
  2 28  1  0
  3 29  1  0
  4 30  1  0
  5 31  1  0
  6 32  1  0
  7 33  1  0
  7 34  1  0
  8 35  1  0
  8 36  1  0
  9 37  1  0
  9 38  1  0
 10 39  1  0
 10 40  1  0
 11 41  1  0
 12 42  1  0
 13 43  1  0
 14 44  1  0
 14 45  1  0
 15 46  1  0
 15 47  1  0
 16 48  1  0
 17 49  1  0
 17 50  1  0
 18 51  1  0
 18 52  1  0
 19 53  1  0
 21 54  1  0
 22 55  1  0
 22 56  1  0
 23 57  1  0
 23 58  1  0
 24 59  1  0
 25 60  1  0
 25 61  1  0
 26 62  1  0
 26 63  1  0
M  END
>  <PDBID>  (1) 
4PD4

>  <PDB ID>  (1) 
4PD4

>  <Generic Name>  (1) 
Atovaquone

>  <Brand Name>  (1) 
Atovaquone#Atovaquone Proguanil#Atovaquone and Proguanil HCl#Atovaquone and Proguanil Hydrochloride#Atovaquone and Proguanil Hydrochloride Pediatric#Malarone#Malarone Pediatric#Mepron#Mepron Tab 250mg#Mylan-atovaquone/proguanil#Teva-atovaquone Proguanil

>  <DrugBank ID>  (1) 
DB01117

>  <ATC Codes>  (1) 
P01AX06

>  <Ligand ID>  (1) 
AOQ

>  <Target Name>  (1) 
Cytochrome b

>  <UniProt ID>  (1) 
Q02768

>  <PDB ID.1>  (1) 
4PD4

>  <Seq. Identity>  (1) 
42%

$$$$
