PDB_DB08864_05
     RDKit          3D

 74 76  0  0  0  0  0  0  0  0999 V2000
   -2.9758   -1.2759   -0.0203 C   0  0  0  0  0  0  0  0  0  0  0  0
    1.8009    1.4320    0.5449 N   0  0  0  0  0  0  0  0  0  0  0  0
   -5.0551   -0.1604    0.9194 C   0  0  0  0  0  0  0  0  0  0  0  0
   -4.2815    1.1626    0.9504 C   0  0  0  0  0  0  0  0  0  0  0  0
   -2.7960    0.8349    1.1813 C   0  0  0  0  0  0  0  0  0  0  0  0
   -2.3583    0.0951   -0.0309 C   0  0  0  0  0  0  0  0  0  0  0  0
   -2.6415   -2.0348   -1.3096 C   0  0  0  0  0  0  0  0  0  0  0  0
   -4.4859   -1.1497    0.0065 C   0  0  0  0  0  0  0  0  0  0  0  0
   -2.0572    2.1599    1.2412 C   0  0  0  0  0  0  0  0  0  0  0  0
   -1.0066    0.1189   -0.4106 N   0  0  0  0  0  0  0  0  0  0  0  0
    1.1571    1.1139    1.8107 C   0  0  0  0  0  0  0  0  0  0  0  0
    0.3107   -0.1261    1.6967 C   0  0  0  0  0  0  0  0  0  0  0  0
   -0.0157   -0.5620    0.3175 C   0  0  0  0  0  0  0  0  0  0  0  0
    1.1916   -0.6350   -0.4814 N   0  0  0  0  0  0  0  0  0  0  0  0
    2.3005    0.1323    0.0603 C   0  0  1  0  0  0  0  0  0  0  0  0
    3.2278    0.3878   -0.9971 N   0  0  0  0  0  0  0  0  0  0  0  0
    7.0638    0.4987   -0.2287 C   0  0  0  0  0  0  0  0  0  0  0  0
    6.4423    0.3475   -1.6004 C   0  0  0  0  0  0  0  0  0  0  0  0
    5.3362    1.3442   -1.7228 C   0  0  0  0  0  0  0  0  0  0  0  0
    4.2999    1.2474   -0.6182 C   0  0  0  0  0  0  0  0  0  0  0  0
    4.9030    1.0294    0.7226 C   0  0  0  0  0  0  0  0  0  0  0  0
    6.0119   -0.0075    0.7507 C   0  0  0  0  0  0  0  0  0  0  0  0
    8.3443   -1.5995   -0.3147 N   0  0  0  0  0  0  0  0  0  0  0  0
    8.3857   -0.1798   -0.0888 C   0  0  0  0  0  0  0  0  0  0  0  0
   -7.5451   -0.7083    0.4864 C   0  0  0  0  0  0  0  0  0  0  0  0
   -6.4503    0.2464    0.6084 C   0  0  0  0  0  0  0  0  0  0  0  0
   -7.4502   -0.9236   -1.9255 N   0  0  0  0  0  0  0  0  0  0  0  0
   -7.4849   -1.6682   -0.6514 C   0  0  0  0  0  0  0  0  0  0  0  0
   -4.4415    1.7404    0.0451 H   0  0  0  0  0  0  0  0  0  0  0  0
   -2.1254   -1.3558   -2.0332 H   0  0  0  0  0  0  0  0  0  0  0  0
   -2.0439   -2.9413   -1.0985 H   0  0  0  0  0  0  0  0  0  0  0  0
   -3.5506   -2.3771   -1.8449 H   0  0  0  0  0  0  0  0  0  0  0  0
   -4.8634   -1.0828   -1.0128 H   0  0  0  0  0  0  0  0  0  0  0  0
   -1.7050    2.3055    2.2728 H   0  0  0  0  0  0  0  0  0  0  0  0
   -2.7263    2.9974    0.9139 H   0  0  0  0  0  0  0  0  0  0  0  0
   -1.1858    2.1911    0.5619 H   0  0  0  0  0  0  0  0  0  0  0  0
   -0.7439    0.5765   -1.2842 H   0  0  0  0  0  0  0  0  0  0  0  0
    0.6448    1.9853    2.2132 H   0  0  0  0  0  0  0  0  0  0  0  0
    0.9108   -0.9916    2.1511 H   0  0  0  0  0  0  0  0  0  0  0  0
    3.5728   -0.4858   -1.4631 H   0  0  0  0  0  0  0  0  0  0  0  0
    6.0504   -0.6841   -1.7654 H   0  0  0  0  0  0  0  0  0  0  0  0
    5.7635    2.3558   -1.8203 H   0  0  0  0  0  0  0  0  0  0  0  0
    4.1564    0.9049    1.5026 H   0  0  0  0  0  0  0  0  0  0  0  0
    6.3992   -0.0523    1.7761 H   0  0  0  0  0  0  0  0  0  0  0  0
   -8.5440   -0.1570    0.3621 H   0  0  0  0  0  0  0  0  0  0  0  0
   -6.4153    0.9636   -0.2953 H   0  0  0  0  0  0  0  0  0  0  0  0
   -2.6446   -1.8749    0.8301 H   0  0  0  0  0  0  0  0  0  0  0  0
    1.0891    1.7147   -0.1722 H   0  0  0  0  0  0  0  0  0  0  0  0
   -5.0721   -0.5271    2.0035 H   0  0  0  0  0  0  0  0  0  0  0  0
   -4.6102    1.6901    1.8700 H   0  0  0  0  0  0  0  0  0  0  0  0
   -2.7965    0.2752    2.1248 H   0  0  0  0  0  0  0  0  0  0  0  0
   -2.9137    0.6202   -0.9005 H   0  0  0  0  0  0  0  0  0  0  0  0
   -4.8004   -2.1789    0.4048 H   0  0  0  0  0  0  0  0  0  0  0  0
    1.9925    0.8987    2.5382 H   0  0  0  0  0  0  0  0  0  0  0  0
   -0.5182   -0.0080    2.3944 H   0  0  0  0  0  0  0  0  0  0  0  0
   -0.3001   -1.6730    0.4351 H   0  0  0  0  0  0  0  0  0  0  0  0
    1.5479   -1.5832   -0.6492 H   0  0  0  0  0  0  0  0  0  0  0  0
    2.8191   -0.4342    0.8585 H   0  0  0  0  0  0  0  0  0  0  0  0
    7.2220    1.5793   -0.0713 H   0  0  0  0  0  0  0  0  0  0  0  0
    7.2095    0.5897   -2.3432 H   0  0  0  0  0  0  0  0  0  0  0  0
    4.7916    1.0943   -2.6756 H   0  0  0  0  0  0  0  0  0  0  0  0
    3.8489    2.2920   -0.5801 H   0  0  0  0  0  0  0  0  0  0  0  0
    5.4356    2.0004    0.9929 H   0  0  0  0  0  0  0  0  0  0  0  0
    5.6161   -0.9577    0.3649 H   0  0  0  0  0  0  0  0  0  0  0  0
    8.1691   -1.8023   -1.3108 H   0  0  0  0  0  0  0  0  0  0  0  0
    7.6367   -2.0171    0.3326 H   0  0  0  0  0  0  0  0  0  0  0  0
    8.7913    0.0577    0.9000 H   0  0  0  0  0  0  0  0  0  0  0  0
    9.0630    0.2689   -0.8475 H   0  0  0  0  0  0  0  0  0  0  0  0
   -7.7379   -1.2810    1.4442 H   0  0  0  0  0  0  0  0  0  0  0  0
   -6.7677    1.0077    1.4201 H   0  0  0  0  0  0  0  0  0  0  0  0
   -8.3887   -0.7448   -2.2978 H   0  0  0  0  0  0  0  0  0  0  0  0
   -6.7835   -1.3648   -2.5929 H   0  0  0  0  0  0  0  0  0  0  0  0
   -8.4840   -2.2242   -0.7148 H   0  0  0  0  0  0  0  0  0  0  0  0
   -6.7390   -2.4304   -0.5675 H   0  0  0  0  0  0  0  0  0  0  0  0
  3  4  1  0
  4  5  1  0
  1  6  1  0
  5  6  1  0
  1  7  1  0
  1  8  1  0
  3  8  1  0
  5  9  1  0
  6 10  1  0
  2 11  1  0
 11 12  1  0
 10 13  1  0
 12 13  1  0
 13 14  1  0
  2 15  1  0
 14 15  1  0
 15 16  1  0
 17 18  1  0
 18 19  1  0
 16 20  1  0
 19 20  1  0
 20 21  1  0
 17 22  1  0
 21 22  1  0
 17 24  1  0
 23 24  1  0
  3 26  1  0
 25 26  1  0
 25 28  1  0
 27 28  1  0
  4 29  1  0
  7 30  1  0
  7 31  1  0
  7 32  1  0
  8 33  1  0
  9 34  1  0
  9 35  1  0
  9 36  1  0
 10 37  1  0
 11 38  1  0
 12 39  1  0
 16 40  1  0
 18 41  1  0
 19 42  1  0
 21 43  1  0
 22 44  1  0
 25 45  1  0
 26 46  1  0
  1 47  1  0
  2 48  1  0
  3 49  1  0
  4 50  1  0
  5 51  1  0
  6 52  1  0
  8 53  1  0
 11 54  1  0
 12 55  1  0
 13 56  1  0
 14 57  1  0
 15 58  1  1
 17 59  1  0
 18 60  1  0
 19 61  1  0
 20 62  1  0
 21 63  1  0
 22 64  1  0
 23 65  1  0
 23 66  1  0
 24 67  1  0
 24 68  1  0
 25 69  1  0
 26 70  1  0
 27 71  1  0
 27 72  1  0
 28 73  1  0
 28 74  1  0
M  END
>  <PDBID>  (1) 
4G1Q

>  <PDB ID>  (1) 
4G1Q

>  <Generic Name>  (1) 
Rilpivirine

>  <Brand Name>  (1) 
Complera#Edurant#Odefsey

>  <DrugBank ID>  (1) 
DB08864

>  <ATC Codes>  (1) 
nan

>  <Ligand ID>  (1) 
T27

>  <Target Name>  (1) 
Reverse transcriptase/RNaseH

>  <UniProt ID>  (1) 
Q72547

>  <PDB ID.1>  (1) 
4G1Q

>  <Seq. Identity>  (1) 
95%

$$$$
