PDB_DB00537_03
     RDKit          3D

108114  0  0  0  0  0  0  0  0999 V2000
   -4.1702   -1.7595   -1.5876 O   0  0  0  0  0  0  0  0  0  0  0  0
   -4.6587   -0.7281   -0.7851 C   0  0  0  0  0  0  0  0  0  0  0  0
   -5.3329   -1.2855    0.2889 O   0  0  0  0  0  0  0  0  0  0  0  0
   -3.4365    0.0413   -0.2605 C   0  0  0  0  0  0  0  0  0  0  0  0
   -2.6902    0.6079   -1.4533 C   0  0  0  0  0  0  0  0  0  0  0  0
   -1.4063    1.1255   -1.0876 N   0  0  0  0  0  0  0  0  0  0  0  0
   -0.6011    0.0422   -0.5750 C   0  0  0  0  0  0  0  0  0  0  0  0
    0.8449    0.4354   -0.3650 C   0  0  0  0  0  0  0  0  0  0  0  0
    1.6081   -0.6958    0.2533 C   0  0  0  0  0  0  0  0  0  0  0  0
    2.9409   -0.8750   -0.2548 N   0  0  0  0  0  0  0  0  0  0  0  0
    3.8230   -1.2568    0.8453 C   0  0  0  0  0  0  0  0  0  0  0  0
    4.3911   -0.0044    1.4730 C   0  0  0  0  0  0  0  0  0  0  0  0
    5.4235    0.4853    0.6019 N   0  0  0  0  0  0  0  0  0  0  0  0
    4.9861    0.3028   -0.7743 C   0  0  0  0  0  0  0  0  0  0  0  0
    3.4658    0.3162   -0.8929 C   0  0  0  0  0  0  0  0  0  0  0  0
    0.8267   -1.9960    0.1498 C   0  0  0  0  0  0  0  0  0  0  0  0
    1.5523   -3.0381    0.6937 F   0  0  0  0  0  0  0  0  0  0  0  0
   -0.3995   -1.8070    1.0351 C   0  0  0  0  0  0  0  0  0  0  0  0
   -1.1980   -0.5772    0.6587 C   0  0  0  0  0  0  0  0  0  0  0  0
   -2.5908   -1.0311    0.3869 C   0  0  0  0  0  0  0  0  0  0  0  0
   -3.2258   -1.5192    1.5247 O   0  0  0  0  0  0  0  0  0  0  0  0
   -1.5548    2.2183   -0.1581 C   0  0  0  0  0  0  0  0  0  0  0  0
   -0.5891    3.3104   -0.0650 C   0  0  0  0  0  0  0  0  0  0  0  0
   -1.8771    3.5554   -0.8294 C   0  0  0  0  0  0  0  0  0  0  0  0
   -3.3121    1.4528   -1.8335 H   0  0  0  0  0  0  0  0  0  0  0  0
    0.9414    1.3161    0.3030 H   0  0  0  0  0  0  0  0  0  0  0  0
    4.5900   -1.9353    0.4558 H   0  0  0  0  0  0  0  0  0  0  0  0
    3.2325   -1.7740    1.6535 H   0  0  0  0  0  0  0  0  0  0  0  0
    4.8502   -0.2903    2.4583 H   0  0  0  0  0  0  0  0  0  0  0  0
    3.5964    0.7371    1.5966 H   0  0  0  0  0  0  0  0  0  0  0  0
    6.2628   -0.1377    0.7382 H   0  0  0  0  0  0  0  0  0  0  0  0
    5.3351   -0.6548   -1.1811 H   0  0  0  0  0  0  0  0  0  0  0  0
    5.4203    1.1413   -1.3503 H   0  0  0  0  0  0  0  0  0  0  0  0
    3.2468    0.2753   -1.9780 H   0  0  0  0  0  0  0  0  0  0  0  0
    3.0252    1.2568   -0.5076 H   0  0  0  0  0  0  0  0  0  0  0  0
   -1.0002   -2.7365    1.0555 H   0  0  0  0  0  0  0  0  0  0  0  0
   -2.1765    1.9949    0.7090 H   0  0  0  0  0  0  0  0  0  0  0  0
    0.3045    3.4072   -0.6762 H   0  0  0  0  0  0  0  0  0  0  0  0
   -0.4863    3.7823    0.9488 H   0  0  0  0  0  0  0  0  0  0  0  0
   -1.8195    3.6198   -1.9407 H   0  0  0  0  0  0  0  0  0  0  0  0
   -2.5830    4.2468   -0.3236 H   0  0  0  0  0  0  0  0  0  0  0  0
   -4.1702   -1.7595   -1.5876 O   0  0  0  0  0  0  0  0  0  0  0  0
   -4.6587   -0.7281   -0.7851 C   0  0  0  0  0  0  0  0  0  0  0  0
   -5.3329   -1.2854    0.2889 O   0  0  0  0  0  0  0  0  0  0  0  0
   -3.4366    0.0413   -0.2605 C   0  0  0  0  0  0  0  0  0  0  0  0
   -2.6902    0.6079   -1.4533 C   0  0  0  0  0  0  0  0  0  0  0  0
   -1.4063    1.1255   -1.0876 N   0  0  0  0  0  0  0  0  0  0  0  0
   -0.6011    0.0422   -0.5750 C   0  0  0  0  0  0  0  0  0  0  0  0
    0.8449    0.4354   -0.3650 C   0  0  0  0  0  0  0  0  0  0  0  0
    1.6081   -0.6958    0.2533 C   0  0  0  0  0  0  0  0  0  0  0  0
    2.9409   -0.8749   -0.2548 N   0  0  0  0  0  0  0  0  0  0  0  0
    3.8230   -1.2568    0.8453 C   0  0  0  0  0  0  0  0  0  0  0  0
    4.3911   -0.0044    1.4730 C   0  0  0  0  0  0  0  0  0  0  0  0
    5.4235    0.4853    0.6019 N   0  0  0  0  0  0  0  0  0  0  0  0
    4.9861    0.3028   -0.7743 C   0  0  0  0  0  0  0  0  0  0  0  0
    3.4658    0.3162   -0.8929 C   0  0  0  0  0  0  0  0  0  0  0  0
    0.8267   -1.9960    0.1498 C   0  0  0  0  0  0  0  0  0  0  0  0
    1.5523   -3.0381    0.6937 F   0  0  0  0  0  0  0  0  0  0  0  0
   -0.3995   -1.8070    1.0351 C   0  0  0  0  0  0  0  0  0  0  0  0
   -1.1980   -0.5772    0.6587 C   0  0  0  0  0  0  0  0  0  0  0  0
   -2.5908   -1.0311    0.3869 C   0  0  0  0  0  0  0  0  0  0  0  0
   -3.2258   -1.5193    1.5247 O   0  0  0  0  0  0  0  0  0  0  0  0
   -1.5548    2.2183   -0.1581 C   0  0  0  0  0  0  0  0  0  0  0  0
   -0.5891    3.3104   -0.0650 C   0  0  0  0  0  0  0  0  0  0  0  0
   -1.8771    3.5555   -0.8294 C   0  0  0  0  0  0  0  0  0  0  0  0
   -3.3121    1.4528   -1.8335 H   0  0  0  0  0  0  0  0  0  0  0  0
    0.9414    1.3161    0.3030 H   0  0  0  0  0  0  0  0  0  0  0  0
    4.5900   -1.9353    0.4558 H   0  0  0  0  0  0  0  0  0  0  0  0
    3.2324   -1.7740    1.6535 H   0  0  0  0  0  0  0  0  0  0  0  0
    4.8502   -0.2903    2.4583 H   0  0  0  0  0  0  0  0  0  0  0  0
    3.5964    0.7371    1.5966 H   0  0  0  0  0  0  0  0  0  0  0  0
    6.2628   -0.1377    0.7382 H   0  0  0  0  0  0  0  0  0  0  0  0
    5.3351   -0.6548   -1.1811 H   0  0  0  0  0  0  0  0  0  0  0  0
    5.4203    1.1413   -1.3503 H   0  0  0  0  0  0  0  0  0  0  0  0
    3.2468    0.2753   -1.9780 H   0  0  0  0  0  0  0  0  0  0  0  0
    3.0252    1.2568   -0.5076 H   0  0  0  0  0  0  0  0  0  0  0  0
   -1.0002   -2.7365    1.0555 H   0  0  0  0  0  0  0  0  0  0  0  0
   -2.1765    1.9949    0.7090 H   0  0  0  0  0  0  0  0  0  0  0  0
    0.3045    3.4073   -0.6761 H   0  0  0  0  0  0  0  0  0  0  0  0
   -0.4863    3.7823    0.9488 H   0  0  0  0  0  0  0  0  0  0  0  0
   -1.8195    3.6198   -1.9407 H   0  0  0  0  0  0  0  0  0  0  0  0
   -2.5830    4.2468   -0.3236 H   0  0  0  0  0  0  0  0  0  0  0  0
   -4.3457   -2.6552   -1.1574 H   0  0  0  0  0  0  0  0  0  0  0  0
   -5.2511   -0.0299   -1.3954 H   0  0  0  0  0  0  0  0  0  0  0  0
   -6.0001   -1.9640    0.0246 H   0  0  0  0  0  0  0  0  0  0  0  0
   -3.8065    0.7969    0.4387 H   0  0  0  0  0  0  0  0  0  0  0  0
   -2.6456   -0.2142   -2.1889 H   0  0  0  0  0  0  0  0  0  0  0  0
   -0.6078   -0.7392   -1.3788 H   0  0  0  0  0  0  0  0  0  0  0  0
    1.2619    0.7043   -1.3675 H   0  0  0  0  0  0  0  0  0  0  0  0
    1.6933   -0.5198    1.3682 H   0  0  0  0  0  0  0  0  0  0  0  0
    0.5959   -2.2792   -0.8796 H   0  0  0  0  0  0  0  0  0  0  0  0
    0.0081   -1.6442    2.0619 H   0  0  0  0  0  0  0  0  0  0  0  0
   -1.1953    0.2050    1.4506 H   0  0  0  0  0  0  0  0  0  0  0  0
   -2.5356   -1.8688   -0.3371 H   0  0  0  0  0  0  0  0  0  0  0  0
   -2.7304   -1.3605    2.3400 H   0  0  0  0  0  0  0  0  0  0  0  0
   -4.3457   -2.6552   -1.1574 H   0  0  0  0  0  0  0  0  0  0  0  0
   -5.2511   -0.0299   -1.3954 H   0  0  0  0  0  0  0  0  0  0  0  0
   -6.0001   -1.9640    0.0247 H   0  0  0  0  0  0  0  0  0  0  0  0
   -3.8065    0.7968    0.4387 H   0  0  0  0  0  0  0  0  0  0  0  0
   -2.6456   -0.2142   -2.1889 H   0  0  0  0  0  0  0  0  0  0  0  0
   -0.6077   -0.7392   -1.3788 H   0  0  0  0  0  0  0  0  0  0  0  0
    1.2619    0.7043   -1.3675 H   0  0  0  0  0  0  0  0  0  0  0  0
    1.6933   -0.5198    1.3682 H   0  0  0  0  0  0  0  0  0  0  0  0
    0.5959   -2.2792   -0.8796 H   0  0  0  0  0  0  0  0  0  0  0  0
    0.0081   -1.6442    2.0619 H   0  0  0  0  0  0  0  0  0  0  0  0
   -1.1953    0.2050    1.4507 H   0  0  0  0  0  0  0  0  0  0  0  0
   -2.5356   -1.8688   -0.3371 H   0  0  0  0  0  0  0  0  0  0  0  0
   -2.7304   -1.3605    2.3400 H   0  0  0  0  0  0  0  0  0  0  0  0
  1  2  1  0
  2  3  1  0
  2  4  1  0
  4  5  1  0
  5  6  1  0
  6  7  1  0
  7  8  1  0
  8  9  1  0
  9 10  1  0
 10 11  1  0
 11 12  1  0
 12 13  1  0
 13 14  1  0
 10 15  1  0
 14 15  1  0
  9 16  1  0
 16 17  1  0
 16 18  1  0
  7 19  1  0
 18 19  1  0
  4 20  1  0
 19 20  1  0
 20 21  1  0
  6 22  1  0
 22 23  1  0
 22 24  1  0
 23 24  1  0
  5 25  1  0
  8 26  1  0
 11 27  1  0
 11 28  1  0
 12 29  1  0
 12 30  1  0
 13 31  1  0
 14 32  1  0
 14 33  1  0
 15 34  1  0
 15 35  1  0
 18 36  1  0
 22 37  1  0
 23 38  1  0
 23 39  1  0
 24 40  1  0
 24 41  1  0
 43 42  1  0
 43 44  1  0
 43 45  1  0
 45 46  1  0
 46 47  1  0
 47 48  1  0
 48 49  1  0
 49 50  1  0
 50 51  1  0
 51 52  1  0
 52 53  1  0
 53 54  1  0
 54 55  1  0
 51 56  1  0
 55 56  1  0
 50 57  1  0
 57 58  1  0
 57 59  1  0
 48 60  1  0
 59 60  1  0
 45 61  1  0
 60 61  1  0
 61 62  1  0
 47 63  1  0
 63 64  1  0
 63 65  1  0
 64 65  1  0
 46 66  1  0
 49 67  1  0
 52 68  1  0
 52 69  1  0
 53 70  1  0
 53 71  1  0
 54 72  1  0
 55 73  1  0
 55 74  1  0
 56 75  1  0
 56 76  1  0
 59 77  1  0
 63 78  1  0
 64 79  1  0
 64 80  1  0
 65 81  1  0
 65 82  1  0
  1 83  1  0
  2 84  1  0
  3 85  1  0
  4 86  1  0
  5 87  1  0
  7 88  1  0
  8 89  1  0
  9 90  1  0
 16 91  1  0
 18 92  1  0
 19 93  1  0
 20 94  1  0
 21 95  1  0
 42 96  1  0
 43 97  1  0
 44 98  1  0
 45 99  1  0
 46100  1  0
 48101  1  0
 49102  1  0
 50103  1  0
 57104  1  0
 59105  1  0
 60106  1  0
 61107  1  0
 62108  1  0
M  END
>  <PDBID>  (1) 
5BTC

>  <PDB ID>  (1) 
5BTC

>  <Generic Name>  (1) 
Ciprofloxacin

>  <Brand Name>  (1) 
Act Ciprofloxacin#Apo-ciproflox#Auro-ciprofloxacin#Bio-ciprofloxacin#Ciloxan#Cipro#Cipro 100 - Tab 100mg#Cipro 250 - Tab 250mg#Cipro 500 - Tab 500mg#Cipro 750 - Tab 750mg#Cipro HC#Cipro HC Otic Suspension#Cipro I.V. - Liq 10mg/ml#Cipro I.V. Minibags 2mg/ml#Cipro IV 10mg/ml#Cipro Oral Suspension 10%#Cipro Tab 100mg#Cipro Tab 250mg#Cipro Tab 500mg#Cipro Tab 750mg#Cipro XL#Ciprodex#Ciprofloxacin#Ciprofloxacin Extended-release#Ciprofloxacin Hydrochloride#Ciprofloxacin Injection#Ciprofloxacin Injection USP#Ciprofloxacin Injection, USP#Ciprofloxacin Intravenous Infusion#Ciprofloxacin Intravenous Infusion BP#Ciprofloxacin Intravenous Infusion, BP#Ciprofloxacin Omega#Ciprofloxacin Otic#Ciprofloxacin Tablets#Ciprofloxacin Tablets USP - 100 mg#Ciprofloxacin Tablets USP - 250 mg#Ciprofloxacin Tablets USP - 500 mg#Ciprofloxacin Tablets USP - 750 mg#Ciprofloxacin-250#Ciprofloxacin-500#Ciprofloxacin-750#Dom-ciprofloxacin#Ipg-ciprofloxacin#Jamp-ciprofloxacin#Mar-ciprofloxacin#Mint-ciproflox#Mint-ciprofloxacin#Mylan-ciprofloxacin#Mylan-ciprofloxacin XL#Nu-ciproflox#Nu-ciprofloxacin Tablets#Otiprio#Otixal#Otovel#PHL-ciprofloxacin#PMS-ciprofloxacin#PMS-ciprofloxacin 0.3%#PMS-ciprofloxacin XL#Priva-ciprofloxacin#Pro-ciprofloxacin#Proquin XR#Q-ciprofloxacin#Ran-ciproflox#Ran-ciprofloxacin#Ratio-ciprofloxacin#Riva-ciprofloxacin#Sandoz Ciprofloxacin#Septa-ciprofloxacin#Taro-ciprofloxacin#Teva-ciprofloxacin#Van-ciprofloxacin#Bacquinor#Baycip#Ciflox#Cifloxin#Ciprinol#Ciprobay#Ciprocinol#Ciprodar#Ciproxan#Ciproxin#Flociprin#Proquin

>  <DrugBank ID>  (1) 
DB00537

>  <ATC Codes>  (1) 
J01MA02#J01RA11#J01RA12#S02AA15#S03AA07#S01AE03#J01RA10

>  <Ligand ID>  (1) 
CPF

>  <Target Name>  (1) 
DNA gyrase subunit A

>  <UniProt ID>  (1) 
P43700

>  <PDB ID.1>  (1) 
5BTC

>  <Seq. Identity>  (1) 
48%

$$$$
