PDB_DB01041_06
     RDKit          3D

172180  0  0  0  0  0  0  0  0999 V2000
   -1.9565    0.3446    2.4976 O   0  0  0  0  0  0  0  0  0  0  0  0
   -2.5245    0.0356    1.2851 C   0  0  0  0  0  0  0  0  0  0  0  0
   -3.5227    0.9758    0.8381 N   0  0  0  0  0  0  0  0  0  0  0  0
   -3.8028    0.6958   -0.5524 C   0  0  0  0  0  0  0  0  0  0  0  0
   -5.1238    1.0662   -0.7917 O   0  0  0  0  0  0  0  0  0  0  0  0
   -3.6390   -0.7724   -0.8843 C   0  0  0  0  0  0  0  0  0  0  0  0
   -2.1597   -1.1527   -0.8015 C   0  0  0  0  0  0  0  0  0  0  0  0
   -1.5313   -0.2069    0.1832 C   0  0  2  0  0  0  0  0  0  0  0  0
   -0.2726   -0.6614    0.6601 N   0  0  0  0  0  0  0  0  0  0  0  0
    4.1137    0.0240   -0.7350 C   0  0  0  0  0  0  0  0  0  0  0  0
    2.8246   -0.6015   -1.2017 C   0  0  0  0  0  0  0  0  0  0  0  0
    1.9615   -0.8148   -0.0052 C   0  0  0  0  0  0  0  0  0  0  0  0
    1.6544    0.5968    0.5251 C   0  0  0  0  0  0  0  0  0  0  0  0
    0.5562   -2.6787   -0.0420 O   0  0  0  0  0  0  0  0  0  0  0  0
    0.8646   -0.2175    2.6073 O   0  0  0  0  0  0  0  0  0  0  0  0
    2.8859    1.0457    1.2210 C   0  0  0  0  0  0  0  0  0  0  0  0
    3.9607    1.1958    0.1606 C   0  0  0  0  0  0  0  0  0  0  0  0
    0.4690    0.2996    1.4002 C   0  0  2  0  0  0  0  0  0  0  0  0
    0.5729   -1.2917   -0.2993 C   0  0  0  0  0  0  0  0  0  0  0  0
   -1.9565    0.3446    2.4976 O   0  0  0  0  0  0  0  0  0  0  0  0
   -2.5245    0.0356    1.2851 C   0  0  0  0  0  0  0  0  0  0  0  0
   -3.5227    0.9758    0.8381 N   0  0  0  0  0  0  0  0  0  0  0  0
   -3.8028    0.6958   -0.5524 C   0  0  0  0  0  0  0  0  0  0  0  0
   -5.1238    1.0662   -0.7917 O   0  0  0  0  0  0  0  0  0  0  0  0
   -3.6390   -0.7724   -0.8843 C   0  0  0  0  0  0  0  0  0  0  0  0
   -2.1597   -1.1527   -0.8015 C   0  0  0  0  0  0  0  0  0  0  0  0
   -1.5313   -0.2069    0.1832 C   0  0  2  0  0  0  0  0  0  0  0  0
   -0.2726   -0.6614    0.6601 N   0  0  0  0  0  0  0  0  0  0  0  0
    4.1137    0.0240   -0.7350 C   0  0  0  0  0  0  0  0  0  0  0  0
    2.8246   -0.6015   -1.2017 C   0  0  0  0  0  0  0  0  0  0  0  0
    1.9615   -0.8148   -0.0052 C   0  0  0  0  0  0  0  0  0  0  0  0
    1.6544    0.5968    0.5251 C   0  0  0  0  0  0  0  0  0  0  0  0
    0.5562   -2.6787   -0.0420 O   0  0  0  0  0  0  0  0  0  0  0  0
    0.8646   -0.2175    2.6073 O   0  0  0  0  0  0  0  0  0  0  0  0
    2.8859    1.0457    1.2210 C   0  0  0  0  0  0  0  0  0  0  0  0
    3.9607    1.1958    0.1606 C   0  0  0  0  0  0  0  0  0  0  0  0
    0.4690    0.2996    1.4002 C   0  0  2  0  0  0  0  0  0  0  0  0
    0.5729   -1.2917   -0.2993 C   0  0  0  0  0  0  0  0  0  0  0  0
   -1.9832    0.7949    2.4881 O   0  0  0  0  0  0  0  0  0  0  0  0
   -2.4799    0.0514    1.4510 C   0  0  0  0  0  0  0  0  0  0  0  0
   -3.7468    0.6011    1.0426 N   0  0  0  0  0  0  0  0  0  0  0  0
   -3.9425    0.4609   -0.3716 C   0  0  0  0  0  0  0  0  0  0  0  0
   -5.2771    0.7704   -0.6490 O   0  0  0  0  0  0  0  0  0  0  0  0
   -3.6503   -0.9672   -0.7482 C   0  0  0  0  0  0  0  0  0  0  0  0
   -2.1493   -1.1976   -0.6281 C   0  0  0  0  0  0  0  0  0  0  0  0
   -1.5625   -0.1643    0.2951 C   0  0  2  0  0  0  0  0  0  0  0  0
   -0.2320   -0.4875    0.6804 N   0  0  0  0  0  0  0  0  0  0  0  0
    4.2006   -0.0631   -0.6784 C   0  0  0  0  0  0  0  0  0  0  0  0
    2.9306   -0.7156   -1.0662 C   0  0  0  0  0  0  0  0  0  0  0  0
    1.9661   -0.8243    0.0554 C   0  0  0  0  0  0  0  0  0  0  0  0
    1.8226    0.6204    0.5703 C   0  0  0  0  0  0  0  0  0  0  0  0
    0.3836   -2.5338   -0.1164 O   0  0  0  0  0  0  0  0  0  0  0  0
   -0.1515    1.7700    0.8915 O   0  0  0  0  0  0  0  0  0  0  0  0
    3.0416    0.8100    1.3945 C   0  0  0  0  0  0  0  0  0  0  0  0
    4.1884    0.9178    0.4078 C   0  0  0  0  0  0  0  0  0  0  0  0
    0.5106    0.5742    1.2834 C   0  0  0  0  0  0  0  0  0  0  0  0
    0.5671   -1.1432   -0.3131 C   0  0  0  0  0  0  0  0  0  0  0  0
   -1.9565    0.3446    2.4976 O   0  0  0  0  0  0  0  0  0  0  0  0
   -2.5245    0.0356    1.2851 C   0  0  0  0  0  0  0  0  0  0  0  0
   -3.5227    0.9758    0.8381 N   0  0  0  0  0  0  0  0  0  0  0  0
   -3.8028    0.6958   -0.5524 C   0  0  0  0  0  0  0  0  0  0  0  0
   -5.1238    1.0662   -0.7917 O   0  0  0  0  0  0  0  0  0  0  0  0
   -3.6390   -0.7724   -0.8843 C   0  0  0  0  0  0  0  0  0  0  0  0
   -2.1597   -1.1527   -0.8015 C   0  0  0  0  0  0  0  0  0  0  0  0
   -1.5313   -0.2069    0.1832 C   0  0  2  0  0  0  0  0  0  0  0  0
   -0.2726   -0.6614    0.6601 N   0  0  0  0  0  0  0  0  0  0  0  0
    4.1137    0.0240   -0.7350 C   0  0  0  0  0  0  0  0  0  0  0  0
    2.8246   -0.6015   -1.2017 C   0  0  0  0  0  0  0  0  0  0  0  0
    1.9615   -0.8148   -0.0052 C   0  0  0  0  0  0  0  0  0  0  0  0
    1.6544    0.5968    0.5251 C   0  0  0  0  0  0  0  0  0  0  0  0
    0.5562   -2.6787   -0.0420 O   0  0  0  0  0  0  0  0  0  0  0  0
    0.8646   -0.2175    2.6073 O   0  0  0  0  0  0  0  0  0  0  0  0
    2.8859    1.0457    1.2210 C   0  0  0  0  0  0  0  0  0  0  0  0
    3.9607    1.1958    0.1606 C   0  0  0  0  0  0  0  0  0  0  0  0
    0.4690    0.2996    1.4002 C   0  0  2  0  0  0  0  0  0  0  0  0
    0.5729   -1.2917   -0.2993 C   0  0  0  0  0  0  0  0  0  0  0  0
   -2.5860    0.8810    3.0132 H   0  0  0  0  0  0  0  0  0  0  0  0
   -3.0881   -0.9334    1.4530 H   0  0  0  0  0  0  0  0  0  0  0  0
   -3.2010    1.9710    0.9652 H   0  0  0  0  0  0  0  0  0  0  0  0
   -3.1594    1.2789   -1.2281 H   0  0  0  0  0  0  0  0  0  0  0  0
   -5.1819    2.0355   -0.5801 H   0  0  0  0  0  0  0  0  0  0  0  0
   -4.2452   -1.3679   -0.1764 H   0  0  0  0  0  0  0  0  0  0  0  0
   -4.0418   -0.9518   -1.8943 H   0  0  0  0  0  0  0  0  0  0  0  0
   -2.1256   -2.2029   -0.4478 H   0  0  0  0  0  0  0  0  0  0  0  0
   -1.7362   -1.0528   -1.8297 H   0  0  0  0  0  0  0  0  0  0  0  0
   -1.3320    0.7471   -0.3899 H   0  0  0  0  0  0  0  0  0  0  0  0
    4.7803   -0.7285   -0.2628 H   0  0  0  0  0  0  0  0  0  0  0  0
    4.6575    0.3683   -1.6511 H   0  0  0  0  0  0  0  0  0  0  0  0
    3.0681   -1.5149   -1.7647 H   0  0  0  0  0  0  0  0  0  0  0  0
    2.3270    0.1232   -1.8785 H   0  0  0  0  0  0  0  0  0  0  0  0
    2.4950   -1.4207    0.7388 H   0  0  0  0  0  0  0  0  0  0  0  0
    1.3920    1.1925   -0.3618 H   0  0  0  0  0  0  0  0  0  0  0  0
    0.7569   -2.7814    0.9314 H   0  0  0  0  0  0  0  0  0  0  0  0
    1.1500    0.4782    3.2552 H   0  0  0  0  0  0  0  0  0  0  0  0
    2.7050    2.0513    1.6574 H   0  0  0  0  0  0  0  0  0  0  0  0
    3.1774    0.2995    1.9790 H   0  0  0  0  0  0  0  0  0  0  0  0
    3.7613    2.1547   -0.3706 H   0  0  0  0  0  0  0  0  0  0  0  0
    4.9206    1.3493    0.7006 H   0  0  0  0  0  0  0  0  0  0  0  0
   -0.0762    1.2872    1.4974 H   0  0  0  0  0  0  0  0  0  0  0  0
    0.2515   -1.1457   -1.3473 H   0  0  0  0  0  0  0  0  0  0  0  0
   -2.5860    0.8810    3.0132 H   0  0  0  0  0  0  0  0  0  0  0  0
   -3.0881   -0.9334    1.4530 H   0  0  0  0  0  0  0  0  0  0  0  0
   -3.2010    1.9710    0.9652 H   0  0  0  0  0  0  0  0  0  0  0  0
   -3.1594    1.2789   -1.2281 H   0  0  0  0  0  0  0  0  0  0  0  0
   -5.1819    2.0355   -0.5801 H   0  0  0  0  0  0  0  0  0  0  0  0
   -4.2452   -1.3679   -0.1764 H   0  0  0  0  0  0  0  0  0  0  0  0
   -4.0418   -0.9518   -1.8943 H   0  0  0  0  0  0  0  0  0  0  0  0
   -2.1256   -2.2029   -0.4478 H   0  0  0  0  0  0  0  0  0  0  0  0
   -1.7362   -1.0528   -1.8297 H   0  0  0  0  0  0  0  0  0  0  0  0
   -1.3320    0.7471   -0.3899 H   0  0  0  0  0  0  0  0  0  0  0  0
    4.7803   -0.7285   -0.2628 H   0  0  0  0  0  0  0  0  0  0  0  0
    4.6575    0.3683   -1.6511 H   0  0  0  0  0  0  0  0  0  0  0  0
    3.0681   -1.5149   -1.7647 H   0  0  0  0  0  0  0  0  0  0  0  0
    2.3270    0.1232   -1.8785 H   0  0  0  0  0  0  0  0  0  0  0  0
    2.4950   -1.4207    0.7388 H   0  0  0  0  0  0  0  0  0  0  0  0
    1.3920    1.1925   -0.3618 H   0  0  0  0  0  0  0  0  0  0  0  0
    0.7569   -2.7814    0.9314 H   0  0  0  0  0  0  0  0  0  0  0  0
    1.1500    0.4782    3.2552 H   0  0  0  0  0  0  0  0  0  0  0  0
    2.7050    2.0513    1.6574 H   0  0  0  0  0  0  0  0  0  0  0  0
    3.1774    0.2995    1.9790 H   0  0  0  0  0  0  0  0  0  0  0  0
    3.7613    2.1547   -0.3706 H   0  0  0  0  0  0  0  0  0  0  0  0
    4.9206    1.3493    0.7006 H   0  0  0  0  0  0  0  0  0  0  0  0
   -0.0762    1.2872    1.4974 H   0  0  0  0  0  0  0  0  0  0  0  0
    0.2515   -1.1457   -1.3473 H   0  0  0  0  0  0  0  0  0  0  0  0
   -2.3894    1.7151    2.5313 H   0  0  0  0  0  0  0  0  0  0  0  0
   -2.6814   -0.9774    1.8796 H   0  0  0  0  0  0  0  0  0  0  0  0
   -3.9313    1.5456    1.4171 H   0  0  0  0  0  0  0  0  0  0  0  0
   -3.3418    1.1582   -0.9848 H   0  0  0  0  0  0  0  0  0  0  0  0
   -5.3815    1.7426   -0.5101 H   0  0  0  0  0  0  0  0  0  0  0  0
   -4.2069   -1.6231   -0.0423 H   0  0  0  0  0  0  0  0  0  0  0  0
   -3.9997   -1.1966   -1.7809 H   0  0  0  0  0  0  0  0  0  0  0  0
   -1.9422   -2.2142   -0.2463 H   0  0  0  0  0  0  0  0  0  0  0  0
   -1.7538   -1.1056   -1.6641 H   0  0  0  0  0  0  0  0  0  0  0  0
   -1.4693    0.7753   -0.3322 H   0  0  0  0  0  0  0  0  0  0  0  0
    4.9436   -0.8668   -0.4492 H   0  0  0  0  0  0  0  0  0  0  0  0
    4.6093    0.4389   -1.6049 H   0  0  0  0  0  0  0  0  0  0  0  0
    3.1454   -1.7041   -1.5509 H   0  0  0  0  0  0  0  0  0  0  0  0
    2.4248   -0.1158   -1.8787 H   0  0  0  0  0  0  0  0  0  0  0  0
    2.3504   -1.4871    0.8465 H   0  0  0  0  0  0  0  0  0  0  0  0
    1.8383    1.3083   -0.2922 H   0  0  0  0  0  0  0  0  0  0  0  0
    0.8593   -2.8443    0.6975 H   0  0  0  0  0  0  0  0  0  0  0  0
    0.1501    2.0639   -0.0140 H   0  0  0  0  0  0  0  0  0  0  0  0
    3.0350    1.6789    2.0496 H   0  0  0  0  0  0  0  0  0  0  0  0
    3.2463   -0.1268    1.9928 H   0  0  0  0  0  0  0  0  0  0  0  0
    4.1150    1.9649   -0.0089 H   0  0  0  0  0  0  0  0  0  0  0  0
    5.1204    0.9038    1.0050 H   0  0  0  0  0  0  0  0  0  0  0  0
    0.5491    0.5914    2.3699 H   0  0  0  0  0  0  0  0  0  0  0  0
    0.2738   -0.8996   -1.3455 H   0  0  0  0  0  0  0  0  0  0  0  0
   -2.5860    0.8810    3.0132 H   0  0  0  0  0  0  0  0  0  0  0  0
   -3.0881   -0.9334    1.4530 H   0  0  0  0  0  0  0  0  0  0  0  0
   -3.2010    1.9710    0.9652 H   0  0  0  0  0  0  0  0  0  0  0  0
   -3.1594    1.2789   -1.2281 H   0  0  0  0  0  0  0  0  0  0  0  0
   -5.1819    2.0355   -0.5801 H   0  0  0  0  0  0  0  0  0  0  0  0
   -4.2452   -1.3679   -0.1764 H   0  0  0  0  0  0  0  0  0  0  0  0
   -4.0418   -0.9518   -1.8943 H   0  0  0  0  0  0  0  0  0  0  0  0
   -2.1256   -2.2029   -0.4478 H   0  0  0  0  0  0  0  0  0  0  0  0
   -1.7362   -1.0528   -1.8297 H   0  0  0  0  0  0  0  0  0  0  0  0
   -1.3320    0.7471   -0.3899 H   0  0  0  0  0  0  0  0  0  0  0  0
    4.7803   -0.7285   -0.2628 H   0  0  0  0  0  0  0  0  0  0  0  0
    4.6575    0.3683   -1.6511 H   0  0  0  0  0  0  0  0  0  0  0  0
    3.0681   -1.5149   -1.7647 H   0  0  0  0  0  0  0  0  0  0  0  0
    2.3270    0.1232   -1.8785 H   0  0  0  0  0  0  0  0  0  0  0  0
    2.4950   -1.4207    0.7388 H   0  0  0  0  0  0  0  0  0  0  0  0
    1.3920    1.1925   -0.3618 H   0  0  0  0  0  0  0  0  0  0  0  0
    0.7569   -2.7814    0.9314 H   0  0  0  0  0  0  0  0  0  0  0  0
    1.1500    0.4782    3.2552 H   0  0  0  0  0  0  0  0  0  0  0  0
    2.7050    2.0513    1.6574 H   0  0  0  0  0  0  0  0  0  0  0  0
    3.1774    0.2995    1.9790 H   0  0  0  0  0  0  0  0  0  0  0  0
    3.7613    2.1547   -0.3706 H   0  0  0  0  0  0  0  0  0  0  0  0
    4.9206    1.3493    0.7006 H   0  0  0  0  0  0  0  0  0  0  0  0
   -0.0762    1.2872    1.4974 H   0  0  0  0  0  0  0  0  0  0  0  0
    0.2515   -1.1457   -1.3473 H   0  0  0  0  0  0  0  0  0  0  0  0
  1  2  1  0
  2  3  1  0
  3  4  1  0
  4  5  1  0
  4  6  1  0
  6  7  1  0
  2  8  1  0
  7  8  1  0
  8  9  1  0
 10 11  1  0
 11 12  1  0
 12 13  1  0
 13 16  1  0
 10 17  1  0
 16 17  1  0
  9 18  1  0
 13 18  1  0
 15 18  1  0
  9 19  1  0
 12 19  1  0
 14 19  1  0
 20 21  1  0
 21 22  1  0
 22 23  1  0
 23 24  1  0
 23 25  1  0
 25 26  1  0
 21 27  1  0
 26 27  1  0
 27 28  1  0
 29 30  1  0
 30 31  1  0
 31 32  1  0
 32 35  1  0
 29 36  1  0
 35 36  1  0
 28 37  1  0
 32 37  1  0
 34 37  1  0
 28 38  1  0
 31 38  1  0
 33 38  1  0
 39 40  1  0
 40 41  1  0
 41 42  1  0
 42 43  1  0
 42 44  1  0
 44 45  1  0
 40 46  1  0
 45 46  1  0
 46 47  1  0
 48 49  1  0
 49 50  1  0
 50 51  1  0
 51 54  1  0
 48 55  1  0
 54 55  1  0
 47 56  1  0
 51 56  1  0
 53 56  1  0
 47 57  1  0
 50 57  1  0
 52 57  1  0
 58 59  1  0
 59 60  1  0
 60 61  1  0
 61 62  1  0
 61 63  1  0
 63 64  1  0
 59 65  1  0
 64 65  1  0
 65 66  1  0
 67 68  1  0
 68 69  1  0
 69 70  1  0
 70 73  1  0
 67 74  1  0
 73 74  1  0
 66 75  1  0
 70 75  1  0
 72 75  1  0
 66 76  1  0
 69 76  1  0
 71 76  1  0
  1 77  1  0
  2 78  1  0
  3 79  1  0
  4 80  1  0
  5 81  1  0
  6 82  1  0
  6 83  1  0
  7 84  1  0
  7 85  1  0
  8 86  1  6
 10 87  1  0
 10 88  1  0
 11 89  1  0
 11 90  1  0
 12 91  1  0
 13 92  1  0
 14 93  1  0
 15 94  1  0
 16 95  1  0
 16 96  1  0
 17 97  1  0
 17 98  1  0
 18 99  1  1
 19100  1  0
 20101  1  0
 21102  1  0
 22103  1  0
 23104  1  0
 24105  1  0
 25106  1  0
 25107  1  0
 26108  1  0
 26109  1  0
 27110  1  6
 29111  1  0
 29112  1  0
 30113  1  0
 30114  1  0
 31115  1  0
 32116  1  0
 33117  1  0
 34118  1  0
 35119  1  0
 35120  1  0
 36121  1  0
 36122  1  0
 37123  1  1
 38124  1  0
 39125  1  0
 40126  1  0
 41127  1  0
 42128  1  0
 43129  1  0
 44130  1  0
 44131  1  0
 45132  1  0
 45133  1  0
 46134  1  6
 48135  1  0
 48136  1  0
 49137  1  0
 49138  1  0
 50139  1  0
 51140  1  0
 52141  1  0
 53142  1  0
 54143  1  0
 54144  1  0
 55145  1  0
 55146  1  0
 56147  1  0
 57148  1  0
 58149  1  0
 59150  1  0
 60151  1  0
 61152  1  0
 62153  1  0
 63154  1  0
 63155  1  0
 64156  1  0
 64157  1  0
 65158  1  6
 67159  1  0
 67160  1  0
 68161  1  0
 68162  1  0
 69163  1  0
 70164  1  0
 71165  1  0
 72166  1  0
 73167  1  0
 73168  1  0
 74169  1  0
 74170  1  0
 75171  1  1
 76172  1  0
M  END
>  <PDBID>  (1) 
4TZC

>  <PDB ID>  (1) 
4TZC

>  <Generic Name>  (1) 
Thalidomide

>  <Brand Name>  (1) 
Thalomid#Contergan#Distaval#K-17#Pro-ban M#Sedalis#Softenon#Talimol#Thaled

>  <DrugBank ID>  (1) 
DB01041

>  <ATC Codes>  (1) 
L04AX02

>  <Ligand ID>  (1) 
EF2

>  <Target Name>  (1) 
Protein cereblon

>  <UniProt ID>  (1) 
Q96SW2

>  <PDB ID.1>  (1) 
4TZC

>  <Seq. Identity>  (1) 
97%

$$$$
