PDB_DB00218_04
     RDKit          3D

390414  0  0  0  0  0  0  0  0999 V2000
    0.3799    0.3984   -2.3819 F   0  0  0  0  0  0  0  0  0  0  0  0
    0.0166   -0.5339    1.8306 O   0  0  0  0  0  0  0  0  0  0  0  0
   -3.2699   -1.3293   -2.9958 O   0  0  0  0  0  0  0  0  0  0  0  0
   -5.9364    0.7690   -0.3455 O   0  0  0  0  0  0  0  0  0  0  0  0
   -5.3581    0.6334   -2.4830 O   0  0  0  0  0  0  0  0  0  0  0  0
    1.6978    0.6418   -0.2099 N   0  0  0  0  0  0  0  0  0  0  0  0
    4.5664   -0.0745    1.1565 N   0  0  0  0  0  0  0  0  0  0  0  0
   -2.2858   -0.0627    0.8903 N   0  0  0  0  0  0  0  0  0  0  0  0
    3.8859    1.4622   -0.6429 C   0  0  2  0  0  0  0  0  0  0  0  0
    3.8243    1.0756    0.7814 C   0  0  1  0  0  0  0  0  0  0  0  0
    2.6456    0.8866   -1.2696 C   0  0  0  0  0  0  0  0  0  0  0  0
    2.3509    0.8681    1.0447 C   0  0  0  0  0  0  0  0  0  0  0  0
    5.1286    1.0520   -1.3677 C   0  0  0  0  0  0  0  0  0  0  0  0
   -2.1699    1.1036    1.6605 C   0  0  0  0  0  0  0  0  0  0  0  0
    5.7004   -0.2551   -0.9204 C   0  0  0  0  0  0  0  0  0  0  0  0
   -3.2034    2.1271    1.8679 C   0  0  0  0  0  0  0  0  0  0  0  0
   -2.8057    1.1564    3.0074 C   0  0  0  0  0  0  0  0  0  0  0  0
    5.8684   -0.1808    0.5887 C   0  0  0  0  0  0  0  0  0  0  0  0
    1.1180   -0.6680   -0.3439 C   0  0  1  0  0  0  0  0  0  0  0  0
   -1.2576   -0.2483   -0.0973 C   0  0  1  0  0  0  0  0  0  0  0  0
   -0.0320   -0.9390    0.5372 C   0  0  2  0  0  0  0  0  0  0  0  0
   -1.7512   -1.2787   -1.1139 C   0  0  0  0  0  0  0  0  0  0  0  0
    0.6427   -0.8151   -1.7842 C   0  0  0  0  0  0  0  0  0  0  0  0
   -3.5546   -0.5382    0.5531 C   0  0  0  0  0  0  0  0  0  0  0  0
   -0.5760   -1.6748   -1.9295 C   0  0  0  0  0  0  0  0  0  0  0  0
   -4.0132   -0.4543   -0.8656 C   0  0  2  0  0  0  0  0  0  0  0  0
   -2.8525   -0.6119   -1.8644 C   0  0  0  0  0  0  0  0  0  0  0  0
   -4.8261    0.7667   -1.1735 C   0  0  0  0  0  0  0  0  0  0  0  0
   -0.0640   -1.6210    2.7185 C   0  0  0  0  0  0  0  0  0  0  0  0
    0.2412    0.7705   -2.2824 F   0  0  0  0  0  0  0  0  0  0  0  0
    0.1288   -0.4363    1.8723 O   0  0  0  0  0  0  0  0  0  0  0  0
   -3.3983   -1.4742   -2.7000 O   0  0  0  0  0  0  0  0  0  0  0  0
   -6.2037   -0.4198    0.2772 O   0  0  0  0  0  0  0  0  0  0  0  0
   -5.8419   -0.2842   -1.9224 O   0  0  0  0  0  0  0  0  0  0  0  0
    1.7616    0.8021   -0.2094 N   0  0  0  0  0  0  0  0  0  0  0  0
    4.4566   -0.0661    1.1781 N   0  0  0  0  0  0  0  0  0  0  0  0
   -2.2930   -0.0877    1.0313 N   0  0  0  0  0  0  0  0  0  0  0  0
    4.0037    1.4802   -0.6847 C   0  0  2  0  0  0  0  0  0  0  0  0
    3.9024    1.1812    0.7618 C   0  0  1  0  0  0  0  0  0  0  0  0
    2.7466    0.9096   -1.2970 C   0  0  0  0  0  0  0  0  0  0  0  0
    2.3875    1.1144    0.9877 C   0  0  0  0  0  0  0  0  0  0  0  0
    5.2546    0.9385   -1.3384 C   0  0  0  0  0  0  0  0  0  0  0  0
   -2.2754    1.1293    1.7341 C   0  0  0  0  0  0  0  0  0  0  0  0
    5.6538   -0.4128   -0.8460 C   0  0  0  0  0  0  0  0  0  0  0  0
   -2.5098    2.3711    0.8289 C   0  0  0  0  0  0  0  0  0  0  0  0
   -3.4317    2.0087    1.9519 C   0  0  0  0  0  0  0  0  0  0  0  0
    5.7731   -0.3371    0.6709 C   0  0  0  0  0  0  0  0  0  0  0  0
    1.0913   -0.4346   -0.3716 C   0  0  1  0  0  0  0  0  0  0  0  0
   -1.2949   -0.2548    0.0472 C   0  0  0  0  0  0  0  0  0  0  0  0
    0.0272   -0.7976    0.5694 C   0  0  2  0  0  0  0  0  0  0  0  0
   -1.7319   -1.2119   -1.0243 C   0  0  2  0  0  0  0  0  0  0  0  0
    0.5615   -0.4796   -1.7951 C   0  0  0  0  0  0  0  0  0  0  0  0
   -3.4912   -0.7935    0.8904 C   0  0  0  0  0  0  0  0  0  0  0  0
   -0.6187   -1.3813   -1.9804 C   0  0  0  0  0  0  0  0  0  0  0  0
   -4.0551   -0.9200   -0.4771 C   0  0  2  0  0  0  0  0  0  0  0  0
   -3.0209   -0.7260   -1.5842 C   0  0  0  0  0  0  0  0  0  0  0  0
   -5.2549   -0.0215   -0.6707 C   0  0  0  0  0  0  0  0  0  0  0  0
    0.0877   -1.5271    2.7524 C   0  0  0  0  0  0  0  0  0  0  0  0
    1.2176    1.1845    3.0979 F   0  0  0  0  0  0  0  0  0  0  0  0
   -0.4267   -1.6516    0.9590 O   0  0  0  0  0  0  0  0  0  0  0  0
   -3.4373    0.4670    2.2625 O   0  0  0  0  0  0  0  0  0  0  0  0
   -5.6795    2.4728    0.9366 O   0  0  0  0  0  0  0  0  0  0  0  0
   -5.8198    1.9924   -1.2506 O   0  0  0  0  0  0  0  0  0  0  0  0
    1.9891    0.7128   -0.0211 N   0  0  0  0  0  0  0  0  0  0  0  0
    5.0763    0.0393    0.8003 N   0  0  0  0  0  0  0  0  0  0  0  0
   -2.2089   -0.1507   -1.0012 N   0  0  0  0  0  0  0  0  0  0  0  0
    3.8759    0.4942   -1.2928 C   0  0  2  0  0  0  0  0  0  0  0  0
    4.3637    1.0131    0.0312 C   0  0  1  0  0  0  0  0  0  0  0  0
    2.6359   -0.2884   -0.8322 C   0  0  0  0  0  0  0  0  0  0  0  0
    3.0631    1.3060    0.7559 C   0  0  0  0  0  0  0  0  0  0  0  0
    4.8439   -0.3485   -2.0268 C   0  0  0  0  0  0  0  0  0  0  0  0
   -2.7568   -1.4101   -0.7167 C   0  0  0  0  0  0  0  0  0  0  0  0
    5.5979   -1.3223   -1.1556 C   0  0  0  0  0  0  0  0  0  0  0  0
   -4.1028   -1.7254   -1.3234 C   0  0  0  0  0  0  0  0  0  0  0  0
   -2.9128   -2.4684   -1.7766 C   0  0  0  0  0  0  0  0  0  0  0  0
    6.0958   -0.6646    0.0858 C   0  0  0  0  0  0  0  0  0  0  0  0
    1.0384    0.1456    0.9298 C   0  0  2  0  0  0  0  0  0  0  0  0
   -1.1700    0.3718   -0.2020 C   0  0  2  0  0  0  0  0  0  0  0  0
   -0.1000   -0.5713    0.2005 C   0  0  0  0  0  0  0  0  0  0  0  0
   -1.6327    1.2837    0.9081 C   0  0  2  0  0  0  0  0  0  0  0  0
    0.5759    1.1971    1.8764 C   0  0  0  0  0  0  0  0  0  0  0  0
   -3.1700    0.8984   -1.2756 C   0  0  0  0  0  0  0  0  0  0  0  0
   -0.9020    0.9154    2.1834 C   0  0  0  0  0  0  0  0  0  0  0  0
   -3.9595    1.1019   -0.0195 C   0  0  0  0  0  0  0  0  0  0  0  0
   -3.0865    1.2973    1.1943 C   0  0  0  0  0  0  0  0  0  0  0  0
   -4.9242    2.2622   -0.2409 C   0  0  0  0  0  0  0  0  0  0  0  0
    0.0491   -2.8418    0.4131 C   0  0  0  0  0  0  0  0  0  0  0  0
    0.7621   -1.5833    1.6660 F   0  0  0  0  0  0  0  0  0  0  0  0
   -0.0563    0.0907   -2.2868 O   0  0  0  0  0  0  0  0  0  0  0  0
   -3.0611   -2.8114    1.2437 O   0  0  0  0  0  0  0  0  0  0  0  0
   -6.2055   -0.6698   -1.1511 O   0  0  0  0  0  0  0  0  0  0  0  0
   -5.2198   -2.6812   -1.2675 O   0  0  0  0  0  0  0  0  0  0  0  0
    1.9536    0.6446   -0.1515 N   0  0  0  0  0  0  0  0  0  0  0  0
    4.0922   -0.1895    1.5482 N   0  0  0  0  0  0  0  0  0  0  0  0
   -2.6274    0.9693   -0.0569 N   0  0  0  0  0  0  0  0  0  0  0  0
    4.2023    0.6942   -0.6663 C   0  0  2  0  0  0  0  0  0  0  0  0
    4.0036    1.0249    0.7974 C   0  0  1  0  0  0  0  0  0  0  0  0
    2.8041    0.3190   -1.1869 C   0  0  0  0  0  0  0  0  0  0  0  0
    2.5642    1.4944    0.8069 C   0  0  0  0  0  0  0  0  0  0  0  0
    5.2079   -0.3874   -0.8609 C   0  0  0  0  0  0  0  0  0  0  0  0
   -2.1266    1.8932    0.9004 C   0  0  0  0  0  0  0  0  0  0  0  0
    6.1637   -0.5282    0.3003 C   0  0  0  0  0  0  0  0  0  0  0  0
   -3.1801    2.8528    1.4522 C   0  0  0  0  0  0  0  0  0  0  0  0
   -2.4931    1.8942    2.3241 C   0  0  0  0  0  0  0  0  0  0  0  0
    5.4524   -0.6991    1.6211 C   0  0  0  0  0  0  0  0  0  0  0  0
    0.6711    0.1826    0.0248 C   0  0  1  0  0  0  0  0  0  0  0  0
   -1.7361    0.0303   -0.6161 C   0  0  1  0  0  0  0  0  0  0  0  0
   -0.3742    0.5249   -1.0032 C   0  0  2  0  0  0  0  0  0  0  0  0
   -1.6811   -1.1790    0.2953 C   0  0  0  0  0  0  0  0  0  0  0  0
    0.7265   -1.3165    0.2974 C   0  0  2  0  0  0  0  0  0  0  0  0
   -3.9073    0.4435    0.2223 C   0  0  0  0  0  0  0  0  0  0  0  0
   -0.5065   -2.0141   -0.2348 C   0  0  0  0  0  0  0  0  0  0  0  0
   -4.1465   -1.0041    0.0526 C   0  0  2  0  0  0  0  0  0  0  0  0
   -2.9706   -1.9091    0.1850 C   0  0  0  0  0  0  0  0  0  0  0  0
   -4.9519   -1.3167   -1.2203 C   0  0  0  0  0  0  0  0  0  0  0  0
    0.0110    1.1746   -3.1544 C   0  0  0  0  0  0  0  0  0  0  0  0
    0.1302    1.1702   -2.2596 F   0  0  0  0  0  0  0  0  0  0  0  0
   -0.0297   -1.7914    0.9826 O   0  0  0  0  0  0  0  0  0  0  0  0
   -3.3385   -2.4986   -2.0257 O   0  0  0  0  0  0  0  0  0  0  0  0
   -6.1639   -0.3181    0.5143 O   0  0  0  0  0  0  0  0  0  0  0  0
   -5.7879   -0.8188   -1.6352 O   0  0  0  0  0  0  0  0  0  0  0  0
    1.7754    0.9161   -0.2840 N   0  0  0  0  0  0  0  0  0  0  0  0
    4.5293   -0.3924    0.7465 N   0  0  0  0  0  0  0  0  0  0  0  0
   -2.2529   -0.0316    1.0964 N   0  0  0  0  0  0  0  0  0  0  0  0
    4.0331    1.5650   -0.6687 C   0  0  2  0  0  0  0  0  0  0  0  0
    3.9732    0.8986    0.6526 C   0  0  1  0  0  0  0  0  0  0  0  0
    2.6930    1.2858   -1.3199 C   0  0  0  0  0  0  0  0  0  0  0  0
    2.4761    0.8660    0.9488 C   0  0  0  0  0  0  0  0  0  0  0  0
    5.1685    1.1154   -1.5494 C   0  0  0  0  0  0  0  0  0  0  0  0
   -2.2597    1.2372    1.7372 C   0  0  0  0  0  0  0  0  0  0  0  0
    6.2816    0.5588   -0.6966 C   0  0  0  0  0  0  0  0  0  0  0  0
   -2.6537    2.4817    1.0367 C   0  0  0  0  0  0  0  0  0  0  0  0
   -3.4593    1.9365    2.2052 C   0  0  0  0  0  0  0  0  0  0  0  0
    5.7307   -0.6365    0.0408 C   0  0  0  0  0  0  0  0  0  0  0  0
    1.0292   -0.2959   -0.5905 C   0  0  1  0  0  0  0  0  0  0  0  0
   -1.3589   -0.1412    0.0225 C   0  0  0  0  0  0  0  0  0  0  0  0
    0.0494   -0.5088    0.5337 C   0  0  0  0  0  0  0  0  0  0  0  0
   -1.6813   -1.2298   -0.9744 C   0  0  2  0  0  0  0  0  0  0  0  0
    0.3893   -0.1711   -1.9410 C   0  0  0  0  0  0  0  0  0  0  0  0
   -3.3802   -0.8391    1.1563 C   0  0  0  0  0  0  0  0  0  0  0  0
   -0.8086   -1.0380   -2.1613 C   0  0  0  0  0  0  0  0  0  0  0  0
   -4.0372   -1.2206   -0.1293 C   0  0  2  0  0  0  0  0  0  0  0  0
   -3.1298   -1.3003   -1.3051 C   0  0  0  0  0  0  0  0  0  0  0  0
   -5.1944   -0.2805   -0.4945 C   0  0  0  0  0  0  0  0  0  0  0  0
    0.0758   -1.9894    2.3250 C   0  0  0  0  0  0  0  0  0  0  0  0
    1.1208    0.7376    3.0622 F   0  0  0  0  0  0  0  0  0  0  0  0
    0.4695   -1.1913   -1.1795 O   0  0  0  0  0  0  0  0  0  0  0  0
   -3.0945    3.0159    0.8966 O   0  0  0  0  0  0  0  0  0  0  0  0
   -5.4404    2.9555    0.2711 O   0  0  0  0  0  0  0  0  0  0  0  0
   -5.6674    1.6813   -1.6561 O   0  0  0  0  0  0  0  0  0  0  0  0
    2.2285   -0.4196    0.4181 N   0  0  0  0  0  0  0  0  0  0  0  0
    4.9750   -1.1679    0.4540 N   0  0  0  0  0  0  0  0  0  0  0  0
   -2.4048   -0.5791   -0.7980 N   0  0  0  0  0  0  0  0  0  0  0  0
    3.9761    0.8612   -0.5286 C   0  0  2  0  0  0  0  0  0  0  0  0
    4.4275    0.1258    0.7148 C   0  0  1  0  0  0  0  0  0  0  0  0
    2.5127    0.4342   -0.6855 C   0  0  0  0  0  0  0  0  0  0  0  0
    3.1145    0.0697    1.4913 C   0  0  0  0  0  0  0  0  0  0  0  0
    4.8420    0.4304   -1.6703 C   0  0  0  0  0  0  0  0  0  0  0  0
   -3.0483   -1.3951    0.1678 C   0  0  0  0  0  0  0  0  0  0  0  0
    6.2426    0.0463   -1.2467 C   0  0  0  0  0  0  0  0  0  0  0  0
   -4.3138   -2.0645   -0.3691 C   0  0  0  0  0  0  0  0  0  0  0  0
   -3.1564   -2.8588    0.1108 C   0  0  0  0  0  0  0  0  0  0  0  0
    6.2619   -1.0001   -0.1628 C   0  0  0  0  0  0  0  0  0  0  0  0
    0.8968   -0.3994    0.9554 C   0  0  0  0  0  0  0  0  0  0  0  0
   -1.2361    0.1530   -0.3109 C   0  0  2  0  0  0  0  0  0  0  0  0
   -0.1801   -0.8262    0.0203 C   0  0  1  0  0  0  0  0  0  0  0  0
   -1.5455    1.1928    0.7003 C   0  0  0  0  0  0  0  0  0  0  0  0
    0.5808    0.8376    1.7702 C   0  0  0  0  0  0  0  0  0  0  0  0
   -3.3320    0.4036   -1.3153 C   0  0  0  0  0  0  0  0  0  0  0  0
   -0.9341    0.7529    2.0219 C   0  0  0  0  0  0  0  0  0  0  0  0
   -3.9351    1.1055   -0.1288 C   0  0  0  0  0  0  0  0  0  0  0  0
   -2.9640    1.6042    0.8666 C   0  0  2  0  0  0  0  0  0  0  0  0
   -4.8171    2.2218   -0.7067 C   0  0  0  0  0  0  0  0  0  0  0  0
    0.2892   -2.4936   -1.5421 C   0  0  0  0  0  0  0  0  0  0  0  0
   -3.6102   -2.1932   -2.7096 H   0  0  0  0  0  0  0  0  0  0  0  0
   -6.2471    1.6842   -0.1101 H   0  0  0  0  0  0  0  0  0  0  0  0
   -5.7330   -0.2813   -2.5712 H   0  0  0  0  0  0  0  0  0  0  0  0
    4.0259   -0.9599    1.1641 H   0  0  0  0  0  0  0  0  0  0  0  0
    3.8514    2.5901   -0.6951 H   0  0  0  0  0  0  0  0  0  0  0  0
    4.1377    1.9342    1.4415 H   0  0  0  0  0  0  0  0  0  0  0  0
    2.2739    1.6418   -2.0039 H   0  0  0  0  0  0  0  0  0  0  0  0
    2.9424   -0.0417   -1.7989 H   0  0  0  0  0  0  0  0  0  0  0  0
    2.2723    0.0665    1.7814 H   0  0  0  0  0  0  0  0  0  0  0  0
    1.8926    1.7911    1.4976 H   0  0  0  0  0  0  0  0  0  0  0  0
    5.9225    1.8235   -1.3471 H   0  0  0  0  0  0  0  0  0  0  0  0
    4.8581    0.9316   -2.4527 H   0  0  0  0  0  0  0  0  0  0  0  0
   -1.1111    1.5181    1.6731 H   0  0  0  0  0  0  0  0  0  0  0  0
    5.0432   -1.1168   -1.1319 H   0  0  0  0  0  0  0  0  0  0  0  0
    6.6999   -0.3714   -1.3668 H   0  0  0  0  0  0  0  0  0  0  0  0
   -4.2254    2.0429    1.4552 H   0  0  0  0  0  0  0  0  0  0  0  0
   -2.9035    3.1727    2.0836 H   0  0  0  0  0  0  0  0  0  0  0  0
   -3.5809    0.4485    3.3013 H   0  0  0  0  0  0  0  0  0  0  0  0
   -2.2343    1.5889    3.8660 H   0  0  0  0  0  0  0  0  0  0  0  0
    6.4701    0.6881    0.8994 H   0  0  0  0  0  0  0  0  0  0  0  0
    6.3001   -1.1511    0.9021 H   0  0  0  0  0  0  0  0  0  0  0  0
    1.8903   -1.4577   -0.1389 H   0  0  0  0  0  0  0  0  0  0  0  0
   -1.0193    0.7021   -0.5521 H   0  0  0  0  0  0  0  0  0  0  0  0
   -0.1728   -2.0583    0.5278 H   0  0  0  0  0  0  0  0  0  0  0  0
   -2.1801   -2.1331   -0.5442 H   0  0  0  0  0  0  0  0  0  0  0  0
    1.4475   -1.3186   -2.3590 H   0  0  0  0  0  0  0  0  0  0  0  0
   -4.3435   -0.0232    1.1583 H   0  0  0  0  0  0  0  0  0  0  0  0
   -3.6121   -1.6202    0.8682 H   0  0  0  0  0  0  0  0  0  0  0  0
   -0.2683   -2.7092   -1.5934 H   0  0  0  0  0  0  0  0  0  0  0  0
   -0.7916   -1.7735   -3.0043 H   0  0  0  0  0  0  0  0  0  0  0  0
   -4.6736   -1.3482   -1.0763 H   0  0  0  0  0  0  0  0  0  0  0  0
   -2.6136    0.4189   -2.1778 H   0  0  0  0  0  0  0  0  0  0  0  0
   -4.1915    1.6762   -1.1031 H   0  0  0  0  0  0  0  0  0  0  0  0
    0.8129   -2.2790    2.5146 H   0  0  0  0  0  0  0  0  0  0  0  0
   -0.9845   -2.1974    2.3962 H   0  0  0  0  0  0  0  0  0  0  0  0
   -0.2135   -1.3407    3.7608 H   0  0  0  0  0  0  0  0  0  0  0  0
   -3.4193   -2.4301   -2.3881 H   0  0  0  0  0  0  0  0  0  0  0  0
   -6.5947    0.3511    0.7541 H   0  0  0  0  0  0  0  0  0  0  0  0
   -5.2663    0.0228   -2.6428 H   0  0  0  0  0  0  0  0  0  0  0  0
    3.8543   -0.8931    1.0167 H   0  0  0  0  0  0  0  0  0  0  0  0
    4.0173    2.5877   -0.8397 H   0  0  0  0  0  0  0  0  0  0  0  0
    4.3580    2.0098    1.3671 H   0  0  0  0  0  0  0  0  0  0  0  0
    2.4118    1.5763   -2.0976 H   0  0  0  0  0  0  0  0  0  0  0  0
    3.0413   -0.1165   -1.6675 H   0  0  0  0  0  0  0  0  0  0  0  0
    2.2468    0.5092    1.8675 H   0  0  0  0  0  0  0  0  0  0  0  0
    2.1116    2.1699    1.2840 H   0  0  0  0  0  0  0  0  0  0  0  0
    6.0759    1.6436   -1.0940 H   0  0  0  0  0  0  0  0  0  0  0  0
    5.1026    0.8666   -2.4343 H   0  0  0  0  0  0  0  0  0  0  0  0
   -1.4025    1.2513    2.4368 H   0  0  0  0  0  0  0  0  0  0  0  0
    4.9476   -1.2185   -1.0867 H   0  0  0  0  0  0  0  0  0  0  0  0
    6.6692   -0.6265   -1.2209 H   0  0  0  0  0  0  0  0  0  0  0  0
   -2.8372    2.1923   -0.2006 H   0  0  0  0  0  0  0  0  0  0  0  0
   -1.7846    3.2080    0.9506 H   0  0  0  0  0  0  0  0  0  0  0  0
   -4.4662    1.7417    1.7019 H   0  0  0  0  0  0  0  0  0  0  0  0
   -3.3719    2.7179    2.8136 H   0  0  0  0  0  0  0  0  0  0  0  0
    6.4279    0.5014    0.9841 H   0  0  0  0  0  0  0  0  0  0  0  0
    6.0995   -1.3059    1.1084 H   0  0  0  0  0  0  0  0  0  0  0  0
    1.8830   -1.2428   -0.3371 H   0  0  0  0  0  0  0  0  0  0  0  0
   -1.0775    0.7333   -0.4106 H   0  0  0  0  0  0  0  0  0  0  0  0
   -0.0661   -1.9266    0.5553 H   0  0  0  0  0  0  0  0  0  0  0  0
   -1.9308   -2.2196   -0.5541 H   0  0  0  0  0  0  0  0  0  0  0  0
    1.3516   -0.8745   -2.5020 H   0  0  0  0  0  0  0  0  0  0  0  0
   -4.2855   -0.3069    1.5297 H   0  0  0  0  0  0  0  0  0  0  0  0
   -3.3668   -1.8113    1.3673 H   0  0  0  0  0  0  0  0  0  0  0  0
   -0.2308   -2.4347   -2.0239 H   0  0  0  0  0  0  0  0  0  0  0  0
   -1.0061   -1.1817   -3.0099 H   0  0  0  0  0  0  0  0  0  0  0  0
   -4.4305   -1.9668   -0.6129 H   0  0  0  0  0  0  0  0  0  0  0  0
   -2.9516    0.3328   -1.9057 H   0  0  0  0  0  0  0  0  0  0  0  0
   -5.0433    1.0368   -0.5212 H   0  0  0  0  0  0  0  0  0  0  0  0
    0.9469   -2.1859    2.4905 H   0  0  0  0  0  0  0  0  0  0  0  0
   -0.8323   -2.1488    2.5578 H   0  0  0  0  0  0  0  0  0  0  0  0
    0.1626   -1.2015    3.7964 H   0  0  0  0  0  0  0  0  0  0  0  0
   -3.0608   -0.4197    2.2479 H   0  0  0  0  0  0  0  0  0  0  0  0
   -6.6054    2.1548    0.8511 H   0  0  0  0  0  0  0  0  0  0  0  0
   -5.9952    1.0075   -1.2359 H   0  0  0  0  0  0  0  0  0  0  0  0
    4.3892   -0.5939    1.2664 H   0  0  0  0  0  0  0  0  0  0  0  0
    3.5421    1.3349   -1.9149 H   0  0  0  0  0  0  0  0  0  0  0  0
    4.9773    1.9321   -0.0882 H   0  0  0  0  0  0  0  0  0  0  0  0
    2.1168   -0.5647   -1.7484 H   0  0  0  0  0  0  0  0  0  0  0  0
    3.0199   -1.1388   -0.2363 H   0  0  0  0  0  0  0  0  0  0  0  0
    3.0683    0.8876    1.7747 H   0  0  0  0  0  0  0  0  0  0  0  0
    2.8954    2.4123    0.7924 H   0  0  0  0  0  0  0  0  0  0  0  0
    5.5393    0.3205   -2.5809 H   0  0  0  0  0  0  0  0  0  0  0  0
    4.3068   -0.9390   -2.8016 H   0  0  0  0  0  0  0  0  0  0  0  0
   -2.6632   -1.7844    0.3395 H   0  0  0  0  0  0  0  0  0  0  0  0
    4.9583   -2.1832   -0.9028 H   0  0  0  0  0  0  0  0  0  0  0  0
    6.4545   -1.7070   -1.7371 H   0  0  0  0  0  0  0  0  0  0  0  0
   -4.5724   -1.0896   -2.0787 H   0  0  0  0  0  0  0  0  0  0  0  0
   -4.8609   -2.2654   -0.7076 H   0  0  0  0  0  0  0  0  0  0  0  0
   -2.4579   -2.3348   -2.7667 H   0  0  0  0  0  0  0  0  0  0  0  0
   -2.8349   -3.5271   -1.4109 H   0  0  0  0  0  0  0  0  0  0  0  0
    6.9779   -0.0221   -0.0600 H   0  0  0  0  0  0  0  0  0  0  0  0
    6.4472   -1.4929    0.7686 H   0  0  0  0  0  0  0  0  0  0  0  0
    1.6090   -0.6137    1.5009 H   0  0  0  0  0  0  0  0  0  0  0  0
   -0.6230    1.0813   -0.9225 H   0  0  0  0  0  0  0  0  0  0  0  0
    0.4074   -0.9508   -0.7368 H   0  0  0  0  0  0  0  0  0  0  0  0
   -1.3100    2.3554    0.7299 H   0  0  0  0  0  0  0  0  0  0  0  0
    0.6138    2.2114    1.4259 H   0  0  0  0  0  0  0  0  0  0  0  0
   -2.5441    1.8116   -1.5016 H   0  0  0  0  0  0  0  0  0  0  0  0
   -3.8123    0.7485   -2.1241 H   0  0  0  0  0  0  0  0  0  0  0  0
   -1.2243    1.6067    3.0164 H   0  0  0  0  0  0  0  0  0  0  0  0
   -1.0813   -0.0901    2.5465 H   0  0  0  0  0  0  0  0  0  0  0  0
   -4.5859    0.2063    0.1568 H   0  0  0  0  0  0  0  0  0  0  0  0
   -3.3661    2.3245    1.5929 H   0  0  0  0  0  0  0  0  0  0  0  0
   -4.3991    3.2152   -0.4263 H   0  0  0  0  0  0  0  0  0  0  0  0
    1.1633   -2.8351    0.3330 H   0  0  0  0  0  0  0  0  0  0  0  0
   -0.4224   -3.0868   -0.5557 H   0  0  0  0  0  0  0  0  0  0  0  0
   -0.2006   -3.6838    1.0965 H   0  0  0  0  0  0  0  0  0  0  0  0
   -3.3591   -2.3843    2.0798 H   0  0  0  0  0  0  0  0  0  0  0  0
   -6.2779   -0.2373   -0.2647 H   0  0  0  0  0  0  0  0  0  0  0  0
   -4.9698   -3.0948   -2.1272 H   0  0  0  0  0  0  0  0  0  0  0  0
    3.5500   -0.9276    1.0181 H   0  0  0  0  0  0  0  0  0  0  0  0
    4.5726    1.6290   -1.1408 H   0  0  0  0  0  0  0  0  0  0  0  0
    4.6994    1.8127    1.1480 H   0  0  0  0  0  0  0  0  0  0  0  0
    2.7142    0.8620   -2.1513 H   0  0  0  0  0  0  0  0  0  0  0  0
    2.8822   -0.7954   -1.3688 H   0  0  0  0  0  0  0  0  0  0  0  0
    2.1148    1.4022    1.8194 H   0  0  0  0  0  0  0  0  0  0  0  0
    2.5892    2.5576    0.4690 H   0  0  0  0  0  0  0  0  0  0  0  0
    5.8339   -0.2538   -1.7694 H   0  0  0  0  0  0  0  0  0  0  0  0
    4.6949   -1.3635   -0.9845 H   0  0  0  0  0  0  0  0  0  0  0  0
   -1.2023    2.4542    0.6084 H   0  0  0  0  0  0  0  0  0  0  0  0
    6.7622   -1.4451    0.1256 H   0  0  0  0  0  0  0  0  0  0  0  0
    6.8725    0.3209    0.2956 H   0  0  0  0  0  0  0  0  0  0  0  0
   -4.2173    2.7789    1.1182 H   0  0  0  0  0  0  0  0  0  0  0  0
   -2.8927    3.9343    1.6052 H   0  0  0  0  0  0  0  0  0  0  0  0
   -3.0133    1.0312    2.8148 H   0  0  0  0  0  0  0  0  0  0  0  0
   -1.7036    2.2917    3.0288 H   0  0  0  0  0  0  0  0  0  0  0  0
    6.0341   -0.1798    2.3912 H   0  0  0  0  0  0  0  0  0  0  0  0
    5.3604   -1.7852    1.8880 H   0  0  0  0  0  0  0  0  0  0  0  0
    0.2685    0.6158    0.9922 H   0  0  0  0  0  0  0  0  0  0  0  0
   -2.2256   -0.3510   -1.5622 H   0  0  0  0  0  0  0  0  0  0  0  0
   -0.4414    1.6304   -1.0595 H   0  0  0  0  0  0  0  0  0  0  0  0
   -1.4253   -0.9166    1.3323 H   0  0  0  0  0  0  0  0  0  0  0  0
    1.6311   -1.7945   -0.1182 H   0  0  0  0  0  0  0  0  0  0  0  0
   -4.6288    0.9711   -0.4743 H   0  0  0  0  0  0  0  0  0  0  0  0
   -4.2524    0.7602    1.2317 H   0  0  0  0  0  0  0  0  0  0  0  0
   -0.5432   -3.0402    0.1590 H   0  0  0  0  0  0  0  0  0  0  0  0
   -0.5495   -1.9835   -1.3331 H   0  0  0  0  0  0  0  0  0  0  0  0
   -4.8584   -1.3340    0.8748 H   0  0  0  0  0  0  0  0  0  0  0  0
   -2.9050   -2.5511   -0.7399 H   0  0  0  0  0  0  0  0  0  0  0  0
   -4.4709   -0.9259   -2.1283 H   0  0  0  0  0  0  0  0  0  0  0  0
    0.2750    0.8294   -4.1796 H   0  0  0  0  0  0  0  0  0  0  0  0
    0.7340    1.9438   -2.8586 H   0  0  0  0  0  0  0  0  0  0  0  0
   -1.0229    1.5941   -3.2183 H   0  0  0  0  0  0  0  0  0  0  0  0
   -3.6605   -3.1895   -1.3700 H   0  0  0  0  0  0  0  0  0  0  0  0
   -6.5388    0.5775    0.5940 H   0  0  0  0  0  0  0  0  0  0  0  0
   -5.3581   -0.5179   -2.4515 H   0  0  0  0  0  0  0  0  0  0  0  0
    3.8734   -1.1792    0.8254 H   0  0  0  0  0  0  0  0  0  0  0  0
    4.1456    2.6738   -0.4963 H   0  0  0  0  0  0  0  0  0  0  0  0
    4.4868    1.5445    1.4239 H   0  0  0  0  0  0  0  0  0  0  0  0
    2.3205    2.2532   -1.7559 H   0  0  0  0  0  0  0  0  0  0  0  0
    2.8605    0.5210   -2.0811 H   0  0  0  0  0  0  0  0  0  0  0  0
    2.2182    0.0175    1.6098 H   0  0  0  0  0  0  0  0  0  0  0  0
    2.2514    1.7944    1.5154 H   0  0  0  0  0  0  0  0  0  0  0  0
    5.5803    1.9770   -2.1133 H   0  0  0  0  0  0  0  0  0  0  0  0
    4.8645    0.3608   -2.3001 H   0  0  0  0  0  0  0  0  0  0  0  0
   -1.3517    1.3749    2.4041 H   0  0  0  0  0  0  0  0  0  0  0  0
    6.6347    1.3129    0.0283 H   0  0  0  0  0  0  0  0  0  0  0  0
    7.0775    0.1939   -1.3769 H   0  0  0  0  0  0  0  0  0  0  0  0
   -3.2078    2.4766    0.0836 H   0  0  0  0  0  0  0  0  0  0  0  0
   -2.0843    3.4176    1.2000 H   0  0  0  0  0  0  0  0  0  0  0  0
   -4.4955    1.6180    2.0273 H   0  0  0  0  0  0  0  0  0  0  0  0
   -3.3967    2.5729    3.1386 H   0  0  0  0  0  0  0  0  0  0  0  0
    6.5178   -0.9637    0.7522 H   0  0  0  0  0  0  0  0  0  0  0  0
    5.6322   -1.4945   -0.6884 H   0  0  0  0  0  0  0  0  0  0  0  0
    1.7827   -1.1084   -0.6616 H   0  0  0  0  0  0  0  0  0  0  0  0
   -1.3207    0.8345   -0.5141 H   0  0  0  0  0  0  0  0  0  0  0  0
    0.1995    0.1709    1.3966 H   0  0  0  0  0  0  0  0  0  0  0  0
   -1.4137   -2.1964   -0.4563 H   0  0  0  0  0  0  0  0  0  0  0  0
    1.1405   -0.4870   -2.7248 H   0  0  0  0  0  0  0  0  0  0  0  0
   -4.1586   -0.3738    1.8000 H   0  0  0  0  0  0  0  0  0  0  0  0
   -3.1065   -1.7909    1.7062 H   0  0  0  0  0  0  0  0  0  0  0  0
   -0.4694   -2.0605   -2.4995 H   0  0  0  0  0  0  0  0  0  0  0  0
   -1.3697   -0.6110   -3.0242 H   0  0  0  0  0  0  0  0  0  0  0  0
   -4.5142   -2.2150    0.0108 H   0  0  0  0  0  0  0  0  0  0  0  0
   -3.3491   -0.4837   -2.0459 H   0  0  0  0  0  0  0  0  0  0  0  0
   -4.8415    0.7351   -0.7109 H   0  0  0  0  0  0  0  0  0  0  0  0
   -0.7354   -1.4578    2.9047 H   0  0  0  0  0  0  0  0  0  0  0  0
    1.0770   -1.7597    2.7577 H   0  0  0  0  0  0  0  0  0  0  0  0
   -0.0899   -3.0673    2.5315 H   0  0  0  0  0  0  0  0  0  0  0  0
   -3.6012    3.3466    1.6524 H   0  0  0  0  0  0  0  0  0  0  0  0
   -6.3099    2.6041    0.5536 H   0  0  0  0  0  0  0  0  0  0  0  0
   -5.9532    0.7515   -1.4364 H   0  0  0  0  0  0  0  0  0  0  0  0
    4.3517   -1.8386   -0.0045 H   0  0  0  0  0  0  0  0  0  0  0  0
    4.0492    1.9551   -0.3552 H   0  0  0  0  0  0  0  0  0  0  0  0
    5.1815    0.7035    1.2877 H   0  0  0  0  0  0  0  0  0  0  0  0
    1.8825    1.3142   -0.7990 H   0  0  0  0  0  0  0  0  0  0  0  0
    2.5231   -0.2053   -1.6186 H   0  0  0  0  0  0  0  0  0  0  0  0
    3.1391   -0.5774    2.3594 H   0  0  0  0  0  0  0  0  0  0  0  0
    2.9007    1.1540    1.7135 H   0  0  0  0  0  0  0  0  0  0  0  0
    4.9272    1.1506   -2.4880 H   0  0  0  0  0  0  0  0  0  0  0  0
    4.3867   -0.5003   -2.0988 H   0  0  0  0  0  0  0  0  0  0  0  0
   -3.2374   -0.9622    1.1933 H   0  0  0  0  0  0  0  0  0  0  0  0
    6.7432   -0.3863   -2.1288 H   0  0  0  0  0  0  0  0  0  0  0  0
    6.7916    0.9645   -0.9831 H   0  0  0  0  0  0  0  0  0  0  0  0
   -4.4945   -2.1074   -1.4532 H   0  0  0  0  0  0  0  0  0  0  0  0
   -5.2499   -2.0099    0.2184 H   0  0  0  0  0  0  0  0  0  0  0  0
   -2.5851   -3.4632   -0.6217 H   0  0  0  0  0  0  0  0  0  0  0  0
   -3.3381   -3.4264    1.0467 H   0  0  0  0  0  0  0  0  0  0  0  0
    6.9966   -0.6362    0.6105 H   0  0  0  0  0  0  0  0  0  0  0  0
    6.6207   -1.9852   -0.4978 H   0  0  0  0  0  0  0  0  0  0  0  0
    0.9413   -1.2116    1.7575 H   0  0  0  0  0  0  0  0  0  0  0  0
   -0.8984    0.7052   -1.2468 H   0  0  0  0  0  0  0  0  0  0  0  0
   -0.6900   -1.7716    0.3492 H   0  0  0  0  0  0  0  0  0  0  0  0
   -0.9669    2.1391    0.4559 H   0  0  0  0  0  0  0  0  0  0  0  0
    0.8400    1.7753    1.2838 H   0  0  0  0  0  0  0  0  0  0  0  0
   -2.8638    1.0795   -2.0347 H   0  0  0  0  0  0  0  0  0  0  0  0
   -4.1427   -0.1447   -1.8341 H   0  0  0  0  0  0  0  0  0  0  0  0
   -1.1466    1.4794    2.8312 H   0  0  0  0  0  0  0  0  0  0  0  0
   -1.2278   -0.2699    2.2594 H   0  0  0  0  0  0  0  0  0  0  0  0
   -4.6520    0.3857    0.3411 H   0  0  0  0  0  0  0  0  0  0  0  0
   -3.2839    1.3049    1.9102 H   0  0  0  0  0  0  0  0  0  0  0  0
   -4.1182    2.9017   -1.2520 H   0  0  0  0  0  0  0  0  0  0  0  0
    0.8720   -2.6287   -2.5021 H   0  0  0  0  0  0  0  0  0  0  0  0
   -0.7814   -2.5796   -1.8958 H   0  0  0  0  0  0  0  0  0  0  0  0
    0.5259   -3.2441   -0.7918 H   0  0  0  0  0  0  0  0  0  0  0  0
  7 10  1  0
  9 10  1  0
  6 11  1  0
  9 11  1  0
  6 12  1  0
 10 12  1  0
  9 13  1  0
  8 14  1  0
 13 15  1  0
 14 16  1  0
 14 17  1  0
 16 17  1  0
  7 18  1  0
 15 18  1  0
  6 19  1  0
  8 20  1  0
  2 21  1  0
 19 21  1  0
 20 21  1  0
 20 22  1  0
  1 23  1  0
 19 23  1  0
  8 24  1  0
 22 25  1  0
 23 25  1  0
 24 26  1  0
 22 27  1  0
 26 27  1  0
 27  3  1  0
  4 28  1  0
 26 28  1  0
 28  5  1  0
  2 29  1  0
 36 39  1  0
 38 39  1  0
 35 40  1  0
 38 40  1  0
 35 41  1  0
 39 41  1  0
 38 42  1  0
 37 43  1  0
 42 44  1  0
 43 45  1  0
 43 46  1  0
 45 46  1  0
 36 47  1  0
 44 47  1  0
 35 48  1  0
 37 49  1  0
 31 50  1  0
 48 50  1  0
 49 50  1  0
 49 51  1  0
 30 52  1  0
 48 52  1  0
 37 53  1  0
 51 54  1  0
 52 54  1  0
 53 55  1  0
 51 56  1  0
 55 56  1  0
 56 32  1  0
 33 57  1  0
 55 57  1  0
 57 34  1  0
 31 58  1  0
 65 68  1  0
 67 68  1  0
 64 69  1  0
 67 69  1  0
 64 70  1  0
 68 70  1  0
 67 71  1  0
 66 72  1  0
 71 73  1  0
 72 74  1  0
 72 75  1  0
 74 75  1  0
 65 76  1  0
 73 76  1  0
 64 77  1  0
 66 78  1  0
 60 79  1  0
 77 79  1  0
 78 79  1  0
 78 80  1  0
 59 81  1  0
 77 81  1  0
 66 82  1  0
 80 83  1  0
 81 83  1  0
 82 84  1  0
 80 85  1  0
 84 85  1  0
 85 61  1  0
 62 86  1  0
 84 86  1  0
 86 63  1  0
 60 87  1  0
 94 97  1  0
 96 97  1  0
 93 98  1  0
 96 98  1  0
 93 99  1  0
 97 99  1  0
 96100  1  0
 95101  1  0
100102  1  0
101103  1  0
101104  1  0
103104  1  0
 94105  1  0
102105  1  0
 93106  1  0
 95107  1  0
 89108  1  0
106108  1  0
107108  1  0
107109  1  0
 88110  1  0
106110  1  0
 95111  1  0
109112  1  0
110112  1  0
111113  1  0
109114  1  0
113114  1  0
114 90  1  0
 91115  1  0
113115  1  0
115 92  1  0
 89116  1  0
123126  1  0
125126  1  0
122127  1  0
125127  1  0
122128  1  0
126128  1  0
125129  1  0
124130  1  0
129131  1  0
130132  1  0
130133  1  0
132133  1  0
123134  1  0
131134  1  0
122135  1  0
124136  1  0
118137  1  0
135137  1  0
136137  1  0
136138  1  0
117139  1  0
135139  1  0
124140  1  0
138141  1  0
139141  1  0
140142  1  0
138143  1  0
142143  1  0
143119  1  0
120144  1  0
142144  1  0
144121  1  0
118145  1  0
152155  1  0
154155  1  0
151156  1  0
154156  1  0
151157  1  0
155157  1  0
154158  1  0
153159  1  0
158160  1  0
159161  1  0
159162  1  0
161162  1  0
152163  1  0
160163  1  0
151164  1  0
153165  1  0
147166  1  0
164166  1  0
165166  1  0
165167  1  0
146168  1  0
164168  1  0
153169  1  0
167170  1  0
168170  1  0
169171  1  0
167172  1  0
171172  1  0
172148  1  0
149173  1  0
171173  1  0
173150  1  0
147174  1  0
  3175  1  0
  4176  1  0
  5177  1  0
  7178  1  0
  9179  1  1
 10180  1  1
 11181  1  0
 11182  1  0
 12183  1  0
 12184  1  0
 13185  1  0
 13186  1  0
 14187  1  0
 15188  1  0
 15189  1  0
 16190  1  0
 16191  1  0
 17192  1  0
 17193  1  0
 18194  1  0
 18195  1  0
 19196  1  1
 20197  1  6
 21198  1  1
 22199  1  0
 23200  1  0
 24201  1  0
 24202  1  0
 25203  1  0
 25204  1  0
 26205  1  6
 27206  1  0
 28207  1  0
 29208  1  0
 29209  1  0
 29210  1  0
 32211  1  0
 33212  1  0
 34213  1  0
 36214  1  0
 38215  1  1
 39216  1  1
 40217  1  0
 40218  1  0
 41219  1  0
 41220  1  0
 42221  1  0
 42222  1  0
 43223  1  0
 44224  1  0
 44225  1  0
 45226  1  0
 45227  1  0
 46228  1  0
 46229  1  0
 47230  1  0
 47231  1  0
 48232  1  6
 49233  1  0
 50234  1  1
 51235  1  1
 52236  1  0
 53237  1  0
 53238  1  0
 54239  1  0
 54240  1  0
 55241  1  1
 56242  1  0
 57243  1  0
 58244  1  0
 58245  1  0
 58246  1  0
 61247  1  0
 62248  1  0
 63249  1  0
 65250  1  0
 67251  1  6
 68252  1  6
 69253  1  0
 69254  1  0
 70255  1  0
 70256  1  0
 71257  1  0
 71258  1  0
 72259  1  0
 73260  1  0
 73261  1  0
 74262  1  0
 74263  1  0
 75264  1  0
 75265  1  0
 76266  1  0
 76267  1  0
 77268  1  1
 78269  1  6
 79270  1  0
 80271  1  6
 81272  1  0
 82273  1  0
 82274  1  0
 83275  1  0
 83276  1  0
 84277  1  0
 85278  1  0
 86279  1  0
 87280  1  0
 87281  1  0
 87282  1  0
 90283  1  0
 91284  1  0
 92285  1  0
 94286  1  0
 96287  1  6
 97288  1  1
 98289  1  0
 98290  1  0
 99291  1  0
 99292  1  0
100293  1  0
100294  1  0
101295  1  0
102296  1  0
102297  1  0
103298  1  0
103299  1  0
104300  1  0
104301  1  0
105302  1  0
105303  1  0
106304  1  1
107305  1  6
108306  1  6
109307  1  0
110308  1  6
111309  1  0
111310  1  0
112311  1  0
112312  1  0
113313  1  1
114314  1  0
115315  1  0
116316  1  0
116317  1  0
116318  1  0
119319  1  0
120320  1  0
121321  1  0
123322  1  0
125323  1  1
126324  1  1
127325  1  0
127326  1  0
128327  1  0
128328  1  0
129329  1  0
129330  1  0
130331  1  0
131332  1  0
131333  1  0
132334  1  0
132335  1  0
133336  1  0
133337  1  0
134338  1  0
134339  1  0
135340  1  6
136341  1  0
137342  1  0
138343  1  1
139344  1  0
140345  1  0
140346  1  0
141347  1  0
141348  1  0
142349  1  1
143350  1  0
144351  1  0
145352  1  0
145353  1  0
145354  1  0
148355  1  0
149356  1  0
150357  1  0
152358  1  0
154359  1  1
155360  1  1
156361  1  0
156362  1  0
157363  1  0
157364  1  0
158365  1  0
158366  1  0
159367  1  0
160368  1  0
160369  1  0
161370  1  0
161371  1  0
162372  1  0
162373  1  0
163374  1  0
163375  1  0
164376  1  0
165377  1  6
166378  1  1
167379  1  0
168380  1  0
169381  1  0
169382  1  0
170383  1  0
170384  1  0
171385  1  0
172386  1  1
173387  1  0
174388  1  0
174389  1  0
174390  1  0
M  END
>  <PDBID>  (1) 
5CDQ

>  <PDB ID>  (1) 
5CDQ

>  <Generic Name>  (1) 
Moxifloxacin

>  <Brand Name>  (1) 
Act Moxifloxacin#Apo-moxifloxacin#Auro-moxifloxacin#Avelox#Avelox Abc Pack#Avelox I.V.#Bio-moxifloxacin#Dom-moxifloxacin#Ipg-moxifloxacin#Jamp-moxifloxacin#Jamp-moxifloxacin Tablets#Mar-moxifloxacin#Med-moxifloxacin#Moxeza#Moxifloxacin#Moxifloxacin Hydrochloride#Moxifloxacin Injection#Mylan-moxifloxacin#Mylan-moxifloxacin HCl Ophthalmic Solution#PHL-moxifloxacin#PMS-moxifloxacin#Priva-moxifloxacin#Riva-moxifloxacin#Sandoz Moxifloxacin#Teva-moxifloxacin#Torrent-moxifloxacin#Vigamox

>  <DrugBank ID>  (1) 
DB00218

>  <ATC Codes>  (1) 
J01MA14#S01AE07

>  <Ligand ID>  (1) 
MFX

>  <Target Name>  (1) 
DNA gyrase subunit A

>  <UniProt ID>  (1) 
P43700

>  <PDB ID.1>  (1) 
5CDQ

>  <Seq. Identity>  (1) 
53%

$$$$
