PDB_DB01601_08
     RDKit          3D

118121  0  0  0  0  0  0  0  0999 V2000
   -5.4662   -4.3450    1.7593 C   0  0  0  0  0  0  0  0  0  0  0  0
   -5.9461   -2.2224    0.4841 C   0  0  0  0  0  0  0  0  0  0  0  0
   -5.0258   -2.6526   -0.4828 N   0  0  0  0  0  0  0  0  0  0  0  0
   -4.3788   -3.8883   -0.2730 C   0  0  0  0  0  0  0  0  0  0  0  0
   -4.1894   -4.0831    1.1795 N   0  0  0  0  0  0  0  0  0  0  0  0
    2.9054    2.7300    0.3572 C   0  0  0  0  0  0  0  0  0  0  0  0
    2.5366    3.0192   -1.0569 C   0  0  0  0  0  0  0  0  0  0  0  0
    3.1605    4.3587   -1.5066 C   0  0  0  0  0  0  0  0  0  0  0  0
    2.4396    5.4803   -0.8347 C   0  0  0  0  0  0  0  0  0  0  0  0
    1.9297    5.0105    0.5122 C   0  0  0  0  0  0  0  0  0  0  0  0
    2.9668    4.0898    1.0812 C   0  0  0  0  0  0  0  0  0  0  0  0
   -3.1908   -4.0733   -0.9452 O   0  0  0  0  0  0  0  0  0  0  0  0
   -4.5320   -1.7551   -1.4492 C   0  0  2  0  0  0  0  0  0  0  0  0
   -3.7764   -0.5837   -0.8391 C   0  0  0  0  0  0  0  0  0  0  0  0
   -2.6725   -1.1083   -0.1267 N   0  0  0  0  0  0  0  0  0  0  0  0
   -1.7144   -0.0036    0.3358 C   0  0  1  0  0  0  0  0  0  0  0  0
   -5.6941   -1.2222   -2.2424 C   0  0  0  0  0  0  0  0  0  0  0  0
   -5.2963   -0.2599   -3.3337 C   0  0  0  0  0  0  0  0  0  0  0  0
   -6.5422   -2.3542   -2.8038 C   0  0  0  0  0  0  0  0  0  0  0  0
   -3.3316    0.2223   -1.8754 O   0  0  0  0  0  0  0  0  0  0  0  0
   -2.8728    3.6325    0.2064 C   0  0  0  0  0  0  0  0  0  0  0  0
   -3.6828    4.3226    1.2545 C   0  0  0  0  0  0  0  0  0  0  0  0
   -4.1162    3.2653    2.2467 C   0  0  0  0  0  0  0  0  0  0  0  0
   -2.9349    2.6260    2.8836 C   0  0  0  0  0  0  0  0  0  0  0  0
   -1.9638    1.9851    1.9091 C   0  0  0  0  0  0  0  0  0  0  0  0
   -1.6612    3.0202    0.8049 C   0  0  0  0  0  0  0  0  0  0  0  0
   -2.5559    0.7537    1.2693 C   0  0  0  0  0  0  0  0  0  0  0  0
   -0.5275   -0.7389    0.7197 C   0  0  0  0  0  0  0  0  0  0  0  0
    0.7538   -0.4004    1.2184 C   0  0  1  0  0  0  0  0  0  0  0  0
    1.7298    0.4770    0.4727 C   0  0  1  0  0  0  0  0  0  0  0  0
    1.7250    0.4199   -0.9156 N   0  0  0  0  0  0  0  0  0  0  0  0
    2.1276   -0.6809   -1.6717 C   0  0  0  0  0  0  0  0  0  0  0  0
    3.5835   -1.0414   -1.5936 C   0  0  0  0  0  0  0  0  0  0  0  0
    4.0037   -1.3884   -0.3520 O   0  0  0  0  0  0  0  0  0  0  0  0
    5.3765   -1.7032   -0.3049 C   0  0  0  0  0  0  0  0  0  0  0  0
    0.9313   -0.0814    2.5724 O   0  0  0  0  0  0  0  0  0  0  0  0
    1.9234    1.8400    1.0376 C   0  0  0  0  0  0  0  0  0  0  0  0
    1.8235   -0.3619   -3.0370 O   0  0  0  0  0  0  0  0  0  0  0  0
    6.0347   -0.6937    0.5375 C   0  0  0  0  0  0  0  0  0  0  0  0
    7.1009   -1.1497    1.4664 C   0  0  0  0  0  0  0  0  0  0  0  0
    7.6483   -2.5305    1.0807 C   0  0  0  0  0  0  0  0  0  0  0  0
    6.4266   -3.4377    1.1970 C   0  0  0  0  0  0  0  0  0  0  0  0
    5.5325   -3.1217    0.0323 C   0  0  0  0  0  0  0  0  0  0  0  0
    6.0877   -3.9323   -1.1525 C   0  0  0  0  0  0  0  0  0  0  0  0
    6.6643    0.3997   -0.3395 C   0  0  0  0  0  0  0  0  0  0  0  0
   -6.5004   -3.4237    1.2255 C   0  0  0  0  0  0  0  0  0  0  0  0
   -5.4503   -4.3148    2.8754 H   0  0  0  0  0  0  0  0  0  0  0  0
   -5.7536   -5.3917    1.4440 H   0  0  0  0  0  0  0  0  0  0  0  0
   -6.8279   -1.7425    0.0126 H   0  0  0  0  0  0  0  0  0  0  0  0
   -5.4914   -1.5727    1.2665 H   0  0  0  0  0  0  0  0  0  0  0  0
   -5.0227   -4.7793   -0.5560 H   0  0  0  0  0  0  0  0  0  0  0  0
   -3.6797   -3.2903    1.6025 H   0  0  0  0  0  0  0  0  0  0  0  0
    3.9558    2.3402    0.4375 H   0  0  0  0  0  0  0  0  0  0  0  0
    2.8855    2.2155   -1.7205 H   0  0  0  0  0  0  0  0  0  0  0  0
    1.4506    3.1940   -1.1470 H   0  0  0  0  0  0  0  0  0  0  0  0
    3.0266    4.3751   -2.6034 H   0  0  0  0  0  0  0  0  0  0  0  0
    4.2195    4.3251   -1.2246 H   0  0  0  0  0  0  0  0  0  0  0  0
    1.6036    5.8858   -1.4418 H   0  0  0  0  0  0  0  0  0  0  0  0
    3.1718    6.3059   -0.6371 H   0  0  0  0  0  0  0  0  0  0  0  0
    0.9948    4.4746    0.3561 H   0  0  0  0  0  0  0  0  0  0  0  0
    1.7948    5.8426    1.2271 H   0  0  0  0  0  0  0  0  0  0  0  0
    3.9780    4.4930    1.0908 H   0  0  0  0  0  0  0  0  0  0  0  0
    2.6551    3.8779    2.1437 H   0  0  0  0  0  0  0  0  0  0  0  0
   -3.1275   -4.9404   -1.4309 H   0  0  0  0  0  0  0  0  0  0  0  0
   -3.8398   -2.2854   -2.1471 H   0  0  0  0  0  0  0  0  0  0  0  0
   -4.5157    0.0020   -0.2542 H   0  0  0  0  0  0  0  0  0  0  0  0
   -2.0596   -1.6048   -0.8359 H   0  0  0  0  0  0  0  0  0  0  0  0
   -1.6052    0.5798   -0.5929 H   0  0  0  0  0  0  0  0  0  0  0  0
   -6.3957   -0.6343   -1.5801 H   0  0  0  0  0  0  0  0  0  0  0  0
   -5.2747    0.7585   -2.9139 H   0  0  0  0  0  0  0  0  0  0  0  0
   -4.3384   -0.5716   -3.7599 H   0  0  0  0  0  0  0  0  0  0  0  0
   -6.1144   -0.3386   -4.1200 H   0  0  0  0  0  0  0  0  0  0  0  0
   -6.8837   -2.0709   -3.8415 H   0  0  0  0  0  0  0  0  0  0  0  0
   -7.4182   -2.5499   -2.1609 H   0  0  0  0  0  0  0  0  0  0  0  0
   -5.9713   -3.2832   -2.9127 H   0  0  0  0  0  0  0  0  0  0  0  0
   -2.5071   -0.1877   -2.2520 H   0  0  0  0  0  0  0  0  0  0  0  0
   -2.5146    4.4121   -0.5101 H   0  0  0  0  0  0  0  0  0  0  0  0
   -3.5196    2.9662   -0.3835 H   0  0  0  0  0  0  0  0  0  0  0  0
   -3.1409    5.1391    1.7407 H   0  0  0  0  0  0  0  0  0  0  0  0
   -4.6204    4.7461    0.8268 H   0  0  0  0  0  0  0  0  0  0  0  0
   -4.7967    2.5647    1.7620 H   0  0  0  0  0  0  0  0  0  0  0  0
   -4.6849    3.7809    3.0468 H   0  0  0  0  0  0  0  0  0  0  0  0
   -3.2205    1.8758    3.6197 H   0  0  0  0  0  0  0  0  0  0  0  0
   -2.3437    3.4289    3.4172 H   0  0  0  0  0  0  0  0  0  0  0  0
   -1.0188    1.8224    2.4315 H   0  0  0  0  0  0  0  0  0  0  0  0
   -1.0014    2.5238    0.0630 H   0  0  0  0  0  0  0  0  0  0  0  0
   -1.0812    3.8110    1.3074 H   0  0  0  0  0  0  0  0  0  0  0  0
   -3.3732    1.2323    0.6288 H   0  0  0  0  0  0  0  0  0  0  0  0
   -3.1607    0.1497    1.9746 H   0  0  0  0  0  0  0  0  0  0  0  0
   -0.9448   -1.5650    1.4576 H   0  0  0  0  0  0  0  0  0  0  0  0
   -0.3441   -1.4857   -0.1515 H   0  0  0  0  0  0  0  0  0  0  0  0
    1.3665   -1.4193    1.2310 H   0  0  0  0  0  0  0  0  0  0  0  0
    2.7794   -0.0006    0.7499 H   0  0  0  0  0  0  0  0  0  0  0  0
    0.9072    0.9483   -1.3633 H   0  0  0  0  0  0  0  0  0  0  0  0
    1.5028   -1.5835   -1.4757 H   0  0  0  0  0  0  0  0  0  0  0  0
    3.8664   -1.7848   -2.3823 H   0  0  0  0  0  0  0  0  0  0  0  0
    4.1942   -0.1279   -1.8874 H   0  0  0  0  0  0  0  0  0  0  0  0
    5.7308   -1.5624   -1.3701 H   0  0  0  0  0  0  0  0  0  0  0  0
    0.6242   -0.7961    3.1715 H   0  0  0  0  0  0  0  0  0  0  0  0
    0.9834    2.3751    1.3061 H   0  0  0  0  0  0  0  0  0  0  0  0
    2.3774    1.6624    2.0825 H   0  0  0  0  0  0  0  0  0  0  0  0
    2.4996   -0.8181   -3.5889 H   0  0  0  0  0  0  0  0  0  0  0  0
    5.2907   -0.1234    1.1698 H   0  0  0  0  0  0  0  0  0  0  0  0
    6.7183   -1.2747    2.5008 H   0  0  0  0  0  0  0  0  0  0  0  0
    7.9486   -0.4092    1.5488 H   0  0  0  0  0  0  0  0  0  0  0  0
    8.4291   -2.7704    1.8051 H   0  0  0  0  0  0  0  0  0  0  0  0
    7.9944   -2.4297    0.0377 H   0  0  0  0  0  0  0  0  0  0  0  0
    6.7951   -4.4807    1.1052 H   0  0  0  0  0  0  0  0  0  0  0  0
    5.8969   -3.2282    2.1350 H   0  0  0  0  0  0  0  0  0  0  0  0
    4.5445   -3.6114    0.2548 H   0  0  0  0  0  0  0  0  0  0  0  0
    6.9708   -3.3984   -1.6020 H   0  0  0  0  0  0  0  0  0  0  0  0
    5.3048   -4.1491   -1.8953 H   0  0  0  0  0  0  0  0  0  0  0  0
    6.4937   -4.9058   -0.8121 H   0  0  0  0  0  0  0  0  0  0  0  0
    7.3138   -0.0613   -1.1197 H   0  0  0  0  0  0  0  0  0  0  0  0
    5.9242    1.0799   -0.7637 H   0  0  0  0  0  0  0  0  0  0  0  0
    7.3653    0.9589    0.3278 H   0  0  0  0  0  0  0  0  0  0  0  0
   -7.2022   -3.9421    0.5084 H   0  0  0  0  0  0  0  0  0  0  0  0
   -7.1525   -3.0774    2.0633 H   0  0  0  0  0  0  0  0  0  0  0  0
  2  3  1  0
  3  4  1  0
  1  5  1  0
  4  5  1  0
  6  7  1  0
  7  8  1  0
  8  9  1  0
  9 10  1  0
  6 11  1  0
 10 11  1  0
  4 12  1  0
  3 13  1  0
 13 14  1  0
 14 15  1  0
 15 16  1  0
 13 17  1  0
 17 18  1  0
 17 19  1  0
 14 20  1  0
 21 22  1  0
 22 23  1  0
 23 24  1  0
 24 25  1  0
 21 26  1  0
 25 26  1  0
 16 27  1  0
 25 27  1  0
 16 28  1  0
 28 29  1  0
 29 30  1  0
 30 31  1  0
 31 32  1  0
 32 33  1  0
 33 34  1  0
 34 35  1  0
 29 36  1  0
  6 37  1  0
 30 37  1  0
 32 38  1  0
 35 39  1  0
 39 40  1  0
 40 41  1  0
 41 42  1  0
 35 43  1  0
 42 43  1  0
 43 44  1  0
 39 45  1  0
  1 46  1  0
  2 46  1  0
  1 47  1  0
  1 48  1  0
  2 49  1  0
  2 50  1  0
  4 51  1  0
  5 52  1  0
  6 53  1  0
  7 54  1  0
  7 55  1  0
  8 56  1  0
  8 57  1  0
  9 58  1  0
  9 59  1  0
 10 60  1  0
 10 61  1  0
 11 62  1  0
 11 63  1  0
 12 64  1  0
 13 65  1  6
 14 66  1  0
 15 67  1  0
 16 68  1  6
 17 69  1  0
 18 70  1  0
 18 71  1  0
 18 72  1  0
 19 73  1  0
 19 74  1  0
 19 75  1  0
 20 76  1  0
 21 77  1  0
 21 78  1  0
 22 79  1  0
 22 80  1  0
 23 81  1  0
 23 82  1  0
 24 83  1  0
 24 84  1  0
 25 85  1  0
 26 86  1  0
 26 87  1  0
 27 88  1  0
 27 89  1  0
 28 90  1  0
 28 91  1  0
 29 92  1  1
 30 93  1  1
 31 94  1  0
 32 95  1  0
 33 96  1  0
 33 97  1  0
 35 98  1  0
 36 99  1  0
 37100  1  0
 37101  1  0
 38102  1  0
 39103  1  0
 40104  1  0
 40105  1  0
 41106  1  0
 41107  1  0
 42108  1  0
 42109  1  0
 43110  1  0
 44111  1  0
 44112  1  0
 44113  1  0
 45114  1  0
 45115  1  0
 45116  1  0
 46117  1  0
 46118  1  0
M  END
>  <PDBID>  (1) 
1MUI

>  <PDB ID>  (1) 
1MUI

>  <Generic Name>  (1) 
Lopinavir

>  <Brand Name>  (1) 
Kaletra#Lopinavir-ritonavir#Aluviran#Koletra

>  <DrugBank ID>  (1) 
DB01601

>  <ATC Codes>  (1) 
J05AR10

>  <Ligand ID>  (1) 
AB1

>  <Target Name>  (1) 
Pol polyprotein

>  <UniProt ID>  (1) 
Q72874

>  <PDB ID.1>  (1) 
1MUI

>  <Seq. Identity>  (1) 
99%

$$$$
