PDB_DB00480_03
     RDKit          3D

 88 92  0  0  0  0  0  0  0  0999 V2000
    1.5398   -0.3588   -0.3045 C   0  0  1  0  0  0  0  0  0  0  0  0
    2.5380    0.7499   -0.5241 C   0  0  0  0  0  0  0  0  0  0  0  0
    3.9327    0.1544   -0.6255 C   0  0  0  0  0  0  0  0  0  0  0  0
    4.4125   -0.3045    0.7263 C   0  0  0  0  0  0  0  0  0  0  0  0
    3.2263   -0.7986    1.4347 N   0  0  0  0  0  0  0  0  0  0  0  0
    2.3007   -1.4358    0.4869 C   0  0  0  0  0  0  0  0  0  0  0  0
   -1.5936    0.9571   -0.2052 C   0  0  0  0  0  0  0  0  0  0  0  0
   -1.8568   -0.3361    0.5920 C   0  0  0  0  0  0  0  0  0  0  0  0
   -0.5883   -1.0606    0.3663 C   0  0  0  0  0  0  0  0  0  0  0  0
    0.4121   -0.0062    0.4653 N   0  0  0  0  0  0  0  0  0  0  0  0
   -0.1999    1.2407    0.2643 C   0  0  0  0  0  0  0  0  0  0  0  0
   -4.0165    1.4300    0.1983 C   0  0  0  0  0  0  0  0  0  0  0  0
   -4.2376   -0.0053    0.4502 C   0  0  0  0  0  0  0  0  0  0  0  0
   -3.0910   -0.9144   -0.0069 C   0  0  0  0  0  0  0  0  0  0  0  0
   -2.6247    1.9279    0.2441 C   0  0  0  0  0  0  0  0  0  0  0  0
    0.4366    2.1307   -0.5545 O   0  0  0  0  0  0  0  0  0  0  0  0
   -3.3827   -2.2584    0.3813 N   0  0  0  0  0  0  0  0  0  0  0  0
    2.9247   -2.3458   -0.3278 O   0  0  0  0  0  0  0  0  0  0  0  0
    4.9199    0.8071    1.4075 O   0  0  0  0  0  0  0  0  0  0  0  0
    1.5398   -0.3588   -0.3045 C   0  0  1  0  0  0  0  0  0  0  0  0
    2.5380    0.7499   -0.5241 C   0  0  0  0  0  0  0  0  0  0  0  0
    3.9327    0.1544   -0.6255 C   0  0  0  0  0  0  0  0  0  0  0  0
    4.4125   -0.3045    0.7263 C   0  0  0  0  0  0  0  0  0  0  0  0
    3.2263   -0.7986    1.4347 N   0  0  0  0  0  0  0  0  0  0  0  0
    2.3007   -1.4358    0.4869 C   0  0  0  0  0  0  0  0  0  0  0  0
   -1.5936    0.9571   -0.2052 C   0  0  0  0  0  0  0  0  0  0  0  0
   -1.8568   -0.3361    0.5920 C   0  0  0  0  0  0  0  0  0  0  0  0
   -0.5883   -1.0606    0.3663 C   0  0  0  0  0  0  0  0  0  0  0  0
    0.4121   -0.0062    0.4653 N   0  0  0  0  0  0  0  0  0  0  0  0
   -0.1999    1.2407    0.2643 C   0  0  0  0  0  0  0  0  0  0  0  0
   -4.0165    1.4300    0.1983 C   0  0  0  0  0  0  0  0  0  0  0  0
   -4.2376   -0.0053    0.4502 C   0  0  0  0  0  0  0  0  0  0  0  0
   -3.0910   -0.9144   -0.0069 C   0  0  0  0  0  0  0  0  0  0  0  0
   -2.6247    1.9279    0.2441 C   0  0  0  0  0  0  0  0  0  0  0  0
    0.4366    2.1307   -0.5545 O   0  0  0  0  0  0  0  0  0  0  0  0
   -3.3827   -2.2584    0.3813 N   0  0  0  0  0  0  0  0  0  0  0  0
    2.9247   -2.3458   -0.3278 O   0  0  0  0  0  0  0  0  0  0  0  0
    4.9199    0.8071    1.4075 O   0  0  0  0  0  0  0  0  0  0  0  0
    1.2549   -0.8305   -1.2574 H   0  0  0  0  0  0  0  0  0  0  0  0
    2.5607    1.4755    0.2998 H   0  0  0  0  0  0  0  0  0  0  0  0
    2.3755    1.2507   -1.5254 H   0  0  0  0  0  0  0  0  0  0  0  0
    4.0205   -0.5921   -1.4161 H   0  0  0  0  0  0  0  0  0  0  0  0
    4.6004    1.0087   -0.9323 H   0  0  0  0  0  0  0  0  0  0  0  0
    5.1996   -1.0586    0.6410 H   0  0  0  0  0  0  0  0  0  0  0  0
    3.5655   -1.5359    2.0717 H   0  0  0  0  0  0  0  0  0  0  0  0
    1.5952   -2.0127    1.1420 H   0  0  0  0  0  0  0  0  0  0  0  0
   -1.6087    0.7571   -1.2884 H   0  0  0  0  0  0  0  0  0  0  0  0
   -2.0098   -0.0055    1.6387 H   0  0  0  0  0  0  0  0  0  0  0  0
   -0.4379   -1.8648    1.1139 H   0  0  0  0  0  0  0  0  0  0  0  0
   -0.6123   -1.5062   -0.6482 H   0  0  0  0  0  0  0  0  0  0  0  0
   -0.3045    1.7452    1.2712 H   0  0  0  0  0  0  0  0  0  0  0  0
   -4.6126    2.0118    0.9620 H   0  0  0  0  0  0  0  0  0  0  0  0
   -4.5017    1.7004   -0.7806 H   0  0  0  0  0  0  0  0  0  0  0  0
   -5.2021   -0.3084   -0.0121 H   0  0  0  0  0  0  0  0  0  0  0  0
   -4.3554   -0.2266    1.5473 H   0  0  0  0  0  0  0  0  0  0  0  0
   -3.0781   -0.7998   -1.1307 H   0  0  0  0  0  0  0  0  0  0  0  0
   -2.3341    2.3193    1.2515 H   0  0  0  0  0  0  0  0  0  0  0  0
   -2.5546    2.8279   -0.4312 H   0  0  0  0  0  0  0  0  0  0  0  0
   -0.0480    2.3280   -1.3717 H   0  0  0  0  0  0  0  0  0  0  0  0
   -4.4111   -2.4019    0.3155 H   0  0  0  0  0  0  0  0  0  0  0  0
   -2.8859   -2.8942   -0.2949 H   0  0  0  0  0  0  0  0  0  0  0  0
    3.8344   -2.5900    0.0356 H   0  0  0  0  0  0  0  0  0  0  0  0
    4.8981    1.6293    0.8644 H   0  0  0  0  0  0  0  0  0  0  0  0
    1.2549   -0.8305   -1.2574 H   0  0  0  0  0  0  0  0  0  0  0  0
    2.5607    1.4755    0.2998 H   0  0  0  0  0  0  0  0  0  0  0  0
    2.3755    1.2507   -1.5254 H   0  0  0  0  0  0  0  0  0  0  0  0
    4.0205   -0.5921   -1.4161 H   0  0  0  0  0  0  0  0  0  0  0  0
    4.6004    1.0087   -0.9323 H   0  0  0  0  0  0  0  0  0  0  0  0
    5.1996   -1.0586    0.6410 H   0  0  0  0  0  0  0  0  0  0  0  0
    3.5655   -1.5359    2.0717 H   0  0  0  0  0  0  0  0  0  0  0  0
    1.5952   -2.0127    1.1420 H   0  0  0  0  0  0  0  0  0  0  0  0
   -1.6087    0.7571   -1.2884 H   0  0  0  0  0  0  0  0  0  0  0  0
   -2.0098   -0.0055    1.6387 H   0  0  0  0  0  0  0  0  0  0  0  0
   -0.4379   -1.8648    1.1139 H   0  0  0  0  0  0  0  0  0  0  0  0
   -0.6123   -1.5062   -0.6482 H   0  0  0  0  0  0  0  0  0  0  0  0
   -0.3045    1.7452    1.2712 H   0  0  0  0  0  0  0  0  0  0  0  0
   -4.6126    2.0118    0.9620 H   0  0  0  0  0  0  0  0  0  0  0  0
   -4.5017    1.7004   -0.7806 H   0  0  0  0  0  0  0  0  0  0  0  0
   -5.2021   -0.3084   -0.0121 H   0  0  0  0  0  0  0  0  0  0  0  0
   -4.3554   -0.2266    1.5473 H   0  0  0  0  0  0  0  0  0  0  0  0
   -3.0781   -0.7998   -1.1307 H   0  0  0  0  0  0  0  0  0  0  0  0
   -2.3341    2.3193    1.2515 H   0  0  0  0  0  0  0  0  0  0  0  0
   -2.5546    2.8279   -0.4312 H   0  0  0  0  0  0  0  0  0  0  0  0
   -0.0480    2.3280   -1.3717 H   0  0  0  0  0  0  0  0  0  0  0  0
   -4.4111   -2.4019    0.3155 H   0  0  0  0  0  0  0  0  0  0  0  0
   -2.8859   -2.8942   -0.2949 H   0  0  0  0  0  0  0  0  0  0  0  0
    3.8344   -2.5900    0.0356 H   0  0  0  0  0  0  0  0  0  0  0  0
    4.8981    1.6293    0.8644 H   0  0  0  0  0  0  0  0  0  0  0  0
  1  2  1  0
  2  3  1  0
  3  4  1  0
  4  5  1  0
  1  6  1  0
  5  6  1  0
  7  8  1  0
  8  9  1  0
  1 10  1  0
  9 10  1  0
  7 11  1  0
 10 11  1  0
 12 13  1  0
  8 14  1  0
 13 14  1  0
  7 15  1  0
 12 15  1  0
 11 16  1  0
 14 17  1  0
  6 18  1  0
  4 19  1  0
 20 21  1  0
 21 22  1  0
 22 23  1  0
 23 24  1  0
 20 25  1  0
 24 25  1  0
 26 27  1  0
 27 28  1  0
 20 29  1  0
 28 29  1  0
 26 30  1  0
 29 30  1  0
 31 32  1  0
 27 33  1  0
 32 33  1  0
 26 34  1  0
 31 34  1  0
 30 35  1  0
 33 36  1  0
 25 37  1  0
 23 38  1  0
  1 39  1  6
  2 40  1  0
  2 41  1  0
  3 42  1  0
  3 43  1  0
  4 44  1  0
  5 45  1  0
  6 46  1  0
  7 47  1  0
  8 48  1  0
  9 49  1  0
  9 50  1  0
 11 51  1  0
 12 52  1  0
 12 53  1  0
 13 54  1  0
 13 55  1  0
 14 56  1  0
 15 57  1  0
 15 58  1  0
 16 59  1  0
 17 60  1  0
 17 61  1  0
 18 62  1  0
 19 63  1  0
 20 64  1  6
 21 65  1  0
 21 66  1  0
 22 67  1  0
 22 68  1  0
 23 69  1  0
 24 70  1  0
 25 71  1  0
 26 72  1  0
 27 73  1  0
 28 74  1  0
 28 75  1  0
 30 76  1  0
 31 77  1  0
 31 78  1  0
 32 79  1  0
 32 80  1  0
 33 81  1  0
 34 82  1  0
 34 83  1  0
 35 84  1  0
 36 85  1  0
 36 86  1  0
 37 87  1  0
 38 88  1  0
M  END
>  <PDBID>  (1) 
5FQD

>  <PDB ID>  (1) 
5FQD

>  <Generic Name>  (1) 
Lenalidomide

>  <Brand Name>  (1) 
Revlimid#Ladevina#Lenangio

>  <DrugBank ID>  (1) 
DB00480

>  <ATC Codes>  (1) 
L04AX04

>  <Ligand ID>  (1) 
LVY

>  <Target Name>  (1) 
Protein cereblon

>  <UniProt ID>  (1) 
Q96SW2

>  <PDB ID.1>  (1) 
5FQD

>  <Seq. Identity>  (1) 
100%

$$$$
