PDB_DB01199_09
     RDKit          3D

550580  0  0  0  0  0  0  0  0999 V2000
   -4.9638   -2.5116    0.6910 N   0  0  0  0  0  0  0  0  0  0  0  0
   -5.6461   -1.7190    1.6560 C   0  0  0  0  0  0  0  0  0  0  0  0
   -5.8871   -0.3040    1.2430 C   0  0  0  0  0  0  0  0  0  0  0  0
   -5.7474   -0.1085   -0.2426 C   0  0  0  0  0  0  0  0  0  0  0  0
   -4.5401   -0.7341   -0.8510 C   0  0  0  0  0  0  0  0  0  0  0  0
   -3.9110   -1.7479    0.0579 C   0  0  2  0  0  0  0  0  0  0  0  0
   -5.9182    1.3514   -0.5908 C   0  0  0  0  0  0  0  0  0  0  0  0
   -4.7276    2.1852   -0.1879 C   0  0  0  0  0  0  0  0  0  0  0  0
   -3.4390    1.4020   -0.2829 C   0  0  1  0  0  0  0  0  0  0  0  0
   -3.5580    0.3285   -1.3280 C   0  0  0  0  0  0  0  0  0  0  0  0
   -2.3340    2.2299   -0.4625 O   0  0  0  0  0  0  0  0  0  0  0  0
   -1.4024    2.1120    0.5427 C   0  0  2  0  0  0  0  0  0  0  0  0
   -0.9861    3.4304    1.1655 C   0  0  0  0  0  0  0  0  0  0  0  0
    0.2880    3.1740    1.8884 C   0  0  0  0  0  0  0  0  0  0  0  0
    1.4622    2.7989    0.9851 C   0  0  0  0  0  0  0  0  0  0  0  0
    1.0043    2.1380   -0.2438 C   0  0  2  0  0  0  0  0  0  0  0  0
   -0.2161    1.2803    0.1900 C   0  0  0  0  0  0  0  0  0  0  0  0
    1.8416    1.4517   -1.1797 C   0  0  0  0  0  0  0  0  0  0  0  0
    3.2587    1.1157   -1.1469 C   0  0  1  0  0  0  0  0  0  0  0  0
    4.2050    2.2028   -1.1411 N   0  0  0  0  0  0  0  0  0  0  0  0
    5.4629    1.7143   -1.7622 C   0  0  0  0  0  0  0  0  0  0  0  0
    6.0830    0.6479   -0.9302 C   0  0  0  0  0  0  0  0  0  0  0  0
    5.1505   -0.0790   -0.0091 C   0  0  0  0  0  0  0  0  0  0  0  0
    3.7253   -0.1752   -0.5572 C   0  0  1  0  0  0  0  0  0  0  0  0
    5.7574   -1.4872    0.0955 C   0  0  0  0  0  0  0  0  0  0  0  0
    4.7710   -2.4182    0.6869 C   0  0  0  0  0  0  0  0  0  0  0  0
    3.6203   -1.7522    1.3693 C   0  0  2  0  0  0  0  0  0  0  0  0
    2.8100   -0.8542    0.4319 C   0  0  2  0  0  0  0  0  0  0  0  0
    1.8358   -1.4931   -0.2440 O   0  0  0  0  0  0  0  0  0  0  0  0
    1.3285   -2.6778    0.1155 C   0  0  0  0  0  0  0  0  0  0  0  0
    0.6050   -3.2262   -1.1305 C   0  0  0  0  0  0  0  0  0  0  0  0
   -0.5801   -2.4021   -1.5069 C   0  0  0  0  0  0  0  0  0  0  0  0
   -1.5251   -2.3445   -0.3459 C   0  0  0  0  0  0  0  0  0  0  0  0
   -1.0445   -3.2628    0.7631 C   0  0  0  0  0  0  0  0  0  0  0  0
    0.2968   -2.6692    1.2190 C   0  0  0  0  0  0  0  0  0  0  0  0
   -2.9523   -2.6417   -0.7062 C   0  0  0  0  0  0  0  0  0  0  0  0
   -4.6874    3.3745   -0.8645 O   0  0  0  0  0  0  0  0  0  0  0  0
   -4.8587    4.4898   -0.0534 C   0  0  0  0  0  0  0  0  0  0  0  0
   -0.9841    4.4910    0.3023 O   0  0  0  0  0  0  0  0  0  0  0  0
    5.3128   -3.3307    1.5829 O   0  0  0  0  0  0  0  0  0  0  0  0
    5.1711   -4.6466    1.1706 C   0  0  0  0  0  0  0  0  0  0  0  0
    4.0501   -1.0134    2.5010 O   0  0  0  0  0  0  0  0  0  0  0  0
   -5.7790   -3.2506   -0.2036 C   0  0  0  0  0  0  0  0  0  0  0  0
    3.6949    3.1505   -2.1557 C   0  0  0  0  0  0  0  0  0  0  0  0
    4.5609    2.8950   -0.0088 C   0  0  0  0  0  0  0  0  0  0  0  0
   -4.9352   -2.7277   -0.1579 N   0  0  0  0  0  0  0  0  0  0  0  0
   -6.0055   -2.2599    0.6643 C   0  0  0  0  0  0  0  0  0  0  0  0
   -6.0174   -0.7821    0.8631 C   0  0  0  0  0  0  0  0  0  0  0  0
   -5.7703   -0.1308   -0.4800 C   0  0  0  0  0  0  0  0  0  0  0  0
   -4.4492   -0.5738   -1.0743 C   0  0  2  0  0  0  0  0  0  0  0  0
   -3.8723   -1.7564   -0.3596 C   0  0  2  0  0  0  0  0  0  0  0  0
   -5.8886    1.3791   -0.3820 C   0  0  0  0  0  0  0  0  0  0  0  0
   -4.7892    1.9836    0.4311 C   0  0  0  0  0  0  0  0  0  0  0  0
   -3.4228    1.3378    0.1623 C   0  0  0  0  0  0  0  0  0  0  0  0
   -3.5627    0.6303   -1.1618 C   0  0  0  0  0  0  0  0  0  0  0  0
   -2.5386    2.3748    0.0423 O   0  0  0  0  0  0  0  0  0  0  0  0
   -1.3155    2.2104    0.6761 C   0  0  0  0  0  0  0  0  0  0  0  0
   -1.0990    3.3920    1.5843 C   0  0  0  0  0  0  0  0  0  0  0  0
   -0.0001    4.2195    1.0276 C   0  0  0  0  0  0  0  0  0  0  0  0
    1.2752    3.4979    0.8512 C   0  0  0  0  0  0  0  0  0  0  0  0
    1.1497    2.1121    0.1861 C   0  0  0  0  0  0  0  0  0  0  0  0
   -0.2849    2.1775   -0.4038 C   0  0  0  0  0  0  0  0  0  0  0  0
    2.0486    1.9480   -0.9252 C   0  0  0  0  0  0  0  0  0  0  0  0
    3.3650    1.3308   -0.9852 C   0  0  1  0  0  0  0  0  0  0  0  0
    4.4870    2.2463   -0.7496 N   0  0  0  0  0  0  0  0  0  0  0  0
    5.6485    1.6183   -1.3566 C   0  0  0  0  0  0  0  0  0  0  0  0
    6.0793    0.3529   -0.7228 C   0  0  0  0  0  0  0  0  0  0  0  0
    4.9740   -0.2647    0.0916 C   0  0  0  0  0  0  0  0  0  0  0  0
    3.6442   -0.0778   -0.6922 C   0  0  1  0  0  0  0  0  0  0  0  0
    5.2803   -1.7450    0.1390 C   0  0  0  0  0  0  0  0  0  0  0  0
    4.2287   -2.4430    0.9219 C   0  0  0  0  0  0  0  0  0  0  0  0
    3.1312   -1.4578    1.2391 C   0  0  0  0  0  0  0  0  0  0  0  0
    2.5913   -0.9935   -0.1377 C   0  0  2  0  0  0  0  0  0  0  0  0
    2.4625   -2.2145   -0.7855 O   0  0  0  0  0  0  0  0  0  0  0  0
    1.2985   -2.6052   -1.3243 C   0  0  0  0  0  0  0  0  0  0  0  0
    0.2132   -1.5532   -1.3976 C   0  0  0  0  0  0  0  0  0  0  0  0
   -0.7109   -1.6438   -0.2042 C   0  0  0  0  0  0  0  0  0  0  0  0
   -1.6291   -2.8431   -0.4617 C   0  0  0  0  0  0  0  0  0  0  0  0
   -0.8397   -3.8384   -1.2650 C   0  0  0  0  0  0  0  0  0  0  0  0
    0.6073   -3.8064   -0.7201 C   0  0  0  0  0  0  0  0  0  0  0  0
   -2.8383   -2.4094   -1.2566 C   0  0  0  0  0  0  0  0  0  0  0  0
   -4.7521    3.3413    0.1218 O   0  0  0  0  0  0  0  0  0  0  0  0
   -5.0077    4.1479    1.2285 C   0  0  0  0  0  0  0  0  0  0  0  0
   -0.8794    3.0015    2.9050 O   0  0  0  0  0  0  0  0  0  0  0  0
    4.7057   -3.1170    2.0144 O   0  0  0  0  0  0  0  0  0  0  0  0
    4.4690   -4.5009    1.9314 C   0  0  0  0  0  0  0  0  0  0  0  0
    2.1704   -2.1893    1.9469 O   0  0  0  0  0  0  0  0  0  0  0  0
   -4.4263   -3.9473    0.4495 C   0  0  0  0  0  0  0  0  0  0  0  0
    4.2938    3.4316   -1.6213 C   0  0  0  0  0  0  0  0  0  0  0  0
    4.7852    2.6328    0.5472 C   0  0  0  0  0  0  0  0  0  0  0  0
   -4.2500   -2.3035   -2.2213 N   0  0  0  0  0  0  0  0  0  0  0  0
   -5.6199   -2.0129   -2.4648 C   0  0  0  0  0  0  0  0  0  0  0  0
   -6.0901   -1.2076   -1.2434 C   0  0  0  0  0  0  0  0  0  0  0  0
   -5.4846    0.1627   -1.4386 C   0  0  0  0  0  0  0  0  0  0  0  0
   -4.0975    0.1464   -1.9541 C   0  0  0  0  0  0  0  0  0  0  0  0
   -3.3974   -1.1692   -1.9642 C   0  0  2  0  0  0  0  0  0  0  0  0
   -5.6042    0.8950   -0.1172 C   0  0  0  0  0  0  0  0  0  0  0  0
   -4.4706    0.5663    0.8270 C   0  0  0  0  0  0  0  0  0  0  0  0
   -3.1332    0.9070    0.2149 C   0  0  0  0  0  0  0  0  0  0  0  0
   -3.3141    1.2206   -1.2293 C   0  0  0  0  0  0  0  0  0  0  0  0
   -2.6216    2.0058    0.8886 O   0  0  0  0  0  0  0  0  0  0  0  0
   -1.2726    1.8107    1.2739 C   0  0  0  0  0  0  0  0  0  0  0  0
   -1.1802    1.7869    2.7687 C   0  0  0  0  0  0  0  0  0  0  0  0
    0.0813    2.2814    3.3422 C   0  0  0  0  0  0  0  0  0  0  0  0
    0.8046    3.3261    2.5568 C   0  0  0  0  0  0  0  0  0  0  0  0
    0.9583    2.9989    1.0953 C   0  0  2  0  0  0  0  0  0  0  0  0
   -0.4955    2.8803    0.6175 C   0  0  0  0  0  0  0  0  0  0  0  0
    1.6706    1.7883    0.7625 C   0  0  0  0  0  0  0  0  0  0  0  0
    2.9541    1.6714    0.0727 C   0  0  1  0  0  0  0  0  0  0  0  0
    4.0246    2.5479    0.1705 N   0  0  0  0  0  0  0  0  0  0  0  0
    5.0850    2.1433    1.0983 C   0  0  0  0  0  0  0  0  0  0  0  0
    4.5759    1.3281    2.2499 C   0  0  0  0  0  0  0  0  0  0  0  0
    3.8981    0.0852    1.7855 C   0  0  0  0  0  0  0  0  0  0  0  0
    3.5664    0.2788    0.3408 C   0  0  1  0  0  0  0  0  0  0  0  0
    4.8643   -1.1066    1.8201 C   0  0  0  0  0  0  0  0  0  0  0  0
    4.2351   -2.3153    1.1734 C   0  0  0  0  0  0  0  0  0  0  0  0
    3.6837   -2.0548   -0.1984 C   0  0  0  0  0  0  0  0  0  0  0  0
    2.7106   -0.8468   -0.1977 C   0  0  2  0  0  0  0  0  0  0  0  0
    2.3238   -0.6661   -1.4569 O   0  0  0  0  0  0  0  0  0  0  0  0
    1.0893   -0.7916   -1.9325 C   0  0  0  0  0  0  0  0  0  0  0  0
   -0.0452   -1.1893   -1.0920 C   0  0  0  0  0  0  0  0  0  0  0  0
   -0.6412   -2.4772   -1.5396 C   0  0  0  0  0  0  0  0  0  0  0  0
   -1.2857   -2.2589   -2.8702 C   0  0  0  0  0  0  0  0  0  0  0  0
   -0.1462   -1.9433   -3.8198 C   0  0  0  0  0  0  0  0  0  0  0  0
    1.1569   -1.7433   -3.1360 C   0  0  0  0  0  0  0  0  0  0  0  0
   -2.2933   -1.1988   -2.9652 C   0  0  0  0  0  0  0  0  0  0  0  0
   -4.6900    1.2492    2.0161 O   0  0  0  0  0  0  0  0  0  0  0  0
   -4.9235    0.3759    3.0870 C   0  0  0  0  0  0  0  0  0  0  0  0
   -1.3623    0.4466    3.1637 O   0  0  0  0  0  0  0  0  0  0  0  0
    5.2353   -3.2750    1.0375 O   0  0  0  0  0  0  0  0  0  0  0  0
    4.9285   -4.4417    1.7253 C   0  0  0  0  0  0  0  0  0  0  0  0
    2.9750   -3.2109   -0.5667 O   0  0  0  0  0  0  0  0  0  0  0  0
   -4.1322   -3.3630   -1.2677 C   0  0  0  0  0  0  0  0  0  0  0  0
    4.7595    2.5590   -1.1264 C   0  0  0  0  0  0  0  0  0  0  0  0
    3.8054    3.9419    0.4153 C   0  0  0  0  0  0  0  0  0  0  0  0
   -5.0499   -2.0952   -1.4932 N   0  0  0  0  0  0  0  0  0  0  0  0
   -5.9046   -1.4660   -2.4294 C   0  0  0  0  0  0  0  0  0  0  0  0
   -6.2955   -0.0919   -1.9283 C   0  0  0  0  0  0  0  0  0  0  0  0
   -5.0116    0.7058   -1.8836 C   0  0  0  0  0  0  0  0  0  0  0  0
   -3.9159    0.0494   -1.1247 C   0  0  0  0  0  0  0  0  0  0  0  0
   -3.7636   -1.4218   -1.3221 C   0  0  2  0  0  0  0  0  0  0  0  0
   -5.2459    2.0753   -1.2502 C   0  0  0  0  0  0  0  0  0  0  0  0
   -4.0163    2.5936   -0.5596 C   0  0  1  0  0  0  0  0  0  0  0  0
   -3.5375    1.7060    0.5706 C   0  0  1  0  0  0  0  0  0  0  0  0
   -4.1658    0.3446    0.3413 C   0  0  0  0  0  0  0  0  0  0  0  0
   -2.1909    1.4869    0.3679 O   0  0  0  0  0  0  0  0  0  0  0  0
   -1.3953    1.4855    1.4607 C   0  0  2  0  0  0  0  0  0  0  0  0
   -1.7882    2.3762    2.5942 C   0  0  0  0  0  0  0  0  0  0  0  0
   -0.5234    2.8112    3.3541 C   0  0  0  0  0  0  0  0  0  0  0  0
    0.4805    1.6768    3.3948 C   0  0  0  0  0  0  0  0  0  0  0  0
    0.9348    1.2334    2.0259 C   0  0  0  0  0  0  0  0  0  0  0  0
    0.0008    1.8926    1.0354 C   0  0  0  0  0  0  0  0  0  0  0  0
    2.3616    1.6351    1.8239 C   0  0  0  0  0  0  0  0  0  0  0  0
    3.0344    1.1482    0.6049 C   0  0  1  0  0  0  0  0  0  0  0  0
    4.2833    1.9481    0.5309 N   0  0  0  0  0  0  0  0  0  0  0  0
    5.1128    1.6810    1.6680 C   0  0  0  0  0  0  0  0  0  0  0  0
    5.3502    0.2640    2.0139 C   0  0  0  0  0  0  0  0  0  0  0  0
    4.1388   -0.6312    1.8880 C   0  0  0  0  0  0  0  0  0  0  0  0
    3.4920   -0.2547    0.5739 C   0  0  1  0  0  0  0  0  0  0  0  0
    4.4981   -2.0857    1.8153 C   0  0  0  0  0  0  0  0  0  0  0  0
    4.6059   -2.6149    0.4265 C   0  0  0  0  0  0  0  0  0  0  0  0
    3.3312   -2.4620   -0.3910 C   0  0  0  0  0  0  0  0  0  0  0  0
    2.4825   -1.2973    0.1441 C   0  0  2  0  0  0  0  0  0  0  0  0
    1.6526   -0.7695   -0.7625 O   0  0  0  0  0  0  0  0  0  0  0  0
    0.5512   -1.3767   -1.2140 C   0  0  0  0  0  0  0  0  0  0  0  0
   -0.2828   -2.1489   -0.2187 C   0  0  0  0  0  0  0  0  0  0  0  0
   -1.2456   -3.0859   -0.8918 C   0  0  0  0  0  0  0  0  0  0  0  0
   -1.7168   -2.7092   -2.2322 C   0  0  0  0  0  0  0  0  0  0  0  0
   -0.6121   -2.2064   -3.1610 C   0  0  0  0  0  0  0  0  0  0  0  0
    0.6909   -2.2810   -2.4080 C   0  0  0  0  0  0  0  0  0  0  0  0
   -2.8825   -1.8381   -2.4210 C   0  0  0  0  0  0  0  0  0  0  0  0
   -3.0322    2.8473   -1.4933 O   0  0  0  0  0  0  0  0  0  0  0  0
   -2.7025    4.1999   -1.5666 C   0  0  0  0  0  0  0  0  0  0  0  0
   -2.5613    1.6795    3.5228 O   0  0  0  0  0  0  0  0  0  0  0  0
    4.9780   -3.9373    0.4552 O   0  0  0  0  0  0  0  0  0  0  0  0
    6.2388   -4.1658   -0.0841 C   0  0  0  0  0  0  0  0  0  0  0  0
    3.7558   -2.0936   -1.6614 O   0  0  0  0  0  0  0  0  0  0  0  0
   -5.6412   -2.5440   -0.2799 C   0  0  0  0  0  0  0  0  0  0  0  0
    4.9734    1.6634   -0.7298 C   0  0  0  0  0  0  0  0  0  0  0  0
    3.9726    3.3671    0.5087 C   0  0  0  0  0  0  0  0  0  0  0  0
   -5.5192   -2.7283    0.4446 N   0  0  0  0  0  0  0  0  0  0  0  0
   -6.3271   -2.2462   -0.6174 C   0  0  0  0  0  0  0  0  0  0  0  0
   -6.4720   -0.7914   -0.7789 C   0  0  0  0  0  0  0  0  0  0  0  0
   -5.5219    0.1044   -0.0849 C   0  0  0  0  0  0  0  0  0  0  0  0
   -4.7149   -0.5864    0.9670 C   0  0  0  0  0  0  0  0  0  0  0  0
   -4.2710   -1.9553    0.6143 C   0  0  2  0  0  0  0  0  0  0  0  0
   -4.6969    0.9388   -1.0363 C   0  0  0  0  0  0  0  0  0  0  0  0
   -3.7014    1.8287   -0.3826 C   0  0  0  0  0  0  0  0  0  0  0  0
   -3.5083    1.6474    1.0889 C   0  0  1  0  0  0  0  0  0  0  0  0
   -3.7054    0.2924    1.6365 C   0  0  0  0  0  0  0  0  0  0  0  0
   -2.3788    2.3074    1.4691 O   0  0  0  0  0  0  0  0  0  0  0  0
   -1.1960    1.6725    1.5744 C   0  0  0  0  0  0  0  0  0  0  0  0
   -0.6460    1.9568    2.9842 C   0  0  0  0  0  0  0  0  0  0  0  0
    0.2737    3.1298    2.8879 C   0  0  0  0  0  0  0  0  0  0  0  0
    1.5409    2.8069    2.0740 C   0  0  0  0  0  0  0  0  0  0  0  0
    1.2338    1.8544    0.9642 C   0  0  0  0  0  0  0  0  0  0  0  0
   -0.2138    2.2657    0.5893 C   0  0  0  0  0  0  0  0  0  0  0  0
    1.9776    1.9120   -0.2768 C   0  0  0  0  0  0  0  0  0  0  0  0
    3.3526    1.4186   -0.4610 C   0  0  1  0  0  0  0  0  0  0  0  0
    4.3642    2.4062   -0.0806 N   0  0  0  0  0  0  0  0  0  0  0  0
    5.6157    2.1103   -0.8128 C   0  0  0  0  0  0  0  0  0  0  0  0
    6.1305    0.7515   -0.4059 C   0  0  0  0  0  0  0  0  0  0  0  0
    5.0783   -0.2356   -0.7574 C   0  0  0  0  0  0  0  0  0  0  0  0
    3.7231    0.0568   -0.1006 C   0  0  0  0  0  0  0  0  0  0  0  0
    5.5913   -1.5970   -0.3218 C   0  0  0  0  0  0  0  0  0  0  0  0
    4.6911   -2.5244   -1.0842 C   0  0  0  0  0  0  0  0  0  0  0  0
    3.3283   -2.4226   -0.5072 C   0  0  0  0  0  0  0  0  0  0  0  0
    2.7574   -1.0538   -0.2850 C   0  0  2  0  0  0  0  0  0  0  0  0
    1.7597   -0.9113   -1.1986 O   0  0  0  0  0  0  0  0  0  0  0  0
    0.5105   -1.3691   -0.9249 C   0  0  0  0  0  0  0  0  0  0  0  0
    0.2160   -2.0220    0.3600 C   0  0  0  0  0  0  0  0  0  0  0  0
   -1.2496   -2.4704    0.3364 C   0  0  0  0  0  0  0  0  0  0  0  0
   -2.0875   -1.7077   -0.6367 C   0  0  0  0  0  0  0  0  0  0  0  0
   -1.5997   -1.9046   -2.0597 C   0  0  0  0  0  0  0  0  0  0  0  0
   -0.1016   -2.2470   -2.0163 C   0  0  0  0  0  0  0  0  0  0  0  0
   -3.4927   -2.2229   -0.5912 C   0  0  0  0  0  0  0  0  0  0  0  0
   -3.9765    3.1787   -0.6355 O   0  0  0  0  0  0  0  0  0  0  0  0
   -3.0385    3.8278   -1.3857 C   0  0  0  0  0  0  0  0  0  0  0  0
   -0.0191    0.8340    3.4982 O   0  0  0  0  0  0  0  0  0  0  0  0
    5.0898   -3.8462   -1.0278 O   0  0  0  0  0  0  0  0  0  0  0  0
    5.3040   -4.4130   -2.2740 C   0  0  0  0  0  0  0  0  0  0  0  0
    2.5592   -3.1877   -1.4304 O   0  0  0  0  0  0  0  0  0  0  0  0
   -6.2894   -2.7370    1.6631 C   0  0  0  0  0  0  0  0  0  0  0  0
    3.9920    3.7141   -0.6555 C   0  0  0  0  0  0  0  0  0  0  0  0
    4.6989    2.5228    1.2689 C   0  0  0  0  0  0  0  0  0  0  0  0
   -6.5817   -2.2527    1.9759 H   0  0  0  0  0  0  0  0  0  0  0  0
   -5.0150   -1.6922    2.5888 H   0  0  0  0  0  0  0  0  0  0  0  0
   -5.3347    0.4306    1.8504 H   0  0  0  0  0  0  0  0  0  0  0  0
   -6.9759   -0.0915    1.4700 H   0  0  0  0  0  0  0  0  0  0  0  0
   -6.6462   -0.6240   -0.6977 H   0  0  0  0  0  0  0  0  0  0  0  0
   -4.8026   -1.3078   -1.7920 H   0  0  0  0  0  0  0  0  0  0  0  0
   -3.3328   -1.3037    0.8940 H   0  0  0  0  0  0  0  0  0  0  0  0
   -6.1877    1.4219   -1.6446 H   0  0  0  0  0  0  0  0  0  0  0  0
   -6.8199    1.6934   -0.0003 H   0  0  0  0  0  0  0  0  0  0  0  0
   -4.8984    2.4485    0.8991 H   0  0  0  0  0  0  0  0  0  0  0  0
   -3.2950    0.8866    0.6876 H   0  0  0  0  0  0  0  0  0  0  0  0
   -4.0225    0.7454   -2.2714 H   0  0  0  0  0  0  0  0  0  0  0  0
   -2.6072   -0.1087   -1.6363 H   0  0  0  0  0  0  0  0  0  0  0  0
   -1.9312    1.5606    1.3795 H   0  0  0  0  0  0  0  0  0  0  0  0
   -1.7278    3.7019    1.9791 H   0  0  0  0  0  0  0  0  0  0  0  0
    0.5238    4.1012    2.4806 H   0  0  0  0  0  0  0  0  0  0  0  0
    0.0938    2.3894    2.6538 H   0  0  0  0  0  0  0  0  0  0  0  0
    1.9074    3.7881    0.7289 H   0  0  0  0  0  0  0  0  0  0  0  0
    2.0822    2.1678    1.6173 H   0  0  0  0  0  0  0  0  0  0  0  0
    0.4214    2.9859   -0.7561 H   0  0  0  0  0  0  0  0  0  0  0  0
   -0.4375    0.6669   -0.7014 H   0  0  0  0  0  0  0  0  0  0  0  0
    0.1212    0.7128    1.0572 H   0  0  0  0  0  0  0  0  0  0  0  0
    1.6326    1.9523   -2.2002 H   0  0  0  0  0  0  0  0  0  0  0  0
    1.3314    0.4521   -1.4180 H   0  0  0  0  0  0  0  0  0  0  0  0
    3.4265    0.8535   -2.2739 H   0  0  0  0  0  0  0  0  0  0  0  0
    5.2393    1.3818   -2.7749 H   0  0  0  0  0  0  0  0  0  0  0  0
    6.1356    2.6041   -1.8348 H   0  0  0  0  0  0  0  0  0  0  0  0
    6.8889    1.1260   -0.2998 H   0  0  0  0  0  0  0  0  0  0  0  0
    6.6310   -0.0395   -1.6084 H   0  0  0  0  0  0  0  0  0  0  0  0
    5.2150    0.3240    0.9901 H   0  0  0  0  0  0  0  0  0  0  0  0
    3.8705   -1.0121   -1.3214 H   0  0  0  0  0  0  0  0  0  0  0  0
    6.7023   -1.3867    0.6615 H   0  0  0  0  0  0  0  0  0  0  0  0
    6.0447   -1.7630   -0.9416 H   0  0  0  0  0  0  0  0  0  0  0  0
    4.3575   -3.0266   -0.1492 H   0  0  0  0  0  0  0  0  0  0  0  0
    2.9870   -2.5437    1.8194 H   0  0  0  0  0  0  0  0  0  0  0  0
    2.3392   -0.1345    1.1327 H   0  0  0  0  0  0  0  0  0  0  0  0
    2.0839   -3.5071    0.2853 H   0  0  0  0  0  0  0  0  0  0  0  0
    0.4149   -4.3065   -1.0372 H   0  0  0  0  0  0  0  0  0  0  0  0
    1.3577   -3.1227   -1.9518 H   0  0  0  0  0  0  0  0  0  0  0  0
   -1.0311   -2.8664   -2.4088 H   0  0  0  0  0  0  0  0  0  0  0  0
   -0.2088   -1.4149   -1.8376 H   0  0  0  0  0  0  0  0  0  0  0  0
   -1.4765   -1.3210    0.0979 H   0  0  0  0  0  0  0  0  0  0  0  0
   -1.7307   -3.1573    1.6015 H   0  0  0  0  0  0  0  0  0  0  0  0
   -0.9625   -4.3054    0.4672 H   0  0  0  0  0  0  0  0  0  0  0  0
    0.0854   -1.6316    1.5092 H   0  0  0  0  0  0  0  0  0  0  0  0
    0.5983   -3.3018    2.0881 H   0  0  0  0  0  0  0  0  0  0  0  0
   -3.0745   -2.4572   -1.7977 H   0  0  0  0  0  0  0  0  0  0  0  0
   -3.2292   -3.7051   -0.5487 H   0  0  0  0  0  0  0  0  0  0  0  0
   -5.8746    4.3626    0.4242 H   0  0  0  0  0  0  0  0  0  0  0  0
   -4.9437    5.4255   -0.6409 H   0  0  0  0  0  0  0  0  0  0  0  0
   -4.1431    4.5529    0.7724 H   0  0  0  0  0  0  0  0  0  0  0  0
   -1.4595    5.2731    0.6342 H   0  0  0  0  0  0  0  0  0  0  0  0
    5.6631   -4.8482    0.2029 H   0  0  0  0  0  0  0  0  0  0  0  0
    5.6857   -5.2783    1.9257 H   0  0  0  0  0  0  0  0  0  0  0  0
    4.1035   -4.9824    1.1766 H   0  0  0  0  0  0  0  0  0  0  0  0
    3.3297   -0.9524    3.1718 H   0  0  0  0  0  0  0  0  0  0  0  0
   -5.6608   -4.3377    0.0456 H   0  0  0  0  0  0  0  0  0  0  0  0
   -6.8562   -3.0199    0.0130 H   0  0  0  0  0  0  0  0  0  0  0  0
   -5.5347   -3.1474   -1.2662 H   0  0  0  0  0  0  0  0  0  0  0  0
    3.4921    2.6604   -3.1070 H   0  0  0  0  0  0  0  0  0  0  0  0
    2.8018    3.6144   -1.6767 H   0  0  0  0  0  0  0  0  0  0  0  0
    4.4591    3.9561   -2.2018 H   0  0  0  0  0  0  0  0  0  0  0  0
    4.3352    2.5322    0.9898 H   0  0  0  0  0  0  0  0  0  0  0  0
    4.1547    3.9550   -0.0364 H   0  0  0  0  0  0  0  0  0  0  0  0
    5.6776    3.1096    0.0403 H   0  0  0  0  0  0  0  0  0  0  0  0
   -6.9686   -2.5665    0.1872 H   0  0  0  0  0  0  0  0  0  0  0  0
   -6.0162   -2.7365    1.6766 H   0  0  0  0  0  0  0  0  0  0  0  0
   -5.3092   -0.4367    1.6394 H   0  0  0  0  0  0  0  0  0  0  0  0
   -7.0284   -0.4710    1.1976 H   0  0  0  0  0  0  0  0  0  0  0  0
   -6.5734   -0.4737   -1.1599 H   0  0  0  0  0  0  0  0  0  0  0  0
   -4.6014   -0.9113   -2.1435 H   0  0  0  0  0  0  0  0  0  0  0  0
   -3.4707   -1.5208    0.6456 H   0  0  0  0  0  0  0  0  0  0  0  0
   -6.0060    1.8030   -1.3931 H   0  0  0  0  0  0  0  0  0  0  0  0
   -6.8527    1.5437    0.1896 H   0  0  0  0  0  0  0  0  0  0  0  0
   -5.0130    1.8324    1.5240 H   0  0  0  0  0  0  0  0  0  0  0  0
   -3.1540    0.6383    0.9756 H   0  0  0  0  0  0  0  0  0  0  0  0
   -2.5878    0.4343   -1.6082 H   0  0  0  0  0  0  0  0  0  0  0  0
   -4.1005    1.3437   -1.8577 H   0  0  0  0  0  0  0  0  0  0  0  0
   -1.2661    1.2492    1.2361 H   0  0  0  0  0  0  0  0  0  0  0  0
   -2.0200    4.0442    1.5883 H   0  0  0  0  0  0  0  0  0  0  0  0
   -0.3250    4.6764    0.0648 H   0  0  0  0  0  0  0  0  0  0  0  0
    0.1774    5.0773    1.7396 H   0  0  0  0  0  0  0  0  0  0  0  0
    1.9669    4.0831    0.2300 H   0  0  0  0  0  0  0  0  0  0  0  0
    1.7618    3.4031    1.8533 H   0  0  0  0  0  0  0  0  0  0  0  0
    1.0662    1.4338    1.0133 H   0  0  0  0  0  0  0  0  0  0  0  0
   -0.4642    1.2986   -1.0294 H   0  0  0  0  0  0  0  0  0  0  0  0
   -0.2958    3.0577   -1.0713 H   0  0  0  0  0  0  0  0  0  0  0  0
    2.1539    3.0377   -1.3265 H   0  0  0  0  0  0  0  0  0  0  0  0
    1.4655    1.5369   -1.8159 H   0  0  0  0  0  0  0  0  0  0  0  0
    3.5309    1.3413   -2.1523 H   0  0  0  0  0  0  0  0  0  0  0  0
    5.4635    1.5447   -2.4390 H   0  0  0  0  0  0  0  0  0  0  0  0
    6.4788    2.3763   -1.2445 H   0  0  0  0  0  0  0  0  0  0  0  0
    6.4233   -0.3423   -1.5362 H   0  0  0  0  0  0  0  0  0  0  0  0
    6.9761    0.5005   -0.0748 H   0  0  0  0  0  0  0  0  0  0  0  0
    4.9877    0.1724    1.0629 H   0  0  0  0  0  0  0  0  0  0  0  0
    3.9815   -0.6811   -1.6171 H   0  0  0  0  0  0  0  0  0  0  0  0
    6.2907   -1.8842    0.5698 H   0  0  0  0  0  0  0  0  0  0  0  0
    5.3495   -2.1186   -0.9254 H   0  0  0  0  0  0  0  0  0  0  0  0
    3.7639   -3.2147    0.2384 H   0  0  0  0  0  0  0  0  0  0  0  0
    3.3891   -0.6406    1.8956 H   0  0  0  0  0  0  0  0  0  0  0  0
    1.6534   -0.5261    0.0947 H   0  0  0  0  0  0  0  0  0  0  0  0
    1.5117   -2.8995   -2.3764 H   0  0  0  0  0  0  0  0  0  0  0  0
   -0.4563   -1.7847   -2.2831 H   0  0  0  0  0  0  0  0  0  0  0  0
    0.5994   -0.5686   -1.6331 H   0  0  0  0  0  0  0  0  0  0  0  0
   -1.2728   -0.7262   -0.0589 H   0  0  0  0  0  0  0  0  0  0  0  0
   -0.1364   -1.8257    0.7104 H   0  0  0  0  0  0  0  0  0  0  0  0
   -1.8703   -3.2542    0.5237 H   0  0  0  0  0  0  0  0  0  0  0  0
   -1.2532   -4.8615   -0.9952 H   0  0  0  0  0  0  0  0  0  0  0  0
   -0.8858   -3.7291   -2.3438 H   0  0  0  0  0  0  0  0  0  0  0  0
    0.4907   -3.7441    0.3676 H   0  0  0  0  0  0  0  0  0  0  0  0
    1.0625   -4.7656   -1.0166 H   0  0  0  0  0  0  0  0  0  0  0  0
   -2.4819   -1.7355   -2.0608 H   0  0  0  0  0  0  0  0  0  0  0  0
   -3.2504   -3.3118   -1.7485 H   0  0  0  0  0  0  0  0  0  0  0  0
   -6.0411    3.8553    1.5726 H   0  0  0  0  0  0  0  0  0  0  0  0
   -4.3563    3.9171    2.0964 H   0  0  0  0  0  0  0  0  0  0  0  0
   -4.9544    5.1927    0.8944 H   0  0  0  0  0  0  0  0  0  0  0  0
    0.0708    3.1356    3.1063 H   0  0  0  0  0  0  0  0  0  0  0  0
    4.9954   -4.8601    1.0037 H   0  0  0  0  0  0  0  0  0  0  0  0
    3.3884   -4.7401    1.9259 H   0  0  0  0  0  0  0  0  0  0  0  0
    4.9246   -5.0297    2.7901 H   0  0  0  0  0  0  0  0  0  0  0  0
    2.6350   -2.5950    2.6961 H   0  0  0  0  0  0  0  0  0  0  0  0
   -3.7708   -4.5285   -0.1996 H   0  0  0  0  0  0  0  0  0  0  0  0
   -4.0172   -3.7557    1.4678 H   0  0  0  0  0  0  0  0  0  0  0  0
   -5.3371   -4.5892    0.6262 H   0  0  0  0  0  0  0  0  0  0  0  0
    5.3038    3.8011   -1.9886 H   0  0  0  0  0  0  0  0  0  0  0  0
    3.7549    3.1952   -2.5368 H   0  0  0  0  0  0  0  0  0  0  0  0
    3.9280    4.3040   -1.0481 H   0  0  0  0  0  0  0  0  0  0  0  0
    4.1042    2.3548    1.3648 H   0  0  0  0  0  0  0  0  0  0  0  0
    4.7910    3.7685    0.6054 H   0  0  0  0  0  0  0  0  0  0  0  0
    5.8227    2.3908    0.9107 H   0  0  0  0  0  0  0  0  0  0  0  0
   -5.7944   -1.3999   -3.3633 H   0  0  0  0  0  0  0  0  0  0  0  0
   -6.1831   -2.9566   -2.4555 H   0  0  0  0  0  0  0  0  0  0  0  0
   -5.6689   -1.6829   -0.3270 H   0  0  0  0  0  0  0  0  0  0  0  0
   -7.1828   -1.1170   -1.2195 H   0  0  0  0  0  0  0  0  0  0  0  0
   -6.1863    0.7020   -2.1370 H   0  0  0  0  0  0  0  0  0  0  0  0
   -4.1342    0.4892   -3.0324 H   0  0  0  0  0  0  0  0  0  0  0  0
   -3.0110   -1.3372   -0.9379 H   0  0  0  0  0  0  0  0  0  0  0  0
   -5.7496    1.9795   -0.2648 H   0  0  0  0  0  0  0  0  0  0  0  0
   -6.5337    0.5294    0.3779 H   0  0  0  0  0  0  0  0  0  0  0  0
   -4.5483   -0.5175    1.0721 H   0  0  0  0  0  0  0  0  0  0  0  0
   -2.4662    0.0557    0.4447 H   0  0  0  0  0  0  0  0  0  0  0  0
   -2.3637    1.3660   -1.7915 H   0  0  0  0  0  0  0  0  0  0  0  0
   -3.8357    2.2002   -1.2902 H   0  0  0  0  0  0  0  0  0  0  0  0
   -0.9936    0.8269    0.8458 H   0  0  0  0  0  0  0  0  0  0  0  0
   -2.0705    2.3344    3.1839 H   0  0  0  0  0  0  0  0  0  0  0  0
   -0.1175    2.7047    4.3517 H   0  0  0  0  0  0  0  0  0  0  0  0
    0.8167    1.4442    3.5272 H   0  0  0  0  0  0  0  0  0  0  0  0
    0.2913    4.2854    2.6486 H   0  0  0  0  0  0  0  0  0  0  0  0
    1.8176    3.4267    2.9911 H   0  0  0  0  0  0  0  0  0  0  0  0
    1.2424    3.9406    0.5703 H   0  0  0  0  0  0  0  0  0  0  0  0
   -0.9935    3.8538    0.8449 H   0  0  0  0  0  0  0  0  0  0  0  0
   -0.4537    2.6977   -0.4693 H   0  0  0  0  0  0  0  0  0  0  0  0
    1.8251    1.2555    1.7657 H   0  0  0  0  0  0  0  0  0  0  0  0
    0.9342    1.0914    0.2920 H   0  0  0  0  0  0  0  0  0  0  0  0
    2.7023    1.5312   -1.0182 H   0  0  0  0  0  0  0  0  0  0  0  0
    5.8715    1.5251    0.6110 H   0  0  0  0  0  0  0  0  0  0  0  0
    5.6196    3.0164    1.5283 H   0  0  0  0  0  0  0  0  0  0  0  0
    5.4230    1.0848    2.8909 H   0  0  0  0  0  0  0  0  0  0  0  0
    3.8897    1.9903    2.8489 H   0  0  0  0  0  0  0  0  0  0  0  0
    3.0515   -0.2106    2.4071 H   0  0  0  0  0  0  0  0  0  0  0  0
    4.5190    0.2458   -0.2233 H   0  0  0  0  0  0  0  0  0  0  0  0
    5.0228   -1.3454    2.8906 H   0  0  0  0  0  0  0  0  0  0  0  0
    5.7621   -0.8103    1.2813 H   0  0  0  0  0  0  0  0  0  0  0  0
    3.4242   -2.7365    1.8140 H   0  0  0  0  0  0  0  0  0  0  0  0
    4.4344   -1.8574   -0.9598 H   0  0  0  0  0  0  0  0  0  0  0  0
    1.9922   -1.1276    0.5745 H   0  0  0  0  0  0  0  0  0  0  0  0
    0.8353    0.2093   -2.4391 H   0  0  0  0  0  0  0  0  0  0  0  0
   -0.8542   -0.3964   -1.2381 H   0  0  0  0  0  0  0  0  0  0  0  0
    0.1031   -1.1310    0.0101 H   0  0  0  0  0  0  0  0  0  0  0  0
    0.1631   -3.2260   -1.6833 H   0  0  0  0  0  0  0  0  0  0  0  0
   -1.3071   -2.9539   -0.7909 H   0  0  0  0  0  0  0  0  0  0  0  0
   -1.6932   -3.2568   -3.1945 H   0  0  0  0  0  0  0  0  0  0  0  0
   -0.3834   -1.0228   -4.4191 H   0  0  0  0  0  0  0  0  0  0  0  0
    0.0007   -2.7485   -4.5677 H   0  0  0  0  0  0  0  0  0  0  0  0
    1.8265   -1.2587   -3.9112 H   0  0  0  0  0  0  0  0  0  0  0  0
    1.6333   -2.6928   -2.9165 H   0  0  0  0  0  0  0  0  0  0  0  0
   -1.8358   -0.1807   -3.0051 H   0  0  0  0  0  0  0  0  0  0  0  0
   -2.7704   -1.2997   -3.9897 H   0  0  0  0  0  0  0  0  0  0  0  0
   -4.0476   -0.2906    3.2339 H   0  0  0  0  0  0  0  0  0  0  0  0
   -5.0816    0.9996    3.9873 H   0  0  0  0  0  0  0  0  0  0  0  0
   -5.8173   -0.2657    2.8458 H   0  0  0  0  0  0  0  0  0  0  0  0
   -0.8898   -0.0946    2.4718 H   0  0  0  0  0  0  0  0  0  0  0  0
    5.7746   -5.1433    1.5613 H   0  0  0  0  0  0  0  0  0  0  0  0
    4.0247   -4.8857    1.2563 H   0  0  0  0  0  0  0  0  0  0  0  0
    4.7769   -4.1859    2.7903 H   0  0  0  0  0  0  0  0  0  0  0  0
    2.1645   -3.2963    0.0061 H   0  0  0  0  0  0  0  0  0  0  0  0
   -3.8626   -3.0513   -0.2553 H   0  0  0  0  0  0  0  0  0  0  0  0
   -3.3697   -4.1080   -1.5922 H   0  0  0  0  0  0  0  0  0  0  0  0
   -5.0964   -3.9209   -1.2280 H   0  0  0  0  0  0  0  0  0  0  0  0
    5.4915    1.7468   -1.1567 H   0  0  0  0  0  0  0  0  0  0  0  0
    4.0397    2.5617   -1.9745 H   0  0  0  0  0  0  0  0  0  0  0  0
    5.3599    3.5031   -1.2089 H   0  0  0  0  0  0  0  0  0  0  0  0
    3.3300    4.4846   -0.4182 H   0  0  0  0  0  0  0  0  0  0  0  0
    4.8506    4.4024    0.4246 H   0  0  0  0  0  0  0  0  0  0  0  0
    3.4465    4.1963    1.4276 H   0  0  0  0  0  0  0  0  0  0  0  0
   -5.4050   -1.4027   -3.4158 H   0  0  0  0  0  0  0  0  0  0  0  0
   -6.8354   -2.0621   -2.5067 H   0  0  0  0  0  0  0  0  0  0  0  0
   -6.6949   -0.1423   -0.9164 H   0  0  0  0  0  0  0  0  0  0  0  0
   -6.9732    0.4365   -2.6338 H   0  0  0  0  0  0  0  0  0  0  0  0
   -4.6986    0.8464   -2.9507 H   0  0  0  0  0  0  0  0  0  0  0  0
   -2.9688    0.5195   -1.4933 H   0  0  0  0  0  0  0  0  0  0  0  0
   -3.3871   -1.8243   -0.3568 H   0  0  0  0  0  0  0  0  0  0  0  0
   -5.4708    2.7754   -2.0775 H   0  0  0  0  0  0  0  0  0  0  0  0
   -6.1341    2.0782   -0.5838 H   0  0  0  0  0  0  0  0  0  0  0  0
   -4.3064    3.5680   -0.0913 H   0  0  0  0  0  0  0  0  0  0  0  0
   -3.7879    2.1253    1.5567 H   0  0  0  0  0  0  0  0  0  0  0  0
   -3.6712   -0.4485    0.9319 H   0  0  0  0  0  0  0  0  0  0  0  0
   -5.2509    0.3470    0.5642 H   0  0  0  0  0  0  0  0  0  0  0  0
   -1.3243    0.4464    1.8453 H   0  0  0  0  0  0  0  0  0  0  0  0
   -2.3241    3.2869    2.3409 H   0  0  0  0  0  0  0  0  0  0  0  0
   -0.0965    3.7344    2.9617 H   0  0  0  0  0  0  0  0  0  0  0  0
   -0.8444    2.9961    4.3966 H   0  0  0  0  0  0  0  0  0  0  0  0
    1.3618    2.0737    3.9368 H   0  0  0  0  0  0  0  0  0  0  0  0
    0.1138    0.8318    4.0184 H   0  0  0  0  0  0  0  0  0  0  0  0
    0.8084    0.1230    2.0017 H   0  0  0  0  0  0  0  0  0  0  0  0
    0.1272    2.9859    1.0540 H   0  0  0  0  0  0  0  0  0  0  0  0
    0.1372    1.4889    0.0074 H   0  0  0  0  0  0  0  0  0  0  0  0
    2.9191    1.4324    2.7411 H   0  0  0  0  0  0  0  0  0  0  0  0
    2.3425    2.7666    1.7565 H   0  0  0  0  0  0  0  0  0  0  0  0
    2.4810    1.3966   -0.3118 H   0  0  0  0  0  0  0  0  0  0  0  0
    6.1205    2.1377    1.4287 H   0  0  0  0  0  0  0  0  0  0  0  0
    4.7536    2.3051    2.5383 H   0  0  0  0  0  0  0  0  0  0  0  0
    6.2009   -0.1691    1.4206 H   0  0  0  0  0  0  0  0  0  0  0  0
    5.6722    0.2107    3.0769 H   0  0  0  0  0  0  0  0  0  0  0  0
    3.4481   -0.5261    2.7527 H   0  0  0  0  0  0  0  0  0  0  0  0
    4.3314   -0.3049   -0.1861 H   0  0  0  0  0  0  0  0  0  0  0  0
    3.7771   -2.7407    2.3803 H   0  0  0  0  0  0  0  0  0  0  0  0
    5.4817   -2.2181    2.2973 H   0  0  0  0  0  0  0  0  0  0  0  0
    5.4681   -2.0594   -0.0494 H   0  0  0  0  0  0  0  0  0  0  0  0
    2.7693   -3.4137   -0.3786 H   0  0  0  0  0  0  0  0  0  0  0  0
    2.0499   -1.6934    1.0855 H   0  0  0  0  0  0  0  0  0  0  0  0
   -0.1299   -0.5308   -1.5475 H   0  0  0  0  0  0  0  0  0  0  0  0
   -0.8174   -1.4112    0.4054 H   0  0  0  0  0  0  0  0  0  0  0  0
    0.4126   -2.6749    0.4595 H   0  0  0  0  0  0  0  0  0  0  0  0
   -0.6922   -4.0776   -0.9321 H   0  0  0  0  0  0  0  0  0  0  0  0
   -2.0813   -3.2894   -0.2163 H   0  0  0  0  0  0  0  0  0  0  0  0
   -1.9816   -3.6987   -2.7310 H   0  0  0  0  0  0  0  0  0  0  0  0
   -0.8318   -1.1748   -3.5135 H   0  0  0  0  0  0  0  0  0  0  0  0
   -0.5214   -2.8060   -4.0926 H   0  0  0  0  0  0  0  0  0  0  0  0
    0.8225   -3.3606   -2.1129 H   0  0  0  0  0  0  0  0  0  0  0  0
    1.4669   -1.9593   -3.1297 H   0  0  0  0  0  0  0  0  0  0  0  0
   -2.5455   -0.8536   -2.9025 H   0  0  0  0  0  0  0  0  0  0  0  0
   -3.5605   -2.2214   -3.2472 H   0  0  0  0  0  0  0  0  0  0  0  0
   -1.9185    4.3902   -2.3130 H   0  0  0  0  0  0  0  0  0  0  0  0
   -2.4165    4.6218   -0.5822 H   0  0  0  0  0  0  0  0  0  0  0  0
   -3.6156    4.7472   -1.8751 H   0  0  0  0  0  0  0  0  0  0  0  0
   -1.9876    0.9916    3.9871 H   0  0  0  0  0  0  0  0  0  0  0  0
    6.2340   -3.8280   -1.1516 H   0  0  0  0  0  0  0  0  0  0  0  0
    6.4038   -5.2619   -0.1109 H   0  0  0  0  0  0  0  0  0  0  0  0
    7.0559   -3.7114    0.4786 H   0  0  0  0  0  0  0  0  0  0  0  0
    3.3885   -1.2139   -1.8988 H   0  0  0  0  0  0  0  0  0  0  0  0
   -4.9011   -2.6758    0.5198 H   0  0  0  0  0  0  0  0  0  0  0  0
   -6.1267   -3.5413   -0.4934 H   0  0  0  0  0  0  0  0  0  0  0  0
   -6.4894   -1.9052    0.0799 H   0  0  0  0  0  0  0  0  0  0  0  0
    5.8330    1.0078   -0.6072 H   0  0  0  0  0  0  0  0  0  0  0  0
    4.2060    1.3013   -1.4362 H   0  0  0  0  0  0  0  0  0  0  0  0
    5.3685    2.6119   -1.1919 H   0  0  0  0  0  0  0  0  0  0  0  0
    4.0547    3.8392    1.5099 H   0  0  0  0  0  0  0  0  0  0  0  0
    3.0040    3.5676    0.0051 H   0  0  0  0  0  0  0  0  0  0  0  0
    4.7379    3.9161   -0.1161 H   0  0  0  0  0  0  0  0  0  0  0  0
   -5.9590   -2.7501   -1.5634 H   0  0  0  0  0  0  0  0  0  0  0  0
   -7.3402   -2.7373   -0.4763 H   0  0  0  0  0  0  0  0  0  0  0  0
   -7.5500   -0.5089   -0.5710 H   0  0  0  0  0  0  0  0  0  0  0  0
   -6.3846   -0.5643   -1.8872 H   0  0  0  0  0  0  0  0  0  0  0  0
   -6.1346    0.8838    0.4694 H   0  0  0  0  0  0  0  0  0  0  0  0
   -5.4816   -0.7826    1.7975 H   0  0  0  0  0  0  0  0  0  0  0  0
   -3.7611   -2.3860    1.5010 H   0  0  0  0  0  0  0  0  0  0  0  0
   -4.2259    0.3487   -1.8489 H   0  0  0  0  0  0  0  0  0  0  0  0
   -5.3942    1.6192   -1.6225 H   0  0  0  0  0  0  0  0  0  0  0  0
   -2.7247    1.6472   -0.8756 H   0  0  0  0  0  0  0  0  0  0  0  0
   -4.3586    2.2976    1.5378 H   0  0  0  0  0  0  0  0  0  0  0  0
   -3.9684    0.4802    2.7397 H   0  0  0  0  0  0  0  0  0  0  0  0
   -2.7999   -0.3433    1.7593 H   0  0  0  0  0  0  0  0  0  0  0  0
   -1.1586    0.5910    1.3668 H   0  0  0  0  0  0  0  0  0  0  0  0
   -1.4780    2.2512    3.6560 H   0  0  0  0  0  0  0  0  0  0  0  0
   -0.2392    4.0148    2.5104 H   0  0  0  0  0  0  0  0  0  0  0  0
    0.6161    3.3723    3.9407 H   0  0  0  0  0  0  0  0  0  0  0  0
    1.9417    3.7760    1.7824 H   0  0  0  0  0  0  0  0  0  0  0  0
    2.1962    2.2572    2.8127 H   0  0  0  0  0  0  0  0  0  0  0  0
    1.1094    0.8571    1.4293 H   0  0  0  0  0  0  0  0  0  0  0  0
   -0.4236    1.8689   -0.4211 H   0  0  0  0  0  0  0  0  0  0  0  0
   -0.2783    3.3485    0.6083 H   0  0  0  0  0  0  0  0  0  0  0  0
    2.0023    2.9989   -0.6045 H   0  0  0  0  0  0  0  0  0  0  0  0
    1.3186    1.4692   -1.0900 H   0  0  0  0  0  0  0  0  0  0  0  0
    3.4717    1.4714   -1.6024 H   0  0  0  0  0  0  0  0  0  0  0  0
    6.3309    2.9034   -0.5160 H   0  0  0  0  0  0  0  0  0  0  0  0
    5.4787    2.1599   -1.8917 H   0  0  0  0  0  0  0  0  0  0  0  0
    7.0116    0.5408   -1.0445 H   0  0  0  0  0  0  0  0  0  0  0  0
    6.4590    0.7094    0.6376 H   0  0  0  0  0  0  0  0  0  0  0  0
    4.9102   -0.2426   -1.8371 H   0  0  0  0  0  0  0  0  0  0  0  0
    4.0281    0.0549    0.9935 H   0  0  0  0  0  0  0  0  0  0  0  0
    5.4527   -1.6591    0.7605 H   0  0  0  0  0  0  0  0  0  0  0  0
    6.6478   -1.6513   -0.6526 H   0  0  0  0  0  0  0  0  0  0  0  0
    4.6374   -2.2280   -2.1558 H   0  0  0  0  0  0  0  0  0  0  0  0
    3.3491   -3.0486    0.4366 H   0  0  0  0  0  0  0  0  0  0  0  0
    2.1979   -1.1528    0.7032 H   0  0  0  0  0  0  0  0  0  0  0  0
   -0.1149   -0.4215   -0.9383 H   0  0  0  0  0  0  0  0  0  0  0  0
    0.2547   -1.3199    1.2242 H   0  0  0  0  0  0  0  0  0  0  0  0
    0.7657   -2.9641    0.5849 H   0  0  0  0  0  0  0  0  0  0  0  0
   -1.3246   -3.5532    0.0311 H   0  0  0  0  0  0  0  0  0  0  0  0
   -1.6991   -2.4171    1.3278 H   0  0  0  0  0  0  0  0  0  0  0  0
   -2.0084   -0.6390   -0.4372 H   0  0  0  0  0  0  0  0  0  0  0  0
   -1.7697   -1.0013   -2.6793 H   0  0  0  0  0  0  0  0  0  0  0  0
   -2.0926   -2.7389   -2.5846 H   0  0  0  0  0  0  0  0  0  0  0  0
   -0.1313   -3.3299   -1.6846 H   0  0  0  0  0  0  0  0  0  0  0  0
    0.3617   -2.1074   -2.9911 H   0  0  0  0  0  0  0  0  0  0  0  0
   -4.0718   -1.9900   -1.5019 H   0  0  0  0  0  0  0  0  0  0  0  0
   -3.3870   -3.3532   -0.6410 H   0  0  0  0  0  0  0  0  0  0  0  0
   -2.0263    3.8608   -0.9506 H   0  0  0  0  0  0  0  0  0  0  0  0
   -3.3559    4.8143   -1.7540 H   0  0  0  0  0  0  0  0  0  0  0  0
   -2.9118    3.2093   -2.3263 H   0  0  0  0  0  0  0  0  0  0  0  0
   -0.6273    0.0455    3.3570 H   0  0  0  0  0  0  0  0  0  0  0  0
    6.0727   -3.9210   -2.8706 H   0  0  0  0  0  0  0  0  0  0  0  0
    4.3435   -4.5639   -2.8027 H   0  0  0  0  0  0  0  0  0  0  0  0
    5.6887   -5.4545   -2.0710 H   0  0  0  0  0  0  0  0  0  0  0  0
    2.6156   -4.1441   -1.1916 H   0  0  0  0  0  0  0  0  0  0  0  0
   -5.6947   -2.6604    2.5757 H   0  0  0  0  0  0  0  0  0  0  0  0
   -6.8085   -3.7364    1.6968 H   0  0  0  0  0  0  0  0  0  0  0  0
   -7.1265   -1.9844    1.6293 H   0  0  0  0  0  0  0  0  0  0  0  0
    4.9619    4.2881   -0.7717 H   0  0  0  0  0  0  0  0  0  0  0  0
    3.6177    3.5987   -1.6846 H   0  0  0  0  0  0  0  0  0  0  0  0
    3.3956    4.3298    0.0086 H   0  0  0  0  0  0  0  0  0  0  0  0
    4.3798    1.7817    1.9844 H   0  0  0  0  0  0  0  0  0  0  0  0
    4.3169    3.5192    1.6485 H   0  0  0  0  0  0  0  0  0  0  0  0
    5.8156    2.6281    1.4399 H   0  0  0  0  0  0  0  0  0  0  0  0
  1  2  1  0
  2  3  1  0
  3  4  1  0
  4  5  1  0
  1  6  1  0
  5  6  1  0
  4  7  1  0
  7  8  1  0
  8  9  1  0
  5 10  1  0
  9 10  1  0
  9 11  1  0
 11 12  1  0
 12 13  1  0
 13 14  1  0
 14 15  1  0
 15 16  1  0
 12 17  1  0
 16 17  1  0
 16 18  1  0
 18 19  1  0
 19 20  1  0
 20 21  1  0
 21 22  1  0
 22 23  1  0
 19 24  1  0
 23 24  1  0
 23 25  1  0
 25 26  1  0
 26 27  1  0
 24 28  1  0
 27 28  1  0
 28 29  1  0
 29 30  1  0
 30 31  1  0
 31 32  1  0
 32 33  1  0
 33 34  1  0
 30 35  1  0
 34 35  1  0
  6 36  1  0
 33 36  1  0
  8 37  1  0
 37 38  1  0
 13 39  1  0
 26 40  1  0
 40 41  1  0
 27 42  1  0
  1 43  1  0
 20 44  1  0
 20 45  1  0
 46 47  1  0
 47 48  1  0
 48 49  1  0
 49 50  1  0
 46 51  1  0
 50 51  1  0
 49 52  1  0
 52 53  1  0
 53 54  1  0
 50 55  1  0
 54 55  1  0
 54 56  1  0
 56 57  1  0
 57 58  1  0
 58 59  1  0
 59 60  1  0
 60 61  1  0
 57 62  1  0
 61 62  1  0
 61 63  1  0
 63 64  1  0
 64 65  1  0
 65 66  1  0
 66 67  1  0
 67 68  1  0
 64 69  1  0
 68 69  1  0
 68 70  1  0
 70 71  1  0
 71 72  1  0
 69 73  1  0
 72 73  1  0
 73 74  1  0
 74 75  1  0
 75 76  1  0
 76 77  1  0
 77 78  1  0
 78 79  1  0
 75 80  1  0
 79 80  1  0
 51 81  1  0
 78 81  1  0
 53 82  1  0
 82 83  1  0
 58 84  1  0
 71 85  1  0
 85 86  1  0
 72 87  1  0
 46 88  1  0
 65 89  1  0
 65 90  1  0
 91 92  1  0
 92 93  1  0
 93 94  1  0
 94 95  1  0
 91 96  1  0
 95 96  1  0
 94 97  1  0
 97 98  1  0
 98 99  1  0
 95100  1  0
 99100  1  0
 99101  1  0
101102  1  0
102103  1  0
103104  1  0
104105  1  0
105106  1  0
102107  1  0
106107  1  0
106108  1  0
108109  1  0
109110  1  0
110111  1  0
111112  1  0
112113  1  0
109114  1  0
113114  1  0
113115  1  0
115116  1  0
116117  1  0
114118  1  0
117118  1  0
118119  1  0
119120  1  0
120121  1  0
121122  1  0
122123  1  0
123124  1  0
120125  1  0
124125  1  0
 96126  1  0
123126  1  0
 98127  1  0
127128  1  0
103129  1  0
116130  1  0
130131  1  0
117132  1  0
 91133  1  0
110134  1  0
110135  1  0
136137  1  0
137138  1  0
138139  1  0
139140  1  0
136141  1  0
140141  1  0
139142  1  0
142143  1  0
143144  1  0
140145  1  0
144145  1  0
144146  1  0
146147  1  0
147148  1  0
148149  1  0
149150  1  0
150151  1  0
147152  1  0
151152  1  0
151153  1  0
153154  1  0
154155  1  0
155156  1  0
156157  1  0
157158  1  0
154159  1  0
158159  1  0
158160  1  0
160161  1  0
161162  1  0
159163  1  0
162163  1  0
163164  1  0
164165  1  0
165166  1  0
166167  1  0
167168  1  0
168169  1  0
165170  1  0
169170  1  0
141171  1  0
168171  1  0
143172  1  0
172173  1  0
148174  1  0
161175  1  0
175176  1  0
162177  1  0
136178  1  0
155179  1  0
155180  1  0
181182  1  0
182183  1  0
183184  1  0
184185  1  0
181186  1  0
185186  1  0
184187  1  0
187188  1  0
188189  1  0
185190  1  0
189190  1  0
189191  1  0
191192  1  0
192193  1  0
193194  1  0
194195  1  0
195196  1  0
192197  1  0
196197  1  0
196198  1  0
198199  1  0
199200  1  0
200201  1  0
201202  1  0
202203  1  0
199204  1  0
203204  1  0
203205  1  0
205206  1  0
206207  1  0
204208  1  0
207208  1  0
208209  1  0
209210  1  0
210211  1  0
211212  1  0
212213  1  0
213214  1  0
210215  1  0
214215  1  0
186216  1  0
213216  1  0
188217  1  0
217218  1  0
193219  1  0
206220  1  0
220221  1  0
207222  1  0
181223  1  0
200224  1  0
200225  1  0
  2226  1  0
  2227  1  0
  3228  1  0
  3229  1  0
  4230  1  0
  5231  1  0
  6232  1  1
  7233  1  0
  7234  1  0
  8235  1  0
  9236  1  1
 10237  1  0
 10238  1  0
 12239  1  1
 13240  1  0
 14241  1  0
 14242  1  0
 15243  1  0
 15244  1  0
 16245  1  6
 17246  1  0
 17247  1  0
 18248  1  0
 18249  1  0
 19250  1  6
 21251  1  0
 21252  1  0
 22253  1  0
 22254  1  0
 23255  1  0
 24256  1  6
 25257  1  0
 25258  1  0
 26259  1  0
 27260  1  1
 28261  1  1
 30262  1  0
 31263  1  0
 31264  1  0
 32265  1  0
 32266  1  0
 33267  1  0
 34268  1  0
 34269  1  0
 35270  1  0
 35271  1  0
 36272  1  0
 36273  1  0
 38274  1  0
 38275  1  0
 38276  1  0
 39277  1  0
 41278  1  0
 41279  1  0
 41280  1  0
 42281  1  0
 43282  1  0
 43283  1  0
 43284  1  0
 44285  1  0
 44286  1  0
 44287  1  0
 45288  1  0
 45289  1  0
 45290  1  0
 47291  1  0
 47292  1  0
 48293  1  0
 48294  1  0
 49295  1  0
 50296  1  6
 51297  1  1
 52298  1  0
 52299  1  0
 53300  1  0
 54301  1  0
 55302  1  0
 55303  1  0
 57304  1  0
 58305  1  0
 59306  1  0
 59307  1  0
 60308  1  0
 60309  1  0
 61310  1  0
 62311  1  0
 62312  1  0
 63313  1  0
 63314  1  0
 64315  1  6
 66316  1  0
 66317  1  0
 67318  1  0
 67319  1  0
 68320  1  0
 69321  1  6
 70322  1  0
 70323  1  0
 71324  1  0
 72325  1  0
 73326  1  1
 75327  1  0
 76328  1  0
 76329  1  0
 77330  1  0
 77331  1  0
 78332  1  0
 79333  1  0
 79334  1  0
 80335  1  0
 80336  1  0
 81337  1  0
 81338  1  0
 83339  1  0
 83340  1  0
 83341  1  0
 84342  1  0
 86343  1  0
 86344  1  0
 86345  1  0
 87346  1  0
 88347  1  0
 88348  1  0
 88349  1  0
 89350  1  0
 89351  1  0
 89352  1  0
 90353  1  0
 90354  1  0
 90355  1  0
 92356  1  0
 92357  1  0
 93358  1  0
 93359  1  0
 94360  1  0
 95361  1  0
 96362  1  1
 97363  1  0
 97364  1  0
 98365  1  0
 99366  1  0
100367  1  0
100368  1  0
102369  1  0
103370  1  0
104371  1  0
104372  1  0
105373  1  0
105374  1  0
106375  1  6
107376  1  0
107377  1  0
108378  1  0
108379  1  0
109380  1  6
111381  1  0
111382  1  0
112383  1  0
112384  1  0
113385  1  0
114386  1  6
115387  1  0
115388  1  0
116389  1  0
117390  1  0
118391  1  1
120392  1  0
121393  1  0
121394  1  0
122395  1  0
122396  1  0
123397  1  0
124398  1  0
124399  1  0
125400  1  0
125401  1  0
126402  1  0
126403  1  0
128404  1  0
128405  1  0
128406  1  0
129407  1  0
131408  1  0
131409  1  0
131410  1  0
132411  1  0
133412  1  0
133413  1  0
133414  1  0
134415  1  0
134416  1  0
134417  1  0
135418  1  0
135419  1  0
135420  1  0
137421  1  0
137422  1  0
138423  1  0
138424  1  0
139425  1  0
140426  1  0
141427  1  1
142428  1  0
142429  1  0
143430  1  1
144431  1  1
145432  1  0
145433  1  0
147434  1  1
148435  1  0
149436  1  0
149437  1  0
150438  1  0
150439  1  0
151440  1  0
152441  1  0
152442  1  0
153443  1  0
153444  1  0
154445  1  6
156446  1  0
156447  1  0
157448  1  0
157449  1  0
158450  1  0
159451  1  6
160452  1  0
160453  1  0
161454  1  0
162455  1  0
163456  1  1
165457  1  0
166458  1  0
166459  1  0
167460  1  0
167461  1  0
168462  1  0
169463  1  0
169464  1  0
170465  1  0
170466  1  0
171467  1  0
171468  1  0
173469  1  0
173470  1  0
173471  1  0
174472  1  0
176473  1  0
176474  1  0
176475  1  0
177476  1  0
178477  1  0
178478  1  0
178479  1  0
179480  1  0
179481  1  0
179482  1  0
180483  1  0
180484  1  0
180485  1  0
182486  1  0
182487  1  0
183488  1  0
183489  1  0
184490  1  0
185491  1  0
186492  1  1
187493  1  0
187494  1  0
188495  1  0
189496  1  1
190497  1  0
190498  1  0
192499  1  0
193500  1  0
194501  1  0
194502  1  0
195503  1  0
195504  1  0
196505  1  0
197506  1  0
197507  1  0
198508  1  0
198509  1  0
199510  1  6
201511  1  0
201512  1  0
202513  1  0
202514  1  0
203515  1  0
204516  1  0
205517  1  0
205518  1  0
206519  1  0
207520  1  0
208521  1  1
210522  1  0
211523  1  0
211524  1  0
212525  1  0
212526  1  0
213527  1  0
214528  1  0
214529  1  0
215530  1  0
215531  1  0
216532  1  0
216533  1  0
218534  1  0
218535  1  0
218536  1  0
219537  1  0
221538  1  0
221539  1  0
221540  1  0
222541  1  0
223542  1  0
223543  1  0
223544  1  0
224545  1  0
224546  1  0
224547  1  0
225548  1  0
225549  1  0
225550  1  0
M  CHG  5  20   1  65   1 110   1 155   1 200   1
M  END
>  <PDBID>  (1) 
2XYT

>  <PDB ID>  (1) 
2XYT

>  <Generic Name>  (1) 
Tubocurarine

>  <Brand Name>  (1) 
Tubocurarine Chloride Inj 3mg/ml#Tubocurarine Chloride Inj 3mg/ml USP#Tubarine

>  <DrugBank ID>  (1) 
DB01199

>  <ATC Codes>  (1) 
M03AA02

>  <Ligand ID>  (1) 
TC9,TUB

>  <Target Name>  (1) 
Neuronal acetylcholine receptor subunit alpha-2

>  <UniProt ID>  (1) 
Q15822

>  <PDB ID.1>  (1) 
2XYT

>  <Seq. Identity>  (1) 
31%

$$$$
