PDB_DB00282_07
     RDKit          3D

 28 27  0  0  0  0  0  0  0  0999 V2000
   -0.8278   -1.1150    0.7620 P   0  0  0  0  0  0  0  0  0  0  0  0
    0.1640   -1.5616    2.0303 O   0  0  0  0  0  0  0  0  0  0  0  0
   -2.4265   -1.5882    0.7120 O   0  0  0  0  0  0  0  0  0  0  0  0
   -0.4363   -2.4149    0.0493 O   0  0  0  0  0  0  0  0  0  0  0  0
   -0.2631    0.0672   -0.3901 C   0  0  0  0  0  0  0  0  0  0  0  0
   -0.9520    1.6782   -0.3894 P   0  0  0  0  0  0  0  0  0  0  0  0
   -2.0078    1.4487    0.6854 O   0  0  0  0  0  0  0  0  0  0  0  0
   -0.2480    2.8574    0.5500 O   0  0  0  0  0  0  0  0  0  0  0  0
   -2.1582    2.0849   -1.4747 O   0  0  0  0  0  0  0  0  0  0  0  0
   -0.3189   -0.4222   -1.7322 O   0  0  0  0  0  0  0  0  0  0  0  0
    1.2281    0.2209   -0.1361 C   0  0  0  0  0  0  0  0  0  0  0  0
    2.0144   -1.0305   -0.3120 C   0  0  0  0  0  0  0  0  0  0  0  0
    3.4159   -0.6792   -0.0301 N   0  0  0  0  0  0  0  0  0  0  0  0
   -1.2511   -0.2062    1.5686 H   0  0  0  0  0  0  0  0  0  0  0  0
   -0.3238   -2.1829    2.5794 H   0  0  0  0  0  0  0  0  0  0  0  0
   -2.5711   -2.2180    1.4227 H   0  0  0  0  0  0  0  0  0  0  0  0
   -0.6622   -2.4594   -0.8911 H   0  0  0  0  0  0  0  0  0  0  0  0
   -0.1587    2.1337   -1.3043 H   0  0  0  0  0  0  0  0  0  0  0  0
   -2.6186    2.1269    1.0050 H   0  0  0  0  0  0  0  0  0  0  0  0
   -0.7719    3.6601    0.4584 H   0  0  0  0  0  0  0  0  0  0  0  0
   -2.3162    1.2893   -1.9877 H   0  0  0  0  0  0  0  0  0  0  0  0
   -0.4927    0.2926   -2.3638 H   0  0  0  0  0  0  0  0  0  0  0  0
    1.6081    0.9557   -0.8865 H   0  0  0  0  0  0  0  0  0  0  0  0
    1.4065    0.6076    0.9066 H   0  0  0  0  0  0  0  0  0  0  0  0
    1.9200   -1.3660   -1.3781 H   0  0  0  0  0  0  0  0  0  0  0  0
    1.7887   -1.8426    0.3931 H   0  0  0  0  0  0  0  0  0  0  0  0
    3.4628   -0.2857    0.9202 H   0  0  0  0  0  0  0  0  0  0  0  0
    3.7965   -0.0508   -0.7670 H   0  0  0  0  0  0  0  0  0  0  0  0
  1  2  1  0
  1  3  1  0
  1  4  1  0
  1  5  1  0
  5  6  1  0
  6  7  1  0
  6  8  1  0
  6  9  1  0
  5 10  1  0
  5 11  1  0
 11 12  1  0
 12 13  1  0
  1 14  1  0
  2 15  1  0
  3 16  1  0
  4 17  1  0
  6 18  1  0
  7 19  1  0
  8 20  1  0
  9 21  1  0
 10 22  1  0
 11 23  1  0
 11 24  1  0
 12 25  1  0
 12 26  1  0
 13 27  1  0
 13 28  1  0
M  END
>  <PDBID>  (1) 
2F89

>  <PDB ID>  (1) 
2F89

>  <Generic Name>  (1) 
Pamidronate

>  <Brand Name>  (1) 
Aredia#Aredia 30mg#Aredia 90mg#Aredia Liq Inj 3mg/ml#PMS-pamidronate#Pamidronate Disodium#Pamidronate Disodium Omega 3 mg/ml#Pamidronate Disodium Omega 6 mg/ml#Pamidronate Disodium Omega 9 mg/ml#Pamidronate Disodium for Injection#Val-pamidronate Disodium#Aminomux#Pamimed

>  <DrugBank ID>  (1) 
DB00282

>  <ATC Codes>  (1) 
M05BA03

>  <Ligand ID>  (1) 
210

>  <Target Name>  (1) 
Farnesyl pyrophosphate synthase

>  <UniProt ID>  (1) 
P14324

>  <PDB ID.1>  (1) 
2F89

>  <Seq. Identity>  (1) 
100%

$$$$
