PDB_DB08882_01
     RDKit          3D

170178  0  0  0  0  0  0  0  0999 V2000
   -1.2277    0.2593    1.0748 C   0  0  0  0  0  0  0  0  0  0  0  0
   -2.4540    0.8340    0.6932 N   0  0  0  0  0  0  0  0  0  0  0  0
   -1.2678   -1.0544    0.3375 C   0  0  0  0  0  0  0  0  0  0  0  0
   -0.0112    1.0564    0.8416 C   0  0  0  0  0  0  0  0  0  0  0  0
   -2.9327    0.2723   -0.5051 C   0  0  0  0  0  0  0  0  0  0  0  0
   -2.7375    2.1465    1.0436 C   0  0  0  0  0  0  0  0  0  0  0  0
   -1.9683   -0.7529   -0.8576 N   0  0  0  0  0  0  0  0  0  0  0  0
   -0.0111   -1.6652    0.2516 N   0  0  0  0  0  0  0  0  0  0  0  0
    1.2188    0.2689    0.7740 N   0  0  0  0  0  0  0  0  0  0  0  0
   -0.0189    1.8749   -0.2629 O   0  0  0  0  0  0  0  0  0  0  0  0
   -4.2329   -0.3064   -0.4444 N   0  0  0  0  0  0  0  0  0  0  0  0
   -4.0447    2.7099    0.6184 C   0  0  0  0  0  0  0  0  0  0  0  0
    1.1139   -0.8377   -0.1068 C   0  0  0  0  0  0  0  0  0  0  0  0
   -0.0012   -2.9496   -0.3695 C   0  0  0  0  0  0  0  0  0  0  0  0
    2.2250    1.1889    0.3230 C   0  0  0  0  0  0  0  0  0  0  0  0
   -4.7327   -0.8847   -1.6384 C   0  0  0  0  0  0  0  0  0  0  0  0
   -4.6538   -0.8584    0.7830 C   0  0  0  0  0  0  0  0  0  0  0  0
   -4.1212    4.1562    1.1185 C   0  0  0  0  0  0  0  0  0  0  0  0
    1.1374   -0.5112   -1.4447 O   0  0  0  0  0  0  0  0  0  0  0  0
    3.6143    0.7109    0.2030 C   0  0  0  0  0  0  0  0  0  0  0  0
   -5.5809   -2.1110   -1.4175 C   0  0  1  0  0  0  0  0  0  0  0  0
   -6.1864   -0.9472    0.7351 C   0  0  0  0  0  0  0  0  0  0  0  0
   -5.4150    4.8017    0.7292 C   0  0  0  0  0  0  0  0  0  0  0  0
    3.7957   -0.3384   -0.7034 N   0  0  0  0  0  0  0  0  0  0  0  0
    4.1501    0.4983    1.5318 N   0  0  0  0  0  0  0  0  0  0  0  0
   -6.5460   -1.9930   -0.2805 C   0  0  0  0  0  0  0  0  0  0  0  0
   -6.3358   -2.3627   -2.6369 N   0  0  0  0  0  0  0  0  0  0  0  0
    4.8279   -1.2924   -0.4806 C   0  0  0  0  0  0  0  0  0  0  0  0
    5.5500    0.2219    1.3885 C   0  0  0  0  0  0  0  0  0  0  0  0
    5.7873   -1.0436    0.6030 C   0  0  0  0  0  0  0  0  0  0  0  0
    5.5795   -1.4662   -1.8029 C   0  0  0  0  0  0  0  0  0  0  0  0
    6.1146    0.0821    2.8061 C   0  0  0  0  0  0  0  0  0  0  0  0
    7.2148   -0.9988    0.0978 C   0  0  0  0  0  0  0  0  0  0  0  0
    6.3537   -0.2125   -2.1052 C   0  0  0  0  0  0  0  0  0  0  0  0
    7.3968   -0.0313   -1.0260 C   0  0  0  0  0  0  0  0  0  0  0  0
   -1.2277    0.2593    1.0748 C   0  0  0  0  0  0  0  0  0  0  0  0
   -2.4540    0.8340    0.6932 N   0  0  0  0  0  0  0  0  0  0  0  0
   -1.2678   -1.0544    0.3375 C   0  0  0  0  0  0  0  0  0  0  0  0
   -0.0112    1.0564    0.8416 C   0  0  0  0  0  0  0  0  0  0  0  0
   -2.9327    0.2723   -0.5051 C   0  0  0  0  0  0  0  0  0  0  0  0
   -2.7375    2.1465    1.0436 C   0  0  0  0  0  0  0  0  0  0  0  0
   -1.9683   -0.7529   -0.8576 N   0  0  0  0  0  0  0  0  0  0  0  0
   -0.0111   -1.6652    0.2516 N   0  0  0  0  0  0  0  0  0  0  0  0
    1.2188    0.2689    0.7740 N   0  0  0  0  0  0  0  0  0  0  0  0
   -0.0189    1.8749   -0.2629 O   0  0  0  0  0  0  0  0  0  0  0  0
   -4.2329   -0.3064   -0.4444 N   0  0  0  0  0  0  0  0  0  0  0  0
   -4.0447    2.7099    0.6184 C   0  0  0  0  0  0  0  0  0  0  0  0
    1.1139   -0.8377   -0.1068 C   0  0  0  0  0  0  0  0  0  0  0  0
   -0.0012   -2.9496   -0.3695 C   0  0  0  0  0  0  0  0  0  0  0  0
    2.2250    1.1889    0.3230 C   0  0  0  0  0  0  0  0  0  0  0  0
   -4.7327   -0.8847   -1.6384 C   0  0  0  0  0  0  0  0  0  0  0  0
   -4.6538   -0.8584    0.7830 C   0  0  0  0  0  0  0  0  0  0  0  0
   -4.1212    4.1562    1.1185 C   0  0  0  0  0  0  0  0  0  0  0  0
    1.1374   -0.5112   -1.4447 O   0  0  0  0  0  0  0  0  0  0  0  0
    3.6143    0.7109    0.2030 C   0  0  0  0  0  0  0  0  0  0  0  0
   -5.5809   -2.1110   -1.4175 C   0  0  1  0  0  0  0  0  0  0  0  0
   -6.1864   -0.9472    0.7351 C   0  0  0  0  0  0  0  0  0  0  0  0
   -5.4150    4.8017    0.7292 C   0  0  0  0  0  0  0  0  0  0  0  0
    3.7957   -0.3384   -0.7034 N   0  0  0  0  0  0  0  0  0  0  0  0
    4.1501    0.4983    1.5318 N   0  0  0  0  0  0  0  0  0  0  0  0
   -6.5460   -1.9930   -0.2805 C   0  0  0  0  0  0  0  0  0  0  0  0
   -6.3358   -2.3627   -2.6369 N   0  0  0  0  0  0  0  0  0  0  0  0
    4.8279   -1.2924   -0.4806 C   0  0  0  0  0  0  0  0  0  0  0  0
    5.5500    0.2219    1.3885 C   0  0  0  0  0  0  0  0  0  0  0  0
    5.7873   -1.0436    0.6030 C   0  0  0  0  0  0  0  0  0  0  0  0
    5.5795   -1.4662   -1.8029 C   0  0  0  0  0  0  0  0  0  0  0  0
    6.1146    0.0821    2.8061 C   0  0  0  0  0  0  0  0  0  0  0  0
    7.2148   -0.9988    0.0978 C   0  0  0  0  0  0  0  0  0  0  0  0
    6.3537   -0.2125   -2.1052 C   0  0  0  0  0  0  0  0  0  0  0  0
    7.3968   -0.0313   -1.0260 C   0  0  0  0  0  0  0  0  0  0  0  0
   -1.2818    0.0063    2.1684 H   0  0  0  0  0  0  0  0  0  0  0  0
   -1.9315   -1.7531    0.9302 H   0  0  0  0  0  0  0  0  0  0  0  0
    0.1370    1.7347    1.7346 H   0  0  0  0  0  0  0  0  0  0  0  0
   -2.9394    0.9784   -1.3774 H   0  0  0  0  0  0  0  0  0  0  0  0
   -2.7123    2.2365    2.1733 H   0  0  0  0  0  0  0  0  0  0  0  0
   -1.9018    2.8374    0.7236 H   0  0  0  0  0  0  0  0  0  0  0  0
   -1.4117   -0.5276   -1.6826 H   0  0  0  0  0  0  0  0  0  0  0  0
   -0.6076    1.6225   -0.9881 H   0  0  0  0  0  0  0  0  0  0  0  0
   -4.9019    2.1813    1.0740 H   0  0  0  0  0  0  0  0  0  0  0  0
   -4.2118    2.7461   -0.4669 H   0  0  0  0  0  0  0  0  0  0  0  0
    2.0021   -1.5111    0.0990 H   0  0  0  0  0  0  0  0  0  0  0  0
    0.9302   -3.1561   -0.9451 H   0  0  0  0  0  0  0  0  0  0  0  0
   -0.8894   -3.0259   -1.0215 H   0  0  0  0  0  0  0  0  0  0  0  0
   -0.1215   -3.7130    0.4331 H   0  0  0  0  0  0  0  0  0  0  0  0
    1.8939    1.4901   -0.7224 H   0  0  0  0  0  0  0  0  0  0  0  0
    2.1220    2.1078    0.9597 H   0  0  0  0  0  0  0  0  0  0  0  0
   -5.3520   -0.1282   -2.2028 H   0  0  0  0  0  0  0  0  0  0  0  0
   -3.9218   -1.1632   -2.3420 H   0  0  0  0  0  0  0  0  0  0  0  0
   -4.3215   -1.8936    0.9918 H   0  0  0  0  0  0  0  0  0  0  0  0
   -4.4154   -0.1826    1.6084 H   0  0  0  0  0  0  0  0  0  0  0  0
   -4.0142    4.1290    2.2100 H   0  0  0  0  0  0  0  0  0  0  0  0
   -3.2807    4.7595    0.7084 H   0  0  0  0  0  0  0  0  0  0  0  0
    1.0879   -1.3750   -1.9573 H   0  0  0  0  0  0  0  0  0  0  0  0
    4.2118    1.5931   -0.1906 H   0  0  0  0  0  0  0  0  0  0  0  0
   -4.8801   -2.9617   -1.2501 H   0  0  0  0  0  0  0  0  0  0  0  0
   -6.6026   -1.2410    1.7164 H   0  0  0  0  0  0  0  0  0  0  0  0
   -6.5873    0.0386    0.3990 H   0  0  0  0  0  0  0  0  0  0  0  0
   -6.1748    4.0191    0.4884 H   0  0  0  0  0  0  0  0  0  0  0  0
   -5.3120    5.4746   -0.1400 H   0  0  0  0  0  0  0  0  0  0  0  0
   -5.8205    5.4147    1.5658 H   0  0  0  0  0  0  0  0  0  0  0  0
    3.7916    0.0501   -1.6788 H   0  0  0  0  0  0  0  0  0  0  0  0
    3.6347   -0.2210    2.0763 H   0  0  0  0  0  0  0  0  0  0  0  0
   -6.6049   -3.0050    0.2108 H   0  0  0  0  0  0  0  0  0  0  0  0
   -7.5889   -1.8177   -0.6715 H   0  0  0  0  0  0  0  0  0  0  0  0
   -7.2596   -2.7834   -2.3705 H   0  0  0  0  0  0  0  0  0  0  0  0
   -5.8611   -3.0907   -3.2210 H   0  0  0  0  0  0  0  0  0  0  0  0
    4.3291   -2.2880   -0.3106 H   0  0  0  0  0  0  0  0  0  0  0  0
    6.0365    1.0909    0.9338 H   0  0  0  0  0  0  0  0  0  0  0  0
    5.7713   -1.8772    1.3674 H   0  0  0  0  0  0  0  0  0  0  0  0
    4.8144   -1.5925   -2.5996 H   0  0  0  0  0  0  0  0  0  0  0  0
    6.2243   -2.3567   -1.7772 H   0  0  0  0  0  0  0  0  0  0  0  0
    5.7016    0.9357    3.3723 H   0  0  0  0  0  0  0  0  0  0  0  0
    5.6932   -0.8519    3.2124 H   0  0  0  0  0  0  0  0  0  0  0  0
    7.2013    0.1101    2.7348 H   0  0  0  0  0  0  0  0  0  0  0  0
    7.5861   -2.0016   -0.2019 H   0  0  0  0  0  0  0  0  0  0  0  0
    7.8465   -0.6389    0.9511 H   0  0  0  0  0  0  0  0  0  0  0  0
    5.6720    0.6433   -2.1800 H   0  0  0  0  0  0  0  0  0  0  0  0
    6.8289   -0.3132   -3.1151 H   0  0  0  0  0  0  0  0  0  0  0  0
    8.3897   -0.2152   -1.4850 H   0  0  0  0  0  0  0  0  0  0  0  0
    7.4021    1.0203   -0.6843 H   0  0  0  0  0  0  0  0  0  0  0  0
   -1.2818    0.0063    2.1684 H   0  0  0  0  0  0  0  0  0  0  0  0
   -1.9315   -1.7531    0.9302 H   0  0  0  0  0  0  0  0  0  0  0  0
    0.1370    1.7347    1.7346 H   0  0  0  0  0  0  0  0  0  0  0  0
   -2.9394    0.9784   -1.3774 H   0  0  0  0  0  0  0  0  0  0  0  0
   -2.7123    2.2365    2.1733 H   0  0  0  0  0  0  0  0  0  0  0  0
   -1.9018    2.8374    0.7236 H   0  0  0  0  0  0  0  0  0  0  0  0
   -1.4117   -0.5276   -1.6826 H   0  0  0  0  0  0  0  0  0  0  0  0
   -0.6076    1.6225   -0.9881 H   0  0  0  0  0  0  0  0  0  0  0  0
   -4.9019    2.1813    1.0740 H   0  0  0  0  0  0  0  0  0  0  0  0
   -4.2118    2.7461   -0.4669 H   0  0  0  0  0  0  0  0  0  0  0  0
    2.0021   -1.5111    0.0990 H   0  0  0  0  0  0  0  0  0  0  0  0
    0.9302   -3.1561   -0.9451 H   0  0  0  0  0  0  0  0  0  0  0  0
   -0.8894   -3.0259   -1.0215 H   0  0  0  0  0  0  0  0  0  0  0  0
   -0.1215   -3.7130    0.4331 H   0  0  0  0  0  0  0  0  0  0  0  0
    1.8939    1.4901   -0.7224 H   0  0  0  0  0  0  0  0  0  0  0  0
    2.1220    2.1078    0.9597 H   0  0  0  0  0  0  0  0  0  0  0  0
   -5.3520   -0.1282   -2.2028 H   0  0  0  0  0  0  0  0  0  0  0  0
   -3.9218   -1.1632   -2.3420 H   0  0  0  0  0  0  0  0  0  0  0  0
   -4.3215   -1.8936    0.9918 H   0  0  0  0  0  0  0  0  0  0  0  0
   -4.4154   -0.1826    1.6084 H   0  0  0  0  0  0  0  0  0  0  0  0
   -4.0142    4.1290    2.2100 H   0  0  0  0  0  0  0  0  0  0  0  0
   -3.2807    4.7595    0.7084 H   0  0  0  0  0  0  0  0  0  0  0  0
    1.0879   -1.3750   -1.9573 H   0  0  0  0  0  0  0  0  0  0  0  0
    4.2118    1.5931   -0.1906 H   0  0  0  0  0  0  0  0  0  0  0  0
   -4.8801   -2.9617   -1.2501 H   0  0  0  0  0  0  0  0  0  0  0  0
   -6.6026   -1.2410    1.7164 H   0  0  0  0  0  0  0  0  0  0  0  0
   -6.5873    0.0386    0.3990 H   0  0  0  0  0  0  0  0  0  0  0  0
   -6.1748    4.0191    0.4884 H   0  0  0  0  0  0  0  0  0  0  0  0
   -5.3120    5.4746   -0.1400 H   0  0  0  0  0  0  0  0  0  0  0  0
   -5.8205    5.4147    1.5658 H   0  0  0  0  0  0  0  0  0  0  0  0
    3.7916    0.0501   -1.6788 H   0  0  0  0  0  0  0  0  0  0  0  0
    3.6347   -0.2210    2.0763 H   0  0  0  0  0  0  0  0  0  0  0  0
   -6.6049   -3.0050    0.2108 H   0  0  0  0  0  0  0  0  0  0  0  0
   -7.5889   -1.8177   -0.6715 H   0  0  0  0  0  0  0  0  0  0  0  0
   -7.2596   -2.7834   -2.3705 H   0  0  0  0  0  0  0  0  0  0  0  0
   -5.8611   -3.0907   -3.2210 H   0  0  0  0  0  0  0  0  0  0  0  0
    4.3291   -2.2880   -0.3106 H   0  0  0  0  0  0  0  0  0  0  0  0
    6.0365    1.0909    0.9338 H   0  0  0  0  0  0  0  0  0  0  0  0
    5.7713   -1.8772    1.3674 H   0  0  0  0  0  0  0  0  0  0  0  0
    4.8144   -1.5925   -2.5996 H   0  0  0  0  0  0  0  0  0  0  0  0
    6.2243   -2.3567   -1.7772 H   0  0  0  0  0  0  0  0  0  0  0  0
    5.7016    0.9357    3.3723 H   0  0  0  0  0  0  0  0  0  0  0  0
    5.6932   -0.8519    3.2124 H   0  0  0  0  0  0  0  0  0  0  0  0
    7.2013    0.1101    2.7348 H   0  0  0  0  0  0  0  0  0  0  0  0
    7.5861   -2.0016   -0.2019 H   0  0  0  0  0  0  0  0  0  0  0  0
    7.8465   -0.6389    0.9511 H   0  0  0  0  0  0  0  0  0  0  0  0
    5.6720    0.6433   -2.1800 H   0  0  0  0  0  0  0  0  0  0  0  0
    6.8289   -0.3132   -3.1151 H   0  0  0  0  0  0  0  0  0  0  0  0
    8.3897   -0.2152   -1.4850 H   0  0  0  0  0  0  0  0  0  0  0  0
    7.4021    1.0203   -0.6843 H   0  0  0  0  0  0  0  0  0  0  0  0
  1  2  1  0
  1  3  1  0
  1  4  1  0
  2  5  1  0
  2  6  1  0
  3  7  1  0
  5  7  1  0
  3  8  1  0
  4  9  1  0
  4 10  1  0
  5 11  1  0
  6 12  1  0
  8 13  1  0
  9 13  1  0
  8 14  1  0
  9 15  1  0
 11 16  1  0
 11 17  1  0
 12 18  1  0
 13 19  1  0
 15 20  1  0
 16 21  1  0
 17 22  1  0
 18 23  1  0
 20 24  1  0
 20 25  1  0
 21 26  1  0
 22 26  1  0
 21 27  1  0
 24 28  1  0
 25 29  1  0
 28 30  1  0
 29 30  1  0
 28 31  1  0
 29 32  1  0
 30 33  1  0
 31 34  1  0
 33 35  1  0
 34 35  1  0
 36 37  1  0
 36 38  1  0
 36 39  1  0
 37 40  1  0
 37 41  1  0
 38 42  1  0
 40 42  1  0
 38 43  1  0
 39 44  1  0
 39 45  1  0
 40 46  1  0
 41 47  1  0
 43 48  1  0
 44 48  1  0
 43 49  1  0
 44 50  1  0
 46 51  1  0
 46 52  1  0
 47 53  1  0
 48 54  1  0
 50 55  1  0
 51 56  1  0
 52 57  1  0
 53 58  1  0
 55 59  1  0
 55 60  1  0
 56 61  1  0
 57 61  1  0
 56 62  1  0
 59 63  1  0
 60 64  1  0
 63 65  1  0
 64 65  1  0
 63 66  1  0
 64 67  1  0
 65 68  1  0
 66 69  1  0
 68 70  1  0
 69 70  1  0
  1 71  1  0
  3 72  1  0
  4 73  1  0
  5 74  1  0
  6 75  1  0
  6 76  1  0
  7 77  1  0
 10 78  1  0
 12 79  1  0
 12 80  1  0
 13 81  1  0
 14 82  1  0
 14 83  1  0
 14 84  1  0
 15 85  1  0
 15 86  1  0
 16 87  1  0
 16 88  1  0
 17 89  1  0
 17 90  1  0
 18 91  1  0
 18 92  1  0
 19 93  1  0
 20 94  1  0
 21 95  1  1
 22 96  1  0
 22 97  1  0
 23 98  1  0
 23 99  1  0
 23100  1  0
 24101  1  0
 25102  1  0
 26103  1  0
 26104  1  0
 27105  1  0
 27106  1  0
 28107  1  0
 29108  1  0
 30109  1  0
 31110  1  0
 31111  1  0
 32112  1  0
 32113  1  0
 32114  1  0
 33115  1  0
 33116  1  0
 34117  1  0
 34118  1  0
 35119  1  0
 35120  1  0
 36121  1  0
 38122  1  0
 39123  1  0
 40124  1  0
 41125  1  0
 41126  1  0
 42127  1  0
 45128  1  0
 47129  1  0
 47130  1  0
 48131  1  0
 49132  1  0
 49133  1  0
 49134  1  0
 50135  1  0
 50136  1  0
 51137  1  0
 51138  1  0
 52139  1  0
 52140  1  0
 53141  1  0
 53142  1  0
 54143  1  0
 55144  1  0
 56145  1  1
 57146  1  0
 57147  1  0
 58148  1  0
 58149  1  0
 58150  1  0
 59151  1  0
 60152  1  0
 61153  1  0
 61154  1  0
 62155  1  0
 62156  1  0
 63157  1  0
 64158  1  0
 65159  1  0
 66160  1  0
 66161  1  0
 67162  1  0
 67163  1  0
 67164  1  0
 68165  1  0
 68166  1  0
 69167  1  0
 69168  1  0
 70169  1  0
 70170  1  0
M  END
>  <PDBID>  (1) 
2RGU

>  <PDB ID>  (1) 
2RGU

>  <Generic Name>  (1) 
Linagliptin

>  <Brand Name>  (1) 
Glyxambi#Jentadueto#Jentadueto XR#Tradjenta#Trajenta

>  <DrugBank ID>  (1) 
DB08882

>  <ATC Codes>  (1) 
A10BH05#A10BD19#A10BD11

>  <Ligand ID>  (1) 
356

>  <Target Name>  (1) 
Dipeptidyl peptidase 4

>  <UniProt ID>  (1) 
P27487

>  <PDB ID.1>  (1) 
2RGU

>  <Seq. Identity>  (1) 
100%

$$$$
