PDB_DB00382_08
     RDKit          3D

 39 41  0  0  0  0  0  0  0  0999 V2000
    3.6453    0.8296    0.1290 C   0  0  0  0  0  0  0  0  0  0  0  0
    2.3626    1.4967    0.4998 C   0  0  0  0  0  0  0  0  0  0  0  0
    1.2506    0.4768    0.7946 C   0  0  0  0  0  0  0  0  0  0  0  0
    1.2550   -0.4971   -0.3263 C   0  0  0  0  0  0  0  0  0  0  0  0
    2.4897   -1.3347   -0.2953 C   0  0  0  0  0  0  0  0  0  0  0  0
    3.6216   -0.6454    0.4709 C   0  0  0  0  0  0  0  0  0  0  0  0
    0.0654    1.2116    0.9876 N   0  0  0  0  0  0  0  0  0  0  0  0
   -1.1617    0.6120    0.6867 C   0  0  2  0  0  0  0  0  0  0  0  0
   -1.1553   -0.3702   -0.4561 C   0  0  1  0  0  0  0  0  0  0  0  0
   -0.0194   -1.3251   -0.3928 C   0  0  0  0  0  0  0  0  0  0  0  0
   -2.1403    1.6986    0.2392 C   0  0  0  0  0  0  0  0  0  0  0  0
   -3.5178    1.1849    0.0471 C   0  0  0  0  0  0  0  0  0  0  0  0
   -3.6515   -0.1737   -0.4947 C   0  0  0  0  0  0  0  0  0  0  0  0
   -2.4854   -1.0672   -0.4242 C   0  0  0  0  0  0  0  0  0  0  0  0
   -0.1053   -2.2905    0.6601 N   0  0  0  0  0  0  0  0  0  0  0  0
    3.8136    0.9346   -0.9612 H   0  0  0  0  0  0  0  0  0  0  0  0
    4.5128    1.2856    0.6294 H   0  0  0  0  0  0  0  0  0  0  0  0
    1.9583    2.1041   -0.3603 H   0  0  0  0  0  0  0  0  0  0  0  0
    2.4381    2.1911    1.3434 H   0  0  0  0  0  0  0  0  0  0  0  0
    1.5436   -0.0462    1.7334 H   0  0  0  0  0  0  0  0  0  0  0  0
    1.2708    0.0900   -1.2911 H   0  0  0  0  0  0  0  0  0  0  0  0
    2.9016   -1.5087   -1.3214 H   0  0  0  0  0  0  0  0  0  0  0  0
    2.2821   -2.3068    0.1673 H   0  0  0  0  0  0  0  0  0  0  0  0
    4.6088   -1.0541    0.1345 H   0  0  0  0  0  0  0  0  0  0  0  0
    3.4874   -0.7450    1.5613 H   0  0  0  0  0  0  0  0  0  0  0  0
    0.1139    2.2292    0.8667 H   0  0  0  0  0  0  0  0  0  0  0  0
   -1.6394    0.1289    1.5770 H   0  0  0  0  0  0  0  0  0  0  0  0
   -1.0889    0.2035   -1.4011 H   0  0  0  0  0  0  0  0  0  0  0  0
    0.0178   -1.8846   -1.3581 H   0  0  0  0  0  0  0  0  0  0  0  0
   -1.7289    2.0571   -0.7494 H   0  0  0  0  0  0  0  0  0  0  0  0
   -2.0987    2.5359    0.9411 H   0  0  0  0  0  0  0  0  0  0  0  0
   -4.0608    1.9178   -0.6203 H   0  0  0  0  0  0  0  0  0  0  0  0
   -4.0561    1.2855    1.0350 H   0  0  0  0  0  0  0  0  0  0  0  0
   -4.5143   -0.6805    0.0310 H   0  0  0  0  0  0  0  0  0  0  0  0
   -3.9943   -0.1261   -1.5696 H   0  0  0  0  0  0  0  0  0  0  0  0
   -2.5258   -1.6729    0.5103 H   0  0  0  0  0  0  0  0  0  0  0  0
   -2.5017   -1.7961   -1.2823 H   0  0  0  0  0  0  0  0  0  0  0  0
   -0.4818   -1.8531    1.5371 H   0  0  0  0  0  0  0  0  0  0  0  0
   -0.7115   -3.0956    0.3795 H   0  0  0  0  0  0  0  0  0  0  0  0
  1  2  1  0
  2  3  1  0
  3  4  1  0
  4  5  1  0
  1  6  1  0
  5  6  1  0
  3  7  1  0
  7  8  1  0
  8  9  1  0
  4 10  1  0
  9 10  1  0
  8 11  1  0
 11 12  1  0
 12 13  1  0
  9 14  1  0
 13 14  1  0
 10 15  1  0
  1 16  1  0
  1 17  1  0
  2 18  1  0
  2 19  1  0
  3 20  1  0
  4 21  1  0
  5 22  1  0
  5 23  1  0
  6 24  1  0
  6 25  1  0
  7 26  1  0
  8 27  1  1
  9 28  1  6
 10 29  1  0
 11 30  1  0
 11 31  1  0
 12 32  1  0
 12 33  1  0
 13 34  1  0
 13 35  1  0
 14 36  1  0
 14 37  1  0
 15 38  1  0
 15 39  1  0
M  END
>  <PDBID>  (1) 
1ACJ

>  <PDB ID>  (1) 
1ACJ

>  <Generic Name>  (1) 
Tacrine

>  <Brand Name>  (1) 
Cognex#Talem

>  <DrugBank ID>  (1) 
DB00382

>  <ATC Codes>  (1) 
N06DA01

>  <Ligand ID>  (1) 
THA

>  <Target Name>  (1) 
Acetylcholinesterase

>  <UniProt ID>  (1) 
P22303

>  <PDB ID.1>  (1) 
1ACJ

>  <Seq. Identity>  (1) 
57%

$$$$
