PDB_DB05015_00
     RDKit          3D

108110  0  0  0  0  0  0  0  0999 V2000
    5.2372   -1.6475    1.2274 O   0  0  0  0  0  0  0  0  0  0  0  0
    5.3611   -0.7117    0.1959 C   0  0  0  0  0  0  0  0  0  0  0  0
    6.7731   -0.5808   -0.1474 N   0  0  0  0  0  0  0  0  0  0  0  0
    7.5192   -0.1685    0.8888 O   0  0  0  0  0  0  0  0  0  0  0  0
    4.8879    0.6235    0.6876 C   0  0  0  0  0  0  0  0  0  0  0  0
    3.4662    0.6360    1.1324 C   0  0  0  0  0  0  0  0  0  0  0  0
    2.5221    0.2502    0.0147 C   0  0  0  0  0  0  0  0  0  0  0  0
    1.0939    0.2715    0.4928 C   0  0  0  0  0  0  0  0  0  0  0  0
    2.7063    1.1992   -1.1322 C   0  0  0  0  0  0  0  0  0  0  0  0
    1.3850    1.4115   -1.8569 C   0  0  0  0  0  0  0  0  0  0  0  0
    0.7003    0.0654   -1.9589 C   0  0  0  0  0  0  0  0  0  0  0  0
    0.2382   -0.3442   -0.5771 C   0  0  2  0  0  0  0  0  0  0  0  0
   -1.4420    0.1802   -0.4283 S   0  0  0  0  0  0  0  0  0  0  0  0
   -1.6914    1.5397   -0.4595 O   0  0  0  0  0  0  0  0  0  0  0  0
   -2.0935   -0.6555   -1.8520 O   0  0  0  0  0  0  0  0  0  0  0  0
   -2.0416   -0.7538    0.8079 N   0  0  0  0  0  0  0  0  0  0  0  0
   -3.4858   -0.7403    0.9248 C   0  0  0  0  0  0  0  0  0  0  0  0
   -4.1636   -1.2460   -0.3147 C   0  0  0  0  0  0  0  0  0  0  0  0
   -5.6068   -1.5830    0.0832 C   0  0  0  0  0  0  0  0  0  0  0  0
   -6.2573   -0.2870    0.4898 C   0  0  0  0  0  0  0  0  0  0  0  0
   -5.5153    0.4207    1.5968 C   0  0  0  0  0  0  0  0  0  0  0  0
   -4.0386    0.6176    1.2438 C   0  0  0  0  0  0  0  0  0  0  0  0
    5.2312   -1.6447    1.2249 O   0  0  0  0  0  0  0  0  0  0  0  0
    5.3589   -0.7082    0.1971 C   0  0  0  0  0  0  0  0  0  0  0  0
    6.7677   -0.5771   -0.1489 N   0  0  0  0  0  0  0  0  0  0  0  0
    7.5217   -0.1699    0.8766 O   0  0  0  0  0  0  0  0  0  0  0  0
    4.8842    0.6236    0.6963 C   0  0  0  0  0  0  0  0  0  0  0  0
    3.4614    0.6325    1.1384 C   0  0  0  0  0  0  0  0  0  0  0  0
    2.5199    0.2531    0.0162 C   0  0  0  0  0  0  0  0  0  0  0  0
    1.0907    0.2705    0.4912 C   0  0  0  0  0  0  0  0  0  0  0  0
    2.7068    1.2044   -1.1265 C   0  0  0  0  0  0  0  0  0  0  0  0
    1.3856    1.4218   -1.8522 C   0  0  0  0  0  0  0  0  0  0  0  0
    0.7035    0.0687   -1.9607 C   0  0  0  0  0  0  0  0  0  0  0  0
    0.2388   -0.3430   -0.5830 C   0  0  2  0  0  0  0  0  0  0  0  0
   -1.4435    0.1746   -0.4342 S   0  0  0  0  0  0  0  0  0  0  0  0
   -1.6932    1.5317   -0.4645 O   0  0  0  0  0  0  0  0  0  0  0  0
   -2.0919   -0.6633   -1.8581 O   0  0  0  0  0  0  0  0  0  0  0  0
   -2.0378   -0.7647    0.8005 N   0  0  0  0  0  0  0  0  0  0  0  0
   -3.4813   -0.7510    0.9249 C   0  0  0  0  0  0  0  0  0  0  0  0
   -4.1658   -1.2507   -0.3133 C   0  0  0  0  0  0  0  0  0  0  0  0
   -5.6117   -1.5762    0.0840 C   0  0  0  0  0  0  0  0  0  0  0  0
   -6.2519   -0.2737    0.4888 C   0  0  0  0  0  0  0  0  0  0  0  0
   -5.5037    0.4236    1.6005 C   0  0  0  0  0  0  0  0  0  0  0  0
   -4.0286    0.6115    1.2472 C   0  0  0  0  0  0  0  0  0  0  0  0
    4.5230   -2.3116    1.0272 H   0  0  0  0  0  0  0  0  0  0  0  0
    4.8476   -1.0479   -0.7203 H   0  0  0  0  0  0  0  0  0  0  0  0
    6.9043   -0.0502   -1.0156 H   0  0  0  0  0  0  0  0  0  0  0  0
    8.0747   -0.9509    1.1673 H   0  0  0  0  0  0  0  0  0  0  0  0
    5.0717    1.4278   -0.0383 H   0  0  0  0  0  0  0  0  0  0  0  0
    5.5176    0.8737    1.5860 H   0  0  0  0  0  0  0  0  0  0  0  0
    3.2067    1.6761    1.4185 H   0  0  0  0  0  0  0  0  0  0  0  0
    3.2951    0.0185    2.0395 H   0  0  0  0  0  0  0  0  0  0  0  0
    2.7291   -0.7882   -0.3339 H   0  0  0  0  0  0  0  0  0  0  0  0
    1.0257   -0.4100    1.3874 H   0  0  0  0  0  0  0  0  0  0  0  0
    0.7536    1.2781    0.7990 H   0  0  0  0  0  0  0  0  0  0  0  0
    3.1382    2.1755   -0.8200 H   0  0  0  0  0  0  0  0  0  0  0  0
    3.4371    0.7351   -1.8378 H   0  0  0  0  0  0  0  0  0  0  0  0
    1.5554    1.8362   -2.8774 H   0  0  0  0  0  0  0  0  0  0  0  0
    0.7610    2.1056   -1.2540 H   0  0  0  0  0  0  0  0  0  0  0  0
   -0.1842    0.1111   -2.6394 H   0  0  0  0  0  0  0  0  0  0  0  0
    1.4028   -0.6540   -2.4112 H   0  0  0  0  0  0  0  0  0  0  0  0
    0.2265   -1.4439   -0.5302 H   0  0  0  0  0  0  0  0  0  0  0  0
   -1.9679    2.2409   -1.0987 H   0  0  0  0  0  0  0  0  0  0  0  0
   -2.3722    0.0656   -2.4659 H   0  0  0  0  0  0  0  0  0  0  0  0
   -1.5631   -0.5419    1.6907 H   0  0  0  0  0  0  0  0  0  0  0  0
   -3.7287   -1.4038    1.7979 H   0  0  0  0  0  0  0  0  0  0  0  0
   -4.2671   -0.3869   -1.0349 H   0  0  0  0  0  0  0  0  0  0  0  0
   -3.6466   -2.1077   -0.7512 H   0  0  0  0  0  0  0  0  0  0  0  0
   -6.1091   -1.9384   -0.8297 H   0  0  0  0  0  0  0  0  0  0  0  0
   -5.5916   -2.3293    0.9007 H   0  0  0  0  0  0  0  0  0  0  0  0
   -7.2611   -0.5224    0.8651 H   0  0  0  0  0  0  0  0  0  0  0  0
   -6.2738    0.3596   -0.4270 H   0  0  0  0  0  0  0  0  0  0  0  0
   -6.0249    1.3669    1.7983 H   0  0  0  0  0  0  0  0  0  0  0  0
   -5.5275   -0.2252    2.4983 H   0  0  0  0  0  0  0  0  0  0  0  0
   -3.9427    1.2462    0.3118 H   0  0  0  0  0  0  0  0  0  0  0  0
   -3.5646    1.0984    2.1183 H   0  0  0  0  0  0  0  0  0  0  0  0
    4.5387   -2.3215    1.0002 H   0  0  0  0  0  0  0  0  0  0  0  0
    4.8433   -1.0418   -0.7187 H   0  0  0  0  0  0  0  0  0  0  0  0
    6.9030   -0.0584   -1.0253 H   0  0  0  0  0  0  0  0  0  0  0  0
    8.0516   -0.9623    1.1768 H   0  0  0  0  0  0  0  0  0  0  0  0
    5.0666    1.4382   -0.0230 H   0  0  0  0  0  0  0  0  0  0  0  0
    5.5123    0.8708    1.5953 H   0  0  0  0  0  0  0  0  0  0  0  0
    3.2009    1.6709    1.4298 H   0  0  0  0  0  0  0  0  0  0  0  0
    3.2909    0.0117    2.0443 H   0  0  0  0  0  0  0  0  0  0  0  0
    2.7272   -0.7869   -0.3322 H   0  0  0  0  0  0  0  0  0  0  0  0
    1.0134   -0.4080    1.3843 H   0  0  0  0  0  0  0  0  0  0  0  0
    0.7489    1.2807    0.7925 H   0  0  0  0  0  0  0  0  0  0  0  0
    3.1343    2.1826   -0.8072 H   0  0  0  0  0  0  0  0  0  0  0  0
    3.4283    0.7336   -1.8420 H   0  0  0  0  0  0  0  0  0  0  0  0
    1.5566    1.8376   -2.8763 H   0  0  0  0  0  0  0  0  0  0  0  0
    0.7701    2.1081   -1.2590 H   0  0  0  0  0  0  0  0  0  0  0  0
   -0.1729    0.1170   -2.6466 H   0  0  0  0  0  0  0  0  0  0  0  0
    1.4129   -0.6481   -2.4072 H   0  0  0  0  0  0  0  0  0  0  0  0
    0.2244   -1.4428   -0.5365 H   0  0  0  0  0  0  0  0  0  0  0  0
   -1.9786    2.2371   -1.0959 H   0  0  0  0  0  0  0  0  0  0  0  0
   -2.3904    0.0586   -2.4718 H   0  0  0  0  0  0  0  0  0  0  0  0
   -1.5546   -0.5576    1.6819 H   0  0  0  0  0  0  0  0  0  0  0  0
   -3.7261   -1.4078    1.7991 H   0  0  0  0  0  0  0  0  0  0  0  0
   -4.2584   -0.3824   -1.0240 H   0  0  0  0  0  0  0  0  0  0  0  0
   -3.6554   -2.1125   -0.7549 H   0  0  0  0  0  0  0  0  0  0  0  0
   -6.1262   -1.9318   -0.8182 H   0  0  0  0  0  0  0  0  0  0  0  0
   -5.5966   -2.3166    0.9098 H   0  0  0  0  0  0  0  0  0  0  0  0
   -7.2602   -0.4961    0.8618 H   0  0  0  0  0  0  0  0  0  0  0  0
   -6.2604    0.3722   -0.4228 H   0  0  0  0  0  0  0  0  0  0  0  0
   -6.0094    1.3683    1.8131 H   0  0  0  0  0  0  0  0  0  0  0  0
   -5.5237   -0.2252    2.4945 H   0  0  0  0  0  0  0  0  0  0  0  0
   -3.9274    1.2245    0.3043 H   0  0  0  0  0  0  0  0  0  0  0  0
   -3.5438    1.0941    2.1077 H   0  0  0  0  0  0  0  0  0  0  0  0
  1  2  1  0
  2  3  1  0
  3  4  1  0
  2  5  1  0
  5  6  1  0
  6  7  1  0
  7  8  1  0
  7  9  1  0
  9 10  1  0
 10 11  1  0
  8 12  1  0
 11 12  1  0
 12 13  1  0
 13 14  1  0
 13 15  1  0
 13 16  1  0
 16 17  1  0
 17 18  1  0
 18 19  1  0
 19 20  1  0
 20 21  1  0
 17 22  1  0
 21 22  1  0
 24 23  1  0
 24 25  1  0
 26 25  1  0
 24 27  1  0
 27 28  1  0
 28 29  1  0
 29 30  1  0
 29 31  1  0
 31 32  1  0
 32 33  1  0
 30 34  1  0
 33 34  1  0
 34 35  1  0
 35 36  1  0
 35 37  1  0
 35 38  1  0
 38 39  1  0
 39 40  1  0
 40 41  1  0
 41 42  1  0
 42 43  1  0
 39 44  1  0
 43 44  1  0
  1 45  1  0
  2 46  1  0
  3 47  1  0
  4 48  1  0
  5 49  1  0
  5 50  1  0
  6 51  1  0
  6 52  1  0
  7 53  1  0
  8 54  1  0
  8 55  1  0
  9 56  1  0
  9 57  1  0
 10 58  1  0
 10 59  1  0
 11 60  1  0
 11 61  1  0
 12 62  1  6
 14 63  1  0
 15 64  1  0
 16 65  1  0
 17 66  1  0
 18 67  1  0
 18 68  1  0
 19 69  1  0
 19 70  1  0
 20 71  1  0
 20 72  1  0
 21 73  1  0
 21 74  1  0
 22 75  1  0
 22 76  1  0
 23 77  1  0
 24 78  1  0
 25 79  1  0
 26 80  1  0
 27 81  1  0
 27 82  1  0
 28 83  1  0
 28 84  1  0
 29 85  1  0
 30 86  1  0
 30 87  1  0
 31 88  1  0
 31 89  1  0
 32 90  1  0
 32 91  1  0
 33 92  1  0
 33 93  1  0
 34 94  1  6
 36 95  1  0
 37 96  1  0
 38 97  1  0
 39 98  1  0
 40 99  1  0
 40100  1  0
 41101  1  0
 41102  1  0
 42103  1  0
 42104  1  0
 43105  1  0
 43106  1  0
 44107  1  0
 44108  1  0
M  END
>  <PDBID>  (1) 
5EEN

>  <PDB ID>  (1) 
5EEN

>  <Generic Name>  (1) 
Belinostat

>  <Brand Name>  (1) 
Beleodaq

>  <DrugBank ID>  (1) 
DB05015

>  <ATC Codes>  (1) 
L01XX49

>  <Ligand ID>  (1) 
5OG

>  <Target Name>  (1) 
Histone deacetylase 9

>  <UniProt ID>  (1) 
Q9UKV0

>  <PDB ID.1>  (1) 
5EEN

>  <Seq. Identity>  (1) 
46%

$$$$
