PDB_DB00184_00
     RDKit          3D

 64 66  0  0  0  0  0  0  0  0999 V2000
    2.8544   -0.8817    0.9295 N   0  0  0  0  0  0  0  0  0  0  0  0
    1.5133   -1.2272    0.6921 C   0  0  0  0  0  0  0  0  0  0  0  0
    0.6701    0.0189    0.5230 C   0  0  0  0  0  0  0  0  0  0  0  0
    1.1341    0.6507   -0.7426 C   0  0  0  0  0  0  0  0  0  0  0  0
    2.5557    1.1208   -0.4989 C   0  0  0  0  0  0  0  0  0  0  0  0
    3.4269    0.1683    0.1840 C   0  0  0  0  0  0  0  0  0  0  0  0
   -1.6442    0.8529    0.4362 N   0  0  0  0  0  0  0  0  0  0  0  0
   -0.7950   -0.2706    0.5886 C   0  0  1  0  0  0  0  0  0  0  0  0
   -1.2615   -1.2706   -0.4163 C   0  0  0  0  0  0  0  0  0  0  0  0
   -2.5348   -0.6983   -1.0242 C   0  0  0  0  0  0  0  0  0  0  0  0
   -2.2970    0.7814   -0.8580 C   0  0  0  0  0  0  0  0  0  0  0  0
   -2.6976    0.8070    1.4343 C   0  0  0  0  0  0  0  0  0  0  0  0
    2.8544   -0.8817    0.9295 N   0  0  0  0  0  0  0  0  0  0  0  0
    1.5133   -1.2272    0.6921 C   0  0  0  0  0  0  0  0  0  0  0  0
    0.6701    0.0189    0.5230 C   0  0  0  0  0  0  0  0  0  0  0  0
    1.1341    0.6507   -0.7426 C   0  0  0  0  0  0  0  0  0  0  0  0
    2.5557    1.1208   -0.4989 C   0  0  0  0  0  0  0  0  0  0  0  0
    3.4269    0.1683    0.1840 C   0  0  0  0  0  0  0  0  0  0  0  0
   -1.6442    0.8529    0.4362 N   0  0  0  0  0  0  0  0  0  0  0  0
   -0.7950   -0.2706    0.5886 C   0  0  1  0  0  0  0  0  0  0  0  0
   -1.2615   -1.2706   -0.4163 C   0  0  0  0  0  0  0  0  0  0  0  0
   -2.5348   -0.6983   -1.0242 C   0  0  0  0  0  0  0  0  0  0  0  0
   -2.2970    0.7814   -0.8580 C   0  0  0  0  0  0  0  0  0  0  0  0
   -2.6976    0.8070    1.4343 C   0  0  0  0  0  0  0  0  0  0  0  0
    3.1883   -0.9872    1.9099 H   0  0  0  0  0  0  0  0  0  0  0  0
    1.1159   -1.8133    1.5481 H   0  0  0  0  0  0  0  0  0  0  0  0
    1.4441   -1.7885   -0.2689 H   0  0  0  0  0  0  0  0  0  0  0  0
    0.9582    0.6965    1.3621 H   0  0  0  0  0  0  0  0  0  0  0  0
    1.1855   -0.1063   -1.5558 H   0  0  0  0  0  0  0  0  0  0  0  0
    0.5578    1.5510   -1.0334 H   0  0  0  0  0  0  0  0  0  0  0  0
    2.4575    2.0866    0.0644 H   0  0  0  0  0  0  0  0  0  0  0  0
    2.9512    1.4189   -1.5049 H   0  0  0  0  0  0  0  0  0  0  0  0
    4.1370   -0.2852   -0.5695 H   0  0  0  0  0  0  0  0  0  0  0  0
    4.1162    0.7369    0.8779 H   0  0  0  0  0  0  0  0  0  0  0  0
   -0.9748   -0.7257    1.6028 H   0  0  0  0  0  0  0  0  0  0  0  0
   -1.5221   -2.2591    0.0150 H   0  0  0  0  0  0  0  0  0  0  0  0
   -0.5535   -1.4414   -1.2429 H   0  0  0  0  0  0  0  0  0  0  0  0
   -3.4064   -0.9906   -0.4058 H   0  0  0  0  0  0  0  0  0  0  0  0
   -2.6286   -0.9702   -2.0762 H   0  0  0  0  0  0  0  0  0  0  0  0
   -1.7301    1.2280   -1.6725 H   0  0  0  0  0  0  0  0  0  0  0  0
   -3.2984    1.2823   -0.7636 H   0  0  0  0  0  0  0  0  0  0  0  0
   -3.6859    1.0943    1.0020 H   0  0  0  0  0  0  0  0  0  0  0  0
   -2.4309    1.4465    2.3170 H   0  0  0  0  0  0  0  0  0  0  0  0
   -2.8057   -0.2252    1.8393 H   0  0  0  0  0  0  0  0  0  0  0  0
    3.1883   -0.9872    1.9099 H   0  0  0  0  0  0  0  0  0  0  0  0
    1.1159   -1.8133    1.5481 H   0  0  0  0  0  0  0  0  0  0  0  0
    1.4441   -1.7885   -0.2689 H   0  0  0  0  0  0  0  0  0  0  0  0
    0.9582    0.6965    1.3621 H   0  0  0  0  0  0  0  0  0  0  0  0
    1.1855   -0.1063   -1.5558 H   0  0  0  0  0  0  0  0  0  0  0  0
    0.5578    1.5510   -1.0334 H   0  0  0  0  0  0  0  0  0  0  0  0
    2.4575    2.0866    0.0644 H   0  0  0  0  0  0  0  0  0  0  0  0
    2.9512    1.4189   -1.5049 H   0  0  0  0  0  0  0  0  0  0  0  0
    4.1370   -0.2852   -0.5695 H   0  0  0  0  0  0  0  0  0  0  0  0
    4.1162    0.7369    0.8779 H   0  0  0  0  0  0  0  0  0  0  0  0
   -0.9748   -0.7257    1.6028 H   0  0  0  0  0  0  0  0  0  0  0  0
   -1.5221   -2.2591    0.0150 H   0  0  0  0  0  0  0  0  0  0  0  0
   -0.5535   -1.4414   -1.2429 H   0  0  0  0  0  0  0  0  0  0  0  0
   -3.4064   -0.9906   -0.4058 H   0  0  0  0  0  0  0  0  0  0  0  0
   -2.6286   -0.9702   -2.0762 H   0  0  0  0  0  0  0  0  0  0  0  0
   -1.7301    1.2280   -1.6725 H   0  0  0  0  0  0  0  0  0  0  0  0
   -3.2984    1.2823   -0.7636 H   0  0  0  0  0  0  0  0  0  0  0  0
   -3.6859    1.0943    1.0020 H   0  0  0  0  0  0  0  0  0  0  0  0
   -2.4309    1.4465    2.3170 H   0  0  0  0  0  0  0  0  0  0  0  0
   -2.8057   -0.2252    1.8393 H   0  0  0  0  0  0  0  0  0  0  0  0
  1  2  1  0
  2  3  1  0
  3  4  1  0
  4  5  1  0
  1  6  1  0
  5  6  1  0
  3  8  1  0
  7  8  1  0
  8  9  1  0
  9 10  1  0
  7 11  1  0
 10 11  1  0
  7 12  1  0
 13 14  1  0
 14 15  1  0
 15 16  1  0
 16 17  1  0
 13 18  1  0
 17 18  1  0
 15 20  1  0
 19 20  1  0
 20 21  1  0
 21 22  1  0
 19 23  1  0
 22 23  1  0
 19 24  1  0
  1 25  1  0
  2 26  1  0
  2 27  1  0
  3 28  1  0
  4 29  1  0
  4 30  1  0
  5 31  1  0
  5 32  1  0
  6 33  1  0
  6 34  1  0
  8 35  1  1
  9 36  1  0
  9 37  1  0
 10 38  1  0
 10 39  1  0
 11 40  1  0
 11 41  1  0
 12 42  1  0
 12 43  1  0
 12 44  1  0
 13 45  1  0
 14 46  1  0
 14 47  1  0
 15 48  1  0
 16 49  1  0
 16 50  1  0
 17 51  1  0
 17 52  1  0
 18 53  1  0
 18 54  1  0
 20 55  1  1
 21 56  1  0
 21 57  1  0
 22 58  1  0
 22 59  1  0
 23 60  1  0
 23 61  1  0
 24 62  1  0
 24 63  1  0
 24 64  1  0
M  END
>  <PDBID>  (1) 
5KXI

>  <PDB ID>  (1) 
5KXI

>  <Generic Name>  (1) 
Nicotine

>  <Brand Name>  (1) 
American Fare Nicotine Transdermal System#Berkley and Jensen Nicotine#Berkley and Jensen Nicotine Polacrilex#Care One Nicotine#Careone Mini Nicotine Polacrilex#Careone Nicotine#Careone Nicotine Polacrilex#Careone Nicotine Transdermal System Step 1#Careone Nicotine Transdermal System Step 2#Careone Nicotine Transdermal System Step 3#Equaline Nicotine#Equate Nicotine#Exchange Select Nicotine Transdermal System Step 3#Good Neighbor Pharmacy Nicotine#Good Neighbor Pharmacy Nicotine Mini#Good Sense Nicotine#Good Sense Nicotine Mint#Good Sense Nicotine Stop Smoking Aid#Habitrol Patch Nicotine Transdermal System, Step 1#Habitrol Patch Nicotine Transdermal System, Step 2#Habitrol Patch Nicotine Transdermal System, Step 3#Harris Teeter Nicotine#Health Mart Nicotine#Health Mart Nicotine Polacrilex#Healthmart Nicotine Transdermal System Step 1#Healthmart Nicotine Transdermal System Step 2#Healthmart Nicotine Transdermal System Step 3#Healthy Accents Nicotine#Humana Pharmacy Nicotine#In Control Nicotine#Kirkland Signature Quit 2#Kirkland Signature Quit 4#Kroger Nicotine Transdermal System Step 1#Kroger Nicotine Transdermal System Step 2#Kroger Nicotine Transdermal System Step 3#Leader Nicotine#Leader Nicotine Transdermal System Step 1#Leader Nicotine Transdermal System Step 2#Leader Nicotine Transdermal System Step 3#Meijer Nicotine Transdermal System Step 1#Meijer Nicotine Transdermal System Step 2#Meijer Nicotine Transdermal System Step 3#Members Mark Mini Nicotine#Members Mark Nicotine#Mini Nicotine#Nicoderm Cq#Nicoderm Trd 114mg Nicotine/21#Nicoderm Trd 36mg Nicotine/7 Sqcm Patch#Nicoderm Trd 78mg Nicotine/14#Nicorelief#Nicorette#Nicorette Cinnamon Surge#Nicorette Fresh Mint#Nicorette Fruit Chill#Nicorette Gum 2mg#Nicorette Invisipatch#Nicorette Mint#Nicorette Original#Nicorette Plus 4mg#Nicorette Spearmint Burst#Nicorette White Ice Mint#Nicotine#Nicotine Coated Mint#Nicotine Gum#Nicotine Mini#Nicotine Mint Flavor#Nicotine Original#Nicotine Polacrilex#Nicotine Polacrilex Stop Smoking Aid#Nicotine Polacrilex, Coated Fruit Flavor#Nicotine Polacrilex, Coated Mint Flavor#Nicotine Polacrilex, Original#Nicotine Stop Smoking Aid#Nicotine Transdermal System#Nicotine Transdermal System Patch Kit#Nicotine Transdermal System Step 1#Nicotine Transdermal System Step 2#Nicotine Transdermal System Step 3#Nicotine Un1654#Nicotrol#Nicotrol (professional Sample)#Nictoine Gum#Preferred Plus Nicotine#Preferred Plus Nicotine Polacrilex Gum, Original Flavor#Rexall Nicotine#Rite Aid Nicotine Transdermal System Step 1#Rite Aid Nicotine Transdermal System Step 2#Rite Aid Nicotine Transdermal System Step 3#Rugby Nicotine#Rugby Nicotine Polacrilex Gum, Coated Cinnamon Flavor#Rugby Nicotine Polacrilex Gum, Coated Fruit Flavor#Rugby Nicotine Polacrilex Gum, Coated Mint Flavor#Rugby Nicotine Polacrilex Gum, Mint Flavor#Rugby Nicotine Polacrilex Gum, Original Flavor#Safeway Nicotine Transdermal System Step 1#Safeway Nicotine Transdermal System Step 2#Safeway Nicotine Transdermal System Step 3#Signature Care Nicotine#Simply Right Nicotine#Smart Sense Nicotine#Smart Sense Nicotine Mint#Smart Sense Nicotine Polacrilex#Stop Smoking Aid#Stop Smoking Aid Nicotine#Sunmark Nicotine#Sunmark Nicotine Transdermal System Step 1#Sunmark Nicotine Transdermal System Step 2#Sunmark Nicotine Transdermal System Step 3#Topcare Nicotine#Topcare Nicotine Gum#Topcare Nicotine Polacrilex#Topcare Nicotine Stop Smoking Aid#Tru Relief Nicotine#Up and Up Nicotine#Up and Up Nicotine Polacrilex#Zonnic#Zonnic Nicotine#Zonnic Nicotine Mini#Zonnic Nicotine Polacrilex#Habitrol#Nicoderm

>  <DrugBank ID>  (1) 
DB00184

>  <ATC Codes>  (1) 
N07BA01

>  <Ligand ID>  (1) 
NCT

>  <Target Name>  (1) 
Neuronal acetylcholine receptor subunit alpha-4

>  <UniProt ID>  (1) 
P43681

>  <PDB ID.1>  (1) 
5KXI

>  <Seq. Identity>  (1) 
54%

$$$$
