PDB_DB01030_06
     RDKit          3D

 72 76  0  0  0  0  0  0  0  0999 V2000
   -6.0752    0.7365   -0.3768 C   0  0  0  0  0  0  0  0  0  0  0  0
   -7.1660    1.4208    0.4417 C   0  0  0  0  0  0  0  0  0  0  0  0
   -4.7011    1.1272    0.1167 C   0  0  2  0  0  0  0  0  0  0  0  0
   -4.6424    2.5285   -0.0233 O   0  0  0  0  0  0  0  0  0  0  0  0
   -3.6809    0.4701   -0.7888 C   0  0  0  0  0  0  0  0  0  0  0  0
   -4.5224    0.6965    1.5296 C   0  0  0  0  0  0  0  0  0  0  0  0
   -3.7920   -1.0106   -0.6375 C   0  0  0  0  0  0  0  0  0  0  0  0
   -2.2878    0.9853   -0.5098 C   0  0  0  0  0  0  0  0  0  0  0  0
   -5.7181    0.4861    2.1992 O   0  0  0  0  0  0  0  0  0  0  0  0
   -3.6481   -0.3769    1.6766 O   0  0  0  0  0  0  0  0  0  0  0  0
   -2.6800   -1.7630   -1.2885 C   0  0  0  0  0  0  0  0  0  0  0  0
   -3.9755   -1.4298    0.8274 C   0  0  0  0  0  0  0  0  0  0  0  0
   -1.1899    0.1182   -0.9716 C   0  0  0  0  0  0  0  0  0  0  0  0
   -3.1781   -2.4708   -2.3816 O   0  0  0  0  0  0  0  0  0  0  0  0
   -1.5516   -1.0326   -1.7163 N   0  0  0  0  0  0  0  0  0  0  0  0
   -0.3434   -0.4469    0.1745 C   0  0  0  0  0  0  0  0  0  0  0  0
   -0.3923   -1.9001   -1.7016 C   0  0  0  0  0  0  0  0  0  0  0  0
    0.5049   -1.4428   -0.5815 C   0  0  0  0  0  0  0  0  0  0  0  0
    0.4094    0.5662    0.8444 N   0  0  0  0  0  0  0  0  0  0  0  0
    1.7252   -0.8129   -1.2067 C   0  0  0  0  0  0  0  0  0  0  0  0
    1.7583    0.0267    1.0739 C   0  0  0  0  0  0  0  0  0  0  0  0
    2.4606    0.1034   -0.2593 C   0  0  0  0  0  0  0  0  0  0  0  0
    2.4886    0.8046    2.1264 C   0  0  0  0  0  0  0  0  0  0  0  0
    3.9255   -0.2664   -0.1364 C   0  0  0  0  0  0  0  0  0  0  0  0
    3.8205    0.1559    2.3411 C   0  0  0  0  0  0  0  0  0  0  0  0
    4.1508   -0.8636    1.2596 C   0  0  0  0  0  0  0  0  0  0  0  0
    4.8207    0.9305   -0.2251 C   0  0  0  0  0  0  0  0  0  0  0  0
    6.2078    0.4493   -0.1064 N   0  0  0  0  0  0  0  0  0  0  0  0
    7.1178    1.6102   -0.1390 C   0  0  0  0  0  0  0  0  0  0  0  0
    6.5634   -0.3186   -1.2984 C   0  0  0  0  0  0  0  0  0  0  0  0
    5.4551   -1.2648    1.4099 O   0  0  0  0  0  0  0  0  0  0  0  0
   -6.2923   -0.3409   -0.3035 H   0  0  0  0  0  0  0  0  0  0  0  0
   -6.2151    1.0322   -1.4482 H   0  0  0  0  0  0  0  0  0  0  0  0
   -6.7588    2.2360    1.0698 H   0  0  0  0  0  0  0  0  0  0  0  0
   -7.7295    0.6943    1.0502 H   0  0  0  0  0  0  0  0  0  0  0  0
   -7.9366    1.8533   -0.2598 H   0  0  0  0  0  0  0  0  0  0  0  0
   -5.0165    2.7085   -0.9386 H   0  0  0  0  0  0  0  0  0  0  0  0
   -3.9031    0.7246   -1.8522 H   0  0  0  0  0  0  0  0  0  0  0  0
   -4.0240    1.5544    2.0704 H   0  0  0  0  0  0  0  0  0  0  0  0
   -4.7590   -1.3113   -1.1412 H   0  0  0  0  0  0  0  0  0  0  0  0
   -2.1553    1.1492    0.6007 H   0  0  0  0  0  0  0  0  0  0  0  0
   -2.2517    2.0215   -0.9385 H   0  0  0  0  0  0  0  0  0  0  0  0
   -5.6408    0.7772    3.1607 H   0  0  0  0  0  0  0  0  0  0  0  0
   -2.3514   -2.5608   -0.5578 H   0  0  0  0  0  0  0  0  0  0  0  0
   -3.2291   -2.2294    1.0086 H   0  0  0  0  0  0  0  0  0  0  0  0
   -4.9618   -1.8476    1.0324 H   0  0  0  0  0  0  0  0  0  0  0  0
   -0.4813    0.7171   -1.5829 H   0  0  0  0  0  0  0  0  0  0  0  0
   -2.9960   -2.0106   -3.2496 H   0  0  0  0  0  0  0  0  0  0  0  0
   -0.9586   -0.9734    0.9160 H   0  0  0  0  0  0  0  0  0  0  0  0
    0.1141   -1.8427   -2.6885 H   0  0  0  0  0  0  0  0  0  0  0  0
   -0.6983   -2.9618   -1.5426 H   0  0  0  0  0  0  0  0  0  0  0  0
    0.7623   -2.2968    0.0755 H   0  0  0  0  0  0  0  0  0  0  0  0
    0.5329    1.4491    0.2754 H   0  0  0  0  0  0  0  0  0  0  0  0
    1.3745   -0.2218   -2.0899 H   0  0  0  0  0  0  0  0  0  0  0  0
    2.3959   -1.6381   -1.5230 H   0  0  0  0  0  0  0  0  0  0  0  0
    1.6029   -1.0181    1.4236 H   0  0  0  0  0  0  0  0  0  0  0  0
    2.3787    1.1546   -0.6065 H   0  0  0  0  0  0  0  0  0  0  0  0
    2.6050    1.8605    1.8318 H   0  0  0  0  0  0  0  0  0  0  0  0
    1.8692    0.7581    3.0640 H   0  0  0  0  0  0  0  0  0  0  0  0
    4.2243   -1.0150   -0.8659 H   0  0  0  0  0  0  0  0  0  0  0  0
    3.7654   -0.4417    3.2956 H   0  0  0  0  0  0  0  0  0  0  0  0
    4.6510    0.8734    2.4960 H   0  0  0  0  0  0  0  0  0  0  0  0
    3.5061   -1.7398    1.3434 H   0  0  0  0  0  0  0  0  0  0  0  0
    4.6654    1.6469    0.6078 H   0  0  0  0  0  0  0  0  0  0  0  0
    4.6787    1.5136   -1.1585 H   0  0  0  0  0  0  0  0  0  0  0  0
    7.0937    2.0320    0.8700 H   0  0  0  0  0  0  0  0  0  0  0  0
    8.0971    1.2218   -0.4543 H   0  0  0  0  0  0  0  0  0  0  0  0
    6.6730    2.3382   -0.8491 H   0  0  0  0  0  0  0  0  0  0  0  0
    6.7771   -1.3465   -0.9710 H   0  0  0  0  0  0  0  0  0  0  0  0
    5.7219   -0.2508   -2.0104 H   0  0  0  0  0  0  0  0  0  0  0  0
    7.4521    0.0768   -1.8169 H   0  0  0  0  0  0  0  0  0  0  0  0
    5.5540   -2.1626    0.9849 H   0  0  0  0  0  0  0  0  0  0  0  0
  1  2  1  0
  1  3  1  0
  3  4  1  1
  3  5  1  0
  3  6  1  0
  5  7  1  0
  5  8  1  0
  6  9  1  0
  6 10  1  0
  7 11  1  0
  7 12  1  0
 10 12  1  0
  8 13  1  0
 11 14  1  0
 11 15  1  0
 13 15  1  0
 13 16  1  0
 15 17  1  0
 16 18  1  0
 17 18  1  0
 16 19  1  0
 18 20  1  0
 19 21  1  0
 20 22  1  0
 21 22  1  0
 21 23  1  0
 22 24  1  0
 23 25  1  0
 24 26  1  0
 25 26  1  0
 24 27  1  0
 27 28  1  0
 28 29  1  0
 28 30  1  0
 26 31  1  0
  1 32  1  0
  1 33  1  0
  2 34  1  0
  2 35  1  0
  2 36  1  0
  4 37  1  0
  5 38  1  0
  6 39  1  0
  7 40  1  0
  8 41  1  0
  8 42  1  0
  9 43  1  0
 11 44  1  0
 12 45  1  0
 12 46  1  0
 13 47  1  0
 14 48  1  0
 16 49  1  0
 17 50  1  0
 17 51  1  0
 18 52  1  0
 19 53  1  0
 20 54  1  0
 20 55  1  0
 21 56  1  0
 22 57  1  0
 23 58  1  0
 23 59  1  0
 24 60  1  0
 25 61  1  0
 25 62  1  0
 26 63  1  0
 27 64  1  0
 27 65  1  0
 29 66  1  0
 29 67  1  0
 29 68  1  0
 30 69  1  0
 30 70  1  0
 30 71  1  0
 31 72  1  0
M  END
>  <PDBID>  (1) 
1K4T

>  <PDB ID>  (1) 
1K4T

>  <Generic Name>  (1) 
Topotecan

>  <Brand Name>  (1) 
Act Topotecan#Hycamtin#Mylan-topotecan Hydrochloride for Injection#PMS-topotecan#Topotecan#Topotecan Hydrochloride#Topotecan Hydrochloride for Injection#Topotecan Injection#Topotecan for Injection

>  <DrugBank ID>  (1) 
DB01030

>  <ATC Codes>  (1) 
L01XX17

>  <Ligand ID>  (1) 
TTC

>  <Target Name>  (1) 
DNA topoisomerase 1

>  <UniProt ID>  (1) 
P11387

>  <PDB ID.1>  (1) 
1K4T

>  <Seq. Identity>  (1) 
92%

$$$$
