PDB_DB00259_07
     RDKit          3D

 27 27  0  0  0  0  0  0  0  0999 V2000
    2.2102   -0.2175    0.2008 C   0  0  0  0  0  0  0  0  0  0  0  0
    3.4122   -0.3932   -0.6234 N   0  0  0  0  0  0  0  0  0  0  0  0
    1.6661    1.1306   -0.0503 C   0  0  0  0  0  0  0  0  0  0  0  0
    0.1981    1.2948    0.1824 C   0  0  0  0  0  0  0  0  0  0  0  0
   -0.6223    0.1486   -0.3450 C   0  0  0  0  0  0  0  0  0  0  0  0
   -0.1216   -1.1547    0.1959 C   0  0  0  0  0  0  0  0  0  0  0  0
    1.3186   -1.3603   -0.0728 C   0  0  0  0  0  0  0  0  0  0  0  0
   -2.2723    0.3807    0.2964 S   0  0  0  0  0  0  0  0  0  0  0  0
   -3.1764   -0.8508   -0.2443 N   0  0  0  0  0  0  0  0  0  0  0  0
   -2.8005    1.8076   -0.0951 O   0  0  0  0  0  0  0  0  0  0  0  0
   -2.1577    0.2563    1.9227 O   0  0  0  0  0  0  0  0  0  0  0  0
    2.5916   -0.2796    1.2628 H   0  0  0  0  0  0  0  0  0  0  0  0
    3.6213    0.4821   -1.1752 H   0  0  0  0  0  0  0  0  0  0  0  0
    3.2922   -1.1520   -1.3259 H   0  0  0  0  0  0  0  0  0  0  0  0
    2.1936    1.8586    0.6046 H   0  0  0  0  0  0  0  0  0  0  0  0
    1.9167    1.4491   -1.0968 H   0  0  0  0  0  0  0  0  0  0  0  0
   -0.0787    1.4457    1.2421 H   0  0  0  0  0  0  0  0  0  0  0  0
   -0.1310    2.2109   -0.3640 H   0  0  0  0  0  0  0  0  0  0  0  0
   -0.6746    0.1488   -1.4489 H   0  0  0  0  0  0  0  0  0  0  0  0
   -0.6892   -1.9658   -0.3467 H   0  0  0  0  0  0  0  0  0  0  0  0
   -0.3841   -1.2798    1.2584 H   0  0  0  0  0  0  0  0  0  0  0  0
    1.6681   -2.2313    0.5529 H   0  0  0  0  0  0  0  0  0  0  0  0
    1.4290   -1.6922   -1.1391 H   0  0  0  0  0  0  0  0  0  0  0  0
   -3.4617   -0.8339   -1.2438 H   0  0  0  0  0  0  0  0  0  0  0  0
   -4.0261   -1.0037    0.3215 H   0  0  0  0  0  0  0  0  0  0  0  0
   -2.6950    2.4912    0.6219 H   0  0  0  0  0  0  0  0  0  0  0  0
   -2.2267   -0.6900    2.2499 H   0  0  0  0  0  0  0  0  0  0  0  0
  1  2  1  0
  1  3  1  0
  3  4  1  0
  4  5  1  0
  5  6  1  0
  1  7  1  0
  6  7  1  0
  5  8  1  0
  8  9  1  0
  8 10  1  0
  8 11  1  0
  1 12  1  0
  2 13  1  0
  2 14  1  0
  3 15  1  0
  3 16  1  0
  4 17  1  0
  4 18  1  0
  5 19  1  0
  6 20  1  0
  6 21  1  0
  7 22  1  0
  7 23  1  0
  9 24  1  0
  9 25  1  0
 10 26  1  0
 11 27  1  0
M  END
>  <PDBID>  (1) 
1AJ0

>  <PDB ID>  (1) 
1AJ0

>  <Generic Name>  (1) 
Sulfanilamide

>  <Brand Name>  (1) 
AVC Vaginal#Avc#Avc Cream - 15%#Streptocid

>  <DrugBank ID>  (1) 
DB00259

>  <ATC Codes>  (1) 
J01EB06#D06BA05

>  <Ligand ID>  (1) 
SAN

>  <Target Name>  (1) 
Dihydropteroate synthase

>  <UniProt ID>  (1) 
P0AC13

>  <PDB ID.1>  (1) 
1AJ0

>  <Seq. Identity>  (1) 
100%

$$$$
