PDB_DB04552_04
     RDKit          3D

 43 44  0  0  0  0  0  0  0  0999 V2000
    3.8459   -2.7261    1.4711 F   0  0  0  0  0  0  0  0  0  0  0  0
    4.1077   -1.7183    0.5956 C   0  0  0  0  0  0  0  0  0  0  0  0
    3.9768   -2.0865   -0.7304 F   0  0  0  0  0  0  0  0  0  0  0  0
    5.4308   -1.2842    0.7451 F   0  0  0  0  0  0  0  0  0  0  0  0
    3.2438   -0.4986    0.8020 C   0  0  2  0  0  0  0  0  0  0  0  0
    1.7851   -0.7721    0.6555 C   0  0  0  0  0  0  0  0  0  0  0  0
    1.2087    0.0923   -0.4411 C   0  0  0  0  0  0  0  0  0  0  0  0
    1.4687    1.5598   -0.2615 C   0  0  0  0  0  0  0  0  0  0  0  0
    2.9263    1.8002    0.0207 C   0  0  0  0  0  0  0  0  0  0  0  0
    3.7531    0.5685   -0.1351 C   0  0  0  0  0  0  0  0  0  0  0  0
   -0.1301   -0.2524   -0.7885 N   0  0  0  0  0  0  0  0  0  0  0  0
   -1.1277   -0.1318    0.1996 C   0  0  0  0  0  0  0  0  0  0  0  0
   -1.2349    1.1166    0.8770 N   0  0  0  0  0  0  0  0  0  0  0  0
   -2.4462   -0.5558   -0.4401 C   0  0  0  0  0  0  0  0  0  0  0  0
   -2.6002   -2.0457   -0.2644 C   0  0  0  0  0  0  0  0  0  0  0  0
   -3.7828   -2.5108   -0.8231 O   0  0  0  0  0  0  0  0  0  0  0  0
   -2.4982   -2.4194    1.0822 O   0  0  0  0  0  0  0  0  0  0  0  0
   -3.6263    0.1482    0.1031 C   0  0  0  0  0  0  0  0  0  0  0  0
   -3.4645    1.6388    0.2434 C   0  0  0  0  0  0  0  0  0  0  0  0
   -2.0312    2.0913    0.1721 C   0  0  0  0  0  0  0  0  0  0  0  0
    3.4460   -0.1307    1.8432 H   0  0  0  0  0  0  0  0  0  0  0  0
    1.6745   -1.8250    0.3069 H   0  0  0  0  0  0  0  0  0  0  0  0
    1.2306   -0.5866    1.6037 H   0  0  0  0  0  0  0  0  0  0  0  0
    1.8243   -0.1912   -1.3551 H   0  0  0  0  0  0  0  0  0  0  0  0
    0.8982    2.0612    0.5126 H   0  0  0  0  0  0  0  0  0  0  0  0
    1.2027    2.0360   -1.2518 H   0  0  0  0  0  0  0  0  0  0  0  0
    3.0782    2.1612    1.0803 H   0  0  0  0  0  0  0  0  0  0  0  0
    3.2948    2.6105   -0.6428 H   0  0  0  0  0  0  0  0  0  0  0  0
    4.7900    0.8242    0.2354 H   0  0  0  0  0  0  0  0  0  0  0  0
    3.8853    0.2204   -1.1657 H   0  0  0  0  0  0  0  0  0  0  0  0
   -0.3494    0.1558   -1.7198 H   0  0  0  0  0  0  0  0  0  0  0  0
   -0.8942   -0.8977    0.9990 H   0  0  0  0  0  0  0  0  0  0  0  0
   -1.5216    1.0321    1.8693 H   0  0  0  0  0  0  0  0  0  0  0  0
   -2.4214   -0.3824   -1.5515 H   0  0  0  0  0  0  0  0  0  0  0  0
   -1.7339   -2.5478   -0.7712 H   0  0  0  0  0  0  0  0  0  0  0  0
   -3.9239   -3.4415   -0.4956 H   0  0  0  0  0  0  0  0  0  0  0  0
   -3.2417   -2.1154    1.6272 H   0  0  0  0  0  0  0  0  0  0  0  0
   -4.4683    0.0044   -0.6353 H   0  0  0  0  0  0  0  0  0  0  0  0
   -3.9984   -0.3239    1.0391 H   0  0  0  0  0  0  0  0  0  0  0  0
   -3.8648    1.9176    1.2532 H   0  0  0  0  0  0  0  0  0  0  0  0
   -4.0531    2.2189   -0.4921 H   0  0  0  0  0  0  0  0  0  0  0  0
   -1.9476    3.0433    0.7241 H   0  0  0  0  0  0  0  0  0  0  0  0
   -1.7112    2.1427   -0.8768 H   0  0  0  0  0  0  0  0  0  0  0  0
  2  1  1  0
  2  3  1  0
  2  4  1  0
  2  5  1  0
  5  6  1  0
  6  7  1  0
  7  8  1  0
  8  9  1  0
  5 10  1  0
  9 10  1  0
  7 11  1  0
 11 12  1  0
 12 13  1  0
 12 14  1  0
 14 15  1  0
 15 16  1  0
 15 17  1  0
 14 18  1  0
 18 19  1  0
 13 20  1  0
 19 20  1  0
  5 21  1  1
  6 22  1  0
  6 23  1  0
  7 24  1  0
  8 25  1  0
  8 26  1  0
  9 27  1  0
  9 28  1  0
 10 29  1  0
 10 30  1  0
 11 31  1  0
 12 32  1  0
 13 33  1  0
 14 34  1  0
 15 35  1  0
 16 36  1  0
 17 37  1  0
 18 38  1  0
 18 39  1  0
 19 40  1  0
 19 41  1  0
 20 42  1  0
 20 43  1  0
M  END
>  <PDBID>  (1) 
1TD7

>  <PDB ID>  (1) 
1TD7

>  <Generic Name>  (1) 
Niflumic Acid

>  <Brand Name>  (1) 
Niflam#Niflugel#Nifluril

>  <DrugBank ID>  (1) 
DB04552

>  <ATC Codes>  (1) 
M02AA17#M01AX02

>  <Ligand ID>  (1) 
NFL

>  <Target Name>  (1) 
Phospholipase A2

>  <UniProt ID>  (1) 
P04054

>  <PDB ID.1>  (1) 
1TD7

>  <Seq. Identity>  (1) 
43%

$$$$
