PDB_DB01601_03
     RDKit          3D

118121  0  0  0  0  0  0  0  0999 V2000
   -6.0535    3.3539   -2.8540 C   0  0  0  0  0  0  0  0  0  0  0  0
   -4.1473    2.5099   -1.6375 C   0  0  0  0  0  0  0  0  0  0  0  0
   -5.1193    1.4158   -1.3175 N   0  0  0  0  0  0  0  0  0  0  0  0
   -5.6879    0.9851   -2.5309 C   0  0  0  0  0  0  0  0  0  0  0  0
   -5.5619    2.1311   -3.4820 N   0  0  0  0  0  0  0  0  0  0  0  0
    1.4434    1.3982   -3.0524 C   0  0  0  0  0  0  0  0  0  0  0  0
    2.6596    1.2529   -4.0118 C   0  0  0  0  0  0  0  0  0  0  0  0
    2.2715    0.8101   -5.3659 C   0  0  0  0  0  0  0  0  0  0  0  0
    0.9169    1.3741   -5.7429 C   0  0  0  0  0  0  0  0  0  0  0  0
   -0.1649    0.9021   -4.8448 C   0  0  0  0  0  0  0  0  0  0  0  0
    0.3396    0.5329   -3.4335 C   0  0  0  0  0  0  0  0  0  0  0  0
   -7.1008    0.8328   -2.4867 O   0  0  0  0  0  0  0  0  0  0  0  0
   -4.3901    0.5184   -0.4948 C   0  0  2  0  0  0  0  0  0  0  0  0
   -3.2533   -0.2126   -1.0768 C   0  0  0  0  0  0  0  0  0  0  0  0
   -2.5648   -1.0126   -0.0826 N   0  0  0  0  0  0  0  0  0  0  0  0
   -1.9382   -0.3025    0.9707 C   0  0  1  0  0  0  0  0  0  0  0  0
   -5.2656   -0.3534    0.3326 C   0  0  0  0  0  0  0  0  0  0  0  0
   -6.1794   -1.2390   -0.4378 C   0  0  0  0  0  0  0  0  0  0  0  0
   -6.1638    0.5554    1.1960 C   0  0  0  0  0  0  0  0  0  0  0  0
   -3.5397   -1.0618   -2.1369 O   0  0  0  0  0  0  0  0  0  0  0  0
   -2.1389   -3.8420    4.5635 C   0  0  0  0  0  0  0  0  0  0  0  0
   -3.0859   -4.7492    3.8229 C   0  0  0  0  0  0  0  0  0  0  0  0
   -2.7756   -4.6300    2.3604 C   0  0  0  0  0  0  0  0  0  0  0  0
   -3.0060   -3.1798    1.8709 C   0  0  0  0  0  0  0  0  0  0  0  0
   -2.2045   -2.2152    2.6436 C   0  0  0  0  0  0  0  0  0  0  0  0
   -1.3329   -2.9782    3.6523 C   0  0  0  0  0  0  0  0  0  0  0  0
   -1.3070   -1.2744    1.9346 C   0  0  0  0  0  0  0  0  0  0  0  0
   -0.9612    0.7546    0.6028 C   0  0  0  0  0  0  0  0  0  0  0  0
    0.2382    0.3159   -0.1675 C   0  0  1  0  0  0  0  0  0  0  0  0
    1.1462    1.4917   -0.4753 C   0  0  1  0  0  0  0  0  0  0  0  0
    1.6421    2.1815    0.6439 N   0  0  0  0  0  0  0  0  0  0  0  0
    2.4483    1.6613    1.6316 C   0  0  0  0  0  0  0  0  0  0  0  0
    3.7758    1.1971    1.1161 C   0  0  0  0  0  0  0  0  0  0  0  0
    4.5820    0.6905    2.1699 O   0  0  0  0  0  0  0  0  0  0  0  0
    5.7982    0.2954    1.6185 C   0  0  0  0  0  0  0  0  0  0  0  0
    0.9992   -0.6267    0.6107 O   0  0  0  0  0  0  0  0  0  0  0  0
    1.9842    1.4101   -1.6605 C   0  0  0  0  0  0  0  0  0  0  0  0
    1.8891    0.7759    2.5499 O   0  0  0  0  0  0  0  0  0  0  0  0
    6.0803   -1.1754    1.7644 C   0  0  0  0  0  0  0  0  0  0  0  0
    6.7534   -1.5660    3.0393 C   0  0  0  0  0  0  0  0  0  0  0  0
    7.9604   -0.7042    3.3795 C   0  0  0  0  0  0  0  0  0  0  0  0
    7.4497    0.7022    3.4814 C   0  0  0  0  0  0  0  0  0  0  0  0
    6.9007    1.1692    2.1665 C   0  0  0  0  0  0  0  0  0  0  0  0
    7.9910    1.4600    1.1694 C   0  0  0  0  0  0  0  0  0  0  0  0
    6.8225   -1.7373    0.5601 C   0  0  0  0  0  0  0  0  0  0  0  0
   -4.9312    3.7754   -1.8961 C   0  0  0  0  0  0  0  0  0  0  0  0
   -6.2047    4.1085   -3.6450 H   0  0  0  0  0  0  0  0  0  0  0  0
   -6.9613    3.2252   -2.2728 H   0  0  0  0  0  0  0  0  0  0  0  0
   -3.4201    2.6060   -0.8367 H   0  0  0  0  0  0  0  0  0  0  0  0
   -3.6336    2.2320   -2.5706 H   0  0  0  0  0  0  0  0  0  0  0  0
   -5.2215    0.1666   -3.0705 H   0  0  0  0  0  0  0  0  0  0  0  0
   -6.2010    1.9259   -4.2788 H   0  0  0  0  0  0  0  0  0  0  0  0
    1.1276    2.4917   -3.2931 H   0  0  0  0  0  0  0  0  0  0  0  0
    3.3713    0.5083   -3.5559 H   0  0  0  0  0  0  0  0  0  0  0  0
    3.2254    2.2006   -4.0341 H   0  0  0  0  0  0  0  0  0  0  0  0
    3.0005    1.2414   -6.0897 H   0  0  0  0  0  0  0  0  0  0  0  0
    2.2555   -0.2930   -5.4153 H   0  0  0  0  0  0  0  0  0  0  0  0
    0.7213    1.0599   -6.7742 H   0  0  0  0  0  0  0  0  0  0  0  0
    1.0515    2.4863   -5.7208 H   0  0  0  0  0  0  0  0  0  0  0  0
   -0.8647    1.7697   -4.6843 H   0  0  0  0  0  0  0  0  0  0  0  0
   -0.6927    0.0175   -5.2141 H   0  0  0  0  0  0  0  0  0  0  0  0
    0.6183   -0.5323   -3.3897 H   0  0  0  0  0  0  0  0  0  0  0  0
   -0.5504    0.7569   -2.7611 H   0  0  0  0  0  0  0  0  0  0  0  0
   -7.5110    1.0290   -3.3588 H   0  0  0  0  0  0  0  0  0  0  0  0
   -3.8799    1.2053    0.3137 H   0  0  0  0  0  0  0  0  0  0  0  0
   -2.5274    0.5497   -1.5179 H   0  0  0  0  0  0  0  0  0  0  0  0
   -1.8821   -1.6694   -0.5813 H   0  0  0  0  0  0  0  0  0  0  0  0
   -2.7623    0.1943    1.5668 H   0  0  0  0  0  0  0  0  0  0  0  0
   -4.6755   -1.0168    1.0176 H   0  0  0  0  0  0  0  0  0  0  0  0
   -6.2410   -2.2539    0.0816 H   0  0  0  0  0  0  0  0  0  0  0  0
   -5.8901   -1.3837   -1.4898 H   0  0  0  0  0  0  0  0  0  0  0  0
   -7.2332   -0.8341   -0.4400 H   0  0  0  0  0  0  0  0  0  0  0  0
   -6.7014    1.2880    0.5719 H   0  0  0  0  0  0  0  0  0  0  0  0
   -5.5382    1.0169    1.9875 H   0  0  0  0  0  0  0  0  0  0  0  0
   -6.9096   -0.1284    1.6362 H   0  0  0  0  0  0  0  0  0  0  0  0
   -3.0656   -1.9426   -2.0607 H   0  0  0  0  0  0  0  0  0  0  0  0
   -1.4076   -4.5012    5.1047 H   0  0  0  0  0  0  0  0  0  0  0  0
   -2.6365   -3.2447    5.3604 H   0  0  0  0  0  0  0  0  0  0  0  0
   -4.1618   -4.4685    4.0135 H   0  0  0  0  0  0  0  0  0  0  0  0
   -2.9580   -5.7910    4.1176 H   0  0  0  0  0  0  0  0  0  0  0  0
   -1.7629   -4.9780    2.1644 H   0  0  0  0  0  0  0  0  0  0  0  0
   -3.4571   -5.2537    1.7340 H   0  0  0  0  0  0  0  0  0  0  0  0
   -4.1175   -3.0469    2.0596 H   0  0  0  0  0  0  0  0  0  0  0  0
   -2.8714   -3.2250    0.7952 H   0  0  0  0  0  0  0  0  0  0  0  0
   -2.9112   -1.5946    3.2795 H   0  0  0  0  0  0  0  0  0  0  0  0
   -0.5871   -3.5915    3.0818 H   0  0  0  0  0  0  0  0  0  0  0  0
   -0.8007   -2.2031    4.2392 H   0  0  0  0  0  0  0  0  0  0  0  0
   -0.6623   -1.9439    1.2583 H   0  0  0  0  0  0  0  0  0  0  0  0
   -0.5611   -0.7913    2.5982 H   0  0  0  0  0  0  0  0  0  0  0  0
   -0.6171    1.2262    1.5643 H   0  0  0  0  0  0  0  0  0  0  0  0
   -1.4632    1.5741    0.0401 H   0  0  0  0  0  0  0  0  0  0  0  0
   -0.0451   -0.2690   -1.0284 H   0  0  0  0  0  0  0  0  0  0  0  0
    0.3004    2.2710   -0.8403 H   0  0  0  0  0  0  0  0  0  0  0  0
    1.9155    3.1613    0.3390 H   0  0  0  0  0  0  0  0  0  0  0  0
    2.7334    2.5528    2.3156 H   0  0  0  0  0  0  0  0  0  0  0  0
    3.7293    0.3596    0.3995 H   0  0  0  0  0  0  0  0  0  0  0  0
    4.3675    2.0053    0.6494 H   0  0  0  0  0  0  0  0  0  0  0  0
    5.7724    0.4966    0.5228 H   0  0  0  0  0  0  0  0  0  0  0  0
    1.4266   -1.2919    0.0187 H   0  0  0  0  0  0  0  0  0  0  0  0
    2.8211    2.1628   -1.6786 H   0  0  0  0  0  0  0  0  0  0  0  0
    2.5878    0.4181   -1.6074 H   0  0  0  0  0  0  0  0  0  0  0  0
    2.5982    0.1384    2.7810 H   0  0  0  0  0  0  0  0  0  0  0  0
    5.0874   -1.7222    1.7784 H   0  0  0  0  0  0  0  0  0  0  0  0
    7.1820   -2.5939    2.8719 H   0  0  0  0  0  0  0  0  0  0  0  0
    6.0682   -1.5248    3.8992 H   0  0  0  0  0  0  0  0  0  0  0  0
    8.3385   -1.0711    4.3453 H   0  0  0  0  0  0  0  0  0  0  0  0
    8.7222   -0.8812    2.6241 H   0  0  0  0  0  0  0  0  0  0  0  0
    8.2969    1.3480    3.7490 H   0  0  0  0  0  0  0  0  0  0  0  0
    6.6505    0.7127    4.2452 H   0  0  0  0  0  0  0  0  0  0  0  0
    6.4191    2.1666    2.3737 H   0  0  0  0  0  0  0  0  0  0  0  0
    7.6008    1.3213    0.1345 H   0  0  0  0  0  0  0  0  0  0  0  0
    8.3116    2.5405    1.2195 H   0  0  0  0  0  0  0  0  0  0  0  0
    8.9122    0.8813    1.3479 H   0  0  0  0  0  0  0  0  0  0  0  0
    6.0456   -1.8915   -0.2403 H   0  0  0  0  0  0  0  0  0  0  0  0
    7.5750   -1.0678    0.1474 H   0  0  0  0  0  0  0  0  0  0  0  0
    7.2065   -2.7422    0.8499 H   0  0  0  0  0  0  0  0  0  0  0  0
   -4.3072    4.5126   -2.4345 H   0  0  0  0  0  0  0  0  0  0  0  0
   -5.3636    4.2206   -0.9774 H   0  0  0  0  0  0  0  0  0  0  0  0
  2  3  1  0
  3  4  1  0
  1  5  1  0
  4  5  1  0
  6  7  1  0
  7  8  1  0
  8  9  1  0
  9 10  1  0
  6 11  1  0
 10 11  1  0
  4 12  1  0
  3 13  1  0
 13 14  1  0
 14 15  1  0
 15 16  1  0
 13 17  1  0
 17 18  1  0
 17 19  1  0
 14 20  1  0
 21 22  1  0
 22 23  1  0
 23 24  1  0
 24 25  1  0
 21 26  1  0
 25 26  1  0
 16 27  1  0
 25 27  1  0
 16 28  1  0
 28 29  1  0
 29 30  1  0
 30 31  1  0
 31 32  1  0
 32 33  1  0
 33 34  1  0
 34 35  1  0
 29 36  1  0
  6 37  1  0
 30 37  1  0
 32 38  1  0
 35 39  1  0
 39 40  1  0
 40 41  1  0
 41 42  1  0
 35 43  1  0
 42 43  1  0
 43 44  1  0
 39 45  1  0
  1 46  1  0
  2 46  1  0
  1 47  1  0
  1 48  1  0
  2 49  1  0
  2 50  1  0
  4 51  1  0
  5 52  1  0
  6 53  1  0
  7 54  1  0
  7 55  1  0
  8 56  1  0
  8 57  1  0
  9 58  1  0
  9 59  1  0
 10 60  1  0
 10 61  1  0
 11 62  1  0
 11 63  1  0
 12 64  1  0
 13 65  1  1
 14 66  1  0
 15 67  1  0
 16 68  1  1
 17 69  1  0
 18 70  1  0
 18 71  1  0
 18 72  1  0
 19 73  1  0
 19 74  1  0
 19 75  1  0
 20 76  1  0
 21 77  1  0
 21 78  1  0
 22 79  1  0
 22 80  1  0
 23 81  1  0
 23 82  1  0
 24 83  1  0
 24 84  1  0
 25 85  1  0
 26 86  1  0
 26 87  1  0
 27 88  1  0
 27 89  1  0
 28 90  1  0
 28 91  1  0
 29 92  1  6
 30 93  1  6
 31 94  1  0
 32 95  1  0
 33 96  1  0
 33 97  1  0
 35 98  1  0
 36 99  1  0
 37100  1  0
 37101  1  0
 38102  1  0
 39103  1  0
 40104  1  0
 40105  1  0
 41106  1  0
 41107  1  0
 42108  1  0
 42109  1  0
 43110  1  0
 44111  1  0
 44112  1  0
 44113  1  0
 45114  1  0
 45115  1  0
 45116  1  0
 46117  1  0
 46118  1  0
M  END
>  <PDBID>  (1) 
1MUI

>  <PDB ID>  (1) 
1MUI

>  <Generic Name>  (1) 
Lopinavir

>  <Brand Name>  (1) 
Kaletra#Lopinavir-ritonavir#Aluviran#Koletra

>  <DrugBank ID>  (1) 
DB01601

>  <ATC Codes>  (1) 
J05AR10

>  <Ligand ID>  (1) 
AB1

>  <Target Name>  (1) 
Pol polyprotein

>  <UniProt ID>  (1) 
Q72874

>  <PDB ID.1>  (1) 
1MUI

>  <Seq. Identity>  (1) 
99%

$$$$
