PDB_DB01201_09
     RDKit          3D

302312  0  0  0  0  0  0  0  0999 V2000
    1.1416    0.6707    0.5905 C   0  0  0  0  0  0  0  0  0  0  0  0
    2.2376    1.0338   -0.3458 C   0  0  0  0  0  0  0  0  0  0  0  0
    3.1150   -0.1181   -0.7102 C   0  0  2  0  0  0  0  0  0  0  0  0
    2.5116   -1.4719   -0.3949 C   0  0  0  0  0  0  0  0  0  0  0  0
    0.3610   -2.6194   -1.1134 C   0  0  0  0  0  0  0  0  0  0  0  0
   -1.1447   -2.2932   -1.0009 C   0  0  0  0  0  0  0  0  0  0  0  0
   -1.5056   -1.0352   -1.6015 C   0  0  0  0  0  0  0  0  0  0  0  0
   -0.9157    0.0715   -0.7158 C   0  0  0  0  0  0  0  0  0  0  0  0
    0.2676   -0.4595    0.1025 C   0  0  0  0  0  0  0  0  0  0  0  0
    1.0710   -1.3828   -0.8033 C   0  0  1  0  0  0  0  0  0  0  0  0
    0.3482   -3.7596   -0.1749 C   0  0  2  0  0  0  0  0  0  0  0  0
   -1.0638   -4.3271   -0.4173 C   0  0  2  0  0  0  0  0  0  0  0  0
   -0.9559   -5.7458   -0.8434 C   0  0  0  0  0  0  0  0  0  0  0  0
   -1.0916   -0.8291   -3.0273 C   0  0  0  0  0  0  0  0  0  0  0  0
    2.3152    3.1670    0.8004 C   0  0  0  0  0  0  0  0  0  0  0  0
    1.5230    3.9976   -0.1847 C   0  0  0  0  0  0  0  0  0  0  0  0
    0.2211    4.4970    0.4588 C   0  0  0  0  0  0  0  0  0  0  0  0
   -0.9090    4.4660   -0.5134 C   0  0  0  0  0  0  0  0  0  0  0  0
   -2.1495    3.7388    0.0274 C   0  0  0  0  0  0  0  0  0  0  0  0
   -3.1577    3.7689   -1.0689 C   0  0  1  0  0  0  0  0  0  0  0  0
   -4.2419    2.7679   -1.0169 C   0  0  1  0  0  0  0  0  0  0  0  0
   -4.6258    2.2663    0.3498 C   0  0  2  0  0  0  0  0  0  0  0  0
   -5.7176    1.2106    0.0897 C   0  0  2  0  0  0  0  0  0  0  0  0
   -5.7546    0.1680    1.1834 C   0  0  2  0  0  0  0  0  0  0  0  0
   -6.3505   -1.0960    0.6952 C   0  0  1  0  0  0  0  0  0  0  0  0
   -6.0653   -2.3011    1.5486 C   0  0  1  0  0  0  0  0  0  0  0  0
   -5.4456   -3.4395    0.7523 C   0  0  2  0  0  0  0  0  0  0  0  0
   -4.0572   -3.1581    0.2950 C   0  0  0  0  0  0  0  0  0  0  0  0
   -3.1871   -4.3752    0.4719 C   0  0  0  0  0  0  0  0  0  0  0  0
    2.2882    5.2435   -0.5856 C   0  0  0  0  0  0  0  0  0  0  0  0
   -3.7029    5.1874   -1.1532 C   0  0  0  0  0  0  0  0  0  0  0  0
   -5.2754    3.3486    1.1868 C   0  0  0  0  0  0  0  0  0  0  0  0
   -6.6742    0.7073    2.2741 C   0  0  0  0  0  0  0  0  0  0  0  0
   -5.2981   -2.0660    2.7916 C   0  0  0  0  0  0  0  0  0  0  0  0
   -8.1833   -1.0829   -0.7441 C   0  0  0  0  0  0  0  0  0  0  0  0
   -8.8423    0.1829   -1.2507 C   0  0  0  0  0  0  0  0  0  0  0  0
   -6.7154   -5.0572   -0.2673 C   0  0  0  0  0  0  0  0  0  0  0  0
   10.3918   -0.3613    1.3402 C   0  0  0  0  0  0  0  0  0  0  0  0
    8.0995   -0.4726    1.6531 C   0  0  0  0  0  0  0  0  0  0  0  0
    6.9001   -1.2766    1.2025 C   0  0  0  0  0  0  0  0  0  0  0  0
    7.6686   -1.3170   -1.0689 C   0  0  0  0  0  0  0  0  0  0  0  0
    9.0243   -1.3679   -0.3853 C   0  0  0  0  0  0  0  0  0  0  0  0
    4.5301    0.0347   -0.2205 C   0  0  0  0  0  0  0  0  0  0  0  0
   10.4636    0.8885    2.2093 C   0  0  0  0  0  0  0  0  0  0  0  0
   11.6028   -0.2121    0.4711 C   0  0  0  0  0  0  0  0  0  0  0  0
   10.8969    1.9789    1.2402 C   0  0  0  0  0  0  0  0  0  0  0  0
   11.8555    1.2729    0.3395 C   0  0  0  0  0  0  0  0  0  0  0  0
    3.0395    2.1024    0.1986 N   0  0  0  0  0  0  0  0  0  0  0  0
    5.3467   -1.1056   -0.5967 N   0  0  0  0  0  0  0  0  0  0  0  0
    6.6296   -0.9167   -0.1502 N   0  0  0  0  0  0  0  0  0  0  0  0
    9.1394   -0.3940    0.6529 N   0  0  0  0  0  0  0  0  0  0  0  0
    1.6488    0.3859    1.8797 O   0  0  0  0  0  0  0  0  0  0  0  0
   -0.5619    1.1728   -1.4698 O   0  0  0  0  0  0  0  0  0  0  0  0
   -1.6436   -3.4892   -1.4074 O   0  0  0  0  0  0  0  0  0  0  0  0
    0.4318   -3.4302    1.1611 O   0  0  0  0  0  0  0  0  0  0  0  0
   -1.8670   -4.1250    0.7175 O   0  0  0  0  0  0  0  0  0  0  0  0
   -6.2234   -3.7541   -0.3608 O   0  0  0  0  0  0  0  0  0  0  0  0
   -7.7247   -0.9158    0.5366 O   0  0  0  0  0  0  0  0  0  0  0  0
   -9.1715   -2.0752   -0.7422 O   0  0  0  0  0  0  0  0  0  0  0  0
   -5.4241    0.5378   -1.1129 O   0  0  0  0  0  0  0  0  0  0  0  0
   -5.3780    3.2600   -1.6515 O   0  0  0  0  0  0  0  0  0  0  0  0
    3.2877    4.0428    1.3447 O   0  0  0  0  0  0  0  0  0  0  0  0
    2.7271   -1.8126    0.9124 O   0  0  0  0  0  0  0  0  0  0  0  0
    2.3680   -1.2646    1.4513 C   0  0  0  0  0  0  0  0  0  0  0  0
    2.0724    0.0630    0.8191 C   0  0  0  0  0  0  0  0  0  0  0  0
    2.4814    0.1617   -0.6112 C   0  0  2  0  0  0  0  0  0  0  0  0
    1.7990   -0.8887   -1.3999 C   0  0  0  0  0  0  0  0  0  0  0  0
    0.2212   -2.6515   -0.8089 C   0  0  0  0  0  0  0  0  0  0  0  0
    0.0913   -4.1223   -0.5103 C   0  0  0  0  0  0  0  0  0  0  0  0
    1.2192   -4.6503    0.3170 C   0  0  0  0  0  0  0  0  0  0  0  0
    1.8106   -3.6311    1.2541 C   0  0  0  0  0  0  0  0  0  0  0  0
    2.3542   -2.4226    0.5232 C   0  0  0  0  0  0  0  0  0  0  0  0
    1.6624   -2.2276   -0.7736 C   0  0  0  0  0  0  0  0  0  0  0  0
   -0.7120   -2.0335    0.1349 C   0  0  2  0  0  0  0  0  0  0  0  0
   -1.7000   -3.1414    0.4460 C   0  0  2  0  0  0  0  0  0  0  0  0
   -1.8201   -3.3126    1.9770 C   0  0  0  0  0  0  0  0  0  0  0  0
    0.7987   -5.8483    1.1348 C   0  0  0  0  0  0  0  0  0  0  0  0
    1.8148    1.9850    2.2385 C   0  0  0  0  0  0  0  0  0  0  0  0
    1.0015    2.8548    1.3420 C   0  0  0  0  0  0  0  0  0  0  0  0
   -0.1626    3.4102    2.1742 C   0  0  0  0  0  0  0  0  0  0  0  0
   -1.1695    4.0574    1.2486 C   0  0  0  0  0  0  0  0  0  0  0  0
   -2.3376    3.1339    0.9417 C   0  0  0  0  0  0  0  0  0  0  0  0
   -2.4482    2.9772   -0.5577 C   0  0  1  0  0  0  0  0  0  0  0  0
   -3.7572    2.4421   -1.0229 C   0  0  1  0  0  0  0  0  0  0  0  0
   -4.8766    2.5234   -0.0363 C   0  0  2  0  0  0  0  0  0  0  0  0
   -6.0103    1.6316   -0.5001 C   0  0  2  0  0  0  0  0  0  0  0  0
   -6.2092    0.4406    0.4041 C   0  0  2  0  0  0  0  0  0  0  0  0
   -6.8665   -0.6342   -0.3687 C   0  0  1  0  0  0  0  0  0  0  0  0
   -6.7089   -2.0164    0.1793 C   0  0  1  0  0  0  0  0  0  0  0  0
   -5.5535   -2.8105   -0.2740 C   0  0  2  0  0  0  0  0  0  0  0  0
   -4.6827   -2.1597   -1.3296 C   0  0  0  0  0  0  0  0  0  0  0  0
   -3.2799   -2.8081   -1.2633 C   0  0  0  0  0  0  0  0  0  0  0  0
    1.7453    4.0580    0.8105 C   0  0  0  0  0  0  0  0  0  0  0  0
   -2.1743    4.2810   -1.2780 C   0  0  0  0  0  0  0  0  0  0  0  0
   -5.4026    3.9114    0.0819 C   0  0  0  0  0  0  0  0  0  0  0  0
   -7.1249    0.9164    1.5448 C   0  0  0  0  0  0  0  0  0  0  0  0
   -6.7014   -2.0073    1.7174 C   0  0  0  0  0  0  0  0  0  0  0  0
   -8.7356   -0.2843   -1.6538 C   0  0  0  0  0  0  0  0  0  0  0  0
   -9.3238    1.0954   -1.8382 C   0  0  0  0  0  0  0  0  0  0  0  0
   -5.4392   -5.1111    0.0241 C   0  0  0  0  0  0  0  0  0  0  0  0
    9.8072    0.5701   -0.1793 C   0  0  0  0  0  0  0  0  0  0  0  0
    7.9868    1.5795    0.8906 C   0  0  0  0  0  0  0  0  0  0  0  0
    6.5990    0.9178    0.8540 C   0  0  0  0  0  0  0  0  0  0  0  0
    6.4784    1.6983   -1.4025 C   0  0  0  0  0  0  0  0  0  0  0  0
    7.8280    1.0057   -1.4474 C   0  0  0  0  0  0  0  0  0  0  0  0
    3.9841    0.2297   -0.7887 C   0  0  0  0  0  0  0  0  0  0  0  0
   10.7803    1.2593    0.7515 C   0  0  0  0  0  0  0  0  0  0  0  0
   10.6169    0.3251   -1.4090 C   0  0  0  0  0  0  0  0  0  0  0  0
   11.6293    2.1080   -0.1932 C   0  0  0  0  0  0  0  0  0  0  0  0
   11.7289    1.3189   -1.4709 C   0  0  0  0  0  0  0  0  0  0  0  0
    2.7485    1.1357    1.5326 N   0  0  0  0  0  0  0  0  0  0  0  0
    4.4938    1.3901   -0.1098 N   0  0  0  0  0  0  0  0  0  0  0  0
    5.8366    1.5861   -0.1438 N   0  0  0  0  0  0  0  0  0  0  0  0
    8.6682    1.4072   -0.3647 N   0  0  0  0  0  0  0  0  0  0  0  0
    3.6405   -1.1248    2.0669 O   0  0  0  0  0  0  0  0  0  0  0  0
    2.8636   -4.2868    1.9289 O   0  0  0  0  0  0  0  0  0  0  0  0
   -1.1615   -4.3194   -0.0141 O   0  0  0  0  0  0  0  0  0  0  0  0
   -1.3593   -0.9260   -0.4643 O   0  0  0  0  0  0  0  0  0  0  0  0
   -2.9722   -2.8844    0.0467 O   0  0  0  0  0  0  0  0  0  0  0  0
   -5.9897   -4.0724   -0.6878 O   0  0  0  0  0  0  0  0  0  0  0  0
   -8.2605   -0.3825   -0.3648 O   0  0  0  0  0  0  0  0  0  0  0  0
   -9.7561   -1.2051   -1.9131 O   0  0  0  0  0  0  0  0  0  0  0  0
   -5.8293    1.1937   -1.7976 O   0  0  0  0  0  0  0  0  0  0  0  0
   -4.1438    2.9694   -2.2772 O   0  0  0  0  0  0  0  0  0  0  0  0
    2.5414    2.7803    3.1178 O   0  0  0  0  0  0  0  0  0  0  0  0
    2.4543   -0.9363   -2.6574 O   0  0  0  0  0  0  0  0  0  0  0  0
    0.4584    1.5294    0.7505 H   0  0  0  0  0  0  0  0  0  0  0  0
    1.7424    1.4773   -1.2610 H   0  0  0  0  0  0  0  0  0  0  0  0
    3.1997   -0.1126   -1.8410 H   0  0  0  0  0  0  0  0  0  0  0  0
    2.9867   -2.2360   -1.0434 H   0  0  0  0  0  0  0  0  0  0  0  0
    0.5651   -3.0329   -2.1420 H   0  0  0  0  0  0  0  0  0  0  0  0
   -1.3321   -2.2423    0.1095 H   0  0  0  0  0  0  0  0  0  0  0  0
   -2.6276   -0.9345   -1.5898 H   0  0  0  0  0  0  0  0  0  0  0  0
   -1.7003    0.3143    0.0292 H   0  0  0  0  0  0  0  0  0  0  0  0
   -0.0777   -0.9698    1.0269 H   0  0  0  0  0  0  0  0  0  0  0  0
    1.0897   -0.8072   -1.7866 H   0  0  0  0  0  0  0  0  0  0  0  0
    1.1031   -4.5531   -0.4270 H   0  0  0  0  0  0  0  0  0  0  0  0
    0.0171   -6.1403   -0.4867 H   0  0  0  0  0  0  0  0  0  0  0  0
   -1.7339   -6.3821   -0.4095 H   0  0  0  0  0  0  0  0  0  0  0  0
   -0.9896   -5.7800   -1.9509 H   0  0  0  0  0  0  0  0  0  0  0  0
   -1.9718   -0.8075   -3.7367 H   0  0  0  0  0  0  0  0  0  0  0  0
   -0.6144    0.1669   -3.1588 H   0  0  0  0  0  0  0  0  0  0  0  0
   -0.4449   -1.6362   -3.4279 H   0  0  0  0  0  0  0  0  0  0  0  0
    1.6767    2.8861    1.6573 H   0  0  0  0  0  0  0  0  0  0  0  0
    1.2810    3.4566   -1.1156 H   0  0  0  0  0  0  0  0  0  0  0  0
    0.0211    3.8196    1.3121 H   0  0  0  0  0  0  0  0  0  0  0  0
    0.3859    5.5040    0.9067 H   0  0  0  0  0  0  0  0  0  0  0  0
   -0.5423    3.9384   -1.4411 H   0  0  0  0  0  0  0  0  0  0  0  0
   -1.1506    5.4835   -0.8260 H   0  0  0  0  0  0  0  0  0  0  0  0
   -1.8730    2.7256    0.3762 H   0  0  0  0  0  0  0  0  0  0  0  0
   -2.4307    4.3169    0.9359 H   0  0  0  0  0  0  0  0  0  0  0  0
   -2.5764    3.6234   -2.0312 H   0  0  0  0  0  0  0  0  0  0  0  0
   -3.9381    1.8552   -1.6079 H   0  0  0  0  0  0  0  0  0  0  0  0
   -3.8031    1.8397    0.9214 H   0  0  0  0  0  0  0  0  0  0  0  0
   -6.6962    1.6826   -0.0352 H   0  0  0  0  0  0  0  0  0  0  0  0
   -4.7105    0.0788    1.5416 H   0  0  0  0  0  0  0  0  0  0  0  0
   -5.9605   -1.3060   -0.3379 H   0  0  0  0  0  0  0  0  0  0  0  0
   -7.0686   -2.7062    1.8669 H   0  0  0  0  0  0  0  0  0  0  0  0
   -5.4298   -4.3247    1.4202 H   0  0  0  0  0  0  0  0  0  0  0  0
   -4.0259   -2.9265   -0.8116 H   0  0  0  0  0  0  0  0  0  0  0  0
   -3.6327   -2.2439    0.7658 H   0  0  0  0  0  0  0  0  0  0  0  0
   -3.2801   -5.0643   -0.4174 H   0  0  0  0  0  0  0  0  0  0  0  0
   -3.5795   -4.9803    1.3365 H   0  0  0  0  0  0  0  0  0  0  0  0
    3.3816    5.0589   -0.6243 H   0  0  0  0  0  0  0  0  0  0  0  0
    2.1170    6.0827    0.1343 H   0  0  0  0  0  0  0  0  0  0  0  0
    1.9490    5.6165   -1.5754 H   0  0  0  0  0  0  0  0  0  0  0  0
   -3.2965    5.7419   -2.0404 H   0  0  0  0  0  0  0  0  0  0  0  0
   -3.3904    5.7914   -0.2764 H   0  0  0  0  0  0  0  0  0  0  0  0
   -4.7900    5.2153   -1.2333 H   0  0  0  0  0  0  0  0  0  0  0  0
   -6.3572    3.4537    0.9547 H   0  0  0  0  0  0  0  0  0  0  0  0
   -4.8219    4.3448    0.9943 H   0  0  0  0  0  0  0  0  0  0  0  0
   -5.1545    3.1722    2.2672 H   0  0  0  0  0  0  0  0  0  0  0  0
   -7.3522    1.4759    1.8522 H   0  0  0  0  0  0  0  0  0  0  0  0
   -7.3797   -0.1009    2.6368 H   0  0  0  0  0  0  0  0  0  0  0  0
   -6.1279    1.1631    3.1083 H   0  0  0  0  0  0  0  0  0  0  0  0
   -5.1960   -1.0502    3.1524 H   0  0  0  0  0  0  0  0  0  0  0  0
   -5.7011   -2.6656    3.6643 H   0  0  0  0  0  0  0  0  0  0  0  0
   -4.2464   -2.4680    2.6895 H   0  0  0  0  0  0  0  0  0  0  0  0
   -7.3541   -1.3443   -1.4360 H   0  0  0  0  0  0  0  0  0  0  0  0
   -9.8662    0.0059   -1.6130 H   0  0  0  0  0  0  0  0  0  0  0  0
   -8.9400    0.9101   -0.4063 H   0  0  0  0  0  0  0  0  0  0  0  0
   -8.2642    0.6278   -2.0912 H   0  0  0  0  0  0  0  0  0  0  0  0
   -7.3283   -5.3270   -1.1293 H   0  0  0  0  0  0  0  0  0  0  0  0
   -5.8772   -5.7897   -0.2214 H   0  0  0  0  0  0  0  0  0  0  0  0
   -7.3038   -5.1935    0.6640 H   0  0  0  0  0  0  0  0  0  0  0  0
   10.4844   -1.2386    1.9851 H   0  0  0  0  0  0  0  0  0  0  0  0
    7.7211    0.5799    1.7874 H   0  0  0  0  0  0  0  0  0  0  0  0
    8.4804   -0.7907    2.6447 H   0  0  0  0  0  0  0  0  0  0  0  0
    7.0372   -2.3603    1.3682 H   0  0  0  0  0  0  0  0  0  0  0  0
    6.0392   -0.9534    1.8286 H   0  0  0  0  0  0  0  0  0  0  0  0
    7.7252   -0.5232   -1.8417 H   0  0  0  0  0  0  0  0  0  0  0  0
    7.4921   -2.2732   -1.5585 H   0  0  0  0  0  0  0  0  0  0  0  0
    9.7648   -1.1845   -1.1889 H   0  0  0  0  0  0  0  0  0  0  0  0
    9.2305   -2.3699    0.0303 H   0  0  0  0  0  0  0  0  0  0  0  0
    4.5817    0.1121    0.8848 H   0  0  0  0  0  0  0  0  0  0  0  0
    5.0012    0.9455   -0.6777 H   0  0  0  0  0  0  0  0  0  0  0  0
   11.2792    0.7792    2.9520 H   0  0  0  0  0  0  0  0  0  0  0  0
    9.5020    1.1762    2.6388 H   0  0  0  0  0  0  0  0  0  0  0  0
   12.4871   -0.6264    1.0325 H   0  0  0  0  0  0  0  0  0  0  0  0
   11.5870   -0.7214   -0.4831 H   0  0  0  0  0  0  0  0  0  0  0  0
   11.3590    2.8026    1.7906 H   0  0  0  0  0  0  0  0  0  0  0  0
    9.9794    2.2765    0.6914 H   0  0  0  0  0  0  0  0  0  0  0  0
   12.8889    1.5531    0.6249 H   0  0  0  0  0  0  0  0  0  0  0  0
   11.6430    1.5975   -0.7138 H   0  0  0  0  0  0  0  0  0  0  0  0
    3.6884    2.5073   -0.5039 H   0  0  0  0  0  0  0  0  0  0  0  0
    4.9218   -2.0092   -0.3619 H   0  0  0  0  0  0  0  0  0  0  0  0
    2.5559    0.6934    2.0209 H   0  0  0  0  0  0  0  0  0  0  0  0
   -1.3912    1.5456   -1.8456 H   0  0  0  0  0  0  0  0  0  0  0  0
    0.1365   -4.2467    1.6729 H   0  0  0  0  0  0  0  0  0  0  0  0
   -9.4766   -2.2580   -1.6672 H   0  0  0  0  0  0  0  0  0  0  0  0
   -5.9070    0.9957   -1.8431 H   0  0  0  0  0  0  0  0  0  0  0  0
   -6.0537    3.6231   -1.0545 H   0  0  0  0  0  0  0  0  0  0  0  0
    3.0659    4.3414    2.2409 H   0  0  0  0  0  0  0  0  0  0  0  0
    3.0805   -2.7333    0.9903 H   0  0  0  0  0  0  0  0  0  0  0  0
    1.6882   -1.3946    2.3467 H   0  0  0  0  0  0  0  0  0  0  0  0
    0.9980    0.2870    0.8779 H   0  0  0  0  0  0  0  0  0  0  0  0
    2.0947    1.1619   -0.9843 H   0  0  0  0  0  0  0  0  0  0  0  0
    0.7736   -0.4922   -1.6739 H   0  0  0  0  0  0  0  0  0  0  0  0
   -0.1304   -2.4462   -1.8547 H   0  0  0  0  0  0  0  0  0  0  0  0
    0.1469   -4.6521   -1.5072 H   0  0  0  0  0  0  0  0  0  0  0  0
    2.0639   -4.9998   -0.3336 H   0  0  0  0  0  0  0  0  0  0  0  0
    1.1238   -3.3032    2.0587 H   0  0  0  0  0  0  0  0  0  0  0  0
    3.4278   -2.6844    0.3111 H   0  0  0  0  0  0  0  0  0  0  0  0
    2.1506   -2.9565   -1.5017 H   0  0  0  0  0  0  0  0  0  0  0  0
   -0.3234   -1.6717    1.0808 H   0  0  0  0  0  0  0  0  0  0  0  0
   -1.6794   -2.3037    2.4340 H   0  0  0  0  0  0  0  0  0  0  0  0
   -2.8326   -3.6362    2.2708 H   0  0  0  0  0  0  0  0  0  0  0  0
   -1.1239   -4.0714    2.3526 H   0  0  0  0  0  0  0  0  0  0  0  0
    1.5121   -6.6975    1.0513 H   0  0  0  0  0  0  0  0  0  0  0  0
    0.7233   -5.6253    2.2184 H   0  0  0  0  0  0  0  0  0  0  0  0
   -0.1727   -6.2361    0.7314 H   0  0  0  0  0  0  0  0  0  0  0  0
    1.1200    1.3162    2.7855 H   0  0  0  0  0  0  0  0  0  0  0  0
    0.5077    2.2714    0.5260 H   0  0  0  0  0  0  0  0  0  0  0  0
   -0.6374    2.6024    2.7655 H   0  0  0  0  0  0  0  0  0  0  0  0
    0.2890    4.1925    2.8120 H   0  0  0  0  0  0  0  0  0  0  0  0
   -0.6262    4.3521    0.3326 H   0  0  0  0  0  0  0  0  0  0  0  0
   -1.5072    4.9963    1.7337 H   0  0  0  0  0  0  0  0  0  0  0  0
   -2.0678    2.1408    1.3575 H   0  0  0  0  0  0  0  0  0  0  0  0
   -3.2263    3.5843    1.3954 H   0  0  0  0  0  0  0  0  0  0  0  0
   -1.5917    2.2923   -0.8402 H   0  0  0  0  0  0  0  0  0  0  0  0
   -3.5982    1.3424   -1.2349 H   0  0  0  0  0  0  0  0  0  0  0  0
   -4.5165    2.0885    0.9153 H   0  0  0  0  0  0  0  0  0  0  0  0
   -6.9917    2.1879   -0.5052 H   0  0  0  0  0  0  0  0  0  0  0  0
   -5.2163    0.1973    0.8333 H   0  0  0  0  0  0  0  0  0  0  0  0
   -6.5355   -0.6470   -1.4147 H   0  0  0  0  0  0  0  0  0  0  0  0
   -7.6465   -2.5761   -0.0674 H   0  0  0  0  0  0  0  0  0  0  0  0
   -4.8332   -3.0381    0.5741 H   0  0  0  0  0  0  0  0  0  0  0  0
   -5.1200   -2.2383   -2.3221 H   0  0  0  0  0  0  0  0  0  0  0  0
   -4.5819   -1.0892   -1.0622 H   0  0  0  0  0  0  0  0  0  0  0  0
   -2.5886   -2.2699   -1.9192 H   0  0  0  0  0  0  0  0  0  0  0  0
   -3.4280   -3.8126   -1.7358 H   0  0  0  0  0  0  0  0  0  0  0  0
    2.8475    3.8982    0.7739 H   0  0  0  0  0  0  0  0  0  0  0  0
    1.4660    5.0024    1.3095 H   0  0  0  0  0  0  0  0  0  0  0  0
    1.4461    4.1558   -0.2757 H   0  0  0  0  0  0  0  0  0  0  0  0
   -1.1113    4.3355   -1.6543 H   0  0  0  0  0  0  0  0  0  0  0  0
   -2.3602    5.1601   -0.6163 H   0  0  0  0  0  0  0  0  0  0  0  0
   -2.7997    4.3329   -2.1916 H   0  0  0  0  0  0  0  0  0  0  0  0
   -6.2761    4.0276   -0.5904 H   0  0  0  0  0  0  0  0  0  0  0  0
   -4.6799    4.6962   -0.2137 H   0  0  0  0  0  0  0  0  0  0  0  0
   -5.7545    4.1749    1.0963 H   0  0  0  0  0  0  0  0  0  0  0  0
   -8.1620    0.6089    1.3334 H   0  0  0  0  0  0  0  0  0  0  0  0
   -6.7599    0.5876    2.5325 H   0  0  0  0  0  0  0  0  0  0  0  0
   -7.1287    2.0279    1.5875 H   0  0  0  0  0  0  0  0  0  0  0  0
   -5.7831   -1.5574    2.1182 H   0  0  0  0  0  0  0  0  0  0  0  0
   -7.6443   -1.5967    2.1248 H   0  0  0  0  0  0  0  0  0  0  0  0
   -6.6853   -3.0776    2.0802 H   0  0  0  0  0  0  0  0  0  0  0  0
   -7.9190   -0.4357   -2.3745 H   0  0  0  0  0  0  0  0  0  0  0  0
  -10.1993    1.0195   -2.5099 H   0  0  0  0  0  0  0  0  0  0  0  0
   -9.6248    1.4807   -0.8375 H   0  0  0  0  0  0  0  0  0  0  0  0
   -8.5305    1.7364   -2.2896 H   0  0  0  0  0  0  0  0  0  0  0  0
   -5.6806   -5.0432    1.1270 H   0  0  0  0  0  0  0  0  0  0  0  0
   -5.8992   -6.1022   -0.2613 H   0  0  0  0  0  0  0  0  0  0  0  0
   -4.3641   -5.2483   -0.0635 H   0  0  0  0  0  0  0  0  0  0  0  0
    9.5521   -0.4109    0.2945 H   0  0  0  0  0  0  0  0  0  0  0  0
    7.9224    2.6444    1.1621 H   0  0  0  0  0  0  0  0  0  0  0  0
    8.4955    1.0623    1.7513 H   0  0  0  0  0  0  0  0  0  0  0  0
    6.7984   -0.1529    0.6524 H   0  0  0  0  0  0  0  0  0  0  0  0
    6.1703    1.1022    1.8600 H   0  0  0  0  0  0  0  0  0  0  0  0
    6.7008    2.7968   -1.5584 H   0  0  0  0  0  0  0  0  0  0  0  0
    5.8525    1.3498   -2.2197 H   0  0  0  0  0  0  0  0  0  0  0  0
    8.3036    1.3523   -2.4053 H   0  0  0  0  0  0  0  0  0  0  0  0
    7.6732   -0.0970   -1.4638 H   0  0  0  0  0  0  0  0  0  0  0  0
    4.2643    0.1641   -1.8591 H   0  0  0  0  0  0  0  0  0  0  0  0
    4.4450   -0.6432   -0.3051 H   0  0  0  0  0  0  0  0  0  0  0  0
   11.4881    0.5090    1.1996 H   0  0  0  0  0  0  0  0  0  0  0  0
   10.3066    1.8886    1.5022 H   0  0  0  0  0  0  0  0  0  0  0  0
   11.1007   -0.6902   -1.3049 H   0  0  0  0  0  0  0  0  0  0  0  0
   10.0190    0.2528   -2.3394 H   0  0  0  0  0  0  0  0  0  0  0  0
   12.6449    2.2890    0.2603 H   0  0  0  0  0  0  0  0  0  0  0  0
   11.1788    3.0796   -0.4008 H   0  0  0  0  0  0  0  0  0  0  0  0
   12.7490    0.8375   -1.4640 H   0  0  0  0  0  0  0  0  0  0  0  0
   11.7166    1.9442   -2.3811 H   0  0  0  0  0  0  0  0  0  0  0  0
    3.5356    0.8206    2.1069 H   0  0  0  0  0  0  0  0  0  0  0  0
    4.0026    2.2253   -0.4999 H   0  0  0  0  0  0  0  0  0  0  0  0
    3.8402   -2.0028    2.4580 H   0  0  0  0  0  0  0  0  0  0  0  0
    2.4999   -4.7456    2.7113 H   0  0  0  0  0  0  0  0  0  0  0  0
   -1.9573   -0.4734    0.1559 H   0  0  0  0  0  0  0  0  0  0  0  0
   -9.4017   -2.1345   -1.9712 H   0  0  0  0  0  0  0  0  0  0  0  0
   -6.1469    1.7975   -2.4955 H   0  0  0  0  0  0  0  0  0  0  0  0
   -4.7517    3.7235   -2.1859 H   0  0  0  0  0  0  0  0  0  0  0  0
    2.5445    3.7090    2.7783 H   0  0  0  0  0  0  0  0  0  0  0  0
    2.9547   -1.8067   -2.7287 H   0  0  0  0  0  0  0  0  0  0  0  0
  1  2  1  0
  2  3  1  0
  3  4  1  0
  5  6  1  0
  6  7  1  0
  7  8  1  0
  1  9  1  0
  8  9  1  0
  4 10  1  0
  5 10  1  0
  9 10  1  0
  5 11  1  0
 11 12  1  0
 12 13  1  6
  7 14  1  0
 15 16  1  0
 16 17  1  0
 17 18  1  0
 18 19  1  0
 19 20  1  0
 20 21  1  0
 21 22  1  0
 22 23  1  0
 23 24  1  0
 24 25  1  0
 25 26  1  0
 26 27  1  0
 27 28  1  0
 28 29  1  0
 16 30  1  0
 20 31  1  0
 22 32  1  0
 24 33  1  0
 26 34  1  0
 35 36  1  0
 39 40  1  0
 41 42  1  0
  3 43  1  0
 38 44  1  0
 38 45  1  0
 44 46  1  0
 45 47  1  0
 46 47  1  0
  2 48  1  0
 15 48  1  0
 43 49  1  0
 40 50  1  0
 41 50  1  0
 49 50  1  0
 38 51  1  0
 39 51  1  0
 42 51  1  0
  1 52  1  0
  8 53  1  0
  6 54  1  0
 12 54  1  0
 11 55  1  0
 12 56  1  0
 29 56  1  0
 27 57  1  0
 37 57  1  0
 25 58  1  0
 35 58  1  0
 35 59  1  0
 23 60  1  0
 21 61  1  0
 15 62  1  0
  4 63  1  0
 64 65  1  0
 65 66  1  0
 66 67  1  0
 68 69  1  0
 69 70  1  0
 70 71  1  0
 64 72  1  0
 71 72  1  0
 67 73  1  0
 68 73  1  0
 72 73  1  0
 68 74  1  0
 74 75  1  0
 75 76  1  1
 70 77  1  0
 78 79  1  0
 79 80  1  0
 80 81  1  0
 81 82  1  0
 82 83  1  0
 83 84  1  0
 84 85  1  0
 85 86  1  0
 86 87  1  0
 87 88  1  0
 88 89  1  0
 89 90  1  0
 90 91  1  0
 91 92  1  0
 79 93  1  0
 83 94  1  0
 85 95  1  0
 87 96  1  0
 89 97  1  0
 98 99  1  0
102103  1  0
104105  1  0
 66106  1  0
101107  1  0
101108  1  0
107109  1  0
108110  1  0
109110  1  0
 65111  1  0
 78111  1  0
106112  1  0
103113  1  0
104113  1  0
112113  1  0
101114  1  0
102114  1  0
105114  1  0
 64115  1  0
 71116  1  0
 69117  1  0
 75117  1  0
 74118  1  0
 75119  1  0
 92119  1  0
 90120  1  0
100120  1  0
 88121  1  0
 98121  1  0
 98122  1  0
 86123  1  0
 84124  1  0
 78125  1  0
 67126  1  0
  1127  1  0
  2128  1  0
  3129  1  6
  4130  1  0
  5131  1  0
  6132  1  0
  7133  1  0
  8134  1  0
  9135  1  0
 10136  1  6
 11137  1  6
 13138  1  0
 13139  1  0
 13140  1  0
 14141  1  0
 14142  1  0
 14143  1  0
 15144  1  0
 16145  1  0
 17146  1  0
 17147  1  0
 18148  1  0
 18149  1  0
 19150  1  0
 19151  1  0
 20152  1  6
 21153  1  6
 22154  1  1
 23155  1  6
 24156  1  1
 25157  1  6
 26158  1  1
 27159  1  1
 28160  1  0
 28161  1  0
 29162  1  0
 29163  1  0
 30164  1  0
 30165  1  0
 30166  1  0
 31167  1  0
 31168  1  0
 31169  1  0
 32170  1  0
 32171  1  0
 32172  1  0
 33173  1  0
 33174  1  0
 33175  1  0
 34176  1  0
 34177  1  0
 34178  1  0
 35179  1  0
 36180  1  0
 36181  1  0
 36182  1  0
 37183  1  0
 37184  1  0
 37185  1  0
 38186  1  0
 39187  1  0
 39188  1  0
 40189  1  0
 40190  1  0
 41191  1  0
 41192  1  0
 42193  1  0
 42194  1  0
 43195  1  0
 43196  1  0
 44197  1  0
 44198  1  0
 45199  1  0
 45200  1  0
 46201  1  0
 46202  1  0
 47203  1  0
 47204  1  0
 48205  1  0
 49206  1  0
 52207  1  0
 53208  1  0
 55209  1  0
 59210  1  0
 60211  1  0
 61212  1  0
 62213  1  0
 63214  1  0
 64215  1  0
 65216  1  0
 66217  1  6
 67218  1  0
 68219  1  0
 69220  1  0
 70221  1  0
 71222  1  0
 72223  1  0
 73224  1  0
 74225  1  1
 76226  1  0
 76227  1  0
 76228  1  0
 77229  1  0
 77230  1  0
 77231  1  0
 78232  1  0
 79233  1  0
 80234  1  0
 80235  1  0
 81236  1  0
 81237  1  0
 82238  1  0
 82239  1  0
 83240  1  6
 84241  1  6
 85242  1  1
 86243  1  6
 87244  1  1
 88245  1  6
 89246  1  1
 90247  1  1
 91248  1  0
 91249  1  0
 92250  1  0
 92251  1  0
 93252  1  0
 93253  1  0
 93254  1  0
 94255  1  0
 94256  1  0
 94257  1  0
 95258  1  0
 95259  1  0
 95260  1  0
 96261  1  0
 96262  1  0
 96263  1  0
 97264  1  0
 97265  1  0
 97266  1  0
 98267  1  0
 99268  1  0
 99269  1  0
 99270  1  0
100271  1  0
100272  1  0
100273  1  0
101274  1  0
102275  1  0
102276  1  0
103277  1  0
103278  1  0
104279  1  0
104280  1  0
105281  1  0
105282  1  0
106283  1  0
106284  1  0
107285  1  0
107286  1  0
108287  1  0
108288  1  0
109289  1  0
109290  1  0
110291  1  0
110292  1  0
111293  1  0
112294  1  0
115295  1  0
116296  1  0
118297  1  0
122298  1  0
123299  1  0
124300  1  0
125301  1  0
126302  1  0
M  END
>  <PDBID>  (1) 
2A69

>  <PDB ID>  (1) 
2A69

>  <Generic Name>  (1) 
Rifapentine

>  <Brand Name>  (1) 
Priftin

>  <DrugBank ID>  (1) 
DB01201

>  <ATC Codes>  (1) 
J04AB05

>  <Ligand ID>  (1) 
RPT

>  <Target Name>  (1) 
DNA-directed RNA polymerase subunit beta'

>  <UniProt ID>  (1) 
P0A674

>  <PDB ID.1>  (1) 
2A69

>  <Seq. Identity>  (1) 
50%

$$$$
