PDB_DB09079_05
     RDKit          3D

 99103  0  0  0  0  0  0  0  0999 V2000
   -2.9706   -0.0305    1.2688 C   0  0  0  0  0  0  0  0  0  0  0  0
   -4.1521    0.7679    1.2816 C   0  0  0  0  0  0  0  0  0  0  0  0
   -2.2119   -0.6203    0.1898 C   0  0  0  0  0  0  0  0  0  0  0  0
   -3.3929   -1.0845    2.3386 C   0  0  0  0  0  0  0  0  0  0  0  0
   -5.3098   -0.1900    1.3365 C   0  0  0  0  0  0  0  0  0  0  0  0
   -4.4346    1.9292    0.4607 C   0  0  0  0  0  0  0  0  0  0  0  0
   -2.8559   -1.5847   -0.7540 C   0  0  0  0  0  0  0  0  0  0  0  0
   -6.4314    0.5372    2.0918 C   0  0  0  0  0  0  0  0  0  0  0  0
   -5.6035    2.6894    1.1191 C   0  0  0  0  0  0  0  0  0  0  0  0
    0.0695   -0.1473    0.9801 C   0  0  0  0  0  0  0  0  0  0  0  0
   -6.7910    1.8090    1.3745 C   0  0  1  0  0  0  0  0  0  0  0  0
   -2.9349   -3.8492   -1.6631 C   0  0  0  0  0  0  0  0  0  0  0  0
   -4.6922   -2.1731   -2.2629 C   0  0  0  0  0  0  0  0  0  0  0  0
    0.3916    0.8817   -0.0799 C   0  0  0  0  0  0  0  0  0  0  0  0
   -7.5861    1.5734    0.1106 C   0  0  2  0  0  0  0  0  0  0  0  0
    1.7161    1.5547    0.1305 C   0  0  0  0  0  0  0  0  0  0  0  0
    2.3078   -0.7729    0.0303 C   0  0  0  0  0  0  0  0  0  0  0  0
   -8.7622    0.9059    0.3300 O   0  0  0  0  0  0  0  0  0  0  0  0
   -6.8475    1.0602   -0.9375 O   0  0  0  0  0  0  0  0  0  0  0  0
    2.8887    0.6465    0.2553 C   0  0  0  0  0  0  0  0  0  0  0  0
    5.1934    0.2705   -0.1144 C   0  0  1  0  0  0  0  0  0  0  0  0
    3.8918    1.3341   -1.8653 C   0  0  0  0  0  0  0  0  0  0  0  0
    6.3544    1.2505    0.0301 C   0  0  0  0  0  0  0  0  0  0  0  0
    8.6171    1.5973    0.7573 C   0  0  0  0  0  0  0  0  0  0  0  0
    7.8901   -0.6323    0.2505 C   0  0  0  0  0  0  0  0  0  0  0  0
    9.7192    1.4391   -0.2445 C   0  0  0  0  0  0  0  0  0  0  0  0
    9.4001   -0.8289    0.2297 C   0  0  0  0  0  0  0  0  0  0  0  0
   11.3401   -0.1290   -0.8749 C   0  0  0  0  0  0  0  0  0  0  0  0
    4.9652   -0.1495    1.2357 O   0  0  0  0  0  0  0  0  0  0  0  0
    7.5184    0.6869    0.6103 N   0  0  0  0  0  0  0  0  0  0  0  0
    9.9141    0.1131   -0.7363 N   0  0  0  0  0  0  0  0  0  0  0  0
    4.0005    0.8705   -0.5655 N   0  0  0  0  0  0  0  0  0  0  0  0
    1.3504   -0.9717    1.1843 C   0  0  0  0  0  0  0  0  0  0  0  0
   -0.9019   -1.1087    0.5131 N   0  0  0  0  0  0  0  0  0  0  0  0
   -3.8816   -1.0546   -1.6932 C   0  0  0  0  0  0  0  0  0  0  0  0
   -4.3874   -3.5059   -1.6639 C   0  0  0  0  0  0  0  0  0  0  0  0
   -2.0313   -2.5967   -1.4628 C   0  0  0  0  0  0  0  0  0  0  0  0
   -9.9093    1.6603    0.0415 C   0  0  0  0  0  0  0  0  0  0  0  0
   -4.7888   -1.2831    2.1170 N   0  0  0  0  0  0  0  0  0  0  0  0
   -2.6260   -2.2146    2.2641 O   0  0  0  0  0  0  0  0  0  0  0  0
   -2.1819    0.5692    1.8888 H   0  0  0  0  0  0  0  0  0  0  0  0
   -4.1884    1.2168    2.3847 H   0  0  0  0  0  0  0  0  0  0  0  0
   -1.9545    0.2827   -0.5138 H   0  0  0  0  0  0  0  0  0  0  0  0
   -3.2665   -0.6483    3.3478 H   0  0  0  0  0  0  0  0  0  0  0  0
   -5.7644   -0.4770    0.4034 H   0  0  0  0  0  0  0  0  0  0  0  0
   -4.7119    1.8444   -0.5783 H   0  0  0  0  0  0  0  0  0  0  0  0
   -3.6031    2.7110    0.4762 H   0  0  0  0  0  0  0  0  0  0  0  0
   -3.5263   -2.2855   -0.0597 H   0  0  0  0  0  0  0  0  0  0  0  0
   -6.2384    0.6550    3.1515 H   0  0  0  0  0  0  0  0  0  0  0  0
   -7.3297   -0.1416    1.9807 H   0  0  0  0  0  0  0  0  0  0  0  0
   -5.9195    3.4919    0.4310 H   0  0  0  0  0  0  0  0  0  0  0  0
   -5.3050    3.1343    2.0683 H   0  0  0  0  0  0  0  0  0  0  0  0
   -0.1315    0.3566    1.9053 H   0  0  0  0  0  0  0  0  0  0  0  0
   -7.4564    2.3725    2.0661 H   0  0  0  0  0  0  0  0  0  0  0  0
   -2.6140   -4.4256   -2.5382 H   0  0  0  0  0  0  0  0  0  0  0  0
   -2.7893   -4.4981   -0.7450 H   0  0  0  0  0  0  0  0  0  0  0  0
   -4.5878   -2.2704   -3.3912 H   0  0  0  0  0  0  0  0  0  0  0  0
   -5.7715   -1.9588   -2.1246 H   0  0  0  0  0  0  0  0  0  0  0  0
    0.2559    0.4917   -1.1066 H   0  0  0  0  0  0  0  0  0  0  0  0
   -0.3730    1.7074    0.0276 H   0  0  0  0  0  0  0  0  0  0  0  0
   -7.8832    2.6180   -0.2307 H   0  0  0  0  0  0  0  0  0  0  0  0
    1.6083    2.1188    1.1064 H   0  0  0  0  0  0  0  0  0  0  0  0
    1.8395    2.3249   -0.6498 H   0  0  0  0  0  0  0  0  0  0  0  0
    3.0870   -1.5478    0.1021 H   0  0  0  0  0  0  0  0  0  0  0  0
    1.8406   -0.8430   -0.9588 H   0  0  0  0  0  0  0  0  0  0  0  0
   -6.8242    1.6439   -1.7259 H   0  0  0  0  0  0  0  0  0  0  0  0
    3.2452    0.6035    1.3308 H   0  0  0  0  0  0  0  0  0  0  0  0
    5.4967   -0.5610   -0.7538 H   0  0  0  0  0  0  0  0  0  0  0  0
    4.2853    2.3892   -1.9123 H   0  0  0  0  0  0  0  0  0  0  0  0
    2.8937    1.2748   -2.3379 H   0  0  0  0  0  0  0  0  0  0  0  0
    4.6028    0.7751   -2.5448 H   0  0  0  0  0  0  0  0  0  0  0  0
    6.6319    1.6134   -1.0120 H   0  0  0  0  0  0  0  0  0  0  0  0
    6.0080    2.1399    0.5578 H   0  0  0  0  0  0  0  0  0  0  0  0
    8.9646    1.5967    1.8042 H   0  0  0  0  0  0  0  0  0  0  0  0
    8.1819    2.6257    0.5730 H   0  0  0  0  0  0  0  0  0  0  0  0
    7.4873   -0.9659   -0.7004 H   0  0  0  0  0  0  0  0  0  0  0  0
    7.5419   -1.3541    1.0517 H   0  0  0  0  0  0  0  0  0  0  0  0
   10.6688    1.7478    0.2759 H   0  0  0  0  0  0  0  0  0  0  0  0
    9.6332    2.1664   -1.1119 H   0  0  0  0  0  0  0  0  0  0  0  0
    9.6308   -1.8649   -0.0235 H   0  0  0  0  0  0  0  0  0  0  0  0
    9.8295   -0.5698    1.2200 H   0  0  0  0  0  0  0  0  0  0  0  0
   11.7552    0.4377   -1.7368 H   0  0  0  0  0  0  0  0  0  0  0  0
   11.5979   -1.1844   -1.0122 H   0  0  0  0  0  0  0  0  0  0  0  0
   11.8328    0.2541    0.0667 H   0  0  0  0  0  0  0  0  0  0  0  0
    5.2049   -1.0878    1.3135 H   0  0  0  0  0  0  0  0  0  0  0  0
    1.1459   -2.0518    1.2288 H   0  0  0  0  0  0  0  0  0  0  0  0
    1.8758   -0.6998    2.1020 H   0  0  0  0  0  0  0  0  0  0  0  0
   -0.4865   -1.3439   -0.4706 H   0  0  0  0  0  0  0  0  0  0  0  0
   -4.4965   -0.2378   -1.4042 H   0  0  0  0  0  0  0  0  0  0  0  0
   -3.3019   -0.6422   -2.6173 H   0  0  0  0  0  0  0  0  0  0  0  0
   -4.9126   -4.2707   -2.3070 H   0  0  0  0  0  0  0  0  0  0  0  0
   -4.8933   -3.6332   -0.6705 H   0  0  0  0  0  0  0  0  0  0  0  0
   -1.7545   -2.3182   -2.5099 H   0  0  0  0  0  0  0  0  0  0  0  0
   -1.1711   -3.0132   -0.8951 H   0  0  0  0  0  0  0  0  0  0  0  0
   -9.9263    1.9653   -1.0492 H   0  0  0  0  0  0  0  0  0  0  0  0
   -9.9739    2.5709    0.6326 H   0  0  0  0  0  0  0  0  0  0  0  0
  -10.8347    1.0565    0.2576 H   0  0  0  0  0  0  0  0  0  0  0  0
   -5.0484   -2.2228    1.8139 H   0  0  0  0  0  0  0  0  0  0  0  0
   -1.9504   -2.2882    2.9963 H   0  0  0  0  0  0  0  0  0  0  0  0
  1  2  1  0
  1  3  1  0
  1  4  1  0
  2  5  1  0
  2  6  1  0
  3  7  1  0
  5  8  1  0
  6  9  1  0
  8 11  1  0
  9 11  1  0
 10 14  1  0
 11 15  1  0
 14 16  1  0
 15 18  1  0
 15 19  1  0
 16 20  1  0
 17 20  1  0
 21 23  1  0
 24 26  1  0
 25 27  1  0
 21 29  1  0
 23 30  1  0
 24 30  1  0
 25 30  1  0
 26 31  1  0
 27 31  1  0
 28 31  1  0
 20 32  1  0
 21 32  1  0
 22 32  1  0
 10 33  1  0
 17 33  1  0
  3 34  1  0
 10 34  1  0
  7 35  1  0
 13 35  1  0
 12 36  1  0
 13 36  1  0
  7 37  1  0
 12 37  1  0
 18 38  1  0
  4 39  1  0
  5 39  1  0
  4 40  1  0
  1 41  1  0
  2 42  1  0
  3 43  1  0
  4 44  1  0
  5 45  1  0
  6 46  1  0
  6 47  1  0
  7 48  1  0
  8 49  1  0
  8 50  1  0
  9 51  1  0
  9 52  1  0
 10 53  1  0
 11 54  1  1
 12 55  1  0
 12 56  1  0
 13 57  1  0
 13 58  1  0
 14 59  1  0
 14 60  1  0
 15 61  1  6
 16 62  1  0
 16 63  1  0
 17 64  1  0
 17 65  1  0
 19 66  1  0
 20 67  1  0
 21 68  1  6
 22 69  1  0
 22 70  1  0
 22 71  1  0
 23 72  1  0
 23 73  1  0
 24 74  1  0
 24 75  1  0
 25 76  1  0
 25 77  1  0
 26 78  1  0
 26 79  1  0
 27 80  1  0
 27 81  1  0
 28 82  1  0
 28 83  1  0
 28 84  1  0
 29 85  1  0
 33 86  1  0
 33 87  1  0
 34 88  1  0
 35 89  1  0
 35 90  1  0
 36 91  1  0
 36 92  1  0
 37 93  1  0
 37 94  1  0
 38 95  1  0
 38 96  1  0
 38 97  1  0
 39 98  1  0
 40 99  1  0
M  END
>  <PDBID>  (1) 
3C7Q

>  <PDB ID>  (1) 
3C7Q

>  <Generic Name>  (1) 
Nintedanib

>  <Brand Name>  (1) 
Ofev#Vargatef

>  <DrugBank ID>  (1) 
DB09079

>  <ATC Codes>  (1) 
L01XE31

>  <Ligand ID>  (1) 
XIN

>  <Target Name>  (1) 
Vascular endothelial growth factor receptor 3

>  <UniProt ID>  (1) 
P35916

>  <PDB ID.1>  (1) 
3C7Q

>  <Seq. Identity>  (1) 
67%

$$$$
