PDB_DB01264_05
     RDKit          3D

 91 94  0  0  0  0  0  0  0  0999 V2000
    7.6187    1.6420    2.6667 N   0  0  0  0  0  0  0  0  0  0  0  0
    6.9585    2.6074    1.7826 C   0  0  0  0  0  0  0  0  0  0  0  0
    7.0948    2.2361    0.3464 C   0  0  0  0  0  0  0  0  0  0  0  0
    6.0927    1.2393   -0.1599 C   0  0  0  0  0  0  0  0  0  0  0  0
    4.9672    1.0078    0.8414 C   0  0  0  0  0  0  0  0  0  0  0  0
    4.5001    2.3346    1.3579 C   0  0  0  0  0  0  0  0  0  0  0  0
    5.5747    2.9159    2.2460 C   0  0  0  0  0  0  0  0  0  0  0  0
    3.8278   -0.0847    0.3125 S   0  0  0  0  0  0  0  0  0  0  0  0
    4.5394   -1.3788   -0.4176 O   0  0  0  0  0  0  0  0  0  0  0  0
    3.3111   -0.8735    1.8744 O   0  0  0  0  0  0  0  0  0  0  0  0
    2.4539    0.3486   -0.2517 N   0  0  0  0  0  0  0  0  0  0  0  0
    2.4224    1.3208   -1.2524 C   0  0  0  0  0  0  0  0  0  0  0  0
    1.9891    0.9381   -2.6344 C   0  0  0  0  0  0  0  0  0  0  0  0
    2.1003    2.2206   -3.5102 C   0  0  0  0  0  0  0  0  0  0  0  0
    2.8784   -0.0714   -3.2912 C   0  0  0  0  0  0  0  0  0  0  0  0
    1.2533   -0.1955    0.2717 C   0  0  0  0  0  0  0  0  0  0  0  0
    0.4311   -1.1010   -0.5397 C   0  0  1  0  0  0  0  0  0  0  0  0
    1.2541   -2.2106   -0.8765 O   0  0  0  0  0  0  0  0  0  0  0  0
   -0.7406   -1.6621    0.3320 C   0  0  1  0  0  0  0  0  0  0  0  0
   -1.5750   -0.5984    0.6842 N   0  0  0  0  0  0  0  0  0  0  0  0
   -2.2482    0.1634   -0.2891 C   0  0  0  0  0  0  0  0  0  0  0  0
   -1.4302    0.9558   -1.1088 O   0  0  0  0  0  0  0  0  0  0  0  0
   -3.1078    1.0371    0.3839 O   0  0  0  0  0  0  0  0  0  0  0  0
   -4.4111    0.8853   -0.0036 C   0  0  1  0  0  0  0  0  0  0  0  0
   -5.3757    0.5720    1.1223 C   0  0  0  0  0  0  0  0  0  0  0  0
   -6.5107    1.3207    0.9390 O   0  0  0  0  0  0  0  0  0  0  0  0
   -6.4891    1.8949   -0.3220 C   0  0  1  0  0  0  0  0  0  0  0  0
   -7.0594    3.1589   -0.2196 O   0  0  0  0  0  0  0  0  0  0  0  0
   -6.1353    4.0125    0.3325 C   0  0  0  0  0  0  0  0  0  0  0  0
   -4.8208    3.3135    0.4565 C   0  0  0  0  0  0  0  0  0  0  0  0
   -4.9943    2.1653   -0.5349 C   0  0  1  0  0  0  0  0  0  0  0  0
   -1.2921   -2.8589   -0.3142 C   0  0  0  0  0  0  0  0  0  0  0  0
   -2.7721   -4.7543   -0.4893 C   0  0  0  0  0  0  0  0  0  0  0  0
   -3.9193   -5.5574    0.0234 C   0  0  0  0  0  0  0  0  0  0  0  0
   -5.0823   -4.6710    0.4468 C   0  0  0  0  0  0  0  0  0  0  0  0
   -4.6443   -3.6222    1.4133 C   0  0  0  0  0  0  0  0  0  0  0  0
   -3.6103   -2.7340    0.6980 C   0  0  0  0  0  0  0  0  0  0  0  0
   -2.4064   -3.5699    0.3980 C   0  0  0  0  0  0  0  0  0  0  0  0
    8.3665    2.0790    3.2133 H   0  0  0  0  0  0  0  0  0  0  0  0
    7.9061    0.7832    2.1481 H   0  0  0  0  0  0  0  0  0  0  0  0
    7.5476    3.5684    1.9073 H   0  0  0  0  0  0  0  0  0  0  0  0
    7.1497    3.1639   -0.2725 H   0  0  0  0  0  0  0  0  0  0  0  0
    8.1069    1.7567    0.2240 H   0  0  0  0  0  0  0  0  0  0  0  0
    6.5632    0.2558   -0.4418 H   0  0  0  0  0  0  0  0  0  0  0  0
    5.6739    1.6388   -1.0827 H   0  0  0  0  0  0  0  0  0  0  0  0
    5.5564    0.5204    1.7111 H   0  0  0  0  0  0  0  0  0  0  0  0
    3.5721    2.2464    1.9694 H   0  0  0  0  0  0  0  0  0  0  0  0
    4.3708    3.0647    0.5219 H   0  0  0  0  0  0  0  0  0  0  0  0
    5.3911    4.0230    2.3671 H   0  0  0  0  0  0  0  0  0  0  0  0
    5.3943    2.5107    3.2708 H   0  0  0  0  0  0  0  0  0  0  0  0
    4.0103   -1.8411   -1.0928 H   0  0  0  0  0  0  0  0  0  0  0  0
    3.1812   -0.0369    2.3932 H   0  0  0  0  0  0  0  0  0  0  0  0
    3.4611    1.7327   -1.3750 H   0  0  0  0  0  0  0  0  0  0  0  0
    1.7564    2.1974   -0.9384 H   0  0  0  0  0  0  0  0  0  0  0  0
    0.9452    0.6584   -2.7574 H   0  0  0  0  0  0  0  0  0  0  0  0
    1.3133    2.8929   -3.0879 H   0  0  0  0  0  0  0  0  0  0  0  0
    1.7695    1.8952   -4.5124 H   0  0  0  0  0  0  0  0  0  0  0  0
    3.1091    2.6313   -3.4688 H   0  0  0  0  0  0  0  0  0  0  0  0
    3.9460    0.0947   -3.0726 H   0  0  0  0  0  0  0  0  0  0  0  0
    2.7542    0.0717   -4.4010 H   0  0  0  0  0  0  0  0  0  0  0  0
    2.5828   -1.1122   -3.1012 H   0  0  0  0  0  0  0  0  0  0  0  0
    1.5309   -0.6669    1.2608 H   0  0  0  0  0  0  0  0  0  0  0  0
    0.6178    0.6868    0.6210 H   0  0  0  0  0  0  0  0  0  0  0  0
   -0.0146   -0.7807   -1.4621 H   0  0  0  0  0  0  0  0  0  0  0  0
    1.7510   -2.5151   -0.0720 H   0  0  0  0  0  0  0  0  0  0  0  0
   -0.1935   -1.9920    1.2634 H   0  0  0  0  0  0  0  0  0  0  0  0
   -1.3326   -0.0426    1.5055 H   0  0  0  0  0  0  0  0  0  0  0  0
   -2.9382   -0.4482   -0.9583 H   0  0  0  0  0  0  0  0  0  0  0  0
   -1.1802    1.7327   -0.5849 H   0  0  0  0  0  0  0  0  0  0  0  0
   -4.5026    0.1127   -0.7933 H   0  0  0  0  0  0  0  0  0  0  0  0
   -4.9264    0.7090    2.1262 H   0  0  0  0  0  0  0  0  0  0  0  0
   -5.6890   -0.5063    1.0590 H   0  0  0  0  0  0  0  0  0  0  0  0
   -6.9246    1.2854   -1.1147 H   0  0  0  0  0  0  0  0  0  0  0  0
   -5.9817    4.8604   -0.3849 H   0  0  0  0  0  0  0  0  0  0  0  0
   -6.4878    4.4305    1.3220 H   0  0  0  0  0  0  0  0  0  0  0  0
   -3.9904    3.9797    0.1997 H   0  0  0  0  0  0  0  0  0  0  0  0
   -4.7186    2.8588    1.4729 H   0  0  0  0  0  0  0  0  0  0  0  0
   -4.7387    2.4169   -1.5585 H   0  0  0  0  0  0  0  0  0  0  0  0
   -0.4197   -3.5704   -0.4824 H   0  0  0  0  0  0  0  0  0  0  0  0
   -1.6671   -2.6944   -1.3532 H   0  0  0  0  0  0  0  0  0  0  0  0
   -1.8718   -5.3962   -0.5459 H   0  0  0  0  0  0  0  0  0  0  0  0
   -2.9413   -4.3407   -1.5039 H   0  0  0  0  0  0  0  0  0  0  0  0
   -3.6363   -6.2059    0.8531 H   0  0  0  0  0  0  0  0  0  0  0  0
   -4.3031   -6.1932   -0.7997 H   0  0  0  0  0  0  0  0  0  0  0  0
   -5.6004   -4.2042   -0.3935 H   0  0  0  0  0  0  0  0  0  0  0  0
   -5.7944   -5.3477    0.9946 H   0  0  0  0  0  0  0  0  0  0  0  0
   -4.1306   -4.0567    2.2761 H   0  0  0  0  0  0  0  0  0  0  0  0
   -5.5289   -3.0134    1.6832 H   0  0  0  0  0  0  0  0  0  0  0  0
   -4.0646   -2.3893   -0.2479 H   0  0  0  0  0  0  0  0  0  0  0  0
   -3.3389   -1.8938    1.3742 H   0  0  0  0  0  0  0  0  0  0  0  0
   -2.0544   -3.9570    1.4074 H   0  0  0  0  0  0  0  0  0  0  0  0
  1  2  1  0
  2  3  1  0
  3  4  1  0
  4  5  1  0
  5  6  1  0
  2  7  1  0
  6  7  1  0
  5  8  1  0
  8  9  1  0
  8 10  1  0
  8 11  1  0
 11 12  1  0
 12 13  1  0
 13 14  1  0
 13 15  1  0
 11 16  1  0
 16 17  1  0
 17 18  1  0
 17 19  1  0
 19 20  1  0
 20 21  1  0
 21 22  1  0
 21 23  1  0
 23 24  1  0
 24 25  1  0
 25 26  1  0
 26 27  1  0
 27 28  1  0
 28 29  1  0
 29 30  1  0
 24 31  1  0
 27 31  1  0
 30 31  1  0
 19 32  1  0
 33 34  1  0
 34 35  1  0
 35 36  1  0
 36 37  1  0
 32 38  1  0
 33 38  1  0
 37 38  1  0
  1 39  1  0
  1 40  1  0
  2 41  1  0
  3 42  1  0
  3 43  1  0
  4 44  1  0
  4 45  1  0
  5 46  1  0
  6 47  1  0
  6 48  1  0
  7 49  1  0
  7 50  1  0
  9 51  1  0
 10 52  1  0
 12 53  1  0
 12 54  1  0
 13 55  1  0
 14 56  1  0
 14 57  1  0
 14 58  1  0
 15 59  1  0
 15 60  1  0
 15 61  1  0
 16 62  1  0
 16 63  1  0
 17 64  1  6
 18 65  1  0
 19 66  1  1
 20 67  1  0
 21 68  1  0
 22 69  1  0
 24 70  1  6
 25 71  1  0
 25 72  1  0
 27 73  1  6
 29 74  1  0
 29 75  1  0
 30 76  1  0
 30 77  1  0
 31 78  1  6
 32 79  1  0
 32 80  1  0
 33 81  1  0
 33 82  1  0
 34 83  1  0
 34 84  1  0
 35 85  1  0
 35 86  1  0
 36 87  1  0
 36 88  1  0
 37 89  1  0
 37 90  1  0
 38 91  1  0
M  END
>  <PDBID>  (1) 
4HLA

>  <PDB ID>  (1) 
4HLA

>  <Generic Name>  (1) 
Darunavir

>  <Brand Name>  (1) 
Pat-darunavir#Prezcobix#Prezista

>  <DrugBank ID>  (1) 
DB01264

>  <ATC Codes>  (1) 
J05AE10#J05AR14

>  <Ligand ID>  (1) 
17

>  <Target Name>  (1) 
Pol polyprotein

>  <UniProt ID>  (1) 
Q72874

>  <PDB ID.1>  (1) 
4HLA

>  <Seq. Identity>  (1) 
99%

$$$$
