PDB_DB01283_06
     RDKit          3D

 94 96  0  0  0  0  0  0  0  0999 V2000
   -2.0614    3.2304    1.8064 O   0  0  0  0  0  0  0  0  0  0  0  0
   -2.2065    2.1107    0.9417 C   0  0  0  0  0  0  0  0  0  0  0  0
   -2.0406    2.6391   -0.3365 O   0  0  0  0  0  0  0  0  0  0  0  0
   -1.1565    1.1539    1.3681 C   0  0  0  0  0  0  0  0  0  0  0  0
   -1.0827   -0.1458    0.6087 C   0  0  0  0  0  0  0  0  0  0  0  0
   -2.3305   -0.9502    0.6750 C   0  0  0  0  0  0  0  0  0  0  0  0
   -3.0022   -1.2545   -0.6176 C   0  0  0  0  0  0  0  0  0  0  0  0
   -3.9948   -2.3666   -0.4715 C   0  0  0  0  0  0  0  0  0  0  0  0
   -2.0032   -1.6066   -1.7146 C   0  0  0  0  0  0  0  0  0  0  0  0
   -1.2857   -0.3037   -1.9166 C   0  0  0  0  0  0  0  0  0  0  0  0
   -0.4625    0.0894   -0.7118 C   0  0  0  0  0  0  0  0  0  0  0  0
    0.8015   -0.5509   -0.8793 N   0  0  0  0  0  0  0  0  0  0  0  0
    1.8749   -0.1786   -0.0753 C   0  0  0  0  0  0  0  0  0  0  0  0
    2.9849   -1.1759   -0.3321 C   0  0  0  0  0  0  0  0  0  0  0  0
    2.6566   -2.6425    0.6549 Cl  0  0  0  0  0  0  0  0  0  0  0  0
    4.3595   -0.6449   -0.0890 C   0  0  0  0  0  0  0  0  0  0  0  0
    4.3366    0.3196    1.0595 C   0  0  0  0  0  0  0  0  0  0  0  0
    3.5373    1.5154    0.6652 C   0  0  0  0  0  0  0  0  0  0  0  0
    2.4221    1.2039   -0.2957 C   0  0  0  0  0  0  0  0  0  0  0  0
    2.9525    1.2203   -1.5857 F   0  0  0  0  0  0  0  0  0  0  0  0
   -2.0614    3.2304    1.8064 O   0  0  0  0  0  0  0  0  0  0  0  0
   -2.2065    2.1107    0.9417 C   0  0  0  0  0  0  0  0  0  0  0  0
   -2.0406    2.6391   -0.3365 O   0  0  0  0  0  0  0  0  0  0  0  0
   -1.1565    1.1539    1.3681 C   0  0  0  0  0  0  0  0  0  0  0  0
   -1.0827   -0.1458    0.6087 C   0  0  0  0  0  0  0  0  0  0  0  0
   -2.3305   -0.9502    0.6750 C   0  0  0  0  0  0  0  0  0  0  0  0
   -3.0022   -1.2545   -0.6176 C   0  0  0  0  0  0  0  0  0  0  0  0
   -3.9948   -2.3666   -0.4715 C   0  0  0  0  0  0  0  0  0  0  0  0
   -2.0032   -1.6066   -1.7146 C   0  0  0  0  0  0  0  0  0  0  0  0
   -1.2857   -0.3037   -1.9166 C   0  0  0  0  0  0  0  0  0  0  0  0
   -0.4625    0.0894   -0.7118 C   0  0  0  0  0  0  0  0  0  0  0  0
    0.8015   -0.5509   -0.8793 N   0  0  0  0  0  0  0  0  0  0  0  0
    1.8749   -0.1786   -0.0753 C   0  0  0  0  0  0  0  0  0  0  0  0
    2.9849   -1.1759   -0.3321 C   0  0  0  0  0  0  0  0  0  0  0  0
    2.6566   -2.6425    0.6549 Cl  0  0  0  0  0  0  0  0  0  0  0  0
    4.3595   -0.6449   -0.0890 C   0  0  0  0  0  0  0  0  0  0  0  0
    4.3366    0.3196    1.0595 C   0  0  0  0  0  0  0  0  0  0  0  0
    3.5373    1.5154    0.6652 C   0  0  0  0  0  0  0  0  0  0  0  0
    2.4221    1.2039   -0.2957 C   0  0  0  0  0  0  0  0  0  0  0  0
    2.9525    1.2203   -1.5857 F   0  0  0  0  0  0  0  0  0  0  0  0
   -1.9855    2.8152    2.7193 H   0  0  0  0  0  0  0  0  0  0  0  0
   -3.2437    1.7661    1.1253 H   0  0  0  0  0  0  0  0  0  0  0  0
   -2.4483    3.5419   -0.3929 H   0  0  0  0  0  0  0  0  0  0  0  0
   -0.1831    1.6993    1.3435 H   0  0  0  0  0  0  0  0  0  0  0  0
   -1.3267    0.9816    2.4749 H   0  0  0  0  0  0  0  0  0  0  0  0
   -0.3207   -0.7470    1.2100 H   0  0  0  0  0  0  0  0  0  0  0  0
   -2.2049   -1.9379    1.1845 H   0  0  0  0  0  0  0  0  0  0  0  0
   -3.1286   -0.4470    1.3038 H   0  0  0  0  0  0  0  0  0  0  0  0
   -3.5459   -0.3517   -0.9807 H   0  0  0  0  0  0  0  0  0  0  0  0
   -4.8328   -2.0596    0.1561 H   0  0  0  0  0  0  0  0  0  0  0  0
   -3.4758   -3.2123    0.0459 H   0  0  0  0  0  0  0  0  0  0  0  0
   -4.3104   -2.7436   -1.4651 H   0  0  0  0  0  0  0  0  0  0  0  0
   -1.3367   -2.4354   -1.4233 H   0  0  0  0  0  0  0  0  0  0  0  0
   -2.5696   -1.8313   -2.6323 H   0  0  0  0  0  0  0  0  0  0  0  0
   -2.0792    0.4619   -2.1311 H   0  0  0  0  0  0  0  0  0  0  0  0
   -0.6149   -0.3600   -2.7872 H   0  0  0  0  0  0  0  0  0  0  0  0
   -0.3101    1.2042   -0.8775 H   0  0  0  0  0  0  0  0  0  0  0  0
    0.8180   -1.4319   -1.3857 H   0  0  0  0  0  0  0  0  0  0  0  0
    1.6263   -0.2589    1.0014 H   0  0  0  0  0  0  0  0  0  0  0  0
    2.9125   -1.4818   -1.3949 H   0  0  0  0  0  0  0  0  0  0  0  0
    5.0226   -1.5076    0.1812 H   0  0  0  0  0  0  0  0  0  0  0  0
    4.8047   -0.1494   -0.9546 H   0  0  0  0  0  0  0  0  0  0  0  0
    5.3990    0.6664    1.2260 H   0  0  0  0  0  0  0  0  0  0  0  0
    4.0022   -0.1248    2.0148 H   0  0  0  0  0  0  0  0  0  0  0  0
    3.1561    1.9902    1.6151 H   0  0  0  0  0  0  0  0  0  0  0  0
    4.2148    2.3011    0.2237 H   0  0  0  0  0  0  0  0  0  0  0  0
    1.6613    1.9894   -0.1541 H   0  0  0  0  0  0  0  0  0  0  0  0
   -1.9855    2.8152    2.7193 H   0  0  0  0  0  0  0  0  0  0  0  0
   -3.2437    1.7661    1.1253 H   0  0  0  0  0  0  0  0  0  0  0  0
   -2.4483    3.5419   -0.3929 H   0  0  0  0  0  0  0  0  0  0  0  0
   -0.1831    1.6993    1.3435 H   0  0  0  0  0  0  0  0  0  0  0  0
   -1.3267    0.9816    2.4749 H   0  0  0  0  0  0  0  0  0  0  0  0
   -0.3207   -0.7470    1.2100 H   0  0  0  0  0  0  0  0  0  0  0  0
   -2.2049   -1.9379    1.1845 H   0  0  0  0  0  0  0  0  0  0  0  0
   -3.1286   -0.4470    1.3038 H   0  0  0  0  0  0  0  0  0  0  0  0
   -3.5459   -0.3517   -0.9807 H   0  0  0  0  0  0  0  0  0  0  0  0
   -4.8328   -2.0596    0.1561 H   0  0  0  0  0  0  0  0  0  0  0  0
   -3.4758   -3.2123    0.0459 H   0  0  0  0  0  0  0  0  0  0  0  0
   -4.3104   -2.7436   -1.4651 H   0  0  0  0  0  0  0  0  0  0  0  0
   -1.3367   -2.4354   -1.4233 H   0  0  0  0  0  0  0  0  0  0  0  0
   -2.5696   -1.8313   -2.6323 H   0  0  0  0  0  0  0  0  0  0  0  0
   -2.0792    0.4619   -2.1311 H   0  0  0  0  0  0  0  0  0  0  0  0
   -0.6149   -0.3600   -2.7872 H   0  0  0  0  0  0  0  0  0  0  0  0
   -0.3101    1.2042   -0.8775 H   0  0  0  0  0  0  0  0  0  0  0  0
    0.8180   -1.4319   -1.3857 H   0  0  0  0  0  0  0  0  0  0  0  0
    1.6263   -0.2589    1.0014 H   0  0  0  0  0  0  0  0  0  0  0  0
    2.9125   -1.4818   -1.3949 H   0  0  0  0  0  0  0  0  0  0  0  0
    5.0226   -1.5076    0.1812 H   0  0  0  0  0  0  0  0  0  0  0  0
    4.8047   -0.1494   -0.9546 H   0  0  0  0  0  0  0  0  0  0  0  0
    5.3990    0.6664    1.2260 H   0  0  0  0  0  0  0  0  0  0  0  0
    4.0022   -0.1248    2.0148 H   0  0  0  0  0  0  0  0  0  0  0  0
    3.1561    1.9902    1.6151 H   0  0  0  0  0  0  0  0  0  0  0  0
    4.2148    2.3011    0.2237 H   0  0  0  0  0  0  0  0  0  0  0  0
    1.6613    1.9894   -0.1541 H   0  0  0  0  0  0  0  0  0  0  0  0
  1  2  1  0
  2  3  1  0
  2  4  1  0
  4  5  1  0
  5  6  1  0
  6  7  1  0
  7  8  1  0
  7  9  1  0
  9 10  1  0
  5 11  1  0
 10 11  1  0
 11 12  1  0
 12 13  1  0
 13 14  1  0
 14 15  1  0
 14 16  1  0
 16 17  1  0
 17 18  1  0
 13 19  1  0
 18 19  1  0
 19 20  1  0
 21 22  1  0
 22 23  1  0
 22 24  1  0
 24 25  1  0
 25 26  1  0
 26 27  1  0
 27 28  1  0
 27 29  1  0
 29 30  1  0
 25 31  1  0
 30 31  1  0
 31 32  1  0
 32 33  1  0
 33 34  1  0
 34 35  1  0
 34 36  1  0
 36 37  1  0
 37 38  1  0
 33 39  1  0
 38 39  1  0
 39 40  1  0
  1 41  1  0
  2 42  1  0
  3 43  1  0
  4 44  1  0
  4 45  1  0
  5 46  1  0
  6 47  1  0
  6 48  1  0
  7 49  1  0
  8 50  1  0
  8 51  1  0
  8 52  1  0
  9 53  1  0
  9 54  1  0
 10 55  1  0
 10 56  1  0
 11 57  1  0
 12 58  1  0
 13 59  1  0
 14 60  1  0
 16 61  1  0
 16 62  1  0
 17 63  1  0
 17 64  1  0
 18 65  1  0
 18 66  1  0
 19 67  1  0
 21 68  1  0
 22 69  1  0
 23 70  1  0
 24 71  1  0
 24 72  1  0
 25 73  1  0
 26 74  1  0
 26 75  1  0
 27 76  1  0
 28 77  1  0
 28 78  1  0
 28 79  1  0
 29 80  1  0
 29 81  1  0
 30 82  1  0
 30 83  1  0
 31 84  1  0
 32 85  1  0
 33 86  1  0
 34 87  1  0
 36 88  1  0
 36 89  1  0
 37 90  1  0
 37 91  1  0
 38 92  1  0
 38 93  1  0
 39 94  1  0
M  END
>  <PDBID>  (1) 
4OTY

>  <PDB ID>  (1) 
4OTY

>  <Generic Name>  (1) 
Lumiracoxib

>  <Brand Name>  (1) 
Prexige

>  <DrugBank ID>  (1) 
DB01283

>  <ATC Codes>  (1) 
M01AH06

>  <Ligand ID>  (1) 
LUR

>  <Target Name>  (1) 
Prostaglandin G/H synthase 1

>  <UniProt ID>  (1) 
P23219

>  <PDB ID.1>  (1) 
4OTY

>  <Seq. Identity>  (1) 
62%

$$$$
