PDB_DB06626_08
     RDKit          3D

 70 73  0  0  0  0  0  0  0  0999 V2000
   -4.7687   -2.2806    0.9227 O   0  0  0  0  0  0  0  0  0  0  0  0
   -5.6521   -1.2251    0.8514 C   0  0  0  0  0  0  0  0  0  0  0  0
   -6.9815   -1.7710    0.6541 N   0  0  0  0  0  0  0  0  0  0  0  0
   -7.1297   -2.4905   -0.5751 C   0  0  0  0  0  0  0  0  0  0  0  0
   -5.3008   -0.2123   -0.2135 C   0  0  0  0  0  0  0  0  0  0  0  0
   -6.3624    0.8625   -0.1531 C   0  0  0  0  0  0  0  0  0  0  0  0
   -5.9048    2.1689   -0.7561 C   0  0  0  0  0  0  0  0  0  0  0  0
   -4.5890    2.6301   -0.1660 C   0  0  0  0  0  0  0  0  0  0  0  0
   -3.9126    0.2901   -0.0051 C   0  0  0  0  0  0  0  0  0  0  0  0
   -4.0136    1.6046    0.7808 C   0  0  0  0  0  0  0  0  0  0  0  0
   -2.8820   -0.8986    0.8699 S   0  0  0  0  0  0  0  0  0  0  0  0
   -1.2249   -0.1859    1.0628 C   0  0  0  0  0  0  0  0  0  0  0  0
   -0.3910   -1.1970    1.8067 C   0  0  0  0  0  0  0  0  0  0  0  0
    1.0698   -0.8536    1.5782 C   0  0  0  0  0  0  0  0  0  0  0  0
   -0.6184    0.2220   -0.2548 C   0  0  0  0  0  0  0  0  0  0  0  0
    0.3616   -0.7461   -0.8198 C   0  0  0  0  0  0  0  0  0  0  0  0
    1.1522   -0.1295   -1.8404 N   0  0  0  0  0  0  0  0  0  0  0  0
    2.4434   -0.6656   -1.7845 N   0  0  0  0  0  0  0  0  0  0  0  0
    2.6942   -0.7543   -0.3462 C   0  0  0  0  0  0  0  0  0  0  0  0
    1.3783   -1.2438    0.1609 C   0  0  0  0  0  0  0  0  0  0  0  0
    3.0822    0.6091    0.1248 C   0  0  0  0  0  0  0  0  0  0  0  0
    4.3209    1.0566   -0.5958 C   0  0  0  0  0  0  0  0  0  0  0  0
    5.5053    0.1634   -0.3831 C   0  0  0  0  0  0  0  0  0  0  0  0
    5.9072    0.0464    0.9916 N   0  0  0  0  0  0  0  0  0  0  0  0
    7.1776    0.7230    1.2557 C   0  0  0  0  0  0  0  0  0  0  0  0
    8.2964    0.1228    0.4466 C   0  0  0  0  0  0  0  0  0  0  0  0
    7.8422   -0.1965   -0.9752 C   0  0  0  0  0  0  0  0  0  0  0  0
    6.6382    0.6933   -1.2565 C   0  0  0  0  0  0  0  0  0  0  0  0
   -4.5438   -2.6407    0.0373 H   0  0  0  0  0  0  0  0  0  0  0  0
   -5.6789   -0.7134    1.8486 H   0  0  0  0  0  0  0  0  0  0  0  0
   -7.7253   -1.0507    0.8094 H   0  0  0  0  0  0  0  0  0  0  0  0
   -6.2007   -2.5915   -1.1526 H   0  0  0  0  0  0  0  0  0  0  0  0
   -7.8473   -1.9100   -1.2116 H   0  0  0  0  0  0  0  0  0  0  0  0
   -7.5658   -3.5072   -0.4286 H   0  0  0  0  0  0  0  0  0  0  0  0
   -5.3213   -0.7520   -1.1896 H   0  0  0  0  0  0  0  0  0  0  0  0
   -6.7298    1.0545    0.8574 H   0  0  0  0  0  0  0  0  0  0  0  0
   -7.2216    0.5080   -0.7613 H   0  0  0  0  0  0  0  0  0  0  0  0
   -5.9014    2.1193   -1.8489 H   0  0  0  0  0  0  0  0  0  0  0  0
   -6.6699    2.9332   -0.4626 H   0  0  0  0  0  0  0  0  0  0  0  0
   -3.8747    2.7443   -1.0067 H   0  0  0  0  0  0  0  0  0  0  0  0
   -4.6729    3.6271    0.3225 H   0  0  0  0  0  0  0  0  0  0  0  0
   -3.4949    0.5538   -1.0194 H   0  0  0  0  0  0  0  0  0  0  0  0
   -3.0330    1.9404    1.1239 H   0  0  0  0  0  0  0  0  0  0  0  0
   -4.7494    1.4524    1.5947 H   0  0  0  0  0  0  0  0  0  0  0  0
   -1.3293    0.7155    1.6965 H   0  0  0  0  0  0  0  0  0  0  0  0
   -0.6262   -1.1239    2.8771 H   0  0  0  0  0  0  0  0  0  0  0  0
   -0.6107   -2.1880    1.3602 H   0  0  0  0  0  0  0  0  0  0  0  0
    1.2465    0.2063    1.7895 H   0  0  0  0  0  0  0  0  0  0  0  0
    1.6589   -1.5246    2.2478 H   0  0  0  0  0  0  0  0  0  0  0  0
   -0.2284    1.2713   -0.2069 H   0  0  0  0  0  0  0  0  0  0  0  0
   -1.4739    0.2853   -0.9908 H   0  0  0  0  0  0  0  0  0  0  0  0
   -0.2000   -1.5821   -1.2917 H   0  0  0  0  0  0  0  0  0  0  0  0
    1.1158    0.8935   -1.8724 H   0  0  0  0  0  0  0  0  0  0  0  0
    2.3990   -1.6109   -2.2237 H   0  0  0  0  0  0  0  0  0  0  0  0
    3.4638   -1.5136   -0.1058 H   0  0  0  0  0  0  0  0  0  0  0  0
    1.3699   -2.3713    0.1222 H   0  0  0  0  0  0  0  0  0  0  0  0
    3.2438    0.6794    1.1990 H   0  0  0  0  0  0  0  0  0  0  0  0
    2.2772    1.3259   -0.1391 H   0  0  0  0  0  0  0  0  0  0  0  0
    4.1573    1.1433   -1.6885 H   0  0  0  0  0  0  0  0  0  0  0  0
    4.5937    2.0943   -0.2586 H   0  0  0  0  0  0  0  0  0  0  0  0
    5.2761   -0.8614   -0.7726 H   0  0  0  0  0  0  0  0  0  0  0  0
    5.2212    0.4620    1.6380 H   0  0  0  0  0  0  0  0  0  0  0  0
    7.0733    1.8207    1.0511 H   0  0  0  0  0  0  0  0  0  0  0  0
    7.3881    0.5962    2.3177 H   0  0  0  0  0  0  0  0  0  0  0  0
    8.6568   -0.8111    0.9421 H   0  0  0  0  0  0  0  0  0  0  0  0
    9.1103    0.9022    0.3965 H   0  0  0  0  0  0  0  0  0  0  0  0
    8.6581    0.0167   -1.6998 H   0  0  0  0  0  0  0  0  0  0  0  0
    7.4993   -1.2438   -1.0648 H   0  0  0  0  0  0  0  0  0  0  0  0
    6.2914    0.5554   -2.3055 H   0  0  0  0  0  0  0  0  0  0  0  0
    6.8608    1.7528   -1.0477 H   0  0  0  0  0  0  0  0  0  0  0  0
  1  2  1  0
  2  3  1  0
  3  4  1  0
  2  5  1  0
  5  6  1  0
  6  7  1  0
  7  8  1  0
  5  9  1  0
  8 10  1  0
  9 10  1  0
  9 11  1  0
 11 12  1  0
 12 13  1  0
 13 14  1  0
 12 15  1  0
 15 16  1  0
 16 17  1  0
 17 18  1  0
 18 19  1  0
 14 20  1  0
 16 20  1  0
 19 20  1  0
 19 21  1  0
 21 22  1  0
 22 23  1  0
 23 24  1  0
 24 25  1  0
 25 26  1  0
 26 27  1  0
 23 28  1  0
 27 28  1  0
  1 29  1  0
  2 30  1  0
  3 31  1  0
  4 32  1  0
  4 33  1  0
  4 34  1  0
  5 35  1  0
  6 36  1  0
  6 37  1  0
  7 38  1  0
  7 39  1  0
  8 40  1  0
  8 41  1  0
  9 42  1  0
 10 43  1  0
 10 44  1  0
 12 45  1  0
 13 46  1  0
 13 47  1  0
 14 48  1  0
 14 49  1  0
 15 50  1  0
 15 51  1  0
 16 52  1  0
 17 53  1  0
 18 54  1  0
 19 55  1  0
 20 56  1  0
 21 57  1  0
 21 58  1  0
 22 59  1  0
 22 60  1  0
 23 61  1  0
 24 62  1  0
 25 63  1  0
 25 64  1  0
 26 65  1  0
 26 66  1  0
 27 67  1  0
 27 68  1  0
 28 69  1  0
 28 70  1  0
M  END
>  <PDBID>  (1) 
4AG8

>  <PDB ID>  (1) 
4AG8

>  <Generic Name>  (1) 
Axitinib

>  <Brand Name>  (1) 
Inlyta

>  <DrugBank ID>  (1) 
DB06626

>  <ATC Codes>  (1) 
L01XE17

>  <Ligand ID>  (1) 
AXI

>  <Target Name>  (1) 
Vascular endothelial growth factor receptor 3

>  <UniProt ID>  (1) 
P35916

>  <PDB ID.1>  (1) 
4AG8

>  <Seq. Identity>  (1) 
67%

$$$$
