PDB_DB00674_09
     RDKit          3D

100106  0  0  0  0  0  0  0  0999 V2000
   -0.6809   -1.2550   -1.0940 C   0  0  0  0  0  0  0  0  0  0  0  0
   -1.8330   -2.1926   -1.2600 C   0  0  0  0  0  0  0  0  0  0  0  0
   -2.9970   -1.8955   -0.3751 C   0  0  1  0  0  0  0  0  0  0  0  0
   -2.9245   -0.5037    0.2069 C   0  0  0  0  0  0  0  0  0  0  0  0
   -1.6836   -0.3026    0.9984 C   0  0  1  0  0  0  0  0  0  0  0  0
   -0.4359   -0.8362    0.3289 C   0  0  1  0  0  0  0  0  0  0  0  0
   -1.4932    1.0640    1.1940 O   0  0  0  0  0  0  0  0  0  0  0  0
   -0.0691    2.8087    0.3115 C   0  0  0  0  0  0  0  0  0  0  0  0
    1.0695    2.9278   -0.7113 C   0  0  0  0  0  0  0  0  0  0  0  0
    2.1034    1.8577   -0.5066 C   0  0  0  0  0  0  0  0  0  0  0  0
    2.6425   -0.4961   -0.2342 C   0  0  0  0  0  0  0  0  0  0  0  0
    2.2016   -1.8484   -0.0960 N   0  0  0  0  0  0  0  0  0  0  0  0
    1.5846   -2.0340    1.1932 C   0  0  0  0  0  0  0  0  0  0  0  0
    0.0724   -2.0123    1.1091 C   0  0  0  0  0  0  0  0  0  0  0  0
   -0.6123    1.4421    0.2155 C   0  0  0  0  0  0  0  0  0  0  0  0
    0.4586    0.3575    0.4026 C   0  0  0  0  0  0  0  0  0  0  0  0
    1.5052    0.4532   -0.6323 C   0  0  0  0  0  0  0  0  0  0  0  0
   -1.2947    4.7078    0.7855 C   0  0  0  0  0  0  0  0  0  0  0  0
   -1.0521    3.6955   -0.1321 O   0  0  0  0  0  0  0  0  0  0  0  0
   -4.2100   -1.9627   -1.0928 O   0  0  0  0  0  0  0  0  0  0  0  0
    3.3223   -2.7422   -0.3166 C   0  0  0  0  0  0  0  0  0  0  0  0
   -0.6809   -1.2550   -1.0940 C   0  0  0  0  0  0  0  0  0  0  0  0
   -1.8330   -2.1926   -1.2600 C   0  0  0  0  0  0  0  0  0  0  0  0
   -2.9970   -1.8955   -0.3751 C   0  0  1  0  0  0  0  0  0  0  0  0
   -2.9245   -0.5037    0.2069 C   0  0  0  0  0  0  0  0  0  0  0  0
   -1.6836   -0.3026    0.9984 C   0  0  1  0  0  0  0  0  0  0  0  0
   -0.4359   -0.8362    0.3289 C   0  0  1  0  0  0  0  0  0  0  0  0
   -1.4932    1.0640    1.1940 O   0  0  0  0  0  0  0  0  0  0  0  0
   -0.0691    2.8087    0.3115 C   0  0  0  0  0  0  0  0  0  0  0  0
    1.0695    2.9278   -0.7113 C   0  0  0  0  0  0  0  0  0  0  0  0
    2.1034    1.8577   -0.5066 C   0  0  0  0  0  0  0  0  0  0  0  0
    2.6425   -0.4961   -0.2342 C   0  0  0  0  0  0  0  0  0  0  0  0
    2.2016   -1.8484   -0.0960 N   0  0  0  0  0  0  0  0  0  0  0  0
    1.5846   -2.0340    1.1932 C   0  0  0  0  0  0  0  0  0  0  0  0
    0.0724   -2.0123    1.1091 C   0  0  0  0  0  0  0  0  0  0  0  0
   -0.6123    1.4421    0.2155 C   0  0  0  0  0  0  0  0  0  0  0  0
    0.4586    0.3575    0.4026 C   0  0  0  0  0  0  0  0  0  0  0  0
    1.5052    0.4532   -0.6323 C   0  0  0  0  0  0  0  0  0  0  0  0
   -1.2947    4.7078    0.7855 C   0  0  0  0  0  0  0  0  0  0  0  0
   -1.0521    3.6955   -0.1321 O   0  0  0  0  0  0  0  0  0  0  0  0
   -4.2100   -1.9627   -1.0928 O   0  0  0  0  0  0  0  0  0  0  0  0
    3.3223   -2.7422   -0.3166 C   0  0  0  0  0  0  0  0  0  0  0  0
    0.2360   -1.7929   -1.4355 H   0  0  0  0  0  0  0  0  0  0  0  0
   -0.8141   -0.4110   -1.7913 H   0  0  0  0  0  0  0  0  0  0  0  0
   -1.5434   -3.2532   -1.1336 H   0  0  0  0  0  0  0  0  0  0  0  0
   -2.1883   -2.1154   -2.3291 H   0  0  0  0  0  0  0  0  0  0  0  0
   -3.0678   -2.6130    0.4600 H   0  0  0  0  0  0  0  0  0  0  0  0
   -3.0041    0.2824   -0.5714 H   0  0  0  0  0  0  0  0  0  0  0  0
   -3.7935   -0.4262    0.9244 H   0  0  0  0  0  0  0  0  0  0  0  0
   -1.7843   -0.7528    2.0214 H   0  0  0  0  0  0  0  0  0  0  0  0
    0.3114    3.0987    1.3029 H   0  0  0  0  0  0  0  0  0  0  0  0
    1.5457    3.8947   -0.5169 H   0  0  0  0  0  0  0  0  0  0  0  0
    0.6621    2.8991   -1.7363 H   0  0  0  0  0  0  0  0  0  0  0  0
    2.9202    2.0314   -1.2031 H   0  0  0  0  0  0  0  0  0  0  0  0
    2.4272    1.9359    0.5717 H   0  0  0  0  0  0  0  0  0  0  0  0
    2.9505   -0.1450    0.7924 H   0  0  0  0  0  0  0  0  0  0  0  0
    3.5251   -0.3666   -0.8897 H   0  0  0  0  0  0  0  0  0  0  0  0
    1.8596   -3.0684    1.5472 H   0  0  0  0  0  0  0  0  0  0  0  0
    1.8867   -1.2731    1.9333 H   0  0  0  0  0  0  0  0  0  0  0  0
   -0.3188   -2.0512    2.1391 H   0  0  0  0  0  0  0  0  0  0  0  0
   -0.2445   -2.9562    0.5986 H   0  0  0  0  0  0  0  0  0  0  0  0
   -1.1202    1.3244   -0.7641 H   0  0  0  0  0  0  0  0  0  0  0  0
    0.9089    0.5039    1.3967 H   0  0  0  0  0  0  0  0  0  0  0  0
    1.1676    0.2524   -1.6536 H   0  0  0  0  0  0  0  0  0  0  0  0
   -2.0829    5.3547    0.3468 H   0  0  0  0  0  0  0  0  0  0  0  0
   -1.6936    4.3351    1.7432 H   0  0  0  0  0  0  0  0  0  0  0  0
   -0.3923    5.3233    0.8824 H   0  0  0  0  0  0  0  0  0  0  0  0
   -4.9182   -2.3842   -0.5512 H   0  0  0  0  0  0  0  0  0  0  0  0
    3.2883   -3.0512   -1.3973 H   0  0  0  0  0  0  0  0  0  0  0  0
    3.3133   -3.6177    0.3356 H   0  0  0  0  0  0  0  0  0  0  0  0
    4.2897   -2.1906   -0.1605 H   0  0  0  0  0  0  0  0  0  0  0  0
    0.2360   -1.7929   -1.4355 H   0  0  0  0  0  0  0  0  0  0  0  0
   -0.8141   -0.4110   -1.7913 H   0  0  0  0  0  0  0  0  0  0  0  0
   -1.5434   -3.2532   -1.1336 H   0  0  0  0  0  0  0  0  0  0  0  0
   -2.1883   -2.1154   -2.3291 H   0  0  0  0  0  0  0  0  0  0  0  0
   -3.0678   -2.6130    0.4600 H   0  0  0  0  0  0  0  0  0  0  0  0
   -3.0041    0.2824   -0.5714 H   0  0  0  0  0  0  0  0  0  0  0  0
   -3.7935   -0.4262    0.9244 H   0  0  0  0  0  0  0  0  0  0  0  0
   -1.7843   -0.7528    2.0214 H   0  0  0  0  0  0  0  0  0  0  0  0
    0.3114    3.0987    1.3029 H   0  0  0  0  0  0  0  0  0  0  0  0
    1.5457    3.8947   -0.5169 H   0  0  0  0  0  0  0  0  0  0  0  0
    0.6621    2.8991   -1.7363 H   0  0  0  0  0  0  0  0  0  0  0  0
    2.9202    2.0314   -1.2031 H   0  0  0  0  0  0  0  0  0  0  0  0
    2.4272    1.9359    0.5717 H   0  0  0  0  0  0  0  0  0  0  0  0
    2.9505   -0.1450    0.7924 H   0  0  0  0  0  0  0  0  0  0  0  0
    3.5251   -0.3666   -0.8897 H   0  0  0  0  0  0  0  0  0  0  0  0
    1.8596   -3.0684    1.5472 H   0  0  0  0  0  0  0  0  0  0  0  0
    1.8867   -1.2731    1.9333 H   0  0  0  0  0  0  0  0  0  0  0  0
   -0.3188   -2.0512    2.1391 H   0  0  0  0  0  0  0  0  0  0  0  0
   -0.2445   -2.9562    0.5986 H   0  0  0  0  0  0  0  0  0  0  0  0
   -1.1202    1.3244   -0.7641 H   0  0  0  0  0  0  0  0  0  0  0  0
    0.9089    0.5039    1.3967 H   0  0  0  0  0  0  0  0  0  0  0  0
    1.1676    0.2524   -1.6536 H   0  0  0  0  0  0  0  0  0  0  0  0
   -2.0829    5.3547    0.3468 H   0  0  0  0  0  0  0  0  0  0  0  0
   -1.6936    4.3351    1.7432 H   0  0  0  0  0  0  0  0  0  0  0  0
   -0.3923    5.3233    0.8824 H   0  0  0  0  0  0  0  0  0  0  0  0
   -4.9182   -2.3842   -0.5512 H   0  0  0  0  0  0  0  0  0  0  0  0
    3.2883   -3.0512   -1.3973 H   0  0  0  0  0  0  0  0  0  0  0  0
    3.3133   -3.6177    0.3356 H   0  0  0  0  0  0  0  0  0  0  0  0
    4.2897   -2.1906   -0.1605 H   0  0  0  0  0  0  0  0  0  0  0  0
  1  2  1  0
  2  3  1  0
  3  4  1  0
  4  5  1  0
  6  1  1  6
  5  6  1  0
  5  7  1  0
  8  9  1  0
  9 10  1  0
 11 12  1  0
 12 13  1  0
  6 14  1  0
 13 14  1  0
  7 15  1  0
  8 15  1  0
  6 16  1  0
 15 16  1  0
 10 17  1  0
 11 17  1  0
 16 17  1  0
  8 19  1  0
 18 19  1  0
  3 20  1  0
 12 21  1  0
 22 23  1  0
 23 24  1  0
 24 25  1  0
 25 26  1  0
 27 22  1  6
 26 27  1  0
 26 28  1  0
 29 30  1  0
 30 31  1  0
 32 33  1  0
 33 34  1  0
 27 35  1  0
 34 35  1  0
 28 36  1  0
 29 36  1  0
 27 37  1  0
 36 37  1  0
 31 38  1  0
 32 38  1  0
 37 38  1  0
 29 40  1  0
 39 40  1  0
 24 41  1  0
 33 42  1  0
  1 43  1  0
  1 44  1  0
  2 45  1  0
  2 46  1  0
  3 47  1  1
  4 48  1  0
  4 49  1  0
  5 50  1  1
  8 51  1  0
  9 52  1  0
  9 53  1  0
 10 54  1  0
 10 55  1  0
 11 56  1  0
 11 57  1  0
 13 58  1  0
 13 59  1  0
 14 60  1  0
 14 61  1  0
 15 62  1  0
 16 63  1  0
 17 64  1  0
 18 65  1  0
 18 66  1  0
 18 67  1  0
 20 68  1  0
 21 69  1  0
 21 70  1  0
 21 71  1  0
 22 72  1  0
 22 73  1  0
 23 74  1  0
 23 75  1  0
 24 76  1  1
 25 77  1  0
 25 78  1  0
 26 79  1  1
 29 80  1  0
 30 81  1  0
 30 82  1  0
 31 83  1  0
 31 84  1  0
 32 85  1  0
 32 86  1  0
 34 87  1  0
 34 88  1  0
 35 89  1  0
 35 90  1  0
 36 91  1  0
 37 92  1  0
 38 93  1  0
 39 94  1  0
 39 95  1  0
 39 96  1  0
 41 97  1  0
 42 98  1  0
 42 99  1  0
 42100  1  0
M  END
>  <PDBID>  (1) 
4EY6

>  <PDB ID>  (1) 
4EY6

>  <Generic Name>  (1) 
Galantamine

>  <Brand Name>  (1) 
Apo-galantamine#Auro-galantamine ER#Galantamine#Galantamine ER#Galantamine Hydrobromide#Ipg-galantamine ER#Mar-galantamine ER#Mylan-galantamine ER#PMS-galantamine#PMS-galantamine ER#Pat-galantamine ER#Pendo-galantamine ER#Ratio-galantamine#Razadyne#Reminyl   -(12mg)#Reminyl   -(4mg)#Reminyl   -(8mg)#Reminyl ER#Sandoz Galantamine ER#Teva-galantamine ER#Lycoremine#Nivalin#Reminyl

>  <DrugBank ID>  (1) 
DB00674

>  <ATC Codes>  (1) 
N06DA04

>  <Ligand ID>  (1) 
GNT

>  <Target Name>  (1) 
Acetylcholinesterase

>  <UniProt ID>  (1) 
P22303

>  <PDB ID.1>  (1) 
4EY6

>  <Seq. Identity>  (1) 
97%

$$$$
