PDB_DB00282_09
     RDKit          3D

 28 27  0  0  0  0  0  0  0  0999 V2000
   -0.6502   -1.3968    0.2572 P   0  0  0  0  0  0  0  0  0  0  0  0
   -0.5426   -2.5620   -0.9173 O   0  0  0  0  0  0  0  0  0  0  0  0
   -2.1506   -1.2570   -0.1062 O   0  0  0  0  0  0  0  0  0  0  0  0
   -1.1387   -1.8164    1.7848 O   0  0  0  0  0  0  0  0  0  0  0  0
   -0.1501    0.2335   -0.1086 C   0  0  0  0  0  0  0  0  0  0  0  0
   -0.9240    1.3066    1.0404 P   0  0  0  0  0  0  0  0  0  0  0  0
   -2.2795    0.7709    1.8384 O   0  0  0  0  0  0  0  0  0  0  0  0
   -0.1647    2.7001    1.5178 O   0  0  0  0  0  0  0  0  0  0  0  0
   -1.8157    2.1099    0.1039 O   0  0  0  0  0  0  0  0  0  0  0  0
   -0.4847    0.4267   -1.4755 O   0  0  0  0  0  0  0  0  0  0  0  0
    1.3304    0.5530   -0.1292 C   0  0  0  0  0  0  0  0  0  0  0  0
    2.1295   -0.2040   -1.1154 C   0  0  0  0  0  0  0  0  0  0  0  0
    2.1516   -1.6233   -0.9895 N   0  0  0  0  0  0  0  0  0  0  0  0
    0.4931   -1.8316    0.6087 H   0  0  0  0  0  0  0  0  0  0  0  0
   -0.4713   -2.1186   -1.7655 H   0  0  0  0  0  0  0  0  0  0  0  0
   -2.3660   -0.8449   -0.9457 H   0  0  0  0  0  0  0  0  0  0  0  0
   -0.9519   -1.0682    2.3505 H   0  0  0  0  0  0  0  0  0  0  0  0
   -0.2735    0.7772    2.0255 H   0  0  0  0  0  0  0  0  0  0  0  0
   -2.5505    1.4535    2.4558 H   0  0  0  0  0  0  0  0  0  0  0  0
    0.4729    2.9075    0.8331 H   0  0  0  0  0  0  0  0  0  0  0  0
   -1.3883    2.5302   -0.6535 H   0  0  0  0  0  0  0  0  0  0  0  0
   -1.3737    0.7693   -1.6195 H   0  0  0  0  0  0  0  0  0  0  0  0
    1.7836    0.4534    0.8765 H   0  0  0  0  0  0  0  0  0  0  0  0
    1.4006    1.6377   -0.4221 H   0  0  0  0  0  0  0  0  0  0  0  0
    1.7842    0.1064   -2.1407 H   0  0  0  0  0  0  0  0  0  0  0  0
    3.2091    0.1251   -1.0920 H   0  0  0  0  0  0  0  0  0  0  0  0
    2.8937   -1.9856   -0.3536 H   0  0  0  0  0  0  0  0  0  0  0  0
    2.0271   -2.1526   -1.8584 H   0  0  0  0  0  0  0  0  0  0  0  0
  1  2  1  0
  1  3  1  0
  1  4  1  0
  1  5  1  0
  5  6  1  0
  6  7  1  0
  6  8  1  0
  6  9  1  0
  5 10  1  0
  5 11  1  0
 11 12  1  0
 12 13  1  0
  1 14  1  0
  2 15  1  0
  3 16  1  0
  4 17  1  0
  6 18  1  0
  7 19  1  0
  8 20  1  0
  9 21  1  0
 10 22  1  0
 11 23  1  0
 11 24  1  0
 12 25  1  0
 12 26  1  0
 13 27  1  0
 13 28  1  0
M  END
>  <PDBID>  (1) 
2F89

>  <PDB ID>  (1) 
2F89

>  <Generic Name>  (1) 
Pamidronate

>  <Brand Name>  (1) 
Aredia#Aredia 30mg#Aredia 90mg#Aredia Liq Inj 3mg/ml#PMS-pamidronate#Pamidronate Disodium#Pamidronate Disodium Omega 3 mg/ml#Pamidronate Disodium Omega 6 mg/ml#Pamidronate Disodium Omega 9 mg/ml#Pamidronate Disodium for Injection#Val-pamidronate Disodium#Aminomux#Pamimed

>  <DrugBank ID>  (1) 
DB00282

>  <ATC Codes>  (1) 
M05BA03

>  <Ligand ID>  (1) 
210

>  <Target Name>  (1) 
Farnesyl pyrophosphate synthase

>  <UniProt ID>  (1) 
P14324

>  <PDB ID.1>  (1) 
2F89

>  <Seq. Identity>  (1) 
100%

$$$$
