PDB_DB00884_08
     RDKit          3D

 38 38  0  0  0  0  0  0  0  0999 V2000
   -2.8015    2.3236   -0.6864 O   0  0  0  0  0  0  0  0  0  0  0  0
   -2.2819    0.9343   -1.2262 P   0  0  0  0  0  0  0  0  0  0  0  0
   -1.5342    1.7772   -2.3898 O   0  0  0  0  0  0  0  0  0  0  0  0
   -2.2737   -0.3103   -2.1479 O   0  0  0  0  0  0  0  0  0  0  0  0
   -1.2025    0.3441    0.0639 C   0  0  0  0  0  0  0  0  0  0  0  0
   -0.6536    1.4965    0.6992 O   0  0  0  0  0  0  0  0  0  0  0  0
   -1.9645   -0.5510    1.3535 P   0  0  0  0  0  0  0  0  0  0  0  0
   -3.3791   -0.0088    1.1518 O   0  0  0  0  0  0  0  0  0  0  0  0
   -2.0577    0.2123    2.9073 O   0  0  0  0  0  0  0  0  0  0  0  0
   -2.3236   -2.1154    1.2449 O   0  0  0  0  0  0  0  0  0  0  0  0
   -0.0105   -0.2827   -0.6184 C   0  0  0  0  0  0  0  0  0  0  0  0
    1.0419   -0.8524    0.2299 C   0  0  1  0  0  0  0  0  0  0  0  0
    2.1609   -1.4353   -0.6498 C   0  0  0  0  0  0  0  0  0  0  0  0
    3.1678   -0.3745   -1.0151 C   0  0  0  0  0  0  0  0  0  0  0  0
    3.9402    0.0746    0.1925 C   0  0  0  0  0  0  0  0  0  0  0  0
    3.0825   -0.0363    1.3400 N   0  0  0  0  0  0  0  0  0  0  0  0
    1.6994    0.2188    1.0687 C   0  0  0  0  0  0  0  0  0  0  0  0
   -0.5176    2.1576   -0.0096 H   0  0  0  0  0  0  0  0  0  0  0  0
    0.4609    0.4131   -1.3479 H   0  0  0  0  0  0  0  0  0  0  0  0
   -0.3808   -1.1181   -1.2917 H   0  0  0  0  0  0  0  0  0  0  0  0
    1.7045   -1.8036   -1.5927 H   0  0  0  0  0  0  0  0  0  0  0  0
    2.6784    0.4491   -1.5616 H   0  0  0  0  0  0  0  0  0  0  0  0
    4.8357   -0.5687    0.3098 H   0  0  0  0  0  0  0  0  0  0  0  0
    1.1917    0.4353    2.0056 H   0  0  0  0  0  0  0  0  0  0  0  0
    3.2680   -0.8270    1.9564 H   0  0  0  0  0  0  0  0  0  0  0  0
   -2.7988    2.3733    0.2764 H   0  0  0  0  0  0  0  0  0  0  0  0
   -3.6263    0.6137   -1.1093 H   0  0  0  0  0  0  0  0  0  0  0  0
   -2.1086    2.0314   -3.1149 H   0  0  0  0  0  0  0  0  0  0  0  0
   -2.6440   -0.3988   -3.0367 H   0  0  0  0  0  0  0  0  0  0  0  0
   -0.8105   -0.8744    1.8559 H   0  0  0  0  0  0  0  0  0  0  0  0
   -4.1365   -0.3959    1.6074 H   0  0  0  0  0  0  0  0  0  0  0  0
   -1.7780    1.1225    2.7531 H   0  0  0  0  0  0  0  0  0  0  0  0
   -3.1913   -2.4982    1.3212 H   0  0  0  0  0  0  0  0  0  0  0  0
    0.7665   -1.6841    0.8891 H   0  0  0  0  0  0  0  0  0  0  0  0
    2.6662   -2.2724   -0.1736 H   0  0  0  0  0  0  0  0  0  0  0  0
    3.8858   -0.8496   -1.7151 H   0  0  0  0  0  0  0  0  0  0  0  0
    4.2776    1.1168    0.0041 H   0  0  0  0  0  0  0  0  0  0  0  0
    1.6469    1.1632    0.4559 H   0  0  0  0  0  0  0  0  0  0  0  0
  1  2  1  0
  2  3  1  0
  2  4  1  0
  2  5  1  0
  5  6  1  0
  5  7  1  0
  7  8  1  0
  7  9  1  0
  7 10  1  0
  5 11  1  0
 11 12  1  0
 12 13  1  0
 13 14  1  0
 14 15  1  0
 15 16  1  0
 12 17  1  0
 16 17  1  0
 18  6  1  0
 11 19  1  0
 11 20  1  0
 13 21  1  0
 14 22  1  0
 15 23  1  0
 17 24  1  0
 25 16  1  0
  1 26  1  0
  2 27  1  0
  3 28  1  0
  4 29  1  0
  7 30  1  0
  8 31  1  0
  9 32  1  0
 10 33  1  0
 12 34  1  1
 13 35  1  0
 14 36  1  0
 15 37  1  0
 17 38  1  0
M  END
>  <PDBID>  (1) 
5CG5

>  <PDB ID>  (1) 
5CG5

>  <Generic Name>  (1) 
Risedronate

>  <Brand Name>  (1) 
Actonel#Actonel Dr#Actonel Plus Calcium#Actonel Sachet Kit#Apo-risedronate#Atelvia#Auro-risedronate#Dom-risedronate#Jamp-risedronate#Mylan-risedronate#Ntp-risedronate#PHL-risedronate#PMS-risedronate#PMS-risedronate Plus Calcium#Pendo-risedronate#Q-risedronate#Ratio-risedronate#Risedronate#Risedronate Sodium#Risedronate-35#Riva-risedronate#Sandoz Risedronate#Teva-risedronate#Benet

>  <DrugBank ID>  (1) 
DB00884

>  <ATC Codes>  (1) 
M05BB02#M05BA07#M05BB04#M05BB07

>  <Ligand ID>  (1) 
RIS

>  <Target Name>  (1) 
Farnesyl pyrophosphate synthase

>  <UniProt ID>  (1) 
P14324

>  <PDB ID.1>  (1) 
5CG5

>  <Seq. Identity>  (1) 
100%

$$$$
