PDB_DB00814_09
     RDKit          3D

104109  0  0  0  0  0  0  0  0999 V2000
    5.8028    1.1626    0.6774 C   0  0  0  0  0  0  0  0  0  0  0  0
    5.3540    0.7522   -0.6958 C   0  0  0  0  0  0  0  0  0  0  0  0
    3.7331    1.4279   -1.1565 S   0  0  0  0  0  0  0  0  0  0  0  0
    5.0089   -0.7259   -0.7552 C   0  0  0  0  0  0  0  0  0  0  0  0
    3.7386   -0.8839   -0.1169 N   0  0  0  0  0  0  0  0  0  0  0  0
    2.7614   -0.0688   -0.8077 C   0  0  0  0  0  0  0  0  0  0  0  0
    1.6280    0.2536    0.0378 N   0  0  0  0  0  0  0  0  0  0  0  0
    1.1441   -0.8742    0.7698 C   0  0  1  0  0  0  0  0  0  0  0  0
    1.4655   -0.6123    2.1248 O   0  0  0  0  0  0  0  0  0  0  0  0
   -0.3247   -1.0760    0.6364 C   0  0  1  0  0  0  0  0  0  0  0  0
   -1.0535    0.0479    1.3112 C   0  0  2  0  0  0  0  0  0  0  0  0
   -1.1842   -0.2988    2.6744 O   0  0  0  0  0  0  0  0  0  0  0  0
   -2.4758    0.2426    0.8320 C   0  0  1  0  0  0  0  0  0  0  0  0
   -3.1016    1.2526    1.7682 C   0  0  0  0  0  0  0  0  0  0  0  0
   -3.8960    2.3094    1.0337 C   0  0  0  0  0  0  0  0  0  0  0  0
   -4.7005    1.5930   -0.0303 C   0  0  0  0  0  0  0  0  0  0  0  0
   -3.7498    1.1815   -1.1288 C   0  0  0  0  0  0  0  0  0  0  0  0
   -2.4435    0.7251   -0.5860 C   0  0  2  0  0  0  0  0  0  0  0  0
   -1.7704   -0.6431   -1.5079 S   0  0  0  0  0  0  0  0  0  0  0  0
   -1.2571    0.0241   -3.2155 O   0  0  0  0  0  0  0  0  0  0  0  0
   -3.2487   -1.7154   -2.1086 O   0  0  0  0  0  0  0  0  0  0  0  0
   -0.7728   -1.3796   -0.6977 N   0  0  0  0  0  0  0  0  0  0  0  0
   -0.6175   -2.8249   -0.9548 C   0  0  0  0  0  0  0  0  0  0  0  0
    5.8037    1.7173    0.3086 C   0  0  0  0  0  0  0  0  0  0  0  0
    4.9741    1.1556   -0.8160 C   0  0  0  0  0  0  0  0  0  0  0  0
    3.1964    1.5746   -0.6114 S   0  0  0  0  0  0  0  0  0  0  0  0
    4.8582   -0.3621   -0.6999 C   0  0  0  0  0  0  0  0  0  0  0  0
    3.7085   -0.7731   -1.4345 N   0  0  0  0  0  0  0  0  0  0  0  0
    2.5379   -0.1202   -0.8978 C   0  0  1  0  0  0  0  0  0  0  0  0
    2.0741   -0.7683    0.2318 N   0  0  0  0  0  0  0  0  0  0  0  0
    0.9147   -0.4044    0.9244 C   0  0  1  0  0  0  0  0  0  0  0  0
    0.9517    0.8033    1.5964 O   0  0  0  0  0  0  0  0  0  0  0  0
   -0.4069   -0.5729    0.1243 C   0  0  2  0  0  0  0  0  0  0  0  0
   -0.8523    0.6606   -0.4652 C   0  0  2  0  0  0  0  0  0  0  0  0
   -0.0599    1.7764   -0.4374 O   0  0  0  0  0  0  0  0  0  0  0  0
   -1.9903    1.0044    0.5076 C   0  0  1  0  0  0  0  0  0  0  0  0
   -2.6849    2.1688   -0.0480 C   0  0  0  0  0  0  0  0  0  0  0  0
   -4.1605    2.2082   -0.0206 C   0  0  0  0  0  0  0  0  0  0  0  0
   -4.8402    0.8702   -0.0562 C   0  0  0  0  0  0  0  0  0  0  0  0
   -4.1152   -0.0711    0.8013 C   0  0  0  0  0  0  0  0  0  0  0  0
   -2.7595   -0.3183    0.2934 C   0  0  2  0  0  0  0  0  0  0  0  0
   -1.6362   -1.4752    0.8667 S   0  0  0  0  0  0  0  0  0  0  0  0
   -1.1492   -3.2318    1.4038 O   0  0  0  0  0  0  0  0  0  0  0  0
   -1.8913   -1.2073    2.5985 O   0  0  0  0  0  0  0  0  0  0  0  0
   -0.2696   -1.7320   -0.4685 N   0  0  0  0  0  0  0  0  0  0  0  0
   -0.6135   -1.8714   -1.7605 C   0  0  0  0  0  0  0  0  0  0  0  0
    6.9352    1.0692    0.6872 H   0  0  0  0  0  0  0  0  0  0  0  0
    5.4363    0.5166    1.4888 H   0  0  0  0  0  0  0  0  0  0  0  0
    5.6280    2.2415    0.8714 H   0  0  0  0  0  0  0  0  0  0  0  0
    6.1081    0.9339   -1.4504 H   0  0  0  0  0  0  0  0  0  0  0  0
    4.9641   -1.0921   -1.7776 H   0  0  0  0  0  0  0  0  0  0  0  0
    5.7489   -1.2570   -0.1611 H   0  0  0  0  0  0  0  0  0  0  0  0
    3.4484   -1.8830   -0.3526 H   0  0  0  0  0  0  0  0  0  0  0  0
    2.4836   -0.4994   -1.7877 H   0  0  0  0  0  0  0  0  0  0  0  0
    0.8650    0.5389   -0.6736 H   0  0  0  0  0  0  0  0  0  0  0  0
    1.6592   -1.8272    0.4922 H   0  0  0  0  0  0  0  0  0  0  0  0
    2.2252    0.0318    2.1825 H   0  0  0  0  0  0  0  0  0  0  0  0
   -0.5690   -2.0293    1.2210 H   0  0  0  0  0  0  0  0  0  0  0  0
   -0.5210    0.9991    1.2363 H   0  0  0  0  0  0  0  0  0  0  0  0
   -1.6206   -1.1792    2.7353 H   0  0  0  0  0  0  0  0  0  0  0  0
   -3.0103   -0.7186    0.8307 H   0  0  0  0  0  0  0  0  0  0  0  0
   -3.7127    0.6774    2.4994 H   0  0  0  0  0  0  0  0  0  0  0  0
   -2.3195    1.8198    2.3559 H   0  0  0  0  0  0  0  0  0  0  0  0
   -3.2137    3.0754    0.6447 H   0  0  0  0  0  0  0  0  0  0  0  0
   -4.5655    2.8100    1.7722 H   0  0  0  0  0  0  0  0  0  0  0  0
   -5.4976    2.2369   -0.4188 H   0  0  0  0  0  0  0  0  0  0  0  0
   -5.1009    0.6602    0.4589 H   0  0  0  0  0  0  0  0  0  0  0  0
   -4.2347    0.3265   -1.6721 H   0  0  0  0  0  0  0  0  0  0  0  0
   -3.6824    1.9897   -1.8645 H   0  0  0  0  0  0  0  0  0  0  0  0
   -1.6977    1.5421   -0.6765 H   0  0  0  0  0  0  0  0  0  0  0  0
   -0.4716    0.5782   -2.9062 H   0  0  0  0  0  0  0  0  0  0  0  0
   -3.6393   -1.8537   -1.2334 H   0  0  0  0  0  0  0  0  0  0  0  0
   -1.4879   -3.3904   -0.5487 H   0  0  0  0  0  0  0  0  0  0  0  0
    0.2704   -3.1933   -0.4078 H   0  0  0  0  0  0  0  0  0  0  0  0
   -0.4681   -2.9934   -2.0220 H   0  0  0  0  0  0  0  0  0  0  0  0
    6.4112    0.8887    0.7263 H   0  0  0  0  0  0  0  0  0  0  0  0
    5.1539    2.1939    1.0628 H   0  0  0  0  0  0  0  0  0  0  0  0
    6.4803    2.4820   -0.1120 H   0  0  0  0  0  0  0  0  0  0  0  0
    5.2951    1.4443   -1.8144 H   0  0  0  0  0  0  0  0  0  0  0  0
    4.8440   -0.6933    0.3524 H   0  0  0  0  0  0  0  0  0  0  0  0
    5.7471   -0.7751   -1.2138 H   0  0  0  0  0  0  0  0  0  0  0  0
    3.8277   -0.5040   -2.4381 H   0  0  0  0  0  0  0  0  0  0  0  0
    1.8363    0.0014   -1.7449 H   0  0  0  0  0  0  0  0  0  0  0  0
    2.8330   -1.2398    0.7608 H   0  0  0  0  0  0  0  0  0  0  0  0
    0.8315   -1.1685    1.7766 H   0  0  0  0  0  0  0  0  0  0  0  0
    1.3123    0.7263    2.5151 H   0  0  0  0  0  0  0  0  0  0  0  0
   -1.2941    0.6062   -1.4857 H   0  0  0  0  0  0  0  0  0  0  0  0
   -0.2270    2.3880   -1.1768 H   0  0  0  0  0  0  0  0  0  0  0  0
   -1.6125    1.0943    1.5261 H   0  0  0  0  0  0  0  0  0  0  0  0
   -2.3250    3.0615    0.5508 H   0  0  0  0  0  0  0  0  0  0  0  0
   -2.3586    2.4367   -1.0987 H   0  0  0  0  0  0  0  0  0  0  0  0
   -4.5696    2.7960   -0.8808 H   0  0  0  0  0  0  0  0  0  0  0  0
   -4.5322    2.7628    0.8908 H   0  0  0  0  0  0  0  0  0  0  0  0
   -4.9938    0.5079   -1.0905 H   0  0  0  0  0  0  0  0  0  0  0  0
   -5.8572    1.0163    0.3689 H   0  0  0  0  0  0  0  0  0  0  0  0
   -4.7025   -1.0195    0.9839 H   0  0  0  0  0  0  0  0  0  0  0  0
   -4.0239    0.3873    1.8293 H   0  0  0  0  0  0  0  0  0  0  0  0
   -2.8800   -0.1952   -0.8302 H   0  0  0  0  0  0  0  0  0  0  0  0
   -2.8145   -2.8108    0.2377 H   0  0  0  0  0  0  0  0  0  0  0  0
   -0.3639   -3.2501    1.8704 H   0  0  0  0  0  0  0  0  0  0  0  0
   -1.2991   -0.6718    3.0384 H   0  0  0  0  0  0  0  0  0  0  0  0
   -0.3503   -1.0669   -2.4877 H   0  0  0  0  0  0  0  0  0  0  0  0
   -1.7369   -1.9848   -1.8677 H   0  0  0  0  0  0  0  0  0  0  0  0
   -0.2217   -2.8296   -2.1899 H   0  0  0  0  0  0  0  0  0  0  0  0
  1  2  1  0
  2  3  1  0
  2  4  1  0
  4  5  1  0
  3  6  1  0
  5  6  1  0
  6  7  1  0
  7  8  1  0
  8  9  1  0
  8 10  1  0
 10 11  1  0
 11 12  1  0
 11 13  1  0
 13 14  1  0
 14 15  1  0
 15 16  1  0
 16 17  1  0
 13 18  1  0
 17 18  1  0
 18 19  1  0
 19 20  1  0
 19 21  1  0
 10 22  1  0
 19 22  1  0
 22 23  1  0
 24 25  1  0
 25 26  1  0
 25 27  1  0
 27 28  1  0
 26 29  1  0
 28 29  1  0
 29 30  1  0
 30 31  1  0
 31 32  1  0
 31 33  1  0
 33 34  1  0
 34 35  1  0
 34 36  1  0
 36 37  1  0
 37 38  1  0
 38 39  1  0
 39 40  1  0
 36 41  1  0
 40 41  1  0
 41 42  1  0
 42 33  1  0
 42 43  1  0
 42 44  1  0
 33 45  1  6
 42 45  1  0
 45 46  1  0
  1 47  1  0
  1 48  1  0
  1 49  1  0
  2 50  1  0
  4 51  1  0
  4 52  1  0
  5 53  1  0
  6 54  1  0
  7 55  1  0
  8 56  1  6
  9 57  1  0
 10 58  1  1
 11 59  1  1
 12 60  1  0
 13 61  1  6
 14 62  1  0
 14 63  1  0
 15 64  1  0
 15 65  1  0
 16 66  1  0
 16 67  1  0
 17 68  1  0
 17 69  1  0
 18 70  1  1
 20 71  1  0
 21 72  1  0
 23 73  1  0
 23 74  1  0
 23 75  1  0
 24 76  1  0
 24 77  1  0
 24 78  1  0
 25 79  1  0
 27 80  1  0
 27 81  1  0
 28 82  1  0
 29 83  1  6
 30 84  1  0
 31 85  1  1
 32 86  1  0
 34 87  1  6
 35 88  1  0
 36 89  1  1
 37 90  1  0
 37 91  1  0
 38 92  1  0
 38 93  1  0
 39 94  1  0
 39 95  1  0
 40 96  1  0
 40 97  1  0
 41 98  1  6
 42 99  1  0
 43100  1  0
 44101  1  0
 46102  1  0
 46103  1  0
 46104  1  0
M  END
>  <PDBID>  (1) 
4O1Z

>  <PDB ID>  (1) 
4O1Z

>  <Generic Name>  (1) 
Meloxicam

>  <Brand Name>  (1) 
Act Meloxicam#Apo-meloxicam#Auro-meloxicam#Ava-meloxicam#Comfort Pac With Meloxicam#Dom-meloxicam#Meloxicam#Mobic#Mobicox#Mylan-meloxicam#Nu-meloxicam#PHL-meloxicam#PMS-meloxicam#Ratio-meloxicam#Teva-meloxicam#Trepoxicam-7.5#Vivlodex#Achefree#Acticam#Aflamid#Afloxx#Aglan#Ainecox#Aldoron#Alentum#Algiflex#Aliviodol#Anaxicam#Anposel#Antrend#Aponip#Areloger#Aremil#Armex#Arrox#Arsitec#Artex#Arthrobic#Arthrox#Articam#Artipro#Artriclox#Artrifilm#Artriflam#Artrilom#Artrilox#Artrox#Aspicam#Atiflam#Atrozan#Auroxicam#Axius

>  <DrugBank ID>  (1) 
DB00814

>  <ATC Codes>  (1) 
M01AC56#M01AC06

>  <Ligand ID>  (1) 
MXM

>  <Target Name>  (1) 
Prostaglandin G/H synthase 2

>  <UniProt ID>  (1) 
P35354

>  <PDB ID.1>  (1) 
4O1Z

>  <Seq. Identity>  (1) 
61%

$$$$
