PDB_DB01095_08
     RDKit          3D

296304  0  0  0  0  0  0  0  0999 V2000
   -2.3297    0.0589    1.3804 C   0  0  0  0  0  0  0  0  0  0  0  0
   -1.9962   -1.3996    1.0330 C   0  0  0  0  0  0  0  0  0  0  0  0
   -1.9476   -2.1075    2.3414 C   0  0  0  0  0  0  0  0  0  0  0  0
   -3.3432   -2.0669    2.9440 C   0  0  0  0  0  0  0  0  0  0  0  0
   -3.9486   -0.7060    2.9866 C   0  0  0  0  0  0  0  0  0  0  0  0
   -3.7827    0.0886    1.6988 C   0  0  0  0  0  0  0  0  0  0  0  0
   -1.7424    0.8950    0.3874 C   0  0  0  0  0  0  0  0  0  0  0  0
   -0.6119    0.0298   -0.2091 C   0  0  0  0  0  0  0  0  0  0  0  0
   -0.7959   -1.2767    0.2979 N   0  0  0  0  0  0  0  0  0  0  0  0
   -3.4085    1.8023   -2.8848 C   0  0  0  0  0  0  0  0  0  0  0  0
   -3.2769    0.8830   -1.6510 C   0  0  0  0  0  0  0  0  0  0  0  0
   -2.4427    1.6002   -0.6697 C   0  0  0  0  0  0  0  0  0  0  0  0
   -3.2552    2.8031   -0.1825 C   0  0  0  0  0  0  0  0  0  0  0  0
   -3.3043    3.7729   -1.3447 C   0  0  0  0  0  0  0  0  0  0  0  0
   -4.0033    3.1281   -2.5393 C   0  0  0  0  0  0  0  0  0  0  0  0
   -3.8067    3.9673   -3.6177 F   0  0  0  0  0  0  0  0  0  0  0  0
    7.4683   -0.8753    1.3252 O   0  0  0  0  0  0  0  0  0  0  0  0
    6.5239   -1.8536   -0.5516 O   0  0  0  0  0  0  0  0  0  0  0  0
    5.5565    1.0020    1.3611 O   0  0  0  0  0  0  0  0  0  0  0  0
    7.3286   -0.8482   -0.0693 C   0  0  0  0  0  0  0  0  0  0  0  0
    6.8722    0.4854   -0.5718 C   0  0  0  0  0  0  0  0  0  0  0  0
    5.5480    0.9022   -0.0186 C   0  0  1  0  0  0  0  0  0  0  0  0
    4.3938    0.0304   -0.4667 C   0  0  0  0  0  0  0  0  0  0  0  0
    3.1249    0.7124    0.0245 C   0  0  1  0  0  0  0  0  0  0  0  0
    1.8984   -0.1060   -0.3890 C   0  0  0  0  0  0  0  0  0  0  0  0
    0.7104    0.6357    0.1239 C   0  0  0  0  0  0  0  0  0  0  0  0
   -0.5450   -2.3080   -0.6446 C   0  0  0  0  0  0  0  0  0  0  0  0
   -1.5407   -2.4745   -1.7485 C   0  0  0  0  0  0  0  0  0  0  0  0
   -0.3045   -3.6300    0.0917 C   0  0  0  0  0  0  0  0  0  0  0  0
    3.1230    0.7339    1.4102 O   0  0  0  0  0  0  0  0  0  0  0  0
   -2.3297    0.0589    1.3804 C   0  0  0  0  0  0  0  0  0  0  0  0
   -1.9962   -1.3996    1.0330 C   0  0  0  0  0  0  0  0  0  0  0  0
   -1.9476   -2.1075    2.3414 C   0  0  0  0  0  0  0  0  0  0  0  0
   -3.3432   -2.0669    2.9440 C   0  0  0  0  0  0  0  0  0  0  0  0
   -3.9486   -0.7060    2.9866 C   0  0  0  0  0  0  0  0  0  0  0  0
   -3.7827    0.0886    1.6988 C   0  0  0  0  0  0  0  0  0  0  0  0
   -1.7424    0.8950    0.3874 C   0  0  0  0  0  0  0  0  0  0  0  0
   -0.6119    0.0298   -0.2091 C   0  0  0  0  0  0  0  0  0  0  0  0
   -0.7959   -1.2767    0.2979 N   0  0  0  0  0  0  0  0  0  0  0  0
   -3.4085    1.8023   -2.8848 C   0  0  0  0  0  0  0  0  0  0  0  0
   -3.2769    0.8830   -1.6510 C   0  0  0  0  0  0  0  0  0  0  0  0
   -2.4427    1.6002   -0.6697 C   0  0  0  0  0  0  0  0  0  0  0  0
   -3.2552    2.8031   -0.1825 C   0  0  0  0  0  0  0  0  0  0  0  0
   -3.3043    3.7729   -1.3447 C   0  0  0  0  0  0  0  0  0  0  0  0
   -4.0033    3.1281   -2.5393 C   0  0  0  0  0  0  0  0  0  0  0  0
   -3.8067    3.9673   -3.6177 F   0  0  0  0  0  0  0  0  0  0  0  0
    7.4683   -0.8753    1.3252 O   0  0  0  0  0  0  0  0  0  0  0  0
    6.5239   -1.8536   -0.5516 O   0  0  0  0  0  0  0  0  0  0  0  0
    5.5565    1.0020    1.3611 O   0  0  0  0  0  0  0  0  0  0  0  0
    7.3286   -0.8482   -0.0693 C   0  0  0  0  0  0  0  0  0  0  0  0
    6.8722    0.4854   -0.5718 C   0  0  0  0  0  0  0  0  0  0  0  0
    5.5480    0.9022   -0.0186 C   0  0  1  0  0  0  0  0  0  0  0  0
    4.3938    0.0304   -0.4667 C   0  0  0  0  0  0  0  0  0  0  0  0
    3.1249    0.7124    0.0245 C   0  0  1  0  0  0  0  0  0  0  0  0
    1.8984   -0.1060   -0.3890 C   0  0  0  0  0  0  0  0  0  0  0  0
    0.7104    0.6357    0.1239 C   0  0  0  0  0  0  0  0  0  0  0  0
   -0.5450   -2.3080   -0.6446 C   0  0  0  0  0  0  0  0  0  0  0  0
   -1.5407   -2.4745   -1.7485 C   0  0  0  0  0  0  0  0  0  0  0  0
   -0.3045   -3.6300    0.0917 C   0  0  0  0  0  0  0  0  0  0  0  0
    3.1230    0.7339    1.4102 O   0  0  0  0  0  0  0  0  0  0  0  0
   -2.3297    0.0589    1.3804 C   0  0  0  0  0  0  0  0  0  0  0  0
   -1.9962   -1.3996    1.0330 C   0  0  0  0  0  0  0  0  0  0  0  0
   -1.9476   -2.1075    2.3414 C   0  0  0  0  0  0  0  0  0  0  0  0
   -3.3432   -2.0669    2.9440 C   0  0  0  0  0  0  0  0  0  0  0  0
   -3.9486   -0.7060    2.9866 C   0  0  0  0  0  0  0  0  0  0  0  0
   -3.7827    0.0886    1.6988 C   0  0  0  0  0  0  0  0  0  0  0  0
   -1.7424    0.8950    0.3874 C   0  0  0  0  0  0  0  0  0  0  0  0
   -0.6119    0.0298   -0.2091 C   0  0  0  0  0  0  0  0  0  0  0  0
   -0.7959   -1.2767    0.2979 N   0  0  0  0  0  0  0  0  0  0  0  0
   -3.4085    1.8023   -2.8848 C   0  0  0  0  0  0  0  0  0  0  0  0
   -3.2769    0.8830   -1.6510 C   0  0  0  0  0  0  0  0  0  0  0  0
   -2.4427    1.6002   -0.6697 C   0  0  0  0  0  0  0  0  0  0  0  0
   -3.2552    2.8031   -0.1825 C   0  0  0  0  0  0  0  0  0  0  0  0
   -3.3043    3.7729   -1.3447 C   0  0  0  0  0  0  0  0  0  0  0  0
   -4.0033    3.1281   -2.5393 C   0  0  0  0  0  0  0  0  0  0  0  0
   -3.8067    3.9673   -3.6177 F   0  0  0  0  0  0  0  0  0  0  0  0
    7.4683   -0.8753    1.3252 O   0  0  0  0  0  0  0  0  0  0  0  0
    6.5239   -1.8536   -0.5516 O   0  0  0  0  0  0  0  0  0  0  0  0
    5.5565    1.0020    1.3611 O   0  0  0  0  0  0  0  0  0  0  0  0
    7.3286   -0.8482   -0.0693 C   0  0  0  0  0  0  0  0  0  0  0  0
    6.8722    0.4854   -0.5718 C   0  0  0  0  0  0  0  0  0  0  0  0
    5.5480    0.9022   -0.0186 C   0  0  1  0  0  0  0  0  0  0  0  0
    4.3938    0.0304   -0.4667 C   0  0  0  0  0  0  0  0  0  0  0  0
    3.1249    0.7124    0.0245 C   0  0  1  0  0  0  0  0  0  0  0  0
    1.8984   -0.1060   -0.3890 C   0  0  0  0  0  0  0  0  0  0  0  0
    0.7104    0.6357    0.1239 C   0  0  0  0  0  0  0  0  0  0  0  0
   -0.5450   -2.3080   -0.6446 C   0  0  0  0  0  0  0  0  0  0  0  0
   -1.5407   -2.4745   -1.7485 C   0  0  0  0  0  0  0  0  0  0  0  0
   -0.3045   -3.6300    0.0917 C   0  0  0  0  0  0  0  0  0  0  0  0
    3.1230    0.7339    1.4102 O   0  0  0  0  0  0  0  0  0  0  0  0
   -2.3297    0.0589    1.3804 C   0  0  0  0  0  0  0  0  0  0  0  0
   -1.9962   -1.3996    1.0330 C   0  0  0  0  0  0  0  0  0  0  0  0
   -1.9476   -2.1075    2.3414 C   0  0  0  0  0  0  0  0  0  0  0  0
   -3.3432   -2.0669    2.9440 C   0  0  0  0  0  0  0  0  0  0  0  0
   -3.9486   -0.7060    2.9866 C   0  0  0  0  0  0  0  0  0  0  0  0
   -3.7827    0.0886    1.6988 C   0  0  0  0  0  0  0  0  0  0  0  0
   -1.7424    0.8950    0.3874 C   0  0  0  0  0  0  0  0  0  0  0  0
   -0.6119    0.0298   -0.2091 C   0  0  0  0  0  0  0  0  0  0  0  0
   -0.7959   -1.2767    0.2979 N   0  0  0  0  0  0  0  0  0  0  0  0
   -3.4085    1.8023   -2.8848 C   0  0  0  0  0  0  0  0  0  0  0  0
   -3.2769    0.8830   -1.6510 C   0  0  0  0  0  0  0  0  0  0  0  0
   -2.4427    1.6002   -0.6697 C   0  0  0  0  0  0  0  0  0  0  0  0
   -3.2552    2.8031   -0.1825 C   0  0  0  0  0  0  0  0  0  0  0  0
   -3.3043    3.7729   -1.3447 C   0  0  0  0  0  0  0  0  0  0  0  0
   -4.0033    3.1281   -2.5393 C   0  0  0  0  0  0  0  0  0  0  0  0
   -3.8067    3.9673   -3.6177 F   0  0  0  0  0  0  0  0  0  0  0  0
    7.4683   -0.8753    1.3252 O   0  0  0  0  0  0  0  0  0  0  0  0
    6.5239   -1.8536   -0.5516 O   0  0  0  0  0  0  0  0  0  0  0  0
    5.5565    1.0020    1.3611 O   0  0  0  0  0  0  0  0  0  0  0  0
    7.3286   -0.8482   -0.0693 C   0  0  0  0  0  0  0  0  0  0  0  0
    6.8722    0.4854   -0.5718 C   0  0  0  0  0  0  0  0  0  0  0  0
    5.5480    0.9022   -0.0186 C   0  0  1  0  0  0  0  0  0  0  0  0
    4.3938    0.0304   -0.4667 C   0  0  0  0  0  0  0  0  0  0  0  0
    3.1249    0.7124    0.0245 C   0  0  1  0  0  0  0  0  0  0  0  0
    1.8984   -0.1060   -0.3890 C   0  0  0  0  0  0  0  0  0  0  0  0
    0.7104    0.6357    0.1239 C   0  0  0  0  0  0  0  0  0  0  0  0
   -0.5450   -2.3080   -0.6446 C   0  0  0  0  0  0  0  0  0  0  0  0
   -1.5407   -2.4745   -1.7485 C   0  0  0  0  0  0  0  0  0  0  0  0
   -0.3045   -3.6300    0.0917 C   0  0  0  0  0  0  0  0  0  0  0  0
    3.1230    0.7339    1.4102 O   0  0  0  0  0  0  0  0  0  0  0  0
   -1.8183    0.2314    2.3815 H   0  0  0  0  0  0  0  0  0  0  0  0
   -2.8536   -1.7285    0.3946 H   0  0  0  0  0  0  0  0  0  0  0  0
   -1.2894   -1.5121    3.0206 H   0  0  0  0  0  0  0  0  0  0  0  0
   -1.6015   -3.1279    2.3574 H   0  0  0  0  0  0  0  0  0  0  0  0
   -3.2074   -2.3963    4.0120 H   0  0  0  0  0  0  0  0  0  0  0  0
   -4.0094   -2.8224    2.4735 H   0  0  0  0  0  0  0  0  0  0  0  0
   -5.0564   -0.8443    3.1124 H   0  0  0  0  0  0  0  0  0  0  0  0
   -3.5949   -0.1316    3.8657 H   0  0  0  0  0  0  0  0  0  0  0  0
   -4.1296    1.1214    1.9481 H   0  0  0  0  0  0  0  0  0  0  0  0
   -4.4328   -0.4117    0.9592 H   0  0  0  0  0  0  0  0  0  0  0  0
   -1.1572    1.7313    0.9357 H   0  0  0  0  0  0  0  0  0  0  0  0
   -0.7006    0.0065   -1.3235 H   0  0  0  0  0  0  0  0  0  0  0  0
   -4.1159    1.2754   -3.5606 H   0  0  0  0  0  0  0  0  0  0  0  0
   -2.4271    1.9380   -3.3809 H   0  0  0  0  0  0  0  0  0  0  0  0
   -4.3349    0.7327   -1.3354 H   0  0  0  0  0  0  0  0  0  0  0  0
   -2.9283   -0.0722   -2.0266 H   0  0  0  0  0  0  0  0  0  0  0  0
   -1.6128    2.0819   -1.2913 H   0  0  0  0  0  0  0  0  0  0  0  0
   -4.3148    2.4988   -0.0020 H   0  0  0  0  0  0  0  0  0  0  0  0
   -2.7886    3.3146    0.6576 H   0  0  0  0  0  0  0  0  0  0  0  0
   -2.2467    3.9497   -1.6576 H   0  0  0  0  0  0  0  0  0  0  0  0
   -3.8053    4.7101   -1.1276 H   0  0  0  0  0  0  0  0  0  0  0  0
   -5.0675    3.0906   -2.3076 H   0  0  0  0  0  0  0  0  0  0  0  0
    6.6093   -1.0615    1.7847 H   0  0  0  0  0  0  0  0  0  0  0  0
    6.9675   -2.5112   -1.1253 H   0  0  0  0  0  0  0  0  0  0  0  0
    5.1587    1.8609    1.6220 H   0  0  0  0  0  0  0  0  0  0  0  0
    8.3653   -1.0194   -0.4840 H   0  0  0  0  0  0  0  0  0  0  0  0
    7.6015    1.2875   -0.2892 H   0  0  0  0  0  0  0  0  0  0  0  0
    6.7830    0.4006   -1.6786 H   0  0  0  0  0  0  0  0  0  0  0  0
    5.3245    1.9253   -0.4551 H   0  0  0  0  0  0  0  0  0  0  0  0
    4.4247   -0.9849   -0.0372 H   0  0  0  0  0  0  0  0  0  0  0  0
    4.3614   -0.0196   -1.5708 H   0  0  0  0  0  0  0  0  0  0  0  0
    2.9997    1.7181   -0.3810 H   0  0  0  0  0  0  0  0  0  0  0  0
    1.9792   -1.1000    0.1177 H   0  0  0  0  0  0  0  0  0  0  0  0
    1.8423   -0.2576   -1.4775 H   0  0  0  0  0  0  0  0  0  0  0  0
    0.7687    0.6730    1.2391 H   0  0  0  0  0  0  0  0  0  0  0  0
    0.7153    1.6831   -0.2857 H   0  0  0  0  0  0  0  0  0  0  0  0
    0.4386   -2.1437   -1.1818 H   0  0  0  0  0  0  0  0  0  0  0  0
   -1.2709   -1.7499   -2.5633 H   0  0  0  0  0  0  0  0  0  0  0  0
   -2.5891   -2.4327   -1.4736 H   0  0  0  0  0  0  0  0  0  0  0  0
   -1.3697   -3.4799   -2.2007 H   0  0  0  0  0  0  0  0  0  0  0  0
   -1.2230   -4.1837    0.2685 H   0  0  0  0  0  0  0  0  0  0  0  0
    0.3532   -4.2909   -0.5484 H   0  0  0  0  0  0  0  0  0  0  0  0
    0.3135   -3.3919    0.9672 H   0  0  0  0  0  0  0  0  0  0  0  0
    2.7770    1.5637    1.8008 H   0  0  0  0  0  0  0  0  0  0  0  0
   -1.8183    0.2314    2.3815 H   0  0  0  0  0  0  0  0  0  0  0  0
   -2.8536   -1.7285    0.3946 H   0  0  0  0  0  0  0  0  0  0  0  0
   -1.2894   -1.5121    3.0206 H   0  0  0  0  0  0  0  0  0  0  0  0
   -1.6015   -3.1279    2.3574 H   0  0  0  0  0  0  0  0  0  0  0  0
   -3.2074   -2.3963    4.0120 H   0  0  0  0  0  0  0  0  0  0  0  0
   -4.0094   -2.8224    2.4735 H   0  0  0  0  0  0  0  0  0  0  0  0
   -5.0564   -0.8443    3.1124 H   0  0  0  0  0  0  0  0  0  0  0  0
   -3.5949   -0.1316    3.8657 H   0  0  0  0  0  0  0  0  0  0  0  0
   -4.1296    1.1214    1.9481 H   0  0  0  0  0  0  0  0  0  0  0  0
   -4.4328   -0.4117    0.9592 H   0  0  0  0  0  0  0  0  0  0  0  0
   -1.1572    1.7313    0.9357 H   0  0  0  0  0  0  0  0  0  0  0  0
   -0.7006    0.0065   -1.3235 H   0  0  0  0  0  0  0  0  0  0  0  0
   -4.1159    1.2754   -3.5606 H   0  0  0  0  0  0  0  0  0  0  0  0
   -2.4271    1.9380   -3.3809 H   0  0  0  0  0  0  0  0  0  0  0  0
   -4.3349    0.7327   -1.3354 H   0  0  0  0  0  0  0  0  0  0  0  0
   -2.9283   -0.0722   -2.0266 H   0  0  0  0  0  0  0  0  0  0  0  0
   -1.6128    2.0819   -1.2913 H   0  0  0  0  0  0  0  0  0  0  0  0
   -4.3148    2.4988   -0.0020 H   0  0  0  0  0  0  0  0  0  0  0  0
   -2.7886    3.3146    0.6576 H   0  0  0  0  0  0  0  0  0  0  0  0
   -2.2467    3.9497   -1.6576 H   0  0  0  0  0  0  0  0  0  0  0  0
   -3.8053    4.7101   -1.1276 H   0  0  0  0  0  0  0  0  0  0  0  0
   -5.0675    3.0906   -2.3076 H   0  0  0  0  0  0  0  0  0  0  0  0
    6.6093   -1.0615    1.7847 H   0  0  0  0  0  0  0  0  0  0  0  0
    6.9675   -2.5112   -1.1253 H   0  0  0  0  0  0  0  0  0  0  0  0
    5.1587    1.8609    1.6220 H   0  0  0  0  0  0  0  0  0  0  0  0
    8.3653   -1.0194   -0.4840 H   0  0  0  0  0  0  0  0  0  0  0  0
    7.6015    1.2875   -0.2892 H   0  0  0  0  0  0  0  0  0  0  0  0
    6.7830    0.4006   -1.6786 H   0  0  0  0  0  0  0  0  0  0  0  0
    5.3245    1.9253   -0.4551 H   0  0  0  0  0  0  0  0  0  0  0  0
    4.4247   -0.9849   -0.0372 H   0  0  0  0  0  0  0  0  0  0  0  0
    4.3614   -0.0196   -1.5708 H   0  0  0  0  0  0  0  0  0  0  0  0
    2.9997    1.7181   -0.3810 H   0  0  0  0  0  0  0  0  0  0  0  0
    1.9792   -1.1000    0.1177 H   0  0  0  0  0  0  0  0  0  0  0  0
    1.8423   -0.2576   -1.4775 H   0  0  0  0  0  0  0  0  0  0  0  0
    0.7687    0.6730    1.2391 H   0  0  0  0  0  0  0  0  0  0  0  0
    0.7153    1.6831   -0.2857 H   0  0  0  0  0  0  0  0  0  0  0  0
    0.4386   -2.1437   -1.1818 H   0  0  0  0  0  0  0  0  0  0  0  0
   -1.2709   -1.7499   -2.5633 H   0  0  0  0  0  0  0  0  0  0  0  0
   -2.5891   -2.4327   -1.4736 H   0  0  0  0  0  0  0  0  0  0  0  0
   -1.3697   -3.4799   -2.2007 H   0  0  0  0  0  0  0  0  0  0  0  0
   -1.2230   -4.1837    0.2685 H   0  0  0  0  0  0  0  0  0  0  0  0
    0.3532   -4.2909   -0.5484 H   0  0  0  0  0  0  0  0  0  0  0  0
    0.3135   -3.3919    0.9672 H   0  0  0  0  0  0  0  0  0  0  0  0
    2.7770    1.5637    1.8008 H   0  0  0  0  0  0  0  0  0  0  0  0
   -1.8183    0.2314    2.3815 H   0  0  0  0  0  0  0  0  0  0  0  0
   -2.8536   -1.7285    0.3946 H   0  0  0  0  0  0  0  0  0  0  0  0
   -1.2894   -1.5121    3.0206 H   0  0  0  0  0  0  0  0  0  0  0  0
   -1.6015   -3.1279    2.3574 H   0  0  0  0  0  0  0  0  0  0  0  0
   -3.2074   -2.3963    4.0120 H   0  0  0  0  0  0  0  0  0  0  0  0
   -4.0094   -2.8224    2.4735 H   0  0  0  0  0  0  0  0  0  0  0  0
   -5.0564   -0.8443    3.1124 H   0  0  0  0  0  0  0  0  0  0  0  0
   -3.5949   -0.1316    3.8657 H   0  0  0  0  0  0  0  0  0  0  0  0
   -4.1296    1.1214    1.9481 H   0  0  0  0  0  0  0  0  0  0  0  0
   -4.4328   -0.4117    0.9592 H   0  0  0  0  0  0  0  0  0  0  0  0
   -1.1572    1.7313    0.9357 H   0  0  0  0  0  0  0  0  0  0  0  0
   -0.7006    0.0065   -1.3235 H   0  0  0  0  0  0  0  0  0  0  0  0
   -4.1159    1.2754   -3.5606 H   0  0  0  0  0  0  0  0  0  0  0  0
   -2.4271    1.9380   -3.3809 H   0  0  0  0  0  0  0  0  0  0  0  0
   -4.3349    0.7327   -1.3354 H   0  0  0  0  0  0  0  0  0  0  0  0
   -2.9283   -0.0722   -2.0266 H   0  0  0  0  0  0  0  0  0  0  0  0
   -1.6128    2.0819   -1.2913 H   0  0  0  0  0  0  0  0  0  0  0  0
   -4.3148    2.4988   -0.0020 H   0  0  0  0  0  0  0  0  0  0  0  0
   -2.7886    3.3146    0.6576 H   0  0  0  0  0  0  0  0  0  0  0  0
   -2.2467    3.9497   -1.6576 H   0  0  0  0  0  0  0  0  0  0  0  0
   -3.8053    4.7101   -1.1276 H   0  0  0  0  0  0  0  0  0  0  0  0
   -5.0675    3.0906   -2.3076 H   0  0  0  0  0  0  0  0  0  0  0  0
    6.6093   -1.0615    1.7847 H   0  0  0  0  0  0  0  0  0  0  0  0
    6.9675   -2.5112   -1.1253 H   0  0  0  0  0  0  0  0  0  0  0  0
    5.1587    1.8609    1.6220 H   0  0  0  0  0  0  0  0  0  0  0  0
    8.3653   -1.0194   -0.4840 H   0  0  0  0  0  0  0  0  0  0  0  0
    7.6015    1.2875   -0.2892 H   0  0  0  0  0  0  0  0  0  0  0  0
    6.7830    0.4006   -1.6786 H   0  0  0  0  0  0  0  0  0  0  0  0
    5.3245    1.9253   -0.4551 H   0  0  0  0  0  0  0  0  0  0  0  0
    4.4247   -0.9849   -0.0372 H   0  0  0  0  0  0  0  0  0  0  0  0
    4.3614   -0.0196   -1.5708 H   0  0  0  0  0  0  0  0  0  0  0  0
    2.9997    1.7181   -0.3810 H   0  0  0  0  0  0  0  0  0  0  0  0
    1.9792   -1.1000    0.1177 H   0  0  0  0  0  0  0  0  0  0  0  0
    1.8423   -0.2576   -1.4775 H   0  0  0  0  0  0  0  0  0  0  0  0
    0.7687    0.6730    1.2391 H   0  0  0  0  0  0  0  0  0  0  0  0
    0.7153    1.6831   -0.2857 H   0  0  0  0  0  0  0  0  0  0  0  0
    0.4386   -2.1437   -1.1818 H   0  0  0  0  0  0  0  0  0  0  0  0
   -1.2709   -1.7499   -2.5633 H   0  0  0  0  0  0  0  0  0  0  0  0
   -2.5891   -2.4327   -1.4736 H   0  0  0  0  0  0  0  0  0  0  0  0
   -1.3697   -3.4799   -2.2007 H   0  0  0  0  0  0  0  0  0  0  0  0
   -1.2230   -4.1837    0.2685 H   0  0  0  0  0  0  0  0  0  0  0  0
    0.3532   -4.2909   -0.5484 H   0  0  0  0  0  0  0  0  0  0  0  0
    0.3135   -3.3919    0.9672 H   0  0  0  0  0  0  0  0  0  0  0  0
    2.7770    1.5637    1.8008 H   0  0  0  0  0  0  0  0  0  0  0  0
   -1.8183    0.2314    2.3815 H   0  0  0  0  0  0  0  0  0  0  0  0
   -2.8536   -1.7285    0.3946 H   0  0  0  0  0  0  0  0  0  0  0  0
   -1.2894   -1.5121    3.0206 H   0  0  0  0  0  0  0  0  0  0  0  0
   -1.6015   -3.1279    2.3574 H   0  0  0  0  0  0  0  0  0  0  0  0
   -3.2074   -2.3963    4.0120 H   0  0  0  0  0  0  0  0  0  0  0  0
   -4.0094   -2.8224    2.4735 H   0  0  0  0  0  0  0  0  0  0  0  0
   -5.0564   -0.8443    3.1124 H   0  0  0  0  0  0  0  0  0  0  0  0
   -3.5949   -0.1316    3.8657 H   0  0  0  0  0  0  0  0  0  0  0  0
   -4.1296    1.1214    1.9481 H   0  0  0  0  0  0  0  0  0  0  0  0
   -4.4328   -0.4117    0.9592 H   0  0  0  0  0  0  0  0  0  0  0  0
   -1.1572    1.7313    0.9357 H   0  0  0  0  0  0  0  0  0  0  0  0
   -0.7006    0.0065   -1.3235 H   0  0  0  0  0  0  0  0  0  0  0  0
   -4.1159    1.2754   -3.5606 H   0  0  0  0  0  0  0  0  0  0  0  0
   -2.4271    1.9380   -3.3809 H   0  0  0  0  0  0  0  0  0  0  0  0
   -4.3349    0.7327   -1.3354 H   0  0  0  0  0  0  0  0  0  0  0  0
   -2.9283   -0.0722   -2.0266 H   0  0  0  0  0  0  0  0  0  0  0  0
   -1.6128    2.0819   -1.2913 H   0  0  0  0  0  0  0  0  0  0  0  0
   -4.3148    2.4988   -0.0020 H   0  0  0  0  0  0  0  0  0  0  0  0
   -2.7886    3.3146    0.6576 H   0  0  0  0  0  0  0  0  0  0  0  0
   -2.2467    3.9497   -1.6576 H   0  0  0  0  0  0  0  0  0  0  0  0
   -3.8053    4.7101   -1.1276 H   0  0  0  0  0  0  0  0  0  0  0  0
   -5.0675    3.0906   -2.3076 H   0  0  0  0  0  0  0  0  0  0  0  0
    6.6093   -1.0615    1.7847 H   0  0  0  0  0  0  0  0  0  0  0  0
    6.9675   -2.5112   -1.1253 H   0  0  0  0  0  0  0  0  0  0  0  0
    5.1587    1.8609    1.6220 H   0  0  0  0  0  0  0  0  0  0  0  0
    8.3653   -1.0194   -0.4840 H   0  0  0  0  0  0  0  0  0  0  0  0
    7.6015    1.2875   -0.2892 H   0  0  0  0  0  0  0  0  0  0  0  0
    6.7830    0.4006   -1.6786 H   0  0  0  0  0  0  0  0  0  0  0  0
    5.3245    1.9253   -0.4551 H   0  0  0  0  0  0  0  0  0  0  0  0
    4.4247   -0.9849   -0.0372 H   0  0  0  0  0  0  0  0  0  0  0  0
    4.3614   -0.0196   -1.5708 H   0  0  0  0  0  0  0  0  0  0  0  0
    2.9997    1.7181   -0.3810 H   0  0  0  0  0  0  0  0  0  0  0  0
    1.9792   -1.1000    0.1177 H   0  0  0  0  0  0  0  0  0  0  0  0
    1.8423   -0.2576   -1.4775 H   0  0  0  0  0  0  0  0  0  0  0  0
    0.7687    0.6730    1.2391 H   0  0  0  0  0  0  0  0  0  0  0  0
    0.7153    1.6831   -0.2857 H   0  0  0  0  0  0  0  0  0  0  0  0
    0.4386   -2.1437   -1.1818 H   0  0  0  0  0  0  0  0  0  0  0  0
   -1.2709   -1.7499   -2.5633 H   0  0  0  0  0  0  0  0  0  0  0  0
   -2.5891   -2.4327   -1.4736 H   0  0  0  0  0  0  0  0  0  0  0  0
   -1.3697   -3.4799   -2.2007 H   0  0  0  0  0  0  0  0  0  0  0  0
   -1.2230   -4.1837    0.2685 H   0  0  0  0  0  0  0  0  0  0  0  0
    0.3532   -4.2909   -0.5484 H   0  0  0  0  0  0  0  0  0  0  0  0
    0.3135   -3.3919    0.9672 H   0  0  0  0  0  0  0  0  0  0  0  0
    2.7770    1.5637    1.8008 H   0  0  0  0  0  0  0  0  0  0  0  0
  1  2  1  0
  2  3  1  0
  3  4  1  0
  4  5  1  0
  1  6  1  0
  5  6  1  0
  1  7  1  0
  7  8  1  0
  2  9  1  0
  8  9  1  0
 10 11  1  0
  7 12  1  0
 11 12  1  0
 12 13  1  0
 13 14  1  0
 10 15  1  0
 14 15  1  0
 15 16  1  0
 17 20  1  0
 18 20  1  0
 20 21  1  0
 19 22  1  0
 21 22  1  0
 22 23  1  0
 23 24  1  0
 24 25  1  0
  8 26  1  0
 25 26  1  0
  9 27  1  0
 27 28  1  0
 27 29  1  0
 24 30  1  0
 31 32  1  0
 32 33  1  0
 33 34  1  0
 34 35  1  0
 31 36  1  0
 35 36  1  0
 31 37  1  0
 37 38  1  0
 32 39  1  0
 38 39  1  0
 40 41  1  0
 37 42  1  0
 41 42  1  0
 42 43  1  0
 43 44  1  0
 40 45  1  0
 44 45  1  0
 45 46  1  0
 47 50  1  0
 48 50  1  0
 50 51  1  0
 49 52  1  0
 51 52  1  0
 52 53  1  0
 53 54  1  0
 54 55  1  0
 38 56  1  0
 55 56  1  0
 39 57  1  0
 57 58  1  0
 57 59  1  0
 54 60  1  0
 61 62  1  0
 62 63  1  0
 63 64  1  0
 64 65  1  0
 61 66  1  0
 65 66  1  0
 61 67  1  0
 67 68  1  0
 62 69  1  0
 68 69  1  0
 70 71  1  0
 67 72  1  0
 71 72  1  0
 72 73  1  0
 73 74  1  0
 70 75  1  0
 74 75  1  0
 75 76  1  0
 77 80  1  0
 78 80  1  0
 80 81  1  0
 79 82  1  0
 81 82  1  0
 82 83  1  0
 83 84  1  0
 84 85  1  0
 68 86  1  0
 85 86  1  0
 69 87  1  0
 87 88  1  0
 87 89  1  0
 84 90  1  0
 91 92  1  0
 92 93  1  0
 93 94  1  0
 94 95  1  0
 91 96  1  0
 95 96  1  0
 91 97  1  0
 97 98  1  0
 92 99  1  0
 98 99  1  0
100101  1  0
 97102  1  0
101102  1  0
102103  1  0
103104  1  0
100105  1  0
104105  1  0
105106  1  0
107110  1  0
108110  1  0
110111  1  0
109112  1  0
111112  1  0
112113  1  0
113114  1  0
114115  1  0
 98116  1  0
115116  1  0
 99117  1  0
117118  1  0
117119  1  0
114120  1  0
  1121  1  0
  2122  1  0
  3123  1  0
  3124  1  0
  4125  1  0
  4126  1  0
  5127  1  0
  5128  1  0
  6129  1  0
  6130  1  0
  7131  1  0
  8132  1  0
 10133  1  0
 10134  1  0
 11135  1  0
 11136  1  0
 12137  1  0
 13138  1  0
 13139  1  0
 14140  1  0
 14141  1  0
 15142  1  0
 17143  1  0
 18144  1  0
 19145  1  0
 20146  1  0
 21147  1  0
 21148  1  0
 22149  1  6
 23150  1  0
 23151  1  0
 24152  1  6
 25153  1  0
 25154  1  0
 26155  1  0
 26156  1  0
 27157  1  0
 28158  1  0
 28159  1  0
 28160  1  0
 29161  1  0
 29162  1  0
 29163  1  0
 30164  1  0
 31165  1  0
 32166  1  0
 33167  1  0
 33168  1  0
 34169  1  0
 34170  1  0
 35171  1  0
 35172  1  0
 36173  1  0
 36174  1  0
 37175  1  0
 38176  1  0
 40177  1  0
 40178  1  0
 41179  1  0
 41180  1  0
 42181  1  0
 43182  1  0
 43183  1  0
 44184  1  0
 44185  1  0
 45186  1  0
 47187  1  0
 48188  1  0
 49189  1  0
 50190  1  0
 51191  1  0
 51192  1  0
 52193  1  6
 53194  1  0
 53195  1  0
 54196  1  6
 55197  1  0
 55198  1  0
 56199  1  0
 56200  1  0
 57201  1  0
 58202  1  0
 58203  1  0
 58204  1  0
 59205  1  0
 59206  1  0
 59207  1  0
 60208  1  0
 61209  1  0
 62210  1  0
 63211  1  0
 63212  1  0
 64213  1  0
 64214  1  0
 65215  1  0
 65216  1  0
 66217  1  0
 66218  1  0
 67219  1  0
 68220  1  0
 70221  1  0
 70222  1  0
 71223  1  0
 71224  1  0
 72225  1  0
 73226  1  0
 73227  1  0
 74228  1  0
 74229  1  0
 75230  1  0
 77231  1  0
 78232  1  0
 79233  1  0
 80234  1  0
 81235  1  0
 81236  1  0
 82237  1  6
 83238  1  0
 83239  1  0
 84240  1  6
 85241  1  0
 85242  1  0
 86243  1  0
 86244  1  0
 87245  1  0
 88246  1  0
 88247  1  0
 88248  1  0
 89249  1  0
 89250  1  0
 89251  1  0
 90252  1  0
 91253  1  0
 92254  1  0
 93255  1  0
 93256  1  0
 94257  1  0
 94258  1  0
 95259  1  0
 95260  1  0
 96261  1  0
 96262  1  0
 97263  1  0
 98264  1  0
100265  1  0
100266  1  0
101267  1  0
101268  1  0
102269  1  0
103270  1  0
103271  1  0
104272  1  0
104273  1  0
105274  1  0
107275  1  0
108276  1  0
109277  1  0
110278  1  0
111279  1  0
111280  1  0
112281  1  6
113282  1  0
113283  1  0
114284  1  6
115285  1  0
115286  1  0
116287  1  0
116288  1  0
117289  1  0
118290  1  0
118291  1  0
118292  1  0
119293  1  0
119294  1  0
119295  1  0
120296  1  0
M  END
>  <PDBID>  (1) 
1HWI

>  <PDB ID>  (1) 
1HWI

>  <Generic Name>  (1) 
Fluvastatin

>  <Brand Name>  (1) 
Fluvastatin#Fluvastatin Sodium#Fluvastatin Sodium ER#Lescol#Lescol 20mg#Lescol 40mg#Lescol XL#Sandoz Fluvastatin#Teva-fluvastatin#Canef#Cranoc

>  <DrugBank ID>  (1) 
DB01095

>  <ATC Codes>  (1) 
C10AA04

>  <Ligand ID>  (1) 
115

>  <Target Name>  (1) 
3-hydroxy-3-methylglutaryl-coenzyme A reductase

>  <UniProt ID>  (1) 
P04035

>  <PDB ID.1>  (1) 
1HWI

>  <Seq. Identity>  (1) 
97%

$$$$
