PDB_DB01026_02
     RDKit          3D

164172  0  0  0  0  0  0  0  0999 V2000
   -5.2914    2.3228   -0.5239 C   0  0  0  0  0  0  0  0  0  0  0  0
   -5.2306    1.1504   -1.2945 N   0  0  0  0  0  0  0  0  0  0  0  0
   -2.4703   -1.0033   -0.3428 O   0  0  0  0  0  0  0  0  0  0  0  0
   -8.2431   -4.0114    0.7579 Cl  0  0  0  0  0  0  0  0  0  0  0  0
   -7.3520    1.8737   -1.5179 C   0  0  0  0  0  0  0  0  0  0  0  0
   -6.7473    2.5586   -0.4206 N   0  0  0  0  0  0  0  0  0  0  0  0
   -3.6905    0.4549    0.8995 O   0  0  0  0  0  0  0  0  0  0  0  0
   -3.1280   -3.4088   -0.4827 Cl  0  0  0  0  0  0  0  0  0  0  0  0
   -6.1730    1.2831   -2.3161 C   0  0  0  0  0  0  0  0  0  0  0  0
    5.4106    1.4960    0.2123 N   0  0  0  0  0  0  0  0  0  0  0  0
    0.0673    0.2697   -0.0409 O   0  0  0  0  0  0  0  0  0  0  0  0
   -4.0724    0.4028   -1.4214 C   0  0  0  0  0  0  0  0  0  0  0  0
    7.8383    0.3481   -0.2828 N   0  0  0  0  0  0  0  0  0  0  0  0
    8.2289   -1.4877   -1.5901 O   0  0  0  0  0  0  0  0  0  0  0  0
   -3.7309   -0.3892   -0.1362 C   0  0  1  0  0  0  0  0  0  0  0  0
   -1.8094   -0.7873    0.8492 C   0  0  2  0  0  0  0  0  0  0  0  0
   -2.3702    0.5668    1.3143 C   0  0  0  0  0  0  0  0  0  0  0  0
   -4.8420   -1.4013    0.0128 C   0  0  0  0  0  0  0  0  0  0  0  0
   -4.3956   -2.7378    0.5688 C   0  0  0  0  0  0  0  0  0  0  0  0
   -5.6443   -3.6363    0.3598 C   0  0  0  0  0  0  0  0  0  0  0  0
   -6.7872   -3.1207    1.1970 C   0  0  0  0  0  0  0  0  0  0  0  0
   -7.0758   -1.6540    0.9741 C   0  0  0  0  0  0  0  0  0  0  0  0
   -5.7935   -0.8933    1.1513 C   0  0  0  0  0  0  0  0  0  0  0  0
   -0.3277   -0.7304    0.8519 C   0  0  0  0  0  0  0  0  0  0  0  0
    1.4008    0.5575    0.0857 C   0  0  0  0  0  0  0  0  0  0  0  0
    1.7031    1.9950    0.3314 C   0  0  0  0  0  0  0  0  0  0  0  0
    3.1560    2.2932    0.1447 C   0  0  0  0  0  0  0  0  0  0  0  0
    4.0556    1.0982    0.4122 C   0  0  0  0  0  0  0  0  0  0  0  0
    3.6690   -0.1356   -0.3356 C   0  0  0  0  0  0  0  0  0  0  0  0
    2.3052    0.0417   -1.0148 C   0  0  0  0  0  0  0  0  0  0  0  0
    6.2144    1.1177    1.2838 C   0  0  0  0  0  0  0  0  0  0  0  0
    7.6785    1.0077    0.9399 C   0  0  0  0  0  0  0  0  0  0  0  0
    7.1346    0.8217   -1.4124 C   0  0  0  0  0  0  0  0  0  0  0  0
    5.8468    1.5251   -1.1039 C   0  0  0  0  0  0  0  0  0  0  0  0
    8.1235   -1.0297   -0.2597 C   0  0  0  0  0  0  0  0  0  0  0  0
    9.4599   -1.3490    0.3939 C   0  0  0  0  0  0  0  0  0  0  0  0
   -5.2614    3.0567    0.5220 C   0  0  0  0  0  0  0  0  0  0  0  0
   -5.3995    1.5641    0.4040 N   0  0  0  0  0  0  0  0  0  0  0  0
   -3.0032   -0.5793   -1.2881 O   0  0  0  0  0  0  0  0  0  0  0  0
   -8.3262   -4.4040   -0.5354 Cl  0  0  0  0  0  0  0  0  0  0  0  0
   -7.4882    2.4739    0.7192 C   0  0  0  0  0  0  0  0  0  0  0  0
   -6.5004    3.4092    1.1663 N   0  0  0  0  0  0  0  0  0  0  0  0
   -3.4692   -0.5718    0.9176 O   0  0  0  0  0  0  0  0  0  0  0  0
   -3.8699   -2.5684   -2.4425 Cl  0  0  0  0  0  0  0  0  0  0  0  0
   -6.7045    1.6137   -0.2960 C   0  0  0  0  0  0  0  0  0  0  0  0
    5.5318    1.4121   -0.0989 N   0  0  0  0  0  0  0  0  0  0  0  0
    0.3524   -0.5495   -0.1038 O   0  0  0  0  0  0  0  0  0  0  0  0
   -4.3670    1.0886   -0.4426 C   0  0  0  0  0  0  0  0  0  0  0  0
    8.2671    1.0331   -0.0485 N   0  0  0  0  0  0  0  0  0  0  0  0
    7.4241   -1.1595    0.0759 O   0  0  0  0  0  0  0  0  0  0  0  0
   -4.0184   -0.3698   -0.3145 C   0  0  1  0  0  0  0  0  0  0  0  0
   -1.8664   -0.9685   -0.6522 C   0  0  2  0  0  0  0  0  0  0  0  0
   -2.2253   -1.1271    0.8158 C   0  0  0  0  0  0  0  0  0  0  0  0
   -5.1512   -1.3083   -0.5182 C   0  0  0  0  0  0  0  0  0  0  0  0
   -4.6347   -2.7307   -0.8117 C   0  0  0  0  0  0  0  0  0  0  0  0
   -5.8407   -3.6044   -1.0502 C   0  0  0  0  0  0  0  0  0  0  0  0
   -6.8757   -3.5721    0.0168 C   0  0  0  0  0  0  0  0  0  0  0  0
   -7.2488   -2.1467    0.4047 C   0  0  0  0  0  0  0  0  0  0  0  0
   -5.9431   -1.4932    0.7933 C   0  0  0  0  0  0  0  0  0  0  0  0
   -0.7202    0.0546   -0.7455 C   0  0  0  0  0  0  0  0  0  0  0  0
    1.5016    0.2270   -0.0632 C   0  0  0  0  0  0  0  0  0  0  0  0
    2.5286   -0.3453   -1.0430 C   0  0  0  0  0  0  0  0  0  0  0  0
    3.5388    0.7423   -1.3365 C   0  0  0  0  0  0  0  0  0  0  0  0
    4.1342    1.2605   -0.0466 C   0  0  0  0  0  0  0  0  0  0  0  0
    3.6354    0.4733    1.1355 C   0  0  0  0  0  0  0  0  0  0  0  0
    2.1349    0.4016    1.2522 C   0  0  0  0  0  0  0  0  0  0  0  0
    6.1698    1.1193    1.1277 C   0  0  0  0  0  0  0  0  0  0  0  0
    7.6139    1.5398    1.0991 C   0  0  0  0  0  0  0  0  0  0  0  0
    7.6540    1.4183   -1.2936 C   0  0  0  0  0  0  0  0  0  0  0  0
    6.1768    1.0497   -1.3030 C   0  0  0  0  0  0  0  0  0  0  0  0
    8.5731   -0.3767   -0.0356 C   0  0  2  0  0  0  0  0  0  0  0  0
    9.5293   -0.7711    1.0407 C   0  0  0  0  0  0  0  0  0  0  0  0
   -4.8227    2.3217    0.4672 H   0  0  0  0  0  0  0  0  0  0  0  0
   -4.9200    3.2025   -1.1458 H   0  0  0  0  0  0  0  0  0  0  0  0
   -7.8785    0.9742   -1.0977 H   0  0  0  0  0  0  0  0  0  0  0  0
   -7.9935    2.4766   -2.1498 H   0  0  0  0  0  0  0  0  0  0  0  0
   -7.0456    2.1992    0.5169 H   0  0  0  0  0  0  0  0  0  0  0  0
   -5.8825    2.0967   -3.0296 H   0  0  0  0  0  0  0  0  0  0  0  0
   -6.4873    0.3482   -2.8163 H   0  0  0  0  0  0  0  0  0  0  0  0
   -3.1979    1.0042   -1.7331 H   0  0  0  0  0  0  0  0  0  0  0  0
   -4.2208   -0.3599   -2.2400 H   0  0  0  0  0  0  0  0  0  0  0  0
    7.4724   -2.0664   -1.7745 H   0  0  0  0  0  0  0  0  0  0  0  0
   -2.1663   -1.5128    1.6451 H   0  0  0  0  0  0  0  0  0  0  0  0
   -2.2891    0.7253    2.3936 H   0  0  0  0  0  0  0  0  0  0  0  0
   -1.9350    1.4029    0.7380 H   0  0  0  0  0  0  0  0  0  0  0  0
   -5.4509   -1.5535   -0.8539 H   0  0  0  0  0  0  0  0  0  0  0  0
   -4.1760   -2.7530    1.6284 H   0  0  0  0  0  0  0  0  0  0  0  0
   -5.3670   -4.6237    0.7527 H   0  0  0  0  0  0  0  0  0  0  0  0
   -5.8768   -3.7200   -0.7038 H   0  0  0  0  0  0  0  0  0  0  0  0
   -6.5848   -3.2549    2.2598 H   0  0  0  0  0  0  0  0  0  0  0  0
   -7.7828   -1.3381    1.7676 H   0  0  0  0  0  0  0  0  0  0  0  0
   -7.5026   -1.4423   -0.0093 H   0  0  0  0  0  0  0  0  0  0  0  0
   -5.3131   -1.2186    2.1239 H   0  0  0  0  0  0  0  0  0  0  0  0
   -5.8758    0.1821    1.1619 H   0  0  0  0  0  0  0  0  0  0  0  0
    0.0581   -0.4373    1.8648 H   0  0  0  0  0  0  0  0  0  0  0  0
    0.1507   -1.7004    0.5958 H   0  0  0  0  0  0  0  0  0  0  0  0
    1.7377   -0.0332    1.0099 H   0  0  0  0  0  0  0  0  0  0  0  0
    1.0531    2.5786   -0.3874 H   0  0  0  0  0  0  0  0  0  0  0  0
    1.3234    2.3304    1.3446 H   0  0  0  0  0  0  0  0  0  0  0  0
    3.4476    3.0865    0.8818 H   0  0  0  0  0  0  0  0  0  0  0  0
    3.2739    2.7110   -0.8760 H   0  0  0  0  0  0  0  0  0  0  0  0
    3.9611    0.9359    1.5394 H   0  0  0  0  0  0  0  0  0  0  0  0
    3.4896   -0.9562    0.4268 H   0  0  0  0  0  0  0  0  0  0  0  0
    4.4194   -0.5381   -1.0269 H   0  0  0  0  0  0  0  0  0  0  0  0
    1.9500   -0.9174   -1.4483 H   0  0  0  0  0  0  0  0  0  0  0  0
    2.4479    0.8120   -1.7839 H   0  0  0  0  0  0  0  0  0  0  0  0
    6.0941    1.8820    2.1074 H   0  0  0  0  0  0  0  0  0  0  0  0
    5.9343    0.1244    1.7439 H   0  0  0  0  0  0  0  0  0  0  0  0
    8.2105    0.4550    1.7522 H   0  0  0  0  0  0  0  0  0  0  0  0
    8.1591    2.0243    0.9103 H   0  0  0  0  0  0  0  0  0  0  0  0
    7.8283    1.3930   -2.0678 H   0  0  0  0  0  0  0  0  0  0  0  0
    6.8680   -0.0860   -2.0366 H   0  0  0  0  0  0  0  0  0  0  0  0
    5.0366    1.1796   -1.8193 H   0  0  0  0  0  0  0  0  0  0  0  0
    5.9952    2.6030   -1.4302 H   0  0  0  0  0  0  0  0  0  0  0  0
    7.3434   -1.6233    0.2570 H   0  0  0  0  0  0  0  0  0  0  0  0
    9.4462   -1.0778    1.4551 H   0  0  0  0  0  0  0  0  0  0  0  0
    9.6529   -2.4507    0.2599 H   0  0  0  0  0  0  0  0  0  0  0  0
   10.2982   -0.7944   -0.1103 H   0  0  0  0  0  0  0  0  0  0  0  0
   -4.4094    3.2600    1.2000 H   0  0  0  0  0  0  0  0  0  0  0  0
   -5.1944    3.4886   -0.4745 H   0  0  0  0  0  0  0  0  0  0  0  0
   -7.7519    1.7912    1.5501 H   0  0  0  0  0  0  0  0  0  0  0  0
   -8.3777    2.9155    0.2476 H   0  0  0  0  0  0  0  0  0  0  0  0
   -6.3775    3.4132    2.2017 H   0  0  0  0  0  0  0  0  0  0  0  0
   -6.6449    2.1974   -1.2135 H   0  0  0  0  0  0  0  0  0  0  0  0
   -7.1734    0.6650   -0.4424 H   0  0  0  0  0  0  0  0  0  0  0  0
   -4.6077    1.3323   -1.5332 H   0  0  0  0  0  0  0  0  0  0  0  0
   -3.4659    1.7356   -0.2590 H   0  0  0  0  0  0  0  0  0  0  0  0
    7.3939   -1.8705   -0.6044 H   0  0  0  0  0  0  0  0  0  0  0  0
   -1.4155   -1.9194   -0.9560 H   0  0  0  0  0  0  0  0  0  0  0  0
   -2.1099   -2.1498    1.1720 H   0  0  0  0  0  0  0  0  0  0  0  0
   -1.5493   -0.5023    1.4718 H   0  0  0  0  0  0  0  0  0  0  0  0
   -5.8439   -1.0543   -1.2998 H   0  0  0  0  0  0  0  0  0  0  0  0
   -3.9356   -3.0926   -0.0602 H   0  0  0  0  0  0  0  0  0  0  0  0
   -5.4655   -4.6483   -1.1400 H   0  0  0  0  0  0  0  0  0  0  0  0
   -6.2723   -3.3343   -2.0407 H   0  0  0  0  0  0  0  0  0  0  0  0
   -6.5123   -4.0515    0.9516 H   0  0  0  0  0  0  0  0  0  0  0  0
   -7.9665   -2.2349    1.2319 H   0  0  0  0  0  0  0  0  0  0  0  0
   -7.7407   -1.6231   -0.4256 H   0  0  0  0  0  0  0  0  0  0  0  0
   -5.4042   -2.2783    1.4187 H   0  0  0  0  0  0  0  0  0  0  0  0
   -6.0652   -0.5757    1.3578 H   0  0  0  0  0  0  0  0  0  0  0  0
   -0.4594    0.1825   -1.8344 H   0  0  0  0  0  0  0  0  0  0  0  0
   -1.0164    1.0299   -0.3450 H   0  0  0  0  0  0  0  0  0  0  0  0
    1.2172    1.2213   -0.4964 H   0  0  0  0  0  0  0  0  0  0  0  0
    2.9643   -1.2360   -0.5569 H   0  0  0  0  0  0  0  0  0  0  0  0
    1.9996   -0.6776   -1.9494 H   0  0  0  0  0  0  0  0  0  0  0  0
    2.9673    1.5807   -1.8049 H   0  0  0  0  0  0  0  0  0  0  0  0
    4.2309    0.3364   -2.0604 H   0  0  0  0  0  0  0  0  0  0  0  0
    3.7193    2.3099    0.0956 H   0  0  0  0  0  0  0  0  0  0  0  0
    3.9938    0.9652    2.0606 H   0  0  0  0  0  0  0  0  0  0  0  0
    4.0116   -0.5711    1.0532 H   0  0  0  0  0  0  0  0  0  0  0  0
    1.7209    1.2321    1.8852 H   0  0  0  0  0  0  0  0  0  0  0  0
    1.8867   -0.5209    1.8721 H   0  0  0  0  0  0  0  0  0  0  0  0
    5.7085    1.8292    1.8974 H   0  0  0  0  0  0  0  0  0  0  0  0
    6.0317    0.0921    1.4628 H   0  0  0  0  0  0  0  0  0  0  0  0
    8.1788    1.2252    2.0024 H   0  0  0  0  0  0  0  0  0  0  0  0
    7.6322    2.6451    1.0599 H   0  0  0  0  0  0  0  0  0  0  0  0
    7.7922    2.5060   -1.4313 H   0  0  0  0  0  0  0  0  0  0  0  0
    8.1520    0.8956   -2.1239 H   0  0  0  0  0  0  0  0  0  0  0  0
    6.0729   -0.0425   -1.5589 H   0  0  0  0  0  0  0  0  0  0  0  0
    5.7453    1.6161   -2.1483 H   0  0  0  0  0  0  0  0  0  0  0  0
    9.0316   -0.6269   -1.0212 H   0  0  0  0  0  0  0  0  0  0  0  0
   10.0986   -1.6593    0.6736 H   0  0  0  0  0  0  0  0  0  0  0  0
    9.0471   -1.0866    1.9895 H   0  0  0  0  0  0  0  0  0  0  0  0
   10.3118   -0.0015    1.2113 H   0  0  0  0  0  0  0  0  0  0  0  0
  1  2  1  0
  1  6  1  0
  5  6  1  0
  2  9  1  0
  5  9  1  0
  2 12  1  0
  3 15  1  0
  7 15  1  0
 15 12  1  6
  3 16  1  0
  7 17  1  0
 16 17  1  0
 15 18  1  0
  8 19  1  0
 18 19  1  0
 19 20  1  0
  4 21  1  0
 20 21  1  0
 21 22  1  0
 18 23  1  0
 22 23  1  0
 11 24  1  0
 16 24  1  0
 11 25  1  0
 25 26  1  0
 26 27  1  0
 10 28  1  0
 27 28  1  0
 28 29  1  0
 25 30  1  0
 29 30  1  0
 10 31  1  0
 13 32  1  0
 31 32  1  0
 13 33  1  0
 10 34  1  0
 33 34  1  0
 13 35  1  0
 14 35  1  0
 35 36  1  0
 37 38  1  0
 37 42  1  0
 41 42  1  0
 38 45  1  0
 41 45  1  0
 38 48  1  0
 39 51  1  0
 43 51  1  0
 51 48  1  1
 39 52  1  0
 43 53  1  0
 52 53  1  0
 51 54  1  0
 44 55  1  0
 54 55  1  0
 55 56  1  0
 40 57  1  0
 56 57  1  0
 57 58  1  0
 54 59  1  0
 58 59  1  0
 47 60  1  0
 52 60  1  0
 47 61  1  0
 61 62  1  0
 62 63  1  0
 46 64  1  0
 63 64  1  0
 64 65  1  0
 61 66  1  0
 65 66  1  0
 46 67  1  0
 49 68  1  0
 67 68  1  0
 49 69  1  0
 46 70  1  0
 69 70  1  0
 49 71  1  0
 50 71  1  0
 71 72  1  0
  1 73  1  0
  1 74  1  0
  5 75  1  0
  5 76  1  0
  6 77  1  0
  9 78  1  0
  9 79  1  0
 12 80  1  0
 12 81  1  0
 14 82  1  0
 16 83  1  1
 17 84  1  0
 17 85  1  0
 18 86  1  0
 19 87  1  0
 20 88  1  0
 20 89  1  0
 21 90  1  0
 22 91  1  0
 22 92  1  0
 23 93  1  0
 23 94  1  0
 24 95  1  0
 24 96  1  0
 25 97  1  0
 26 98  1  0
 26 99  1  0
 27100  1  0
 27101  1  0
 28102  1  0
 29103  1  0
 29104  1  0
 30105  1  0
 30106  1  0
 31107  1  0
 31108  1  0
 32109  1  0
 32110  1  0
 33111  1  0
 33112  1  0
 34113  1  0
 34114  1  0
 35115  1  0
 36116  1  0
 36117  1  0
 36118  1  0
 37119  1  0
 37120  1  0
 41121  1  0
 41122  1  0
 42123  1  0
 45124  1  0
 45125  1  0
 48126  1  0
 48127  1  0
 50128  1  0
 52129  1  6
 53130  1  0
 53131  1  0
 54132  1  0
 55133  1  0
 56134  1  0
 56135  1  0
 57136  1  0
 58137  1  0
 58138  1  0
 59139  1  0
 59140  1  0
 60141  1  0
 60142  1  0
 61143  1  0
 62144  1  0
 62145  1  0
 63146  1  0
 63147  1  0
 64148  1  0
 65149  1  0
 65150  1  0
 66151  1  0
 66152  1  0
 67153  1  0
 67154  1  0
 68155  1  0
 68156  1  0
 69157  1  0
 69158  1  0
 70159  1  0
 70160  1  0
 71161  1  6
 72162  1  0
 72163  1  0
 72164  1  0
M  END
>  <PDBID>  (1) 
3LD6

>  <PDB ID>  (1) 
3LD6

>  <Generic Name>  (1) 
Ketoconazole

>  <Brand Name>  (1) 
Apo-ketoconazole#Extina#Ketoconazole#Ketodan#Ketoderm Cream 2%#Nizoral#Nizoral  - 2%#Nizoral A-D#Nizoral Cream 2%#Nizoral Oral Suspension 20mg/ml#Nizoral Shp 2%#Nizoral Tablets 200mg#Nu-ketocon Tablets - 200mg#Teva-ketoconazole#Xolegel#Fungarest#Fungoral#Ketoderm#Ketoisdin#Ketozole#Nizoral Cream#Nizoral Shampoo#Orifungal#Orifungal M#Panfungol

>  <DrugBank ID>  (1) 
DB01026

>  <ATC Codes>  (1) 
G01AF11#D01AC08#J02AB02

>  <Ligand ID>  (1) 
KKK,KLN,KTN

>  <Target Name>  (1) 
Lanosterol 14-alpha demethylase

>  <UniProt ID>  (1) 
P10613

>  <PDB ID.1>  (1) 
3LD6

>  <Seq. Identity>  (1) 
40%

$$$$
