PDB_DB08865_03
     RDKit          3D

 68 71  0  0  0  0  0  0  0  0999 V2000
    4.8567   -1.6154    2.3374 Cl  0  0  0  0  0  0  0  0  0  0  0  0
    5.2646    0.1174    2.1611 C   0  0  0  0  0  0  0  0  0  0  0  0
    6.7567    0.2251    2.1309 C   0  0  0  0  0  0  0  0  0  0  0  0
    7.3157   -0.4066    0.8868 C   0  0  0  0  0  0  0  0  0  0  0  0
    6.7062    0.3026   -0.3105 C   0  0  0  0  0  0  0  0  0  0  0  0
    7.3076   -0.1812   -1.4458 F   0  0  0  0  0  0  0  0  0  0  0  0
    4.6156    0.6098    0.8687 C   0  0  0  0  0  0  0  0  0  0  0  0
    5.2218   -0.0929   -0.2986 C   0  0  0  0  0  0  0  0  0  0  0  0
    5.1853   -1.8648   -0.1469 Cl  0  0  0  0  0  0  0  0  0  0  0  0
    3.1396    0.4539    1.0218 C   0  0  1  0  0  0  0  0  0  0  0  0
    2.7375    1.3153    2.2293 C   0  0  0  0  0  0  0  0  0  0  0  0
    2.3991    0.8329   -0.0789 O   0  0  0  0  0  0  0  0  0  0  0  0
    1.5484   -0.2005   -0.5300 C   0  0  0  0  0  0  0  0  0  0  0  0
    0.1029    0.2271   -0.4092 C   0  0  0  0  0  0  0  0  0  0  0  0
    1.9485   -0.5090   -1.9447 C   0  0  0  0  0  0  0  0  0  0  0  0
    2.2121    0.7082   -2.6675 N   0  0  0  0  0  0  0  0  0  0  0  0
    0.9703   -1.3152   -2.6409 N   0  0  0  0  0  0  0  0  0  0  0  0
   -0.3468   -0.7370   -2.6042 C   0  0  0  0  0  0  0  0  0  0  0  0
   -0.7730   -0.7300   -1.1297 C   0  0  0  0  0  0  0  0  0  0  0  0
   -2.2253   -0.3990   -1.1094 C   0  0  0  0  0  0  0  0  0  0  0  0
   -2.5511    0.9304   -1.7443 C   0  0  0  0  0  0  0  0  0  0  0  0
   -2.8231   -0.2392    0.2439 C   0  0  0  0  0  0  0  0  0  0  0  0
   -3.9767    0.5906    0.0019 N   0  0  0  0  0  0  0  0  0  0  0  0
   -3.9096    1.1055   -1.2631 N   0  0  0  0  0  0  0  0  0  0  0  0
   -5.1729   -0.1394    0.2741 C   0  0  0  0  0  0  0  0  0  0  0  0
   -5.3038   -0.5710    1.7057 C   0  0  0  0  0  0  0  0  0  0  0  0
   -6.6914   -0.3121    2.2219 C   0  0  0  0  0  0  0  0  0  0  0  0
   -7.7420   -0.7597    1.3570 N   0  0  0  0  0  0  0  0  0  0  0  0
   -7.5759   -0.3733   -0.0241 C   0  0  0  0  0  0  0  0  0  0  0  0
   -6.4274    0.6242   -0.0966 C   0  0  0  0  0  0  0  0  0  0  0  0
    4.8502    0.6345    3.0394 H   0  0  0  0  0  0  0  0  0  0  0  0
    7.1432   -0.3707    2.9919 H   0  0  0  0  0  0  0  0  0  0  0  0
    7.1428    1.2597    2.2388 H   0  0  0  0  0  0  0  0  0  0  0  0
    7.0445   -1.4769    0.8309 H   0  0  0  0  0  0  0  0  0  0  0  0
    8.4232   -0.3063    0.9144 H   0  0  0  0  0  0  0  0  0  0  0  0
    6.8273    1.4010   -0.1918 H   0  0  0  0  0  0  0  0  0  0  0  0
    4.9171    1.6836    0.7956 H   0  0  0  0  0  0  0  0  0  0  0  0
    4.8005    0.2617   -1.2455 H   0  0  0  0  0  0  0  0  0  0  0  0
    2.9395   -0.6024    1.3478 H   0  0  0  0  0  0  0  0  0  0  0  0
    1.6745    1.6159    2.1342 H   0  0  0  0  0  0  0  0  0  0  0  0
    3.4225    2.1906    2.3351 H   0  0  0  0  0  0  0  0  0  0  0  0
    2.8189    0.7443    3.1743 H   0  0  0  0  0  0  0  0  0  0  0  0
    1.7226   -1.0566    0.1568 H   0  0  0  0  0  0  0  0  0  0  0  0
   -0.1126    0.2049    0.7001 H   0  0  0  0  0  0  0  0  0  0  0  0
   -0.0410    1.2824   -0.7240 H   0  0  0  0  0  0  0  0  0  0  0  0
    2.8856   -1.0998   -1.9125 H   0  0  0  0  0  0  0  0  0  0  0  0
    1.4744    1.4192   -2.3983 H   0  0  0  0  0  0  0  0  0  0  0  0
    2.1912    0.5684   -3.6920 H   0  0  0  0  0  0  0  0  0  0  0  0
    0.9854   -2.3077   -2.3542 H   0  0  0  0  0  0  0  0  0  0  0  0
   -0.2562    0.3132   -2.9594 H   0  0  0  0  0  0  0  0  0  0  0  0
   -1.0143   -1.3461   -3.2256 H   0  0  0  0  0  0  0  0  0  0  0  0
   -0.6168   -1.7419   -0.7557 H   0  0  0  0  0  0  0  0  0  0  0  0
   -2.7742   -1.2045   -1.6351 H   0  0  0  0  0  0  0  0  0  0  0  0
   -2.4780    0.8834   -2.8354 H   0  0  0  0  0  0  0  0  0  0  0  0
   -1.9513    1.7055   -1.2662 H   0  0  0  0  0  0  0  0  0  0  0  0
   -3.1277   -1.2205    0.6668 H   0  0  0  0  0  0  0  0  0  0  0  0
   -2.1382    0.3048    0.9383 H   0  0  0  0  0  0  0  0  0  0  0  0
   -4.2414    2.0868   -1.3585 H   0  0  0  0  0  0  0  0  0  0  0  0
   -5.2192   -1.0844   -0.3411 H   0  0  0  0  0  0  0  0  0  0  0  0
   -5.0100   -1.6305    1.8585 H   0  0  0  0  0  0  0  0  0  0  0  0
   -4.6137    0.0314    2.3558 H   0  0  0  0  0  0  0  0  0  0  0  0
   -6.7822   -0.9370    3.1599 H   0  0  0  0  0  0  0  0  0  0  0  0
   -6.8660    0.7209    2.5443 H   0  0  0  0  0  0  0  0  0  0  0  0
   -8.0490   -1.7305    1.5036 H   0  0  0  0  0  0  0  0  0  0  0  0
   -7.2533   -1.2991   -0.5788 H   0  0  0  0  0  0  0  0  0  0  0  0
   -8.4884   -0.0051   -0.5032 H   0  0  0  0  0  0  0  0  0  0  0  0
   -6.3510    1.0921   -1.0988 H   0  0  0  0  0  0  0  0  0  0  0  0
   -6.6482    1.4187    0.6379 H   0  0  0  0  0  0  0  0  0  0  0  0
  1  2  1  0
  2  3  1  0
  3  4  1  0
  4  5  1  0
  5  6  1  0
  2  7  1  0
  5  8  1  0
  7  8  1  0
  8  9  1  0
  7 10  1  0
 10 11  1  0
 10 12  1  0
 12 13  1  0
 13 14  1  0
 13 15  1  0
 15 16  1  0
 15 17  1  0
 17 18  1  0
 14 19  1  0
 18 19  1  0
 19 20  1  0
 20 21  1  0
 20 22  1  0
 22 23  1  0
 21 24  1  0
 23 24  1  0
 23 25  1  0
 25 26  1  0
 26 27  1  0
 27 28  1  0
 28 29  1  0
 25 30  1  0
 29 30  1  0
  2 31  1  0
  3 32  1  0
  3 33  1  0
  4 34  1  0
  4 35  1  0
  5 36  1  0
  7 37  1  0
  8 38  1  0
 10 39  1  1
 11 40  1  0
 11 41  1  0
 11 42  1  0
 13 43  1  0
 14 44  1  0
 14 45  1  0
 15 46  1  0
 16 47  1  0
 16 48  1  0
 17 49  1  0
 18 50  1  0
 18 51  1  0
 19 52  1  0
 20 53  1  0
 21 54  1  0
 21 55  1  0
 22 56  1  0
 22 57  1  0
 24 58  1  0
 25 59  1  0
 26 60  1  0
 26 61  1  0
 27 62  1  0
 27 63  1  0
 28 64  1  0
 29 65  1  0
 29 66  1  0
 30 67  1  0
 30 68  1  0
M  END
>  <PDBID>  (1) 
4ANQ

>  <PDB ID>  (1) 
4ANQ

>  <Generic Name>  (1) 
Crizotinib

>  <Brand Name>  (1) 
Xalkori

>  <DrugBank ID>  (1) 
DB08865

>  <ATC Codes>  (1) 
L01XE16

>  <Ligand ID>  (1) 
VGH

>  <Target Name>  (1) 
ALK tyrosine kinase receptor

>  <UniProt ID>  (1) 
Q9UM73

>  <PDB ID.1>  (1) 
4ANQ

>  <Seq. Identity>  (1) 
100%

$$$$
