PDB_DB09026_07
     RDKit          3D

204204  0  0  0  0  0  0  0  0999 V2000
    6.9644    3.4450    0.6157 C   0  0  0  0  0  0  0  0  0  0  0  0
    7.8709    3.3116   -0.4131 O   0  0  0  0  0  0  0  0  0  0  0  0
    8.8173    2.3553   -0.1782 C   0  0  0  0  0  0  0  0  0  0  0  0
    8.2768    0.9543    0.0250 C   0  0  0  0  0  0  0  0  0  0  0  0
    7.5198    0.5085   -1.1883 C   0  0  0  0  0  0  0  0  0  0  0  0
    7.0102   -0.7688   -1.0796 O   0  0  0  0  0  0  0  0  0  0  0  0
    6.1141   -0.9203   -0.0648 C   0  0  0  0  0  0  0  0  0  0  0  0
    4.7091   -1.2895   -0.6198 C   0  0  0  0  0  0  0  0  0  0  0  0
    3.7798   -0.7912    0.4644 C   0  0  0  0  0  0  0  0  0  0  0  0
    4.0390   -1.5969    1.7058 C   0  0  0  0  0  0  0  0  0  0  0  0
    5.1991   -2.5533    1.5271 C   0  0  0  0  0  0  0  0  0  0  0  0
    6.4352   -1.9663    0.9464 C   0  0  0  0  0  0  0  0  0  0  0  0
    7.3653   -1.5473    1.8962 O   0  0  0  0  0  0  0  0  0  0  0  0
    8.5444   -2.2779    1.7891 C   0  0  0  0  0  0  0  0  0  0  0  0
    2.4056   -0.4783    0.0932 C   0  0  0  0  0  0  0  0  0  0  0  0
    1.4724   -1.4245   -0.4818 C   0  0  2  0  0  0  0  0  0  0  0  0
    1.7557   -2.0665   -1.7963 C   0  0  0  0  0  0  0  0  0  0  0  0
    0.5477   -2.9889   -2.0727 C   0  0  0  0  0  0  0  0  0  0  0  0
    1.8836   -1.1621   -2.9686 C   0  0  0  0  0  0  0  0  0  0  0  0
    0.0504   -0.9479   -0.3679 C   0  0  0  0  0  0  0  0  0  0  0  0
   -0.2930    0.3424   -1.0064 C   0  0  2  0  0  0  0  0  0  0  0  0
    0.4182    1.4795   -0.4887 N   0  0  0  0  0  0  0  0  0  0  0  0
   -1.8169    0.6246   -0.8334 C   0  0  1  0  0  0  0  0  0  0  0  0
   -2.4073   -0.5223   -1.4536 O   0  0  0  0  0  0  0  0  0  0  0  0
   -2.2014    0.7232    0.5562 C   0  0  0  0  0  0  0  0  0  0  0  0
   -3.6578    1.0237    0.9602 C   0  0  1  0  0  0  0  0  0  0  0  0
   -4.0921    2.3324    0.4194 C   0  0  0  0  0  0  0  0  0  0  0  0
   -4.2287    2.5423   -1.0292 C   0  0  0  0  0  0  0  0  0  0  0  0
   -5.1046    3.1271    1.1765 C   0  0  0  0  0  0  0  0  0  0  0  0
   -4.4868   -0.1772    0.6099 C   0  0  0  0  0  0  0  0  0  0  0  0
   -3.8251   -1.2895    1.3449 O   0  0  0  0  0  0  0  0  0  0  0  0
   -5.8062   -0.3645    0.9446 N   0  0  0  0  0  0  0  0  0  0  0  0
   -6.9071    0.3735    0.5894 C   0  0  0  0  0  0  0  0  0  0  0  0
   -8.2394   -0.4003    0.7899 C   0  0  0  0  0  0  0  0  0  0  0  0
   -8.2139   -1.6307   -0.0804 C   0  0  0  0  0  0  0  0  0  0  0  0
   -8.4676   -0.7583    2.2216 C   0  0  0  0  0  0  0  0  0  0  0  0
   -9.3171    0.5576    0.3426 C   0  0  1  0  0  0  0  0  0  0  0  0
   -9.2555    1.7175    1.1454 O   0  0  0  0  0  0  0  0  0  0  0  0
   -9.0691    1.0365   -1.0138 N   0  0  0  0  0  0  0  0  0  0  0  0
    6.7073    3.7828    0.8356 C   0  0  0  0  0  0  0  0  0  0  0  0
    7.7681    3.5836   -0.0423 O   0  0  0  0  0  0  0  0  0  0  0  0
    8.6948    2.6972    0.4444 C   0  0  0  0  0  0  0  0  0  0  0  0
    8.1485    1.3134    0.7241 C   0  0  0  0  0  0  0  0  0  0  0  0
    7.6100    0.7527   -0.5488 C   0  0  0  0  0  0  0  0  0  0  0  0
    7.0824   -0.5143   -0.4378 O   0  0  0  0  0  0  0  0  0  0  0  0
    6.0285   -0.5554    0.4399 C   0  0  0  0  0  0  0  0  0  0  0  0
    4.7393   -1.0264   -0.2850 C   0  0  0  0  0  0  0  0  0  0  0  0
    3.6338   -0.5891    0.6460 C   0  0  2  0  0  0  0  0  0  0  0  0
    3.7819   -1.2310    2.0068 C   0  0  0  0  0  0  0  0  0  0  0  0
    4.9858   -2.1058    2.1104 C   0  0  0  0  0  0  0  0  0  0  0  0
    6.2434   -1.6045    1.5143 C   0  0  0  0  0  0  0  0  0  0  0  0
    6.8255   -2.6965    0.8230 O   0  0  0  0  0  0  0  0  0  0  0  0
    8.1024   -2.9730    1.3019 C   0  0  0  0  0  0  0  0  0  0  0  0
    2.2813   -0.4855    0.0980 C   0  0  0  0  0  0  0  0  0  0  0  0
    1.5529   -1.5935   -0.4870 C   0  0  2  0  0  0  0  0  0  0  0  0
    2.0572   -2.3040   -1.6859 C   0  0  0  0  0  0  0  0  0  0  0  0
    1.0203   -3.3979   -2.0209 C   0  0  0  0  0  0  0  0  0  0  0  0
    2.2328   -1.4931   -2.9112 C   0  0  0  0  0  0  0  0  0  0  0  0
    0.0859   -1.2832   -0.6184 C   0  0  0  0  0  0  0  0  0  0  0  0
   -0.3005   -0.1352   -1.4517 C   0  0  2  0  0  0  0  0  0  0  0  0
    0.2050    1.1556   -1.0451 N   0  0  0  0  0  0  0  0  0  0  0  0
   -1.8221    0.0358   -1.5376 C   0  0  1  0  0  0  0  0  0  0  0  0
   -2.3121   -1.1964   -1.9436 O   0  0  0  0  0  0  0  0  0  0  0  0
   -2.4072    0.5130   -0.2627 C   0  0  0  0  0  0  0  0  0  0  0  0
   -3.9157    0.7308   -0.2843 C   0  0  1  0  0  0  0  0  0  0  0  0
   -4.2517    1.7741   -1.3351 C   0  0  0  0  0  0  0  0  0  0  0  0
   -5.6968    2.0891   -1.4712 C   0  0  0  0  0  0  0  0  0  0  0  0
   -3.5073    3.0758   -1.0059 C   0  0  0  0  0  0  0  0  0  0  0  0
   -4.6894   -0.5335   -0.4391 C   0  0  0  0  0  0  0  0  0  0  0  0
   -4.3080   -1.3683    0.6530 O   0  0  0  0  0  0  0  0  0  0  0  0
   -6.1142   -0.3172   -0.1674 N   0  0  0  0  0  0  0  0  0  0  0  0
   -6.3741    0.0915    1.1702 C   0  0  0  0  0  0  0  0  0  0  0  0
   -7.8489    0.0858    1.4455 C   0  0  0  0  0  0  0  0  0  0  0  0
   -8.4430   -1.3038    1.2591 C   0  0  0  0  0  0  0  0  0  0  0  0
   -7.9983    0.3866    2.9459 C   0  0  0  0  0  0  0  0  0  0  0  0
   -8.6512    1.1217    0.7280 C   0  0  0  0  0  0  0  0  0  0  0  0
   -8.6001    1.0372   -0.6576 O   0  0  0  0  0  0  0  0  0  0  0  0
   -8.3717    2.4636    1.2147 N   0  0  0  0  0  0  0  0  0  0  0  0
    6.4118    2.5199    0.7981 H   0  0  0  0  0  0  0  0  0  0  0  0
    7.4580    3.8146    1.5513 H   0  0  0  0  0  0  0  0  0  0  0  0
    6.2382    4.2686    0.3601 H   0  0  0  0  0  0  0  0  0  0  0  0
    9.5677    2.3484   -0.9871 H   0  0  0  0  0  0  0  0  0  0  0  0
    9.3893    2.6134    0.7564 H   0  0  0  0  0  0  0  0  0  0  0  0
    9.1463    0.2767    0.1618 H   0  0  0  0  0  0  0  0  0  0  0  0
    7.6873    0.9718    0.9322 H   0  0  0  0  0  0  0  0  0  0  0  0
    6.6519    1.2338   -1.2826 H   0  0  0  0  0  0  0  0  0  0  0  0
    8.0883    0.6647   -2.1296 H   0  0  0  0  0  0  0  0  0  0  0  0
    6.0065    0.0565    0.4707 H   0  0  0  0  0  0  0  0  0  0  0  0
    4.6618   -2.3839   -0.7511 H   0  0  0  0  0  0  0  0  0  0  0  0
    4.5190   -0.7969   -1.5825 H   0  0  0  0  0  0  0  0  0  0  0  0
    4.2505    0.2303    0.7201 H   0  0  0  0  0  0  0  0  0  0  0  0
    3.1707   -2.2013    2.0461 H   0  0  0  0  0  0  0  0  0  0  0  0
    4.3054   -0.9668    2.5885 H   0  0  0  0  0  0  0  0  0  0  0  0
    5.4432   -2.9057    2.5663 H   0  0  0  0  0  0  0  0  0  0  0  0
    4.8669   -3.4787    0.9733 H   0  0  0  0  0  0  0  0  0  0  0  0
    6.9322   -2.8065    0.3636 H   0  0  0  0  0  0  0  0  0  0  0  0
    8.2791   -3.3366    1.9597 H   0  0  0  0  0  0  0  0  0  0  0  0
    8.9020   -2.1751    0.7181 H   0  0  0  0  0  0  0  0  0  0  0  0
    9.3530   -1.9195    2.4257 H   0  0  0  0  0  0  0  0  0  0  0  0
    2.4741    0.4110   -0.6230 H   0  0  0  0  0  0  0  0  0  0  0  0
    1.9076   -0.0055    0.9914 H   0  0  0  0  0  0  0  0  0  0  0  0
    1.4689   -2.3430    0.2292 H   0  0  0  0  0  0  0  0  0  0  0  0
    2.5972   -2.7648   -1.7717 H   0  0  0  0  0  0  0  0  0  0  0  0
   -0.2623   -2.4585   -2.5747 H   0  0  0  0  0  0  0  0  0  0  0  0
    0.8522   -3.8179   -2.7594 H   0  0  0  0  0  0  0  0  0  0  0  0
    0.2494   -3.4878   -1.1095 H   0  0  0  0  0  0  0  0  0  0  0  0
    0.9475   -1.1442   -3.6009 H   0  0  0  0  0  0  0  0  0  0  0  0
    2.2526   -0.1408   -2.7485 H   0  0  0  0  0  0  0  0  0  0  0  0
    2.6396   -1.6132   -3.6673 H   0  0  0  0  0  0  0  0  0  0  0  0
   -0.6809   -1.7175   -0.7210 H   0  0  0  0  0  0  0  0  0  0  0  0
   -0.1559   -0.8135    0.7418 H   0  0  0  0  0  0  0  0  0  0  0  0
   -0.1699    0.3476   -2.1103 H   0  0  0  0  0  0  0  0  0  0  0  0
   -0.2313    2.0789    0.0371 H   0  0  0  0  0  0  0  0  0  0  0  0
    0.8756    2.0009   -1.2870 H   0  0  0  0  0  0  0  0  0  0  0  0
   -2.0044    1.4552   -1.4845 H   0  0  0  0  0  0  0  0  0  0  0  0
   -2.3152   -0.4418   -2.4362 H   0  0  0  0  0  0  0  0  0  0  0  0
   -2.0595   -0.3202    1.0202 H   0  0  0  0  0  0  0  0  0  0  0  0
   -1.5935    1.3591    1.2336 H   0  0  0  0  0  0  0  0  0  0  0  0
   -3.6231    1.0925    2.0603 H   0  0  0  0  0  0  0  0  0  0  0  0
   -3.1151    2.9960    0.6600 H   0  0  0  0  0  0  0  0  0  0  0  0
   -4.2521    1.6485   -1.6791 H   0  0  0  0  0  0  0  0  0  0  0  0
   -5.2053    3.0636   -1.2946 H   0  0  0  0  0  0  0  0  0  0  0  0
   -3.4681    3.2317   -1.4187 H   0  0  0  0  0  0  0  0  0  0  0  0
   -6.0436    3.3052    0.5692 H   0  0  0  0  0  0  0  0  0  0  0  0
   -5.3431    2.6585    2.1643 H   0  0  0  0  0  0  0  0  0  0  0  0
   -4.7723    4.1831    1.4057 H   0  0  0  0  0  0  0  0  0  0  0  0
   -4.3471   -0.4919   -0.4548 H   0  0  0  0  0  0  0  0  0  0  0  0
   -4.1550   -1.1871    2.2733 H   0  0  0  0  0  0  0  0  0  0  0  0
   -6.0511   -1.0538    1.6966 H   0  0  0  0  0  0  0  0  0  0  0  0
   -7.0235    1.3049    1.2446 H   0  0  0  0  0  0  0  0  0  0  0  0
   -6.9298    0.7362   -0.4445 H   0  0  0  0  0  0  0  0  0  0  0  0
   -7.7614   -2.4613    0.5039 H   0  0  0  0  0  0  0  0  0  0  0  0
   -9.2023   -1.9165   -0.4623 H   0  0  0  0  0  0  0  0  0  0  0  0
   -7.5732   -1.4269   -0.9788 H   0  0  0  0  0  0  0  0  0  0  0  0
   -9.5384   -0.6257    2.4507 H   0  0  0  0  0  0  0  0  0  0  0  0
   -7.8354   -0.1038    2.8532 H   0  0  0  0  0  0  0  0  0  0  0  0
   -8.2407   -1.8342    2.4510 H   0  0  0  0  0  0  0  0  0  0  0  0
  -10.3332    0.1152    0.3482 H   0  0  0  0  0  0  0  0  0  0  0  0
   -8.6522    2.4055    0.7497 H   0  0  0  0  0  0  0  0  0  0  0  0
   -9.9495    1.2777   -1.5181 H   0  0  0  0  0  0  0  0  0  0  0  0
   -8.4950    1.9385   -1.0031 H   0  0  0  0  0  0  0  0  0  0  0  0
    6.2010    2.8336    1.0108 H   0  0  0  0  0  0  0  0  0  0  0  0
    7.0876    4.1913    1.8182 H   0  0  0  0  0  0  0  0  0  0  0  0
    6.0020    4.4996    0.3607 H   0  0  0  0  0  0  0  0  0  0  0  0
    9.5228    2.6199   -0.2910 H   0  0  0  0  0  0  0  0  0  0  0  0
    9.1304    3.0978    1.3889 H   0  0  0  0  0  0  0  0  0  0  0  0
    9.0338    0.7085    1.0857 H   0  0  0  0  0  0  0  0  0  0  0  0
    7.4588    1.3418    1.5684 H   0  0  0  0  0  0  0  0  0  0  0  0
    6.8781    1.4916   -0.9551 H   0  0  0  0  0  0  0  0  0  0  0  0
    8.4565    0.7589   -1.2876 H   0  0  0  0  0  0  0  0  0  0  0  0
    5.8010    0.4176    0.8819 H   0  0  0  0  0  0  0  0  0  0  0  0
    4.8176   -2.1229   -0.4152 H   0  0  0  0  0  0  0  0  0  0  0  0
    4.6460   -0.5481   -1.2740 H   0  0  0  0  0  0  0  0  0  0  0  0
    3.9449    0.4972    0.8621 H   0  0  0  0  0  0  0  0  0  0  0  0
    2.8871   -1.8705    2.2692 H   0  0  0  0  0  0  0  0  0  0  0  0
    3.8398   -0.4916    2.8398 H   0  0  0  0  0  0  0  0  0  0  0  0
    5.1654   -2.2786    3.2030 H   0  0  0  0  0  0  0  0  0  0  0  0
    4.6843   -3.1151    1.7312 H   0  0  0  0  0  0  0  0  0  0  0  0
    7.0027   -1.2812    2.2565 H   0  0  0  0  0  0  0  0  0  0  0  0
    8.1181   -3.2353    2.3803 H   0  0  0  0  0  0  0  0  0  0  0  0
    8.5269   -3.8037    0.7377 H   0  0  0  0  0  0  0  0  0  0  0  0
    8.7188   -2.0479    1.1007 H   0  0  0  0  0  0  0  0  0  0  0  0
    2.3157    0.3963   -0.6301 H   0  0  0  0  0  0  0  0  0  0  0  0
    1.6339   -0.0838    0.9391 H   0  0  0  0  0  0  0  0  0  0  0  0
    1.5480   -2.4305    0.3174 H   0  0  0  0  0  0  0  0  0  0  0  0
    2.9743   -2.9067   -1.5111 H   0  0  0  0  0  0  0  0  0  0  0  0
    0.2149   -3.0169   -2.6705 H   0  0  0  0  0  0  0  0  0  0  0  0
    1.5082   -4.2178   -2.5926 H   0  0  0  0  0  0  0  0  0  0  0  0
    0.6176   -3.8632   -1.1065 H   0  0  0  0  0  0  0  0  0  0  0  0
    1.4709   -1.6921   -3.7137 H   0  0  0  0  0  0  0  0  0  0  0  0
    2.3788   -0.4084   -2.7243 H   0  0  0  0  0  0  0  0  0  0  0  0
    3.1926   -1.8063   -3.4064 H   0  0  0  0  0  0  0  0  0  0  0  0
   -0.4830   -2.1761   -0.9743 H   0  0  0  0  0  0  0  0  0  0  0  0
   -0.3257   -1.0815    0.4220 H   0  0  0  0  0  0  0  0  0  0  0  0
    0.0046   -0.2262   -2.5267 H   0  0  0  0  0  0  0  0  0  0  0  0
    0.0186    1.3386   -0.0549 H   0  0  0  0  0  0  0  0  0  0  0  0
   -0.3101    1.8746   -1.6250 H   0  0  0  0  0  0  0  0  0  0  0  0
   -1.9906    0.7581   -2.3535 H   0  0  0  0  0  0  0  0  0  0  0  0
   -2.3946   -1.8725   -1.2526 H   0  0  0  0  0  0  0  0  0  0  0  0
   -2.2556   -0.3061    0.5005 H   0  0  0  0  0  0  0  0  0  0  0  0
   -1.9766    1.4253    0.1429 H   0  0  0  0  0  0  0  0  0  0  0  0
   -4.1498    1.1750    0.6996 H   0  0  0  0  0  0  0  0  0  0  0  0
   -3.8901    1.4480   -2.3138 H   0  0  0  0  0  0  0  0  0  0  0  0
   -6.2634    1.3155   -2.0426 H   0  0  0  0  0  0  0  0  0  0  0  0
   -6.1981    2.4191   -0.5441 H   0  0  0  0  0  0  0  0  0  0  0  0
   -5.7676    2.9986   -2.1451 H   0  0  0  0  0  0  0  0  0  0  0  0
   -3.9983    3.9463   -1.4806 H   0  0  0  0  0  0  0  0  0  0  0  0
   -3.5350    3.1754    0.1154 H   0  0  0  0  0  0  0  0  0  0  0  0
   -2.4425    3.0217   -1.2685 H   0  0  0  0  0  0  0  0  0  0  0  0
   -4.5728   -1.0774   -1.3641 H   0  0  0  0  0  0  0  0  0  0  0  0
   -4.6025   -2.3110    0.4514 H   0  0  0  0  0  0  0  0  0  0  0  0
   -6.6160   -1.1939   -0.3514 H   0  0  0  0  0  0  0  0  0  0  0  0
   -5.9202   -0.6032    1.9276 H   0  0  0  0  0  0  0  0  0  0  0  0
   -5.9988    1.1042    1.4373 H   0  0  0  0  0  0  0  0  0  0  0  0
   -7.7184   -2.0929    1.5165 H   0  0  0  0  0  0  0  0  0  0  0  0
   -8.8094   -1.3530    0.2149 H   0  0  0  0  0  0  0  0  0  0  0  0
   -9.3190   -1.4638    1.9227 H   0  0  0  0  0  0  0  0  0  0  0  0
   -7.8469   -0.5266    3.5330 H   0  0  0  0  0  0  0  0  0  0  0  0
   -7.2318    1.1495    3.1719 H   0  0  0  0  0  0  0  0  0  0  0  0
   -9.0092    0.8474    3.1365 H   0  0  0  0  0  0  0  0  0  0  0  0
   -9.7409    0.9436    0.9804 H   0  0  0  0  0  0  0  0  0  0  0  0
   -8.9856    1.8748   -1.0240 H   0  0  0  0  0  0  0  0  0  0  0  0
   -8.6300    3.1362    0.4377 H   0  0  0  0  0  0  0  0  0  0  0  0
   -8.9936    2.7164    2.0363 H   0  0  0  0  0  0  0  0  0  0  0  0
  1  2  1  0
  2  3  1  0
  3  4  1  0
  4  5  1  0
  5  6  1  0
  6  7  1  0
  7  8  1  0
  8  9  1  0
  9 10  1  0
 10 11  1  0
  7 12  1  0
 11 12  1  0
 12 13  1  0
 13 14  1  0
  9 15  1  0
 15 16  1  0
 16 17  1  0
 17 18  1  0
 17 19  1  0
 16 20  1  0
 20 21  1  0
 21 22  1  0
 21 23  1  0
 23 24  1  0
 23 25  1  0
 25 26  1  0
 26 27  1  0
 27 28  1  0
 27 29  1  0
 26 30  1  0
 30 31  1  0
 30 32  1  0
 32 33  1  0
 34 33  1  0
 34 35  1  0
 34 36  1  0
 34 37  1  0
 37 38  1  0
 37 39  1  0
 40 41  1  0
 41 42  1  0
 42 43  1  0
 43 44  1  0
 44 45  1  0
 45 46  1  0
 46 47  1  0
 47 48  1  0
 48 49  1  0
 49 50  1  0
 46 51  1  0
 50 51  1  0
 51 52  1  0
 52 53  1  0
 48 54  1  0
 54 55  1  0
 55 56  1  0
 56 57  1  0
 56 58  1  0
 55 59  1  0
 59 60  1  0
 60 61  1  0
 60 62  1  0
 62 63  1  0
 62 64  1  0
 64 65  1  0
 65 66  1  0
 66 67  1  0
 66 68  1  0
 65 69  1  0
 69 70  1  0
 69 71  1  0
 71 72  1  0
 73 72  1  0
 73 74  1  0
 73 75  1  0
 73 76  1  0
 76 77  1  0
 76 78  1  0
  1 79  1  0
  1 80  1  0
  1 81  1  0
  3 82  1  0
  3 83  1  0
  4 84  1  0
  4 85  1  0
  5 86  1  0
  5 87  1  0
  7 88  1  0
  8 89  1  0
  8 90  1  0
  9 91  1  0
 10 92  1  0
 10 93  1  0
 11 94  1  0
 11 95  1  0
 12 96  1  0
 14 97  1  0
 14 98  1  0
 14 99  1  0
 15100  1  0
 15101  1  0
 16102  1  1
 17103  1  0
 18104  1  0
 18105  1  0
 18106  1  0
 19107  1  0
 19108  1  0
 19109  1  0
 20110  1  0
 20111  1  0
 21112  1  6
 22113  1  0
 22114  1  0
 23115  1  6
 24116  1  0
 25117  1  0
 25118  1  0
 26119  1  1
 27120  1  0
 28121  1  0
 28122  1  0
 28123  1  0
 29124  1  0
 29125  1  0
 29126  1  0
 30127  1  0
 31128  1  0
 32129  1  0
 33130  1  0
 33131  1  0
 35132  1  0
 35133  1  0
 35134  1  0
 36135  1  0
 36136  1  0
 36137  1  0
 37138  1  6
 38139  1  0
 39140  1  0
 39141  1  0
 40142  1  0
 40143  1  0
 40144  1  0
 42145  1  0
 42146  1  0
 43147  1  0
 43148  1  0
 44149  1  0
 44150  1  0
 46151  1  0
 47152  1  0
 47153  1  0
 48154  1  1
 49155  1  0
 49156  1  0
 50157  1  0
 50158  1  0
 51159  1  0
 53160  1  0
 53161  1  0
 53162  1  0
 54163  1  0
 54164  1  0
 55165  1  1
 56166  1  0
 57167  1  0
 57168  1  0
 57169  1  0
 58170  1  0
 58171  1  0
 58172  1  0
 59173  1  0
 59174  1  0
 60175  1  6
 61176  1  0
 61177  1  0
 62178  1  6
 63179  1  0
 64180  1  0
 64181  1  0
 65182  1  1
 66183  1  0
 67184  1  0
 67185  1  0
 67186  1  0
 68187  1  0
 68188  1  0
 68189  1  0
 69190  1  0
 70191  1  0
 71192  1  0
 72193  1  0
 72194  1  0
 74195  1  0
 74196  1  0
 74197  1  0
 75198  1  0
 75199  1  0
 75200  1  0
 76201  1  0
 77202  1  0
 78203  1  0
 78204  1  0
M  END
>  <PDBID>  (1) 
2V0Z

>  <PDB ID>  (1) 
2V0Z

>  <Generic Name>  (1) 
Aliskiren

>  <Brand Name>  (1) 
Amturnide#Rasilez#Rasilez Hct#Sandoz Aliskiren#Tekamlo#Tekturna#Tekturna Hct

>  <DrugBank ID>  (1) 
DB09026

>  <ATC Codes>  (1) 
C09DX02#C09XA02#C09XA52#C09XA53#C09XA54

>  <Ligand ID>  (1) 
C41

>  <Target Name>  (1) 
Renin

>  <UniProt ID>  (1) 
P00797

>  <PDB ID.1>  (1) 
2V0Z

>  <Seq. Identity>  (1) 
100%

$$$$
