PDB_DB00703_06
     RDKit          3D

 30 30  0  0  0  0  0  0  0  0999 V2000
    3.4077    0.6848   -0.5502 N   0  0  0  0  0  0  0  0  0  0  0  0
    3.1007   -0.4425    0.6457 S   0  0  0  0  0  0  0  0  0  0  0  0
    3.4289   -2.0227   -0.4695 O   0  0  0  0  0  0  0  0  0  0  0  0
    4.1250   -0.6355    1.6130 O   0  0  0  0  0  0  0  0  0  0  0  0
    1.4722   -0.6872    0.8971 C   0  0  1  0  0  0  0  0  0  0  0  0
    0.5905    0.7910    1.5367 S   0  0  0  0  0  0  0  0  0  0  0  0
   -1.0278    0.1719    0.8595 C   0  0  2  0  0  0  0  0  0  0  0  0
   -0.4346   -0.2869   -0.3919 N   0  0  0  0  0  0  0  0  0  0  0  0
   -0.0348    0.9055   -1.1201 C   0  0  0  0  0  0  0  0  0  0  0  0
    0.6317   -1.0754   -0.1578 N   0  0  0  0  0  0  0  0  0  0  0  0
   -1.9713    1.2001    0.7488 N   0  0  0  0  0  0  0  0  0  0  0  0
   -3.2758    0.7037    0.4082 C   0  0  0  0  0  0  0  0  0  0  0  0
   -3.7428   -0.2280    1.3418 O   0  0  0  0  0  0  0  0  0  0  0  0
   -3.3191    0.0377   -0.9315 C   0  0  0  0  0  0  0  0  0  0  0  0
    3.2879    0.3026   -1.5289 H   0  0  0  0  0  0  0  0  0  0  0  0
    4.4348    0.9528   -0.4911 H   0  0  0  0  0  0  0  0  0  0  0  0
    2.8397   -1.7037   -1.1955 H   0  0  0  0  0  0  0  0  0  0  0  0
    4.4917   -0.2600    2.4232 H   0  0  0  0  0  0  0  0  0  0  0  0
    1.3255   -1.4469    1.7239 H   0  0  0  0  0  0  0  0  0  0  0  0
   -1.3110   -0.6413    1.5310 H   0  0  0  0  0  0  0  0  0  0  0  0
    0.2589    1.7175   -0.4261 H   0  0  0  0  0  0  0  0  0  0  0  0
    0.8920    0.6786   -1.7256 H   0  0  0  0  0  0  0  0  0  0  0  0
   -0.7919    1.1982   -1.8478 H   0  0  0  0  0  0  0  0  0  0  0  0
    0.8237   -1.8950   -0.7081 H   0  0  0  0  0  0  0  0  0  0  0  0
   -1.7467    1.9824    0.1275 H   0  0  0  0  0  0  0  0  0  0  0  0
   -4.0355    1.5363    0.3690 H   0  0  0  0  0  0  0  0  0  0  0  0
   -3.3405   -1.1173    1.1072 H   0  0  0  0  0  0  0  0  0  0  0  0
   -4.3330   -0.4055   -1.1075 H   0  0  0  0  0  0  0  0  0  0  0  0
   -2.6277   -0.8176   -0.9724 H   0  0  0  0  0  0  0  0  0  0  0  0
   -3.1186    0.8023   -1.7086 H   0  0  0  0  0  0  0  0  0  0  0  0
  1  2  1  0
  2  3  1  0
  2  4  1  0
  2  5  1  0
  5  6  1  0
  6  7  1  0
  7  8  1  0
  8  9  1  0
  5 10  1  0
  8 10  1  0
  7 11  1  0
 11 12  1  0
 12 13  1  0
 12 14  1  0
  1 15  1  0
  1 16  1  0
  3 17  1  0
  4 18  1  0
  5 19  1  1
  7 20  1  1
  9 21  1  0
  9 22  1  0
  9 23  1  0
 10 24  1  0
 11 25  1  0
 12 26  1  0
 13 27  1  0
 14 28  1  0
 14 29  1  0
 14 30  1  0
M  END
>  <PDBID>  (1) 
1BZM

>  <PDB ID>  (1) 
1BZM

>  <Generic Name>  (1) 
Methazolamide

>  <Brand Name>  (1) 
Methazolamide#Neptazane#Neptazane Tablets 25mg#Neptazane Tablets 25mg USP#Neptazane Tablets 50mg#Naptazane

>  <DrugBank ID>  (1) 
DB00703

>  <ATC Codes>  (1) 
S01EC05

>  <Ligand ID>  (1) 
MZM

>  <Target Name>  (1) 
Carbonic anhydrase 1

>  <UniProt ID>  (1) 
P00915

>  <PDB ID.1>  (1) 
1BZM

>  <Seq. Identity>  (1) 
100%

$$$$
