PDB_DB11363_05
     RDKit          3D

 90 95  0  0  0  0  0  0  0  0999 V2000
   -5.9267   -0.9340   -1.2588 C   0  0  0  0  0  0  0  0  0  0  0  0
   -7.3449   -0.4637    0.7723 C   0  0  0  0  0  0  0  0  0  0  0  0
   -7.2129   -0.3864   -0.7077 C   0  0  0  0  0  0  0  0  0  0  0  0
   -3.5434   -0.1138   -1.0985 C   0  0  0  0  0  0  0  0  0  0  0  0
   -3.2280    1.1275   -0.3696 C   0  0  0  0  0  0  0  0  0  0  0  0
    1.4096   -0.4208   -0.0339 C   0  0  0  0  0  0  0  0  0  0  0  0
   -0.1866   -0.7419   -1.9626 C   0  0  0  0  0  0  0  0  0  0  0  0
   -1.1312   -0.8391   -0.7773 C   0  0  0  0  0  0  0  0  0  0  0  0
   -1.8115    1.5220   -0.2657 C   0  0  0  0  0  0  0  0  0  0  0  0
   -1.6988    2.5407    0.8804 C   0  0  0  0  0  0  0  0  0  0  0  0
   -1.3973    2.2237   -1.5086 C   0  0  0  0  0  0  0  0  0  0  0  0
    1.7678   -1.1940   -3.7848 C   0  0  0  0  0  0  0  0  0  0  0  0
    5.2033    0.6493    0.8461 C   0  0  0  0  0  0  0  0  0  0  0  0
    5.0885   -0.6269    0.0245 C   0  0  0  0  0  0  0  0  0  0  0  0
   -7.7973   -1.7396    2.7357 N   0  0  0  0  0  0  0  0  0  0  0  0
   -7.7053   -1.8195    1.2878 C   0  0  0  0  0  0  0  0  0  0  0  0
   -6.1291    0.1064    1.5070 C   0  0  0  0  0  0  0  0  0  0  0  0
   -5.1965    0.5987    0.4636 C   0  0  0  0  0  0  0  0  0  0  0  0
   -4.7803   -0.6230   -0.3683 C   0  0  0  0  0  0  0  0  0  0  0  0
   -3.8977    1.0192    0.9444 N   0  0  0  0  0  0  0  0  0  0  0  0
   -0.9863    0.3484    0.1379 C   0  0  0  0  0  0  0  0  0  0  0  0
   -2.5048   -1.1510   -1.2071 C   0  0  0  0  0  0  0  0  0  0  0  0
   -2.4275   -1.6267   -2.5440 O   0  0  0  0  0  0  0  0  0  0  0  0
    0.4318    0.6988    0.3776 C   0  0  0  0  0  0  0  0  0  0  0  0
    1.2474   -0.4863   -1.5201 C   0  0  0  0  0  0  0  0  0  0  0  0
    2.1921   -1.3328   -2.3027 C   0  0  0  0  0  0  0  0  0  0  0  0
    2.7497    0.0358    0.2841 N   0  0  0  0  0  0  0  0  0  0  0  0
    2.8316    0.4531    1.6985 C   0  0  0  0  0  0  0  0  0  0  0  0
    4.2940    0.5322    2.0575 C   0  0  0  0  0  0  0  0  0  0  0  0
    3.6776   -1.1300    0.2879 C   0  0  0  0  0  0  0  0  0  0  0  0
    6.5239    0.9320    1.3002 N   0  0  0  0  0  0  0  0  0  0  0  0
    7.4718    1.1557    0.2409 C   0  0  0  0  0  0  0  0  0  0  0  0
    8.3153   -0.0247   -0.0904 C   0  0  0  0  0  0  0  0  0  0  0  0
    8.7235   -0.7679    0.9934 O   0  0  0  0  0  0  0  0  0  0  0  0
    8.5201   -0.0355    2.1650 C   0  0  0  0  0  0  0  0  0  0  0  0
    7.0111    0.0845    2.3436 C   0  0  0  0  0  0  0  0  0  0  0  0
   -5.8196   -0.5113   -2.2941 H   0  0  0  0  0  0  0  0  0  0  0  0
   -6.0075   -2.0331   -1.3876 H   0  0  0  0  0  0  0  0  0  0  0  0
   -8.1968    0.2215    1.0577 H   0  0  0  0  0  0  0  0  0  0  0  0
   -7.3616    0.6650   -1.0555 H   0  0  0  0  0  0  0  0  0  0  0  0
   -8.0391   -0.9682   -1.1540 H   0  0  0  0  0  0  0  0  0  0  0  0
   -3.9198    0.1427   -2.1344 H   0  0  0  0  0  0  0  0  0  0  0  0
   -3.7772    1.9877   -0.8595 H   0  0  0  0  0  0  0  0  0  0  0  0
    1.2047   -1.3466    0.4471 H   0  0  0  0  0  0  0  0  0  0  0  0
   -0.5355   -0.0658   -2.7379 H   0  0  0  0  0  0  0  0  0  0  0  0
   -0.1798   -1.7730   -2.4157 H   0  0  0  0  0  0  0  0  0  0  0  0
   -0.7163   -1.7097   -0.1787 H   0  0  0  0  0  0  0  0  0  0  0  0
   -1.6768    1.9435    1.8279 H   0  0  0  0  0  0  0  0  0  0  0  0
   -0.7383    3.0546    0.7872 H   0  0  0  0  0  0  0  0  0  0  0  0
   -2.5465    3.2455    0.8730 H   0  0  0  0  0  0  0  0  0  0  0  0
   -2.0857    1.9159   -2.3513 H   0  0  0  0  0  0  0  0  0  0  0  0
   -1.6152    3.3284   -1.4010 H   0  0  0  0  0  0  0  0  0  0  0  0
   -0.3494    2.1616   -1.7852 H   0  0  0  0  0  0  0  0  0  0  0  0
    2.6722   -1.3065   -4.4152 H   0  0  0  0  0  0  0  0  0  0  0  0
    1.3194   -0.2004   -3.9688 H   0  0  0  0  0  0  0  0  0  0  0  0
    1.0239   -1.9579   -4.0524 H   0  0  0  0  0  0  0  0  0  0  0  0
    4.8777    1.4833    0.1929 H   0  0  0  0  0  0  0  0  0  0  0  0
    5.8486   -1.3605    0.3190 H   0  0  0  0  0  0  0  0  0  0  0  0
    5.1587   -0.3723   -1.0483 H   0  0  0  0  0  0  0  0  0  0  0  0
   -8.1407   -0.7932    3.0128 H   0  0  0  0  0  0  0  0  0  0  0  0
   -6.8749   -1.8699    3.2071 H   0  0  0  0  0  0  0  0  0  0  0  0
   -6.9882   -2.6089    0.9739 H   0  0  0  0  0  0  0  0  0  0  0  0
   -8.7174   -2.0810    0.9179 H   0  0  0  0  0  0  0  0  0  0  0  0
   -6.4028    0.8371    2.2738 H   0  0  0  0  0  0  0  0  0  0  0  0
   -5.6379   -0.7845    1.9980 H   0  0  0  0  0  0  0  0  0  0  0  0
   -5.6559    1.3675   -0.1900 H   0  0  0  0  0  0  0  0  0  0  0  0
   -4.5096   -1.4382    0.3158 H   0  0  0  0  0  0  0  0  0  0  0  0
   -3.4847    0.1938    1.4554 H   0  0  0  0  0  0  0  0  0  0  0  0
   -1.4200    0.0018    1.1257 H   0  0  0  0  0  0  0  0  0  0  0  0
   -2.8757   -2.0670   -0.6510 H   0  0  0  0  0  0  0  0  0  0  0  0
   -2.9414   -1.0131   -3.1447 H   0  0  0  0  0  0  0  0  0  0  0  0
    0.6985    1.6154   -0.1293 H   0  0  0  0  0  0  0  0  0  0  0  0
    0.6282    0.8469    1.4802 H   0  0  0  0  0  0  0  0  0  0  0  0
    1.4419    0.5844   -1.8768 H   0  0  0  0  0  0  0  0  0  0  0  0
    2.1002   -2.4120   -2.0984 H   0  0  0  0  0  0  0  0  0  0  0  0
    3.1967   -0.9052   -2.2651 H   0  0  0  0  0  0  0  0  0  0  0  0
    2.4383    1.4824    1.8465 H   0  0  0  0  0  0  0  0  0  0  0  0
    2.3526   -0.2840    2.3594 H   0  0  0  0  0  0  0  0  0  0  0  0
    4.5218    1.4597    2.6651 H   0  0  0  0  0  0  0  0  0  0  0  0
    4.6634   -0.2944    2.6794 H   0  0  0  0  0  0  0  0  0  0  0  0
    3.7301   -1.5022    1.3678 H   0  0  0  0  0  0  0  0  0  0  0  0
    3.3557   -1.9764   -0.2679 H   0  0  0  0  0  0  0  0  0  0  0  0
    6.9089    1.4610   -0.6630 H   0  0  0  0  0  0  0  0  0  0  0  0
    8.0877    2.0561    0.5246 H   0  0  0  0  0  0  0  0  0  0  0  0
    7.8322   -0.6759   -0.8557 H   0  0  0  0  0  0  0  0  0  0  0  0
    9.2485    0.3602   -0.5923 H   0  0  0  0  0  0  0  0  0  0  0  0
    8.9232   -0.6166    3.0156 H   0  0  0  0  0  0  0  0  0  0  0  0
    8.9985    0.9639    2.0719 H   0  0  0  0  0  0  0  0  0  0  0  0
    6.6115   -0.9419    2.3161 H   0  0  0  0  0  0  0  0  0  0  0  0
    6.8184    0.5567    3.3137 H   0  0  0  0  0  0  0  0  0  0  0  0
  1  3  1  0
  2  3  1  0
  4  5  1  0
  7  8  1  0
  5  9  1  0
  9 10  1  0
  9 11  1  0
 13 14  1  0
  2 16  1  0
 15 16  1  0
  2 17  1  0
 17 18  1  0
  1 19  1  0
  4 19  1  0
 18 19  1  0
  5 20  1  0
 18 20  1  0
  8 21  1  0
  9 21  1  0
  4 22  1  0
  8 22  1  0
 22 23  1  0
  6 24  1  0
 21 24  1  0
  6 25  1  0
  7 25  1  0
 12 26  1  0
 25 26  1  0
  6 27  1  0
 27 28  1  0
 13 29  1  0
 28 29  1  0
 14 30  1  0
 27 30  1  0
 13 31  1  0
 31 32  1  0
 32 33  1  0
 33 34  1  0
 34 35  1  0
 31 36  1  0
 35 36  1  0
  1 37  1  0
  1 38  1  0
  2 39  1  0
  3 40  1  0
  3 41  1  0
  4 42  1  0
  5 43  1  0
  6 44  1  0
  7 45  1  0
  7 46  1  0
  8 47  1  0
 10 48  1  0
 10 49  1  0
 10 50  1  0
 11 51  1  0
 11 52  1  0
 11 53  1  0
 12 54  1  0
 12 55  1  0
 12 56  1  0
 13 57  1  0
 14 58  1  0
 14 59  1  0
 15 60  1  0
 15 61  1  0
 16 62  1  0
 16 63  1  0
 17 64  1  0
 17 65  1  0
 18 66  1  0
 19 67  1  0
 20 68  1  0
 21 69  1  0
 22 70  1  0
 23 71  1  0
 24 72  1  0
 24 73  1  0
 25 74  1  0
 26 75  1  0
 26 76  1  0
 28 77  1  0
 28 78  1  0
 29 79  1  0
 29 80  1  0
 30 81  1  0
 30 82  1  0
 32 83  1  0
 32 84  1  0
 33 85  1  0
 33 86  1  0
 35 87  1  0
 35 88  1  0
 36 89  1  0
 36 90  1  0
M  END
>  <PDBID>  (1) 
3AOX

>  <PDB ID>  (1) 
3AOX

>  <Generic Name>  (1) 
Alectinib

>  <Brand Name>  (1) 
Alecensa#Alecensaro

>  <DrugBank ID>  (1) 
DB11363

>  <ATC Codes>  (1) 
nan

>  <Ligand ID>  (1) 
EMH

>  <Target Name>  (1) 
ALK tyrosine kinase receptor

>  <UniProt ID>  (1) 
Q9UM73

>  <PDB ID.1>  (1) 
3AOX

>  <Seq. Identity>  (1) 
100%

$$$$
