PDB_DB01095_09
     RDKit          3D

296304  0  0  0  0  0  0  0  0999 V2000
   -2.4205    0.6951   -1.0103 C   0  0  0  0  0  0  0  0  0  0  0  0
   -2.3429    1.5262    0.2950 C   0  0  0  0  0  0  0  0  0  0  0  0
   -2.5920    2.9258   -0.0659 C   0  0  0  0  0  0  0  0  0  0  0  0
   -1.7083    3.5142   -1.1365 C   0  0  0  0  0  0  0  0  0  0  0  0
   -1.7912    2.5888   -2.3607 C   0  0  0  0  0  0  0  0  0  0  0  0
   -1.3037    1.2240   -1.8413 C   0  0  0  0  0  0  0  0  0  0  0  0
   -2.1419   -0.6440   -0.3431 C   0  0  0  0  0  0  0  0  0  0  0  0
   -0.9247   -0.2842    0.4331 C   0  0  0  0  0  0  0  0  0  0  0  0
   -1.0446    1.1319    0.7357 N   0  0  0  0  0  0  0  0  0  0  0  0
   -3.0419   -4.0349   -0.5744 C   0  0  0  0  0  0  0  0  0  0  0  0
   -1.8739   -3.0601   -0.4521 C   0  0  0  0  0  0  0  0  0  0  0  0
   -2.1000   -1.7922   -1.2462 C   0  0  0  0  0  0  0  0  0  0  0  0
   -3.3727   -1.9974   -2.0377 C   0  0  0  0  0  0  0  0  0  0  0  0
   -4.5713   -2.1788   -1.1445 C   0  0  0  0  0  0  0  0  0  0  0  0
   -4.3380   -3.3662   -0.2723 C   0  0  0  0  0  0  0  0  0  0  0  0
   -4.3674   -2.9679    1.0571 F   0  0  0  0  0  0  0  0  0  0  0  0
    7.0002   -1.1553    0.0632 O   0  0  0  0  0  0  0  0  0  0  0  0
    7.1291    0.7859   -1.0382 O   0  0  0  0  0  0  0  0  0  0  0  0
    3.6307    1.2551    1.3431 O   0  0  0  0  0  0  0  0  0  0  0  0
    7.0128    0.1990    0.2447 C   0  0  0  0  0  0  0  0  0  0  0  0
    5.8837    0.7819    1.0047 C   0  0  0  0  0  0  0  0  0  0  0  0
    4.5120    0.6069    0.4452 C   0  0  1  0  0  0  0  0  0  0  0  0
    4.0988   -0.8183    0.3511 C   0  0  0  0  0  0  0  0  0  0  0  0
    2.7222   -0.9911   -0.1605 C   0  0  1  0  0  0  0  0  0  0  0  0
    1.5985   -0.3743    0.6184 C   0  0  0  0  0  0  0  0  0  0  0  0
    0.3295   -0.7591   -0.1483 C   0  0  0  0  0  0  0  0  0  0  0  0
   -0.8327    1.3692    2.1551 C   0  0  0  0  0  0  0  0  0  0  0  0
   -0.8982    2.8179    2.5427 C   0  0  0  0  0  0  0  0  0  0  0  0
   -1.7051    0.5237    3.0285 C   0  0  0  0  0  0  0  0  0  0  0  0
    2.6204   -0.6202   -1.5298 O   0  0  0  0  0  0  0  0  0  0  0  0
   -2.4205    0.6951   -1.0103 C   0  0  0  0  0  0  0  0  0  0  0  0
   -2.3429    1.5262    0.2950 C   0  0  0  0  0  0  0  0  0  0  0  0
   -2.5920    2.9258   -0.0659 C   0  0  0  0  0  0  0  0  0  0  0  0
   -1.7083    3.5142   -1.1365 C   0  0  0  0  0  0  0  0  0  0  0  0
   -1.7912    2.5888   -2.3607 C   0  0  0  0  0  0  0  0  0  0  0  0
   -1.3037    1.2240   -1.8413 C   0  0  0  0  0  0  0  0  0  0  0  0
   -2.1419   -0.6440   -0.3431 C   0  0  0  0  0  0  0  0  0  0  0  0
   -0.9247   -0.2842    0.4331 C   0  0  0  0  0  0  0  0  0  0  0  0
   -1.0446    1.1319    0.7357 N   0  0  0  0  0  0  0  0  0  0  0  0
   -3.0419   -4.0349   -0.5744 C   0  0  0  0  0  0  0  0  0  0  0  0
   -1.8739   -3.0601   -0.4521 C   0  0  0  0  0  0  0  0  0  0  0  0
   -2.1000   -1.7922   -1.2462 C   0  0  0  0  0  0  0  0  0  0  0  0
   -3.3727   -1.9974   -2.0377 C   0  0  0  0  0  0  0  0  0  0  0  0
   -4.5713   -2.1788   -1.1445 C   0  0  0  0  0  0  0  0  0  0  0  0
   -4.3380   -3.3662   -0.2723 C   0  0  0  0  0  0  0  0  0  0  0  0
   -4.3674   -2.9679    1.0571 F   0  0  0  0  0  0  0  0  0  0  0  0
    7.0002   -1.1553    0.0632 O   0  0  0  0  0  0  0  0  0  0  0  0
    7.1291    0.7859   -1.0382 O   0  0  0  0  0  0  0  0  0  0  0  0
    3.6307    1.2551    1.3431 O   0  0  0  0  0  0  0  0  0  0  0  0
    7.0128    0.1990    0.2447 C   0  0  0  0  0  0  0  0  0  0  0  0
    5.8837    0.7819    1.0047 C   0  0  0  0  0  0  0  0  0  0  0  0
    4.5120    0.6069    0.4452 C   0  0  1  0  0  0  0  0  0  0  0  0
    4.0988   -0.8183    0.3511 C   0  0  0  0  0  0  0  0  0  0  0  0
    2.7222   -0.9911   -0.1605 C   0  0  1  0  0  0  0  0  0  0  0  0
    1.5985   -0.3743    0.6184 C   0  0  0  0  0  0  0  0  0  0  0  0
    0.3295   -0.7591   -0.1483 C   0  0  0  0  0  0  0  0  0  0  0  0
   -0.8327    1.3692    2.1551 C   0  0  0  0  0  0  0  0  0  0  0  0
   -0.8982    2.8179    2.5427 C   0  0  0  0  0  0  0  0  0  0  0  0
   -1.7051    0.5237    3.0285 C   0  0  0  0  0  0  0  0  0  0  0  0
    2.6204   -0.6202   -1.5298 O   0  0  0  0  0  0  0  0  0  0  0  0
   -2.4205    0.6951   -1.0103 C   0  0  0  0  0  0  0  0  0  0  0  0
   -2.3429    1.5262    0.2950 C   0  0  0  0  0  0  0  0  0  0  0  0
   -2.5920    2.9258   -0.0659 C   0  0  0  0  0  0  0  0  0  0  0  0
   -1.7083    3.5142   -1.1365 C   0  0  0  0  0  0  0  0  0  0  0  0
   -1.7912    2.5888   -2.3607 C   0  0  0  0  0  0  0  0  0  0  0  0
   -1.3037    1.2240   -1.8413 C   0  0  0  0  0  0  0  0  0  0  0  0
   -2.1419   -0.6440   -0.3431 C   0  0  0  0  0  0  0  0  0  0  0  0
   -0.9247   -0.2842    0.4331 C   0  0  0  0  0  0  0  0  0  0  0  0
   -1.0446    1.1319    0.7357 N   0  0  0  0  0  0  0  0  0  0  0  0
   -3.0419   -4.0349   -0.5744 C   0  0  0  0  0  0  0  0  0  0  0  0
   -1.8739   -3.0601   -0.4521 C   0  0  0  0  0  0  0  0  0  0  0  0
   -2.1000   -1.7922   -1.2462 C   0  0  0  0  0  0  0  0  0  0  0  0
   -3.3727   -1.9974   -2.0377 C   0  0  0  0  0  0  0  0  0  0  0  0
   -4.5713   -2.1788   -1.1445 C   0  0  0  0  0  0  0  0  0  0  0  0
   -4.3380   -3.3662   -0.2723 C   0  0  0  0  0  0  0  0  0  0  0  0
   -4.3674   -2.9679    1.0571 F   0  0  0  0  0  0  0  0  0  0  0  0
    7.0002   -1.1553    0.0632 O   0  0  0  0  0  0  0  0  0  0  0  0
    7.1291    0.7859   -1.0382 O   0  0  0  0  0  0  0  0  0  0  0  0
    3.6307    1.2551    1.3431 O   0  0  0  0  0  0  0  0  0  0  0  0
    7.0128    0.1990    0.2447 C   0  0  0  0  0  0  0  0  0  0  0  0
    5.8837    0.7819    1.0047 C   0  0  0  0  0  0  0  0  0  0  0  0
    4.5120    0.6069    0.4452 C   0  0  1  0  0  0  0  0  0  0  0  0
    4.0988   -0.8183    0.3511 C   0  0  0  0  0  0  0  0  0  0  0  0
    2.7222   -0.9911   -0.1605 C   0  0  1  0  0  0  0  0  0  0  0  0
    1.5985   -0.3743    0.6184 C   0  0  0  0  0  0  0  0  0  0  0  0
    0.3295   -0.7591   -0.1483 C   0  0  0  0  0  0  0  0  0  0  0  0
   -0.8327    1.3692    2.1551 C   0  0  0  0  0  0  0  0  0  0  0  0
   -0.8982    2.8179    2.5427 C   0  0  0  0  0  0  0  0  0  0  0  0
   -1.7051    0.5237    3.0285 C   0  0  0  0  0  0  0  0  0  0  0  0
    2.6204   -0.6202   -1.5298 O   0  0  0  0  0  0  0  0  0  0  0  0
   -2.4205    0.6951   -1.0103 C   0  0  0  0  0  0  0  0  0  0  0  0
   -2.3429    1.5262    0.2950 C   0  0  0  0  0  0  0  0  0  0  0  0
   -2.5920    2.9258   -0.0659 C   0  0  0  0  0  0  0  0  0  0  0  0
   -1.7083    3.5142   -1.1365 C   0  0  0  0  0  0  0  0  0  0  0  0
   -1.7912    2.5888   -2.3607 C   0  0  0  0  0  0  0  0  0  0  0  0
   -1.3037    1.2240   -1.8413 C   0  0  0  0  0  0  0  0  0  0  0  0
   -2.1419   -0.6440   -0.3431 C   0  0  0  0  0  0  0  0  0  0  0  0
   -0.9247   -0.2842    0.4331 C   0  0  0  0  0  0  0  0  0  0  0  0
   -1.0446    1.1319    0.7357 N   0  0  0  0  0  0  0  0  0  0  0  0
   -3.0419   -4.0349   -0.5744 C   0  0  0  0  0  0  0  0  0  0  0  0
   -1.8739   -3.0601   -0.4521 C   0  0  0  0  0  0  0  0  0  0  0  0
   -2.1000   -1.7922   -1.2462 C   0  0  0  0  0  0  0  0  0  0  0  0
   -3.3727   -1.9974   -2.0377 C   0  0  0  0  0  0  0  0  0  0  0  0
   -4.5713   -2.1788   -1.1445 C   0  0  0  0  0  0  0  0  0  0  0  0
   -4.3380   -3.3662   -0.2723 C   0  0  0  0  0  0  0  0  0  0  0  0
   -4.3674   -2.9679    1.0571 F   0  0  0  0  0  0  0  0  0  0  0  0
    7.0002   -1.1553    0.0632 O   0  0  0  0  0  0  0  0  0  0  0  0
    7.1291    0.7859   -1.0382 O   0  0  0  0  0  0  0  0  0  0  0  0
    3.6307    1.2551    1.3431 O   0  0  0  0  0  0  0  0  0  0  0  0
    7.0128    0.1990    0.2447 C   0  0  0  0  0  0  0  0  0  0  0  0
    5.8837    0.7819    1.0047 C   0  0  0  0  0  0  0  0  0  0  0  0
    4.5120    0.6069    0.4452 C   0  0  1  0  0  0  0  0  0  0  0  0
    4.0988   -0.8183    0.3511 C   0  0  0  0  0  0  0  0  0  0  0  0
    2.7222   -0.9911   -0.1605 C   0  0  1  0  0  0  0  0  0  0  0  0
    1.5985   -0.3743    0.6184 C   0  0  0  0  0  0  0  0  0  0  0  0
    0.3295   -0.7591   -0.1483 C   0  0  0  0  0  0  0  0  0  0  0  0
   -0.8327    1.3692    2.1551 C   0  0  0  0  0  0  0  0  0  0  0  0
   -0.8982    2.8179    2.5427 C   0  0  0  0  0  0  0  0  0  0  0  0
   -1.7051    0.5237    3.0285 C   0  0  0  0  0  0  0  0  0  0  0  0
    2.6204   -0.6202   -1.5298 O   0  0  0  0  0  0  0  0  0  0  0  0
   -3.4038    0.7627   -1.4621 H   0  0  0  0  0  0  0  0  0  0  0  0
   -3.1806    1.1639    0.9202 H   0  0  0  0  0  0  0  0  0  0  0  0
   -2.6868    3.6529    0.7377 H   0  0  0  0  0  0  0  0  0  0  0  0
   -3.6251    2.9280   -0.5494 H   0  0  0  0  0  0  0  0  0  0  0  0
   -0.6686    3.5757   -0.7686 H   0  0  0  0  0  0  0  0  0  0  0  0
   -2.0809    4.5238   -1.3668 H   0  0  0  0  0  0  0  0  0  0  0  0
   -2.8545    2.5099   -2.6117 H   0  0  0  0  0  0  0  0  0  0  0  0
   -1.1562    2.9388   -3.1791 H   0  0  0  0  0  0  0  0  0  0  0  0
   -0.9504    0.5883   -2.6402 H   0  0  0  0  0  0  0  0  0  0  0  0
   -0.4315    1.5158   -1.1845 H   0  0  0  0  0  0  0  0  0  0  0  0
   -2.9804   -0.7762    0.3742 H   0  0  0  0  0  0  0  0  0  0  0  0
   -1.0101   -0.7909    1.4549 H   0  0  0  0  0  0  0  0  0  0  0  0
   -3.0276   -4.5978   -1.5125 H   0  0  0  0  0  0  0  0  0  0  0  0
   -2.8646   -4.7886    0.2415 H   0  0  0  0  0  0  0  0  0  0  0  0
   -0.9963   -3.6571   -0.8422 H   0  0  0  0  0  0  0  0  0  0  0  0
   -1.7733   -2.8444    0.6320 H   0  0  0  0  0  0  0  0  0  0  0  0
   -1.2827   -1.7690   -2.0092 H   0  0  0  0  0  0  0  0  0  0  0  0
   -3.5918   -1.1738   -2.7301 H   0  0  0  0  0  0  0  0  0  0  0  0
   -3.2617   -2.9214   -2.6388 H   0  0  0  0  0  0  0  0  0  0  0  0
   -5.4498   -2.3192   -1.8199 H   0  0  0  0  0  0  0  0  0  0  0  0
   -4.7225   -1.2363   -0.5807 H   0  0  0  0  0  0  0  0  0  0  0  0
   -5.1862   -4.0725   -0.4371 H   0  0  0  0  0  0  0  0  0  0  0  0
    7.3080   -1.4496   -0.8319 H   0  0  0  0  0  0  0  0  0  0  0  0
    7.5399    1.6831   -0.9594 H   0  0  0  0  0  0  0  0  0  0  0  0
    3.8274    2.2338    1.2013 H   0  0  0  0  0  0  0  0  0  0  0  0
    7.9916    0.4747    0.7416 H   0  0  0  0  0  0  0  0  0  0  0  0
    6.0460    1.8878    1.1068 H   0  0  0  0  0  0  0  0  0  0  0  0
    5.8706    0.4320    2.0800 H   0  0  0  0  0  0  0  0  0  0  0  0
    4.4555    1.1343   -0.5354 H   0  0  0  0  0  0  0  0  0  0  0  0
    4.1754   -1.3296    1.3390 H   0  0  0  0  0  0  0  0  0  0  0  0
    4.8424   -1.3671   -0.3122 H   0  0  0  0  0  0  0  0  0  0  0  0
    2.5513   -2.1171   -0.2126 H   0  0  0  0  0  0  0  0  0  0  0  0
    1.6910    0.7344    0.5447 H   0  0  0  0  0  0  0  0  0  0  0  0
    1.6082   -0.7750    1.6373 H   0  0  0  0  0  0  0  0  0  0  0  0
    0.5445   -0.6043   -1.1986 H   0  0  0  0  0  0  0  0  0  0  0  0
    0.3229   -1.8934   -0.0333 H   0  0  0  0  0  0  0  0  0  0  0  0
    0.2296    1.0589    2.3635 H   0  0  0  0  0  0  0  0  0  0  0  0
   -1.9182    3.0359    2.8998 H   0  0  0  0  0  0  0  0  0  0  0  0
   -0.5514    3.5033    1.7704 H   0  0  0  0  0  0  0  0  0  0  0  0
   -0.2404    3.0288    3.4373 H   0  0  0  0  0  0  0  0  0  0  0  0
   -1.1179   -0.2979    3.4940 H   0  0  0  0  0  0  0  0  0  0  0  0
   -2.6186    0.1425    2.5756 H   0  0  0  0  0  0  0  0  0  0  0  0
   -2.0410    1.1766    3.8872 H   0  0  0  0  0  0  0  0  0  0  0  0
    3.5017   -0.8065   -1.9787 H   0  0  0  0  0  0  0  0  0  0  0  0
   -3.4038    0.7627   -1.4621 H   0  0  0  0  0  0  0  0  0  0  0  0
   -3.1806    1.1639    0.9202 H   0  0  0  0  0  0  0  0  0  0  0  0
   -2.6868    3.6529    0.7377 H   0  0  0  0  0  0  0  0  0  0  0  0
   -3.6251    2.9280   -0.5494 H   0  0  0  0  0  0  0  0  0  0  0  0
   -0.6686    3.5757   -0.7686 H   0  0  0  0  0  0  0  0  0  0  0  0
   -2.0809    4.5238   -1.3668 H   0  0  0  0  0  0  0  0  0  0  0  0
   -2.8545    2.5099   -2.6117 H   0  0  0  0  0  0  0  0  0  0  0  0
   -1.1562    2.9388   -3.1791 H   0  0  0  0  0  0  0  0  0  0  0  0
   -0.9504    0.5883   -2.6402 H   0  0  0  0  0  0  0  0  0  0  0  0
   -0.4315    1.5158   -1.1845 H   0  0  0  0  0  0  0  0  0  0  0  0
   -2.9804   -0.7762    0.3742 H   0  0  0  0  0  0  0  0  0  0  0  0
   -1.0101   -0.7909    1.4549 H   0  0  0  0  0  0  0  0  0  0  0  0
   -3.0276   -4.5978   -1.5125 H   0  0  0  0  0  0  0  0  0  0  0  0
   -2.8646   -4.7886    0.2415 H   0  0  0  0  0  0  0  0  0  0  0  0
   -0.9963   -3.6571   -0.8422 H   0  0  0  0  0  0  0  0  0  0  0  0
   -1.7733   -2.8444    0.6320 H   0  0  0  0  0  0  0  0  0  0  0  0
   -1.2827   -1.7690   -2.0092 H   0  0  0  0  0  0  0  0  0  0  0  0
   -3.5918   -1.1738   -2.7301 H   0  0  0  0  0  0  0  0  0  0  0  0
   -3.2617   -2.9214   -2.6388 H   0  0  0  0  0  0  0  0  0  0  0  0
   -5.4498   -2.3192   -1.8199 H   0  0  0  0  0  0  0  0  0  0  0  0
   -4.7225   -1.2363   -0.5807 H   0  0  0  0  0  0  0  0  0  0  0  0
   -5.1862   -4.0725   -0.4371 H   0  0  0  0  0  0  0  0  0  0  0  0
    7.3080   -1.4496   -0.8319 H   0  0  0  0  0  0  0  0  0  0  0  0
    7.5399    1.6831   -0.9594 H   0  0  0  0  0  0  0  0  0  0  0  0
    3.8274    2.2338    1.2013 H   0  0  0  0  0  0  0  0  0  0  0  0
    7.9916    0.4747    0.7416 H   0  0  0  0  0  0  0  0  0  0  0  0
    6.0460    1.8878    1.1068 H   0  0  0  0  0  0  0  0  0  0  0  0
    5.8706    0.4320    2.0800 H   0  0  0  0  0  0  0  0  0  0  0  0
    4.4555    1.1343   -0.5354 H   0  0  0  0  0  0  0  0  0  0  0  0
    4.1754   -1.3296    1.3390 H   0  0  0  0  0  0  0  0  0  0  0  0
    4.8424   -1.3671   -0.3122 H   0  0  0  0  0  0  0  0  0  0  0  0
    2.5513   -2.1171   -0.2126 H   0  0  0  0  0  0  0  0  0  0  0  0
    1.6910    0.7344    0.5447 H   0  0  0  0  0  0  0  0  0  0  0  0
    1.6082   -0.7750    1.6373 H   0  0  0  0  0  0  0  0  0  0  0  0
    0.5445   -0.6043   -1.1986 H   0  0  0  0  0  0  0  0  0  0  0  0
    0.3229   -1.8934   -0.0333 H   0  0  0  0  0  0  0  0  0  0  0  0
    0.2296    1.0589    2.3635 H   0  0  0  0  0  0  0  0  0  0  0  0
   -1.9182    3.0359    2.8998 H   0  0  0  0  0  0  0  0  0  0  0  0
   -0.5514    3.5033    1.7704 H   0  0  0  0  0  0  0  0  0  0  0  0
   -0.2404    3.0288    3.4373 H   0  0  0  0  0  0  0  0  0  0  0  0
   -1.1179   -0.2979    3.4940 H   0  0  0  0  0  0  0  0  0  0  0  0
   -2.6186    0.1425    2.5756 H   0  0  0  0  0  0  0  0  0  0  0  0
   -2.0410    1.1766    3.8872 H   0  0  0  0  0  0  0  0  0  0  0  0
    3.5017   -0.8065   -1.9787 H   0  0  0  0  0  0  0  0  0  0  0  0
   -3.4038    0.7627   -1.4621 H   0  0  0  0  0  0  0  0  0  0  0  0
   -3.1806    1.1639    0.9202 H   0  0  0  0  0  0  0  0  0  0  0  0
   -2.6868    3.6529    0.7377 H   0  0  0  0  0  0  0  0  0  0  0  0
   -3.6251    2.9280   -0.5494 H   0  0  0  0  0  0  0  0  0  0  0  0
   -0.6686    3.5757   -0.7686 H   0  0  0  0  0  0  0  0  0  0  0  0
   -2.0809    4.5238   -1.3668 H   0  0  0  0  0  0  0  0  0  0  0  0
   -2.8545    2.5099   -2.6117 H   0  0  0  0  0  0  0  0  0  0  0  0
   -1.1562    2.9388   -3.1791 H   0  0  0  0  0  0  0  0  0  0  0  0
   -0.9504    0.5883   -2.6402 H   0  0  0  0  0  0  0  0  0  0  0  0
   -0.4315    1.5158   -1.1845 H   0  0  0  0  0  0  0  0  0  0  0  0
   -2.9804   -0.7762    0.3742 H   0  0  0  0  0  0  0  0  0  0  0  0
   -1.0101   -0.7909    1.4549 H   0  0  0  0  0  0  0  0  0  0  0  0
   -3.0276   -4.5978   -1.5125 H   0  0  0  0  0  0  0  0  0  0  0  0
   -2.8646   -4.7886    0.2415 H   0  0  0  0  0  0  0  0  0  0  0  0
   -0.9963   -3.6571   -0.8422 H   0  0  0  0  0  0  0  0  0  0  0  0
   -1.7733   -2.8444    0.6320 H   0  0  0  0  0  0  0  0  0  0  0  0
   -1.2827   -1.7690   -2.0092 H   0  0  0  0  0  0  0  0  0  0  0  0
   -3.5918   -1.1738   -2.7301 H   0  0  0  0  0  0  0  0  0  0  0  0
   -3.2617   -2.9214   -2.6388 H   0  0  0  0  0  0  0  0  0  0  0  0
   -5.4498   -2.3192   -1.8199 H   0  0  0  0  0  0  0  0  0  0  0  0
   -4.7225   -1.2363   -0.5807 H   0  0  0  0  0  0  0  0  0  0  0  0
   -5.1862   -4.0725   -0.4371 H   0  0  0  0  0  0  0  0  0  0  0  0
    7.3080   -1.4496   -0.8319 H   0  0  0  0  0  0  0  0  0  0  0  0
    7.5399    1.6831   -0.9594 H   0  0  0  0  0  0  0  0  0  0  0  0
    3.8274    2.2338    1.2013 H   0  0  0  0  0  0  0  0  0  0  0  0
    7.9916    0.4747    0.7416 H   0  0  0  0  0  0  0  0  0  0  0  0
    6.0460    1.8878    1.1068 H   0  0  0  0  0  0  0  0  0  0  0  0
    5.8706    0.4320    2.0800 H   0  0  0  0  0  0  0  0  0  0  0  0
    4.4555    1.1343   -0.5354 H   0  0  0  0  0  0  0  0  0  0  0  0
    4.1754   -1.3296    1.3390 H   0  0  0  0  0  0  0  0  0  0  0  0
    4.8424   -1.3671   -0.3122 H   0  0  0  0  0  0  0  0  0  0  0  0
    2.5513   -2.1171   -0.2126 H   0  0  0  0  0  0  0  0  0  0  0  0
    1.6910    0.7344    0.5447 H   0  0  0  0  0  0  0  0  0  0  0  0
    1.6082   -0.7750    1.6373 H   0  0  0  0  0  0  0  0  0  0  0  0
    0.5445   -0.6043   -1.1986 H   0  0  0  0  0  0  0  0  0  0  0  0
    0.3229   -1.8934   -0.0333 H   0  0  0  0  0  0  0  0  0  0  0  0
    0.2296    1.0589    2.3635 H   0  0  0  0  0  0  0  0  0  0  0  0
   -1.9182    3.0359    2.8998 H   0  0  0  0  0  0  0  0  0  0  0  0
   -0.5514    3.5033    1.7704 H   0  0  0  0  0  0  0  0  0  0  0  0
   -0.2404    3.0288    3.4373 H   0  0  0  0  0  0  0  0  0  0  0  0
   -1.1179   -0.2979    3.4940 H   0  0  0  0  0  0  0  0  0  0  0  0
   -2.6186    0.1425    2.5756 H   0  0  0  0  0  0  0  0  0  0  0  0
   -2.0410    1.1766    3.8872 H   0  0  0  0  0  0  0  0  0  0  0  0
    3.5017   -0.8065   -1.9787 H   0  0  0  0  0  0  0  0  0  0  0  0
   -3.4038    0.7627   -1.4621 H   0  0  0  0  0  0  0  0  0  0  0  0
   -3.1806    1.1639    0.9202 H   0  0  0  0  0  0  0  0  0  0  0  0
   -2.6868    3.6529    0.7377 H   0  0  0  0  0  0  0  0  0  0  0  0
   -3.6251    2.9280   -0.5494 H   0  0  0  0  0  0  0  0  0  0  0  0
   -0.6686    3.5757   -0.7686 H   0  0  0  0  0  0  0  0  0  0  0  0
   -2.0809    4.5238   -1.3668 H   0  0  0  0  0  0  0  0  0  0  0  0
   -2.8545    2.5099   -2.6117 H   0  0  0  0  0  0  0  0  0  0  0  0
   -1.1562    2.9388   -3.1791 H   0  0  0  0  0  0  0  0  0  0  0  0
   -0.9504    0.5883   -2.6402 H   0  0  0  0  0  0  0  0  0  0  0  0
   -0.4315    1.5158   -1.1845 H   0  0  0  0  0  0  0  0  0  0  0  0
   -2.9804   -0.7762    0.3742 H   0  0  0  0  0  0  0  0  0  0  0  0
   -1.0101   -0.7909    1.4549 H   0  0  0  0  0  0  0  0  0  0  0  0
   -3.0276   -4.5978   -1.5125 H   0  0  0  0  0  0  0  0  0  0  0  0
   -2.8646   -4.7886    0.2415 H   0  0  0  0  0  0  0  0  0  0  0  0
   -0.9963   -3.6571   -0.8422 H   0  0  0  0  0  0  0  0  0  0  0  0
   -1.7733   -2.8444    0.6320 H   0  0  0  0  0  0  0  0  0  0  0  0
   -1.2827   -1.7690   -2.0092 H   0  0  0  0  0  0  0  0  0  0  0  0
   -3.5918   -1.1738   -2.7301 H   0  0  0  0  0  0  0  0  0  0  0  0
   -3.2617   -2.9214   -2.6388 H   0  0  0  0  0  0  0  0  0  0  0  0
   -5.4498   -2.3192   -1.8199 H   0  0  0  0  0  0  0  0  0  0  0  0
   -4.7225   -1.2363   -0.5807 H   0  0  0  0  0  0  0  0  0  0  0  0
   -5.1862   -4.0725   -0.4371 H   0  0  0  0  0  0  0  0  0  0  0  0
    7.3080   -1.4496   -0.8319 H   0  0  0  0  0  0  0  0  0  0  0  0
    7.5399    1.6831   -0.9594 H   0  0  0  0  0  0  0  0  0  0  0  0
    3.8274    2.2338    1.2013 H   0  0  0  0  0  0  0  0  0  0  0  0
    7.9916    0.4747    0.7416 H   0  0  0  0  0  0  0  0  0  0  0  0
    6.0460    1.8878    1.1068 H   0  0  0  0  0  0  0  0  0  0  0  0
    5.8706    0.4320    2.0800 H   0  0  0  0  0  0  0  0  0  0  0  0
    4.4555    1.1343   -0.5354 H   0  0  0  0  0  0  0  0  0  0  0  0
    4.1754   -1.3296    1.3390 H   0  0  0  0  0  0  0  0  0  0  0  0
    4.8424   -1.3671   -0.3122 H   0  0  0  0  0  0  0  0  0  0  0  0
    2.5513   -2.1171   -0.2126 H   0  0  0  0  0  0  0  0  0  0  0  0
    1.6910    0.7344    0.5447 H   0  0  0  0  0  0  0  0  0  0  0  0
    1.6082   -0.7750    1.6373 H   0  0  0  0  0  0  0  0  0  0  0  0
    0.5445   -0.6043   -1.1986 H   0  0  0  0  0  0  0  0  0  0  0  0
    0.3229   -1.8934   -0.0333 H   0  0  0  0  0  0  0  0  0  0  0  0
    0.2296    1.0589    2.3635 H   0  0  0  0  0  0  0  0  0  0  0  0
   -1.9182    3.0359    2.8998 H   0  0  0  0  0  0  0  0  0  0  0  0
   -0.5514    3.5033    1.7704 H   0  0  0  0  0  0  0  0  0  0  0  0
   -0.2404    3.0288    3.4373 H   0  0  0  0  0  0  0  0  0  0  0  0
   -1.1179   -0.2979    3.4940 H   0  0  0  0  0  0  0  0  0  0  0  0
   -2.6186    0.1425    2.5756 H   0  0  0  0  0  0  0  0  0  0  0  0
   -2.0410    1.1766    3.8872 H   0  0  0  0  0  0  0  0  0  0  0  0
    3.5017   -0.8065   -1.9787 H   0  0  0  0  0  0  0  0  0  0  0  0
  1  2  1  0
  2  3  1  0
  3  4  1  0
  4  5  1  0
  1  6  1  0
  5  6  1  0
  1  7  1  0
  7  8  1  0
  2  9  1  0
  8  9  1  0
 10 11  1  0
  7 12  1  0
 11 12  1  0
 12 13  1  0
 13 14  1  0
 10 15  1  0
 14 15  1  0
 15 16  1  0
 17 20  1  0
 18 20  1  0
 20 21  1  0
 19 22  1  0
 21 22  1  0
 22 23  1  0
 23 24  1  0
 24 25  1  0
  8 26  1  0
 25 26  1  0
  9 27  1  0
 27 28  1  0
 27 29  1  0
 24 30  1  0
 31 32  1  0
 32 33  1  0
 33 34  1  0
 34 35  1  0
 31 36  1  0
 35 36  1  0
 31 37  1  0
 37 38  1  0
 32 39  1  0
 38 39  1  0
 40 41  1  0
 37 42  1  0
 41 42  1  0
 42 43  1  0
 43 44  1  0
 40 45  1  0
 44 45  1  0
 45 46  1  0
 47 50  1  0
 48 50  1  0
 50 51  1  0
 49 52  1  0
 51 52  1  0
 52 53  1  0
 53 54  1  0
 54 55  1  0
 38 56  1  0
 55 56  1  0
 39 57  1  0
 57 58  1  0
 57 59  1  0
 54 60  1  0
 61 62  1  0
 62 63  1  0
 63 64  1  0
 64 65  1  0
 61 66  1  0
 65 66  1  0
 61 67  1  0
 67 68  1  0
 62 69  1  0
 68 69  1  0
 70 71  1  0
 67 72  1  0
 71 72  1  0
 72 73  1  0
 73 74  1  0
 70 75  1  0
 74 75  1  0
 75 76  1  0
 77 80  1  0
 78 80  1  0
 80 81  1  0
 79 82  1  0
 81 82  1  0
 82 83  1  0
 83 84  1  0
 84 85  1  0
 68 86  1  0
 85 86  1  0
 69 87  1  0
 87 88  1  0
 87 89  1  0
 84 90  1  0
 91 92  1  0
 92 93  1  0
 93 94  1  0
 94 95  1  0
 91 96  1  0
 95 96  1  0
 91 97  1  0
 97 98  1  0
 92 99  1  0
 98 99  1  0
100101  1  0
 97102  1  0
101102  1  0
102103  1  0
103104  1  0
100105  1  0
104105  1  0
105106  1  0
107110  1  0
108110  1  0
110111  1  0
109112  1  0
111112  1  0
112113  1  0
113114  1  0
114115  1  0
 98116  1  0
115116  1  0
 99117  1  0
117118  1  0
117119  1  0
114120  1  0
  1121  1  0
  2122  1  0
  3123  1  0
  3124  1  0
  4125  1  0
  4126  1  0
  5127  1  0
  5128  1  0
  6129  1  0
  6130  1  0
  7131  1  0
  8132  1  0
 10133  1  0
 10134  1  0
 11135  1  0
 11136  1  0
 12137  1  0
 13138  1  0
 13139  1  0
 14140  1  0
 14141  1  0
 15142  1  0
 17143  1  0
 18144  1  0
 19145  1  0
 20146  1  0
 21147  1  0
 21148  1  0
 22149  1  6
 23150  1  0
 23151  1  0
 24152  1  6
 25153  1  0
 25154  1  0
 26155  1  0
 26156  1  0
 27157  1  0
 28158  1  0
 28159  1  0
 28160  1  0
 29161  1  0
 29162  1  0
 29163  1  0
 30164  1  0
 31165  1  0
 32166  1  0
 33167  1  0
 33168  1  0
 34169  1  0
 34170  1  0
 35171  1  0
 35172  1  0
 36173  1  0
 36174  1  0
 37175  1  0
 38176  1  0
 40177  1  0
 40178  1  0
 41179  1  0
 41180  1  0
 42181  1  0
 43182  1  0
 43183  1  0
 44184  1  0
 44185  1  0
 45186  1  0
 47187  1  0
 48188  1  0
 49189  1  0
 50190  1  0
 51191  1  0
 51192  1  0
 52193  1  6
 53194  1  0
 53195  1  0
 54196  1  6
 55197  1  0
 55198  1  0
 56199  1  0
 56200  1  0
 57201  1  0
 58202  1  0
 58203  1  0
 58204  1  0
 59205  1  0
 59206  1  0
 59207  1  0
 60208  1  0
 61209  1  0
 62210  1  0
 63211  1  0
 63212  1  0
 64213  1  0
 64214  1  0
 65215  1  0
 65216  1  0
 66217  1  0
 66218  1  0
 67219  1  0
 68220  1  0
 70221  1  0
 70222  1  0
 71223  1  0
 71224  1  0
 72225  1  0
 73226  1  0
 73227  1  0
 74228  1  0
 74229  1  0
 75230  1  0
 77231  1  0
 78232  1  0
 79233  1  0
 80234  1  0
 81235  1  0
 81236  1  0
 82237  1  6
 83238  1  0
 83239  1  0
 84240  1  6
 85241  1  0
 85242  1  0
 86243  1  0
 86244  1  0
 87245  1  0
 88246  1  0
 88247  1  0
 88248  1  0
 89249  1  0
 89250  1  0
 89251  1  0
 90252  1  0
 91253  1  0
 92254  1  0
 93255  1  0
 93256  1  0
 94257  1  0
 94258  1  0
 95259  1  0
 95260  1  0
 96261  1  0
 96262  1  0
 97263  1  0
 98264  1  0
100265  1  0
100266  1  0
101267  1  0
101268  1  0
102269  1  0
103270  1  0
103271  1  0
104272  1  0
104273  1  0
105274  1  0
107275  1  0
108276  1  0
109277  1  0
110278  1  0
111279  1  0
111280  1  0
112281  1  6
113282  1  0
113283  1  0
114284  1  6
115285  1  0
115286  1  0
116287  1  0
116288  1  0
117289  1  0
118290  1  0
118291  1  0
118292  1  0
119293  1  0
119294  1  0
119295  1  0
120296  1  0
M  END
>  <PDBID>  (1) 
1HWI

>  <PDB ID>  (1) 
1HWI

>  <Generic Name>  (1) 
Fluvastatin

>  <Brand Name>  (1) 
Fluvastatin#Fluvastatin Sodium#Fluvastatin Sodium ER#Lescol#Lescol 20mg#Lescol 40mg#Lescol XL#Sandoz Fluvastatin#Teva-fluvastatin#Canef#Cranoc

>  <DrugBank ID>  (1) 
DB01095

>  <ATC Codes>  (1) 
C10AA04

>  <Ligand ID>  (1) 
115

>  <Target Name>  (1) 
3-hydroxy-3-methylglutaryl-coenzyme A reductase

>  <UniProt ID>  (1) 
P04035

>  <PDB ID.1>  (1) 
1HWI

>  <Seq. Identity>  (1) 
97%

$$$$
