PDB_DB01222_09
     RDKit          3D

 73 77  0  0  0  0  0  0  0  0999 V2000
    5.5368    2.3942   -0.3537 C   0  0  0  0  0  0  0  0  0  0  0  0
    4.1362    2.8921   -0.1162 C   0  0  0  0  0  0  0  0  0  0  0  0
    3.1696    2.2691   -1.1309 C   0  0  0  0  0  0  0  0  0  0  0  0
    2.4761   -1.2065   -1.2804 C   0  0  1  0  0  0  0  0  0  0  0  0
    1.0699   -1.8175   -1.5311 C   0  0  0  0  0  0  0  0  0  0  0  0
    0.3079   -0.8589   -0.7114 C   0  0  1  0  0  0  0  0  0  0  0  0
   -1.1190   -1.0394   -0.4526 C   0  0  2  0  0  0  0  0  0  0  0  0
   -1.9655   -1.4246   -1.6120 C   0  0  0  0  0  0  0  0  0  0  0  0
   -3.1415   -0.5797   -1.8425 C   0  0  0  0  0  0  0  0  0  0  0  0
   -3.8719   -0.0682   -0.6512 C   0  0  0  0  0  0  0  0  0  0  0  0
   -4.9975    1.4322    1.2356 C   0  0  0  0  0  0  0  0  0  0  0  0
   -3.4860    1.3856    1.2945 C   0  0  0  0  0  0  0  0  0  0  0  0
   -2.9435    0.1858    0.5497 C   0  0  2  0  0  0  0  0  0  0  0  0
    0.5896    0.3360    1.3537 C   0  0  0  0  0  0  0  0  0  0  0  0
    3.4294   -1.7140    0.9984 C   0  0  0  0  0  0  0  0  0  0  0  0
    3.4136   -3.2017    0.8642 C   0  0  0  0  0  0  0  0  0  0  0  0
    0.5991   -2.0578    1.4962 C   0  0  0  0  0  0  0  0  0  0  0  0
    3.2397    0.7810   -0.9323 C   0  0  2  0  0  0  0  0  0  0  0  0
    2.3993    0.0902   -1.8024 O   0  0  0  0  0  0  0  0  0  0  0  0
   -4.4980    1.2563   -1.1207 C   0  0  0  0  0  0  0  0  0  0  0  0
   -5.4829    1.7917   -0.1504 C   0  0  0  0  0  0  0  0  0  0  0  0
   -5.4605    3.1940   -0.2338 O   0  0  0  0  0  0  0  0  0  0  0  0
   -1.5880    0.3530    0.0129 C   0  0  1  0  0  0  0  0  0  0  0  0
   -0.5531    1.0677    0.7549 C   0  0  1  0  0  0  0  0  0  0  0  0
    1.0271   -0.9231    0.6380 C   0  0  1  0  0  0  0  0  0  0  0  0
    2.4666   -0.9262    0.2027 C   0  0  2  0  0  0  0  0  0  0  0  0
    2.8855    0.4341    0.3425 O   0  0  0  0  0  0  0  0  0  0  0  0
    4.7232   -1.3382    0.4572 O   0  0  0  0  0  0  0  0  0  0  0  0
    3.5352   -3.6634   -0.4490 O   0  0  0  0  0  0  0  0  0  0  0  0
   -1.0749    1.8757    1.7966 O   0  0  0  0  0  0  0  0  0  0  0  0
   -3.1512   -0.9834    1.4887 C   0  0  0  0  0  0  0  0  0  0  0  0
    6.3151    3.1276   -0.0794 H   0  0  0  0  0  0  0  0  0  0  0  0
    5.6863    2.0576   -1.4159 H   0  0  0  0  0  0  0  0  0  0  0  0
    5.7538    1.4757    0.2593 H   0  0  0  0  0  0  0  0  0  0  0  0
    3.8394    2.6101    0.9155 H   0  0  0  0  0  0  0  0  0  0  0  0
    4.1121    3.9977   -0.1606 H   0  0  0  0  0  0  0  0  0  0  0  0
    2.1721    2.6972   -1.0330 H   0  0  0  0  0  0  0  0  0  0  0  0
    3.5805    2.5471   -2.1314 H   0  0  0  0  0  0  0  0  0  0  0  0
    3.2802   -1.7899   -1.6706 H   0  0  0  0  0  0  0  0  0  0  0  0
    1.0251   -2.8596   -1.2205 H   0  0  0  0  0  0  0  0  0  0  0  0
    0.8680   -1.7685   -2.6209 H   0  0  0  0  0  0  0  0  0  0  0  0
    0.5051    0.1627   -1.1225 H   0  0  0  0  0  0  0  0  0  0  0  0
   -1.2578   -1.8104    0.3106 H   0  0  0  0  0  0  0  0  0  0  0  0
   -2.2618   -2.5109   -1.5623 H   0  0  0  0  0  0  0  0  0  0  0  0
   -1.2923   -1.3905   -2.5208 H   0  0  0  0  0  0  0  0  0  0  0  0
   -3.8881   -1.1763   -2.4482 H   0  0  0  0  0  0  0  0  0  0  0  0
   -2.8449    0.2481   -2.5461 H   0  0  0  0  0  0  0  0  0  0  0  0
   -4.7050   -0.7246   -0.3779 H   0  0  0  0  0  0  0  0  0  0  0  0
   -5.5071    0.5253    1.5415 H   0  0  0  0  0  0  0  0  0  0  0  0
   -5.3559    2.2413    1.9300 H   0  0  0  0  0  0  0  0  0  0  0  0
   -3.2415    1.2679    2.3780 H   0  0  0  0  0  0  0  0  0  0  0  0
   -3.1441    2.3490    0.8648 H   0  0  0  0  0  0  0  0  0  0  0  0
    0.3374    0.1123    2.4383 H   0  0  0  0  0  0  0  0  0  0  0  0
    1.4819    0.9882    1.4429 H   0  0  0  0  0  0  0  0  0  0  0  0
    3.4670   -1.3565    2.0321 H   0  0  0  0  0  0  0  0  0  0  0  0
    2.5841   -3.7510    1.2990 H   0  0  0  0  0  0  0  0  0  0  0  0
    4.3680   -3.6155    1.3592 H   0  0  0  0  0  0  0  0  0  0  0  0
    0.4017   -3.0084    1.0231 H   0  0  0  0  0  0  0  0  0  0  0  0
   -0.3436   -1.7468    2.0628 H   0  0  0  0  0  0  0  0  0  0  0  0
    1.3102   -2.2144    2.3466 H   0  0  0  0  0  0  0  0  0  0  0  0
    4.2820    0.4697   -1.2010 H   0  0  0  0  0  0  0  0  0  0  0  0
   -3.6672    1.9407   -1.3595 H   0  0  0  0  0  0  0  0  0  0  0  0
   -5.0122    1.0130   -2.0699 H   0  0  0  0  0  0  0  0  0  0  0  0
   -6.5149    1.4576   -0.3051 H   0  0  0  0  0  0  0  0  0  0  0  0
   -4.8662    3.5072   -0.9537 H   0  0  0  0  0  0  0  0  0  0  0  0
   -1.7286    0.9123   -0.9762 H   0  0  0  0  0  0  0  0  0  0  0  0
   -0.0705    1.8519    0.0864 H   0  0  0  0  0  0  0  0  0  0  0  0
    5.4041   -1.9399    0.8078 H   0  0  0  0  0  0  0  0  0  0  0  0
    3.5327   -4.6487   -0.3916 H   0  0  0  0  0  0  0  0  0  0  0  0
   -0.4608    2.5996    2.0349 H   0  0  0  0  0  0  0  0  0  0  0  0
   -2.5079   -0.8794    2.4022 H   0  0  0  0  0  0  0  0  0  0  0  0
   -4.1920   -0.9387    1.9407 H   0  0  0  0  0  0  0  0  0  0  0  0
   -3.1154   -1.9657    1.0133 H   0  0  0  0  0  0  0  0  0  0  0  0
  1  2  1  0
  2  3  1  0
  4  5  1  0
  5  6  1  0
  6  7  1  0
  7  8  1  0
  8  9  1  0
  9 10  1  0
 11 12  1  0
 10 13  1  0
 12 13  1  0
 15 16  1  0
  3 18  1  0
  4 19  1  0
 18 19  1  0
 10 20  1  0
 11 21  1  0
 20 21  1  0
 21 22  1  0
  7 23  1  0
 13 23  1  0
 14 24  1  0
 23 24  1  0
  6 25  1  0
 14 25  1  0
 25 17  1  1
  4 26  1  0
 26 15  1  1
 25 26  1  0
 18 27  1  0
 26 27  1  0
 15 28  1  0
 16 29  1  0
 24 30  1  0
 13 31  1  1
  1 32  1  0
  1 33  1  0
  1 34  1  0
  2 35  1  0
  2 36  1  0
  3 37  1  0
  3 38  1  0
  4 39  1  6
  5 40  1  0
  5 41  1  0
  6 42  1  6
  7 43  1  1
  8 44  1  0
  8 45  1  0
  9 46  1  0
  9 47  1  0
 10 48  1  0
 11 49  1  0
 11 50  1  0
 12 51  1  0
 12 52  1  0
 14 53  1  0
 14 54  1  0
 15 55  1  0
 16 56  1  0
 16 57  1  0
 17 58  1  0
 17 59  1  0
 17 60  1  0
 18 61  1  6
 20 62  1  0
 20 63  1  0
 21 64  1  0
 22 65  1  0
 23 66  1  6
 24 67  1  6
 28 68  1  0
 29 69  1  0
 30 70  1  0
 31 71  1  0
 31 72  1  0
 31 73  1  0
M  END
>  <PDBID>  (1) 
5NFP

>  <PDB ID>  (1) 
5NFP

>  <Generic Name>  (1) 
Budesonide

>  <Brand Name>  (1) 
Budesonide#Budesonide (enteric Coated)#Budesonide Inhalation#Budesonide Nasal#Childrens Rhinocort Allergy#Cortiment#Entocort#Entocort EC#Entocort Enema#Mylan-budesonide AQ#Pulmicort Flexhaler#Pulmicort Nebuamp 0.125 mg/ml#Pulmicort Nebuamp 0.25 mg/ml#Pulmicort Nebuamp 0.5 mg/ml#Pulmicort Respules#Pulmicort Turbuhaler 100 Mcg/dose#Pulmicort Turbuhaler 200 Mcg/dose#Pulmicort Turbuhaler 400 Mcg/dose#Rhinocort Allergy#Rhinocort Aqua#Rhinocort Aqua 100mcg#Rhinocort Turbuhaler 100 Mcg/dose#Symbicort#Symbicort 100 Turbuhaler#Symbicort 200 Turbuhaler#Symbicort Forte Turbuhaler#Uceris#Bidien#Budeson#Budicort#ENTOCORT#Noex#Pulmicort#Rhinocort#Rhinosol#Spirocort

>  <DrugBank ID>  (1) 
DB01222

>  <ATC Codes>  (1) 
R03AK07#A07EA06#R03BA02#D07AC09#R03AK12#R01AD05

>  <Ligand ID>  (1) 
8W5

>  <Target Name>  (1) 
Glucocorticoid receptor

>  <UniProt ID>  (1) 
P04150

>  <PDB ID.1>  (1) 
5NFP

>  <Seq. Identity>  (1) 
98%

$$$$
