PDB_DB01409_03
     RDKit          3D

116124  0  0  0  0  0  0  0  0999 V2000
   -1.0442    0.5260   -0.9033 C   0  0  2  0  0  0  0  0  0  0  0  0
   -1.5547    0.5203   -2.1884 O   0  0  0  0  0  0  0  0  0  0  0  0
   -3.2436    0.6861    0.1045 C   0  0  0  0  0  0  0  0  0  0  0  0
   -2.3016   -1.5343   -0.2378 C   0  0  0  0  0  0  0  0  0  0  0  0
   -2.9825    2.1507    0.4963 C   0  0  0  0  0  0  0  0  0  0  0  0
   -4.3504    2.7160    0.7774 C   0  0  0  0  0  0  0  0  0  0  0  0
   -4.9673    1.9228    1.8853 C   0  0  0  0  0  0  0  0  0  0  0  0
   -3.2209   -2.2198    0.7086 C   0  0  0  0  0  0  0  0  0  0  0  0
   -3.0086   -3.7086    0.5876 C   0  0  0  0  0  0  0  0  0  0  0  0
   -1.5485   -3.9935    0.7863 C   0  0  0  0  0  0  0  0  0  0  0  0
    4.4083   -1.8199   -0.8298 O   0  0  0  0  0  0  0  0  0  0  0  0
    0.1941   -0.0763   -0.9351 O   0  0  0  0  0  0  0  0  0  0  0  0
   -1.4219   -0.0766    1.3691 O   0  0  0  0  0  0  0  0  0  0  0  0
   -4.3217    0.2425    1.5272 S   0  0  0  0  0  0  0  0  0  0  0  0
   -0.8387   -2.6074   -0.1946 S   0  0  0  0  0  0  0  0  0  0  0  0
    5.4535    0.3277   -0.2631 C   0  0  0  0  0  0  0  0  0  0  0  0
    3.5202    0.3520   -1.6038 C   0  0  2  0  0  0  0  0  0  0  0  0
    2.1871    1.0034   -1.7466 C   0  0  0  0  0  0  0  0  0  0  0  0
    1.2491    0.7908   -0.6109 C   0  0  2  0  0  0  0  0  0  0  0  0
    1.8725    0.3579    0.6681 C   0  0  0  0  0  0  0  0  0  0  0  0
    3.2887   -0.0779    0.5828 C   0  0  1  0  0  0  0  0  0  0  0  0
    3.3312   -1.4436   -0.0679 C   0  0  1  0  0  0  0  0  0  0  0  0
    3.4417   -1.1475   -1.5467 C   0  0  2  0  0  0  0  0  0  0  0  0
    3.9524    2.1326   -0.0395 C   0  0  0  0  0  0  0  0  0  0  0  0
   -1.9809   -0.1082    0.0963 C   0  0  0  0  0  0  0  0  0  0  0  0
    4.0745    0.7238   -0.3084 N   0  0  0  0  0  0  0  0  0  0  0  0
   -0.5489   -0.7819    0.9305 C   0  0  1  0  0  0  0  0  0  0  0  0
   -0.0586   -2.1722    0.9905 O   0  0  0  0  0  0  0  0  0  0  0  0
   -2.5344    0.4155   -0.0487 C   0  0  0  0  0  0  0  0  0  0  0  0
   -2.7583   -1.8732    0.7752 C   0  0  0  0  0  0  0  0  0  0  0  0
   -1.7491    1.4655   -0.7451 C   0  0  0  0  0  0  0  0  0  0  0  0
   -2.3441    1.9261   -2.0123 C   0  0  0  0  0  0  0  0  0  0  0  0
   -3.8515    1.9481   -1.9063 C   0  0  0  0  0  0  0  0  0  0  0  0
   -4.0377   -2.1028    0.0682 C   0  0  0  0  0  0  0  0  0  0  0  0
   -4.5628   -3.4778    0.5053 C   0  0  0  0  0  0  0  0  0  0  0  0
   -3.4465   -4.4697    0.1504 C   0  0  0  0  0  0  0  0  0  0  0  0
    3.5208    0.4909   -2.0634 O   0  0  0  0  0  0  0  0  0  0  0  0
    0.5407   -0.1968    0.3622 O   0  0  0  0  0  0  0  0  0  0  0  0
   -1.4767   -1.3771   -1.1353 O   0  0  0  0  0  0  0  0  0  0  0  0
   -4.0378    0.3195   -1.0596 S   0  0  0  0  0  0  0  0  0  0  0  0
   -2.0541   -3.5352    0.9108 S   0  0  0  0  0  0  0  0  0  0  0  0
    4.9994    1.8064   -0.6321 C   0  0  0  0  0  0  0  0  0  0  0  0
    2.6077    1.9119   -0.3164 C   0  0  2  0  0  0  0  0  0  0  0  0
    1.5985    1.8496    0.8143 C   0  0  0  0  0  0  0  0  0  0  0  0
    1.3823    0.4432    1.2507 C   0  0  2  0  0  0  0  0  0  0  0  0
    2.7115   -0.3129    1.3862 C   0  0  0  0  0  0  0  0  0  0  0  0
    3.7375    0.1035    0.3954 C   0  0  1  0  0  0  0  0  0  0  0  0
    3.2185   -0.3249   -0.9840 C   0  0  1  0  0  0  0  0  0  0  0  0
    2.3753    0.8577   -1.3367 C   0  0  2  0  0  0  0  0  0  0  0  0
    4.1036    2.2057    1.4944 C   0  0  0  0  0  0  0  0  0  0  0  0
   -1.8202   -0.8937    0.1232 C   0  0  0  0  0  0  0  0  0  0  0  0
    3.8918    1.5325    0.2493 N   0  0  0  0  0  0  0  0  0  0  0  0
   -0.8992    1.5879   -0.6164 H   0  0  0  0  0  0  0  0  0  0  0  0
   -1.0694   -0.0794   -2.8111 H   0  0  0  0  0  0  0  0  0  0  0  0
   -3.7779    0.6192   -0.8435 H   0  0  0  0  0  0  0  0  0  0  0  0
   -2.7285   -1.6298   -1.2614 H   0  0  0  0  0  0  0  0  0  0  0  0
   -2.6086    2.6706   -0.4081 H   0  0  0  0  0  0  0  0  0  0  0  0
   -2.3124    2.1891    1.3564 H   0  0  0  0  0  0  0  0  0  0  0  0
   -4.9319    2.6969   -0.1659 H   0  0  0  0  0  0  0  0  0  0  0  0
   -4.2075    3.7891    1.0282 H   0  0  0  0  0  0  0  0  0  0  0  0
   -4.6506    2.2754    2.8653 H   0  0  0  0  0  0  0  0  0  0  0  0
   -6.0848    1.9328    1.7441 H   0  0  0  0  0  0  0  0  0  0  0  0
   -3.0439   -1.9474    1.7480 H   0  0  0  0  0  0  0  0  0  0  0  0
   -4.2925   -2.0406    0.4470 H   0  0  0  0  0  0  0  0  0  0  0  0
   -3.2370   -3.9655   -0.4822 H   0  0  0  0  0  0  0  0  0  0  0  0
   -3.6716   -4.2968    1.2150 H   0  0  0  0  0  0  0  0  0  0  0  0
   -1.2601   -3.8192    1.8239 H   0  0  0  0  0  0  0  0  0  0  0  0
   -1.2326   -4.9585    0.3655 H   0  0  0  0  0  0  0  0  0  0  0  0
   -1.0337   -0.9214    1.6519 H   0  0  0  0  0  0  0  0  0  0  0  0
    6.0933    1.2176    0.0106 H   0  0  0  0  0  0  0  0  0  0  0  0
    5.6561   -0.4102    0.5555 H   0  0  0  0  0  0  0  0  0  0  0  0
    5.8442   -0.0207   -1.2397 H   0  0  0  0  0  0  0  0  0  0  0  0
    4.1646    0.7139   -2.4354 H   0  0  0  0  0  0  0  0  0  0  0  0
    1.7590    0.6508   -2.7314 H   0  0  0  0  0  0  0  0  0  0  0  0
    2.3804    2.1017   -1.9290 H   0  0  0  0  0  0  0  0  0  0  0  0
    0.7505    1.7855   -0.4078 H   0  0  0  0  0  0  0  0  0  0  0  0
    1.8166    1.1499    1.4727 H   0  0  0  0  0  0  0  0  0  0  0  0
    1.2882   -0.5000    1.1149 H   0  0  0  0  0  0  0  0  0  0  0  0
    3.7572   -0.0555    1.5791 H   0  0  0  0  0  0  0  0  0  0  0  0
    2.6536   -2.2351    0.2780 H   0  0  0  0  0  0  0  0  0  0  0  0
    2.8010   -1.7026   -2.2576 H   0  0  0  0  0  0  0  0  0  0  0  0
    2.9566    2.4555    0.2603 H   0  0  0  0  0  0  0  0  0  0  0  0
    4.2926    2.7583   -0.8648 H   0  0  0  0  0  0  0  0  0  0  0  0
    4.6406    2.3494    0.8239 H   0  0  0  0  0  0  0  0  0  0  0  0
   -0.7001   -0.6019    2.0102 H   0  0  0  0  0  0  0  0  0  0  0  0
    0.1001   -2.3500    0.0261 H   0  0  0  0  0  0  0  0  0  0  0  0
   -2.9236    0.7778    0.9586 H   0  0  0  0  0  0  0  0  0  0  0  0
   -3.0067   -1.5590    1.8263 H   0  0  0  0  0  0  0  0  0  0  0  0
   -0.7112    1.1331   -0.9902 H   0  0  0  0  0  0  0  0  0  0  0  0
   -1.6533    2.3301   -0.0396 H   0  0  0  0  0  0  0  0  0  0  0  0
   -1.9989    1.3282   -2.8833 H   0  0  0  0  0  0  0  0  0  0  0  0
   -2.0453    3.0036   -2.1545 H   0  0  0  0  0  0  0  0  0  0  0  0
   -4.1800    2.7647   -1.2629 H   0  0  0  0  0  0  0  0  0  0  0  0
   -4.3178    1.9107   -2.8884 H   0  0  0  0  0  0  0  0  0  0  0  0
   -4.8598   -1.4205    0.3863 H   0  0  0  0  0  0  0  0  0  0  0  0
   -4.0033   -2.1302   -1.0276 H   0  0  0  0  0  0  0  0  0  0  0  0
   -5.4578   -3.6675   -0.0833 H   0  0  0  0  0  0  0  0  0  0  0  0
   -4.6843   -3.4670    1.5876 H   0  0  0  0  0  0  0  0  0  0  0  0
   -3.3036   -4.5651   -0.9271 H   0  0  0  0  0  0  0  0  0  0  0  0
   -3.5878   -5.3973    0.7030 H   0  0  0  0  0  0  0  0  0  0  0  0
   -1.5346   -2.3639   -1.1988 H   0  0  0  0  0  0  0  0  0  0  0  0
    4.6769    2.4334   -1.4883 H   0  0  0  0  0  0  0  0  0  0  0  0
    5.7726    2.4373   -0.1025 H   0  0  0  0  0  0  0  0  0  0  0  0
    5.5212    0.8782   -0.9288 H   0  0  0  0  0  0  0  0  0  0  0  0
    2.6368    2.9086   -0.7884 H   0  0  0  0  0  0  0  0  0  0  0  0
    1.9441    2.5060    1.6605 H   0  0  0  0  0  0  0  0  0  0  0  0
    0.6711    2.3299    0.4678 H   0  0  0  0  0  0  0  0  0  0  0  0
    1.0013    0.4382    2.2908 H   0  0  0  0  0  0  0  0  0  0  0  0
    3.1072   -0.2827    2.4076 H   0  0  0  0  0  0  0  0  0  0  0  0
    2.4526   -1.3856    1.1726 H   0  0  0  0  0  0  0  0  0  0  0  0
    4.6787   -0.3826    0.6417 H   0  0  0  0  0  0  0  0  0  0  0  0
    2.8784   -1.3506   -1.1086 H   0  0  0  0  0  0  0  0  0  0  0  0
    1.4367    0.7676   -1.9089 H   0  0  0  0  0  0  0  0  0  0  0  0
    3.8070    3.2703    1.3893 H   0  0  0  0  0  0  0  0  0  0  0  0
    5.2101    2.2494    1.7125 H   0  0  0  0  0  0  0  0  0  0  0  0
    3.6664    1.6988    2.3735 H   0  0  0  0  0  0  0  0  0  0  0  0
  1  2  1  0
  3  5  1  0
  5  6  1  0
  6  7  1  0
  4  8  1  0
  8  9  1  0
  9 10  1  0
  1 12  1  0
  3 14  1  0
  7 14  1  0
  4 15  1  0
 10 15  1  0
 17 18  1  0
 12 19  1  0
 18 19  1  0
 19 20  1  0
 20 21  1  0
 11 22  1  0
 21 22  1  0
 11 23  1  0
 17 23  1  0
 22 23  1  0
  1 25  1  0
  3 25  1  0
  4 25  1  0
 25 13  1  0
 26 16  1  0
 17 26  1  0
 21 26  1  0
 24 26  1  0
 27 28  1  0
 29 31  1  0
 31 32  1  0
 32 33  1  0
 30 34  1  0
 34 35  1  0
 35 36  1  0
 27 38  1  0
 29 40  1  0
 33 40  1  0
 30 41  1  0
 36 41  1  0
 43 44  1  0
 38 45  1  0
 44 45  1  0
 45 46  1  0
 46 47  1  0
 37 48  1  0
 47 48  1  0
 37 49  1  0
 43 49  1  0
 48 49  1  0
 27 51  1  0
 29 51  1  0
 30 51  1  0
 51 39  1  0
 52 42  1  0
 43 52  1  0
 47 52  1  0
 50 52  1  0
  1 53  1  1
  2 54  1  0
  3 55  1  0
  4 56  1  0
  5 57  1  0
  5 58  1  0
  6 59  1  0
  6 60  1  0
  7 61  1  0
  7 62  1  0
  8 63  1  0
  8 64  1  0
  9 65  1  0
  9 66  1  0
 10 67  1  0
 10 68  1  0
 13 69  1  0
 16 70  1  0
 16 71  1  0
 16 72  1  0
 17 73  1  6
 18 74  1  0
 18 75  1  0
 19 76  1  1
 20 77  1  0
 20 78  1  0
 21 79  1  1
 22 80  1  6
 23 81  1  6
 24 82  1  0
 24 83  1  0
 24 84  1  0
 27 85  1  1
 28 86  1  0
 29 87  1  0
 30 88  1  0
 31 89  1  0
 31 90  1  0
 32 91  1  0
 32 92  1  0
 33 93  1  0
 33 94  1  0
 34 95  1  0
 34 96  1  0
 35 97  1  0
 35 98  1  0
 36 99  1  0
 36100  1  0
 39101  1  0
 42102  1  0
 42103  1  0
 42104  1  0
 43105  1  6
 44106  1  0
 44107  1  0
 45108  1  1
 46109  1  0
 46110  1  0
 47111  1  1
 48112  1  6
 49113  1  6
 50114  1  0
 50115  1  0
 50116  1  0
M  CHG  2  26   1  52   1
M  END
>  <PDBID>  (1) 
4U15

>  <PDB ID>  (1) 
4U15

>  <Generic Name>  (1) 
Tiotropium

>  <Brand Name>  (1) 
Inspiolto Respimat#Spiriva#Spiriva Respimat#Stiolto Respimat

>  <DrugBank ID>  (1) 
DB01409

>  <ATC Codes>  (1) 
R03AL06#R03BB54#R03BB04

>  <Ligand ID>  (1) 
0HK

>  <Target Name>  (1) 
Muscarinic acetylcholine receptor M3

>  <UniProt ID>  (1) 
P20309

>  <PDB ID.1>  (1) 
4U15

>  <Seq. Identity>  (1) 
98%

$$$$
