PDB_DB09026_00
     RDKit          3D

204204  0  0  0  0  0  0  0  0999 V2000
    5.6248    3.7582   -2.3727 C   0  0  0  0  0  0  0  0  0  0  0  0
    6.7979    3.0882   -2.6281 O   0  0  0  0  0  0  0  0  0  0  0  0
    6.9326    2.0156   -1.7283 C   0  0  0  0  0  0  0  0  0  0  0  0
    6.9741    2.4960   -0.3244 C   0  0  0  0  0  0  0  0  0  0  0  0
    7.2350    1.4717    0.7234 C   0  0  0  0  0  0  0  0  0  0  0  0
    6.3858    0.4721    0.8470 O   0  0  0  0  0  0  0  0  0  0  0  0
    6.1840   -0.5225   -0.0217 C   0  0  0  0  0  0  0  0  0  0  0  0
    4.7376   -0.6364   -0.4308 C   0  0  0  0  0  0  0  0  0  0  0  0
    3.9063   -1.3775    0.6828 C   0  0  0  0  0  0  0  0  0  0  0  0
    4.2830   -2.8150    0.5004 C   0  0  0  0  0  0  0  0  0  0  0  0
    5.6860   -2.8934   -0.1264 C   0  0  0  0  0  0  0  0  0  0  0  0
    6.5777   -1.8960    0.5774 C   0  0  0  0  0  0  0  0  0  0  0  0
    7.8878   -2.1599    0.2361 O   0  0  0  0  0  0  0  0  0  0  0  0
    8.6157   -2.4112    1.4154 C   0  0  0  0  0  0  0  0  0  0  0  0
    2.4876   -1.0308    0.4608 C   0  0  0  0  0  0  0  0  0  0  0  0
    1.3890   -1.4370    1.2969 C   0  0  2  0  0  0  0  0  0  0  0  0
    0.9986   -2.8431    1.5650 C   0  0  0  0  0  0  0  0  0  0  0  0
    1.9178   -3.7495    2.2703 C   0  0  0  0  0  0  0  0  0  0  0  0
    0.4664   -3.5171    0.2915 C   0  0  0  0  0  0  0  0  0  0  0  0
    0.0581   -0.7652    0.8768 C   0  0  0  0  0  0  0  0  0  0  0  0
    0.0877    0.7081    0.9278 C   0  0  2  0  0  0  0  0  0  0  0  0
    0.3814    1.3079    2.1908 N   0  0  0  0  0  0  0  0  0  0  0  0
   -1.3176    1.2295    0.5261 C   0  0  1  0  0  0  0  0  0  0  0  0
   -1.2894    2.6039    0.4041 O   0  0  0  0  0  0  0  0  0  0  0  0
   -1.8592    0.5426   -0.6163 C   0  0  0  0  0  0  0  0  0  0  0  0
   -3.2467    0.9831   -1.1575 C   0  0  1  0  0  0  0  0  0  0  0  0
   -3.4917    0.0792   -2.3206 C   0  0  0  0  0  0  0  0  0  0  0  0
   -4.6796    0.2252   -3.1492 C   0  0  0  0  0  0  0  0  0  0  0  0
   -3.4630   -1.3681   -1.7789 C   0  0  0  0  0  0  0  0  0  0  0  0
   -4.2100    0.9687   -0.0529 C   0  0  0  0  0  0  0  0  0  0  0  0
   -3.6986    1.9614    0.9306 O   0  0  0  0  0  0  0  0  0  0  0  0
   -5.5515    1.1942   -0.0419 N   0  0  0  0  0  0  0  0  0  0  0  0
   -6.5992    0.5027   -0.6195 C   0  0  0  0  0  0  0  0  0  0  0  0
   -7.9760    0.9535   -0.0136 C   0  0  0  0  0  0  0  0  0  0  0  0
   -9.0223    0.1243   -0.7058 C   0  0  0  0  0  0  0  0  0  0  0  0
   -7.8772    0.7435    1.4557 C   0  0  0  0  0  0  0  0  0  0  0  0
   -8.1501    2.4160   -0.3969 C   0  0  1  0  0  0  0  0  0  0  0  0
   -8.1510    2.5584   -1.7910 O   0  0  0  0  0  0  0  0  0  0  0  0
   -9.4119    2.9125    0.0995 N   0  0  0  0  0  0  0  0  0  0  0  0
    7.6115   -0.7225    3.8462 C   0  0  0  0  0  0  0  0  0  0  0  0
    7.9550   -1.9285    3.2731 O   0  0  0  0  0  0  0  0  0  0  0  0
    7.1689   -2.3344    2.2273 C   0  0  0  0  0  0  0  0  0  0  0  0
    7.1640   -1.3925    1.0332 C   0  0  0  0  0  0  0  0  0  0  0  0
    6.2911   -1.8761   -0.0607 C   0  0  0  0  0  0  0  0  0  0  0  0
    4.9600   -1.9885    0.1377 O   0  0  0  0  0  0  0  0  0  0  0  0
    4.2478   -0.8268    0.3672 C   0  0  0  0  0  0  0  0  0  0  0  0
    3.3309   -0.5759   -0.8671 C   0  0  0  0  0  0  0  0  0  0  0  0
    2.8634    0.8477   -0.7174 C   0  0  2  0  0  0  0  0  0  0  0  0
    2.1080    0.9975    0.5491 C   0  0  0  0  0  0  0  0  0  0  0  0
    1.9327   -0.3619    1.2475 C   0  0  0  0  0  0  0  0  0  0  0  0
    3.3771   -0.8802    1.5499 C   0  0  0  0  0  0  0  0  0  0  0  0
    3.8433   -0.1369    2.6455 O   0  0  0  0  0  0  0  0  0  0  0  0
    3.7546   -0.9379    3.7708 C   0  0  0  0  0  0  0  0  0  0  0  0
    2.4240    1.4985   -1.9452 C   0  0  0  0  0  0  0  0  0  0  0  0
    1.3064    0.9108   -2.7628 C   0  0  2  0  0  0  0  0  0  0  0  0
    1.1608    1.8546   -3.9513 C   0  0  0  0  0  0  0  0  0  0  0  0
    2.5212    1.8315   -4.6647 C   0  0  0  0  0  0  0  0  0  0  0  0
    0.9024    3.2720   -3.5671 C   0  0  0  0  0  0  0  0  0  0  0  0
    0.0821    0.8371   -1.9241 C   0  0  0  0  0  0  0  0  0  0  0  0
   -1.1387    0.2804   -2.5244 C   0  0  2  0  0  0  0  0  0  0  0  0
   -1.7133    0.8729   -3.6625 N   0  0  0  0  0  0  0  0  0  0  0  0
   -2.2156    0.1702   -1.4193 C   0  0  1  0  0  0  0  0  0  0  0  0
   -1.4888   -0.4231   -0.3522 O   0  0  0  0  0  0  0  0  0  0  0  0
   -2.6696    1.4858   -1.0067 C   0  0  0  0  0  0  0  0  0  0  0  0
   -3.7223    1.6608    0.0356 C   0  0  1  0  0  0  0  0  0  0  0  0
   -3.8705    3.1874    0.1533 C   0  0  0  0  0  0  0  0  0  0  0  0
   -4.8565    3.6331    1.1685 C   0  0  0  0  0  0  0  0  0  0  0  0
   -4.1267    3.8047   -1.2103 C   0  0  0  0  0  0  0  0  0  0  0  0
   -5.0182    1.0012   -0.2594 C   0  0  0  0  0  0  0  0  0  0  0  0
   -5.9736    1.2634    0.7720 O   0  0  0  0  0  0  0  0  0  0  0  0
   -4.8551   -0.4429   -0.3441 N   0  0  0  0  0  0  0  0  0  0  0  0
   -4.4915   -1.0001    0.9100 C   0  0  0  0  0  0  0  0  0  0  0  0
   -4.3390   -2.4949    0.9603 C   0  0  0  0  0  0  0  0  0  0  0  0
   -3.3148   -3.0692    0.0408 C   0  0  0  0  0  0  0  0  0  0  0  0
   -3.7795   -2.7612    2.3896 C   0  0  0  0  0  0  0  0  0  0  0  0
   -5.6400   -3.2566    0.9418 C   0  0  0  0  0  0  0  0  0  0  0  0
   -5.2683   -4.6224    1.0015 O   0  0  0  0  0  0  0  0  0  0  0  0
   -6.4650   -3.0224   -0.1978 N   0  0  0  0  0  0  0  0  0  0  0  0
    4.7249    3.1087   -2.4381 H   0  0  0  0  0  0  0  0  0  0  0  0
    5.6082    4.3498   -1.4470 H   0  0  0  0  0  0  0  0  0  0  0  0
    5.5375    4.5466   -3.1993 H   0  0  0  0  0  0  0  0  0  0  0  0
    7.8195    1.4379   -2.0348 H   0  0  0  0  0  0  0  0  0  0  0  0
    6.0211    1.3575   -1.9217 H   0  0  0  0  0  0  0  0  0  0  0  0
    5.9853    3.0096   -0.1126 H   0  0  0  0  0  0  0  0  0  0  0  0
    7.7933    3.2754   -0.2853 H   0  0  0  0  0  0  0  0  0  0  0  0
    8.3125    1.1371    0.5269 H   0  0  0  0  0  0  0  0  0  0  0  0
    7.3544    2.0098    1.7346 H   0  0  0  0  0  0  0  0  0  0  0  0
    6.8504   -0.4258   -0.9009 H   0  0  0  0  0  0  0  0  0  0  0  0
    4.5662   -1.0990   -1.3857 H   0  0  0  0  0  0  0  0  0  0  0  0
    4.3424    0.4190   -0.4749 H   0  0  0  0  0  0  0  0  0  0  0  0
    4.3014   -0.9853    1.6177 H   0  0  0  0  0  0  0  0  0  0  0  0
    3.5764   -3.4364   -0.0360 H   0  0  0  0  0  0  0  0  0  0  0  0
    4.4704   -3.2970    1.5092 H   0  0  0  0  0  0  0  0  0  0  0  0
    5.6327   -2.7692   -1.2183 H   0  0  0  0  0  0  0  0  0  0  0  0
    6.0208   -3.9494    0.0378 H   0  0  0  0  0  0  0  0  0  0  0  0
    6.3456   -1.9241    1.6433 H   0  0  0  0  0  0  0  0  0  0  0  0
    8.1889   -3.2792    1.9467 H   0  0  0  0  0  0  0  0  0  0  0  0
    8.5468   -1.5119    2.0791 H   0  0  0  0  0  0  0  0  0  0  0  0
    9.6543   -2.6326    1.1075 H   0  0  0  0  0  0  0  0  0  0  0  0
    2.4935    0.1189    0.4027 H   0  0  0  0  0  0  0  0  0  0  0  0
    2.2404   -1.2411   -0.6657 H   0  0  0  0  0  0  0  0  0  0  0  0
    1.6143   -1.0223    2.3645 H   0  0  0  0  0  0  0  0  0  0  0  0
    0.0544   -2.7891    2.2204 H   0  0  0  0  0  0  0  0  0  0  0  0
    2.3935   -4.5510    1.6778 H   0  0  0  0  0  0  0  0  0  0  0  0
    1.3135   -4.3546    3.0346 H   0  0  0  0  0  0  0  0  0  0  0  0
    2.6158   -3.1855    2.9312 H   0  0  0  0  0  0  0  0  0  0  0  0
   -0.6197   -3.3343    0.2254 H   0  0  0  0  0  0  0  0  0  0  0  0
    0.9204   -3.0271   -0.5933 H   0  0  0  0  0  0  0  0  0  0  0  0
    0.6397   -4.6094    0.3412 H   0  0  0  0  0  0  0  0  0  0  0  0
   -0.6952   -1.1904    1.5667 H   0  0  0  0  0  0  0  0  0  0  0  0
   -0.0521   -1.0828   -0.1800 H   0  0  0  0  0  0  0  0  0  0  0  0
    0.7643    1.1206    0.1590 H   0  0  0  0  0  0  0  0  0  0  0  0
   -0.2199    2.1388    2.3836 H   0  0  0  0  0  0  0  0  0  0  0  0
    1.3512    1.5878    2.3494 H   0  0  0  0  0  0  0  0  0  0  0  0
   -1.9444    0.9953    1.4479 H   0  0  0  0  0  0  0  0  0  0  0  0
   -1.2833    2.9388   -0.5084 H   0  0  0  0  0  0  0  0  0  0  0  0
   -1.9872   -0.5574   -0.3495 H   0  0  0  0  0  0  0  0  0  0  0  0
   -1.2234    0.5040   -1.5281 H   0  0  0  0  0  0  0  0  0  0  0  0
   -3.1470    2.0594   -1.5039 H   0  0  0  0  0  0  0  0  0  0  0  0
   -2.5627    0.1151   -2.9781 H   0  0  0  0  0  0  0  0  0  0  0  0
   -5.4721   -0.5689   -3.0184 H   0  0  0  0  0  0  0  0  0  0  0  0
   -4.3623    0.0259   -4.2341 H   0  0  0  0  0  0  0  0  0  0  0  0
   -5.0839    1.2495   -3.2062 H   0  0  0  0  0  0  0  0  0  0  0  0
   -4.1450   -2.0049   -2.3827 H   0  0  0  0  0  0  0  0  0  0  0  0
   -3.8215   -1.4256   -0.7379 H   0  0  0  0  0  0  0  0  0  0  0  0
   -2.4555   -1.8128   -1.8729 H   0  0  0  0  0  0  0  0  0  0  0  0
   -4.0037    0.0281    0.6183 H   0  0  0  0  0  0  0  0  0  0  0  0
   -4.3465    1.9785    1.6782 H   0  0  0  0  0  0  0  0  0  0  0  0
   -5.8924    1.8870    0.6875 H   0  0  0  0  0  0  0  0  0  0  0  0
   -6.7897    0.8516   -1.6937 H   0  0  0  0  0  0  0  0  0  0  0  0
   -6.5559   -0.6035   -0.6520 H   0  0  0  0  0  0  0  0  0  0  0  0
   -9.1631    0.4970   -1.7332 H   0  0  0  0  0  0  0  0  0  0  0  0
   -8.7156   -0.9561   -0.7274 H   0  0  0  0  0  0  0  0  0  0  0  0
   -9.9848    0.1479   -0.1563 H   0  0  0  0  0  0  0  0  0  0  0  0
   -7.1031   -0.0032    1.6748 H   0  0  0  0  0  0  0  0  0  0  0  0
   -8.8645    0.4695    1.8932 H   0  0  0  0  0  0  0  0  0  0  0  0
   -7.5084    1.7128    1.9066 H   0  0  0  0  0  0  0  0  0  0  0  0
   -7.3644    3.0650    0.0230 H   0  0  0  0  0  0  0  0  0  0  0  0
   -9.0868    2.5746   -2.1150 H   0  0  0  0  0  0  0  0  0  0  0  0
   -9.2818    3.6619    0.8388 H   0  0  0  0  0  0  0  0  0  0  0  0
   -9.9384    3.3564   -0.6743 H   0  0  0  0  0  0  0  0  0  0  0  0
    7.6563    0.1298    3.1701 H   0  0  0  0  0  0  0  0  0  0  0  0
    8.3047   -0.4758    4.7039 H   0  0  0  0  0  0  0  0  0  0  0  0
    6.6015   -0.7619    4.3388 H   0  0  0  0  0  0  0  0  0  0  0  0
    6.1538   -2.5602    2.5881 H   0  0  0  0  0  0  0  0  0  0  0  0
    7.5722   -3.3437    1.9019 H   0  0  0  0  0  0  0  0  0  0  0  0
    8.2158   -1.3564    0.6845 H   0  0  0  0  0  0  0  0  0  0  0  0
    6.9161   -0.3846    1.4050 H   0  0  0  0  0  0  0  0  0  0  0  0
    6.6577   -2.9276   -0.2964 H   0  0  0  0  0  0  0  0  0  0  0  0
    6.5561   -1.3340   -1.0234 H   0  0  0  0  0  0  0  0  0  0  0  0
    4.9271    0.0739    0.4486 H   0  0  0  0  0  0  0  0  0  0  0  0
    3.9477   -0.6001   -1.7899 H   0  0  0  0  0  0  0  0  0  0  0  0
    2.5793   -1.3465   -0.8360 H   0  0  0  0  0  0  0  0  0  0  0  0
    3.8787    1.3787   -0.4727 H   0  0  0  0  0  0  0  0  0  0  0  0
    1.1771    1.5799    0.5219 H   0  0  0  0  0  0  0  0  0  0  0  0
    2.7041    1.5663    1.3526 H   0  0  0  0  0  0  0  0  0  0  0  0
    1.4336   -0.1457    2.2114 H   0  0  0  0  0  0  0  0  0  0  0  0
    1.3426   -1.0758    0.7048 H   0  0  0  0  0  0  0  0  0  0  0  0
    3.1843   -1.9416    1.8500 H   0  0  0  0  0  0  0  0  0  0  0  0
    4.3163   -1.8754    3.7442 H   0  0  0  0  0  0  0  0  0  0  0  0
    2.6950   -1.2285    3.9878 H   0  0  0  0  0  0  0  0  0  0  0  0
    4.0548   -0.3394    4.6839 H   0  0  0  0  0  0  0  0  0  0  0  0
    3.3354    1.6782   -2.6045 H   0  0  0  0  0  0  0  0  0  0  0  0
    2.1543    2.5702   -1.6721 H   0  0  0  0  0  0  0  0  0  0  0  0
    1.5304   -0.0697   -3.1788 H   0  0  0  0  0  0  0  0  0  0  0  0
    0.4494    1.5393   -4.7029 H   0  0  0  0  0  0  0  0  0  0  0  0
    3.0645    0.9114   -4.4750 H   0  0  0  0  0  0  0  0  0  0  0  0
    2.3929    1.9272   -5.7725 H   0  0  0  0  0  0  0  0  0  0  0  0
    3.1417    2.6998   -4.3584 H   0  0  0  0  0  0  0  0  0  0  0  0
    1.8407    3.9004   -3.5948 H   0  0  0  0  0  0  0  0  0  0  0  0
    0.4634    3.4304   -2.5850 H   0  0  0  0  0  0  0  0  0  0  0  0
    0.2290    3.7856   -4.3148 H   0  0  0  0  0  0  0  0  0  0  0  0
   -0.0625    1.8257   -1.4551 H   0  0  0  0  0  0  0  0  0  0  0  0
    0.3501    0.1406   -1.0888 H   0  0  0  0  0  0  0  0  0  0  0  0
   -0.9797   -0.8150   -2.7954 H   0  0  0  0  0  0  0  0  0  0  0  0
   -2.7441    1.0635   -3.6236 H   0  0  0  0  0  0  0  0  0  0  0  0
   -1.5533    0.2986   -4.5555 H   0  0  0  0  0  0  0  0  0  0  0  0
   -2.9712   -0.5624   -1.7038 H   0  0  0  0  0  0  0  0  0  0  0  0
   -1.0900   -1.2533   -0.7637 H   0  0  0  0  0  0  0  0  0  0  0  0
   -1.8153    2.1518   -0.6616 H   0  0  0  0  0  0  0  0  0  0  0  0
   -3.0417    2.0387   -1.9150 H   0  0  0  0  0  0  0  0  0  0  0  0
   -3.3107    1.3542    1.0152 H   0  0  0  0  0  0  0  0  0  0  0  0
   -2.8564    3.5657    0.4719 H   0  0  0  0  0  0  0  0  0  0  0  0
   -4.6181    3.2021    2.1552 H   0  0  0  0  0  0  0  0  0  0  0  0
   -5.9106    3.5281    0.8505 H   0  0  0  0  0  0  0  0  0  0  0  0
   -4.7622    4.7572    1.3540 H   0  0  0  0  0  0  0  0  0  0  0  0
   -3.2019    4.0236   -1.7762 H   0  0  0  0  0  0  0  0  0  0  0  0
   -4.7300    3.0981   -1.8095 H   0  0  0  0  0  0  0  0  0  0  0  0
   -4.6377    4.7920   -1.1098 H   0  0  0  0  0  0  0  0  0  0  0  0
   -5.5239    1.3312   -1.1816 H   0  0  0  0  0  0  0  0  0  0  0  0
   -5.6218    1.1483    1.6588 H   0  0  0  0  0  0  0  0  0  0  0  0
   -5.7366   -0.8804   -0.6810 H   0  0  0  0  0  0  0  0  0  0  0  0
   -3.5575   -0.5970    1.3552 H   0  0  0  0  0  0  0  0  0  0  0  0
   -5.3562   -0.8057    1.6466 H   0  0  0  0  0  0  0  0  0  0  0  0
   -3.4653   -2.7602   -0.9906 H   0  0  0  0  0  0  0  0  0  0  0  0
   -3.4422   -4.1968    0.1039 H   0  0  0  0  0  0  0  0  0  0  0  0
   -2.3137   -2.8959    0.4663 H   0  0  0  0  0  0  0  0  0  0  0  0
   -2.7469   -2.3906    2.4541 H   0  0  0  0  0  0  0  0  0  0  0  0
   -4.4193   -2.1626    3.0845 H   0  0  0  0  0  0  0  0  0  0  0  0
   -3.8586   -3.8176    2.6389 H   0  0  0  0  0  0  0  0  0  0  0  0
   -6.1433   -3.0398    1.9075 H   0  0  0  0  0  0  0  0  0  0  0  0
   -5.5605   -5.0291    1.8303 H   0  0  0  0  0  0  0  0  0  0  0  0
   -7.4663   -3.0242    0.1415 H   0  0  0  0  0  0  0  0  0  0  0  0
   -6.3876   -3.8478   -0.8504 H   0  0  0  0  0  0  0  0  0  0  0  0
  1  2  1  0
  2  3  1  0
  3  4  1  0
  4  5  1  0
  5  6  1  0
  6  7  1  0
  7  8  1  0
  8  9  1  0
  9 10  1  0
 10 11  1  0
  7 12  1  0
 11 12  1  0
 12 13  1  0
 13 14  1  0
  9 15  1  0
 15 16  1  0
 16 17  1  0
 17 18  1  0
 17 19  1  0
 16 20  1  0
 20 21  1  0
 21 22  1  0
 21 23  1  0
 23 24  1  0
 23 25  1  0
 25 26  1  0
 26 27  1  0
 27 28  1  0
 27 29  1  0
 26 30  1  0
 30 31  1  0
 30 32  1  0
 32 33  1  0
 34 33  1  0
 34 35  1  0
 34 36  1  0
 34 37  1  0
 37 38  1  0
 37 39  1  0
 40 41  1  0
 41 42  1  0
 42 43  1  0
 43 44  1  0
 44 45  1  0
 45 46  1  0
 46 47  1  0
 47 48  1  0
 48 49  1  0
 49 50  1  0
 46 51  1  0
 50 51  1  0
 51 52  1  0
 52 53  1  0
 48 54  1  0
 54 55  1  0
 55 56  1  0
 56 57  1  0
 56 58  1  0
 55 59  1  0
 59 60  1  0
 60 61  1  0
 60 62  1  0
 62 63  1  0
 62 64  1  0
 64 65  1  0
 65 66  1  0
 66 67  1  0
 66 68  1  0
 65 69  1  0
 69 70  1  0
 69 71  1  0
 71 72  1  0
 73 72  1  0
 73 74  1  0
 73 75  1  0
 73 76  1  0
 76 77  1  0
 76 78  1  0
  1 79  1  0
  1 80  1  0
  1 81  1  0
  3 82  1  0
  3 83  1  0
  4 84  1  0
  4 85  1  0
  5 86  1  0
  5 87  1  0
  7 88  1  0
  8 89  1  0
  8 90  1  0
  9 91  1  0
 10 92  1  0
 10 93  1  0
 11 94  1  0
 11 95  1  0
 12 96  1  0
 14 97  1  0
 14 98  1  0
 14 99  1  0
 15100  1  0
 15101  1  0
 16102  1  1
 17103  1  0
 18104  1  0
 18105  1  0
 18106  1  0
 19107  1  0
 19108  1  0
 19109  1  0
 20110  1  0
 20111  1  0
 21112  1  6
 22113  1  0
 22114  1  0
 23115  1  1
 24116  1  0
 25117  1  0
 25118  1  0
 26119  1  6
 27120  1  0
 28121  1  0
 28122  1  0
 28123  1  0
 29124  1  0
 29125  1  0
 29126  1  0
 30127  1  0
 31128  1  0
 32129  1  0
 33130  1  0
 33131  1  0
 35132  1  0
 35133  1  0
 35134  1  0
 36135  1  0
 36136  1  0
 36137  1  0
 37138  1  1
 38139  1  0
 39140  1  0
 39141  1  0
 40142  1  0
 40143  1  0
 40144  1  0
 42145  1  0
 42146  1  0
 43147  1  0
 43148  1  0
 44149  1  0
 44150  1  0
 46151  1  0
 47152  1  0
 47153  1  0
 48154  1  1
 49155  1  0
 49156  1  0
 50157  1  0
 50158  1  0
 51159  1  0
 53160  1  0
 53161  1  0
 53162  1  0
 54163  1  0
 54164  1  0
 55165  1  6
 56166  1  0
 57167  1  0
 57168  1  0
 57169  1  0
 58170  1  0
 58171  1  0
 58172  1  0
 59173  1  0
 59174  1  0
 60175  1  6
 61176  1  0
 61177  1  0
 62178  1  6
 63179  1  0
 64180  1  0
 64181  1  0
 65182  1  1
 66183  1  0
 67184  1  0
 67185  1  0
 67186  1  0
 68187  1  0
 68188  1  0
 68189  1  0
 69190  1  0
 70191  1  0
 71192  1  0
 72193  1  0
 72194  1  0
 74195  1  0
 74196  1  0
 74197  1  0
 75198  1  0
 75199  1  0
 75200  1  0
 76201  1  0
 77202  1  0
 78203  1  0
 78204  1  0
M  END
>  <PDBID>  (1) 
2V0Z

>  <PDB ID>  (1) 
2V0Z

>  <Generic Name>  (1) 
Aliskiren

>  <Brand Name>  (1) 
Amturnide#Rasilez#Rasilez Hct#Sandoz Aliskiren#Tekamlo#Tekturna#Tekturna Hct

>  <DrugBank ID>  (1) 
DB09026

>  <ATC Codes>  (1) 
C09DX02#C09XA02#C09XA52#C09XA53#C09XA54

>  <Ligand ID>  (1) 
C41

>  <Target Name>  (1) 
Renin

>  <UniProt ID>  (1) 
P00797

>  <PDB ID.1>  (1) 
2V0Z

>  <Seq. Identity>  (1) 
100%

$$$$
