PDB_DB12332_02
     RDKit          3D

116122  0  0  0  0  0  0  0  0999 V2000
   -4.5258    2.5968   -0.7181 O   0  0  0  0  0  0  0  0  0  0  0  0
   -3.7474    1.6595   -1.4052 C   0  0  1  0  0  0  0  0  0  0  0  0
   -2.4789    2.2878   -1.6838 N   0  0  0  0  0  0  0  0  0  0  0  0
   -1.8394    2.6091   -0.4644 C   0  0  0  0  0  0  0  0  0  0  0  0
   -0.6900    1.7023   -0.0916 C   0  0  0  0  0  0  0  0  0  0  0  0
   -1.1427    0.3078    0.2495 C   0  0  0  0  0  0  0  0  0  0  0  0
   -2.2452   -0.1620   -0.7110 C   0  0  0  0  0  0  0  0  0  0  0  0
   -3.5555    0.4836   -0.4378 C   0  0  0  0  0  0  0  0  0  0  0  0
   -4.6932   -0.4771   -0.7286 C   0  0  0  0  0  0  0  0  0  0  0  0
   -4.6047   -1.6646    0.1989 C   0  0  0  0  0  0  0  0  0  0  0  0
   -5.5360   -1.5606    1.2249 F   0  0  0  0  0  0  0  0  0  0  0  0
   -3.2089   -1.8520    0.7544 C   0  0  0  0  0  0  0  0  0  0  0  0
   -2.2310   -1.6542   -0.3861 C   0  0  0  0  0  0  0  0  0  0  0  0
   -0.8885   -1.9768   -0.0278 N   0  0  0  0  0  0  0  0  0  0  0  0
   -0.1174   -0.7480    0.0248 C   0  0  2  0  0  0  0  0  0  0  0  0
    0.8831   -0.9126    1.1334 C   0  0  0  0  0  0  0  0  0  0  0  0
    1.8260   -2.0405    0.6891 C   0  0  0  0  0  0  0  0  0  0  0  0
    3.0106   -1.4387   -0.0796 C   0  0  0  0  0  0  0  0  0  0  0  0
    1.7284    0.2900    1.3981 C   0  0  0  0  0  0  0  0  0  0  0  0
    3.1070   -0.0871    1.9392 C   0  0  0  0  0  0  0  0  0  0  0  0
    3.9292   -0.8641    0.9756 C   0  0  0  0  0  0  0  0  0  0  0  0
    5.1055   -0.1521    0.4123 C   0  0  0  0  0  0  0  0  0  0  0  0
    4.7642    0.9675   -0.4323 N   0  0  0  0  0  0  0  0  0  0  0  0
    5.9317    1.6129   -0.9460 C   0  0  0  0  0  0  0  0  0  0  0  0
   -4.5258    2.5968   -0.7181 O   0  0  0  0  0  0  0  0  0  0  0  0
   -3.7474    1.6595   -1.4052 C   0  0  1  0  0  0  0  0  0  0  0  0
   -2.4789    2.2878   -1.6838 N   0  0  0  0  0  0  0  0  0  0  0  0
   -1.8394    2.6091   -0.4644 C   0  0  0  0  0  0  0  0  0  0  0  0
   -0.6900    1.7023   -0.0916 C   0  0  0  0  0  0  0  0  0  0  0  0
   -1.1427    0.3078    0.2495 C   0  0  0  0  0  0  0  0  0  0  0  0
   -2.2452   -0.1620   -0.7110 C   0  0  0  0  0  0  0  0  0  0  0  0
   -3.5555    0.4836   -0.4378 C   0  0  0  0  0  0  0  0  0  0  0  0
   -4.6932   -0.4771   -0.7286 C   0  0  0  0  0  0  0  0  0  0  0  0
   -4.6047   -1.6646    0.1989 C   0  0  0  0  0  0  0  0  0  0  0  0
   -5.5360   -1.5606    1.2249 F   0  0  0  0  0  0  0  0  0  0  0  0
   -3.2089   -1.8520    0.7544 C   0  0  0  0  0  0  0  0  0  0  0  0
   -2.2310   -1.6542   -0.3861 C   0  0  0  0  0  0  0  0  0  0  0  0
   -0.8885   -1.9768   -0.0278 N   0  0  0  0  0  0  0  0  0  0  0  0
   -0.1174   -0.7480    0.0248 C   0  0  2  0  0  0  0  0  0  0  0  0
    0.8831   -0.9126    1.1334 C   0  0  0  0  0  0  0  0  0  0  0  0
    1.8260   -2.0405    0.6891 C   0  0  0  0  0  0  0  0  0  0  0  0
    3.0106   -1.4387   -0.0796 C   0  0  0  0  0  0  0  0  0  0  0  0
    1.7284    0.2900    1.3981 C   0  0  0  0  0  0  0  0  0  0  0  0
    3.1070   -0.0871    1.9392 C   0  0  0  0  0  0  0  0  0  0  0  0
    3.9292   -0.8641    0.9756 C   0  0  0  0  0  0  0  0  0  0  0  0
    5.1055   -0.1521    0.4123 C   0  0  0  0  0  0  0  0  0  0  0  0
    4.7642    0.9675   -0.4323 N   0  0  0  0  0  0  0  0  0  0  0  0
    5.9317    1.6129   -0.9460 C   0  0  0  0  0  0  0  0  0  0  0  0
   -5.0629    2.1808   -0.0013 H   0  0  0  0  0  0  0  0  0  0  0  0
   -4.3049    1.3524   -2.2935 H   0  0  0  0  0  0  0  0  0  0  0  0
   -1.9219    1.8469   -2.4115 H   0  0  0  0  0  0  0  0  0  0  0  0
   -2.5650    2.6245    0.3800 H   0  0  0  0  0  0  0  0  0  0  0  0
   -1.4121    3.6373   -0.5500 H   0  0  0  0  0  0  0  0  0  0  0  0
   -0.2563    2.1366    0.8344 H   0  0  0  0  0  0  0  0  0  0  0  0
    0.0324    1.6504   -0.9300 H   0  0  0  0  0  0  0  0  0  0  0  0
   -1.5544    0.2111    1.2597 H   0  0  0  0  0  0  0  0  0  0  0  0
   -1.9068   -0.0887   -1.7695 H   0  0  0  0  0  0  0  0  0  0  0  0
   -3.5625    0.8463    0.6041 H   0  0  0  0  0  0  0  0  0  0  0  0
   -4.6131   -0.7584   -1.7985 H   0  0  0  0  0  0  0  0  0  0  0  0
   -5.6512    0.0761   -0.6243 H   0  0  0  0  0  0  0  0  0  0  0  0
   -4.9081   -2.5616   -0.3889 H   0  0  0  0  0  0  0  0  0  0  0  0
   -3.0788   -1.1161    1.5631 H   0  0  0  0  0  0  0  0  0  0  0  0
   -3.1655   -2.8823    1.1725 H   0  0  0  0  0  0  0  0  0  0  0  0
   -2.6218   -2.2548   -1.2411 H   0  0  0  0  0  0  0  0  0  0  0  0
   -0.9032   -2.4270    0.9188 H   0  0  0  0  0  0  0  0  0  0  0  0
    0.3711   -0.6486   -0.9732 H   0  0  0  0  0  0  0  0  0  0  0  0
    0.3405   -1.1963    2.0525 H   0  0  0  0  0  0  0  0  0  0  0  0
    1.3109   -2.7984    0.0952 H   0  0  0  0  0  0  0  0  0  0  0  0
    2.2529   -2.4953    1.6059 H   0  0  0  0  0  0  0  0  0  0  0  0
    3.4785   -2.2587   -0.6460 H   0  0  0  0  0  0  0  0  0  0  0  0
    2.6510   -0.6954   -0.8010 H   0  0  0  0  0  0  0  0  0  0  0  0
    1.2819    0.9288    2.2171 H   0  0  0  0  0  0  0  0  0  0  0  0
    1.8142    0.9655    0.5232 H   0  0  0  0  0  0  0  0  0  0  0  0
    2.8921   -0.6657    2.8844 H   0  0  0  0  0  0  0  0  0  0  0  0
    3.5792    0.8530    2.2834 H   0  0  0  0  0  0  0  0  0  0  0  0
    4.3339   -1.7587    1.5353 H   0  0  0  0  0  0  0  0  0  0  0  0
    5.7411   -0.8592   -0.1197 H   0  0  0  0  0  0  0  0  0  0  0  0
    5.6975    0.2523    1.2591 H   0  0  0  0  0  0  0  0  0  0  0  0
    4.0605    1.5943   -0.0331 H   0  0  0  0  0  0  0  0  0  0  0  0
    6.4067    1.0638   -1.7784 H   0  0  0  0  0  0  0  0  0  0  0  0
    5.7531    2.6625   -1.2537 H   0  0  0  0  0  0  0  0  0  0  0  0
    6.7099    1.6558   -0.1314 H   0  0  0  0  0  0  0  0  0  0  0  0
   -5.0629    2.1808   -0.0013 H   0  0  0  0  0  0  0  0  0  0  0  0
   -4.3049    1.3524   -2.2935 H   0  0  0  0  0  0  0  0  0  0  0  0
   -1.9219    1.8469   -2.4115 H   0  0  0  0  0  0  0  0  0  0  0  0
   -2.5650    2.6245    0.3800 H   0  0  0  0  0  0  0  0  0  0  0  0
   -1.4121    3.6373   -0.5500 H   0  0  0  0  0  0  0  0  0  0  0  0
   -0.2563    2.1366    0.8344 H   0  0  0  0  0  0  0  0  0  0  0  0
    0.0324    1.6504   -0.9300 H   0  0  0  0  0  0  0  0  0  0  0  0
   -1.5544    0.2111    1.2597 H   0  0  0  0  0  0  0  0  0  0  0  0
   -1.9068   -0.0887   -1.7695 H   0  0  0  0  0  0  0  0  0  0  0  0
   -3.5625    0.8463    0.6041 H   0  0  0  0  0  0  0  0  0  0  0  0
   -4.6131   -0.7584   -1.7985 H   0  0  0  0  0  0  0  0  0  0  0  0
   -5.6512    0.0761   -0.6243 H   0  0  0  0  0  0  0  0  0  0  0  0
   -4.9081   -2.5616   -0.3889 H   0  0  0  0  0  0  0  0  0  0  0  0
   -3.0788   -1.1161    1.5631 H   0  0  0  0  0  0  0  0  0  0  0  0
   -3.1655   -2.8823    1.1725 H   0  0  0  0  0  0  0  0  0  0  0  0
   -2.6218   -2.2548   -1.2411 H   0  0  0  0  0  0  0  0  0  0  0  0
   -0.9032   -2.4270    0.9188 H   0  0  0  0  0  0  0  0  0  0  0  0
    0.3711   -0.6486   -0.9732 H   0  0  0  0  0  0  0  0  0  0  0  0
    0.3405   -1.1963    2.0525 H   0  0  0  0  0  0  0  0  0  0  0  0
    1.3109   -2.7984    0.0952 H   0  0  0  0  0  0  0  0  0  0  0  0
    2.2529   -2.4953    1.6059 H   0  0  0  0  0  0  0  0  0  0  0  0
    3.4785   -2.2587   -0.6460 H   0  0  0  0  0  0  0  0  0  0  0  0
    2.6510   -0.6954   -0.8010 H   0  0  0  0  0  0  0  0  0  0  0  0
    1.2819    0.9288    2.2171 H   0  0  0  0  0  0  0  0  0  0  0  0
    1.8142    0.9655    0.5232 H   0  0  0  0  0  0  0  0  0  0  0  0
    2.8921   -0.6657    2.8844 H   0  0  0  0  0  0  0  0  0  0  0  0
    3.5792    0.8530    2.2834 H   0  0  0  0  0  0  0  0  0  0  0  0
    4.3339   -1.7587    1.5353 H   0  0  0  0  0  0  0  0  0  0  0  0
    5.7411   -0.8592   -0.1197 H   0  0  0  0  0  0  0  0  0  0  0  0
    5.6975    0.2523    1.2591 H   0  0  0  0  0  0  0  0  0  0  0  0
    4.0605    1.5943   -0.0331 H   0  0  0  0  0  0  0  0  0  0  0  0
    6.4067    1.0638   -1.7784 H   0  0  0  0  0  0  0  0  0  0  0  0
    5.7531    2.6625   -1.2537 H   0  0  0  0  0  0  0  0  0  0  0  0
    6.7099    1.6558   -0.1314 H   0  0  0  0  0  0  0  0  0  0  0  0
  1  2  1  0
  2  3  1  0
  3  4  1  0
  4  5  1  0
  5  6  1  0
  6  7  1  0
  2  8  1  0
  7  8  1  0
  8  9  1  0
  9 10  1  0
 10 11  1  0
 10 12  1  0
  7 13  1  0
 12 13  1  0
 13 14  1  0
  6 15  1  0
 14 15  1  0
 15 16  1  0
 16 17  1  0
 17 18  1  0
 16 19  1  0
 19 20  1  0
 18 21  1  0
 20 21  1  0
 21 22  1  0
 22 23  1  0
 23 24  1  0
 25 26  1  0
 26 27  1  0
 27 28  1  0
 28 29  1  0
 29 30  1  0
 30 31  1  0
 26 32  1  0
 31 32  1  0
 32 33  1  0
 33 34  1  0
 34 35  1  0
 34 36  1  0
 31 37  1  0
 36 37  1  0
 37 38  1  0
 30 39  1  0
 38 39  1  0
 39 40  1  0
 40 41  1  0
 41 42  1  0
 40 43  1  0
 43 44  1  0
 42 45  1  0
 44 45  1  0
 45 46  1  0
 46 47  1  0
 47 48  1  0
  1 49  1  0
  2 50  1  6
  3 51  1  0
  4 52  1  0
  4 53  1  0
  5 54  1  0
  5 55  1  0
  6 56  1  0
  7 57  1  0
  8 58  1  0
  9 59  1  0
  9 60  1  0
 10 61  1  0
 12 62  1  0
 12 63  1  0
 13 64  1  0
 14 65  1  0
 15 66  1  6
 16 67  1  0
 17 68  1  0
 17 69  1  0
 18 70  1  0
 18 71  1  0
 19 72  1  0
 19 73  1  0
 20 74  1  0
 20 75  1  0
 21 76  1  0
 22 77  1  0
 22 78  1  0
 23 79  1  0
 24 80  1  0
 24 81  1  0
 24 82  1  0
 25 83  1  0
 26 84  1  6
 27 85  1  0
 28 86  1  0
 28 87  1  0
 29 88  1  0
 29 89  1  0
 30 90  1  0
 31 91  1  0
 32 92  1  0
 33 93  1  0
 33 94  1  0
 34 95  1  0
 36 96  1  0
 36 97  1  0
 37 98  1  0
 38 99  1  0
 39100  1  6
 40101  1  0
 41102  1  0
 41103  1  0
 42104  1  0
 42105  1  0
 43106  1  0
 43107  1  0
 44108  1  0
 44109  1  0
 45110  1  0
 46111  1  0
 46112  1  0
 47113  1  0
 48114  1  0
 48115  1  0
 48116  1  0
M  END
>  <PDBID>  (1) 
4RV6

>  <PDB ID>  (1) 
4RV6

>  <Generic Name>  (1) 
Rucaparib

>  <Brand Name>  (1) 
Rubraca

>  <DrugBank ID>  (1) 
DB12332

>  <ATC Codes>  (1) 
nan

>  <Ligand ID>  (1) 
RPB

>  <Target Name>  (1) 
Poly [ADP-ribose] polymerase 1

>  <UniProt ID>  (1) 
P09874

>  <PDB ID.1>  (1) 
4RV6

>  <Seq. Identity>  (1) 
100%

$$$$
