PDB_DB01095_04
     RDKit          3D

296304  0  0  0  0  0  0  0  0999 V2000
   -2.3586   -0.5586   -0.7145 C   0  0  0  0  0  0  0  0  0  0  0  0
   -2.0264   -2.0544   -0.9150 C   0  0  0  0  0  0  0  0  0  0  0  0
   -3.1737   -2.8699   -1.3016 C   0  0  0  0  0  0  0  0  0  0  0  0
   -4.4928   -2.1360   -1.3573 C   0  0  0  0  0  0  0  0  0  0  0  0
   -4.4123   -0.7823   -1.9752 C   0  0  0  0  0  0  0  0  0  0  0  0
   -3.0158   -0.1883   -2.0020 C   0  0  0  0  0  0  0  0  0  0  0  0
   -0.9607   -0.0734   -0.5143 C   0  0  0  0  0  0  0  0  0  0  0  0
   -0.2817   -1.2509    0.1385 C   0  0  0  0  0  0  0  0  0  0  0  0
   -1.2713   -2.3332    0.2090 N   0  0  0  0  0  0  0  0  0  0  0  0
   -1.3765    2.7425    2.0017 C   0  0  0  0  0  0  0  0  0  0  0  0
   -1.3613    1.2866    1.5757 C   0  0  0  0  0  0  0  0  0  0  0  0
   -0.8170    1.2158    0.1875 C   0  0  0  0  0  0  0  0  0  0  0  0
   -1.3890    2.3889   -0.5780 C   0  0  0  0  0  0  0  0  0  0  0  0
   -2.7612    2.7484   -0.0435 C   0  0  0  0  0  0  0  0  0  0  0  0
   -2.6202    3.3519    1.3407 C   0  0  0  0  0  0  0  0  0  0  0  0
   -2.4495    4.6966    1.2086 F   0  0  0  0  0  0  0  0  0  0  0  0
    6.5763    3.7916   -0.0220 O   0  0  0  0  0  0  0  0  0  0  0  0
    5.4745    2.6437   -1.6699 O   0  0  0  0  0  0  0  0  0  0  0  0
    4.6673    0.2426   -1.2545 O   0  0  0  0  0  0  0  0  0  0  0  0
    5.5706    2.8464   -0.2819 C   0  0  0  0  0  0  0  0  0  0  0  0
    5.9242    1.5168    0.3491 C   0  0  0  0  0  0  0  0  0  0  0  0
    4.8520    0.4717    0.0867 C   0  0  1  0  0  0  0  0  0  0  0  0
    3.5873    0.7944    0.8125 C   0  0  0  0  0  0  0  0  0  0  0  0
    2.5272   -0.2694    0.7881 C   0  0  1  0  0  0  0  0  0  0  0  0
    2.0462   -0.6409   -0.5766 C   0  0  0  0  0  0  0  0  0  0  0  0
    0.9637   -1.6920   -0.5460 C   0  0  0  0  0  0  0  0  0  0  0  0
   -1.7719   -2.4115    1.4892 C   0  0  0  0  0  0  0  0  0  0  0  0
   -2.7879   -3.4594    1.8181 C   0  0  0  0  0  0  0  0  0  0  0  0
   -0.6323   -2.5683    2.4782 C   0  0  0  0  0  0  0  0  0  0  0  0
    3.1437   -1.4255    1.3302 O   0  0  0  0  0  0  0  0  0  0  0  0
   -2.3586   -0.5586   -0.7145 C   0  0  0  0  0  0  0  0  0  0  0  0
   -2.0264   -2.0544   -0.9150 C   0  0  0  0  0  0  0  0  0  0  0  0
   -3.1737   -2.8699   -1.3016 C   0  0  0  0  0  0  0  0  0  0  0  0
   -4.4928   -2.1360   -1.3573 C   0  0  0  0  0  0  0  0  0  0  0  0
   -4.4123   -0.7823   -1.9752 C   0  0  0  0  0  0  0  0  0  0  0  0
   -3.0158   -0.1883   -2.0020 C   0  0  0  0  0  0  0  0  0  0  0  0
   -0.9607   -0.0734   -0.5143 C   0  0  0  0  0  0  0  0  0  0  0  0
   -0.2817   -1.2509    0.1385 C   0  0  0  0  0  0  0  0  0  0  0  0
   -1.2713   -2.3332    0.2090 N   0  0  0  0  0  0  0  0  0  0  0  0
   -1.3765    2.7425    2.0017 C   0  0  0  0  0  0  0  0  0  0  0  0
   -1.3613    1.2866    1.5757 C   0  0  0  0  0  0  0  0  0  0  0  0
   -0.8170    1.2158    0.1875 C   0  0  0  0  0  0  0  0  0  0  0  0
   -1.3890    2.3889   -0.5780 C   0  0  0  0  0  0  0  0  0  0  0  0
   -2.7612    2.7484   -0.0435 C   0  0  0  0  0  0  0  0  0  0  0  0
   -2.6202    3.3519    1.3407 C   0  0  0  0  0  0  0  0  0  0  0  0
   -2.4495    4.6966    1.2086 F   0  0  0  0  0  0  0  0  0  0  0  0
    6.5763    3.7916   -0.0220 O   0  0  0  0  0  0  0  0  0  0  0  0
    5.4745    2.6437   -1.6699 O   0  0  0  0  0  0  0  0  0  0  0  0
    4.6673    0.2426   -1.2545 O   0  0  0  0  0  0  0  0  0  0  0  0
    5.5706    2.8464   -0.2819 C   0  0  0  0  0  0  0  0  0  0  0  0
    5.9242    1.5168    0.3491 C   0  0  0  0  0  0  0  0  0  0  0  0
    4.8520    0.4717    0.0867 C   0  0  1  0  0  0  0  0  0  0  0  0
    3.5873    0.7944    0.8125 C   0  0  0  0  0  0  0  0  0  0  0  0
    2.5272   -0.2694    0.7881 C   0  0  1  0  0  0  0  0  0  0  0  0
    2.0462   -0.6409   -0.5766 C   0  0  0  0  0  0  0  0  0  0  0  0
    0.9637   -1.6920   -0.5460 C   0  0  0  0  0  0  0  0  0  0  0  0
   -1.7719   -2.4115    1.4892 C   0  0  0  0  0  0  0  0  0  0  0  0
   -2.7879   -3.4594    1.8181 C   0  0  0  0  0  0  0  0  0  0  0  0
   -0.6323   -2.5683    2.4782 C   0  0  0  0  0  0  0  0  0  0  0  0
    3.1437   -1.4255    1.3302 O   0  0  0  0  0  0  0  0  0  0  0  0
   -2.3586   -0.5586   -0.7145 C   0  0  0  0  0  0  0  0  0  0  0  0
   -2.0264   -2.0544   -0.9150 C   0  0  0  0  0  0  0  0  0  0  0  0
   -3.1737   -2.8699   -1.3016 C   0  0  0  0  0  0  0  0  0  0  0  0
   -4.4928   -2.1360   -1.3573 C   0  0  0  0  0  0  0  0  0  0  0  0
   -4.4123   -0.7823   -1.9752 C   0  0  0  0  0  0  0  0  0  0  0  0
   -3.0158   -0.1883   -2.0020 C   0  0  0  0  0  0  0  0  0  0  0  0
   -0.9607   -0.0734   -0.5143 C   0  0  0  0  0  0  0  0  0  0  0  0
   -0.2817   -1.2509    0.1385 C   0  0  0  0  0  0  0  0  0  0  0  0
   -1.2713   -2.3332    0.2090 N   0  0  0  0  0  0  0  0  0  0  0  0
   -1.3765    2.7425    2.0017 C   0  0  0  0  0  0  0  0  0  0  0  0
   -1.3613    1.2866    1.5757 C   0  0  0  0  0  0  0  0  0  0  0  0
   -0.8170    1.2158    0.1875 C   0  0  0  0  0  0  0  0  0  0  0  0
   -1.3890    2.3889   -0.5780 C   0  0  0  0  0  0  0  0  0  0  0  0
   -2.7612    2.7484   -0.0435 C   0  0  0  0  0  0  0  0  0  0  0  0
   -2.6202    3.3519    1.3407 C   0  0  0  0  0  0  0  0  0  0  0  0
   -2.4495    4.6966    1.2086 F   0  0  0  0  0  0  0  0  0  0  0  0
    6.5763    3.7916   -0.0220 O   0  0  0  0  0  0  0  0  0  0  0  0
    5.4745    2.6437   -1.6699 O   0  0  0  0  0  0  0  0  0  0  0  0
    4.6673    0.2426   -1.2545 O   0  0  0  0  0  0  0  0  0  0  0  0
    5.5706    2.8464   -0.2819 C   0  0  0  0  0  0  0  0  0  0  0  0
    5.9242    1.5168    0.3491 C   0  0  0  0  0  0  0  0  0  0  0  0
    4.8520    0.4717    0.0867 C   0  0  1  0  0  0  0  0  0  0  0  0
    3.5873    0.7944    0.8125 C   0  0  0  0  0  0  0  0  0  0  0  0
    2.5272   -0.2694    0.7881 C   0  0  1  0  0  0  0  0  0  0  0  0
    2.0462   -0.6409   -0.5766 C   0  0  0  0  0  0  0  0  0  0  0  0
    0.9637   -1.6920   -0.5460 C   0  0  0  0  0  0  0  0  0  0  0  0
   -1.7719   -2.4115    1.4892 C   0  0  0  0  0  0  0  0  0  0  0  0
   -2.7879   -3.4594    1.8181 C   0  0  0  0  0  0  0  0  0  0  0  0
   -0.6323   -2.5683    2.4782 C   0  0  0  0  0  0  0  0  0  0  0  0
    3.1437   -1.4255    1.3302 O   0  0  0  0  0  0  0  0  0  0  0  0
   -2.3586   -0.5586   -0.7145 C   0  0  0  0  0  0  0  0  0  0  0  0
   -2.0264   -2.0544   -0.9150 C   0  0  0  0  0  0  0  0  0  0  0  0
   -3.1737   -2.8699   -1.3016 C   0  0  0  0  0  0  0  0  0  0  0  0
   -4.4928   -2.1360   -1.3573 C   0  0  0  0  0  0  0  0  0  0  0  0
   -4.4123   -0.7823   -1.9752 C   0  0  0  0  0  0  0  0  0  0  0  0
   -3.0158   -0.1883   -2.0020 C   0  0  0  0  0  0  0  0  0  0  0  0
   -0.9607   -0.0734   -0.5143 C   0  0  0  0  0  0  0  0  0  0  0  0
   -0.2817   -1.2509    0.1385 C   0  0  0  0  0  0  0  0  0  0  0  0
   -1.2713   -2.3332    0.2090 N   0  0  0  0  0  0  0  0  0  0  0  0
   -1.3765    2.7425    2.0017 C   0  0  0  0  0  0  0  0  0  0  0  0
   -1.3613    1.2866    1.5757 C   0  0  0  0  0  0  0  0  0  0  0  0
   -0.8170    1.2158    0.1875 C   0  0  0  0  0  0  0  0  0  0  0  0
   -1.3890    2.3889   -0.5780 C   0  0  0  0  0  0  0  0  0  0  0  0
   -2.7612    2.7484   -0.0435 C   0  0  0  0  0  0  0  0  0  0  0  0
   -2.6202    3.3519    1.3407 C   0  0  0  0  0  0  0  0  0  0  0  0
   -2.4495    4.6966    1.2086 F   0  0  0  0  0  0  0  0  0  0  0  0
    6.5763    3.7916   -0.0220 O   0  0  0  0  0  0  0  0  0  0  0  0
    5.4745    2.6437   -1.6699 O   0  0  0  0  0  0  0  0  0  0  0  0
    4.6673    0.2426   -1.2545 O   0  0  0  0  0  0  0  0  0  0  0  0
    5.5706    2.8464   -0.2819 C   0  0  0  0  0  0  0  0  0  0  0  0
    5.9242    1.5168    0.3491 C   0  0  0  0  0  0  0  0  0  0  0  0
    4.8520    0.4717    0.0867 C   0  0  1  0  0  0  0  0  0  0  0  0
    3.5873    0.7944    0.8125 C   0  0  0  0  0  0  0  0  0  0  0  0
    2.5272   -0.2694    0.7881 C   0  0  1  0  0  0  0  0  0  0  0  0
    2.0462   -0.6409   -0.5766 C   0  0  0  0  0  0  0  0  0  0  0  0
    0.9637   -1.6920   -0.5460 C   0  0  0  0  0  0  0  0  0  0  0  0
   -1.7719   -2.4115    1.4892 C   0  0  0  0  0  0  0  0  0  0  0  0
   -2.7879   -3.4594    1.8181 C   0  0  0  0  0  0  0  0  0  0  0  0
   -0.6323   -2.5683    2.4782 C   0  0  0  0  0  0  0  0  0  0  0  0
    3.1437   -1.4255    1.3302 O   0  0  0  0  0  0  0  0  0  0  0  0
   -3.0115   -0.4398    0.1630 H   0  0  0  0  0  0  0  0  0  0  0  0
   -1.3133   -2.0106   -1.7879 H   0  0  0  0  0  0  0  0  0  0  0  0
   -3.0519   -3.3054   -2.3427 H   0  0  0  0  0  0  0  0  0  0  0  0
   -3.3143   -3.7708   -0.6687 H   0  0  0  0  0  0  0  0  0  0  0  0
   -4.8708   -2.0440   -0.3181 H   0  0  0  0  0  0  0  0  0  0  0  0
   -5.2466   -2.7243   -1.9192 H   0  0  0  0  0  0  0  0  0  0  0  0
   -5.0406   -0.0459   -1.4024 H   0  0  0  0  0  0  0  0  0  0  0  0
   -4.7961   -0.7453   -3.0154 H   0  0  0  0  0  0  0  0  0  0  0  0
   -3.1458    0.8718   -2.2019 H   0  0  0  0  0  0  0  0  0  0  0  0
   -2.4999   -0.7126   -2.8596 H   0  0  0  0  0  0  0  0  0  0  0  0
   -0.5077    0.0613   -1.5403 H   0  0  0  0  0  0  0  0  0  0  0  0
   -0.0125   -0.9144    1.1726 H   0  0  0  0  0  0  0  0  0  0  0  0
   -0.4862    3.2679    1.6528 H   0  0  0  0  0  0  0  0  0  0  0  0
   -1.4676    2.7628    3.1069 H   0  0  0  0  0  0  0  0  0  0  0  0
   -0.7181    0.6656    2.2469 H   0  0  0  0  0  0  0  0  0  0  0  0
   -2.4160    0.9476    1.6507 H   0  0  0  0  0  0  0  0  0  0  0  0
    0.2852    1.4433    0.2573 H   0  0  0  0  0  0  0  0  0  0  0  0
   -1.3541    2.2926   -1.6622 H   0  0  0  0  0  0  0  0  0  0  0  0
   -0.7658    3.3142   -0.3611 H   0  0  0  0  0  0  0  0  0  0  0  0
   -3.1661    3.5297   -0.7105 H   0  0  0  0  0  0  0  0  0  0  0  0
   -3.4721    1.9005   -0.0518 H   0  0  0  0  0  0  0  0  0  0  0  0
   -3.4723    3.0409    1.9495 H   0  0  0  0  0  0  0  0  0  0  0  0
    7.0391    3.5721    0.8154 H   0  0  0  0  0  0  0  0  0  0  0  0
    6.2401    2.0398   -1.9128 H   0  0  0  0  0  0  0  0  0  0  0  0
    5.4402   -0.2712   -1.6210 H   0  0  0  0  0  0  0  0  0  0  0  0
    4.6349    3.2096    0.1634 H   0  0  0  0  0  0  0  0  0  0  0  0
    5.9928    1.6123    1.4544 H   0  0  0  0  0  0  0  0  0  0  0  0
    6.9054    1.1373   -0.0026 H   0  0  0  0  0  0  0  0  0  0  0  0
    5.2819   -0.4745    0.5454 H   0  0  0  0  0  0  0  0  0  0  0  0
    3.1381    1.7665    0.4438 H   0  0  0  0  0  0  0  0  0  0  0  0
    3.8974    1.0242    1.8764 H   0  0  0  0  0  0  0  0  0  0  0  0
    1.7273    0.0782    1.4741 H   0  0  0  0  0  0  0  0  0  0  0  0
    2.8914   -1.1250   -1.1585 H   0  0  0  0  0  0  0  0  0  0  0  0
    1.7381    0.2157   -1.1971 H   0  0  0  0  0  0  0  0  0  0  0  0
    0.6936   -1.8570   -1.6328 H   0  0  0  0  0  0  0  0  0  0  0  0
    1.3805   -2.6316   -0.1292 H   0  0  0  0  0  0  0  0  0  0  0  0
   -2.2655   -1.4381    1.7715 H   0  0  0  0  0  0  0  0  0  0  0  0
   -2.5222   -4.4815    1.4801 H   0  0  0  0  0  0  0  0  0  0  0  0
   -2.7844   -3.5419    2.9485 H   0  0  0  0  0  0  0  0  0  0  0  0
   -3.8288   -3.1594    1.5845 H   0  0  0  0  0  0  0  0  0  0  0  0
   -0.4219   -1.6144    3.0353 H   0  0  0  0  0  0  0  0  0  0  0  0
   -0.8559   -3.3661    3.2425 H   0  0  0  0  0  0  0  0  0  0  0  0
    0.2680   -2.9333    1.9545 H   0  0  0  0  0  0  0  0  0  0  0  0
    3.8813   -1.1707    1.9457 H   0  0  0  0  0  0  0  0  0  0  0  0
   -3.0115   -0.4398    0.1630 H   0  0  0  0  0  0  0  0  0  0  0  0
   -1.3133   -2.0106   -1.7879 H   0  0  0  0  0  0  0  0  0  0  0  0
   -3.0519   -3.3054   -2.3427 H   0  0  0  0  0  0  0  0  0  0  0  0
   -3.3143   -3.7708   -0.6687 H   0  0  0  0  0  0  0  0  0  0  0  0
   -4.8708   -2.0440   -0.3181 H   0  0  0  0  0  0  0  0  0  0  0  0
   -5.2466   -2.7243   -1.9192 H   0  0  0  0  0  0  0  0  0  0  0  0
   -5.0406   -0.0459   -1.4024 H   0  0  0  0  0  0  0  0  0  0  0  0
   -4.7961   -0.7453   -3.0154 H   0  0  0  0  0  0  0  0  0  0  0  0
   -3.1458    0.8718   -2.2019 H   0  0  0  0  0  0  0  0  0  0  0  0
   -2.4999   -0.7126   -2.8596 H   0  0  0  0  0  0  0  0  0  0  0  0
   -0.5077    0.0613   -1.5403 H   0  0  0  0  0  0  0  0  0  0  0  0
   -0.0125   -0.9144    1.1726 H   0  0  0  0  0  0  0  0  0  0  0  0
   -0.4862    3.2679    1.6528 H   0  0  0  0  0  0  0  0  0  0  0  0
   -1.4676    2.7628    3.1069 H   0  0  0  0  0  0  0  0  0  0  0  0
   -0.7181    0.6656    2.2469 H   0  0  0  0  0  0  0  0  0  0  0  0
   -2.4160    0.9476    1.6507 H   0  0  0  0  0  0  0  0  0  0  0  0
    0.2852    1.4433    0.2573 H   0  0  0  0  0  0  0  0  0  0  0  0
   -1.3541    2.2926   -1.6622 H   0  0  0  0  0  0  0  0  0  0  0  0
   -0.7658    3.3142   -0.3611 H   0  0  0  0  0  0  0  0  0  0  0  0
   -3.1661    3.5297   -0.7105 H   0  0  0  0  0  0  0  0  0  0  0  0
   -3.4721    1.9005   -0.0518 H   0  0  0  0  0  0  0  0  0  0  0  0
   -3.4723    3.0409    1.9495 H   0  0  0  0  0  0  0  0  0  0  0  0
    7.0391    3.5721    0.8154 H   0  0  0  0  0  0  0  0  0  0  0  0
    6.2401    2.0398   -1.9128 H   0  0  0  0  0  0  0  0  0  0  0  0
    5.4402   -0.2712   -1.6210 H   0  0  0  0  0  0  0  0  0  0  0  0
    4.6349    3.2096    0.1634 H   0  0  0  0  0  0  0  0  0  0  0  0
    5.9928    1.6123    1.4544 H   0  0  0  0  0  0  0  0  0  0  0  0
    6.9054    1.1373   -0.0026 H   0  0  0  0  0  0  0  0  0  0  0  0
    5.2819   -0.4745    0.5454 H   0  0  0  0  0  0  0  0  0  0  0  0
    3.1381    1.7665    0.4438 H   0  0  0  0  0  0  0  0  0  0  0  0
    3.8974    1.0242    1.8764 H   0  0  0  0  0  0  0  0  0  0  0  0
    1.7273    0.0782    1.4741 H   0  0  0  0  0  0  0  0  0  0  0  0
    2.8914   -1.1250   -1.1585 H   0  0  0  0  0  0  0  0  0  0  0  0
    1.7381    0.2157   -1.1971 H   0  0  0  0  0  0  0  0  0  0  0  0
    0.6936   -1.8570   -1.6328 H   0  0  0  0  0  0  0  0  0  0  0  0
    1.3805   -2.6316   -0.1292 H   0  0  0  0  0  0  0  0  0  0  0  0
   -2.2655   -1.4381    1.7715 H   0  0  0  0  0  0  0  0  0  0  0  0
   -2.5222   -4.4815    1.4801 H   0  0  0  0  0  0  0  0  0  0  0  0
   -2.7844   -3.5419    2.9485 H   0  0  0  0  0  0  0  0  0  0  0  0
   -3.8288   -3.1594    1.5845 H   0  0  0  0  0  0  0  0  0  0  0  0
   -0.4219   -1.6144    3.0353 H   0  0  0  0  0  0  0  0  0  0  0  0
   -0.8559   -3.3661    3.2425 H   0  0  0  0  0  0  0  0  0  0  0  0
    0.2680   -2.9333    1.9545 H   0  0  0  0  0  0  0  0  0  0  0  0
    3.8813   -1.1707    1.9457 H   0  0  0  0  0  0  0  0  0  0  0  0
   -3.0115   -0.4398    0.1630 H   0  0  0  0  0  0  0  0  0  0  0  0
   -1.3133   -2.0106   -1.7879 H   0  0  0  0  0  0  0  0  0  0  0  0
   -3.0519   -3.3054   -2.3427 H   0  0  0  0  0  0  0  0  0  0  0  0
   -3.3143   -3.7708   -0.6687 H   0  0  0  0  0  0  0  0  0  0  0  0
   -4.8708   -2.0440   -0.3181 H   0  0  0  0  0  0  0  0  0  0  0  0
   -5.2466   -2.7243   -1.9192 H   0  0  0  0  0  0  0  0  0  0  0  0
   -5.0406   -0.0459   -1.4024 H   0  0  0  0  0  0  0  0  0  0  0  0
   -4.7961   -0.7453   -3.0154 H   0  0  0  0  0  0  0  0  0  0  0  0
   -3.1458    0.8718   -2.2019 H   0  0  0  0  0  0  0  0  0  0  0  0
   -2.4999   -0.7126   -2.8596 H   0  0  0  0  0  0  0  0  0  0  0  0
   -0.5077    0.0613   -1.5403 H   0  0  0  0  0  0  0  0  0  0  0  0
   -0.0125   -0.9144    1.1726 H   0  0  0  0  0  0  0  0  0  0  0  0
   -0.4862    3.2679    1.6528 H   0  0  0  0  0  0  0  0  0  0  0  0
   -1.4676    2.7628    3.1069 H   0  0  0  0  0  0  0  0  0  0  0  0
   -0.7181    0.6656    2.2469 H   0  0  0  0  0  0  0  0  0  0  0  0
   -2.4160    0.9476    1.6507 H   0  0  0  0  0  0  0  0  0  0  0  0
    0.2852    1.4433    0.2573 H   0  0  0  0  0  0  0  0  0  0  0  0
   -1.3541    2.2926   -1.6622 H   0  0  0  0  0  0  0  0  0  0  0  0
   -0.7658    3.3142   -0.3611 H   0  0  0  0  0  0  0  0  0  0  0  0
   -3.1661    3.5297   -0.7105 H   0  0  0  0  0  0  0  0  0  0  0  0
   -3.4721    1.9005   -0.0518 H   0  0  0  0  0  0  0  0  0  0  0  0
   -3.4723    3.0409    1.9495 H   0  0  0  0  0  0  0  0  0  0  0  0
    7.0391    3.5721    0.8154 H   0  0  0  0  0  0  0  0  0  0  0  0
    6.2401    2.0398   -1.9128 H   0  0  0  0  0  0  0  0  0  0  0  0
    5.4402   -0.2712   -1.6210 H   0  0  0  0  0  0  0  0  0  0  0  0
    4.6349    3.2096    0.1634 H   0  0  0  0  0  0  0  0  0  0  0  0
    5.9928    1.6123    1.4544 H   0  0  0  0  0  0  0  0  0  0  0  0
    6.9054    1.1373   -0.0026 H   0  0  0  0  0  0  0  0  0  0  0  0
    5.2819   -0.4745    0.5454 H   0  0  0  0  0  0  0  0  0  0  0  0
    3.1381    1.7665    0.4438 H   0  0  0  0  0  0  0  0  0  0  0  0
    3.8974    1.0242    1.8764 H   0  0  0  0  0  0  0  0  0  0  0  0
    1.7273    0.0782    1.4741 H   0  0  0  0  0  0  0  0  0  0  0  0
    2.8914   -1.1250   -1.1585 H   0  0  0  0  0  0  0  0  0  0  0  0
    1.7381    0.2157   -1.1971 H   0  0  0  0  0  0  0  0  0  0  0  0
    0.6936   -1.8570   -1.6328 H   0  0  0  0  0  0  0  0  0  0  0  0
    1.3805   -2.6316   -0.1292 H   0  0  0  0  0  0  0  0  0  0  0  0
   -2.2655   -1.4381    1.7715 H   0  0  0  0  0  0  0  0  0  0  0  0
   -2.5222   -4.4815    1.4801 H   0  0  0  0  0  0  0  0  0  0  0  0
   -2.7844   -3.5419    2.9485 H   0  0  0  0  0  0  0  0  0  0  0  0
   -3.8288   -3.1594    1.5845 H   0  0  0  0  0  0  0  0  0  0  0  0
   -0.4219   -1.6144    3.0353 H   0  0  0  0  0  0  0  0  0  0  0  0
   -0.8559   -3.3661    3.2425 H   0  0  0  0  0  0  0  0  0  0  0  0
    0.2680   -2.9333    1.9545 H   0  0  0  0  0  0  0  0  0  0  0  0
    3.8813   -1.1707    1.9457 H   0  0  0  0  0  0  0  0  0  0  0  0
   -3.0115   -0.4398    0.1630 H   0  0  0  0  0  0  0  0  0  0  0  0
   -1.3133   -2.0106   -1.7879 H   0  0  0  0  0  0  0  0  0  0  0  0
   -3.0519   -3.3054   -2.3427 H   0  0  0  0  0  0  0  0  0  0  0  0
   -3.3143   -3.7708   -0.6687 H   0  0  0  0  0  0  0  0  0  0  0  0
   -4.8708   -2.0440   -0.3181 H   0  0  0  0  0  0  0  0  0  0  0  0
   -5.2466   -2.7243   -1.9192 H   0  0  0  0  0  0  0  0  0  0  0  0
   -5.0406   -0.0459   -1.4024 H   0  0  0  0  0  0  0  0  0  0  0  0
   -4.7961   -0.7453   -3.0154 H   0  0  0  0  0  0  0  0  0  0  0  0
   -3.1458    0.8718   -2.2019 H   0  0  0  0  0  0  0  0  0  0  0  0
   -2.4999   -0.7126   -2.8596 H   0  0  0  0  0  0  0  0  0  0  0  0
   -0.5077    0.0613   -1.5403 H   0  0  0  0  0  0  0  0  0  0  0  0
   -0.0125   -0.9144    1.1726 H   0  0  0  0  0  0  0  0  0  0  0  0
   -0.4862    3.2679    1.6528 H   0  0  0  0  0  0  0  0  0  0  0  0
   -1.4676    2.7628    3.1069 H   0  0  0  0  0  0  0  0  0  0  0  0
   -0.7181    0.6656    2.2469 H   0  0  0  0  0  0  0  0  0  0  0  0
   -2.4160    0.9476    1.6507 H   0  0  0  0  0  0  0  0  0  0  0  0
    0.2852    1.4433    0.2573 H   0  0  0  0  0  0  0  0  0  0  0  0
   -1.3541    2.2926   -1.6622 H   0  0  0  0  0  0  0  0  0  0  0  0
   -0.7658    3.3142   -0.3611 H   0  0  0  0  0  0  0  0  0  0  0  0
   -3.1661    3.5297   -0.7105 H   0  0  0  0  0  0  0  0  0  0  0  0
   -3.4721    1.9005   -0.0518 H   0  0  0  0  0  0  0  0  0  0  0  0
   -3.4723    3.0409    1.9495 H   0  0  0  0  0  0  0  0  0  0  0  0
    7.0391    3.5721    0.8154 H   0  0  0  0  0  0  0  0  0  0  0  0
    6.2401    2.0398   -1.9128 H   0  0  0  0  0  0  0  0  0  0  0  0
    5.4402   -0.2712   -1.6210 H   0  0  0  0  0  0  0  0  0  0  0  0
    4.6349    3.2096    0.1634 H   0  0  0  0  0  0  0  0  0  0  0  0
    5.9928    1.6123    1.4544 H   0  0  0  0  0  0  0  0  0  0  0  0
    6.9054    1.1373   -0.0026 H   0  0  0  0  0  0  0  0  0  0  0  0
    5.2819   -0.4745    0.5454 H   0  0  0  0  0  0  0  0  0  0  0  0
    3.1381    1.7665    0.4438 H   0  0  0  0  0  0  0  0  0  0  0  0
    3.8974    1.0242    1.8764 H   0  0  0  0  0  0  0  0  0  0  0  0
    1.7273    0.0782    1.4741 H   0  0  0  0  0  0  0  0  0  0  0  0
    2.8914   -1.1250   -1.1585 H   0  0  0  0  0  0  0  0  0  0  0  0
    1.7381    0.2157   -1.1971 H   0  0  0  0  0  0  0  0  0  0  0  0
    0.6936   -1.8570   -1.6328 H   0  0  0  0  0  0  0  0  0  0  0  0
    1.3805   -2.6316   -0.1292 H   0  0  0  0  0  0  0  0  0  0  0  0
   -2.2655   -1.4381    1.7715 H   0  0  0  0  0  0  0  0  0  0  0  0
   -2.5222   -4.4815    1.4801 H   0  0  0  0  0  0  0  0  0  0  0  0
   -2.7844   -3.5419    2.9485 H   0  0  0  0  0  0  0  0  0  0  0  0
   -3.8288   -3.1594    1.5845 H   0  0  0  0  0  0  0  0  0  0  0  0
   -0.4219   -1.6144    3.0353 H   0  0  0  0  0  0  0  0  0  0  0  0
   -0.8559   -3.3661    3.2425 H   0  0  0  0  0  0  0  0  0  0  0  0
    0.2680   -2.9333    1.9545 H   0  0  0  0  0  0  0  0  0  0  0  0
    3.8813   -1.1707    1.9457 H   0  0  0  0  0  0  0  0  0  0  0  0
  1  2  1  0
  2  3  1  0
  3  4  1  0
  4  5  1  0
  1  6  1  0
  5  6  1  0
  1  7  1  0
  7  8  1  0
  2  9  1  0
  8  9  1  0
 10 11  1  0
  7 12  1  0
 11 12  1  0
 12 13  1  0
 13 14  1  0
 10 15  1  0
 14 15  1  0
 15 16  1  0
 17 20  1  0
 18 20  1  0
 20 21  1  0
 19 22  1  0
 21 22  1  0
 22 23  1  0
 23 24  1  0
 24 25  1  0
  8 26  1  0
 25 26  1  0
  9 27  1  0
 27 28  1  0
 27 29  1  0
 24 30  1  0
 31 32  1  0
 32 33  1  0
 33 34  1  0
 34 35  1  0
 31 36  1  0
 35 36  1  0
 31 37  1  0
 37 38  1  0
 32 39  1  0
 38 39  1  0
 40 41  1  0
 37 42  1  0
 41 42  1  0
 42 43  1  0
 43 44  1  0
 40 45  1  0
 44 45  1  0
 45 46  1  0
 47 50  1  0
 48 50  1  0
 50 51  1  0
 49 52  1  0
 51 52  1  0
 52 53  1  0
 53 54  1  0
 54 55  1  0
 38 56  1  0
 55 56  1  0
 39 57  1  0
 57 58  1  0
 57 59  1  0
 54 60  1  0
 61 62  1  0
 62 63  1  0
 63 64  1  0
 64 65  1  0
 61 66  1  0
 65 66  1  0
 61 67  1  0
 67 68  1  0
 62 69  1  0
 68 69  1  0
 70 71  1  0
 67 72  1  0
 71 72  1  0
 72 73  1  0
 73 74  1  0
 70 75  1  0
 74 75  1  0
 75 76  1  0
 77 80  1  0
 78 80  1  0
 80 81  1  0
 79 82  1  0
 81 82  1  0
 82 83  1  0
 83 84  1  0
 84 85  1  0
 68 86  1  0
 85 86  1  0
 69 87  1  0
 87 88  1  0
 87 89  1  0
 84 90  1  0
 91 92  1  0
 92 93  1  0
 93 94  1  0
 94 95  1  0
 91 96  1  0
 95 96  1  0
 91 97  1  0
 97 98  1  0
 92 99  1  0
 98 99  1  0
100101  1  0
 97102  1  0
101102  1  0
102103  1  0
103104  1  0
100105  1  0
104105  1  0
105106  1  0
107110  1  0
108110  1  0
110111  1  0
109112  1  0
111112  1  0
112113  1  0
113114  1  0
114115  1  0
 98116  1  0
115116  1  0
 99117  1  0
117118  1  0
117119  1  0
114120  1  0
  1121  1  0
  2122  1  0
  3123  1  0
  3124  1  0
  4125  1  0
  4126  1  0
  5127  1  0
  5128  1  0
  6129  1  0
  6130  1  0
  7131  1  0
  8132  1  0
 10133  1  0
 10134  1  0
 11135  1  0
 11136  1  0
 12137  1  0
 13138  1  0
 13139  1  0
 14140  1  0
 14141  1  0
 15142  1  0
 17143  1  0
 18144  1  0
 19145  1  0
 20146  1  0
 21147  1  0
 21148  1  0
 22149  1  1
 23150  1  0
 23151  1  0
 24152  1  1
 25153  1  0
 25154  1  0
 26155  1  0
 26156  1  0
 27157  1  0
 28158  1  0
 28159  1  0
 28160  1  0
 29161  1  0
 29162  1  0
 29163  1  0
 30164  1  0
 31165  1  0
 32166  1  0
 33167  1  0
 33168  1  0
 34169  1  0
 34170  1  0
 35171  1  0
 35172  1  0
 36173  1  0
 36174  1  0
 37175  1  0
 38176  1  0
 40177  1  0
 40178  1  0
 41179  1  0
 41180  1  0
 42181  1  0
 43182  1  0
 43183  1  0
 44184  1  0
 44185  1  0
 45186  1  0
 47187  1  0
 48188  1  0
 49189  1  0
 50190  1  0
 51191  1  0
 51192  1  0
 52193  1  1
 53194  1  0
 53195  1  0
 54196  1  1
 55197  1  0
 55198  1  0
 56199  1  0
 56200  1  0
 57201  1  0
 58202  1  0
 58203  1  0
 58204  1  0
 59205  1  0
 59206  1  0
 59207  1  0
 60208  1  0
 61209  1  0
 62210  1  0
 63211  1  0
 63212  1  0
 64213  1  0
 64214  1  0
 65215  1  0
 65216  1  0
 66217  1  0
 66218  1  0
 67219  1  0
 68220  1  0
 70221  1  0
 70222  1  0
 71223  1  0
 71224  1  0
 72225  1  0
 73226  1  0
 73227  1  0
 74228  1  0
 74229  1  0
 75230  1  0
 77231  1  0
 78232  1  0
 79233  1  0
 80234  1  0
 81235  1  0
 81236  1  0
 82237  1  1
 83238  1  0
 83239  1  0
 84240  1  1
 85241  1  0
 85242  1  0
 86243  1  0
 86244  1  0
 87245  1  0
 88246  1  0
 88247  1  0
 88248  1  0
 89249  1  0
 89250  1  0
 89251  1  0
 90252  1  0
 91253  1  0
 92254  1  0
 93255  1  0
 93256  1  0
 94257  1  0
 94258  1  0
 95259  1  0
 95260  1  0
 96261  1  0
 96262  1  0
 97263  1  0
 98264  1  0
100265  1  0
100266  1  0
101267  1  0
101268  1  0
102269  1  0
103270  1  0
103271  1  0
104272  1  0
104273  1  0
105274  1  0
107275  1  0
108276  1  0
109277  1  0
110278  1  0
111279  1  0
111280  1  0
112281  1  1
113282  1  0
113283  1  0
114284  1  1
115285  1  0
115286  1  0
116287  1  0
116288  1  0
117289  1  0
118290  1  0
118291  1  0
118292  1  0
119293  1  0
119294  1  0
119295  1  0
120296  1  0
M  END
>  <PDBID>  (1) 
1HWI

>  <PDB ID>  (1) 
1HWI

>  <Generic Name>  (1) 
Fluvastatin

>  <Brand Name>  (1) 
Fluvastatin#Fluvastatin Sodium#Fluvastatin Sodium ER#Lescol#Lescol 20mg#Lescol 40mg#Lescol XL#Sandoz Fluvastatin#Teva-fluvastatin#Canef#Cranoc

>  <DrugBank ID>  (1) 
DB01095

>  <ATC Codes>  (1) 
C10AA04

>  <Ligand ID>  (1) 
115

>  <Target Name>  (1) 
3-hydroxy-3-methylglutaryl-coenzyme A reductase

>  <UniProt ID>  (1) 
P04035

>  <PDB ID.1>  (1) 
1HWI

>  <Seq. Identity>  (1) 
97%

$$$$
