PDB_DB05990_03
     RDKit          3D

 76 79  0  0  0  0  0  0  0  0999 V2000
   -3.2207    1.7277   -1.4066 C   0  0  0  0  0  0  0  0  0  0  0  0
   -4.5816    2.3449   -1.2781 C   0  0  0  0  0  0  0  0  0  0  0  0
   -5.4205    1.8453   -0.1687 C   0  0  1  0  0  0  0  0  0  0  0  0
   -6.7586    1.7917   -0.6322 O   0  0  0  0  0  0  0  0  0  0  0  0
   -5.0492    0.3834    0.0968 C   0  0  0  0  0  0  0  0  0  0  0  0
   -3.6523    0.2390    0.5673 C   0  0  1  0  0  0  0  0  0  0  0  0
   -3.2505   -1.1684    0.7275 C   0  0  2  0  0  0  0  0  0  0  0  0
   -1.8268   -1.3212    1.2788 C   0  0  1  0  0  0  0  0  0  0  0  0
   -1.4743   -2.6642    1.1335 O   0  0  0  0  0  0  0  0  0  0  0  0
   -0.8615   -0.3670    0.7293 C   0  0  2  0  0  0  0  0  0  0  0  0
   -1.3944    0.4369   -0.4371 C   0  0  1  0  0  0  0  0  0  0  0  0
   -2.6789    1.1556   -0.1272 C   0  0  1  0  0  0  0  0  0  0  0  0
   -0.3565    1.4704   -0.8354 C   0  0  0  0  0  0  0  0  0  0  0  0
    0.9693    0.7932   -1.2567 C   0  0  0  0  0  0  0  0  0  0  0  0
    1.4887    0.0698   -0.0780 C   0  0  1  0  0  0  0  0  0  0  0  0
    0.4434   -0.9571    0.3437 C   0  0  1  0  0  0  0  0  0  0  0  0
    1.1656   -1.6187    1.4950 C   0  0  0  0  0  0  0  0  0  0  0  0
    2.5644   -1.7560    0.9427 C   0  0  0  0  0  0  0  0  0  0  0  0
    2.6265   -0.8797   -0.2956 C   0  0  2  0  0  0  0  0  0  0  0  0
    1.8874    0.9690    1.0621 C   0  0  0  0  0  0  0  0  0  0  0  0
   -2.3511    2.3388    0.7577 C   0  0  0  0  0  0  0  0  0  0  0  0
    3.9936   -0.2796   -0.4752 C   0  0  2  0  0  0  0  0  0  0  0  0
    4.0051    0.5749   -1.7083 C   0  0  0  0  0  0  0  0  0  0  0  0
    5.0591   -1.3150   -0.5402 C   0  0  0  0  0  0  0  0  0  0  0  0
    6.4246   -0.7254   -0.6829 C   0  0  0  0  0  0  0  0  0  0  0  0
    6.7948    0.2075    0.4741 C   0  0  0  0  0  0  0  0  0  0  0  0
   -4.9740   -2.5187   -0.6039 C   0  0  0  0  0  0  0  0  0  0  0  0
   -3.5497   -2.1928   -0.2921 C   0  0  0  0  0  0  0  0  0  0  0  0
    6.7509   -0.5167    1.6472 O   0  0  0  0  0  0  0  0  0  0  0  0
    8.1309    0.5685    0.2488 O   0  0  0  0  0  0  0  0  0  0  0  0
   -2.5574    2.5613   -1.7215 H   0  0  0  0  0  0  0  0  0  0  0  0
   -3.1696    0.9794   -2.2209 H   0  0  0  0  0  0  0  0  0  0  0  0
   -5.1008    2.1710   -2.2433 H   0  0  0  0  0  0  0  0  0  0  0  0
   -4.5372    3.4703   -1.1825 H   0  0  0  0  0  0  0  0  0  0  0  0
   -5.4698    2.4537    0.7421 H   0  0  0  0  0  0  0  0  0  0  0  0
   -7.1803    2.6850   -0.5821 H   0  0  0  0  0  0  0  0  0  0  0  0
   -5.7992    0.0390    0.8349 H   0  0  0  0  0  0  0  0  0  0  0  0
   -5.2722   -0.1136   -0.8655 H   0  0  0  0  0  0  0  0  0  0  0  0
   -3.6802    0.6512    1.6470 H   0  0  0  0  0  0  0  0  0  0  0  0
   -3.9082   -1.5223    1.6320 H   0  0  0  0  0  0  0  0  0  0  0  0
   -1.9023   -1.1822    2.3889 H   0  0  0  0  0  0  0  0  0  0  0  0
   -1.0751   -2.8699    0.2580 H   0  0  0  0  0  0  0  0  0  0  0  0
   -0.6168    0.3980    1.5249 H   0  0  0  0  0  0  0  0  0  0  0  0
   -1.5174   -0.2378   -1.2954 H   0  0  0  0  0  0  0  0  0  0  0  0
   -0.6870    2.0343   -1.7030 H   0  0  0  0  0  0  0  0  0  0  0  0
   -0.0802    2.1080    0.0263 H   0  0  0  0  0  0  0  0  0  0  0  0
    0.8049    0.1166   -2.0951 H   0  0  0  0  0  0  0  0  0  0  0  0
    1.5974    1.6993   -1.5357 H   0  0  0  0  0  0  0  0  0  0  0  0
    0.4014   -1.6825   -0.4943 H   0  0  0  0  0  0  0  0  0  0  0  0
    1.1128   -0.9319    2.3615 H   0  0  0  0  0  0  0  0  0  0  0  0
    0.7582   -2.5872    1.7771 H   0  0  0  0  0  0  0  0  0  0  0  0
    3.2653   -1.4450    1.7255 H   0  0  0  0  0  0  0  0  0  0  0  0
    2.7784   -2.8244    0.6941 H   0  0  0  0  0  0  0  0  0  0  0  0
    2.4013   -1.5476   -1.1552 H   0  0  0  0  0  0  0  0  0  0  0  0
    2.5557    1.7529    0.6176 H   0  0  0  0  0  0  0  0  0  0  0  0
    2.5113    0.4492    1.8154 H   0  0  0  0  0  0  0  0  0  0  0  0
    1.0871    1.4893    1.5700 H   0  0  0  0  0  0  0  0  0  0  0  0
   -2.1774    3.2477    0.1094 H   0  0  0  0  0  0  0  0  0  0  0  0
   -1.5204    2.1780    1.4544 H   0  0  0  0  0  0  0  0  0  0  0  0
   -3.2102    2.6454    1.4123 H   0  0  0  0  0  0  0  0  0  0  0  0
    4.2518    0.3992    0.3793 H   0  0  0  0  0  0  0  0  0  0  0  0
    3.9165    1.6593   -1.5168 H   0  0  0  0  0  0  0  0  0  0  0  0
    4.9040    0.4135   -2.3653 H   0  0  0  0  0  0  0  0  0  0  0  0
    3.1597    0.2987   -2.4079 H   0  0  0  0  0  0  0  0  0  0  0  0
    5.0912   -1.9695    0.3626 H   0  0  0  0  0  0  0  0  0  0  0  0
    4.8678   -1.9623   -1.4313 H   0  0  0  0  0  0  0  0  0  0  0  0
    6.5395   -0.1500   -1.6049 H   0  0  0  0  0  0  0  0  0  0  0  0
    7.1999   -1.5430   -0.7425 H   0  0  0  0  0  0  0  0  0  0  0  0
    6.1374    1.0897    0.4534 H   0  0  0  0  0  0  0  0  0  0  0  0
   -5.1415   -3.6497   -0.5940 H   0  0  0  0  0  0  0  0  0  0  0  0
   -5.6797   -2.1707    0.1687 H   0  0  0  0  0  0  0  0  0  0  0  0
   -5.2992   -2.2473   -1.6412 H   0  0  0  0  0  0  0  0  0  0  0  0
   -3.0644   -3.1885   -0.0406 H   0  0  0  0  0  0  0  0  0  0  0  0
   -3.0753   -1.9630   -1.2876 H   0  0  0  0  0  0  0  0  0  0  0  0
    7.2041   -1.3852    1.4738 H   0  0  0  0  0  0  0  0  0  0  0  0
    8.2723    1.5474    0.3446 H   0  0  0  0  0  0  0  0  0  0  0  0
  1  2  1  0
  2  3  1  0
  3  4  1  0
  3  5  1  0
  5  6  1  0
  6  7  1  0
  7  8  1  0
  8  9  1  0
  8 10  1  0
 10 11  1  0
  1 12  1  0
  6 12  1  0
 11 12  1  0
 11 13  1  0
 13 14  1  0
 14 15  1  0
 10 16  1  0
 15 16  1  0
 16 17  1  0
 17 18  1  0
 15 19  1  0
 18 19  1  0
 15 20  1  1
 12 21  1  1
 19 22  1  0
 22 23  1  0
 22 24  1  0
 24 25  1  0
 25 26  1  0
  7 28  1  0
 27 28  1  0
 26 29  1  0
 26 30  1  0
  1 31  1  0
  1 32  1  0
  2 33  1  0
  2 34  1  0
  3 35  1  1
  4 36  1  0
  5 37  1  0
  5 38  1  0
  6 39  1  1
  7 40  1  1
  8 41  1  1
  9 42  1  0
 10 43  1  1
 11 44  1  6
 13 45  1  0
 13 46  1  0
 14 47  1  0
 14 48  1  0
 16 49  1  6
 17 50  1  0
 17 51  1  0
 18 52  1  0
 18 53  1  0
 19 54  1  6
 20 55  1  0
 20 56  1  0
 20 57  1  0
 21 58  1  0
 21 59  1  0
 21 60  1  0
 22 61  1  1
 23 62  1  0
 23 63  1  0
 23 64  1  0
 24 65  1  0
 24 66  1  0
 25 67  1  0
 25 68  1  0
 26 69  1  0
 27 70  1  0
 27 71  1  0
 27 72  1  0
 28 73  1  0
 28 74  1  0
 29 75  1  0
 30 76  1  0
M  END
>  <PDBID>  (1) 
1OT7

>  <PDB ID>  (1) 
1OT7

>  <Generic Name>  (1) 
Obeticholic acid

>  <Brand Name>  (1) 
Ocaliva

>  <DrugBank ID>  (1) 
DB05990

>  <ATC Codes>  (1) 
A05AA04

>  <Ligand ID>  (1) 
CHC

>  <Target Name>  (1) 
Bile acid receptor

>  <UniProt ID>  (1) 
Q96RI1

>  <PDB ID.1>  (1) 
1OT7

>  <Seq. Identity>  (1) 
95%

$$$$
