PDB_DB00523_03
     RDKit          3D

 62 62  0  0  0  0  0  0  0  0999 V2000
   -3.9939   -0.7727   -1.1341 C   0  0  0  0  0  0  0  0  0  0  0  0
   -5.0452   -0.5815   -0.0649 C   0  0  0  0  0  0  0  0  0  0  0  0
   -4.5138   -0.0700    1.2371 C   0  0  0  0  0  0  0  0  0  0  0  0
   -3.7931    1.2405    1.1125 C   0  0  0  0  0  0  0  0  0  0  0  0
   -3.5940    1.4923   -0.3761 C   0  0  2  0  0  0  0  0  0  0  0  0
   -2.9436    0.3228   -1.0505 C   0  0  1  0  0  0  0  0  0  0  0  0
   -1.6844   -0.1696   -0.4057 C   0  0  0  0  0  0  0  0  0  0  0  0
   -0.6133    0.8772   -0.3030 C   0  0  0  0  0  0  0  0  0  0  0  0
    0.6546    0.3754    0.3494 C   0  0  0  0  0  0  0  0  0  0  0  0
    1.2290   -0.7602   -0.4367 C   0  0  0  0  0  0  0  0  0  0  0  0
    2.5064   -1.2997    0.1710 C   0  0  0  0  0  0  0  0  0  0  0  0
    3.5956   -0.2479    0.2545 C   0  0  0  0  0  0  0  0  0  0  0  0
    4.8539   -0.7802    0.8492 C   0  0  0  0  0  0  0  0  0  0  0  0
    5.9116    0.2735    0.9299 C   0  0  0  0  0  0  0  0  0  0  0  0
    6.3256    0.8778   -0.3654 C   0  0  0  0  0  0  0  0  0  0  0  0
   -3.3920   -2.1435   -0.9487 C   0  0  0  0  0  0  0  0  0  0  0  0
   -4.6911   -0.7515   -2.4781 C   0  0  0  0  0  0  0  0  0  0  0  0
   -2.9932    2.8220   -0.6545 C   0  0  0  0  0  0  0  0  0  0  0  0
    0.4204   -0.0286    1.7873 C   0  0  0  0  0  0  0  0  0  0  0  0
    4.6568   -1.3460    2.2367 C   0  0  0  0  0  0  0  0  0  0  0  0
    6.8230   -0.1370   -1.1980 O   0  0  0  0  0  0  0  0  0  0  0  0
    5.3968    1.6847   -0.9709 O   0  0  0  0  0  0  0  0  0  0  0  0
   -5.9337   -0.0179   -0.4215 H   0  0  0  0  0  0  0  0  0  0  0  0
   -5.4627   -1.6104    0.1579 H   0  0  0  0  0  0  0  0  0  0  0  0
   -5.4270    0.1479    1.8695 H   0  0  0  0  0  0  0  0  0  0  0  0
   -3.9535   -0.8431    1.7975 H   0  0  0  0  0  0  0  0  0  0  0  0
   -4.3804    2.1043    1.4881 H   0  0  0  0  0  0  0  0  0  0  0  0
   -2.8336    1.2598    1.6627 H   0  0  0  0  0  0  0  0  0  0  0  0
   -4.6547    1.5103   -0.7857 H   0  0  0  0  0  0  0  0  0  0  0  0
   -2.7089    0.6128   -2.0939 H   0  0  0  0  0  0  0  0  0  0  0  0
   -1.2815   -1.0057   -1.0154 H   0  0  0  0  0  0  0  0  0  0  0  0
   -1.8855   -0.5054    0.6502 H   0  0  0  0  0  0  0  0  0  0  0  0
   -0.9381    1.7637    0.2825 H   0  0  0  0  0  0  0  0  0  0  0  0
   -0.3914    1.2319   -1.3283 H   0  0  0  0  0  0  0  0  0  0  0  0
    1.4037    1.1939    0.3734 H   0  0  0  0  0  0  0  0  0  0  0  0
    0.5181   -1.6363   -0.4123 H   0  0  0  0  0  0  0  0  0  0  0  0
    1.4396   -0.4694   -1.4669 H   0  0  0  0  0  0  0  0  0  0  0  0
    2.3342   -1.7324    1.1653 H   0  0  0  0  0  0  0  0  0  0  0  0
    2.8729   -2.0882   -0.5139 H   0  0  0  0  0  0  0  0  0  0  0  0
    3.7705    0.0739   -0.8001 H   0  0  0  0  0  0  0  0  0  0  0  0
    3.2982    0.6471    0.8358 H   0  0  0  0  0  0  0  0  0  0  0  0
    5.2331   -1.6144    0.1971 H   0  0  0  0  0  0  0  0  0  0  0  0
    5.5770    1.1046    1.6166 H   0  0  0  0  0  0  0  0  0  0  0  0
    6.8478   -0.1075    1.4252 H   0  0  0  0  0  0  0  0  0  0  0  0
    7.2445    1.5028   -0.1358 H   0  0  0  0  0  0  0  0  0  0  0  0
   -2.6802   -2.3979   -1.7774 H   0  0  0  0  0  0  0  0  0  0  0  0
   -2.9483   -2.3020    0.0431 H   0  0  0  0  0  0  0  0  0  0  0  0
   -4.2243   -2.8715   -1.0467 H   0  0  0  0  0  0  0  0  0  0  0  0
   -5.5894   -1.3823   -2.3927 H   0  0  0  0  0  0  0  0  0  0  0  0
   -3.9698   -1.1396   -3.2542 H   0  0  0  0  0  0  0  0  0  0  0  0
   -4.9227    0.3154   -2.6995 H   0  0  0  0  0  0  0  0  0  0  0  0
   -2.6608    3.3873    0.2410 H   0  0  0  0  0  0  0  0  0  0  0  0
   -3.7883    3.4923   -1.1043 H   0  0  0  0  0  0  0  0  0  0  0  0
   -2.2366    2.7437   -1.4551 H   0  0  0  0  0  0  0  0  0  0  0  0
   -0.1829    0.7713    2.2742 H   0  0  0  0  0  0  0  0  0  0  0  0
    0.0124   -1.0330    1.9054 H   0  0  0  0  0  0  0  0  0  0  0  0
    1.4143   -0.0034    2.2944 H   0  0  0  0  0  0  0  0  0  0  0  0
    4.0765   -2.2692    2.2603 H   0  0  0  0  0  0  0  0  0  0  0  0
    4.2341   -0.5393    2.8702 H   0  0  0  0  0  0  0  0  0  0  0  0
    5.6658   -1.5666    2.6426 H   0  0  0  0  0  0  0  0  0  0  0  0
    7.1141    0.2526   -2.0687 H   0  0  0  0  0  0  0  0  0  0  0  0
    4.8811    2.1419   -0.2673 H   0  0  0  0  0  0  0  0  0  0  0  0
  1  2  1  0
  2  3  1  0
  3  4  1  0
  4  5  1  0
  1  6  1  0
  5  6  1  0
  6  7  1  0
  7  8  1  0
  8  9  1  0
  9 10  1  0
 10 11  1  0
 11 12  1  0
 12 13  1  0
 13 14  1  0
 14 15  1  0
  1 16  1  0
  1 17  1  0
  5 18  1  0
  9 19  1  0
 13 20  1  0
 15 21  1  0
 15 22  1  0
  2 23  1  0
  2 24  1  0
  3 25  1  0
  3 26  1  0
  4 27  1  0
  4 28  1  0
  5 29  1  6
  6 30  1  6
  7 31  1  0
  7 32  1  0
  8 33  1  0
  8 34  1  0
  9 35  1  0
 10 36  1  0
 10 37  1  0
 11 38  1  0
 11 39  1  0
 12 40  1  0
 12 41  1  0
 13 42  1  0
 14 43  1  0
 14 44  1  0
 15 45  1  0
 16 46  1  0
 16 47  1  0
 16 48  1  0
 17 49  1  0
 17 50  1  0
 17 51  1  0
 18 52  1  0
 18 53  1  0
 18 54  1  0
 19 55  1  0
 19 56  1  0
 19 57  1  0
 20 58  1  0
 20 59  1  0
 20 60  1  0
 21 61  1  0
 22 62  1  0
M  END
>  <PDBID>  (1) 
3OAP

>  <PDB ID>  (1) 
3OAP

>  <Generic Name>  (1) 
Alitretinoin

>  <Brand Name>  (1) 
Panretin#Toctino

>  <DrugBank ID>  (1) 
DB00523

>  <ATC Codes>  (1) 
D11AH04#L01XX22

>  <Ligand ID>  (1) 
9CR

>  <Target Name>  (1) 
Retinoic acid receptor RXR-beta

>  <UniProt ID>  (1) 
P28702

>  <PDB ID.1>  (1) 
3OAP

>  <Seq. Identity>  (1) 
87%

$$$$
