PDB_DB00540_00
     RDKit          3D

 55 57  0  0  0  0  0  0  0  0999 V2000
    4.2454   -2.0598    0.3611 C   0  0  0  0  0  0  0  0  0  0  0  0
    4.2015   -1.5837   -0.9670 N   0  0  0  0  0  0  0  0  0  0  0  0
    3.7110   -0.2796   -1.2302 C   0  0  0  0  0  0  0  0  0  0  0  0
    2.2364   -0.0472   -1.0636 C   0  0  0  0  0  0  0  0  0  0  0  0
    1.6639   -0.2657    0.2744 C   0  0  0  0  0  0  0  0  0  0  0  0
    0.1714    0.0196    0.3820 C   0  0  0  0  0  0  0  0  0  0  0  0
   -0.1043    1.4070    0.0668 C   0  0  0  0  0  0  0  0  0  0  0  0
   -0.0972    2.1946    1.3976 C   0  0  0  0  0  0  0  0  0  0  0  0
   -0.2140    3.6636    1.1657 C   0  0  0  0  0  0  0  0  0  0  0  0
   -0.4684    4.0524   -0.2538 C   0  0  0  0  0  0  0  0  0  0  0  0
   -0.6174   -1.0579   -0.3645 C   0  0  0  0  0  0  0  0  0  0  0  0
   -0.0706   -2.3520    0.1698 C   0  0  0  0  0  0  0  0  0  0  0  0
   -0.9669   -3.5316    0.1248 C   0  0  0  0  0  0  0  0  0  0  0  0
   -2.3058   -3.0967    0.7377 C   0  0  0  0  0  0  0  0  0  0  0  0
   -2.8739   -2.1966   -0.3059 C   0  0  0  0  0  0  0  0  0  0  0  0
   -2.0599   -0.9002   -0.3823 C   0  0  0  0  0  0  0  0  0  0  0  0
   -2.6614    0.0093    0.6728 C   0  0  0  0  0  0  0  0  0  0  0  0
   -2.6010    1.4005    0.1552 C   0  0  0  0  0  0  0  0  0  0  0  0
   -1.3891    1.7315   -0.6588 C   0  0  0  0  0  0  0  0  0  0  0  0
   -1.4210    3.1915   -1.0036 C   0  0  0  0  0  0  0  0  0  0  0  0
    3.5182   -2.9079    0.5056 H   0  0  0  0  0  0  0  0  0  0  0  0
    5.2404   -2.5655    0.6003 H   0  0  0  0  0  0  0  0  0  0  0  0
    4.1779   -1.2914    1.1639 H   0  0  0  0  0  0  0  0  0  0  0  0
    5.0298   -1.8737   -1.4942 H   0  0  0  0  0  0  0  0  0  0  0  0
    4.3121    0.4118   -0.5749 H   0  0  0  0  0  0  0  0  0  0  0  0
    3.9797   -0.0234   -2.3024 H   0  0  0  0  0  0  0  0  0  0  0  0
    1.7738   -0.8358   -1.7626 H   0  0  0  0  0  0  0  0  0  0  0  0
    1.9135    0.8925   -1.5863 H   0  0  0  0  0  0  0  0  0  0  0  0
    2.1450    0.4651    0.9860 H   0  0  0  0  0  0  0  0  0  0  0  0
    1.9110   -1.2536    0.6652 H   0  0  0  0  0  0  0  0  0  0  0  0
   -0.0511   -0.2040    1.4674 H   0  0  0  0  0  0  0  0  0  0  0  0
    0.6698    1.9487   -0.5238 H   0  0  0  0  0  0  0  0  0  0  0  0
    0.8145    1.8874    1.9387 H   0  0  0  0  0  0  0  0  0  0  0  0
   -0.9629    1.8251    1.9807 H   0  0  0  0  0  0  0  0  0  0  0  0
   -0.9733    4.1006    1.8489 H   0  0  0  0  0  0  0  0  0  0  0  0
    0.7599    4.1210    1.4696 H   0  0  0  0  0  0  0  0  0  0  0  0
   -0.8399    5.0989   -0.2525 H   0  0  0  0  0  0  0  0  0  0  0  0
    0.5331    4.1025   -0.7754 H   0  0  0  0  0  0  0  0  0  0  0  0
   -0.2340   -0.9867   -1.4284 H   0  0  0  0  0  0  0  0  0  0  0  0
    0.2342   -2.2334    1.2536 H   0  0  0  0  0  0  0  0  0  0  0  0
    0.8701   -2.6419   -0.3875 H   0  0  0  0  0  0  0  0  0  0  0  0
   -1.2096   -3.8926   -0.8886 H   0  0  0  0  0  0  0  0  0  0  0  0
   -0.5758   -4.3076    0.7858 H   0  0  0  0  0  0  0  0  0  0  0  0
   -2.1560   -2.5101    1.6655 H   0  0  0  0  0  0  0  0  0  0  0  0
   -2.9579   -3.9631    0.9276 H   0  0  0  0  0  0  0  0  0  0  0  0
   -3.9255   -1.9316   -0.1798 H   0  0  0  0  0  0  0  0  0  0  0  0
   -2.7739   -2.7305   -1.2929 H   0  0  0  0  0  0  0  0  0  0  0  0
   -2.4282   -0.4772   -1.3681 H   0  0  0  0  0  0  0  0  0  0  0  0
   -3.7596   -0.2409    0.7853 H   0  0  0  0  0  0  0  0  0  0  0  0
   -2.2379   -0.1642    1.6686 H   0  0  0  0  0  0  0  0  0  0  0  0
   -2.6912    2.1751    0.9429 H   0  0  0  0  0  0  0  0  0  0  0  0
   -3.4910    1.5742   -0.5187 H   0  0  0  0  0  0  0  0  0  0  0  0
   -1.3228    1.1902   -1.6302 H   0  0  0  0  0  0  0  0  0  0  0  0
   -2.4571    3.5653   -0.8666 H   0  0  0  0  0  0  0  0  0  0  0  0
   -1.2140    3.3779   -2.1009 H   0  0  0  0  0  0  0  0  0  0  0  0
  1  2  1  0
  2  3  1  0
  3  4  1  0
  4  5  1  0
  5  6  1  0
  6  7  1  0
  7  8  1  0
  8  9  1  0
  9 10  1  0
  6 11  1  0
 11 12  1  0
 12 13  1  0
 13 14  1  0
 14 15  1  0
 11 16  1  0
 15 16  1  0
 16 17  1  0
 17 18  1  0
  7 19  1  0
 18 19  1  0
 10 20  1  0
 19 20  1  0
  1 21  1  0
  1 22  1  0
  1 23  1  0
  2 24  1  0
  3 25  1  0
  3 26  1  0
  4 27  1  0
  4 28  1  0
  5 29  1  0
  5 30  1  0
  6 31  1  0
  7 32  1  0
  8 33  1  0
  8 34  1  0
  9 35  1  0
  9 36  1  0
 10 37  1  0
 10 38  1  0
 11 39  1  0
 12 40  1  0
 12 41  1  0
 13 42  1  0
 13 43  1  0
 14 44  1  0
 14 45  1  0
 15 46  1  0
 15 47  1  0
 16 48  1  0
 17 49  1  0
 17 50  1  0
 18 51  1  0
 18 52  1  0
 19 53  1  0
 20 54  1  0
 20 55  1  0
M  END
>  <PDBID>  (1) 
4M48

>  <PDB ID>  (1) 
4M48

>  <Generic Name>  (1) 
Nortriptyline

>  <Brand Name>  (1) 
Apo-nortriptyline - Cap 10mg#Apo-nortriptyline - Cap 25mg#Ava-nortriptyline#Aventyl#Dom-nortriptyline 10mg Capsules#Dom-nortriptyline 25mg Capsules#Gen-nortriptyline Capsules 10mg#Gen-nortriptyline Capsules 25mg#Nortriptyline#Nortriptyline Hydrochloride#Nortriptyline-10#Nortriptyline-25#Norventyl#Nu-nortriptyline - Cap 10mg#Nu-nortriptyline - Cap 25mg#PMS-nortriptyline#Pamelor#Ratio-nortriptyline#Teva-nortriptyline#Allegron#Noritren#Norpress#Nortrilen#Sensoval

>  <DrugBank ID>  (1) 
DB00540

>  <ATC Codes>  (1) 
N06AA10

>  <Ligand ID>  (1) 
21B

>  <Target Name>  (1) 
Sodium-dependent noradrenaline transporter

>  <UniProt ID>  (1) 
P23975

>  <PDB ID.1>  (1) 
4M48

>  <Seq. Identity>  (1) 
57%

$$$$
