PDB_DB00625_02
     RDKit          3D

 42 44  0  0  0  0  0  0  0  0999 V2000
   -4.3320    1.6333    1.2702 Cl  0  0  0  0  0  0  0  0  0  0  0  0
   -0.1382    0.0718    2.6757 F   0  0  0  0  0  0  0  0  0  0  0  0
    1.7842   -0.7496    2.0953 F   0  0  0  0  0  0  0  0  0  0  0  0
    1.3751    1.4187    1.6499 F   0  0  0  0  0  0  0  0  0  0  0  0
   -1.3648   -2.1716    2.2886 O   0  0  0  0  0  0  0  0  0  0  0  0
   -0.0198   -1.6481    0.5725 O   0  0  0  0  0  0  0  0  0  0  0  0
   -2.3565   -1.2944    0.4200 N   0  0  0  0  0  0  0  0  0  0  0  0
   -1.8612   -0.4906   -0.6922 C   0  0  1  0  0  0  0  0  0  0  0  0
   -3.0364    0.2014   -1.3493 C   0  0  0  0  0  0  0  0  0  0  0  0
   -2.9553    1.6571   -1.0208 C   0  0  0  0  0  0  0  0  0  0  0  0
   -2.7925    1.9509    0.4424 C   0  0  0  0  0  0  0  0  0  0  0  0
   -1.6379    1.1627    1.0622 C   0  0  0  0  0  0  0  0  0  0  0  0
   -0.9177    0.5001   -0.0515 C   0  0  0  0  0  0  0  0  0  0  0  0
    0.3075   -0.3224    0.3739 C   0  0  2  0  0  0  0  0  0  0  0  0
    1.1998   -0.2563   -0.7958 C   0  0  0  0  0  0  0  0  0  0  0  0
    2.4736   -0.8961   -0.9586 C   0  0  0  0  0  0  0  0  0  0  0  0
    3.7728   -0.6322   -0.3818 C   0  0  0  0  0  0  0  0  0  0  0  0
    4.4650    0.6809   -0.6399 C   0  0  0  0  0  0  0  0  0  0  0  0
    4.3046    0.1163    0.7512 C   0  0  0  0  0  0  0  0  0  0  0  0
    0.8586    0.1770    1.6539 C   0  0  0  0  0  0  0  0  0  0  0  0
   -1.2349   -2.0401    0.9063 C   0  0  0  0  0  0  0  0  0  0  0  0
   -2.3130   -2.1914    2.5478 H   0  0  0  0  0  0  0  0  0  0  0  0
   -3.1171   -1.8882    0.0795 H   0  0  0  0  0  0  0  0  0  0  0  0
   -1.3302   -1.1740   -1.3832 H   0  0  0  0  0  0  0  0  0  0  0  0
   -3.0022    0.0802   -2.4400 H   0  0  0  0  0  0  0  0  0  0  0  0
   -3.9809   -0.2515   -0.9945 H   0  0  0  0  0  0  0  0  0  0  0  0
   -2.1919    2.1622   -1.6521 H   0  0  0  0  0  0  0  0  0  0  0  0
   -3.9320    2.1156   -1.3252 H   0  0  0  0  0  0  0  0  0  0  0  0
   -2.6205    3.0569    0.5240 H   0  0  0  0  0  0  0  0  0  0  0  0
   -1.0638    1.8865    1.6485 H   0  0  0  0  0  0  0  0  0  0  0  0
   -2.1529    0.3765    1.6813 H   0  0  0  0  0  0  0  0  0  0  0  0
   -0.5840    1.2883   -0.7511 H   0  0  0  0  0  0  0  0  0  0  0  0
    0.5621   -0.5301   -1.7517 H   0  0  0  0  0  0  0  0  0  0  0  0
    1.3216    0.8875   -1.0732 H   0  0  0  0  0  0  0  0  0  0  0  0
    2.6692   -0.9453   -2.1234 H   0  0  0  0  0  0  0  0  0  0  0  0
    2.3064   -2.0668   -0.8103 H   0  0  0  0  0  0  0  0  0  0  0  0
    4.5180   -1.5006   -0.7018 H   0  0  0  0  0  0  0  0  0  0  0  0
    5.4917    0.6726   -1.0414 H   0  0  0  0  0  0  0  0  0  0  0  0
    3.8849    1.5710   -0.9288 H   0  0  0  0  0  0  0  0  0  0  0  0
    3.7697    0.7801    1.4446 H   0  0  0  0  0  0  0  0  0  0  0  0
    5.2572   -0.2995    1.2344 H   0  0  0  0  0  0  0  0  0  0  0  0
   -1.3860   -3.0985    0.5254 H   0  0  0  0  0  0  0  0  0  0  0  0
  7  8  1  0
  8  9  1  0
  9 10  1  0
  1 11  1  0
 10 11  1  0
 11 12  1  0
  8 13  1  0
 12 13  1  0
  6 14  1  0
 13 14  1  0
 14 15  1  6
 15 16  1  0
 16 17  1  0
 17 18  1  0
 17 19  1  0
 18 19  1  0
 20  2  1  0
  3 20  1  0
  4 20  1  0
 14 20  1  0
  5 21  1  0
  6 21  1  0
  7 21  1  0
  5 22  1  0
  7 23  1  0
  8 24  1  6
  9 25  1  0
  9 26  1  0
 10 27  1  0
 10 28  1  0
 11 29  1  0
 12 30  1  0
 12 31  1  0
 13 32  1  0
 15 33  1  0
 15 34  1  0
 16 35  1  0
 16 36  1  0
 17 37  1  0
 18 38  1  0
 18 39  1  0
 19 40  1  0
 19 41  1  0
 21 42  1  0
M  END
>  <PDBID>  (1) 
1JKH

>  <PDB ID>  (1) 
1JKH

>  <Generic Name>  (1) 
Efavirenz

>  <Brand Name>  (1) 
Atripla#Auro-efavirenz#Mylan-efavirenz#Sustiva#Sustiva 100mg#Sustiva 200mg#Sustiva 50mg#Sustiva Tablets#Teva-efavirenz#E.F#Efavir#Efavirenz#Efcure#Efferven#Estiva#Evirenz#Stocrin#Viranz

>  <DrugBank ID>  (1) 
DB00625

>  <ATC Codes>  (1) 
J05AR06#J05AG03#J05AR11

>  <Ligand ID>  (1) 
EFZ

>  <Target Name>  (1) 
Reverse transcriptase/RNaseH

>  <UniProt ID>  (1) 
Q72547

>  <PDB ID.1>  (1) 
1JKH

>  <Seq. Identity>  (1) 
96%

$$$$
