PDB_DB00443_00
     RDKit          3D

130136  0  0  0  0  0  0  0  0999 V2000
    3.1020    1.2761   -1.3896 C   0  0  0  0  0  0  0  0  0  0  0  0
    4.5842    1.1566   -1.4938 C   0  0  0  0  0  0  0  0  0  0  0  0
    5.2956    1.1493   -0.1750 C   0  0  0  0  0  0  0  0  0  0  0  0
    4.6101    0.3340    0.8815 C   0  0  0  0  0  0  0  0  0  0  0  0
    3.1306    0.4911    0.9165 C   0  0  0  0  0  0  0  0  0  0  0  0
    2.5431   -0.4865    1.8770 C   0  0  0  0  0  0  0  0  0  0  0  0
    1.0755   -0.6310    1.8414 C   0  0  0  0  0  0  0  0  0  0  0  0
    0.4527   -0.6376    0.4747 C   0  0  2  0  0  0  0  0  0  0  0  0
    1.0443    0.5194   -0.2988 C   0  0  1  0  0  0  0  0  0  0  0  0
    2.5093    0.2722   -0.4429 C   0  0  1  0  0  0  0  0  0  0  0  0
    0.3413    0.8140   -1.5762 C   0  0  2  0  0  0  0  0  0  0  0  0
   -1.1142    1.1040   -1.2732 C   0  0  0  0  0  0  0  0  0  0  0  0
   -1.7163   -0.1248   -0.6889 C   0  0  1  0  0  0  0  0  0  0  0  0
   -0.9986   -0.4126    0.6218 C   0  0  1  0  0  0  0  0  0  0  0  0
   -1.7998   -1.6071    1.0668 C   0  0  0  0  0  0  0  0  0  0  0  0
   -3.2301   -1.0985    0.8107 C   0  0  2  0  0  0  0  0  0  0  0  0
   -3.1058    0.0812   -0.1247 C   0  0  2  0  0  0  0  0  0  0  0  0
   -1.6696   -1.2986   -1.6253 C   0  0  0  0  0  0  0  0  0  0  0  0
    2.8487   -1.1245   -0.8959 C   0  0  0  0  0  0  0  0  0  0  0  0
   -4.1621    0.0976   -1.1903 C   0  0  0  0  0  0  0  0  0  0  0  0
   -5.5155    0.0952   -0.5133 C   0  0  0  0  0  0  0  0  0  0  0  0
   -3.8644   -0.7142    2.1299 C   0  0  0  0  0  0  0  0  0  0  0  0
    0.8988    1.6442    0.5223 F   0  0  0  0  0  0  0  0  0  0  0  0
    6.5628    0.6018   -0.3759 O   0  0  0  0  0  0  0  0  0  0  0  0
    0.5065   -0.1593   -2.5443 O   0  0  0  0  0  0  0  0  0  0  0  0
   -3.1234    1.2345    0.6328 O   0  0  0  0  0  0  0  0  0  0  0  0
   -4.0279    1.1331   -2.0797 O   0  0  0  0  0  0  0  0  0  0  0  0
   -5.7680    1.2523    0.2017 O   0  0  0  0  0  0  0  0  0  0  0  0
   -1.2445    0.4242    1.3081 H   0  0  0  0  0  0  0  0  0  0  0  0
   -3.2294   -1.3307    0.2111 C   0  0  0  0  0  0  0  0  0  0  0  0
   -4.6936   -1.1514    0.2578 C   0  0  0  0  0  0  0  0  0  0  0  0
   -5.1787    0.2565    0.3056 C   0  0  0  0  0  0  0  0  0  0  0  0
   -4.3674    1.2215   -0.4855 C   0  0  0  0  0  0  0  0  0  0  0  0
   -2.8867    1.0301   -0.2601 C   0  0  0  0  0  0  0  0  0  0  0  0
   -2.6117    1.1826    1.2067 C   0  0  0  0  0  0  0  0  0  0  0  0
   -1.2134    0.8092    1.5790 C   0  0  0  0  0  0  0  0  0  0  0  0
   -0.4136    0.6050    0.3039 C   0  0  2  0  0  0  0  0  0  0  0  0
   -1.0470   -0.5408   -0.5092 C   0  0  1  0  0  0  0  0  0  0  0  0
   -2.4951   -0.3819   -0.7145 C   0  0  1  0  0  0  0  0  0  0  0  0
   -0.2401   -0.7578   -1.7632 C   0  0  2  0  0  0  0  0  0  0  0  0
    1.2163   -0.8724   -1.5258 C   0  0  0  0  0  0  0  0  0  0  0  0
    1.8147    0.0832   -0.5652 C   0  0  1  0  0  0  0  0  0  0  0  0
    0.9195    0.1015    0.6648 C   0  0  1  0  0  0  0  0  0  0  0  0
    1.7134    0.8356    1.6521 C   0  0  0  0  0  0  0  0  0  0  0  0
    3.0744    0.1385    1.4934 C   0  0  2  0  0  0  0  0  0  0  0  0
    3.0790   -0.4248    0.0880 C   0  0  2  0  0  0  0  0  0  0  0  0
    2.0364    1.4384   -1.1367 C   0  0  0  0  0  0  0  0  0  0  0  0
   -3.0124   -0.5809   -2.0898 C   0  0  0  0  0  0  0  0  0  0  0  0
    4.3452   -0.0487   -0.5890 C   0  0  0  0  0  0  0  0  0  0  0  0
    5.4901   -0.6544    0.2184 C   0  0  0  0  0  0  0  0  0  0  0  0
    3.1410   -0.9818    2.5196 C   0  0  0  0  0  0  0  0  0  0  0  0
   -0.7792   -1.6783    0.2750 F   0  0  0  0  0  0  0  0  0  0  0  0
   -6.4889    0.2775   -0.2185 O   0  0  0  0  0  0  0  0  0  0  0  0
   -0.4839    0.1450   -2.7595 O   0  0  0  0  0  0  0  0  0  0  0  0
    3.0089   -1.8276    0.0782 O   0  0  0  0  0  0  0  0  0  0  0  0
    4.5989    1.3143   -0.6623 O   0  0  0  0  0  0  0  0  0  0  0  0
    6.6589   -0.3495   -0.5168 O   0  0  0  0  0  0  0  0  0  0  0  0
    2.8065    2.2984   -1.0881 H   0  0  0  0  0  0  0  0  0  0  0  0
    2.6726    1.0986   -2.3980 H   0  0  0  0  0  0  0  0  0  0  0  0
    4.8886    0.3063   -2.1585 H   0  0  0  0  0  0  0  0  0  0  0  0
    4.9474    2.0741   -2.0454 H   0  0  0  0  0  0  0  0  0  0  0  0
    5.4576    2.1988    0.1788 H   0  0  0  0  0  0  0  0  0  0  0  0
    5.0075    0.6959    1.8754 H   0  0  0  0  0  0  0  0  0  0  0  0
    4.8981   -0.7384    0.8382 H   0  0  0  0  0  0  0  0  0  0  0  0
    2.8716    1.5307    1.2742 H   0  0  0  0  0  0  0  0  0  0  0  0
    3.0835   -1.4724    1.7783 H   0  0  0  0  0  0  0  0  0  0  0  0
    2.8281   -0.1358    2.9131 H   0  0  0  0  0  0  0  0  0  0  0  0
    0.5662    0.1548    2.4471 H   0  0  0  0  0  0  0  0  0  0  0  0
    0.8126   -1.6158    2.3276 H   0  0  0  0  0  0  0  0  0  0  0  0
    0.6170   -1.6137   -0.0461 H   0  0  0  0  0  0  0  0  0  0  0  0
    0.7655    1.7526   -1.9862 H   0  0  0  0  0  0  0  0  0  0  0  0
   -1.5754    1.4387   -2.2166 H   0  0  0  0  0  0  0  0  0  0  0  0
   -1.1253    1.9107   -0.5155 H   0  0  0  0  0  0  0  0  0  0  0  0
   -1.6308   -2.4496    0.3685 H   0  0  0  0  0  0  0  0  0  0  0  0
   -1.6844   -1.8569    2.1216 H   0  0  0  0  0  0  0  0  0  0  0  0
   -3.8487   -1.9017    0.3685 H   0  0  0  0  0  0  0  0  0  0  0  0
   -2.4837   -2.0426   -1.4376 H   0  0  0  0  0  0  0  0  0  0  0  0
   -0.7257   -1.8811   -1.5574 H   0  0  0  0  0  0  0  0  0  0  0  0
   -1.8568   -0.9110   -2.6495 H   0  0  0  0  0  0  0  0  0  0  0  0
    2.6331   -1.9016   -0.1643 H   0  0  0  0  0  0  0  0  0  0  0  0
    3.9623   -1.1379   -1.0528 H   0  0  0  0  0  0  0  0  0  0  0  0
    2.3729   -1.3882   -1.8597 H   0  0  0  0  0  0  0  0  0  0  0  0
   -4.1060   -0.8558   -1.7670 H   0  0  0  0  0  0  0  0  0  0  0  0
   -6.3156   -0.0044   -1.2776 H   0  0  0  0  0  0  0  0  0  0  0  0
   -5.5833   -0.7573    0.1813 H   0  0  0  0  0  0  0  0  0  0  0  0
   -3.1376   -0.9621    2.9572 H   0  0  0  0  0  0  0  0  0  0  0  0
   -4.1116    0.3641    2.1943 H   0  0  0  0  0  0  0  0  0  0  0  0
   -4.7442   -1.3533    2.3382 H   0  0  0  0  0  0  0  0  0  0  0  0
    6.5287   -0.3784   -0.2389 H   0  0  0  0  0  0  0  0  0  0  0  0
    0.3803    0.2004   -3.4442 H   0  0  0  0  0  0  0  0  0  0  0  0
   -3.1783    2.0584    0.1223 H   0  0  0  0  0  0  0  0  0  0  0  0
   -4.0053    0.8401   -3.0035 H   0  0  0  0  0  0  0  0  0  0  0  0
   -6.1526    1.0488    1.1052 H   0  0  0  0  0  0  0  0  0  0  0  0
   -3.0212   -2.3636   -0.1962 H   0  0  0  0  0  0  0  0  0  0  0  0
   -2.8254   -1.3368    1.2343 H   0  0  0  0  0  0  0  0  0  0  0  0
   -5.0583   -1.6474    1.2076 H   0  0  0  0  0  0  0  0  0  0  0  0
   -5.2534   -1.7112   -0.5487 H   0  0  0  0  0  0  0  0  0  0  0  0
   -5.3003    0.6066    1.3695 H   0  0  0  0  0  0  0  0  0  0  0  0
   -4.6729    1.1891   -1.5289 H   0  0  0  0  0  0  0  0  0  0  0  0
   -4.6259    2.2539   -0.1141 H   0  0  0  0  0  0  0  0  0  0  0  0
   -2.3677    1.8084   -0.8235 H   0  0  0  0  0  0  0  0  0  0  0  0
   -2.8474    2.2445    1.4724 H   0  0  0  0  0  0  0  0  0  0  0  0
   -3.2994    0.5688    1.8320 H   0  0  0  0  0  0  0  0  0  0  0  0
   -0.7424    1.7035    2.0800 H   0  0  0  0  0  0  0  0  0  0  0  0
   -1.1219   -0.0146    2.2871 H   0  0  0  0  0  0  0  0  0  0  0  0
   -0.4330    1.5511   -0.2395 H   0  0  0  0  0  0  0  0  0  0  0  0
   -0.5716   -1.7675   -2.1583 H   0  0  0  0  0  0  0  0  0  0  0  0
    1.7431   -0.7704   -2.5007 H   0  0  0  0  0  0  0  0  0  0  0  0
    1.4348   -1.9138   -1.1453 H   0  0  0  0  0  0  0  0  0  0  0  0
    0.8294   -0.9625    0.9855 H   0  0  0  0  0  0  0  0  0  0  0  0
    1.3514    0.6378    2.6943 H   0  0  0  0  0  0  0  0  0  0  0  0
    1.7814    1.9118    1.5388 H   0  0  0  0  0  0  0  0  0  0  0  0
    3.8983    0.8542    1.6748 H   0  0  0  0  0  0  0  0  0  0  0  0
    2.4419    2.1353   -0.3904 H   0  0  0  0  0  0  0  0  0  0  0  0
    1.1107    1.9190   -1.5161 H   0  0  0  0  0  0  0  0  0  0  0  0
    2.7013    1.3516   -2.0041 H   0  0  0  0  0  0  0  0  0  0  0  0
   -2.4391   -1.2242   -2.7496 H   0  0  0  0  0  0  0  0  0  0  0  0
   -4.0496   -1.0297   -2.0449 H   0  0  0  0  0  0  0  0  0  0  0  0
   -3.1783    0.3826   -2.6566 H   0  0  0  0  0  0  0  0  0  0  0  0
    4.4528   -0.5287   -1.6025 H   0  0  0  0  0  0  0  0  0  0  0  0
    5.3542   -1.7561    0.2844 H   0  0  0  0  0  0  0  0  0  0  0  0
    5.5624   -0.2233    1.2349 H   0  0  0  0  0  0  0  0  0  0  0  0
    2.1396   -1.2165    2.9440 H   0  0  0  0  0  0  0  0  0  0  0  0
    3.7816   -0.6819    3.3889 H   0  0  0  0  0  0  0  0  0  0  0  0
    3.5952   -1.9087    2.0885 H   0  0  0  0  0  0  0  0  0  0  0  0
   -6.9903    1.0755    0.0861 H   0  0  0  0  0  0  0  0  0  0  0  0
   -0.8656    0.9944   -2.5073 H   0  0  0  0  0  0  0  0  0  0  0  0
    3.4252   -2.1184   -0.7702 H   0  0  0  0  0  0  0  0  0  0  0  0
    4.9909    1.6875    0.1592 H   0  0  0  0  0  0  0  0  0  0  0  0
    7.1139    0.4417   -0.1226 H   0  0  0  0  0  0  0  0  0  0  0  0
  1  2  1  0
  2  3  1  0
  3  4  1  0
  4  5  1  0
  5  6  1  0
  6  7  1  0
  7  8  1  0
  8  9  1  0
  1 10  1  0
  5 10  1  0
  9 10  1  0
  9 11  1  0
 11 12  1  0
 12 13  1  0
  8 14  1  0
 13 14  1  0
 14 15  1  0
 15 16  1  0
 13 17  1  0
 16 17  1  0
 13 18  1  6
 10 19  1  6
 17 20  1  0
 20 21  1  0
 16 22  1  0
  9 23  1  1
  3 24  1  0
 11 25  1  0
 17 26  1  1
 20 27  1  0
 21 28  1  0
 14 29  1  1
 30 31  1  0
 31 32  1  0
 32 33  1  0
 33 34  1  0
 34 35  1  0
 35 36  1  0
 36 37  1  0
 37 38  1  0
 30 39  1  0
 34 39  1  0
 38 39  1  0
 38 40  1  0
 40 41  1  0
 41 42  1  0
 37 43  1  0
 42 43  1  0
 43 44  1  0
 44 45  1  0
 42 46  1  0
 45 46  1  0
 42 47  1  6
 39 48  1  6
 46 49  1  0
 49 50  1  0
 45 51  1  0
 38 52  1  1
 32 53  1  0
 40 54  1  0
 46 55  1  1
 49 56  1  0
 50 57  1  0
  1 58  1  0
  1 59  1  0
  2 60  1  0
  2 61  1  0
  3 62  1  0
  4 63  1  0
  4 64  1  0
  5 65  1  0
  6 66  1  0
  6 67  1  0
  7 68  1  0
  7 69  1  0
  8 70  1  6
 11 71  1  6
 12 72  1  0
 12 73  1  0
 15 74  1  0
 15 75  1  0
 16 76  1  6
 18 77  1  0
 18 78  1  0
 18 79  1  0
 19 80  1  0
 19 81  1  0
 19 82  1  0
 20 83  1  0
 21 84  1  0
 21 85  1  0
 22 86  1  0
 22 87  1  0
 22 88  1  0
 24 89  1  0
 25 90  1  0
 26 91  1  0
 27 92  1  0
 28 93  1  0
 30 94  1  0
 30 95  1  0
 31 96  1  0
 31 97  1  0
 32 98  1  0
 33 99  1  0
 33100  1  0
 34101  1  0
 35102  1  0
 35103  1  0
 36104  1  0
 36105  1  0
 37106  1  6
 40107  1  6
 41108  1  0
 41109  1  0
 43110  1  1
 44111  1  0
 44112  1  0
 45113  1  6
 47114  1  0
 47115  1  0
 47116  1  0
 48117  1  0
 48118  1  0
 48119  1  0
 49120  1  0
 50121  1  0
 50122  1  0
 51123  1  0
 51124  1  0
 51125  1  0
 53126  1  0
 54127  1  0
 55128  1  0
 56129  1  0
 57130  1  0
M  END
>  <PDBID>  (1) 
1M2Z

>  <PDB ID>  (1) 
1M2Z

>  <Generic Name>  (1) 
Betamethasone

>  <Brand Name>  (1) 
Beben Gel 0.025%#Beta 1 Kit#Betacort Scalp Lotion 0.1%#Betaderm Crm 0.05%#Betaderm Crm 0.1%#Betaderm Lotion 0.1%#Betaderm Ont 0.05%#Betaderm Ont 0.1%#Betagel - 0.1%#Betaject#Betaloan Suik#Betamethasone#Betamethasone Clotrimazole#Betamethasone Combo 6mg/ml PF#Betamethasone Combo 7mg/ml#Betamethasone Dipropionate#Betamethasone Dipropionate Augmented#Betamethasone Sodium Phosphate and Betamethasone Acetate#Betamethasone Sp 24mg/2ml PF#Betamethasone Valerate#Betamethasone Valerate Lot 0.1% USP#Betamycin Ophthalmic/otic Solution#Betaprolene Cream 0.05%#Betaprolene Ointment 0.05%#Betaprone Cream 0.05%#Betaprone Lotion 0.05%#Betaprone Ointment 0.05%#Beteflam#Betnesol Eye and Ear Drops#Betnesol Eye and Ear Drops 0.1%#Betnesol Pellets 0.1mg#Betnesol Retention Enema 5mg/100ml#Betnesol Retention Enemas#Betnesol Tab 0.5mg#Betnesol Tablets#Betnovate 1/2 Crm 0.05%#Betnovate 1/2 Lot 0.05%#Betnovate 1/2 Ont 0.05%#Betnovate Crm 0.1%#Betnovate Lot 0.1%#Betnovate Lotion 0.1%#Betnovate Ont 0.1%#Calcipotriene 0.005% and Betamethasone Dipropionate 0.064%#Calcipotriene and Betamethasone Dipropionate#Celestoderm V#Celestoderm V Crm 0.1%#Celestoderm V Ont 0.1%#Celestoderm V/2#Celestoderm V/2 Cream .05%#Celestoderm V/2 Ointment 0.05%#Celestone Repetabs 1mg#Celestone Soluspan#Celestone Tab 0.5mg#Clotrimazole and Betamethasone Dipropionate#Dermacinrx Therazole Pak#Diprogen Cream#Diprogen Ointment#Diprolene#Diprolene AF#Diprosalic#Diprosone Cream 0.05%#Diprosone Lotion 0.05%#Diprosone Ointment 0.05%#Dom-gentamicin-betamethasone#Dovobet Gel#Dovobet Ointment#Dr. Throwers Beta#Dr. Throwers Pbc No. 1#Enstilar#Garasone Ophthalmic Ointment#Garasone Ophthalmic and Otic Solution#Lotriderm Cream#Lotrisone#Luxiq#Marbeta 25 Kit#Occlucort Film Forming Lot 0.05#PMS-clotrimazole-betamethasone#PMS-gentamicin-betamethasone#Prevex B Cream 0.1%#Pro-lene Glycol Cream - 0.05%#Pro-lene Glycol Lotion - 0.05%#Pro-lene Glycol Ointment - 0.05%#Pro-sone Cream - 0.05%#Pro-sone Lotion -  0.05%#Pro-sone Ointment - 0.05%#Ratio-ectosone#Ratio-ectosone Mild Cream 0.05%#Ratio-ectosone Mild Lotion 0.05%#Ratio-ectosone Regular Cream 0.1%#Ratio-ectosone Regular Lotion 0.1%#Ratio-topilene#Ratio-topisalic#Ratio-topisone#Readysharp Betamethasone#Rhoprolene Glycol Cream 0.5mg/gm#Rhoprolene Glycol Lotion 0.5mg/gm#Rhoprolene Glycol Ointment 0.5mg/gm#Rhoprosone Cream 0.05%#Rhoprosone Lotion 0.05%#Rhoprosone Oint 0.05%#Rivasone Scalp Lot 0.1%#Rolene Cream 0.05%#Rolene Lotion 0.05%#Rolene Ointment 0.05%#Rosone Cream 0.05%#Rosone Lotion 0.05%#Rosone Ointment 0.05%#Sandoz Pentasone#Sernivo#Taclonex#Taclonex Scalp#Taro Sone Lot 0.05%#Taro Sone Ont#Taro-sone Cream 0.05%#Valisone Scalp Lotion#Valisone-G Cream#Valisone-G Ointment#Bentelan#Betnovate#Celestamine#Celestone#Diprosone#Fucibet#Procort#Rinderon

>  <DrugBank ID>  (1) 
DB00443

>  <ATC Codes>  (1) 
S01BB04#R03BA04#S01CA05#H02AB01#R01AD06#D07BC01#C05AA05#D07CC01#D07AC01#S01CB04#D07XC01#S02BA07#A07EA04#S03BA03#S01BA06#S03CA06

>  <Ligand ID>  (1) 
DEX

>  <Target Name>  (1) 
Glucocorticoid receptor

>  <UniProt ID>  (1) 
P04150

>  <PDB ID.1>  (1) 
1M2Z

>  <Seq. Identity>  (1) 
100%

$$$$
