PDB_DB08910_00
     RDKit          3D

180188  0  0  0  0  0  0  0  0999 V2000
   -3.9528   -0.1748    0.6457 C   0  0  0  0  0  0  0  0  0  0  0  0
   -4.0325   -0.0089   -0.8669 C   0  0  0  0  0  0  0  0  0  0  0  0
   -2.7059   -0.5247   -1.4062 C   0  0  0  0  0  0  0  0  0  0  0  0
   -1.6478    0.4412   -0.9668 C   0  0  0  0  0  0  0  0  0  0  0  0
   -1.6233    0.7689    0.4653 C   0  0  0  0  0  0  0  0  0  0  0  0
   -2.8675    0.6494    1.2308 C   0  0  0  0  0  0  0  0  0  0  0  0
   -0.2611   -0.0923   -1.2279 C   0  0  0  0  0  0  0  0  0  0  0  0
    0.5157    0.1182   -0.0163 N   0  0  0  0  0  0  0  0  0  0  0  0
   -0.4915   -0.1227    0.9981 C   0  0  0  0  0  0  0  0  0  0  0  0
   -3.4099    1.9821    1.4940 N   0  0  0  0  0  0  0  0  0  0  0  0
   -0.1708    0.4521    2.2343 O   0  0  0  0  0  0  0  0  0  0  0  0
    1.6355   -0.7960    0.0439 C   0  0  1  0  0  0  0  0  0  0  0  0
   -0.3786   -1.4372   -1.5292 O   0  0  0  0  0  0  0  0  0  0  0  0
    2.5124   -0.4724   -1.1561 C   0  0  0  0  0  0  0  0  0  0  0  0
    2.4753   -0.5775    1.2634 C   0  0  0  0  0  0  0  0  0  0  0  0
    3.2794    0.6470    1.1286 N   0  0  0  0  0  0  0  0  0  0  0  0
    4.3950    0.4107    0.2324 C   0  0  0  0  0  0  0  0  0  0  0  0
    3.9845   -0.5694   -0.8460 C   0  0  0  0  0  0  0  0  0  0  0  0
    3.4039   -1.6072    1.4440 O   0  0  0  0  0  0  0  0  0  0  0  0
    4.7140    1.6604   -0.3465 O   0  0  0  0  0  0  0  0  0  0  0  0
   -3.9528   -0.1748    0.6457 C   0  0  0  0  0  0  0  0  0  0  0  0
   -4.0325   -0.0089   -0.8669 C   0  0  0  0  0  0  0  0  0  0  0  0
   -2.7059   -0.5247   -1.4062 C   0  0  0  0  0  0  0  0  0  0  0  0
   -1.6478    0.4412   -0.9668 C   0  0  0  0  0  0  0  0  0  0  0  0
   -1.6233    0.7689    0.4653 C   0  0  0  0  0  0  0  0  0  0  0  0
   -2.8675    0.6494    1.2308 C   0  0  0  0  0  0  0  0  0  0  0  0
   -0.2611   -0.0923   -1.2279 C   0  0  0  0  0  0  0  0  0  0  0  0
    0.5157    0.1182   -0.0163 N   0  0  0  0  0  0  0  0  0  0  0  0
   -0.4915   -0.1227    0.9981 C   0  0  0  0  0  0  0  0  0  0  0  0
   -3.4099    1.9821    1.4940 N   0  0  0  0  0  0  0  0  0  0  0  0
   -0.1708    0.4521    2.2343 O   0  0  0  0  0  0  0  0  0  0  0  0
    1.6355   -0.7960    0.0439 C   0  0  1  0  0  0  0  0  0  0  0  0
   -0.3786   -1.4372   -1.5292 O   0  0  0  0  0  0  0  0  0  0  0  0
    2.5124   -0.4724   -1.1561 C   0  0  0  0  0  0  0  0  0  0  0  0
    2.4753   -0.5775    1.2634 C   0  0  0  0  0  0  0  0  0  0  0  0
    3.2794    0.6470    1.1286 N   0  0  0  0  0  0  0  0  0  0  0  0
    4.3950    0.4107    0.2324 C   0  0  0  0  0  0  0  0  0  0  0  0
    3.9845   -0.5694   -0.8460 C   0  0  0  0  0  0  0  0  0  0  0  0
    3.4039   -1.6072    1.4440 O   0  0  0  0  0  0  0  0  0  0  0  0
    4.7140    1.6604   -0.3465 O   0  0  0  0  0  0  0  0  0  0  0  0
   -3.9528   -0.1748    0.6457 C   0  0  0  0  0  0  0  0  0  0  0  0
   -4.0325   -0.0089   -0.8669 C   0  0  0  0  0  0  0  0  0  0  0  0
   -2.7059   -0.5247   -1.4062 C   0  0  0  0  0  0  0  0  0  0  0  0
   -1.6478    0.4412   -0.9668 C   0  0  0  0  0  0  0  0  0  0  0  0
   -1.6233    0.7689    0.4653 C   0  0  0  0  0  0  0  0  0  0  0  0
   -2.8675    0.6494    1.2308 C   0  0  0  0  0  0  0  0  0  0  0  0
   -0.2611   -0.0923   -1.2279 C   0  0  0  0  0  0  0  0  0  0  0  0
    0.5157    0.1182   -0.0163 N   0  0  0  0  0  0  0  0  0  0  0  0
   -0.4915   -0.1227    0.9981 C   0  0  0  0  0  0  0  0  0  0  0  0
   -3.4099    1.9821    1.4940 N   0  0  0  0  0  0  0  0  0  0  0  0
   -0.1708    0.4521    2.2343 O   0  0  0  0  0  0  0  0  0  0  0  0
    1.6355   -0.7960    0.0439 C   0  0  1  0  0  0  0  0  0  0  0  0
   -0.3786   -1.4372   -1.5292 O   0  0  0  0  0  0  0  0  0  0  0  0
    2.5124   -0.4724   -1.1561 C   0  0  0  0  0  0  0  0  0  0  0  0
    2.4753   -0.5775    1.2634 C   0  0  0  0  0  0  0  0  0  0  0  0
    3.2794    0.6470    1.1286 N   0  0  0  0  0  0  0  0  0  0  0  0
    4.3950    0.4107    0.2324 C   0  0  0  0  0  0  0  0  0  0  0  0
    3.9845   -0.5694   -0.8460 C   0  0  0  0  0  0  0  0  0  0  0  0
    3.4039   -1.6072    1.4440 O   0  0  0  0  0  0  0  0  0  0  0  0
    4.7140    1.6604   -0.3465 O   0  0  0  0  0  0  0  0  0  0  0  0
   -3.9528   -0.1748    0.6457 C   0  0  0  0  0  0  0  0  0  0  0  0
   -4.0325   -0.0089   -0.8669 C   0  0  0  0  0  0  0  0  0  0  0  0
   -2.7059   -0.5247   -1.4062 C   0  0  0  0  0  0  0  0  0  0  0  0
   -1.6478    0.4412   -0.9668 C   0  0  0  0  0  0  0  0  0  0  0  0
   -1.6233    0.7689    0.4653 C   0  0  0  0  0  0  0  0  0  0  0  0
   -2.8675    0.6494    1.2308 C   0  0  0  0  0  0  0  0  0  0  0  0
   -0.2611   -0.0923   -1.2279 C   0  0  0  0  0  0  0  0  0  0  0  0
    0.5157    0.1182   -0.0163 N   0  0  0  0  0  0  0  0  0  0  0  0
   -0.4915   -0.1227    0.9981 C   0  0  0  0  0  0  0  0  0  0  0  0
   -3.4099    1.9821    1.4940 N   0  0  0  0  0  0  0  0  0  0  0  0
   -0.1708    0.4521    2.2343 O   0  0  0  0  0  0  0  0  0  0  0  0
    1.6355   -0.7960    0.0439 C   0  0  1  0  0  0  0  0  0  0  0  0
   -0.3786   -1.4372   -1.5292 O   0  0  0  0  0  0  0  0  0  0  0  0
    2.5124   -0.4724   -1.1561 C   0  0  0  0  0  0  0  0  0  0  0  0
    2.4753   -0.5775    1.2634 C   0  0  0  0  0  0  0  0  0  0  0  0
    3.2794    0.6470    1.1286 N   0  0  0  0  0  0  0  0  0  0  0  0
    4.3950    0.4107    0.2324 C   0  0  0  0  0  0  0  0  0  0  0  0
    3.9845   -0.5694   -0.8460 C   0  0  0  0  0  0  0  0  0  0  0  0
    3.4039   -1.6072    1.4440 O   0  0  0  0  0  0  0  0  0  0  0  0
    4.7140    1.6604   -0.3465 O   0  0  0  0  0  0  0  0  0  0  0  0
   -4.9284    0.1722    1.0466 H   0  0  0  0  0  0  0  0  0  0  0  0
   -3.8821   -1.2565    0.8665 H   0  0  0  0  0  0  0  0  0  0  0  0
   -4.8920   -0.5475   -1.2613 H   0  0  0  0  0  0  0  0  0  0  0  0
   -4.0860    1.0667   -1.1167 H   0  0  0  0  0  0  0  0  0  0  0  0
   -2.7517   -0.4783   -2.5192 H   0  0  0  0  0  0  0  0  0  0  0  0
   -2.5073   -1.5661   -1.0865 H   0  0  0  0  0  0  0  0  0  0  0  0
   -1.8326    1.3923   -1.5447 H   0  0  0  0  0  0  0  0  0  0  0  0
   -1.2117    1.8157    0.5783 H   0  0  0  0  0  0  0  0  0  0  0  0
   -2.6445    0.2301    2.2561 H   0  0  0  0  0  0  0  0  0  0  0  0
    0.1444    0.4251   -2.0962 H   0  0  0  0  0  0  0  0  0  0  0  0
   -0.7953   -1.1658    1.0840 H   0  0  0  0  0  0  0  0  0  0  0  0
   -4.0267    2.2324    0.6739 H   0  0  0  0  0  0  0  0  0  0  0  0
   -2.6660    2.6912    1.6055 H   0  0  0  0  0  0  0  0  0  0  0  0
   -0.3629   -0.2172    2.9341 H   0  0  0  0  0  0  0  0  0  0  0  0
    1.3250   -1.8611    0.0384 H   0  0  0  0  0  0  0  0  0  0  0  0
   -0.5460   -2.0136   -0.7560 H   0  0  0  0  0  0  0  0  0  0  0  0
    2.2987   -1.1530   -2.0038 H   0  0  0  0  0  0  0  0  0  0  0  0
    2.3288    0.5703   -1.4961 H   0  0  0  0  0  0  0  0  0  0  0  0
    1.9372   -0.4952    2.2095 H   0  0  0  0  0  0  0  0  0  0  0  0
    2.6508    1.3592    0.7025 H   0  0  0  0  0  0  0  0  0  0  0  0
    5.2923    0.0400    0.7266 H   0  0  0  0  0  0  0  0  0  0  0  0
    4.5015   -0.2057   -1.7835 H   0  0  0  0  0  0  0  0  0  0  0  0
    4.3492   -1.5838   -0.6888 H   0  0  0  0  0  0  0  0  0  0  0  0
    2.9886   -2.4808    1.5887 H   0  0  0  0  0  0  0  0  0  0  0  0
    3.9428    2.2823   -0.3017 H   0  0  0  0  0  0  0  0  0  0  0  0
   -4.9284    0.1722    1.0466 H   0  0  0  0  0  0  0  0  0  0  0  0
   -3.8821   -1.2565    0.8665 H   0  0  0  0  0  0  0  0  0  0  0  0
   -4.8920   -0.5475   -1.2613 H   0  0  0  0  0  0  0  0  0  0  0  0
   -4.0860    1.0667   -1.1167 H   0  0  0  0  0  0  0  0  0  0  0  0
   -2.7517   -0.4783   -2.5192 H   0  0  0  0  0  0  0  0  0  0  0  0
   -2.5073   -1.5661   -1.0865 H   0  0  0  0  0  0  0  0  0  0  0  0
   -1.8326    1.3923   -1.5447 H   0  0  0  0  0  0  0  0  0  0  0  0
   -1.2117    1.8157    0.5783 H   0  0  0  0  0  0  0  0  0  0  0  0
   -2.6445    0.2301    2.2561 H   0  0  0  0  0  0  0  0  0  0  0  0
    0.1444    0.4251   -2.0962 H   0  0  0  0  0  0  0  0  0  0  0  0
   -0.7953   -1.1658    1.0840 H   0  0  0  0  0  0  0  0  0  0  0  0
   -4.0267    2.2324    0.6739 H   0  0  0  0  0  0  0  0  0  0  0  0
   -2.6660    2.6912    1.6055 H   0  0  0  0  0  0  0  0  0  0  0  0
   -0.3629   -0.2172    2.9341 H   0  0  0  0  0  0  0  0  0  0  0  0
    1.3250   -1.8611    0.0384 H   0  0  0  0  0  0  0  0  0  0  0  0
   -0.5460   -2.0136   -0.7560 H   0  0  0  0  0  0  0  0  0  0  0  0
    2.2987   -1.1530   -2.0038 H   0  0  0  0  0  0  0  0  0  0  0  0
    2.3288    0.5703   -1.4961 H   0  0  0  0  0  0  0  0  0  0  0  0
    1.9372   -0.4952    2.2095 H   0  0  0  0  0  0  0  0  0  0  0  0
    2.6508    1.3592    0.7025 H   0  0  0  0  0  0  0  0  0  0  0  0
    5.2923    0.0400    0.7266 H   0  0  0  0  0  0  0  0  0  0  0  0
    4.5015   -0.2057   -1.7835 H   0  0  0  0  0  0  0  0  0  0  0  0
    4.3492   -1.5838   -0.6888 H   0  0  0  0  0  0  0  0  0  0  0  0
    2.9886   -2.4808    1.5887 H   0  0  0  0  0  0  0  0  0  0  0  0
    3.9428    2.2823   -0.3017 H   0  0  0  0  0  0  0  0  0  0  0  0
   -4.9284    0.1722    1.0466 H   0  0  0  0  0  0  0  0  0  0  0  0
   -3.8821   -1.2565    0.8665 H   0  0  0  0  0  0  0  0  0  0  0  0
   -4.8920   -0.5475   -1.2613 H   0  0  0  0  0  0  0  0  0  0  0  0
   -4.0860    1.0667   -1.1167 H   0  0  0  0  0  0  0  0  0  0  0  0
   -2.7517   -0.4783   -2.5192 H   0  0  0  0  0  0  0  0  0  0  0  0
   -2.5073   -1.5661   -1.0865 H   0  0  0  0  0  0  0  0  0  0  0  0
   -1.8326    1.3923   -1.5447 H   0  0  0  0  0  0  0  0  0  0  0  0
   -1.2117    1.8157    0.5783 H   0  0  0  0  0  0  0  0  0  0  0  0
   -2.6445    0.2301    2.2561 H   0  0  0  0  0  0  0  0  0  0  0  0
    0.1444    0.4251   -2.0962 H   0  0  0  0  0  0  0  0  0  0  0  0
   -0.7953   -1.1658    1.0840 H   0  0  0  0  0  0  0  0  0  0  0  0
   -4.0267    2.2324    0.6739 H   0  0  0  0  0  0  0  0  0  0  0  0
   -2.6660    2.6912    1.6055 H   0  0  0  0  0  0  0  0  0  0  0  0
   -0.3629   -0.2172    2.9341 H   0  0  0  0  0  0  0  0  0  0  0  0
    1.3250   -1.8611    0.0384 H   0  0  0  0  0  0  0  0  0  0  0  0
   -0.5460   -2.0136   -0.7560 H   0  0  0  0  0  0  0  0  0  0  0  0
    2.2987   -1.1530   -2.0038 H   0  0  0  0  0  0  0  0  0  0  0  0
    2.3288    0.5703   -1.4961 H   0  0  0  0  0  0  0  0  0  0  0  0
    1.9372   -0.4952    2.2095 H   0  0  0  0  0  0  0  0  0  0  0  0
    2.6508    1.3592    0.7025 H   0  0  0  0  0  0  0  0  0  0  0  0
    5.2923    0.0400    0.7266 H   0  0  0  0  0  0  0  0  0  0  0  0
    4.5015   -0.2057   -1.7835 H   0  0  0  0  0  0  0  0  0  0  0  0
    4.3492   -1.5838   -0.6888 H   0  0  0  0  0  0  0  0  0  0  0  0
    2.9886   -2.4808    1.5887 H   0  0  0  0  0  0  0  0  0  0  0  0
    3.9428    2.2823   -0.3017 H   0  0  0  0  0  0  0  0  0  0  0  0
   -4.9284    0.1722    1.0466 H   0  0  0  0  0  0  0  0  0  0  0  0
   -3.8821   -1.2565    0.8665 H   0  0  0  0  0  0  0  0  0  0  0  0
   -4.8920   -0.5475   -1.2613 H   0  0  0  0  0  0  0  0  0  0  0  0
   -4.0860    1.0667   -1.1167 H   0  0  0  0  0  0  0  0  0  0  0  0
   -2.7517   -0.4783   -2.5192 H   0  0  0  0  0  0  0  0  0  0  0  0
   -2.5073   -1.5661   -1.0865 H   0  0  0  0  0  0  0  0  0  0  0  0
   -1.8326    1.3923   -1.5447 H   0  0  0  0  0  0  0  0  0  0  0  0
   -1.2117    1.8157    0.5783 H   0  0  0  0  0  0  0  0  0  0  0  0
   -2.6445    0.2301    2.2561 H   0  0  0  0  0  0  0  0  0  0  0  0
    0.1444    0.4251   -2.0962 H   0  0  0  0  0  0  0  0  0  0  0  0
   -0.7953   -1.1658    1.0840 H   0  0  0  0  0  0  0  0  0  0  0  0
   -4.0267    2.2324    0.6739 H   0  0  0  0  0  0  0  0  0  0  0  0
   -2.6660    2.6912    1.6055 H   0  0  0  0  0  0  0  0  0  0  0  0
   -0.3629   -0.2172    2.9341 H   0  0  0  0  0  0  0  0  0  0  0  0
    1.3250   -1.8611    0.0384 H   0  0  0  0  0  0  0  0  0  0  0  0
   -0.5460   -2.0136   -0.7560 H   0  0  0  0  0  0  0  0  0  0  0  0
    2.2987   -1.1530   -2.0038 H   0  0  0  0  0  0  0  0  0  0  0  0
    2.3288    0.5703   -1.4961 H   0  0  0  0  0  0  0  0  0  0  0  0
    1.9372   -0.4952    2.2095 H   0  0  0  0  0  0  0  0  0  0  0  0
    2.6508    1.3592    0.7025 H   0  0  0  0  0  0  0  0  0  0  0  0
    5.2923    0.0400    0.7266 H   0  0  0  0  0  0  0  0  0  0  0  0
    4.5015   -0.2057   -1.7835 H   0  0  0  0  0  0  0  0  0  0  0  0
    4.3492   -1.5838   -0.6888 H   0  0  0  0  0  0  0  0  0  0  0  0
    2.9886   -2.4808    1.5887 H   0  0  0  0  0  0  0  0  0  0  0  0
    3.9428    2.2823   -0.3017 H   0  0  0  0  0  0  0  0  0  0  0  0
  1  2  1  0
  2  3  1  0
  3  4  1  0
  4  5  1  0
  1  6  1  0
  5  6  1  0
  4  7  1  0
  7  8  1  0
  5  9  1  0
  8  9  1  0
  6 10  1  0
  9 11  1  0
  8 12  1  0
  7 13  1  0
 12 14  1  0
 12 15  1  0
 15 16  1  0
 16 17  1  0
 14 18  1  0
 17 18  1  0
 15 19  1  0
 17 20  1  0
 21 22  1  0
 22 23  1  0
 23 24  1  0
 24 25  1  0
 21 26  1  0
 25 26  1  0
 24 27  1  0
 27 28  1  0
 25 29  1  0
 28 29  1  0
 26 30  1  0
 29 31  1  0
 28 32  1  0
 27 33  1  0
 32 34  1  0
 32 35  1  0
 35 36  1  0
 36 37  1  0
 34 38  1  0
 37 38  1  0
 35 39  1  0
 37 40  1  0
 41 42  1  0
 42 43  1  0
 43 44  1  0
 44 45  1  0
 41 46  1  0
 45 46  1  0
 44 47  1  0
 47 48  1  0
 45 49  1  0
 48 49  1  0
 46 50  1  0
 49 51  1  0
 48 52  1  0
 47 53  1  0
 52 54  1  0
 52 55  1  0
 55 56  1  0
 56 57  1  0
 54 58  1  0
 57 58  1  0
 55 59  1  0
 57 60  1  0
 61 62  1  0
 62 63  1  0
 63 64  1  0
 64 65  1  0
 61 66  1  0
 65 66  1  0
 64 67  1  0
 67 68  1  0
 65 69  1  0
 68 69  1  0
 66 70  1  0
 69 71  1  0
 68 72  1  0
 67 73  1  0
 72 74  1  0
 72 75  1  0
 75 76  1  0
 76 77  1  0
 74 78  1  0
 77 78  1  0
 75 79  1  0
 77 80  1  0
  1 81  1  0
  1 82  1  0
  2 83  1  0
  2 84  1  0
  3 85  1  0
  3 86  1  0
  4 87  1  0
  5 88  1  0
  6 89  1  0
  7 90  1  0
  9 91  1  0
 10 92  1  0
 10 93  1  0
 11 94  1  0
 12 95  1  6
 13 96  1  0
 14 97  1  0
 14 98  1  0
 15 99  1  0
 16100  1  0
 17101  1  0
 18102  1  0
 18103  1  0
 19104  1  0
 20105  1  0
 21106  1  0
 21107  1  0
 22108  1  0
 22109  1  0
 23110  1  0
 23111  1  0
 24112  1  0
 25113  1  0
 26114  1  0
 27115  1  0
 29116  1  0
 30117  1  0
 30118  1  0
 31119  1  0
 32120  1  6
 33121  1  0
 34122  1  0
 34123  1  0
 35124  1  0
 36125  1  0
 37126  1  0
 38127  1  0
 38128  1  0
 39129  1  0
 40130  1  0
 41131  1  0
 41132  1  0
 42133  1  0
 42134  1  0
 43135  1  0
 43136  1  0
 44137  1  0
 45138  1  0
 46139  1  0
 47140  1  0
 49141  1  0
 50142  1  0
 50143  1  0
 51144  1  0
 52145  1  6
 53146  1  0
 54147  1  0
 54148  1  0
 55149  1  0
 56150  1  0
 57151  1  0
 58152  1  0
 58153  1  0
 59154  1  0
 60155  1  0
 61156  1  0
 61157  1  0
 62158  1  0
 62159  1  0
 63160  1  0
 63161  1  0
 64162  1  0
 65163  1  0
 66164  1  0
 67165  1  0
 69166  1  0
 70167  1  0
 70168  1  0
 71169  1  0
 72170  1  6
 73171  1  0
 74172  1  0
 74173  1  0
 75174  1  0
 76175  1  0
 77176  1  0
 78177  1  0
 78178  1  0
 79179  1  0
 80180  1  0
M  END
>  <PDBID>  (1) 
4TZU

>  <PDB ID>  (1) 
4TZU

>  <Generic Name>  (1) 
Pomalidomide

>  <Brand Name>  (1) 
Pomalyst#Imnovid

>  <DrugBank ID>  (1) 
DB08910

>  <ATC Codes>  (1) 
L04AX06

>  <Ligand ID>  (1) 
Y70

>  <Target Name>  (1) 
Protein cereblon

>  <UniProt ID>  (1) 
Q96SW2

>  <PDB ID.1>  (1) 
4TZU

>  <Seq. Identity>  (1) 
97%

$$$$
