PDB_DB00412_00
     RDKit          3D

 60 62  0  0  0  0  0  0  0  0999 V2000
   -5.5589   -1.5198   -0.4156 S   0  0  0  0  0  0  0  0  0  0  0  0
   -8.0049   -1.6801   -1.4829 O   0  0  0  0  0  0  0  0  0  0  0  0
   -7.2660    0.6912   -0.8658 O   0  0  0  0  0  0  0  0  0  0  0  0
    0.6785   -0.0511   -0.8103 O   0  0  0  0  0  0  0  0  0  0  0  0
   -7.7368   -0.8711    0.7164 N   0  0  0  0  0  0  0  0  0  0  0  0
    4.1759   -0.9139   -0.2660 N   0  0  0  0  0  0  0  0  0  0  0  0
    5.8370   -0.2614    1.3393 N   0  0  0  0  0  0  0  0  0  0  0  0
   -7.3638   -1.8592   -0.2666 C   0  0  0  0  0  0  0  0  0  0  0  0
   -7.0153    0.3512    0.4403 C   0  0  0  0  0  0  0  0  0  0  0  0
   -5.5209   -0.0510    0.6207 C   0  0  2  0  0  0  0  0  0  0  0  0
   -4.6294    1.0499    0.2614 C   0  0  0  0  0  0  0  0  0  0  0  0
   -3.1837    0.7115    0.2402 C   0  0  0  0  0  0  0  0  0  0  0  0
   -2.7058   -0.3047   -0.7304 C   0  0  0  0  0  0  0  0  0  0  0  0
   -1.3993   -0.8668   -0.1654 C   0  0  0  0  0  0  0  0  0  0  0  0
   -0.4419    0.2717   -0.0117 C   0  0  0  0  0  0  0  0  0  0  0  0
   -0.9718    1.5841   -0.4787 C   0  0  0  0  0  0  0  0  0  0  0  0
   -2.3169    1.9555    0.0391 C   0  0  0  0  0  0  0  0  0  0  0  0
    1.8001   -0.2851   -0.0239 C   0  0  0  0  0  0  0  0  0  0  0  0
    2.9558   -0.6355   -0.9383 C   0  0  0  0  0  0  0  0  0  0  0  0
    4.0322   -2.1560    0.4651 C   0  0  0  0  0  0  0  0  0  0  0  0
    4.7648    0.1398    0.4656 C   0  0  0  0  0  0  0  0  0  0  0  0
    7.1347    0.1895    0.9700 C   0  0  0  0  0  0  0  0  0  0  0  0
    7.3978    0.2216   -0.5018 C   0  0  0  0  0  0  0  0  0  0  0  0
    6.2874    0.7599   -1.3388 C   0  0  0  0  0  0  0  0  0  0  0  0
    5.1790    1.2812   -0.4306 C   0  0  0  0  0  0  0  0  0  0  0  0
   -8.9061   -1.3382   -1.2798 H   0  0  0  0  0  0  0  0  0  0  0  0
   -6.9003    1.5405   -1.1730 H   0  0  0  0  0  0  0  0  0  0  0  0
   -7.4243   -1.2204    1.6559 H   0  0  0  0  0  0  0  0  0  0  0  0
    5.7493   -1.1669    1.7889 H   0  0  0  0  0  0  0  0  0  0  0  0
   -7.4487   -2.8763    0.1381 H   0  0  0  0  0  0  0  0  0  0  0  0
   -7.3186    1.1079    1.1494 H   0  0  0  0  0  0  0  0  0  0  0  0
   -5.4600   -0.3266    1.7145 H   0  0  0  0  0  0  0  0  0  0  0  0
   -4.9238    1.5611   -0.7019 H   0  0  0  0  0  0  0  0  0  0  0  0
   -4.7478    1.8568    1.0604 H   0  0  0  0  0  0  0  0  0  0  0  0
   -2.9138    0.3379    1.2864 H   0  0  0  0  0  0  0  0  0  0  0  0
   -2.4054    0.2634   -1.6574 H   0  0  0  0  0  0  0  0  0  0  0  0
   -3.3940   -1.1144   -0.9714 H   0  0  0  0  0  0  0  0  0  0  0  0
   -1.0239   -1.6876   -0.8214 H   0  0  0  0  0  0  0  0  0  0  0  0
   -1.6694   -1.3610    0.7934 H   0  0  0  0  0  0  0  0  0  0  0  0
   -0.0918    0.2550    1.0429 H   0  0  0  0  0  0  0  0  0  0  0  0
   -0.2387    2.3686   -0.1315 H   0  0  0  0  0  0  0  0  0  0  0  0
   -0.8976    1.6343   -1.5925 H   0  0  0  0  0  0  0  0  0  0  0  0
   -2.2144    2.4618    1.0394 H   0  0  0  0  0  0  0  0  0  0  0  0
   -2.8183    2.6631   -0.6239 H   0  0  0  0  0  0  0  0  0  0  0  0
    2.0503    0.6489    0.5574 H   0  0  0  0  0  0  0  0  0  0  0  0
    1.5591   -1.0694    0.7022 H   0  0  0  0  0  0  0  0  0  0  0  0
    3.0882    0.1783   -1.6754 H   0  0  0  0  0  0  0  0  0  0  0  0
    2.6944   -1.5431   -1.5458 H   0  0  0  0  0  0  0  0  0  0  0  0
    4.9688   -2.6727    0.6862 H   0  0  0  0  0  0  0  0  0  0  0  0
    3.3667   -2.0785    1.3485 H   0  0  0  0  0  0  0  0  0  0  0  0
    3.4859   -2.8481   -0.2452 H   0  0  0  0  0  0  0  0  0  0  0  0
    3.9734    0.5631    1.1607 H   0  0  0  0  0  0  0  0  0  0  0  0
    7.3825    1.2032    1.3925 H   0  0  0  0  0  0  0  0  0  0  0  0
    7.8793   -0.4927    1.4431 H   0  0  0  0  0  0  0  0  0  0  0  0
    8.2983    0.8703   -0.6616 H   0  0  0  0  0  0  0  0  0  0  0  0
    7.6683   -0.7784   -0.9125 H   0  0  0  0  0  0  0  0  0  0  0  0
    5.8562    0.0041   -2.0396 H   0  0  0  0  0  0  0  0  0  0  0  0
    6.6447    1.5885   -2.0090 H   0  0  0  0  0  0  0  0  0  0  0  0
    5.6491    2.1109    0.1494 H   0  0  0  0  0  0  0  0  0  0  0  0
    4.3548    1.6054   -1.0584 H   0  0  0  0  0  0  0  0  0  0  0  0
  1  8  1  0
  2  8  1  0
  5  8  1  0
  3  9  1  0
  5  9  1  0
  1 10  1  0
  9 10  1  0
 10 11  1  0
 11 12  1  0
 12 13  1  0
 13 14  1  0
  4 15  1  0
 14 15  1  0
 15 16  1  0
 12 17  1  0
 16 17  1  0
  4 18  1  0
  6 19  1  0
 18 19  1  0
  6 20  1  0
  6 21  1  0
  7 21  1  0
  7 22  1  0
 22 23  1  0
 23 24  1  0
 21 25  1  0
 24 25  1  0
  2 26  1  0
  3 27  1  0
  5 28  1  0
  7 29  1  0
  8 30  1  0
  9 31  1  0
 10 32  1  1
 11 33  1  0
 11 34  1  0
 12 35  1  0
 13 36  1  0
 13 37  1  0
 14 38  1  0
 14 39  1  0
 15 40  1  0
 16 41  1  0
 16 42  1  0
 17 43  1  0
 17 44  1  0
 18 45  1  0
 18 46  1  0
 19 47  1  0
 19 48  1  0
 20 49  1  0
 20 50  1  0
 20 51  1  0
 21 52  1  0
 22 53  1  0
 22 54  1  0
 23 55  1  0
 23 56  1  0
 24 57  1  0
 24 58  1  0
 25 59  1  0
 25 60  1  0
M  END
>  <PDBID>  (1) 
3DZY

>  <PDB ID>  (1) 
3DZY

>  <Generic Name>  (1) 
Rosiglitazone

>  <Brand Name>  (1) 
Apo-rosiglitazone#Avandamet#Avandaryl#Avandia#Avandia 2mg#Avandia 4mg#Avandia 8mg#Dom-rosiglitazone#Mylan-rosiglitazone#PHL-rosiglitazone#PMS-rosiglitazone#PMS-rosiglitazone-metformin#Teva-rosiglitazone#Blutab#DH-Rosidia#Diaben#Diaglinex#Gaudil#Gliximina#Naidi#Rogelin#Roglit#Romerol#Rosit#Rosix#Rossini#Sensulin#Sheng Ao#Sheng Min

>  <DrugBank ID>  (1) 
DB00412

>  <ATC Codes>  (1) 
A10BD03#A10BG02#A10BD04

>  <Ligand ID>  (1) 
BRL,RGZ

>  <Target Name>  (1) 
Peroxisome proliferator-activated receptor gamma

>  <UniProt ID>  (1) 
P37231

>  <PDB ID.1>  (1) 
3DZY

>  <Seq. Identity>  (1) 
97%

$$$$
