PDB_DB00320_06
     RDKit          3D

100107  0  0  0  0  0  0  0  0999 V2000
   -2.7911    0.7158   -0.2492 C   0  0  0  0  0  0  0  0  0  0  0  0
   -4.2554    0.3518   -0.2229 C   0  0  2  0  0  0  0  0  0  0  0  0
   -5.0991    1.4592   -0.8470 C   0  0  2  0  0  0  0  0  0  0  0  0
   -6.5076    1.0026   -0.6766 C   0  0  2  0  0  0  0  0  0  0  0  0
   -4.7061    1.8038   -2.2237 C   0  0  0  0  0  0  0  0  0  0  0  0
   -5.8911    2.3460   -2.9850 C   0  0  0  0  0  0  0  0  0  0  0  0
   -6.9455    2.9452   -2.0557 C   0  0  0  0  0  0  0  0  0  0  0  0
   -7.5578    1.8212   -1.2993 C   0  0  0  0  0  0  0  0  0  0  0  0
   -8.4732    2.2002   -0.2603 N   0  0  0  0  0  0  0  0  0  0  0  0
   -8.2326    1.2604    0.8556 C   0  0  0  0  0  0  0  0  0  0  0  0
   -6.7587    1.1910    0.8328 C   0  0  0  0  0  0  0  0  0  0  0  0
   -6.1025    0.0318    1.4826 C   0  0  0  0  0  0  0  0  0  0  0  0
   -4.6140    0.1397    1.2176 C   0  0  1  0  0  0  0  0  0  0  0  0
   -3.8606   -0.9560    1.7549 N   0  0  0  0  0  0  0  0  0  0  0  0
   -4.7802   -2.0454    2.1226 C   0  0  0  0  0  0  0  0  0  0  0  0
   -2.8822   -1.5136    0.8946 C   0  0  0  0  0  0  0  0  0  0  0  0
   -2.0475   -0.5896    0.0858 C   0  0  2  0  0  0  0  0  0  0  0  0
   -0.7685   -0.1681    0.7070 C   0  0  0  0  0  0  0  0  0  0  0  0
   -1.1238    0.5753    1.8658 O   0  0  0  0  0  0  0  0  0  0  0  0
    0.1670   -1.1196    1.0949 N   0  0  0  0  0  0  0  0  0  0  0  0
    0.8154   -1.9650    0.1835 C   0  0  2  0  0  0  0  0  0  0  0  0
   -0.0042   -2.9288   -0.5983 C   0  0  0  0  0  0  0  0  0  0  0  0
    1.7335   -2.7205    0.9622 O   0  0  0  0  0  0  0  0  0  0  0  0
    1.7891   -1.2407   -0.7457 C   0  0  0  0  0  0  0  0  0  0  0  0
    1.2334   -0.2163   -1.4408 O   0  0  0  0  0  0  0  0  0  0  0  0
    2.7840   -0.9341    0.1949 N   0  0  0  0  0  0  0  0  0  0  0  0
    2.9517   -2.0817    0.9469 C   0  0  1  0  0  0  0  0  0  0  0  0
    3.3609   -1.7374    2.2548 O   0  0  0  0  0  0  0  0  0  0  0  0
    3.9429   -3.0050    0.3027 C   0  0  2  0  0  0  0  0  0  0  0  0
    4.5735   -3.9626    1.3149 C   0  0  0  0  0  0  0  0  0  0  0  0
    5.8695   -4.3171    0.6047 C   0  0  0  0  0  0  0  0  0  0  0  0
    6.2285   -3.0334   -0.0765 C   0  0  0  0  0  0  0  0  0  0  0  0
    4.9653   -2.4098   -0.4223 N   0  0  0  0  0  0  0  0  0  0  0  0
    5.1483   -0.9797   -0.3653 C   0  0  0  0  0  0  0  0  0  0  0  0
    5.7971   -0.7656   -1.6261 O   0  0  0  0  0  0  0  0  0  0  0  0
    3.9289   -0.1694   -0.2415 C   0  0  2  0  0  0  0  0  0  0  0  0
    3.8710    1.0449    0.5679 C   0  0  0  0  0  0  0  0  0  0  0  0
    4.7686    2.1813    0.5644 C   0  0  0  0  0  0  0  0  0  0  0  0
    6.1798    1.9430    0.9565 C   0  0  0  0  0  0  0  0  0  0  0  0
    7.2155    1.8551   -0.0785 C   0  0  0  0  0  0  0  0  0  0  0  0
    6.8909    2.5631   -1.3672 C   0  0  0  0  0  0  0  0  0  0  0  0
    5.9794    3.7145   -0.9939 C   0  0  0  0  0  0  0  0  0  0  0  0
    4.6398    3.1110   -0.6320 C   0  0  0  0  0  0  0  0  0  0  0  0
   -2.4964    1.1091   -1.2322 H   0  0  0  0  0  0  0  0  0  0  0  0
   -2.6100    1.4515    0.5678 H   0  0  0  0  0  0  0  0  0  0  0  0
   -4.3725   -0.5982   -0.7693 H   0  0  0  0  0  0  0  0  0  0  0  0
   -4.9052    2.3614   -0.1947 H   0  0  0  0  0  0  0  0  0  0  0  0
   -6.5999   -0.0735   -0.9194 H   0  0  0  0  0  0  0  0  0  0  0  0
   -3.9399    2.6287   -2.2141 H   0  0  0  0  0  0  0  0  0  0  0  0
   -4.2208    0.9571   -2.7440 H   0  0  0  0  0  0  0  0  0  0  0  0
   -5.6108    3.0593   -3.7827 H   0  0  0  0  0  0  0  0  0  0  0  0
   -6.3821    1.4788   -3.4753 H   0  0  0  0  0  0  0  0  0  0  0  0
   -6.5519    3.7691   -1.4485 H   0  0  0  0  0  0  0  0  0  0  0  0
   -7.7331    3.3506   -2.7520 H   0  0  0  0  0  0  0  0  0  0  0  0
   -8.1222    1.1911   -2.0229 H   0  0  0  0  0  0  0  0  0  0  0  0
   -9.4633    2.2191   -0.5338 H   0  0  0  0  0  0  0  0  0  0  0  0
   -8.7505    0.3387    0.5860 H   0  0  0  0  0  0  0  0  0  0  0  0
   -8.6292    1.7179    1.7876 H   0  0  0  0  0  0  0  0  0  0  0  0
   -6.3410    2.1626    1.1544 H   0  0  0  0  0  0  0  0  0  0  0  0
   -6.5395   -0.8955    1.0696 H   0  0  0  0  0  0  0  0  0  0  0  0
   -6.2437    0.1256    2.5832 H   0  0  0  0  0  0  0  0  0  0  0  0
   -4.2743    1.0595    1.7725 H   0  0  0  0  0  0  0  0  0  0  0  0
   -5.5010   -1.7500    2.8811 H   0  0  0  0  0  0  0  0  0  0  0  0
   -5.2371   -2.4596    1.1899 H   0  0  0  0  0  0  0  0  0  0  0  0
   -4.1675   -2.8792    2.5467 H   0  0  0  0  0  0  0  0  0  0  0  0
   -3.3710   -2.2792    0.2507 H   0  0  0  0  0  0  0  0  0  0  0  0
   -2.1735   -2.1029    1.5502 H   0  0  0  0  0  0  0  0  0  0  0  0
   -1.8506   -1.0439   -0.9015 H   0  0  0  0  0  0  0  0  0  0  0  0
   -0.3597    0.6445    0.0300 H   0  0  0  0  0  0  0  0  0  0  0  0
   -0.3149    1.0447    2.1772 H   0  0  0  0  0  0  0  0  0  0  0  0
    0.7381   -0.9279    1.9212 H   0  0  0  0  0  0  0  0  0  0  0  0
    0.6507   -3.8427   -0.7741 H   0  0  0  0  0  0  0  0  0  0  0  0
   -0.8591   -3.3105   -0.0457 H   0  0  0  0  0  0  0  0  0  0  0  0
   -0.2154   -2.5779   -1.6333 H   0  0  0  0  0  0  0  0  0  0  0  0
    2.1763   -2.0467   -1.4291 H   0  0  0  0  0  0  0  0  0  0  0  0
    1.7813   -0.0400   -2.2455 H   0  0  0  0  0  0  0  0  0  0  0  0
    2.6788   -1.9190    2.9233 H   0  0  0  0  0  0  0  0  0  0  0  0
    3.3803   -3.6888   -0.4052 H   0  0  0  0  0  0  0  0  0  0  0  0
    3.9838   -4.9078    1.3840 H   0  0  0  0  0  0  0  0  0  0  0  0
    4.7411   -3.4953    2.2904 H   0  0  0  0  0  0  0  0  0  0  0  0
    5.7207   -5.0981   -0.1441 H   0  0  0  0  0  0  0  0  0  0  0  0
    6.6490   -4.5951    1.3570 H   0  0  0  0  0  0  0  0  0  0  0  0
    6.8595   -3.1898   -0.9929 H   0  0  0  0  0  0  0  0  0  0  0  0
    6.7947   -2.4003    0.6519 H   0  0  0  0  0  0  0  0  0  0  0  0
    5.8434   -0.7938    0.4653 H   0  0  0  0  0  0  0  0  0  0  0  0
    6.7217   -1.1380   -1.4880 H   0  0  0  0  0  0  0  0  0  0  0  0
    3.6228    0.0551   -1.3365 H   0  0  0  0  0  0  0  0  0  0  0  0
    2.7820    1.4231    0.4818 H   0  0  0  0  0  0  0  0  0  0  0  0
    3.8336    0.6764    1.6623 H   0  0  0  0  0  0  0  0  0  0  0  0
    4.3682    2.8504    1.4112 H   0  0  0  0  0  0  0  0  0  0  0  0
    6.2386    1.0836    1.6505 H   0  0  0  0  0  0  0  0  0  0  0  0
    6.5507    2.7997    1.6540 H   0  0  0  0  0  0  0  0  0  0  0  0
    7.5052    0.8169   -0.3129 H   0  0  0  0  0  0  0  0  0  0  0  0
    8.1958    2.3252    0.2614 H   0  0  0  0  0  0  0  0  0  0  0  0
    6.3276    1.8825   -2.0300 H   0  0  0  0  0  0  0  0  0  0  0  0
    7.8091    2.8860   -1.8795 H   0  0  0  0  0  0  0  0  0  0  0  0
    5.8583    4.4123   -1.8374 H   0  0  0  0  0  0  0  0  0  0  0  0
    6.3745    4.2198   -0.1015 H   0  0  0  0  0  0  0  0  0  0  0  0
    4.2661    2.5939   -1.5319 H   0  0  0  0  0  0  0  0  0  0  0  0
    3.9517    3.9621   -0.4637 H   0  0  0  0  0  0  0  0  0  0  0  0
  1  2  1  0
  2  3  1  0
  3  4  1  0
  3  5  1  0
  5  6  1  0
  6  7  1  0
  4  8  1  0
  7  8  1  0
  8  9  1  0
  9 10  1  0
  4 11  1  0
 10 11  1  0
 11 12  1  0
  2 13  1  0
 12 13  1  0
 13 14  1  0
 14 15  1  0
 14 16  1  0
  1 17  1  0
 16 17  1  0
 17 18  1  0
 18 19  1  0
 18 20  1  0
 21 20  1  1
 21 22  1  0
 21 23  1  0
 21 24  1  0
 24 25  1  0
 24 26  1  0
 23 27  1  0
 26 27  1  0
 27 28  1  1
 27 29  1  0
 29 30  1  0
 30 31  1  0
 31 32  1  0
 29 33  1  0
 32 33  1  0
 33 34  1  0
 34 35  1  0
 26 36  1  0
 34 36  1  0
 36 37  1  0
 37 38  1  0
 38 39  1  0
 39 40  1  0
 40 41  1  0
 41 42  1  0
 38 43  1  0
 42 43  1  0
  1 44  1  0
  1 45  1  0
  2 46  1  6
  3 47  1  1
  4 48  1  6
  5 49  1  0
  5 50  1  0
  6 51  1  0
  6 52  1  0
  7 53  1  0
  7 54  1  0
  8 55  1  0
  9 56  1  0
 10 57  1  0
 10 58  1  0
 11 59  1  0
 12 60  1  0
 12 61  1  0
 13 62  1  1
 15 63  1  0
 15 64  1  0
 15 65  1  0
 16 66  1  0
 16 67  1  0
 17 68  1  6
 18 69  1  0
 19 70  1  0
 20 71  1  0
 22 72  1  0
 22 73  1  0
 22 74  1  0
 24 75  1  0
 25 76  1  0
 28 77  1  0
 29 78  1  6
 30 79  1  0
 30 80  1  0
 31 81  1  0
 31 82  1  0
 32 83  1  0
 32 84  1  0
 34 85  1  0
 35 86  1  0
 36 87  1  6
 37 88  1  0
 37 89  1  0
 38 90  1  0
 39 91  1  0
 39 92  1  0
 40 93  1  0
 40 94  1  0
 41 95  1  0
 41 96  1  0
 42 97  1  0
 42 98  1  0
 43 99  1  0
 43100  1  0
M  END
>  <PDBID>  (1) 
4IAQ

>  <PDB ID>  (1) 
4IAQ

>  <Generic Name>  (1) 
Dihydroergotamine

>  <Brand Name>  (1) 
D.H.E. 45#Dihydroergotamine (dhe), 1mg/ml#Dihydroergotamine Mesylate#Dihydroergotamine Mesylate Injection USP#Migranal#Migranal Nasal Spray 4mg/ml#PMS-dihydroergotamine#Dihydergot#Ergont#Ergotonin#Ikaran#Orstanorm#Verladyn

>  <DrugBank ID>  (1) 
DB00320

>  <ATC Codes>  (1) 
N02CA01#N02CA51

>  <Ligand ID>  (1) 
2GM

>  <Target Name>  (1) 
5-hydroxytryptamine receptor 1D

>  <UniProt ID>  (1) 
P28221

>  <PDB ID.1>  (1) 
4IAQ

>  <Seq. Identity>  (1) 
55%

$$$$
