PDB_DB01064_05
     RDKit          3D

 76 76  0  0  0  0  0  0  0  0999 V2000
    4.2859    1.7333    0.7417 C   0  0  0  0  0  0  0  0  0  0  0  0
    3.5825    0.7447   -0.1376 C   0  0  0  0  0  0  0  0  0  0  0  0
    4.5153   -0.4843   -0.3105 C   0  0  0  0  0  0  0  0  0  0  0  0
    2.3689    0.3151    0.4908 N   0  0  0  0  0  0  0  0  0  0  0  0
    1.1642    0.6369   -0.3022 C   0  0  0  0  0  0  0  0  0  0  0  0
    0.1948   -0.4114    0.2094 C   0  0  2  0  0  0  0  0  0  0  0  0
    0.8412   -1.6464   -0.0997 O   0  0  0  0  0  0  0  0  0  0  0  0
   -1.1867   -0.3498   -0.3399 C   0  0  0  0  0  0  0  0  0  0  0  0
   -1.9431   -1.5321    0.2713 C   0  0  0  0  0  0  0  0  0  0  0  0
   -1.8190    0.9520    0.1607 C   0  0  0  0  0  0  0  0  0  0  0  0
   -3.0481    0.6788    0.9805 C   0  0  0  0  0  0  0  0  0  0  0  0
   -4.0084   -0.1321    0.1461 C   0  0  0  0  0  0  0  0  0  0  0  0
   -4.2005    0.5038   -1.0774 O   0  0  0  0  0  0  0  0  0  0  0  0
   -3.4026   -1.4983   -0.0913 C   0  0  0  0  0  0  0  0  0  0  0  0
   -3.5584   -1.9507   -1.3895 O   0  0  0  0  0  0  0  0  0  0  0  0
    4.2859    1.7333    0.7417 C   0  0  0  0  0  0  0  0  0  0  0  0
    3.5825    0.7447   -0.1376 C   0  0  0  0  0  0  0  0  0  0  0  0
    4.5153   -0.4843   -0.3105 C   0  0  0  0  0  0  0  0  0  0  0  0
    2.3689    0.3151    0.4908 N   0  0  0  0  0  0  0  0  0  0  0  0
    1.1642    0.6369   -0.3022 C   0  0  0  0  0  0  0  0  0  0  0  0
    0.1948   -0.4114    0.2094 C   0  0  2  0  0  0  0  0  0  0  0  0
    0.8412   -1.6464   -0.0997 O   0  0  0  0  0  0  0  0  0  0  0  0
   -1.1867   -0.3498   -0.3399 C   0  0  0  0  0  0  0  0  0  0  0  0
   -1.9431   -1.5321    0.2713 C   0  0  0  0  0  0  0  0  0  0  0  0
   -1.8190    0.9520    0.1607 C   0  0  0  0  0  0  0  0  0  0  0  0
   -3.0481    0.6788    0.9805 C   0  0  0  0  0  0  0  0  0  0  0  0
   -4.0084   -0.1321    0.1461 C   0  0  0  0  0  0  0  0  0  0  0  0
   -4.2005    0.5038   -1.0774 O   0  0  0  0  0  0  0  0  0  0  0  0
   -3.4026   -1.4983   -0.0913 C   0  0  0  0  0  0  0  0  0  0  0  0
   -3.5584   -1.9507   -1.3895 O   0  0  0  0  0  0  0  0  0  0  0  0
    4.0110    2.7687    0.5394 H   0  0  0  0  0  0  0  0  0  0  0  0
    5.4072    1.5627    0.7167 H   0  0  0  0  0  0  0  0  0  0  0  0
    4.0107    1.5116    1.8139 H   0  0  0  0  0  0  0  0  0  0  0  0
    3.4128    1.1457   -1.1757 H   0  0  0  0  0  0  0  0  0  0  0  0
    5.2216   -0.2714   -1.1289 H   0  0  0  0  0  0  0  0  0  0  0  0
    5.0627   -0.7004    0.6156 H   0  0  0  0  0  0  0  0  0  0  0  0
    3.8786   -1.3663   -0.5754 H   0  0  0  0  0  0  0  0  0  0  0  0
    2.2424    0.7822    1.4484 H   0  0  0  0  0  0  0  0  0  0  0  0
    0.8143    1.6693   -0.1607 H   0  0  0  0  0  0  0  0  0  0  0  0
    1.3924    0.5010   -1.3766 H   0  0  0  0  0  0  0  0  0  0  0  0
    0.1851   -0.4180    1.3173 H   0  0  0  0  0  0  0  0  0  0  0  0
    0.6592   -1.8463   -1.0574 H   0  0  0  0  0  0  0  0  0  0  0  0
   -1.2090   -0.3468   -1.4381 H   0  0  0  0  0  0  0  0  0  0  0  0
   -1.4508   -2.4526   -0.1648 H   0  0  0  0  0  0  0  0  0  0  0  0
   -1.7585   -1.5119    1.3554 H   0  0  0  0  0  0  0  0  0  0  0  0
   -1.1005    1.5257    0.7738 H   0  0  0  0  0  0  0  0  0  0  0  0
   -2.1277    1.6120   -0.7004 H   0  0  0  0  0  0  0  0  0  0  0  0
   -3.5175    1.6535    1.2371 H   0  0  0  0  0  0  0  0  0  0  0  0
   -2.7377    0.1351    1.8974 H   0  0  0  0  0  0  0  0  0  0  0  0
   -5.0132   -0.2440    0.6217 H   0  0  0  0  0  0  0  0  0  0  0  0
   -4.5308    1.3973   -0.9047 H   0  0  0  0  0  0  0  0  0  0  0  0
   -3.9056   -2.1986    0.5818 H   0  0  0  0  0  0  0  0  0  0  0  0
   -2.7326   -2.4679   -1.6429 H   0  0  0  0  0  0  0  0  0  0  0  0
    4.0110    2.7687    0.5394 H   0  0  0  0  0  0  0  0  0  0  0  0
    5.4072    1.5627    0.7167 H   0  0  0  0  0  0  0  0  0  0  0  0
    4.0107    1.5116    1.8139 H   0  0  0  0  0  0  0  0  0  0  0  0
    3.4128    1.1457   -1.1757 H   0  0  0  0  0  0  0  0  0  0  0  0
    5.2216   -0.2714   -1.1289 H   0  0  0  0  0  0  0  0  0  0  0  0
    5.0627   -0.7004    0.6156 H   0  0  0  0  0  0  0  0  0  0  0  0
    3.8786   -1.3663   -0.5754 H   0  0  0  0  0  0  0  0  0  0  0  0
    2.2424    0.7822    1.4484 H   0  0  0  0  0  0  0  0  0  0  0  0
    0.8143    1.6693   -0.1607 H   0  0  0  0  0  0  0  0  0  0  0  0
    1.3924    0.5010   -1.3766 H   0  0  0  0  0  0  0  0  0  0  0  0
    0.1851   -0.4180    1.3173 H   0  0  0  0  0  0  0  0  0  0  0  0
    0.6592   -1.8463   -1.0574 H   0  0  0  0  0  0  0  0  0  0  0  0
   -1.2090   -0.3468   -1.4381 H   0  0  0  0  0  0  0  0  0  0  0  0
   -1.4508   -2.4526   -0.1648 H   0  0  0  0  0  0  0  0  0  0  0  0
   -1.7585   -1.5119    1.3554 H   0  0  0  0  0  0  0  0  0  0  0  0
   -1.1005    1.5257    0.7738 H   0  0  0  0  0  0  0  0  0  0  0  0
   -2.1277    1.6120   -0.7004 H   0  0  0  0  0  0  0  0  0  0  0  0
   -3.5175    1.6535    1.2371 H   0  0  0  0  0  0  0  0  0  0  0  0
   -2.7377    0.1351    1.8974 H   0  0  0  0  0  0  0  0  0  0  0  0
   -5.0132   -0.2440    0.6217 H   0  0  0  0  0  0  0  0  0  0  0  0
   -4.5308    1.3973   -0.9047 H   0  0  0  0  0  0  0  0  0  0  0  0
   -3.9056   -2.1986    0.5818 H   0  0  0  0  0  0  0  0  0  0  0  0
   -2.7326   -2.4679   -1.6429 H   0  0  0  0  0  0  0  0  0  0  0  0
  1  2  1  0
  2  3  1  0
  2  4  1  0
  4  5  1  0
  5  6  1  0
  6  7  1  0
  6  8  1  0
  8  9  1  0
  8 10  1  0
 10 11  1  0
 11 12  1  0
 12 13  1  0
  9 14  1  0
 12 14  1  0
 14 15  1  0
 16 17  1  0
 17 18  1  0
 17 19  1  0
 19 20  1  0
 20 21  1  0
 21 22  1  0
 21 23  1  0
 23 24  1  0
 23 25  1  0
 25 26  1  0
 26 27  1  0
 27 28  1  0
 24 29  1  0
 27 29  1  0
 29 30  1  0
  1 31  1  0
  1 32  1  0
  1 33  1  0
  2 34  1  0
  3 35  1  0
  3 36  1  0
  3 37  1  0
  4 38  1  0
  5 39  1  0
  5 40  1  0
  6 41  1  1
  7 42  1  0
  8 43  1  0
  9 44  1  0
  9 45  1  0
 10 46  1  0
 10 47  1  0
 11 48  1  0
 11 49  1  0
 12 50  1  0
 13 51  1  0
 14 52  1  0
 15 53  1  0
 16 54  1  0
 16 55  1  0
 16 56  1  0
 17 57  1  0
 18 58  1  0
 18 59  1  0
 18 60  1  0
 19 61  1  0
 20 62  1  0
 20 63  1  0
 21 64  1  1
 22 65  1  0
 23 66  1  0
 24 67  1  0
 24 68  1  0
 25 69  1  0
 25 70  1  0
 26 71  1  0
 26 72  1  0
 27 73  1  0
 28 74  1  0
 29 75  1  0
 30 76  1  0
M  END
>  <PDBID>  (1) 
2Y03

>  <PDB ID>  (1) 
2Y03

>  <Generic Name>  (1) 
Isoprenaline

>  <Brand Name>  (1) 
Isoproterenol HCl Inj 1:5000#Isoproterenol Hydrochloride Injection USP#Isuprel#Isuprel Inj 0.2mg/ml#Isuprel Liq 0.2mg/ml#Isuprel Liq 0.5%#Isuprel Liq Inh 0.5%#Isuprel Mistometer 125mcg/aem#Isuprel Mistometer Aem 0.25%#Medihaler-Iso#Proternol L#Saventrine

>  <DrugBank ID>  (1) 
DB01064

>  <ATC Codes>  (1) 
R03AK02#R03CB01#R03CB51#R03AB02#C01CA02

>  <Ligand ID>  (1) 
5FW

>  <Target Name>  (1) 
Beta-1 adrenergic receptor

>  <UniProt ID>  (1) 
P08588

>  <PDB ID.1>  (1) 
2Y03

>  <Seq. Identity>  (1) 
63%

$$$$
