PDB_DB00224_07
     RDKit          3D

114118  0  0  0  0  0  0  0  0999 V2000
    4.0948    0.6211    1.1480 N   0  0  0  0  0  0  0  0  0  0  0  0
    3.4871   -0.6209    1.3757 C   0  0  0  0  0  0  0  0  0  0  0  0
    2.8865   -1.2266    0.0730 C   0  0  1  0  0  0  0  0  0  0  0  0
    2.4737   -2.6216    0.3093 C   0  0  0  0  0  0  0  0  0  0  0  0
    1.9121   -3.1789   -0.8720 O   0  0  0  0  0  0  0  0  0  0  0  0
    3.5318   -3.4852    0.6745 N   0  0  0  0  0  0  0  0  0  0  0  0
    4.5789   -3.8529   -0.1604 C   0  0  0  0  0  0  0  0  0  0  0  0
    4.1666   -4.6234   -1.4073 C   0  0  0  0  0  0  0  0  0  0  0  0
    5.5969   -2.8480   -0.5741 C   0  0  0  0  0  0  0  0  0  0  0  0
    5.3871   -4.9186    0.6576 C   0  0  0  0  0  0  0  0  0  0  0  0
    1.9703   -0.2638   -0.3585 N   0  0  0  0  0  0  0  0  0  0  0  0
    2.7461    0.8401   -0.9007 C   0  0  0  0  0  0  0  0  0  0  0  0
    3.6754    1.4392    0.1102 C   0  0  0  0  0  0  0  0  0  0  0  0
    0.7126   -0.4147   -0.8208 C   0  0  0  0  0  0  0  0  0  0  0  0
   -0.4423   -0.8457    0.0547 C   0  0  1  0  0  0  0  0  0  0  0  0
   -0.7096   -0.0099    1.0784 O   0  0  0  0  0  0  0  0  0  0  0  0
   -1.5959   -1.1158   -0.8466 C   0  0  0  0  0  0  0  0  0  0  0  0
   -2.1855   -0.0213   -1.6733 C   0  0  1  0  0  0  0  0  0  0  0  0
   -3.2027   -0.5838   -2.6462 C   0  0  0  0  0  0  0  0  0  0  0  0
   -3.8690    0.2402   -3.6280 C   0  0  0  0  0  0  0  0  0  0  0  0
   -4.7420    1.3838   -3.3919 C   0  0  0  0  0  0  0  0  0  0  0  0
   -5.7173    1.3998   -4.6267 C   0  0  0  0  0  0  0  0  0  0  0  0
   -4.8933    1.6855   -5.8622 C   0  0  0  0  0  0  0  0  0  0  0  0
   -3.7220    0.7774   -6.0092 C   0  0  0  0  0  0  0  0  0  0  0  0
   -2.8949    0.7021   -4.7528 C   0  0  0  0  0  0  0  0  0  0  0  0
   -2.9132    1.0292   -0.9064 C   0  0  2  0  0  0  0  0  0  0  0  0
   -1.9822    1.6814   -0.0091 O   0  0  0  0  0  0  0  0  0  0  0  0
   -4.0614    0.6808   -0.2063 N   0  0  0  0  0  0  0  0  0  0  0  0
   -4.1606   -0.0211    0.9967 C   0  0  2  0  0  0  0  0  0  0  0  0
   -5.0950   -1.1740    1.0126 C   0  0  2  0  0  0  0  0  0  0  0  0
   -4.9798   -2.0469   -0.0225 O   0  0  0  0  0  0  0  0  0  0  0  0
   -6.4726   -0.5398    1.0396 C   0  0  0  0  0  0  0  0  0  0  0  0
   -6.3081    0.6211    1.9792 C   0  0  0  0  0  0  0  0  0  0  0  0
   -7.0313    0.3207    3.2466 C   0  0  0  0  0  0  0  0  0  0  0  0
   -6.2025    0.0682    4.4540 C   0  0  0  0  0  0  0  0  0  0  0  0
   -5.1114    1.1129    4.5086 C   0  0  0  0  0  0  0  0  0  0  0  0
   -4.1941    0.7827    3.3379 C   0  0  0  0  0  0  0  0  0  0  0  0
   -4.8835    0.9120    2.0428 C   0  0  0  0  0  0  0  0  0  0  0  0
    5.3814    0.7158    1.6824 C   0  0  0  0  0  0  0  0  0  0  0  0
    6.0919    2.0310    1.5064 C   0  0  0  0  0  0  0  0  0  0  0  0
    7.4607    1.8594    2.1569 C   0  0  0  0  0  0  0  0  0  0  0  0
    8.2572    2.9784    1.7104 N   0  0  0  0  0  0  0  0  0  0  0  0
    7.6413    4.2362    2.0086 C   0  0  0  0  0  0  0  0  0  0  0  0
    6.4394    4.0606    2.9074 C   0  0  0  0  0  0  0  0  0  0  0  0
    5.4093    3.1607    2.2577 C   0  0  0  0  0  0  0  0  0  0  0  0
    2.6816   -0.5991    2.1711 H   0  0  0  0  0  0  0  0  0  0  0  0
    4.1893   -1.3977    1.7333 H   0  0  0  0  0  0  0  0  0  0  0  0
    3.7488   -1.2198   -0.6182 H   0  0  0  0  0  0  0  0  0  0  0  0
    1.6786   -2.7455    1.0773 H   0  0  0  0  0  0  0  0  0  0  0  0
    2.4024   -2.7687   -1.6288 H   0  0  0  0  0  0  0  0  0  0  0  0
    3.3826   -4.0750    1.5246 H   0  0  0  0  0  0  0  0  0  0  0  0
    4.3033   -4.0031   -2.3338 H   0  0  0  0  0  0  0  0  0  0  0  0
    4.8700   -5.4784   -1.5667 H   0  0  0  0  0  0  0  0  0  0  0  0
    3.1629   -5.0767   -1.3264 H   0  0  0  0  0  0  0  0  0  0  0  0
    6.5892   -3.4144   -0.6656 H   0  0  0  0  0  0  0  0  0  0  0  0
    5.8243   -2.0744    0.1679 H   0  0  0  0  0  0  0  0  0  0  0  0
    5.4686   -2.4540   -1.6133 H   0  0  0  0  0  0  0  0  0  0  0  0
    4.6306   -5.6082    1.0272 H   0  0  0  0  0  0  0  0  0  0  0  0
    6.0636   -5.4178   -0.0471 H   0  0  0  0  0  0  0  0  0  0  0  0
    5.9723   -4.4182    1.4261 H   0  0  0  0  0  0  0  0  0  0  0  0
    2.0611    1.5751   -1.3502 H   0  0  0  0  0  0  0  0  0  0  0  0
    3.3089    0.3916   -1.7419 H   0  0  0  0  0  0  0  0  0  0  0  0
    3.1465    2.3327    0.5529 H   0  0  0  0  0  0  0  0  0  0  0  0
    4.5466    1.8742   -0.4274 H   0  0  0  0  0  0  0  0  0  0  0  0
    0.6764   -1.1284   -1.6818 H   0  0  0  0  0  0  0  0  0  0  0  0
    0.3729    0.5591   -1.2906 H   0  0  0  0  0  0  0  0  0  0  0  0
   -0.2178   -1.8672    0.5135 H   0  0  0  0  0  0  0  0  0  0  0  0
   -0.0927   -0.1191    1.8494 H   0  0  0  0  0  0  0  0  0  0  0  0
   -1.2978   -1.9104   -1.6279 H   0  0  0  0  0  0  0  0  0  0  0  0
   -2.4258   -1.6391   -0.3142 H   0  0  0  0  0  0  0  0  0  0  0  0
   -1.3845    0.5220   -2.2631 H   0  0  0  0  0  0  0  0  0  0  0  0
   -3.9404   -1.2553   -2.1638 H   0  0  0  0  0  0  0  0  0  0  0  0
   -2.5600   -1.3375   -3.2495 H   0  0  0  0  0  0  0  0  0  0  0  0
   -4.5219   -0.5213   -4.2297 H   0  0  0  0  0  0  0  0  0  0  0  0
   -5.4003    1.4242   -2.5500 H   0  0  0  0  0  0  0  0  0  0  0  0
   -4.1630    2.3646   -3.5360 H   0  0  0  0  0  0  0  0  0  0  0  0
   -6.1343    0.4046   -4.6753 H   0  0  0  0  0  0  0  0  0  0  0  0
   -6.4457    2.2053   -4.4974 H   0  0  0  0  0  0  0  0  0  0  0  0
   -4.5807    2.7607   -5.8881 H   0  0  0  0  0  0  0  0  0  0  0  0
   -5.5583    1.5445   -6.7350 H   0  0  0  0  0  0  0  0  0  0  0  0
   -3.1267    1.1465   -6.8772 H   0  0  0  0  0  0  0  0  0  0  0  0
   -4.1047   -0.2633   -6.2117 H   0  0  0  0  0  0  0  0  0  0  0  0
   -2.0196    0.0647   -4.8103 H   0  0  0  0  0  0  0  0  0  0  0  0
   -2.6371    1.7513   -4.4744 H   0  0  0  0  0  0  0  0  0  0  0  0
   -3.1811    1.8292   -1.6618 H   0  0  0  0  0  0  0  0  0  0  0  0
   -2.5044    2.4649    0.3298 H   0  0  0  0  0  0  0  0  0  0  0  0
   -4.7123    0.1316   -0.8800 H   0  0  0  0  0  0  0  0  0  0  0  0
   -3.2006   -0.3332    1.4720 H   0  0  0  0  0  0  0  0  0  0  0  0
   -4.9490   -1.7853    1.9631 H   0  0  0  0  0  0  0  0  0  0  0  0
   -5.7641   -2.6308   -0.0854 H   0  0  0  0  0  0  0  0  0  0  0  0
   -6.7022   -0.2085    0.0280 H   0  0  0  0  0  0  0  0  0  0  0  0
   -7.2235   -1.2758    1.4247 H   0  0  0  0  0  0  0  0  0  0  0  0
   -6.8887    1.4716    1.4888 H   0  0  0  0  0  0  0  0  0  0  0  0
   -7.6803   -0.5980    3.1195 H   0  0  0  0  0  0  0  0  0  0  0  0
   -7.7642    1.1337    3.4950 H   0  0  0  0  0  0  0  0  0  0  0  0
   -6.8758    0.1530    5.3437 H   0  0  0  0  0  0  0  0  0  0  0  0
   -5.7835   -0.9541    4.5164 H   0  0  0  0  0  0  0  0  0  0  0  0
   -4.5338    0.9614    5.4301 H   0  0  0  0  0  0  0  0  0  0  0  0
   -5.5772    2.1101    4.4018 H   0  0  0  0  0  0  0  0  0  0  0  0
   -3.3343    1.4730    3.4482 H   0  0  0  0  0  0  0  0  0  0  0  0
   -3.8111   -0.2359    3.5357 H   0  0  0  0  0  0  0  0  0  0  0  0
   -4.7004    1.9331    1.6540 H   0  0  0  0  0  0  0  0  0  0  0  0
    6.0472   -0.0645    1.3221 H   0  0  0  0  0  0  0  0  0  0  0  0
    5.3039    0.5537    2.8001 H   0  0  0  0  0  0  0  0  0  0  0  0
    6.3325    2.2882    0.4574 H   0  0  0  0  0  0  0  0  0  0  0  0
    7.8875    0.9481    1.6488 H   0  0  0  0  0  0  0  0  0  0  0  0
    7.4087    1.7309    3.2376 H   0  0  0  0  0  0  0  0  0  0  0  0
    9.2614    2.8939    1.9386 H   0  0  0  0  0  0  0  0  0  0  0  0
    7.2463    4.7402    1.0827 H   0  0  0  0  0  0  0  0  0  0  0  0
    8.3597    4.9018    2.5002 H   0  0  0  0  0  0  0  0  0  0  0  0
    5.9841    5.0800    3.0404 H   0  0  0  0  0  0  0  0  0  0  0  0
    6.7233    3.7238    3.9256 H   0  0  0  0  0  0  0  0  0  0  0  0
    4.7902    3.8011    1.6102 H   0  0  0  0  0  0  0  0  0  0  0  0
    4.8412    2.7072    3.1102 H   0  0  0  0  0  0  0  0  0  0  0  0
  1  2  1  0
  2  3  1  0
  3  4  1  0
  4  5  1  0
  4  6  1  0
  7  6  1  0
  7  8  1  0
  7  9  1  0
  7 10  1  0
  3 11  1  0
 11 12  1  0
  1 13  1  0
 12 13  1  0
 11 14  1  0
 14 15  1  0
 15 16  1  0
 15 17  1  0
 17 18  1  0
 18 19  1  0
 19 20  1  0
 20 21  1  0
 21 22  1  0
 22 23  1  0
 23 24  1  0
 20 25  1  0
 24 25  1  0
 18 26  1  0
 26 27  1  0
 26 28  1  0
 28 29  1  0
 29 30  1  0
 30 31  1  0
 30 32  1  0
 32 33  1  0
 33 34  1  0
 34 35  1  0
 35 36  1  0
 36 37  1  0
 29 38  1  0
 33 38  1  0
 37 38  1  0
  1 39  1  0
 39 40  1  0
 40 41  1  0
 41 42  1  0
 42 43  1  0
 43 44  1  0
 40 45  1  0
 44 45  1  0
  2 46  1  0
  2 47  1  0
  3 48  1  6
  4 49  1  0
  5 50  1  0
  6 51  1  0
  8 52  1  0
  8 53  1  0
  8 54  1  0
  9 55  1  0
  9 56  1  0
  9 57  1  0
 10 58  1  0
 10 59  1  0
 10 60  1  0
 12 61  1  0
 12 62  1  0
 13 63  1  0
 13 64  1  0
 14 65  1  0
 14 66  1  0
 15 67  1  1
 16 68  1  0
 17 69  1  0
 17 70  1  0
 18 71  1  6
 19 72  1  0
 19 73  1  0
 20 74  1  0
 21 75  1  0
 21 76  1  0
 22 77  1  0
 22 78  1  0
 23 79  1  0
 23 80  1  0
 24 81  1  0
 24 82  1  0
 25 83  1  0
 25 84  1  0
 26 85  1  6
 27 86  1  0
 28 87  1  0
 29 88  1  1
 30 89  1  1
 31 90  1  0
 32 91  1  0
 32 92  1  0
 33 93  1  0
 34 94  1  0
 34 95  1  0
 35 96  1  0
 35 97  1  0
 36 98  1  0
 36 99  1  0
 37100  1  0
 37101  1  0
 38102  1  0
 39103  1  0
 39104  1  0
 40105  1  0
 41106  1  0
 41107  1  0
 42108  1  0
 43109  1  0
 43110  1  0
 44111  1  0
 44112  1  0
 45113  1  0
 45114  1  0
M  END
>  <PDBID>  (1) 
1HSG

>  <PDB ID>  (1) 
1HSG

>  <Generic Name>  (1) 
Indinavir

>  <Brand Name>  (1) 
Crixivan

>  <DrugBank ID>  (1) 
DB00224

>  <ATC Codes>  (1) 
J05AE02

>  <Ligand ID>  (1) 
MK1

>  <Target Name>  (1) 
Pol polyprotein

>  <UniProt ID>  (1) 
Q72874

>  <PDB ID.1>  (1) 
1HSG

>  <Seq. Identity>  (1) 
99%

$$$$
