PDB_DB00990_09
     RDKit          3D

 56 59  0  0  0  0  0  0  0  0999 V2000
    2.3847    2.3973    0.0726 C   0  0  0  0  0  0  0  0  0  0  0  0
    2.3485   -0.5553   -1.2518 C   0  0  0  0  0  0  0  0  0  0  0  0
    5.3380    0.0871    0.1643 O   0  0  0  0  0  0  0  0  0  0  0  0
    3.6505   -1.1594   -0.8519 C   0  0  0  0  0  0  0  0  0  0  0  0
   -5.2246   -0.6439   -0.4994 O   0  0  0  0  0  0  0  0  0  0  0  0
    4.2020   -0.7184    0.4494 C   0  0  0  0  0  0  0  0  0  0  0  0
    3.3065   -0.0457    1.3985 C   0  0  0  0  0  0  0  0  0  0  0  0
    1.8892    0.1300    1.0538 C   0  0  0  0  0  0  0  0  0  0  0  0
    1.4979    1.6044    0.9519 C   0  0  0  0  0  0  0  0  0  0  0  0
    0.0714    1.8116    0.5968 C   0  0  0  0  0  0  0  0  0  0  0  0
   -0.7246    0.5363    0.4801 C   0  0  2  0  0  0  0  0  0  0  0  0
    0.0186   -0.3402   -0.5258 C   0  0  1  0  0  0  0  0  0  0  0  0
    1.3959   -0.6767   -0.1111 C   0  0  1  0  0  0  0  0  0  0  0  0
   -0.7744   -1.5580   -0.9086 C   0  0  0  0  0  0  0  0  0  0  0  0
   -2.1419   -1.1786   -1.4448 C   0  0  0  0  0  0  0  0  0  0  0  0
   -2.8585   -0.4221   -0.3789 C   0  0  1  0  0  0  0  0  0  0  0  0
   -2.0453    0.8524   -0.1148 C   0  0  1  0  0  0  0  0  0  0  0  0
   -2.9768    1.6379    0.7274 C   0  0  0  0  0  0  0  0  0  0  0  0
   -4.3136    1.4494    0.0048 C   0  0  0  0  0  0  0  0  0  0  0  0
   -4.1605    0.1906   -0.8279 C   0  0  0  0  0  0  0  0  0  0  0  0
   -3.0943   -1.2069    0.8712 C   0  0  0  0  0  0  0  0  0  0  0  0
    1.4072   -2.1400    0.3389 C   0  0  0  0  0  0  0  0  0  0  0  0
    3.3787    1.9956   -0.1120 H   0  0  0  0  0  0  0  0  0  0  0  0
    1.8118    2.6234   -0.8749 H   0  0  0  0  0  0  0  0  0  0  0  0
    2.5466    3.4228    0.5216 H   0  0  0  0  0  0  0  0  0  0  0  0
    1.9347   -1.1977   -2.0862 H   0  0  0  0  0  0  0  0  0  0  0  0
    2.4287    0.4509   -1.6816 H   0  0  0  0  0  0  0  0  0  0  0  0
    5.3525    0.8238    0.8524 H   0  0  0  0  0  0  0  0  0  0  0  0
    4.3661   -0.9667   -1.7076 H   0  0  0  0  0  0  0  0  0  0  0  0
    3.5107   -2.2820   -0.8951 H   0  0  0  0  0  0  0  0  0  0  0  0
   -5.4419   -1.2278   -1.2560 H   0  0  0  0  0  0  0  0  0  0  0  0
    4.6816   -1.6363    0.9156 H   0  0  0  0  0  0  0  0  0  0  0  0
    3.7284    0.9836    1.6239 H   0  0  0  0  0  0  0  0  0  0  0  0
    3.4166   -0.5511    2.4092 H   0  0  0  0  0  0  0  0  0  0  0  0
    1.2548   -0.2303    1.9241 H   0  0  0  0  0  0  0  0  0  0  0  0
    1.6322    1.9954    2.0052 H   0  0  0  0  0  0  0  0  0  0  0  0
    0.0009    2.3431   -0.3947 H   0  0  0  0  0  0  0  0  0  0  0  0
   -0.4820    2.4839    1.3044 H   0  0  0  0  0  0  0  0  0  0  0  0
   -0.7588    0.0180    1.4453 H   0  0  0  0  0  0  0  0  0  0  0  0
    0.0862    0.2940   -1.4580 H   0  0  0  0  0  0  0  0  0  0  0  0
   -0.9460   -2.2275   -0.0521 H   0  0  0  0  0  0  0  0  0  0  0  0
   -0.2375   -2.0479   -1.7417 H   0  0  0  0  0  0  0  0  0  0  0  0
   -2.0897   -0.5838   -2.3575 H   0  0  0  0  0  0  0  0  0  0  0  0
   -2.6618   -2.1570   -1.6522 H   0  0  0  0  0  0  0  0  0  0  0  0
   -1.8869    1.3107   -1.1075 H   0  0  0  0  0  0  0  0  0  0  0  0
   -2.9959    1.2561    1.7495 H   0  0  0  0  0  0  0  0  0  0  0  0
   -2.6844    2.7240    0.6668 H   0  0  0  0  0  0  0  0  0  0  0  0
   -5.0756    1.3463    0.7956 H   0  0  0  0  0  0  0  0  0  0  0  0
   -4.5652    2.3246   -0.6230 H   0  0  0  0  0  0  0  0  0  0  0  0
   -4.1168    0.4151   -1.9167 H   0  0  0  0  0  0  0  0  0  0  0  0
   -2.6043   -0.7873    1.7707 H   0  0  0  0  0  0  0  0  0  0  0  0
   -4.1918   -1.2363    1.1251 H   0  0  0  0  0  0  0  0  0  0  0  0
   -2.8157   -2.2906    0.7607 H   0  0  0  0  0  0  0  0  0  0  0  0
    0.6686   -2.1900    1.1923 H   0  0  0  0  0  0  0  0  0  0  0  0
    2.3791   -2.4180    0.7953 H   0  0  0  0  0  0  0  0  0  0  0  0
    1.1800   -2.8323   -0.4685 H   0  0  0  0  0  0  0  0  0  0  0  0
  2  4  1  0
  3  6  1  0
  4  6  1  0
  6  7  1  0
  7  8  1  0
  1  9  1  0
  8  9  1  0
  9 10  1  0
 10 11  1  0
 11 12  1  0
  2 13  1  0
  8 13  1  0
 12 13  1  0
 12 14  1  0
 14 15  1  0
 15 16  1  0
 11 17  1  0
 16 17  1  0
 17 18  1  0
 18 19  1  0
  5 20  1  0
 16 20  1  0
 19 20  1  0
 16 21  1  1
 13 22  1  1
  1 23  1  0
  1 24  1  0
  1 25  1  0
  2 26  1  0
  2 27  1  0
  3 28  1  0
  4 29  1  0
  4 30  1  0
  5 31  1  0
  6 32  1  0
  7 33  1  0
  7 34  1  0
  8 35  1  0
  9 36  1  0
 10 37  1  0
 10 38  1  0
 11 39  1  1
 12 40  1  6
 14 41  1  0
 14 42  1  0
 15 43  1  0
 15 44  1  0
 17 45  1  6
 18 46  1  0
 18 47  1  0
 19 48  1  0
 19 49  1  0
 20 50  1  0
 21 51  1  0
 21 52  1  0
 21 53  1  0
 22 54  1  0
 22 55  1  0
 22 56  1  0
M  END
>  <PDBID>  (1) 
3S7S

>  <PDB ID>  (1) 
3S7S

>  <Generic Name>  (1) 
Exemestane

>  <Brand Name>  (1) 
Act Exemestane#Apo-exemestane#Aromasin#Exemestane#Gd-exemestane#Med-exemestane#Mylan-exemestane#Teva-exemestane#Exemestance

>  <DrugBank ID>  (1) 
DB00990

>  <ATC Codes>  (1) 
L02BG06

>  <Ligand ID>  (1) 
EXM

>  <Target Name>  (1) 
Aromatase

>  <UniProt ID>  (1) 
P11511

>  <PDB ID.1>  (1) 
3S7S

>  <Seq. Identity>  (1) 
98%

$$$$
