PDB_DB09026_08
     RDKit          3D

204204  0  0  0  0  0  0  0  0999 V2000
   -8.7805    2.7093   -2.4365 C   0  0  0  0  0  0  0  0  0  0  0  0
   -8.2574    2.8908   -1.1680 O   0  0  0  0  0  0  0  0  0  0  0  0
   -6.8986    3.1303   -1.1600 C   0  0  0  0  0  0  0  0  0  0  0  0
   -6.3465    3.3323    0.2152 C   0  0  0  0  0  0  0  0  0  0  0  0
   -6.5112    2.2198    1.1686 C   0  0  0  0  0  0  0  0  0  0  0  0
   -5.9731    1.0242    0.9714 O   0  0  0  0  0  0  0  0  0  0  0  0
   -6.2738    0.1626   -0.0015 C   0  0  0  0  0  0  0  0  0  0  0  0
   -5.0725   -0.0475   -0.8893 C   0  0  0  0  0  0  0  0  0  0  0  0
   -3.9803   -0.8483   -0.0940 C   0  0  0  0  0  0  0  0  0  0  0  0
   -4.6673   -2.2190   -0.0480 C   0  0  0  0  0  0  0  0  0  0  0  0
   -5.7294   -2.0724    1.0405 C   0  0  0  0  0  0  0  0  0  0  0  0
   -6.7963   -1.1803    0.5174 C   0  0  0  0  0  0  0  0  0  0  0  0
   -7.7054   -0.9517    1.5332 O   0  0  0  0  0  0  0  0  0  0  0  0
   -8.9743   -1.4247    1.1872 C   0  0  0  0  0  0  0  0  0  0  0  0
   -2.8137   -0.8720   -0.9662 C   0  0  0  0  0  0  0  0  0  0  0  0
   -1.4896   -1.4093   -0.5989 C   0  0  2  0  0  0  0  0  0  0  0  0
   -1.2287   -2.7740   -0.2049 C   0  0  0  0  0  0  0  0  0  0  0  0
   -1.6425   -3.7114   -1.3682 C   0  0  0  0  0  0  0  0  0  0  0  0
   -1.5987   -3.3571    1.0910 C   0  0  0  0  0  0  0  0  0  0  0  0
   -0.5855   -0.2838   -0.1028 C   0  0  0  0  0  0  0  0  0  0  0  0
    0.7711   -0.7378    0.3020 C   0  0  2  0  0  0  0  0  0  0  0  0
    0.7614   -1.6220    1.4633 N   0  0  0  0  0  0  0  0  0  0  0  0
    1.7379    0.3492    0.5880 C   0  0  1  0  0  0  0  0  0  0  0  0
    1.4227    0.9949    1.8244 O   0  0  0  0  0  0  0  0  0  0  0  0
    3.1207    0.3590    0.2067 C   0  0  0  0  0  0  0  0  0  0  0  0
    4.2266   -0.5065    0.5056 C   0  0  1  0  0  0  0  0  0  0  0  0
    4.4175   -1.8974    0.1535 C   0  0  0  0  0  0  0  0  0  0  0  0
    3.5207   -2.9899    0.6262 C   0  0  0  0  0  0  0  0  0  0  0  0
    4.6106   -2.0703   -1.3875 C   0  0  0  0  0  0  0  0  0  0  0  0
    5.5920    0.2073    0.1030 C   0  0  0  0  0  0  0  0  0  0  0  0
    6.5334   -0.7520    0.4661 O   0  0  0  0  0  0  0  0  0  0  0  0
    5.7050    1.4255    0.7864 N   0  0  0  0  0  0  0  0  0  0  0  0
    7.0200    1.7425    1.2255 C   0  0  0  0  0  0  0  0  0  0  0  0
    8.0452    2.1219    0.2374 C   0  0  0  0  0  0  0  0  0  0  0  0
    9.3275    2.4214    1.0695 C   0  0  0  0  0  0  0  0  0  0  0  0
    8.4795    1.0827   -0.7379 C   0  0  0  0  0  0  0  0  0  0  0  0
    7.7120    3.4429   -0.4491 C   0  0  1  0  0  0  0  0  0  0  0  0
    7.6426    4.4064    0.5417 O   0  0  0  0  0  0  0  0  0  0  0  0
    8.7766    3.7751   -1.3767 N   0  0  0  0  0  0  0  0  0  0  0  0
   -8.9642    4.2616    0.0794 C   0  0  0  0  0  0  0  0  0  0  0  0
   -7.7150    4.0661   -0.4631 O   0  0  0  0  0  0  0  0  0  0  0  0
   -7.3570    2.6991   -0.5754 C   0  0  0  0  0  0  0  0  0  0  0  0
   -7.3082    1.9989    0.7143 C   0  0  0  0  0  0  0  0  0  0  0  0
   -6.9834    0.5605    0.7832 C   0  0  0  0  0  0  0  0  0  0  0  0
   -5.8161    0.0664    0.3427 O   0  0  0  0  0  0  0  0  0  0  0  0
   -5.5137    0.0764   -0.9857 C   0  0  0  0  0  0  0  0  0  0  0  0
   -4.3204    0.9015   -1.2424 C   0  0  0  0  0  0  0  0  0  0  0  0
   -3.0028    0.1696   -1.0468 C   0  0  2  0  0  0  0  0  0  0  0  0
   -2.9820   -0.9502   -2.0343 C   0  0  0  0  0  0  0  0  0  0  0  0
   -4.0836   -1.8992   -1.7068 C   0  0  0  0  0  0  0  0  0  0  0  0
   -5.4336   -1.3307   -1.5339 C   0  0  0  0  0  0  0  0  0  0  0  0
   -6.0875   -2.1533   -0.5861 O   0  0  0  0  0  0  0  0  0  0  0  0
   -7.2013   -2.7832   -1.1154 C   0  0  0  0  0  0  0  0  0  0  0  0
   -2.8258   -0.2116    0.3778 C   0  0  0  0  0  0  0  0  0  0  0  0
   -1.5137   -0.9563    0.5658 C   0  0  2  0  0  0  0  0  0  0  0  0
   -1.3206   -1.3572    1.9953 C   0  0  0  0  0  0  0  0  0  0  0  0
   -2.4721   -2.2592    2.4639 C   0  0  0  0  0  0  0  0  0  0  0  0
   -1.1442   -0.2423    2.9616 C   0  0  0  0  0  0  0  0  0  0  0  0
   -0.4098   -0.1649   -0.0371 C   0  0  0  0  0  0  0  0  0  0  0  0
    0.9623   -0.7309    0.0614 C   0  0  2  0  0  0  0  0  0  0  0  0
    1.4193   -0.8745    1.3756 N   0  0  0  0  0  0  0  0  0  0  0  0
    1.8797    0.0517   -0.8877 C   0  0  1  0  0  0  0  0  0  0  0  0
    2.1109    1.2984   -0.4195 O   0  0  0  0  0  0  0  0  0  0  0  0
    2.9178   -0.7542   -1.5274 C   0  0  0  0  0  0  0  0  0  0  0  0
    3.9454   -1.4664   -0.7256 C   0  0  1  0  0  0  0  0  0  0  0  0
    4.7904   -2.3165   -1.7210 C   0  0  0  0  0  0  0  0  0  0  0  0
    5.8450   -3.1350   -1.0601 C   0  0  0  0  0  0  0  0  0  0  0  0
    3.8884   -3.1827   -2.5582 C   0  0  0  0  0  0  0  0  0  0  0  0
    5.0072   -0.5768   -0.0997 C   0  0  0  0  0  0  0  0  0  0  0  0
    5.8475   -1.3724    0.6617 O   0  0  0  0  0  0  0  0  0  0  0  0
    4.6001    0.5699    0.5900 N   0  0  0  0  0  0  0  0  0  0  0  0
    5.5613    1.0006    1.5753 C   0  0  0  0  0  0  0  0  0  0  0  0
    6.7961    1.6715    1.1180 C   0  0  0  0  0  0  0  0  0  0  0  0
    7.5858    2.0089    2.4279 C   0  0  0  0  0  0  0  0  0  0  0  0
    7.7723    0.9416    0.2794 C   0  0  0  0  0  0  0  0  0  0  0  0
    6.4222    3.0211    0.5078 C   0  0  0  0  0  0  0  0  0  0  0  0
    5.7882    3.7573    1.4863 O   0  0  0  0  0  0  0  0  0  0  0  0
    7.6610    3.6614    0.0810 N   0  0  0  0  0  0  0  0  0  0  0  0
   -9.8855    2.5263   -2.3292 H   0  0  0  0  0  0  0  0  0  0  0  0
   -8.3797    1.8127   -2.9555 H   0  0  0  0  0  0  0  0  0  0  0  0
   -8.6469    3.5989   -3.0740 H   0  0  0  0  0  0  0  0  0  0  0  0
   -6.7426    4.1087   -1.7532 H   0  0  0  0  0  0  0  0  0  0  0  0
   -6.3790    2.3713   -1.7615 H   0  0  0  0  0  0  0  0  0  0  0  0
   -6.8771    4.2654    0.6072 H   0  0  0  0  0  0  0  0  0  0  0  0
   -5.2722    3.7051    0.1661 H   0  0  0  0  0  0  0  0  0  0  0  0
   -7.6195    2.1913    1.4236 H   0  0  0  0  0  0  0  0  0  0  0  0
   -6.0764    2.6073    2.1645 H   0  0  0  0  0  0  0  0  0  0  0  0
   -7.0875    0.5268   -0.6459 H   0  0  0  0  0  0  0  0  0  0  0  0
   -4.6066    0.9239   -1.0897 H   0  0  0  0  0  0  0  0  0  0  0  0
   -5.2947   -0.5498   -1.8325 H   0  0  0  0  0  0  0  0  0  0  0  0
   -3.9152   -0.3538    0.8628 H   0  0  0  0  0  0  0  0  0  0  0  0
   -5.2296   -2.3522   -1.0036 H   0  0  0  0  0  0  0  0  0  0  0  0
   -4.0718   -3.0518    0.2165 H   0  0  0  0  0  0  0  0  0  0  0  0
   -5.3138   -1.8132    2.0135 H   0  0  0  0  0  0  0  0  0  0  0  0
   -6.1741   -3.0960    1.1434 H   0  0  0  0  0  0  0  0  0  0  0  0
   -7.3031   -1.6866   -0.3275 H   0  0  0  0  0  0  0  0  0  0  0  0
   -8.9153   -2.5264    0.9958 H   0  0  0  0  0  0  0  0  0  0  0  0
   -9.4258   -0.8554    0.3642 H   0  0  0  0  0  0  0  0  0  0  0  0
   -9.6628   -1.3071    2.0604 H   0  0  0  0  0  0  0  0  0  0  0  0
   -2.5906    0.1916   -1.3364 H   0  0  0  0  0  0  0  0  0  0  0  0
   -3.0940   -1.3516   -1.9811 H   0  0  0  0  0  0  0  0  0  0  0  0
   -1.0030   -1.4505   -1.7222 H   0  0  0  0  0  0  0  0  0  0  0  0
   -0.0820   -2.8978   -0.2772 H   0  0  0  0  0  0  0  0  0  0  0  0
   -1.0486   -3.3660   -2.2417 H   0  0  0  0  0  0  0  0  0  0  0  0
   -2.6891   -3.6257   -1.6294 H   0  0  0  0  0  0  0  0  0  0  0  0
   -1.3403   -4.7284   -1.1146 H   0  0  0  0  0  0  0  0  0  0  0  0
   -0.7028   -3.8305    1.5816 H   0  0  0  0  0  0  0  0  0  0  0  0
   -2.2757   -4.2623    0.9966 H   0  0  0  0  0  0  0  0  0  0  0  0
   -1.9962   -2.6282    1.7919 H   0  0  0  0  0  0  0  0  0  0  0  0
   -1.1049    0.2749    0.7263 H   0  0  0  0  0  0  0  0  0  0  0  0
   -0.5171    0.4830   -0.9140 H   0  0  0  0  0  0  0  0  0  0  0  0
    1.2453   -1.3072   -0.5745 H   0  0  0  0  0  0  0  0  0  0  0  0
   -0.0609   -1.3164    2.0960 H   0  0  0  0  0  0  0  0  0  0  0  0
    1.6283   -1.4196    2.0607 H   0  0  0  0  0  0  0  0  0  0  0  0
    1.2700    1.2231   -0.1174 H   0  0  0  0  0  0  0  0  0  0  0  0
    0.4494    0.9378    1.9744 H   0  0  0  0  0  0  0  0  0  0  0  0
    3.4957    1.4396    0.4977 H   0  0  0  0  0  0  0  0  0  0  0  0
    3.1070    0.5678   -0.9597 H   0  0  0  0  0  0  0  0  0  0  0  0
    4.3889   -0.4597    1.6729 H   0  0  0  0  0  0  0  0  0  0  0  0
    5.4591   -2.2825    0.4997 H   0  0  0  0  0  0  0  0  0  0  0  0
    2.6176   -3.0292    0.0064 H   0  0  0  0  0  0  0  0  0  0  0  0
    3.2478   -2.9322    1.6820 H   0  0  0  0  0  0  0  0  0  0  0  0
    4.0111   -4.0065    0.4232 H   0  0  0  0  0  0  0  0  0  0  0  0
    3.7740   -1.6465   -1.9350 H   0  0  0  0  0  0  0  0  0  0  0  0
    5.5943   -1.6918   -1.6396 H   0  0  0  0  0  0  0  0  0  0  0  0
    4.5988   -3.1673   -1.5402 H   0  0  0  0  0  0  0  0  0  0  0  0
    5.5045    0.2335   -0.9906 H   0  0  0  0  0  0  0  0  0  0  0  0
    6.6016   -0.8994    1.4293 H   0  0  0  0  0  0  0  0  0  0  0  0
    5.1135    1.3665    1.6623 H   0  0  0  0  0  0  0  0  0  0  0  0
    6.9480    2.5436    2.0447 H   0  0  0  0  0  0  0  0  0  0  0  0
    7.4716    0.8799    1.8277 H   0  0  0  0  0  0  0  0  0  0  0  0
    9.3417    1.6345    1.8507 H   0  0  0  0  0  0  0  0  0  0  0  0
    9.2320    3.3884    1.5753 H   0  0  0  0  0  0  0  0  0  0  0  0
   10.2243    2.3131    0.4573 H   0  0  0  0  0  0  0  0  0  0  0  0
    9.3215    1.4834   -1.3742 H   0  0  0  0  0  0  0  0  0  0  0  0
    8.9339    0.2249   -0.1776 H   0  0  0  0  0  0  0  0  0  0  0  0
    7.7469    0.7151   -1.4427 H   0  0  0  0  0  0  0  0  0  0  0  0
    6.7747    3.3958   -1.0080 H   0  0  0  0  0  0  0  0  0  0  0  0
    6.7490    4.8311    0.5240 H   0  0  0  0  0  0  0  0  0  0  0  0
    9.7044    3.7979   -0.9302 H   0  0  0  0  0  0  0  0  0  0  0  0
    8.7320    3.2576   -2.2647 H   0  0  0  0  0  0  0  0  0  0  0  0
   -9.1135    5.3924    0.0580 H   0  0  0  0  0  0  0  0  0  0  0  0
   -8.9896    3.9322    1.1439 H   0  0  0  0  0  0  0  0  0  0  0  0
   -9.7575    3.7614   -0.4742 H   0  0  0  0  0  0  0  0  0  0  0  0
   -6.3755    2.7726   -1.1242 H   0  0  0  0  0  0  0  0  0  0  0  0
   -8.0709    2.2126   -1.2868 H   0  0  0  0  0  0  0  0  0  0  0  0
   -8.3221    2.1386    1.2238 H   0  0  0  0  0  0  0  0  0  0  0  0
   -6.6244    2.5551    1.4390 H   0  0  0  0  0  0  0  0  0  0  0  0
   -7.8311    0.0358    0.2114 H   0  0  0  0  0  0  0  0  0  0  0  0
   -7.1193    0.1605    1.8417 H   0  0  0  0  0  0  0  0  0  0  0  0
   -6.3931    0.5400   -1.5227 H   0  0  0  0  0  0  0  0  0  0  0  0
   -4.3023    1.7418   -0.4859 H   0  0  0  0  0  0  0  0  0  0  0  0
   -4.3226    1.3808   -2.2256 H   0  0  0  0  0  0  0  0  0  0  0  0
   -2.2234    0.9499   -1.2705 H   0  0  0  0  0  0  0  0  0  0  0  0
   -2.0512   -1.5311   -2.0869 H   0  0  0  0  0  0  0  0  0  0  0  0
   -3.2119   -0.5068   -3.0332 H   0  0  0  0  0  0  0  0  0  0  0  0
   -3.7731   -2.5683   -0.8539 H   0  0  0  0  0  0  0  0  0  0  0  0
   -4.1292   -2.6201   -2.5794 H   0  0  0  0  0  0  0  0  0  0  0  0
   -6.0332   -1.4242   -2.4602 H   0  0  0  0  0  0  0  0  0  0  0  0
   -6.8960   -3.4304   -1.9866 H   0  0  0  0  0  0  0  0  0  0  0  0
   -8.0433   -2.1165   -1.3524 H   0  0  0  0  0  0  0  0  0  0  0  0
   -7.5213   -3.5244   -0.3368 H   0  0  0  0  0  0  0  0  0  0  0  0
   -3.6782   -0.7607    0.8313 H   0  0  0  0  0  0  0  0  0  0  0  0
   -2.7668    0.7579    0.9583 H   0  0  0  0  0  0  0  0  0  0  0  0
   -1.5780   -1.9322   -0.0129 H   0  0  0  0  0  0  0  0  0  0  0  0
   -0.4322   -2.0320    2.0514 H   0  0  0  0  0  0  0  0  0  0  0  0
   -2.1749   -2.7769    3.3996 H   0  0  0  0  0  0  0  0  0  0  0  0
   -2.6469   -3.0459    1.7124 H   0  0  0  0  0  0  0  0  0  0  0  0
   -3.3643   -1.6467    2.7083 H   0  0  0  0  0  0  0  0  0  0  0  0
   -0.4261   -0.5802    3.7605 H   0  0  0  0  0  0  0  0  0  0  0  0
   -0.6849    0.6643    2.4960 H   0  0  0  0  0  0  0  0  0  0  0  0
   -2.0782    0.0063    3.5249 H   0  0  0  0  0  0  0  0  0  0  0  0
   -0.4824    0.8657    0.3965 H   0  0  0  0  0  0  0  0  0  0  0  0
   -0.5851    0.0287   -1.1469 H   0  0  0  0  0  0  0  0  0  0  0  0
    0.8827   -1.7892   -0.3662 H   0  0  0  0  0  0  0  0  0  0  0  0
    1.8522   -1.7996    1.5728 H   0  0  0  0  0  0  0  0  0  0  0  0
    2.0100   -0.1440    1.7837 H   0  0  0  0  0  0  0  0  0  0  0  0
    1.1153    0.2537   -1.7761 H   0  0  0  0  0  0  0  0  0  0  0  0
    1.7513    1.5439    0.4489 H   0  0  0  0  0  0  0  0  0  0  0  0
    3.5114   -0.1209   -2.2776 H   0  0  0  0  0  0  0  0  0  0  0  0
    2.3875   -1.4757   -2.2356 H   0  0  0  0  0  0  0  0  0  0  0  0
    3.5382   -2.1349   -0.0032 H   0  0  0  0  0  0  0  0  0  0  0  0
    5.3153   -1.6218   -2.4318 H   0  0  0  0  0  0  0  0  0  0  0  0
    5.9892   -4.0743   -1.6795 H   0  0  0  0  0  0  0  0  0  0  0  0
    5.4978   -3.4746   -0.0649 H   0  0  0  0  0  0  0  0  0  0  0  0
    6.8230   -2.6351   -0.9243 H   0  0  0  0  0  0  0  0  0  0  0  0
    2.9897   -3.5231   -1.9951 H   0  0  0  0  0  0  0  0  0  0  0  0
    3.6275   -2.7142   -3.5231 H   0  0  0  0  0  0  0  0  0  0  0  0
    4.4473   -4.1109   -2.7986 H   0  0  0  0  0  0  0  0  0  0  0  0
    5.6058   -0.2150   -1.0055 H   0  0  0  0  0  0  0  0  0  0  0  0
    5.2976   -1.6650    1.4579 H   0  0  0  0  0  0  0  0  0  0  0  0
    4.5505    1.4257   -0.0697 H   0  0  0  0  0  0  0  0  0  0  0  0
    5.0429    1.6406    2.3678 H   0  0  0  0  0  0  0  0  0  0  0  0
    5.9013    0.1168    2.2059 H   0  0  0  0  0  0  0  0  0  0  0  0
    7.4227    1.1330    3.0801 H   0  0  0  0  0  0  0  0  0  0  0  0
    7.1198    2.9159    2.8144 H   0  0  0  0  0  0  0  0  0  0  0  0
    8.6591    2.0946    2.2075 H   0  0  0  0  0  0  0  0  0  0  0  0
    7.5165    1.0436   -0.8004 H   0  0  0  0  0  0  0  0  0  0  0  0
    8.7936    1.5012    0.3139 H   0  0  0  0  0  0  0  0  0  0  0  0
    8.0587   -0.0605    0.5797 H   0  0  0  0  0  0  0  0  0  0  0  0
    5.8309    2.8631   -0.3953 H   0  0  0  0  0  0  0  0  0  0  0  0
    5.7814    4.7393    1.3150 H   0  0  0  0  0  0  0  0  0  0  0  0
    8.4314    3.4650    0.7275 H   0  0  0  0  0  0  0  0  0  0  0  0
    7.9059    3.3573   -0.8779 H   0  0  0  0  0  0  0  0  0  0  0  0
  1  2  1  0
  2  3  1  0
  3  4  1  0
  4  5  1  0
  5  6  1  0
  6  7  1  0
  7  8  1  0
  8  9  1  0
  9 10  1  0
 10 11  1  0
  7 12  1  0
 11 12  1  0
 12 13  1  0
 13 14  1  0
  9 15  1  0
 15 16  1  0
 16 17  1  0
 17 18  1  0
 17 19  1  0
 16 20  1  0
 20 21  1  0
 21 22  1  0
 21 23  1  0
 23 24  1  0
 23 25  1  0
 25 26  1  0
 26 27  1  0
 27 28  1  0
 27 29  1  0
 26 30  1  0
 30 31  1  0
 30 32  1  0
 32 33  1  0
 34 33  1  0
 34 35  1  0
 34 36  1  0
 34 37  1  0
 37 38  1  0
 37 39  1  0
 40 41  1  0
 41 42  1  0
 42 43  1  0
 43 44  1  0
 44 45  1  0
 45 46  1  0
 46 47  1  0
 47 48  1  0
 48 49  1  0
 49 50  1  0
 46 51  1  0
 50 51  1  0
 51 52  1  0
 52 53  1  0
 48 54  1  0
 54 55  1  0
 55 56  1  0
 56 57  1  0
 56 58  1  0
 55 59  1  0
 59 60  1  0
 60 61  1  0
 60 62  1  0
 62 63  1  0
 62 64  1  0
 64 65  1  0
 65 66  1  0
 66 67  1  0
 66 68  1  0
 65 69  1  0
 69 70  1  0
 69 71  1  0
 71 72  1  0
 73 72  1  0
 73 74  1  0
 73 75  1  0
 73 76  1  0
 76 77  1  0
 76 78  1  0
  1 79  1  0
  1 80  1  0
  1 81  1  0
  3 82  1  0
  3 83  1  0
  4 84  1  0
  4 85  1  0
  5 86  1  0
  5 87  1  0
  7 88  1  0
  8 89  1  0
  8 90  1  0
  9 91  1  0
 10 92  1  0
 10 93  1  0
 11 94  1  0
 11 95  1  0
 12 96  1  0
 14 97  1  0
 14 98  1  0
 14 99  1  0
 15100  1  0
 15101  1  0
 16102  1  6
 17103  1  0
 18104  1  0
 18105  1  0
 18106  1  0
 19107  1  0
 19108  1  0
 19109  1  0
 20110  1  0
 20111  1  0
 21112  1  6
 22113  1  0
 22114  1  0
 23115  1  6
 24116  1  0
 25117  1  0
 25118  1  0
 26119  1  1
 27120  1  0
 28121  1  0
 28122  1  0
 28123  1  0
 29124  1  0
 29125  1  0
 29126  1  0
 30127  1  0
 31128  1  0
 32129  1  0
 33130  1  0
 33131  1  0
 35132  1  0
 35133  1  0
 35134  1  0
 36135  1  0
 36136  1  0
 36137  1  0
 37138  1  6
 38139  1  0
 39140  1  0
 39141  1  0
 40142  1  0
 40143  1  0
 40144  1  0
 42145  1  0
 42146  1  0
 43147  1  0
 43148  1  0
 44149  1  0
 44150  1  0
 46151  1  0
 47152  1  0
 47153  1  0
 48154  1  6
 49155  1  0
 49156  1  0
 50157  1  0
 50158  1  0
 51159  1  0
 53160  1  0
 53161  1  0
 53162  1  0
 54163  1  0
 54164  1  0
 55165  1  6
 56166  1  0
 57167  1  0
 57168  1  0
 57169  1  0
 58170  1  0
 58171  1  0
 58172  1  0
 59173  1  0
 59174  1  0
 60175  1  6
 61176  1  0
 61177  1  0
 62178  1  6
 63179  1  0
 64180  1  0
 64181  1  0
 65182  1  1
 66183  1  0
 67184  1  0
 67185  1  0
 67186  1  0
 68187  1  0
 68188  1  0
 68189  1  0
 69190  1  0
 70191  1  0
 71192  1  0
 72193  1  0
 72194  1  0
 74195  1  0
 74196  1  0
 74197  1  0
 75198  1  0
 75199  1  0
 75200  1  0
 76201  1  0
 77202  1  0
 78203  1  0
 78204  1  0
M  END
>  <PDBID>  (1) 
2V0Z

>  <PDB ID>  (1) 
2V0Z

>  <Generic Name>  (1) 
Aliskiren

>  <Brand Name>  (1) 
Amturnide#Rasilez#Rasilez Hct#Sandoz Aliskiren#Tekamlo#Tekturna#Tekturna Hct

>  <DrugBank ID>  (1) 
DB09026

>  <ATC Codes>  (1) 
C09DX02#C09XA02#C09XA52#C09XA53#C09XA54

>  <Ligand ID>  (1) 
C41

>  <Target Name>  (1) 
Renin

>  <UniProt ID>  (1) 
P00797

>  <PDB ID.1>  (1) 
2V0Z

>  <Seq. Identity>  (1) 
100%

$$$$
