PDB_DB06243_00
     RDKit          3D

 76 72  0  0  0  0  0  0  0  0999 V2000
   -1.7279    0.0431   -0.5820 C   0  0  2  0  0  0  0  0  0  0  0  0
   -2.8040    1.0153   -0.1467 C   0  0  0  0  0  0  0  0  0  0  0  0
   -2.1125   -1.2978   -0.2518 N   0  0  0  0  0  0  0  0  0  0  0  0
   -0.4410    0.4186    0.1083 C   0  0  0  0  0  0  0  0  0  0  0  0
    0.6983   -0.4962   -0.2624 C   0  0  0  0  0  0  0  0  0  0  0  0
    1.9177   -0.0258    0.4820 C   0  0  0  0  0  0  0  0  0  0  0  0
    3.0880   -0.8180    0.2174 N   0  0  0  0  0  0  0  0  0  0  0  0
   -1.8330    0.0356   -0.1189 C   0  0  0  0  0  0  0  0  0  0  0  0
   -2.5351    1.3824   -0.0348 C   0  0  0  0  0  0  0  0  0  0  0  0
   -2.0103   -0.5595   -1.4287 N   0  0  0  0  0  0  0  0  0  0  0  0
   -0.3774    0.3199    0.1865 C   0  0  0  0  0  0  0  0  0  0  0  0
    0.4565   -0.9524    0.1376 C   0  0  0  0  0  0  0  0  0  0  0  0
    1.8903   -0.5355    0.4597 C   0  0  0  0  0  0  0  0  0  0  0  0
    2.3868    0.4177   -0.4909 N   0  0  0  0  0  0  0  0  0  0  0  0
   -1.7279    0.0431   -0.5820 C   0  0  2  0  0  0  0  0  0  0  0  0
   -2.8040    1.0153   -0.1467 C   0  0  0  0  0  0  0  0  0  0  0  0
   -2.1125   -1.2978   -0.2518 N   0  0  0  0  0  0  0  0  0  0  0  0
   -0.4410    0.4186    0.1083 C   0  0  0  0  0  0  0  0  0  0  0  0
    0.6983   -0.4962   -0.2624 C   0  0  0  0  0  0  0  0  0  0  0  0
    1.9177   -0.0258    0.4820 C   0  0  0  0  0  0  0  0  0  0  0  0
    3.0880   -0.8180    0.2174 N   0  0  0  0  0  0  0  0  0  0  0  0
   -1.7279    0.0431   -0.5820 C   0  0  2  0  0  0  0  0  0  0  0  0
   -2.8040    1.0153   -0.1467 C   0  0  0  0  0  0  0  0  0  0  0  0
   -2.1125   -1.2978   -0.2518 N   0  0  0  0  0  0  0  0  0  0  0  0
   -0.4410    0.4186    0.1083 C   0  0  0  0  0  0  0  0  0  0  0  0
    0.6983   -0.4962   -0.2624 C   0  0  0  0  0  0  0  0  0  0  0  0
    1.9177   -0.0258    0.4820 C   0  0  0  0  0  0  0  0  0  0  0  0
    3.0880   -0.8180    0.2174 N   0  0  0  0  0  0  0  0  0  0  0  0
   -1.6390    0.1137   -1.6768 H   0  0  0  0  0  0  0  0  0  0  0  0
   -2.6346    1.3792    0.8767 H   0  0  0  0  0  0  0  0  0  0  0  0
   -2.8610    1.8579   -0.8473 H   0  0  0  0  0  0  0  0  0  0  0  0
   -3.1537   -1.4320   -0.2038 H   0  0  0  0  0  0  0  0  0  0  0  0
   -0.5764    0.3543    1.1980 H   0  0  0  0  0  0  0  0  0  0  0  0
   -0.1453    1.4527   -0.1390 H   0  0  0  0  0  0  0  0  0  0  0  0
    0.4111   -1.5264    0.0915 H   0  0  0  0  0  0  0  0  0  0  0  0
    0.8746   -0.5029   -1.3638 H   0  0  0  0  0  0  0  0  0  0  0  0
    1.6804   -0.0492    1.5688 H   0  0  0  0  0  0  0  0  0  0  0  0
    2.1391    1.0159    0.1841 H   0  0  0  0  0  0  0  0  0  0  0  0
    3.5706   -0.5803   -0.6620 H   0  0  0  0  0  0  0  0  0  0  0  0
    3.7156   -0.9222    1.0357 H   0  0  0  0  0  0  0  0  0  0  0  0
   -2.2366   -0.5885    0.6949 H   0  0  0  0  0  0  0  0  0  0  0  0
   -2.1496    1.8721    0.8842 H   0  0  0  0  0  0  0  0  0  0  0  0
   -2.1283    1.9770   -0.8925 H   0  0  0  0  0  0  0  0  0  0  0  0
   -2.1189   -1.5939   -1.3334 H   0  0  0  0  0  0  0  0  0  0  0  0
   -0.3485    0.7299    1.2192 H   0  0  0  0  0  0  0  0  0  0  0  0
    0.0306    1.1112   -0.4692 H   0  0  0  0  0  0  0  0  0  0  0  0
    0.0548   -1.6184    0.9132 H   0  0  0  0  0  0  0  0  0  0  0  0
    0.4525   -1.3838   -0.8616 H   0  0  0  0  0  0  0  0  0  0  0  0
    2.5484   -1.4310    0.5423 H   0  0  0  0  0  0  0  0  0  0  0  0
    1.8883   -0.0663    1.4651 H   0  0  0  0  0  0  0  0  0  0  0  0
    2.9162   -0.1100   -1.2418 H   0  0  0  0  0  0  0  0  0  0  0  0
    3.1131    0.9934   -0.0039 H   0  0  0  0  0  0  0  0  0  0  0  0
   -1.6390    0.1137   -1.6768 H   0  0  0  0  0  0  0  0  0  0  0  0
   -2.6346    1.3792    0.8767 H   0  0  0  0  0  0  0  0  0  0  0  0
   -2.8610    1.8579   -0.8473 H   0  0  0  0  0  0  0  0  0  0  0  0
   -3.1537   -1.4320   -0.2038 H   0  0  0  0  0  0  0  0  0  0  0  0
   -0.5764    0.3543    1.1980 H   0  0  0  0  0  0  0  0  0  0  0  0
   -0.1453    1.4527   -0.1390 H   0  0  0  0  0  0  0  0  0  0  0  0
    0.4111   -1.5264    0.0915 H   0  0  0  0  0  0  0  0  0  0  0  0
    0.8746   -0.5029   -1.3638 H   0  0  0  0  0  0  0  0  0  0  0  0
    1.6804   -0.0492    1.5688 H   0  0  0  0  0  0  0  0  0  0  0  0
    2.1391    1.0159    0.1841 H   0  0  0  0  0  0  0  0  0  0  0  0
    3.5706   -0.5803   -0.6620 H   0  0  0  0  0  0  0  0  0  0  0  0
    3.7156   -0.9222    1.0357 H   0  0  0  0  0  0  0  0  0  0  0  0
   -1.6390    0.1137   -1.6768 H   0  0  0  0  0  0  0  0  0  0  0  0
   -2.6346    1.3792    0.8767 H   0  0  0  0  0  0  0  0  0  0  0  0
   -2.8610    1.8579   -0.8473 H   0  0  0  0  0  0  0  0  0  0  0  0
   -3.1537   -1.4320   -0.2038 H   0  0  0  0  0  0  0  0  0  0  0  0
   -0.5764    0.3543    1.1980 H   0  0  0  0  0  0  0  0  0  0  0  0
   -0.1453    1.4527   -0.1390 H   0  0  0  0  0  0  0  0  0  0  0  0
    0.4111   -1.5264    0.0915 H   0  0  0  0  0  0  0  0  0  0  0  0
    0.8746   -0.5029   -1.3638 H   0  0  0  0  0  0  0  0  0  0  0  0
    1.6804   -0.0492    1.5688 H   0  0  0  0  0  0  0  0  0  0  0  0
    2.1391    1.0159    0.1841 H   0  0  0  0  0  0  0  0  0  0  0  0
    3.5706   -0.5803   -0.6620 H   0  0  0  0  0  0  0  0  0  0  0  0
    3.7156   -0.9222    1.0357 H   0  0  0  0  0  0  0  0  0  0  0  0
  1  2  1  0
  1  3  1  0
  1  4  1  0
  4  5  1  0
  5  6  1  0
  6  7  1  0
  8  9  1  0
  8 10  1  0
  8 11  1  0
 11 12  1  0
 12 13  1  0
 13 14  1  0
 15 16  1  0
 15 17  1  0
 15 18  1  0
 18 19  1  0
 19 20  1  0
 20 21  1  0
 22 23  1  0
 22 24  1  0
 22 25  1  0
 25 26  1  0
 26 27  1  0
 27 28  1  0
  1 29  1  6
  2 30  1  0
  2 31  1  0
  3 32  1  0
  4 33  1  0
  4 34  1  0
  5 35  1  0
  5 36  1  0
  6 37  1  0
  6 38  1  0
  7 39  1  0
  7 40  1  0
  8 41  1  0
  9 42  1  0
  9 43  1  0
 10 44  1  0
 11 45  1  0
 11 46  1  0
 12 47  1  0
 12 48  1  0
 13 49  1  0
 13 50  1  0
 14 51  1  0
 14 52  1  0
 15 53  1  6
 16 54  1  0
 16 55  1  0
 17 56  1  0
 18 57  1  0
 18 58  1  0
 19 59  1  0
 19 60  1  0
 20 61  1  0
 20 62  1  0
 21 63  1  0
 21 64  1  0
 22 65  1  6
 23 66  1  0
 23 67  1  0
 24 68  1  0
 25 69  1  0
 25 70  1  0
 26 71  1  0
 26 72  1  0
 27 73  1  0
 27 74  1  0
 28 75  1  0
 28 76  1  0
M  END
>  <PDBID>  (1) 
2TOD

>  <PDB ID>  (1) 
2TOD

>  <Generic Name>  (1) 
Eflornithine

>  <Brand Name>  (1) 
Vaniqa

>  <DrugBank ID>  (1) 
DB06243

>  <ATC Codes>  (1) 
D11AX16#P01CX03

>  <Ligand ID>  (1) 
DMO

>  <Target Name>  (1) 
Ornithine decarboxylase

>  <UniProt ID>  (1) 
P11926

>  <PDB ID.1>  (1) 
2TOD

>  <Seq. Identity>  (1) 
65%

$$$$
