PDB_DB08809_01
     RDKit          3D

 10  9  0  0  0  0  0  0  0  0999 V2000
   -0.9541   -0.3138   -0.0634 C   0  0  0  0  0  0  0  0  0  0  0  0
    0.3411    0.3691   -0.3898 C   0  0  0  0  0  0  0  0  0  0  0  0
    1.4182   -0.5015   -0.4393 O   0  0  0  0  0  0  0  0  0  0  0  0
   -1.2929   -1.5320   -1.3107 Cl  0  0  0  0  0  0  0  0  0  0  0  0
   -0.9882   -1.1002    1.4963 Cl  0  0  0  0  0  0  0  0  0  0  0  0
    0.5877    1.4636    0.4399 O   0  0  0  0  0  0  0  0  0  0  0  0
   -1.7514    0.4687   -0.1069 H   0  0  0  0  0  0  0  0  0  0  0  0
    0.2296    0.7897   -1.4202 H   0  0  0  0  0  0  0  0  0  0  0  0
    1.6881   -0.8629    0.4241 H   0  0  0  0  0  0  0  0  0  0  0  0
    0.7219    1.2193    1.3701 H   0  0  0  0  0  0  0  0  0  0  0  0
  1  2  1  0
  2  3  1  0
  1  4  1  0
  1  5  1  0
  2  6  1  0
  1  7  1  0
  2  8  1  0
  3  9  1  0
  6 10  1  0
M  END
>  <PDBID>  (1) 
2Q8H

>  <PDB ID>  (1) 
2Q8H

>  <Generic Name>  (1) 
Dichloroacetic Acid

>  <Brand Name>  (1) 
Bichloracetic Acid 100%

>  <DrugBank ID>  (1) 
DB08809

>  <ATC Codes>  (1) 
nan

>  <Ligand ID>  (1) 
TF4

>  <Target Name>  (1) 
[Pyruvate dehydrogenase (acetyl-transferring)] kinase isozyme 1, mitochondrial

>  <UniProt ID>  (1) 
Q15118

>  <PDB ID.1>  (1) 
2Q8H

>  <Seq. Identity>  (1) 
100%

$$$$
