PDB_DB00866_03
     RDKit          3D

 49 49  0  0  0  0  0  0  0  0999 V2000
    4.5504   -1.7696   -0.3124 C   0  0  0  0  0  0  0  0  0  0  0  0
    3.3056    0.2264    0.3015 N   0  0  0  0  0  0  0  0  0  0  0  0
    2.3810    1.7619   -1.7803 O   0  0  0  0  0  0  0  0  0  0  0  0
    4.0193   -0.9084    0.8025 C   0  0  0  0  0  0  0  0  0  0  0  0
    0.0325    1.5118    0.9372 O   0  0  0  0  0  0  0  0  0  0  0  0
    3.1324   -1.6965    1.7502 C   0  0  0  0  0  0  0  0  0  0  0  0
    2.1298   -0.1551   -0.4683 C   0  0  0  0  0  0  0  0  0  0  0  0
    1.4089    1.0833   -0.9701 C   0  0  1  0  0  0  0  0  0  0  0  0
    0.9851    1.9861    0.1409 C   0  0  0  0  0  0  0  0  0  0  0  0
   -1.2116    1.2148    0.4795 C   0  0  0  0  0  0  0  0  0  0  0  0
   -2.1532    2.4153    0.9420 C   0  0  0  0  0  0  0  0  0  0  0  0
   -3.2647    2.3440   -0.0818 C   0  0  0  0  0  0  0  0  0  0  0  0
   -4.0730    1.0789    0.0919 C   0  0  0  0  0  0  0  0  0  0  0  0
   -3.4078    0.0321    0.8896 C   0  0  0  0  0  0  0  0  0  0  0  0
   -1.9220    0.0465    1.0108 C   0  0  0  0  0  0  0  0  0  0  0  0
   -1.3497   -1.3150    0.7434 C   0  0  0  0  0  0  0  0  0  0  0  0
   -1.1809   -1.7582   -0.6439 C   0  0  0  0  0  0  0  0  0  0  0  0
   -2.4308   -1.8524   -1.4871 C   0  0  0  0  0  0  0  0  0  0  0  0
    3.7536   -2.4336   -0.7219 H   0  0  0  0  0  0  0  0  0  0  0  0
    5.0046   -1.1393   -1.0846 H   0  0  0  0  0  0  0  0  0  0  0  0
    5.3545   -2.4255    0.0914 H   0  0  0  0  0  0  0  0  0  0  0  0
    3.9602    0.8146   -0.2667 H   0  0  0  0  0  0  0  0  0  0  0  0
    2.7878    2.4620   -1.2359 H   0  0  0  0  0  0  0  0  0  0  0  0
    4.8850   -0.5302    1.3835 H   0  0  0  0  0  0  0  0  0  0  0  0
    2.4560   -2.3844    1.1853 H   0  0  0  0  0  0  0  0  0  0  0  0
    2.4802   -1.0045    2.3110 H   0  0  0  0  0  0  0  0  0  0  0  0
    3.7694   -2.2853    2.4355 H   0  0  0  0  0  0  0  0  0  0  0  0
    2.4742   -0.7748   -1.3072 H   0  0  0  0  0  0  0  0  0  0  0  0
    1.4754   -0.7422    0.1806 H   0  0  0  0  0  0  0  0  0  0  0  0
    0.6156    0.8043   -1.6626 H   0  0  0  0  0  0  0  0  0  0  0  0
    0.7675    2.9772   -0.3369 H   0  0  0  0  0  0  0  0  0  0  0  0
    1.9211    2.1265    0.7821 H   0  0  0  0  0  0  0  0  0  0  0  0
   -1.2293    1.2735   -0.6142 H   0  0  0  0  0  0  0  0  0  0  0  0
   -2.5772    2.1711    1.9210 H   0  0  0  0  0  0  0  0  0  0  0  0
   -1.6096    3.3488    0.8533 H   0  0  0  0  0  0  0  0  0  0  0  0
   -2.7769    2.3462   -1.0801 H   0  0  0  0  0  0  0  0  0  0  0  0
   -3.8975    3.2586   -0.0580 H   0  0  0  0  0  0  0  0  0  0  0  0
   -5.0379    1.4209    0.5761 H   0  0  0  0  0  0  0  0  0  0  0  0
   -4.3828    0.7493   -0.9134 H   0  0  0  0  0  0  0  0  0  0  0  0
   -3.8793    0.0660    1.9241 H   0  0  0  0  0  0  0  0  0  0  0  0
   -3.7197   -0.9696    0.5344 H   0  0  0  0  0  0  0  0  0  0  0  0
   -1.7493    0.1379    2.1663 H   0  0  0  0  0  0  0  0  0  0  0  0
   -0.4086   -1.4971    1.3125 H   0  0  0  0  0  0  0  0  0  0  0  0
   -2.1082   -2.0432    1.2149 H   0  0  0  0  0  0  0  0  0  0  0  0
   -0.3803   -1.2679   -1.2308 H   0  0  0  0  0  0  0  0  0  0  0  0
   -0.8128   -2.8384   -0.5857 H   0  0  0  0  0  0  0  0  0  0  0  0
   -2.8976   -0.8941   -1.6957 H   0  0  0  0  0  0  0  0  0  0  0  0
   -2.1032   -2.3548   -2.4591 H   0  0  0  0  0  0  0  0  0  0  0  0
   -3.0869   -2.6179   -1.0143 H   0  0  0  0  0  0  0  0  0  0  0  0
  1  4  1  0
  2  4  1  0
  4  6  1  0
  2  7  1  0
  3  8  1  0
  7  8  1  0
  5  9  1  0
  8  9  1  0
  5 10  1  0
 10 11  1  0
 11 12  1  0
 12 13  1  0
 13 14  1  0
 10 15  1  0
 14 15  1  0
 15 16  1  0
 16 17  1  0
 17 18  1  0
  1 19  1  0
  1 20  1  0
  1 21  1  0
  2 22  1  0
  3 23  1  0
  4 24  1  0
  6 25  1  0
  6 26  1  0
  6 27  1  0
  7 28  1  0
  7 29  1  0
  8 30  1  6
  9 31  1  0
  9 32  1  0
 10 33  1  0
 11 34  1  0
 11 35  1  0
 12 36  1  0
 12 37  1  0
 13 38  1  0
 13 39  1  0
 14 40  1  0
 14 41  1  0
 15 42  1  0
 16 43  1  0
 16 44  1  0
 17 45  1  0
 17 46  1  0
 18 47  1  0
 18 48  1  0
 18 49  1  0
M  END
>  <PDBID>  (1) 
3NYA

>  <PDB ID>  (1) 
3NYA

>  <Generic Name>  (1) 
Alprenolol

>  <Brand Name>  (1) 
Apllobal#Aptin#Aptine#Aptol Duriles#Atenenol#Elp#Gubernal#Regletin#Skajilol#Yobir

>  <DrugBank ID>  (1) 
DB00866

>  <ATC Codes>  (1) 
C07AA01

>  <Ligand ID>  (1) 
JTZ

>  <Target Name>  (1) 
Beta-1 adrenergic receptor

>  <UniProt ID>  (1) 
P08588

>  <PDB ID.1>  (1) 
3NYA

>  <Seq. Identity>  (1) 
67%

$$$$
