PDB_DB00311_08
     RDKit          3D

 36 37  0  0  0  0  0  0  0  0999 V2000
   -4.7988    0.4157   -0.4534 N   0  0  0  0  0  0  0  0  0  0  0  0
   -0.8088   -0.2386   -0.3384 C   0  0  2  0  0  0  0  0  0  0  0  0
   -0.0900   -1.2962    0.5113 C   0  0  1  0  0  0  0  0  0  0  0  0
    1.1214   -0.6964    1.1011 C   0  0  0  0  0  0  0  0  0  0  0  0
    1.9970   -0.0278    0.0879 C   0  0  0  0  0  0  0  0  0  0  0  0
    4.2582    0.1725    0.5222 C   0  0  0  0  0  0  0  0  0  0  0  0
   -4.7381   -0.0631    2.1772 O   0  0  0  0  0  0  0  0  0  0  0  0
   -2.9540    1.6126    1.1395 O   0  0  0  0  0  0  0  0  0  0  0  0
   -3.6658    0.3202    1.0055 S   0  0  0  0  0  0  0  0  0  0  0  0
   -2.7890   -1.0102    0.5870 C   0  0  0  0  0  0  0  0  0  0  0  0
   -2.0624   -0.8288   -0.6685 N   0  0  0  0  0  0  0  0  0  0  0  0
   -1.4546   -1.4780    1.7357 S   0  0  0  0  0  0  0  0  0  0  0  0
    1.4915   -0.0534   -1.3066 C   0  0  0  0  0  0  0  0  0  0  0  0
    0.0211    0.2048   -1.4564 C   0  0  0  0  0  0  0  0  0  0  0  0
    3.2400   -0.6617    0.0930 O   0  0  0  0  0  0  0  0  0  0  0  0
    4.4420    1.3940   -0.3139 C   0  0  0  0  0  0  0  0  0  0  0  0
   -4.1103    0.6593   -1.2059 H   0  0  0  0  0  0  0  0  0  0  0  0
   -5.0971   -0.5785   -0.5666 H   0  0  0  0  0  0  0  0  0  0  0  0
   -0.9926    0.6085    0.3694 H   0  0  0  0  0  0  0  0  0  0  0  0
    0.0236   -2.2427   -0.0056 H   0  0  0  0  0  0  0  0  0  0  0  0
    0.7939    0.0118    1.9185 H   0  0  0  0  0  0  0  0  0  0  0  0
    1.6767   -1.5018    1.6556 H   0  0  0  0  0  0  0  0  0  0  0  0
    2.1684    1.0253    0.4467 H   0  0  0  0  0  0  0  0  0  0  0  0
    4.0388    0.4580    1.5741 H   0  0  0  0  0  0  0  0  0  0  0  0
    5.1830   -0.4395    0.5589 H   0  0  0  0  0  0  0  0  0  0  0  0
   -5.6093   -0.4016    1.8452 H   0  0  0  0  0  0  0  0  0  0  0  0
   -2.8431    2.3300    0.4629 H   0  0  0  0  0  0  0  0  0  0  0  0
   -3.4184   -1.9293    0.4653 H   0  0  0  0  0  0  0  0  0  0  0  0
   -2.0055   -1.6957   -1.2134 H   0  0  0  0  0  0  0  0  0  0  0  0
    2.0195    0.7534   -1.8803 H   0  0  0  0  0  0  0  0  0  0  0  0
    1.7800   -1.0065   -1.8184 H   0  0  0  0  0  0  0  0  0  0  0  0
   -0.3061   -0.3137   -2.4005 H   0  0  0  0  0  0  0  0  0  0  0  0
   -0.1731    1.2974   -1.6500 H   0  0  0  0  0  0  0  0  0  0  0  0
    4.3198    1.2305   -1.3898 H   0  0  0  0  0  0  0  0  0  0  0  0
    3.8291    2.2439    0.0778 H   0  0  0  0  0  0  0  0  0  0  0  0
    5.5130    1.7257   -0.1765 H   0  0  0  0  0  0  0  0  0  0  0  0
  2  3  1  0
  3  4  1  0
  4  5  1  0
  1  9  1  0
  9  7  1  0
  8  9  1  0
  9 10  1  0
  2 11  1  0
 10 11  1  0
  3 12  1  0
 10 12  1  0
  5 13  1  0
  2 14  1  0
 13 14  1  0
  5 15  1  0
  6 15  1  0
  6 16  1  0
  1 17  1  0
  1 18  1  0
  2 19  1  1
  3 20  1  6
  4 21  1  0
  4 22  1  0
  5 23  1  0
  6 24  1  0
  6 25  1  0
  7 26  1  0
  8 27  1  0
 10 28  1  0
 11 29  1  0
 13 30  1  0
 13 31  1  0
 14 32  1  0
 14 33  1  0
 16 34  1  0
 16 35  1  0
 16 36  1  0
M  END
>  <PDBID>  (1) 
3DD0

>  <PDB ID>  (1) 
3DD0

>  <Generic Name>  (1) 
Ethoxzolamide

>  <Brand Name>  (1) 
Cardrase#Ethamide

>  <DrugBank ID>  (1) 
DB00311

>  <ATC Codes>  (1) 
nan

>  <Ligand ID>  (1) 
EZL

>  <Target Name>  (1) 
Carbonic anhydrase 1

>  <UniProt ID>  (1) 
P00915

>  <PDB ID.1>  (1) 
3DD0

>  <Seq. Identity>  (1) 
61%

$$$$
