PDB_DB05239_02
     RDKit          3D

 65 68  0  0  0  0  0  0  0  0999 V2000
   -0.2983   -1.1355    2.0403 O   0  0  0  0  0  0  0  0  0  0  0  0
   -0.2343   -0.3421    0.8625 C   0  0  0  0  0  0  0  0  0  0  0  0
   -0.8351   -1.1845   -0.2341 C   0  0  0  0  0  0  0  0  0  0  0  0
   -0.0765   -2.4696   -0.4398 C   0  0  0  0  0  0  0  0  0  0  0  0
   -0.3464   -3.5208    0.5875 C   0  0  0  0  0  0  0  0  0  0  0  0
   -1.8139   -3.6470    0.9228 C   0  0  2  0  0  0  0  0  0  0  0  0
   -2.2244   -4.9865    0.9203 F   0  0  0  0  0  0  0  0  0  0  0  0
   -2.5554   -2.9029   -0.1710 C   0  0  1  0  0  0  0  0  0  0  0  0
   -3.8886   -3.2295   -0.0325 F   0  0  0  0  0  0  0  0  0  0  0  0
   -2.3102   -1.4219    0.0546 C   0  0  2  0  0  0  0  0  0  0  0  0
   -3.1753   -0.6121   -0.7724 N   0  0  0  0  0  0  0  0  0  0  0  0
   -4.3842   -0.1655   -0.1355 C   0  0  0  0  0  0  0  0  0  0  0  0
   -4.2463    0.7492    1.0091 C   0  0  0  0  0  0  0  0  0  0  0  0
   -4.3866    2.2024    0.7343 C   0  0  0  0  0  0  0  0  0  0  0  0
   -4.6683    2.6557   -0.6320 C   0  0  1  0  0  0  0  0  0  0  0  0
   -2.8848    3.4862   -1.5303 I   0  0  0  0  0  0  0  0  0  0  0  0
   -5.4283    0.3061   -1.1050 C   0  0  0  0  0  0  0  0  0  0  0  0
   -5.5134   -0.5109   -2.2225 F   0  0  0  0  0  0  0  0  0  0  0  0
   -5.3231    1.7052   -1.5536 C   0  0  0  0  0  0  0  0  0  0  0  0
    1.0252    0.1247    0.7025 N   0  0  0  0  0  0  0  0  0  0  0  0
    1.6024    0.9665   -0.2191 C   0  0  0  0  0  0  0  0  0  0  0  0
    2.9678    0.3304    0.1643 C   0  0  0  0  0  0  0  0  0  0  0  0
    2.2065   -0.2774    1.3435 C   0  0  0  0  0  0  0  0  0  0  0  0
    3.3668   -0.6736   -0.6945 O   0  0  0  0  0  0  0  0  0  0  0  0
    3.9675    1.3801    0.4743 C   0  0  2  0  0  0  0  0  0  0  0  0
    4.3163    2.1121   -0.8057 C   0  0  0  0  0  0  0  0  0  0  0  0
    5.2273    1.2894   -1.6969 C   0  0  0  0  0  0  0  0  0  0  0  0
    6.4398    0.7738   -0.9618 C   0  0  0  0  0  0  0  0  0  0  0  0
    6.3738    1.3142    0.4537 C   0  0  0  0  0  0  0  0  0  0  0  0
    5.1475    0.8490    1.0814 N   0  0  0  0  0  0  0  0  0  0  0  0
    0.4430   -0.9141    2.6574 H   0  0  0  0  0  0  0  0  0  0  0  0
   -0.9568    0.4961    1.0732 H   0  0  0  0  0  0  0  0  0  0  0  0
   -0.8079   -0.6263   -1.1991 H   0  0  0  0  0  0  0  0  0  0  0  0
   -0.1897   -2.8280   -1.4920 H   0  0  0  0  0  0  0  0  0  0  0  0
    1.0162   -2.2043   -0.3482 H   0  0  0  0  0  0  0  0  0  0  0  0
   -0.0669   -4.5061    0.1111 H   0  0  0  0  0  0  0  0  0  0  0  0
    0.2871   -3.4348    1.4878 H   0  0  0  0  0  0  0  0  0  0  0  0
   -2.0549   -3.2416    1.9271 H   0  0  0  0  0  0  0  0  0  0  0  0
   -2.1581   -3.1868   -1.1437 H   0  0  0  0  0  0  0  0  0  0  0  0
   -2.5083   -1.2469    1.1362 H   0  0  0  0  0  0  0  0  0  0  0  0
   -2.6203    0.2469   -1.0090 H   0  0  0  0  0  0  0  0  0  0  0  0
   -4.8281   -1.1381    0.2759 H   0  0  0  0  0  0  0  0  0  0  0  0
   -3.2938    0.5312    1.5380 H   0  0  0  0  0  0  0  0  0  0  0  0
   -5.0245    0.4625    1.7882 H   0  0  0  0  0  0  0  0  0  0  0  0
   -5.1303    2.6469    1.4630 H   0  0  0  0  0  0  0  0  0  0  0  0
   -3.4282    2.7077    1.0654 H   0  0  0  0  0  0  0  0  0  0  0  0
   -5.3416    3.5670   -0.5711 H   0  0  0  0  0  0  0  0  0  0  0  0
   -6.4259    0.1828   -0.5840 H   0  0  0  0  0  0  0  0  0  0  0  0
   -6.3647    2.0373   -1.8501 H   0  0  0  0  0  0  0  0  0  0  0  0
   -4.7669    1.7259   -2.5361 H   0  0  0  0  0  0  0  0  0  0  0  0
    1.4937    0.8675   -1.2890 H   0  0  0  0  0  0  0  0  0  0  0  0
    1.5553    2.0361    0.0753 H   0  0  0  0  0  0  0  0  0  0  0  0
    2.4157    0.2983    2.2811 H   0  0  0  0  0  0  0  0  0  0  0  0
    2.4067   -1.3346    1.5359 H   0  0  0  0  0  0  0  0  0  0  0  0
    3.7115   -1.4628   -0.1771 H   0  0  0  0  0  0  0  0  0  0  0  0
    3.5083    2.1267    1.1544 H   0  0  0  0  0  0  0  0  0  0  0  0
    4.7891    3.0847   -0.5777 H   0  0  0  0  0  0  0  0  0  0  0  0
    3.4150    2.3297   -1.4162 H   0  0  0  0  0  0  0  0  0  0  0  0
    5.5754    1.9973   -2.5056 H   0  0  0  0  0  0  0  0  0  0  0  0
    4.6740    0.4853   -2.2331 H   0  0  0  0  0  0  0  0  0  0  0  0
    6.3964   -0.3211   -0.9477 H   0  0  0  0  0  0  0  0  0  0  0  0
    7.3656    1.1506   -1.4214 H   0  0  0  0  0  0  0  0  0  0  0  0
    7.2154    0.8449    1.0128 H   0  0  0  0  0  0  0  0  0  0  0  0
    6.4451    2.4165    0.4451 H   0  0  0  0  0  0  0  0  0  0  0  0
    5.2061    1.0382    2.1290 H   0  0  0  0  0  0  0  0  0  0  0  0
  1  2  1  0
  2  3  1  0
  3  4  1  0
  4  5  1  0
  5  6  1  0
  6  7  1  0
  6  8  1  0
  8  9  1  0
  3 10  1  0
  8 10  1  0
 10 11  1  0
 11 12  1  0
 12 13  1  0
 13 14  1  0
 14 15  1  0
 15 16  1  0
 12 17  1  0
 17 18  1  0
 15 19  1  0
 17 19  1  0
  2 20  1  0
 20 21  1  0
 21 22  1  0
 20 23  1  0
 22 23  1  0
 22 24  1  0
 22 25  1  0
 25 26  1  0
 26 27  1  0
 27 28  1  0
 28 29  1  0
 25 30  1  0
 29 30  1  0
  1 31  1  0
  2 32  1  0
  3 33  1  0
  4 34  1  0
  4 35  1  0
  5 36  1  0
  5 37  1  0
  6 38  1  1
  8 39  1  6
 10 40  1  1
 11 41  1  0
 12 42  1  0
 13 43  1  0
 13 44  1  0
 14 45  1  0
 14 46  1  0
 15 47  1  1
 17 48  1  0
 19 49  1  0
 19 50  1  0
 21 51  1  0
 21 52  1  0
 23 53  1  0
 23 54  1  0
 24 55  1  0
 25 56  1  1
 26 57  1  0
 26 58  1  0
 27 59  1  0
 27 60  1  0
 28 61  1  0
 28 62  1  0
 29 63  1  0
 29 64  1  0
 30 65  1  0
M  END
>  <PDBID>  (1) 
4LMN

>  <PDB ID>  (1) 
4LMN

>  <Generic Name>  (1) 
Cobimetinib

>  <Brand Name>  (1) 
Cotellic

>  <DrugBank ID>  (1) 
DB05239

>  <ATC Codes>  (1) 
nan

>  <Ligand ID>  (1) 
EUI

>  <Target Name>  (1) 
Dual specificity mitogen-activated protein kinase kinase 1

>  <UniProt ID>  (1) 
Q02750

>  <PDB ID.1>  (1) 
4LMN

>  <Seq. Identity>  (1) 
97%

$$$$
