PDB_DB00481_06
     RDKit          3D

166174  0  0  0  0  0  0  0  0999 V2000
   -1.9680    1.7155   -0.6714 C   0  0  0  0  0  0  0  0  0  0  0  0
   -2.8757    2.8789   -1.1192 C   0  0  0  0  0  0  0  0  0  0  0  0
   -2.3742    4.0664   -0.3282 C   0  0  0  0  0  0  0  0  0  0  0  0
   -2.8094    5.2549   -0.9043 O   0  0  0  0  0  0  0  0  0  0  0  0
   -2.8459    3.8975    1.0855 C   0  0  0  0  0  0  0  0  0  0  0  0
   -2.8851    2.4987    1.5342 C   0  0  0  0  0  0  0  0  0  0  0  0
   -4.4637    1.6745    1.2843 S   0  0  0  0  0  0  0  0  0  0  0  0
   -3.7962   -0.0647    1.2611 C   0  0  1  0  0  0  0  0  0  0  0  0
   -4.3556   -0.7743    0.0886 C   0  0  0  0  0  0  0  0  0  0  0  0
   -5.8954   -0.4129   -0.0011 C   0  0  0  0  0  0  0  0  0  0  0  0
   -6.4294   -1.0072   -1.2600 C   0  0  0  0  0  0  0  0  0  0  0  0
   -6.2746   -2.5080   -1.3197 C   0  0  0  0  0  0  0  0  0  0  0  0
   -7.0319   -3.1598   -0.3536 O   0  0  0  0  0  0  0  0  0  0  0  0
   -4.8241   -2.8667   -1.0863 C   0  0  0  0  0  0  0  0  0  0  0  0
   -4.4370   -2.2772    0.2640 C   0  0  0  0  0  0  0  0  0  0  0  0
   -1.9858    1.5321    0.7908 C   0  0  0  0  0  0  0  0  0  0  0  0
   -2.3165    0.1822    1.3262 C   0  0  0  0  0  0  0  0  0  0  0  0
   -1.4438   -0.9317    0.9140 C   0  0  0  0  0  0  0  0  0  0  0  0
   -1.6003   -1.3540   -0.4012 O   0  0  0  0  0  0  0  0  0  0  0  0
   -0.0019   -0.9342    1.3453 C   0  0  0  0  0  0  0  0  0  0  0  0
    0.8713    0.1709    0.9277 C   0  0  0  0  0  0  0  0  0  0  0  0
    2.3198   -0.3692    0.8240 C   0  0  0  0  0  0  0  0  0  0  0  0
    2.4289   -1.1710   -0.4219 C   0  0  0  0  0  0  0  0  0  0  0  0
    1.2307   -2.1043   -0.5140 C   0  0  0  0  0  0  0  0  0  0  0  0
    0.6394   -2.2557    0.8486 C   0  0  0  0  0  0  0  0  0  0  0  0
    3.5621   -1.9631   -0.3359 O   0  0  0  0  0  0  0  0  0  0  0  0
    4.4391   -1.6499   -1.3507 C   0  0  0  0  0  0  0  0  0  0  0  0
    4.9309   -0.2455   -1.2123 C   0  0  0  0  0  0  0  0  0  0  0  0
    5.6221   -0.0833    0.0578 N   0  0  0  0  0  0  0  0  0  0  0  0
    6.8324   -0.8445    0.0115 C   0  0  0  0  0  0  0  0  0  0  0  0
    7.8389   -0.1641    0.9284 C   0  0  0  0  0  0  0  0  0  0  0  0
    8.2875    1.0936    0.2525 C   0  0  0  0  0  0  0  0  0  0  0  0
    7.0879    1.8105   -0.2973 C   0  0  0  0  0  0  0  0  0  0  0  0
    5.7968    1.3211    0.2944 C   0  0  0  0  0  0  0  0  0  0  0  0
   -2.1751    1.7861   -1.5491 C   0  0  0  0  0  0  0  0  0  0  0  0
   -2.0162    3.2657   -1.6289 C   0  0  0  0  0  0  0  0  0  0  0  0
   -2.0235    3.9897   -0.3230 C   0  0  0  0  0  0  0  0  0  0  0  0
   -2.1538    5.3668   -0.6201 O   0  0  0  0  0  0  0  0  0  0  0  0
   -3.2232    3.6517    0.5494 C   0  0  0  0  0  0  0  0  0  0  0  0
   -3.6164    2.2526    0.2422 C   0  0  0  0  0  0  0  0  0  0  0  0
   -4.4218    1.3396    1.5290 S   0  0  0  0  0  0  0  0  0  0  0  0
   -3.7387   -0.2966    1.0355 C   0  0  1  0  0  0  0  0  0  0  0  0
   -4.7638   -1.0792    0.2617 C   0  0  0  0  0  0  0  0  0  0  0  0
   -6.0175   -1.2138    1.1116 C   0  0  0  0  0  0  0  0  0  0  0  0
   -6.9792   -2.2115    0.5736 C   0  0  0  0  0  0  0  0  0  0  0  0
   -6.3732   -3.4877    0.1028 C   0  0  0  0  0  0  0  0  0  0  0  0
   -5.9602   -4.3139    1.1356 O   0  0  0  0  0  0  0  0  0  0  0  0
   -5.1865   -3.2799   -0.8127 C   0  0  0  0  0  0  0  0  0  0  0  0
   -4.1835   -2.4427   -0.0475 C   0  0  0  0  0  0  0  0  0  0  0  0
   -2.3696    1.4545   -0.0507 C   0  0  0  0  0  0  0  0  0  0  0  0
   -2.4937    0.0420    0.2247 C   0  0  1  0  0  0  0  0  0  0  0  0
   -1.3897   -0.6491    0.9202 C   0  0  2  0  0  0  0  0  0  0  0  0
   -1.3518   -0.1237    2.2434 O   0  0  0  0  0  0  0  0  0  0  0  0
   -0.0114   -0.6595    0.4423 C   0  0  0  0  0  0  0  0  0  0  0  0
    0.7134    0.6549    0.3356 C   0  0  0  0  0  0  0  0  0  0  0  0
    2.2099    0.3805    0.2433 C   0  0  0  0  0  0  0  0  0  0  0  0
    2.4671   -0.3975   -1.0151 C   0  0  0  0  0  0  0  0  0  0  0  0
    1.1899   -0.8394   -1.6875 C   0  0  0  0  0  0  0  0  0  0  0  0
    0.2432   -1.5271   -0.7672 C   0  0  0  0  0  0  0  0  0  0  0  0
    3.3139   -1.4336   -0.7255 O   0  0  0  0  0  0  0  0  0  0  0  0
    4.5542   -1.3831   -1.3373 C   0  0  0  0  0  0  0  0  0  0  0  0
    5.3638   -0.1756   -0.9773 C   0  0  0  0  0  0  0  0  0  0  0  0
    5.6253   -0.0970    0.4541 N   0  0  0  0  0  0  0  0  0  0  0  0
    6.4993   -1.1234    0.9347 C   0  0  0  0  0  0  0  0  0  0  0  0
    7.8193   -0.5461    1.4445 C   0  0  0  0  0  0  0  0  0  0  0  0
    8.4082    0.3963    0.4154 C   0  0  0  0  0  0  0  0  0  0  0  0
    7.4257    1.4947    0.0949 C   0  0  0  0  0  0  0  0  0  0  0  0
    6.1071    1.2271    0.7810 C   0  0  0  0  0  0  0  0  0  0  0  0
   -0.9457    2.0877   -1.0097 H   0  0  0  0  0  0  0  0  0  0  0  0
   -2.2053    0.8761   -1.3093 H   0  0  0  0  0  0  0  0  0  0  0  0
   -3.9365    2.6612   -0.9890 H   0  0  0  0  0  0  0  0  0  0  0  0
   -2.6377    3.1093   -2.1980 H   0  0  0  0  0  0  0  0  0  0  0  0
   -1.2540    4.0244   -0.3952 H   0  0  0  0  0  0  0  0  0  0  0  0
   -3.6397    5.5171   -0.4359 H   0  0  0  0  0  0  0  0  0  0  0  0
   -2.1024    4.4498    1.7327 H   0  0  0  0  0  0  0  0  0  0  0  0
   -3.8267    4.4270    1.1708 H   0  0  0  0  0  0  0  0  0  0  0  0
   -2.5703    2.4152    2.6150 H   0  0  0  0  0  0  0  0  0  0  0  0
   -4.1859   -0.5089    2.1925 H   0  0  0  0  0  0  0  0  0  0  0  0
   -3.9778   -0.5678   -0.8921 H   0  0  0  0  0  0  0  0  0  0  0  0
   -6.3345   -0.9068    0.8646 H   0  0  0  0  0  0  0  0  0  0  0  0
   -6.0026    0.6772   -0.0414 H   0  0  0  0  0  0  0  0  0  0  0  0
   -5.9965   -0.5790   -2.1741 H   0  0  0  0  0  0  0  0  0  0  0  0
   -7.5242   -0.8077   -1.2775 H   0  0  0  0  0  0  0  0  0  0  0  0
   -6.5689   -2.8544   -2.3128 H   0  0  0  0  0  0  0  0  0  0  0  0
   -7.7262   -3.7287   -0.7299 H   0  0  0  0  0  0  0  0  0  0  0  0
   -4.2111   -2.3512   -1.8785 H   0  0  0  0  0  0  0  0  0  0  0  0
   -4.6547   -3.9453   -1.0456 H   0  0  0  0  0  0  0  0  0  0  0  0
   -3.6151   -2.7797    0.7234 H   0  0  0  0  0  0  0  0  0  0  0  0
   -5.3557   -2.4620    0.9113 H   0  0  0  0  0  0  0  0  0  0  0  0
   -0.9603    1.8040    1.1835 H   0  0  0  0  0  0  0  0  0  0  0  0
   -2.1136    0.2942    2.4566 H   0  0  0  0  0  0  0  0  0  0  0  0
   -1.8345   -1.8505    1.5185 H   0  0  0  0  0  0  0  0  0  0  0  0
   -1.6525   -2.3136   -0.5288 H   0  0  0  0  0  0  0  0  0  0  0  0
    0.0693   -1.0119    2.4676 H   0  0  0  0  0  0  0  0  0  0  0  0
    0.9931    0.9730    1.7093 H   0  0  0  0  0  0  0  0  0  0  0  0
    0.6830    0.6417   -0.0372 H   0  0  0  0  0  0  0  0  0  0  0  0
    2.4987   -0.9586    1.7240 H   0  0  0  0  0  0  0  0  0  0  0  0
    3.0213    0.4962    0.8572 H   0  0  0  0  0  0  0  0  0  0  0  0
    2.4567   -0.4802   -1.2962 H   0  0  0  0  0  0  0  0  0  0  0  0
    0.5210   -1.7697   -1.2967 H   0  0  0  0  0  0  0  0  0  0  0  0
    1.5991   -3.0905   -0.8294 H   0  0  0  0  0  0  0  0  0  0  0  0
    1.4085   -2.6070    1.5474 H   0  0  0  0  0  0  0  0  0  0  0  0
   -0.1942   -3.0165    0.7451 H   0  0  0  0  0  0  0  0  0  0  0  0
    5.2856   -2.3816   -1.4135 H   0  0  0  0  0  0  0  0  0  0  0  0
    3.8790   -1.7339   -2.3315 H   0  0  0  0  0  0  0  0  0  0  0  0
    5.6128   -0.0398   -2.0698 H   0  0  0  0  0  0  0  0  0  0  0  0
    4.1432    0.5092   -1.2648 H   0  0  0  0  0  0  0  0  0  0  0  0
    7.1878   -0.8231   -1.0568 H   0  0  0  0  0  0  0  0  0  0  0  0
    6.7124   -1.8873    0.3798 H   0  0  0  0  0  0  0  0  0  0  0  0
    7.3296   -0.0104    1.8924 H   0  0  0  0  0  0  0  0  0  0  0  0
    8.6733   -0.8964    1.0512 H   0  0  0  0  0  0  0  0  0  0  0  0
    8.9520    0.7903   -0.5932 H   0  0  0  0  0  0  0  0  0  0  0  0
    8.8475    1.7019    0.9979 H   0  0  0  0  0  0  0  0  0  0  0  0
    6.9887    1.6898   -1.4138 H   0  0  0  0  0  0  0  0  0  0  0  0
    7.1754    2.9093   -0.1444 H   0  0  0  0  0  0  0  0  0  0  0  0
    5.7409    1.4839    1.3907 H   0  0  0  0  0  0  0  0  0  0  0  0
    4.9749    1.8686   -0.2387 H   0  0  0  0  0  0  0  0  0  0  0  0
   -3.1747    1.5346   -2.0138 H   0  0  0  0  0  0  0  0  0  0  0  0
   -1.4492    1.1731   -2.0466 H   0  0  0  0  0  0  0  0  0  0  0  0
   -2.8139    3.7451   -2.2686 H   0  0  0  0  0  0  0  0  0  0  0  0
   -1.0545    3.4918   -2.1270 H   0  0  0  0  0  0  0  0  0  0  0  0
   -1.0652    3.9060    0.2400 H   0  0  0  0  0  0  0  0  0  0  0  0
   -2.4026    5.7945    0.2407 H   0  0  0  0  0  0  0  0  0  0  0  0
   -2.8991    3.7039    1.6111 H   0  0  0  0  0  0  0  0  0  0  0  0
   -4.0687    4.3707    0.3461 H   0  0  0  0  0  0  0  0  0  0  0  0
   -4.3229    2.2952   -0.6367 H   0  0  0  0  0  0  0  0  0  0  0  0
   -3.5154   -0.8000    1.9961 H   0  0  0  0  0  0  0  0  0  0  0  0
   -5.0335   -0.5604   -0.6584 H   0  0  0  0  0  0  0  0  0  0  0  0
   -5.7245   -1.3906    2.1615 H   0  0  0  0  0  0  0  0  0  0  0  0
   -6.5144   -0.2105    1.0871 H   0  0  0  0  0  0  0  0  0  0  0  0
   -7.6387   -1.7988   -0.2167 H   0  0  0  0  0  0  0  0  0  0  0  0
   -7.6835   -2.4798    1.4159 H   0  0  0  0  0  0  0  0  0  0  0  0
   -7.1461   -4.0215   -0.5058 H   0  0  0  0  0  0  0  0  0  0  0  0
   -6.4560   -4.0981    1.9664 H   0  0  0  0  0  0  0  0  0  0  0  0
   -5.4606   -2.7572   -1.7535 H   0  0  0  0  0  0  0  0  0  0  0  0
   -4.7186   -4.2642   -0.9909 H   0  0  0  0  0  0  0  0  0  0  0  0
   -3.2378   -2.3267   -0.5571 H   0  0  0  0  0  0  0  0  0  0  0  0
   -3.9915   -2.9713    0.9116 H   0  0  0  0  0  0  0  0  0  0  0  0
   -1.5493    1.9373    0.4647 H   0  0  0  0  0  0  0  0  0  0  0  0
   -2.7169   -0.4376   -0.7933 H   0  0  0  0  0  0  0  0  0  0  0  0
   -1.6566   -1.7432    1.1393 H   0  0  0  0  0  0  0  0  0  0  0  0
   -1.5838    0.8295    2.1520 H   0  0  0  0  0  0  0  0  0  0  0  0
    0.5791   -1.1826    1.2693 H   0  0  0  0  0  0  0  0  0  0  0  0
    0.4374    1.1507   -0.5969 H   0  0  0  0  0  0  0  0  0  0  0  0
    0.5051    1.2647    1.2526 H   0  0  0  0  0  0  0  0  0  0  0  0
    2.5061   -0.1334    1.1574 H   0  0  0  0  0  0  0  0  0  0  0  0
    2.7052    1.3822    0.2374 H   0  0  0  0  0  0  0  0  0  0  0  0
    2.9753    0.2914   -1.7192 H   0  0  0  0  0  0  0  0  0  0  0  0
    0.7821    0.0213   -2.2431 H   0  0  0  0  0  0  0  0  0  0  0  0
    1.4955   -1.5751   -2.4670 H   0  0  0  0  0  0  0  0  0  0  0  0
    0.6742   -2.5120   -0.4996 H   0  0  0  0  0  0  0  0  0  0  0  0
   -0.6761   -1.7516   -1.3387 H   0  0  0  0  0  0  0  0  0  0  0  0
    5.0865   -2.3232   -1.1383 H   0  0  0  0  0  0  0  0  0  0  0  0
    4.3507   -1.3036   -2.4452 H   0  0  0  0  0  0  0  0  0  0  0  0
    6.3829   -0.2016   -1.4612 H   0  0  0  0  0  0  0  0  0  0  0  0
    4.9025    0.7466   -1.3270 H   0  0  0  0  0  0  0  0  0  0  0  0
    6.7507   -1.8921    0.1763 H   0  0  0  0  0  0  0  0  0  0  0  0
    6.0180   -1.5820    1.8471 H   0  0  0  0  0  0  0  0  0  0  0  0
    7.6707   -0.0107    2.3965 H   0  0  0  0  0  0  0  0  0  0  0  0
    8.5041   -1.3987    1.5841 H   0  0  0  0  0  0  0  0  0  0  0  0
    8.6625   -0.1693   -0.5118 H   0  0  0  0  0  0  0  0  0  0  0  0
    9.3188    0.8633    0.8298 H   0  0  0  0  0  0  0  0  0  0  0  0
    7.3160    1.5540   -0.9989 H   0  0  0  0  0  0  0  0  0  0  0  0
    7.7992    2.4830    0.4556 H   0  0  0  0  0  0  0  0  0  0  0  0
    6.2498    1.3493    1.8604 H   0  0  0  0  0  0  0  0  0  0  0  0
    5.3899    1.9853    0.3723 H   0  0  0  0  0  0  0  0  0  0  0  0
  1  2  1  0
  2  3  1  0
  3  4  1  0
  3  5  1  0
  5  6  1  0
  6  7  1  0
  7  8  1  0
  8  9  1  0
  9 10  1  0
 10 11  1  0
 11 12  1  0
 12 13  1  0
 12 14  1  0
  9 15  1  0
 14 15  1  0
  1 16  1  0
  6 16  1  0
  8 17  1  0
 16 17  1  0
 17 18  1  0
 18 19  1  0
 18 20  1  0
 20 21  1  0
 21 22  1  0
 22 23  1  0
 23 24  1  0
 20 25  1  0
 24 25  1  0
 23 26  1  0
 26 27  1  0
 27 28  1  0
 28 29  1  0
 29 30  1  0
 30 31  1  0
 31 32  1  0
 32 33  1  0
 29 34  1  0
 33 34  1  0
 35 36  1  0
 36 37  1  0
 37 38  1  0
 37 39  1  0
 39 40  1  0
 40 41  1  0
 41 42  1  0
 42 43  1  0
 43 44  1  0
 44 45  1  0
 45 46  1  0
 46 47  1  0
 46 48  1  0
 43 49  1  0
 48 49  1  0
 35 50  1  0
 40 50  1  0
 42 51  1  0
 50 51  1  0
 51 52  1  0
 52 53  1  0
 52 54  1  0
 54 55  1  0
 55 56  1  0
 56 57  1  0
 57 58  1  0
 54 59  1  0
 58 59  1  0
 57 60  1  0
 60 61  1  0
 61 62  1  0
 62 63  1  0
 63 64  1  0
 64 65  1  0
 65 66  1  0
 66 67  1  0
 63 68  1  0
 67 68  1  0
  1 69  1  0
  1 70  1  0
  2 71  1  0
  2 72  1  0
  3 73  1  0
  4 74  1  0
  5 75  1  0
  5 76  1  0
  6 77  1  0
  8 78  1  1
  9 79  1  0
 10 80  1  0
 10 81  1  0
 11 82  1  0
 11 83  1  0
 12 84  1  0
 13 85  1  0
 14 86  1  0
 14 87  1  0
 15 88  1  0
 15 89  1  0
 16 90  1  0
 17 91  1  0
 18 92  1  0
 19 93  1  0
 20 94  1  0
 21 95  1  0
 21 96  1  0
 22 97  1  0
 22 98  1  0
 23 99  1  0
 24100  1  0
 24101  1  0
 25102  1  0
 25103  1  0
 27104  1  0
 27105  1  0
 28106  1  0
 28107  1  0
 30108  1  0
 30109  1  0
 31110  1  0
 31111  1  0
 32112  1  0
 32113  1  0
 33114  1  0
 33115  1  0
 34116  1  0
 34117  1  0
 35118  1  0
 35119  1  0
 36120  1  0
 36121  1  0
 37122  1  0
 38123  1  0
 39124  1  0
 39125  1  0
 40126  1  0
 42127  1  1
 43128  1  0
 44129  1  0
 44130  1  0
 45131  1  0
 45132  1  0
 46133  1  0
 47134  1  0
 48135  1  0
 48136  1  0
 49137  1  0
 49138  1  0
 50139  1  0
 51140  1  6
 52141  1  1
 53142  1  0
 54143  1  0
 55144  1  0
 55145  1  0
 56146  1  0
 56147  1  0
 57148  1  0
 58149  1  0
 58150  1  0
 59151  1  0
 59152  1  0
 61153  1  0
 61154  1  0
 62155  1  0
 62156  1  0
 64157  1  0
 64158  1  0
 65159  1  0
 65160  1  0
 66161  1  0
 66162  1  0
 67163  1  0
 67164  1  0
 68165  1  0
 68166  1  0
M  END
>  <PDBID>  (1) 
2QXS

>  <PDB ID>  (1) 
2QXS

>  <Generic Name>  (1) 
Raloxifene

>  <Brand Name>  (1) 
Act Raloxifene#Apo-raloxifene#Evista#Evista (60mg)#PMS-raloxifene#Raloxifene#Raloxifene Hydrochloride#Teva-raloxifene#Keoxifene

>  <DrugBank ID>  (1) 
DB00481

>  <ATC Codes>  (1) 
G03XC01

>  <Ligand ID>  (1) 
RAL

>  <Target Name>  (1) 
Estrogen receptor

>  <UniProt ID>  (1) 
P03372

>  <PDB ID.1>  (1) 
2QXS

>  <Seq. Identity>  (1) 
93%

$$$$
