PDB_DB05990_00
     RDKit          3D

 76 79  0  0  0  0  0  0  0  0999 V2000
   -3.5508    1.4667   -1.2156 C   0  0  0  0  0  0  0  0  0  0  0  0
   -4.9313    2.0304   -0.8548 C   0  0  0  0  0  0  0  0  0  0  0  0
   -5.6538    0.8170   -0.3009 C   0  0  1  0  0  0  0  0  0  0  0  0
   -5.6533   -0.1161   -1.3179 O   0  0  0  0  0  0  0  0  0  0  0  0
   -5.0249    0.4242    0.9752 C   0  0  0  0  0  0  0  0  0  0  0  0
   -3.5433    0.2838    1.0072 C   0  0  1  0  0  0  0  0  0  0  0  0
   -3.0994   -1.1536    1.0946 C   0  0  2  0  0  0  0  0  0  0  0  0
   -1.6345   -1.3440    1.0827 C   0  0  1  0  0  0  0  0  0  0  0  0
   -1.1354   -2.2529    0.1720 O   0  0  0  0  0  0  0  0  0  0  0  0
   -0.8447   -0.0476    0.8523 C   0  0  2  0  0  0  0  0  0  0  0  0
   -1.4526    0.6121   -0.3609 C   0  0  1  0  0  0  0  0  0  0  0  0
   -2.7993    1.1559    0.0559 C   0  0  1  0  0  0  0  0  0  0  0  0
   -0.5832    1.6949   -0.9123 C   0  0  0  0  0  0  0  0  0  0  0  0
    0.7815    1.0963   -1.2993 C   0  0  0  0  0  0  0  0  0  0  0  0
    1.4350    0.6537   -0.0228 C   0  0  1  0  0  0  0  0  0  0  0  0
    0.5427   -0.4323    0.5460 C   0  0  1  0  0  0  0  0  0  0  0  0
    1.3844   -0.7406    1.7802 C   0  0  0  0  0  0  0  0  0  0  0  0
    2.7252   -1.0061    1.0584 C   0  0  0  0  0  0  0  0  0  0  0  0
    2.7265   -0.0949   -0.1755 C   0  0  2  0  0  0  0  0  0  0  0  0
    1.4987    1.8199    0.9139 C   0  0  0  0  0  0  0  0  0  0  0  0
   -2.5175    2.5416    0.6674 C   0  0  0  0  0  0  0  0  0  0  0  0
    3.9486    0.7429   -0.2229 C   0  0  2  0  0  0  0  0  0  0  0  0
    3.8040    1.7295   -1.4112 C   0  0  0  0  0  0  0  0  0  0  0  0
    5.1737   -0.0477   -0.5743 C   0  0  0  0  0  0  0  0  0  0  0  0
    5.6052   -1.1531    0.2937 C   0  0  0  0  0  0  0  0  0  0  0  0
    6.9320   -1.7387   -0.3007 C   0  0  0  0  0  0  0  0  0  0  0  0
   -3.2225   -3.4757    0.3542 C   0  0  0  0  0  0  0  0  0  0  0  0
   -3.7753   -2.0832    0.1271 C   0  0  0  0  0  0  0  0  0  0  0  0
    6.6559   -2.1892   -1.5870 O   0  0  0  0  0  0  0  0  0  0  0  0
    7.3656   -2.7456    0.5246 O   0  0  0  0  0  0  0  0  0  0  0  0
   -3.6188    0.6353   -1.9127 H   0  0  0  0  0  0  0  0  0  0  0  0
   -3.0290    2.3168   -1.7207 H   0  0  0  0  0  0  0  0  0  0  0  0
   -4.8252    2.8471   -0.1489 H   0  0  0  0  0  0  0  0  0  0  0  0
   -5.3816    2.3242   -1.8257 H   0  0  0  0  0  0  0  0  0  0  0  0
   -6.6927    1.1502   -0.0948 H   0  0  0  0  0  0  0  0  0  0  0  0
   -6.4981   -0.2340   -1.7790 H   0  0  0  0  0  0  0  0  0  0  0  0
   -5.4522   -0.5406    1.3828 H   0  0  0  0  0  0  0  0  0  0  0  0
   -5.4006    1.1768    1.7406 H   0  0  0  0  0  0  0  0  0  0  0  0
   -3.2385    0.6949    2.0299 H   0  0  0  0  0  0  0  0  0  0  0  0
   -3.4710   -1.5229    2.1038 H   0  0  0  0  0  0  0  0  0  0  0  0
   -1.2382   -1.6999    2.0841 H   0  0  0  0  0  0  0  0  0  0  0  0
   -1.1748   -2.0165   -0.7615 H   0  0  0  0  0  0  0  0  0  0  0  0
   -0.9588    0.5407    1.7561 H   0  0  0  0  0  0  0  0  0  0  0  0
   -1.6468   -0.0970   -1.1769 H   0  0  0  0  0  0  0  0  0  0  0  0
   -0.4118    2.5458   -0.2584 H   0  0  0  0  0  0  0  0  0  0  0  0
   -1.0270    1.9920   -1.9036 H   0  0  0  0  0  0  0  0  0  0  0  0
    0.5587    0.2692   -1.9875 H   0  0  0  0  0  0  0  0  0  0  0  0
    1.3007    1.9499   -1.7601 H   0  0  0  0  0  0  0  0  0  0  0  0
    0.6259   -1.3395   -0.0968 H   0  0  0  0  0  0  0  0  0  0  0  0
    1.0421   -1.6157    2.3288 H   0  0  0  0  0  0  0  0  0  0  0  0
    1.5256    0.1737    2.3826 H   0  0  0  0  0  0  0  0  0  0  0  0
    2.7362   -2.0830    0.7851 H   0  0  0  0  0  0  0  0  0  0  0  0
    3.5594   -0.8091    1.7405 H   0  0  0  0  0  0  0  0  0  0  0  0
    2.6766   -0.7183   -1.0667 H   0  0  0  0  0  0  0  0  0  0  0  0
    1.4955    2.7999    0.3786 H   0  0  0  0  0  0  0  0  0  0  0  0
    2.3799    1.8224    1.5851 H   0  0  0  0  0  0  0  0  0  0  0  0
    0.6161    1.8215    1.5790 H   0  0  0  0  0  0  0  0  0  0  0  0
   -3.4178    2.7607    1.3141 H   0  0  0  0  0  0  0  0  0  0  0  0
   -2.3453    3.3004   -0.0995 H   0  0  0  0  0  0  0  0  0  0  0  0
   -1.6612    2.5214    1.3477 H   0  0  0  0  0  0  0  0  0  0  0  0
    4.1201    1.3860    0.6651 H   0  0  0  0  0  0  0  0  0  0  0  0
    3.3661    2.6774   -1.1085 H   0  0  0  0  0  0  0  0  0  0  0  0
    3.4085    1.2359   -2.3073 H   0  0  0  0  0  0  0  0  0  0  0  0
    4.8645    2.0247   -1.7328 H   0  0  0  0  0  0  0  0  0  0  0  0
    6.0747    0.6539   -0.6755 H   0  0  0  0  0  0  0  0  0  0  0  0
    5.0993   -0.4265   -1.6521 H   0  0  0  0  0  0  0  0  0  0  0  0
    4.8852   -2.0079    0.2262 H   0  0  0  0  0  0  0  0  0  0  0  0
    5.8695   -0.8858    1.3138 H   0  0  0  0  0  0  0  0  0  0  0  0
    7.6281   -0.8749   -0.3141 H   0  0  0  0  0  0  0  0  0  0  0  0
   -2.6592   -3.8739   -0.5115 H   0  0  0  0  0  0  0  0  0  0  0  0
   -4.0508   -4.2380    0.4859 H   0  0  0  0  0  0  0  0  0  0  0  0
   -2.6685   -3.5601    1.3255 H   0  0  0  0  0  0  0  0  0  0  0  0
   -3.5329   -1.8132   -0.9207 H   0  0  0  0  0  0  0  0  0  0  0  0
   -4.8734   -2.1657    0.3138 H   0  0  0  0  0  0  0  0  0  0  0  0
    6.6130   -3.1728   -1.6274 H   0  0  0  0  0  0  0  0  0  0  0  0
    7.6715   -2.3731    1.3735 H   0  0  0  0  0  0  0  0  0  0  0  0
  1  2  1  0
  2  3  1  0
  3  4  1  0
  3  5  1  0
  5  6  1  0
  6  7  1  0
  7  8  1  0
  8  9  1  0
  8 10  1  0
 10 11  1  0
  1 12  1  0
  6 12  1  0
 11 12  1  0
 11 13  1  0
 13 14  1  0
 14 15  1  0
 10 16  1  0
 15 16  1  0
 16 17  1  0
 17 18  1  0
 15 19  1  0
 18 19  1  0
 15 20  1  1
 12 21  1  1
 19 22  1  0
 22 23  1  0
 22 24  1  0
 24 25  1  0
 25 26  1  0
  7 28  1  0
 27 28  1  0
 26 29  1  0
 26 30  1  0
  1 31  1  0
  1 32  1  0
  2 33  1  0
  2 34  1  0
  3 35  1  1
  4 36  1  0
  5 37  1  0
  5 38  1  0
  6 39  1  1
  7 40  1  1
  8 41  1  1
  9 42  1  0
 10 43  1  1
 11 44  1  6
 13 45  1  0
 13 46  1  0
 14 47  1  0
 14 48  1  0
 16 49  1  6
 17 50  1  0
 17 51  1  0
 18 52  1  0
 18 53  1  0
 19 54  1  6
 20 55  1  0
 20 56  1  0
 20 57  1  0
 21 58  1  0
 21 59  1  0
 21 60  1  0
 22 61  1  1
 23 62  1  0
 23 63  1  0
 23 64  1  0
 24 65  1  0
 24 66  1  0
 25 67  1  0
 25 68  1  0
 26 69  1  0
 27 70  1  0
 27 71  1  0
 27 72  1  0
 28 73  1  0
 28 74  1  0
 29 75  1  0
 30 76  1  0
M  END
>  <PDBID>  (1) 
1OT7

>  <PDB ID>  (1) 
1OT7

>  <Generic Name>  (1) 
Obeticholic acid

>  <Brand Name>  (1) 
Ocaliva

>  <DrugBank ID>  (1) 
DB05990

>  <ATC Codes>  (1) 
A05AA04

>  <Ligand ID>  (1) 
CHC

>  <Target Name>  (1) 
Bile acid receptor

>  <UniProt ID>  (1) 
Q96RI1

>  <PDB ID.1>  (1) 
1OT7

>  <Seq. Identity>  (1) 
95%

$$$$
