PDB_DB00148_05
     RDKit          3D

 22 21  0  0  0  0  0  0  0  0999 V2000
    3.2677    0.3597    0.0543 O   0  0  0  0  0  0  0  0  0  0  0  0
    1.9459    0.6612   -0.3816 C   0  0  0  0  0  0  0  0  0  0  0  0
    1.5941    1.7757    0.3303 O   0  0  0  0  0  0  0  0  0  0  0  0
    1.1510   -0.5668   -0.1756 C   0  0  0  0  0  0  0  0  0  0  0  0
   -0.2157   -0.5620   -0.5491 N   0  0  0  0  0  0  0  0  0  0  0  0
   -0.7027   -1.9372   -0.2973 C   0  0  0  0  0  0  0  0  0  0  0  0
   -1.1155    0.2816    0.1557 C   0  0  0  0  0  0  0  0  0  0  0  0
   -2.4558   -0.0282   -0.3916 N   0  0  0  0  0  0  0  0  0  0  0  0
   -0.9583    1.6907   -0.0645 N   0  0  0  0  0  0  0  0  0  0  0  0
    3.1209   -0.1633    0.9029 H   0  0  0  0  0  0  0  0  0  0  0  0
    2.0452    0.8708   -1.4651 H   0  0  0  0  0  0  0  0  0  0  0  0
    1.7379    2.5922   -0.2468 H   0  0  0  0  0  0  0  0  0  0  0  0
    1.6326   -1.3724   -0.8151 H   0  0  0  0  0  0  0  0  0  0  0  0
    1.3141   -0.9841    0.8692 H   0  0  0  0  0  0  0  0  0  0  0  0
   -1.7143   -2.0855   -0.7153 H   0  0  0  0  0  0  0  0  0  0  0  0
   -0.7076   -2.0898    0.8007 H   0  0  0  0  0  0  0  0  0  0  0  0
   -0.0434   -2.6761   -0.7819 H   0  0  0  0  0  0  0  0  0  0  0  0
   -1.0939   -0.0101    1.2430 H   0  0  0  0  0  0  0  0  0  0  0  0
   -3.0450    0.8306   -0.4389 H   0  0  0  0  0  0  0  0  0  0  0  0
   -2.9587   -0.7004    0.2294 H   0  0  0  0  0  0  0  0  0  0  0  0
   -1.4890    2.2167    0.6658 H   0  0  0  0  0  0  0  0  0  0  0  0
   -1.3092    1.8967   -1.0293 H   0  0  0  0  0  0  0  0  0  0  0  0
  1  2  1  0
  2  3  1  0
  2  4  1  0
  4  5  1  0
  5  6  1  0
  5  7  1  0
  7  8  1  0
  7  9  1  0
  1 10  1  0
  2 11  1  0
  3 12  1  0
  4 13  1  0
  4 14  1  0
  6 15  1  0
  6 16  1  0
  6 17  1  0
  7 18  1  0
  8 19  1  0
  8 20  1  0
  9 21  1  0
  9 22  1  0
M  END
>  <PDBID>  (1) 
3B6R

>  <PDB ID>  (1) 
3B6R

>  <Generic Name>  (1) 
Creatine

>  <Brand Name>  (1) 
nan

>  <DrugBank ID>  (1) 
DB00148

>  <ATC Codes>  (1) 
nan

>  <Ligand ID>  (1) 
CRN

>  <Target Name>  (1) 
Creatine kinase B-type

>  <UniProt ID>  (1) 
P12277

>  <PDB ID.1>  (1) 
3B6R

>  <Seq. Identity>  (1) 
96%

$$$$
