PDB_DB01104_04
     RDKit          3D

 49 51  0  0  0  0  0  0  0  0999 V2000
    4.6960   -0.6684    2.0424 Cl  0  0  0  0  0  0  0  0  0  0  0  0
    4.4225   -0.0210    0.4068 C   0  0  0  0  0  0  0  0  0  0  0  0
    3.7876    1.3372    0.4407 C   0  0  0  0  0  0  0  0  0  0  0  0
    4.5847    2.5089   -0.6384 Cl  0  0  0  0  0  0  0  0  0  0  0  0
    3.4847   -0.9723   -0.3048 C   0  0  0  0  0  0  0  0  0  0  0  0
    2.8568   -0.2074   -1.4450 C   0  0  0  0  0  0  0  0  0  0  0  0
    1.7507    0.6675   -0.9046 C   0  0  0  0  0  0  0  0  0  0  0  0
    2.3020    1.3489    0.3320 C   0  0  0  0  0  0  0  0  0  0  0  0
    0.5028   -0.0725   -0.5591 C   0  0  1  0  0  0  0  0  0  0  0  0
   -0.6093    0.7531   -0.0275 C   0  0  0  0  0  0  0  0  0  0  0  0
   -0.8719    2.0581   -0.6811 C   0  0  0  0  0  0  0  0  0  0  0  0
   -1.8029    2.8312    0.2354 C   0  0  0  0  0  0  0  0  0  0  0  0
   -3.0296    2.1238    0.6303 C   0  0  0  0  0  0  0  0  0  0  0  0
   -3.0615    0.6578    0.5138 C   0  0  0  0  0  0  0  0  0  0  0  0
   -1.9411    0.0043   -0.1989 C   0  0  0  0  0  0  0  0  0  0  0  0
   -1.7495   -1.4384    0.1398 C   0  0  1  0  0  0  0  0  0  0  0  0
   -3.0774   -2.0606    0.1418 N   0  0  0  0  0  0  0  0  0  0  0  0
   -3.0282   -3.4564    0.4544 C   0  0  0  0  0  0  0  0  0  0  0  0
   -0.9389   -2.0518   -0.9775 C   0  0  0  0  0  0  0  0  0  0  0  0
    0.0046   -1.0223   -1.6236 C   0  0  0  0  0  0  0  0  0  0  0  0
    5.4205    0.0004   -0.0922 H   0  0  0  0  0  0  0  0  0  0  0  0
    4.0040    1.7317    1.4825 H   0  0  0  0  0  0  0  0  0  0  0  0
    2.7519   -1.3221    0.4454 H   0  0  0  0  0  0  0  0  0  0  0  0
    4.0356   -1.8383   -0.7448 H   0  0  0  0  0  0  0  0  0  0  0  0
    3.6814    0.4659   -1.8363 H   0  0  0  0  0  0  0  0  0  0  0  0
    2.5970   -0.8125   -2.3102 H   0  0  0  0  0  0  0  0  0  0  0  0
    1.6095    1.4702   -1.6528 H   0  0  0  0  0  0  0  0  0  0  0  0
    1.9916    2.4256    0.3716 H   0  0  0  0  0  0  0  0  0  0  0  0
    1.8934    0.8684    1.2478 H   0  0  0  0  0  0  0  0  0  0  0  0
    0.7943   -0.7762    0.2842 H   0  0  0  0  0  0  0  0  0  0  0  0
   -0.5155    0.9089    1.0743 H   0  0  0  0  0  0  0  0  0  0  0  0
   -0.0330    2.7077   -0.8722 H   0  0  0  0  0  0  0  0  0  0  0  0
   -1.4139    1.8833   -1.6549 H   0  0  0  0  0  0  0  0  0  0  0  0
   -1.1769    3.0574    1.1500 H   0  0  0  0  0  0  0  0  0  0  0  0
   -1.9967    3.8531   -0.2067 H   0  0  0  0  0  0  0  0  0  0  0  0
   -3.8847    2.5618    0.0319 H   0  0  0  0  0  0  0  0  0  0  0  0
   -3.2816    2.4281    1.6905 H   0  0  0  0  0  0  0  0  0  0  0  0
   -4.0201    0.3133    0.0213 H   0  0  0  0  0  0  0  0  0  0  0  0
   -3.1231    0.1857    1.5407 H   0  0  0  0  0  0  0  0  0  0  0  0
   -2.1419    0.0516   -1.3091 H   0  0  0  0  0  0  0  0  0  0  0  0
   -1.2809   -1.5148    1.1199 H   0  0  0  0  0  0  0  0  0  0  0  0
   -3.4346   -1.9420   -0.8508 H   0  0  0  0  0  0  0  0  0  0  0  0
   -3.4278   -4.0778   -0.3952 H   0  0  0  0  0  0  0  0  0  0  0  0
   -3.6997   -3.6202    1.3401 H   0  0  0  0  0  0  0  0  0  0  0  0
   -2.0392   -3.8373    0.7241 H   0  0  0  0  0  0  0  0  0  0  0  0
   -0.3193   -2.8600   -0.4983 H   0  0  0  0  0  0  0  0  0  0  0  0
   -1.5806   -2.4684   -1.7510 H   0  0  0  0  0  0  0  0  0  0  0  0
   -0.4959   -0.5015   -2.4581 H   0  0  0  0  0  0  0  0  0  0  0  0
    0.8041   -1.6615   -2.0472 H   0  0  0  0  0  0  0  0  0  0  0  0
  1  2  1  0
  2  3  1  0
  3  4  1  0
  2  5  1  0
  5  6  1  0
  6  7  1  0
  3  8  1  0
  7  8  1  0
  7  9  1  0
  9 10  1  0
 10 11  1  0
 11 12  1  0
 12 13  1  0
 13 14  1  0
 10 15  1  0
 14 15  1  0
 15 16  1  0
 16 17  1  0
 17 18  1  0
 16 19  1  0
  9 20  1  0
 19 20  1  0
  2 21  1  0
  3 22  1  0
  5 23  1  0
  5 24  1  0
  6 25  1  0
  6 26  1  0
  7 27  1  0
  8 28  1  0
  8 29  1  0
  9 30  1  1
 10 31  1  0
 11 32  1  0
 11 33  1  0
 12 34  1  0
 12 35  1  0
 13 36  1  0
 13 37  1  0
 14 38  1  0
 14 39  1  0
 15 40  1  0
 16 41  1  1
 17 42  1  0
 18 43  1  0
 18 44  1  0
 18 45  1  0
 19 46  1  0
 19 47  1  0
 20 48  1  0
 20 49  1  0
M  END
>  <PDBID>  (1) 
6AWO

>  <PDB ID>  (1) 
6AWO

>  <Generic Name>  (1) 
Sertraline

>  <Brand Name>  (1) 
Act Sertraline#Apo-sertraline#Auro-sertraline#Bio-sertraline#Dom-sertraline#Gd-sertraline#Ipg-sertraline#Jamp-sertraline#Mar-sertraline#Mint-sertraline#Mylan-sertraline#Nu-sertraline Capsules#PHL-sertraline#PMS-sertraline#Priva-sertraline#Q-sertraline#Ran-sertraline#Ratio-sertraline#Riva-sertraline#Sandoz Sertraline#Sertraline#Sertraline Hydrochloride#Sertraline Hydrochloride Tablets#Sertraline-100#Sertraline-25#Sertraline-50#Teva-sertraline#Van-sertraline#Zoloft#Zoloft Cap 100mg#Zoloft Cap 50mg#Lustral

>  <DrugBank ID>  (1) 
DB01104

>  <ATC Codes>  (1) 
N06AB06

>  <Ligand ID>  (1) 
SRE

>  <Target Name>  (1) 
Sodium-dependent serotonin transporter

>  <UniProt ID>  (1) 
P31645

>  <PDB ID.1>  (1) 
6AWO

>  <Seq. Identity>  (1) 
99%

$$$$
