PDB_DB00864_09
     RDKit          3D

140143  0  0  0  0  0  0  0  0999 V2000
    1.4591   -1.6052   -0.6381 C   0  0  0  0  0  0  0  0  0  0  0  0
    1.2461   -2.9703    0.0374 C   0  0  2  0  0  0  0  0  0  0  0  0
    2.5072   -3.7604   -0.1171 C   0  0  0  0  0  0  0  0  0  0  0  0
    2.4439   -4.9904    0.7677 C   0  0  0  0  0  0  0  0  0  0  0  0
    1.0708   -5.5729    0.6631 C   0  0  0  0  0  0  0  0  0  0  0  0
    0.3322   -5.0589   -0.5555 C   0  0  0  0  0  0  0  0  0  0  0  0
   -1.1456   -3.2910    0.1275 C   0  0  0  0  0  0  0  0  0  0  0  0
   -2.2581   -4.0853   -0.4609 C   0  0  0  0  0  0  0  0  0  0  0  0
   -3.6130   -3.4625   -0.3596 C   0  0  1  0  0  0  0  0  0  0  0  0
   -4.3457   -3.8506    0.9090 C   0  0  1  0  0  0  0  0  0  0  0  0
   -5.7089   -3.2695    0.8716 C   0  0  0  0  0  0  0  0  0  0  0  0
   -5.9520   -2.2019   -0.1239 C   0  0  1  0  0  0  0  0  0  0  0  0
   -4.7304   -1.4392   -0.5510 C   0  0  1  0  0  0  0  0  0  0  0  0
   -4.6677   -0.0549    0.1103 C   0  0  2  0  0  0  0  0  0  0  0  0
   -4.8638    1.0475   -0.8518 C   0  0  0  0  0  0  0  0  0  0  0  0
   -3.6903    1.9949   -0.9746 C   0  0  2  0  0  0  0  0  0  0  0  0
   -3.5475    2.9113    0.1854 C   0  0  0  0  0  0  0  0  0  0  0  0
   -3.0239    4.2898   -0.1424 C   0  0  0  0  0  0  0  0  0  0  0  0
   -2.1539    4.7790    1.0330 C   0  0  0  0  0  0  0  0  0  0  0  0
   -0.7138    4.7841    0.7251 C   0  0  2  0  0  0  0  0  0  0  0  0
    0.0438    3.6434    1.3814 C   0  0  0  0  0  0  0  0  0  0  0  0
    0.1521    2.4042    0.5412 C   0  0  0  0  0  0  0  0  0  0  0  0
    1.2773    2.5109   -0.4572 C   0  0  1  0  0  0  0  0  0  0  0  0
    1.7538    1.1912   -0.9652 C   0  0  2  0  0  0  0  0  0  0  0  0
    2.6621    0.3630   -0.2237 C   0  0  1  0  0  0  0  0  0  0  0  0
    3.3895    0.8722    0.9681 C   0  0  0  0  0  0  0  0  0  0  0  0
    4.2576   -0.2142    1.5143 C   0  0  0  0  0  0  0  0  0  0  0  0
    5.2981   -0.7939    0.6686 C   0  0  1  0  0  0  0  0  0  0  0  0
    6.3710    0.1192    0.1588 C   0  0  0  0  0  0  0  0  0  0  0  0
    7.4692   -0.6520   -0.5549 C   0  0  2  0  0  0  0  0  0  0  0  0
    8.0876   -1.6982    0.3418 C   0  0  1  0  0  0  0  0  0  0  0  0
    6.9752   -2.6487    0.7276 C   0  0  0  0  0  0  0  0  0  0  0  0
    5.9900   -1.8535    1.5484 C   0  0  0  0  0  0  0  0  0  0  0  0
   -4.3997   -5.3683    1.0430 C   0  0  0  0  0  0  0  0  0  0  0  0
   -3.8511    2.6765   -2.3047 C   0  0  0  0  0  0  0  0  0  0  0  0
   -4.1553    5.2739   -0.3497 C   0  0  0  0  0  0  0  0  0  0  0  0
    0.0875    6.0113    0.9608 C   0  0  0  0  0  0  0  0  0  0  0  0
   -0.2121    7.2591    0.2314 C   0  0  0  0  0  0  0  0  0  0  0  0
   -1.5372    7.8728    0.4782 C   0  0  0  0  0  0  0  0  0  0  0  0
    2.3350    1.4627   -2.3675 C   0  0  0  0  0  0  0  0  0  0  0  0
    4.1037    2.1455    0.9070 C   0  0  0  0  0  0  0  0  0  0  0  0
   -7.9347   -2.0975   -1.3298 C   0  0  0  0  0  0  0  0  0  0  0  0
   -3.7865    0.0603    2.2415 C   0  0  0  0  0  0  0  0  0  0  0  0
    8.7214    0.2320   -2.2620 C   0  0  0  0  0  0  0  0  0  0  0  0
    0.0967   -3.6509   -0.5274 N   0  0  0  0  0  0  0  0  0  0  0  0
    1.9736   -0.7681    0.2958 O   0  0  0  0  0  0  0  0  0  0  0  0
    2.2226   -1.8296   -1.7613 O   0  0  0  0  0  0  0  0  0  0  0  0
   -1.0732   -3.3932    1.5012 O   0  0  0  0  0  0  0  0  0  0  0  0
   -2.0011   -4.2747   -1.8300 O   0  0  0  0  0  0  0  0  0  0  0  0
   -3.5450   -2.0938   -0.3924 O   0  0  0  0  0  0  0  0  0  0  0  0
   -4.3871   -3.9734   -1.4256 O   0  0  0  0  0  0  0  0  0  0  0  0
   -6.6749   -2.6869   -1.2129 O   0  0  0  0  0  0  0  0  0  0  0  0
   -3.5204   -0.0009    0.8604 O   0  0  0  0  0  0  0  0  0  0  0  0
   -0.6187    3.3647    2.5816 O   0  0  0  0  0  0  0  0  0  0  0  0
    0.6407    3.1071   -1.5880 O   0  0  0  0  0  0  0  0  0  0  0  0
    8.4720    0.2545   -0.8902 O   0  0  0  0  0  0  0  0  0  0  0  0
    9.0743   -2.3386   -0.4082 O   0  0  0  0  0  0  0  0  0  0  0  0
    0.4210   -1.3355   -0.9703 H   0  0  0  0  0  0  0  0  0  0  0  0
    1.0810   -2.7918    1.1250 H   0  0  0  0  0  0  0  0  0  0  0  0
    3.3596   -3.1426    0.1719 H   0  0  0  0  0  0  0  0  0  0  0  0
    2.6088   -4.0509   -1.1830 H   0  0  0  0  0  0  0  0  0  0  0  0
    3.2350   -5.7012    0.3946 H   0  0  0  0  0  0  0  0  0  0  0  0
    2.6309   -4.7062    1.8053 H   0  0  0  0  0  0  0  0  0  0  0  0
    1.1942   -6.6819    0.4855 H   0  0  0  0  0  0  0  0  0  0  0  0
    0.4682   -5.5009    1.5870 H   0  0  0  0  0  0  0  0  0  0  0  0
    0.9997   -5.2749   -1.4348 H   0  0  0  0  0  0  0  0  0  0  0  0
   -0.5443   -5.6901   -0.6833 H   0  0  0  0  0  0  0  0  0  0  0  0
   -1.3346   -2.2101   -0.1150 H   0  0  0  0  0  0  0  0  0  0  0  0
   -2.3295   -5.0730    0.0745 H   0  0  0  0  0  0  0  0  0  0  0  0
   -3.7827   -3.3925    1.7566 H   0  0  0  0  0  0  0  0  0  0  0  0
   -5.9851   -2.9401    1.9175 H   0  0  0  0  0  0  0  0  0  0  0  0
   -6.4351   -4.1040    0.6594 H   0  0  0  0  0  0  0  0  0  0  0  0
   -6.6306   -1.4399    0.3664 H   0  0  0  0  0  0  0  0  0  0  0  0
   -4.8564   -1.2324   -1.6459 H   0  0  0  0  0  0  0  0  0  0  0  0
   -5.5291   -0.0321    0.8411 H   0  0  0  0  0  0  0  0  0  0  0  0
   -5.0243    0.6069   -1.8640 H   0  0  0  0  0  0  0  0  0  0  0  0
   -5.7697    1.6681   -0.6438 H   0  0  0  0  0  0  0  0  0  0  0  0
   -2.7810    1.3507   -1.0338 H   0  0  0  0  0  0  0  0  0  0  0  0
   -2.8901    2.5097    0.9817 H   0  0  0  0  0  0  0  0  0  0  0  0
   -4.5795    3.0809    0.6130 H   0  0  0  0  0  0  0  0  0  0  0  0
   -2.3220    4.2305   -0.9989 H   0  0  0  0  0  0  0  0  0  0  0  0
   -2.3922    4.0890    1.9173 H   0  0  0  0  0  0  0  0  0  0  0  0
   -2.5152    5.7435    1.3871 H   0  0  0  0  0  0  0  0  0  0  0  0
   -0.6548    4.6410   -0.4207 H   0  0  0  0  0  0  0  0  0  0  0  0
    1.0465    3.9803    1.6183 H   0  0  0  0  0  0  0  0  0  0  0  0
    0.3050    1.5727    1.2640 H   0  0  0  0  0  0  0  0  0  0  0  0
   -0.7606    2.1345   -0.0141 H   0  0  0  0  0  0  0  0  0  0  0  0
    2.0454    3.2334   -0.2056 H   0  0  0  0  0  0  0  0  0  0  0  0
    0.7929    0.6344   -1.1979 H   0  0  0  0  0  0  0  0  0  0  0  0
    3.4415   -0.1014   -0.8933 H   0  0  0  0  0  0  0  0  0  0  0  0
    2.5828    0.9742    1.7676 H   0  0  0  0  0  0  0  0  0  0  0  0
    3.6358   -1.0614    1.9235 H   0  0  0  0  0  0  0  0  0  0  0  0
    4.7570    0.2110    2.4342 H   0  0  0  0  0  0  0  0  0  0  0  0
    4.9194   -1.3913   -0.2000 H   0  0  0  0  0  0  0  0  0  0  0  0
    6.9116    0.6181    1.0164 H   0  0  0  0  0  0  0  0  0  0  0  0
    6.0054    0.8515   -0.5824 H   0  0  0  0  0  0  0  0  0  0  0  0
    7.1364   -1.1480   -1.4728 H   0  0  0  0  0  0  0  0  0  0  0  0
    8.6052   -1.2626    1.2240 H   0  0  0  0  0  0  0  0  0  0  0  0
    6.5475   -3.0351   -0.2053 H   0  0  0  0  0  0  0  0  0  0  0  0
    7.4041   -3.4197    1.3791 H   0  0  0  0  0  0  0  0  0  0  0  0
    5.2667   -2.4927    2.0612 H   0  0  0  0  0  0  0  0  0  0  0  0
    6.5682   -1.2776    2.2986 H   0  0  0  0  0  0  0  0  0  0  0  0
   -4.4637   -5.7920    0.0221 H   0  0  0  0  0  0  0  0  0  0  0  0
   -5.3308   -5.6104    1.6169 H   0  0  0  0  0  0  0  0  0  0  0  0
   -3.5403   -5.7690    1.5881 H   0  0  0  0  0  0  0  0  0  0  0  0
   -2.9978    3.2484   -2.6469 H   0  0  0  0  0  0  0  0  0  0  0  0
   -3.9915    1.8447   -3.0575 H   0  0  0  0  0  0  0  0  0  0  0  0
   -4.8299    3.2300   -2.3374 H   0  0  0  0  0  0  0  0  0  0  0  0
   -5.1307    4.7879   -0.4902 H   0  0  0  0  0  0  0  0  0  0  0  0
   -3.8933    5.9572   -1.2087 H   0  0  0  0  0  0  0  0  0  0  0  0
   -4.2423    5.9341    0.5361 H   0  0  0  0  0  0  0  0  0  0  0  0
    1.1999    5.7905    0.8573 H   0  0  0  0  0  0  0  0  0  0  0  0
    0.0301    6.2130    2.0961 H   0  0  0  0  0  0  0  0  0  0  0  0
   -0.1895    6.9967   -0.8823 H   0  0  0  0  0  0  0  0  0  0  0  0
    0.6278    7.9912    0.4093 H   0  0  0  0  0  0  0  0  0  0  0  0
   -1.4261    8.9810    0.1863 H   0  0  0  0  0  0  0  0  0  0  0  0
   -1.7636    7.8606    1.5656 H   0  0  0  0  0  0  0  0  0  0  0  0
   -2.3229    7.4421   -0.1475 H   0  0  0  0  0  0  0  0  0  0  0  0
    2.0050    2.4386   -2.7607 H   0  0  0  0  0  0  0  0  0  0  0  0
    2.0206    0.6986   -3.0915 H   0  0  0  0  0  0  0  0  0  0  0  0
    3.4539    1.5209   -2.2960 H   0  0  0  0  0  0  0  0  0  0  0  0
    3.6089    2.9418    1.5465 H   0  0  0  0  0  0  0  0  0  0  0  0
    5.0935    2.0507    1.4511 H   0  0  0  0  0  0  0  0  0  0  0  0
    4.3636    2.5277   -0.0835 H   0  0  0  0  0  0  0  0  0  0  0  0
   -8.5659   -2.2618   -0.4548 H   0  0  0  0  0  0  0  0  0  0  0  0
   -8.4252   -2.5936   -2.1998 H   0  0  0  0  0  0  0  0  0  0  0  0
   -7.8190   -1.0301   -1.6109 H   0  0  0  0  0  0  0  0  0  0  0  0
   -4.3894    0.9885    2.4190 H   0  0  0  0  0  0  0  0  0  0  0  0
   -4.3950   -0.7795    2.5942 H   0  0  0  0  0  0  0  0  0  0  0  0
   -2.8447    0.2048    2.7774 H   0  0  0  0  0  0  0  0  0  0  0  0
    9.0373   -0.7968   -2.5061 H   0  0  0  0  0  0  0  0  0  0  0  0
    7.8146    0.5684   -2.7874 H   0  0  0  0  0  0  0  0  0  0  0  0
    9.5522    0.9093   -2.4835 H   0  0  0  0  0  0  0  0  0  0  0  0
    3.1310   -2.1308   -1.6091 H   0  0  0  0  0  0  0  0  0  0  0  0
   -1.5218   -4.1872    1.8522 H   0  0  0  0  0  0  0  0  0  0  0  0
   -2.5876   -5.0416   -2.0888 H   0  0  0  0  0  0  0  0  0  0  0  0
   -4.0747   -3.6403   -2.2877 H   0  0  0  0  0  0  0  0  0  0  0  0
   -1.0157    2.4461    2.5156 H   0  0  0  0  0  0  0  0  0  0  0  0
   -0.1268    2.5276   -1.8446 H   0  0  0  0  0  0  0  0  0  0  0  0
    8.6947   -2.7898   -1.2199 H   0  0  0  0  0  0  0  0  0  0  0  0
  1  2  1  0
  2  3  1  0
  3  4  1  0
  4  5  1  0
  5  6  1  0
  7  8  1  0
  8  9  1  0
  9 10  1  0
 10 11  1  0
 11 12  1  0
 12 13  1  0
 13 14  1  0
 14 15  1  0
 15 16  1  0
 16 17  1  0
 17 18  1  0
 18 19  1  0
 19 20  1  0
 20 21  1  0
 21 22  1  0
 22 23  1  0
 23 24  1  0
 24 25  1  0
 25 26  1  0
 26 27  1  0
 27 28  1  0
 28 29  1  0
 29 30  1  0
 30 31  1  0
 31 32  1  0
 28 33  1  0
 32 33  1  0
 10 34  1  0
 16 35  1  0
 18 36  1  0
 20 37  1  0
 37 38  1  0
 38 39  1  0
 24 40  1  0
 26 41  1  0
  2 45  1  0
  6 45  1  0
  7 45  1  0
  1 46  1  0
 25 46  1  0
  1 47  1  0
  7 48  1  0
  8 49  1  0
  9 50  1  0
 13 50  1  0
  9 51  1  6
 12 52  1  0
 42 52  1  0
 14 53  1  0
 43 53  1  0
 21 54  1  0
 23 55  1  0
 30 56  1  0
 44 56  1  0
 31 57  1  0
  1 58  1  0
  2 59  1  1
  3 60  1  0
  3 61  1  0
  4 62  1  0
  4 63  1  0
  5 64  1  0
  5 65  1  0
  6 66  1  0
  6 67  1  0
  7 68  1  0
  8 69  1  0
 10 70  1  1
 11 71  1  0
 11 72  1  0
 12 73  1  1
 13 74  1  6
 14 75  1  1
 15 76  1  0
 15 77  1  0
 16 78  1  6
 17 79  1  0
 17 80  1  0
 18 81  1  0
 19 82  1  0
 19 83  1  0
 20 84  1  6
 21 85  1  0
 22 86  1  0
 22 87  1  0
 23 88  1  1
 24 89  1  6
 25 90  1  6
 26 91  1  0
 27 92  1  0
 27 93  1  0
 28 94  1  6
 29 95  1  0
 29 96  1  0
 30 97  1  6
 31 98  1  1
 32 99  1  0
 32100  1  0
 33101  1  0
 33102  1  0
 34103  1  0
 34104  1  0
 34105  1  0
 35106  1  0
 35107  1  0
 35108  1  0
 36109  1  0
 36110  1  0
 36111  1  0
 37112  1  0
 37113  1  0
 38114  1  0
 38115  1  0
 39116  1  0
 39117  1  0
 39118  1  0
 40119  1  0
 40120  1  0
 40121  1  0
 41122  1  0
 41123  1  0
 41124  1  0
 42125  1  0
 42126  1  0
 42127  1  0
 43128  1  0
 43129  1  0
 43130  1  0
 44131  1  0
 44132  1  0
 44133  1  0
 47134  1  0
 48135  1  0
 49136  1  0
 51137  1  0
 54138  1  0
 55139  1  0
 57140  1  0
M  END
>  <PDBID>  (1) 
1FKF

>  <PDB ID>  (1) 
1FKF

>  <Generic Name>  (1) 
Tacrolimus

>  <Brand Name>  (1) 
Ach-tacrolimus#Advagraf#Astagraf XL#Envarsus XR#Hecoria#Prograf#Protopic#Ran-tacrolimus#Sandoz Tacrolimus#Tacrolimus

>  <DrugBank ID>  (1) 
DB00864

>  <ATC Codes>  (1) 
D11AH01#L04AD02

>  <Ligand ID>  (1) 
FK5

>  <Target Name>  (1) 
Peptidyl-prolyl cis-trans isomerase FKBP1A

>  <UniProt ID>  (1) 
P62942

>  <PDB ID.1>  (1) 
1FKF

>  <Seq. Identity>  (1) 
100%

$$$$
