PDB_DB00819_04
     RDKit          3D

 27 27  0  0  0  0  0  0  0  0999 V2000
   -1.7144    0.4849   -0.2257 C   0  0  2  0  0  0  0  0  0  0  0  0
    0.7923   -0.4485    0.2808 C   0  0  2  0  0  0  0  0  0  0  0  0
    3.0832   -0.3285   -0.5242 C   0  0  0  0  0  0  0  0  0  0  0  0
    4.2547    0.2347    0.2966 C   0  0  0  0  0  0  0  0  0  0  0  0
   -4.2669    1.3152   -0.0072 N   0  0  0  0  0  0  0  0  0  0  0  0
    0.0158    0.2963    1.2417 N   0  0  0  0  0  0  0  0  0  0  0  0
   -1.3212   -0.0204    1.0840 N   0  0  0  0  0  0  0  0  0  0  0  0
    1.9190    0.3625   -0.0861 N   0  0  0  0  0  0  0  0  0  0  0  0
   -3.7303   -1.1944    0.6366 O   0  0  0  0  0  0  0  0  0  0  0  0
   -3.7396   -0.4145   -1.8885 O   0  0  0  0  0  0  0  0  0  0  0  0
    3.0224   -1.7087   -0.2136 O   0  0  0  0  0  0  0  0  0  0  0  0
   -3.2213    0.1993   -0.7708 S   0  0  0  0  0  0  0  0  0  0  0  0
   -0.3680   -0.3830   -1.1582 S   0  0  0  0  0  0  0  0  0  0  0  0
   -1.4021    1.5470   -0.2814 H   0  0  0  0  0  0  0  0  0  0  0  0
    0.9976   -1.4710    0.5646 H   0  0  0  0  0  0  0  0  0  0  0  0
    3.2318   -0.2093   -1.5986 H   0  0  0  0  0  0  0  0  0  0  0  0
    4.2418    1.3439    0.1760 H   0  0  0  0  0  0  0  0  0  0  0  0
    5.1880   -0.1945   -0.1016 H   0  0  0  0  0  0  0  0  0  0  0  0
    4.0407   -0.0013    1.3401 H   0  0  0  0  0  0  0  0  0  0  0  0
   -4.8169    1.8807   -0.6922 H   0  0  0  0  0  0  0  0  0  0  0  0
   -3.7458    1.9165    0.6654 H   0  0  0  0  0  0  0  0  0  0  0  0
    0.2585    1.2735    1.3325 H   0  0  0  0  0  0  0  0  0  0  0  0
   -1.3429   -1.0908    0.9892 H   0  0  0  0  0  0  0  0  0  0  0  0
    2.1054    1.1360    0.5758 H   0  0  0  0  0  0  0  0  0  0  0  0
   -3.0806   -1.7810    0.1843 H   0  0  0  0  0  0  0  0  0  0  0  0
   -3.3782   -0.9964   -2.6104 H   0  0  0  0  0  0  0  0  0  0  0  0
    2.9770   -1.7482    0.7908 H   0  0  0  0  0  0  0  0  0  0  0  0
  3  4  1  0
  2  6  1  0
  1  7  1  0
  6  7  1  0
  2  8  1  0
  3  8  1  0
  3 11  1  0
  1 12  1  0
  5 12  1  0
 12  9  1  0
 10 12  1  0
  1 13  1  0
  2 13  1  0
  1 14  1  1
  2 15  1  1
  3 16  1  0
  4 17  1  0
  4 18  1  0
  4 19  1  0
  5 20  1  0
  5 21  1  0
  6 22  1  0
  7 23  1  0
  8 24  1  0
  9 25  1  0
 10 26  1  0
 11 27  1  0
M  END
>  <PDBID>  (1) 
1AZM

>  <PDB ID>  (1) 
1AZM

>  <Generic Name>  (1) 
Acetazolamide

>  <Brand Name>  (1) 
Acetazolam#Acetazolamide#Acetazolamide for Injection, USP#Diamox IV 500mg#Diamox Pws 500mg/vial#Diamox Sequels#Diamox Src 500mg#Diamox Tab 250mg#Diamox Tablets 250mg#Novo-zolamide Tab 250mg#Acemit#Acemox#Acetak#Acetamide#Acetazolamax#Azm#Azol#Azomid#Carbinib#Defiltran#Diabo#Diacarb#Diamox#Diamox Depot#Diazomid#Diluran#Diuramid#Défiltran#Edemox#Glaumox#Glaupax#Glupax#Huma-Zolamide#Iopar-SR#Medene#Oculten#Uramox#Zolmide#Ödemin

>  <DrugBank ID>  (1) 
DB00819

>  <ATC Codes>  (1) 
S01EC01

>  <Ligand ID>  (1) 
AZM

>  <Target Name>  (1) 
Carbonic anhydrase 1

>  <UniProt ID>  (1) 
P00915

>  <PDB ID.1>  (1) 
1AZM

>  <Seq. Identity>  (1) 
100%

$$$$
