PDB_DB00176_02
     RDKit          3D

 51 51  0  0  0  0  0  0  0  0999 V2000
    5.9695   -0.9107   -0.9689 C   0  0  0  0  0  0  0  0  0  0  0  0
    4.7070   -0.6078   -0.4723 O   0  0  0  0  0  0  0  0  0  0  0  0
    3.8080   -1.6616   -0.6405 C   0  0  0  0  0  0  0  0  0  0  0  0
    2.4843   -1.1610   -0.0446 C   0  0  0  0  0  0  0  0  0  0  0  0
    1.4129   -2.1592   -0.1390 C   0  0  0  0  0  0  0  0  0  0  0  0
    0.1181   -1.7522    0.4453 C   0  0  0  0  0  0  0  0  0  0  0  0
   -0.6955   -0.6658   -0.0762 C   0  0  0  0  0  0  0  0  0  0  0  0
   -1.9179   -0.5878    0.7946 N   0  0  0  0  0  0  0  0  0  0  0  0
   -2.5379   -1.7863    0.6934 O   0  0  0  0  0  0  0  0  0  0  0  0
   -3.8817   -1.7124    1.0417 C   0  0  0  0  0  0  0  0  0  0  0  0
   -4.4427   -3.1247    0.8805 C   0  0  0  0  0  0  0  0  0  0  0  0
   -4.3039   -3.5904   -0.4763 N   0  0  0  0  0  0  0  0  0  0  0  0
   -0.2181    0.7156   -0.2210 C   0  0  0  0  0  0  0  0  0  0  0  0
   -1.4551    1.5127   -0.7737 C   0  0  0  0  0  0  0  0  0  0  0  0
   -0.9389    2.8730   -1.1428 C   0  0  0  0  0  0  0  0  0  0  0  0
   -0.5656    3.5957    0.1341 C   0  0  0  0  0  0  0  0  0  0  0  0
    0.5796    2.8359    0.7662 C   0  0  0  0  0  0  0  0  0  0  0  0
    0.2165    1.3915    1.0265 C   0  0  0  0  0  0  0  0  0  0  0  0
   -0.0251    4.9960   -0.1843 C   0  0  0  0  0  0  0  0  0  0  0  0
   -0.9726    5.7456   -0.8470 F   0  0  0  0  0  0  0  0  0  0  0  0
    0.2301    5.6312    1.0144 F   0  0  0  0  0  0  0  0  0  0  0  0
    1.1310    4.8909   -0.9218 F   0  0  0  0  0  0  0  0  0  0  0  0
    6.4118   -1.7913   -0.4649 H   0  0  0  0  0  0  0  0  0  0  0  0
    5.8577   -1.0429   -2.0651 H   0  0  0  0  0  0  0  0  0  0  0  0
    6.5930   -0.0035   -0.8247 H   0  0  0  0  0  0  0  0  0  0  0  0
    3.6614   -1.9434   -1.6877 H   0  0  0  0  0  0  0  0  0  0  0  0
    4.1103   -2.5661   -0.0696 H   0  0  0  0  0  0  0  0  0  0  0  0
    2.3016   -0.2139   -0.5343 H   0  0  0  0  0  0  0  0  0  0  0  0
    2.7462   -0.9552    1.0328 H   0  0  0  0  0  0  0  0  0  0  0  0
    1.7586   -3.1599    0.2583 H   0  0  0  0  0  0  0  0  0  0  0  0
    1.2752   -2.3979   -1.2500 H   0  0  0  0  0  0  0  0  0  0  0  0
   -0.5449   -2.7022    0.3728 H   0  0  0  0  0  0  0  0  0  0  0  0
    0.1983   -1.6889    1.5888 H   0  0  0  0  0  0  0  0  0  0  0  0
   -1.1864   -1.0112   -1.0601 H   0  0  0  0  0  0  0  0  0  0  0  0
   -1.5151   -0.5514    1.7632 H   0  0  0  0  0  0  0  0  0  0  0  0
   -4.0131   -1.4117    2.1011 H   0  0  0  0  0  0  0  0  0  0  0  0
   -4.4173   -1.0066    0.4021 H   0  0  0  0  0  0  0  0  0  0  0  0
   -5.5401   -3.0973    1.1090 H   0  0  0  0  0  0  0  0  0  0  0  0
   -4.0048   -3.8102    1.6310 H   0  0  0  0  0  0  0  0  0  0  0  0
   -5.2067   -3.5404   -0.9884 H   0  0  0  0  0  0  0  0  0  0  0  0
   -3.5129   -3.1426   -0.9925 H   0  0  0  0  0  0  0  0  0  0  0  0
    0.5090    0.8077   -1.0436 H   0  0  0  0  0  0  0  0  0  0  0  0
   -1.8965    0.9473   -1.5928 H   0  0  0  0  0  0  0  0  0  0  0  0
   -2.1607    1.5995    0.0723 H   0  0  0  0  0  0  0  0  0  0  0  0
   -1.6430    3.4473   -1.7544 H   0  0  0  0  0  0  0  0  0  0  0  0
    0.0361    2.7027   -1.6857 H   0  0  0  0  0  0  0  0  0  0  0  0
   -1.3884    3.6638    0.8547 H   0  0  0  0  0  0  0  0  0  0  0  0
    0.9146    3.2678    1.7097 H   0  0  0  0  0  0  0  0  0  0  0  0
    1.4167    2.8384    0.0368 H   0  0  0  0  0  0  0  0  0  0  0  0
    1.1265    0.9019    1.4180 H   0  0  0  0  0  0  0  0  0  0  0  0
   -0.5893    1.3921    1.7900 H   0  0  0  0  0  0  0  0  0  0  0  0
  1  2  1  0
  2  3  1  0
  3  4  1  0
  4  5  1  0
  5  6  1  0
  6  7  1  0
  7  8  1  0
  8  9  1  0
  9 10  1  0
 10 11  1  0
 11 12  1  0
  7 13  1  0
 13 14  1  0
 14 15  1  0
 15 16  1  0
 16 17  1  0
 13 18  1  0
 17 18  1  0
 16 19  1  0
 19 20  1  0
 19 21  1  0
 19 22  1  0
  1 23  1  0
  1 24  1  0
  1 25  1  0
  3 26  1  0
  3 27  1  0
  4 28  1  0
  4 29  1  0
  5 30  1  0
  5 31  1  0
  6 32  1  0
  6 33  1  0
  7 34  1  0
  8 35  1  0
 10 36  1  0
 10 37  1  0
 11 38  1  0
 11 39  1  0
 12 40  1  0
 12 41  1  0
 13 42  1  0
 14 43  1  0
 14 44  1  0
 15 45  1  0
 15 46  1  0
 16 47  1  0
 17 48  1  0
 17 49  1  0
 18 50  1  0
 18 51  1  0
M  END
>  <PDBID>  (1) 
6AWP

>  <PDB ID>  (1) 
6AWP

>  <Generic Name>  (1) 
Fluvoxamine

>  <Brand Name>  (1) 
Act Fluvoxamine#Apo-fluvoxamine Tablets#Ava-fluvoxamine#Bci Fluvoxamine Tablets#Dom-fluvoxamine#Fluvoxamine Maleate#Fluvoxamine Maleate Extended-release#Fluvoxamine Tablets#Fluvoxamine-100#Fluvoxamine-50#Gen-fluvoxamine 100mg#Gen-fluvoxamine 50mg#Luvox#Luvox CR#Novo-fluvoxamine#Nu-fluvoxamine 100 Mg Tab#Nu-fluvoxamine 50 Mg Tab#PHL-fluvoxamine#PMS-fluvoxamine#Ratio-fluvoxamine#Riva-fluvox#Riva-fluvox 100mg Tablets#Riva-fluvox 50mg Tablets#Sandoz Fluvoxamine#Dumirox#Faverin#Fevarin#Floxyfral#Maveral

>  <DrugBank ID>  (1) 
DB00176

>  <ATC Codes>  (1) 
N06AB08

>  <Ligand ID>  (1) 
FVX

>  <Target Name>  (1) 
Sodium-dependent serotonin transporter

>  <UniProt ID>  (1) 
P31645

>  <PDB ID.1>  (1) 
6AWP

>  <Seq. Identity>  (1) 
99%

$$$$
