PDB_DB00503_02
     RDKit          3D

124127  0  0  0  0  0  0  0  0999 V2000
   -7.9074    1.6914   -3.2191 C   0  0  0  0  0  0  0  0  0  0  0  0
   -8.3183    1.2910   -1.8169 C   0  0  0  0  0  0  0  0  0  0  0  0
   -8.1869    2.8794   -0.9475 S   0  0  0  0  0  0  0  0  0  0  0  0
   -7.6852    3.8749   -2.4202 C   0  0  0  0  0  0  0  0  0  0  0  0
   -7.0213    2.8096   -3.1596 N   0  0  0  0  0  0  0  0  0  0  0  0
   -7.4544    0.2225   -1.2444 C   0  0  0  0  0  0  0  0  0  0  0  0
   -6.1073    0.5423   -1.1475 O   0  0  0  0  0  0  0  0  0  0  0  0
   -5.3723   -0.5320   -0.6259 C   0  0  0  0  0  0  0  0  0  0  0  0
   -4.6404   -1.0286   -1.7222 O   0  0  0  0  0  0  0  0  0  0  0  0
   -4.5348   -0.2469    0.4512 N   0  0  0  0  0  0  0  0  0  0  0  0
   -3.4393    0.6339    0.3236 C   0  0  2  0  0  0  0  0  0  0  0  0
   -2.3152    0.1789   -0.5923 C   0  0  2  0  0  0  0  0  0  0  0  0
   -1.7666   -1.1451   -0.1716 C   0  0  0  0  0  0  0  0  0  0  0  0
   -0.6786   -1.7118   -1.0102 C   0  0  2  0  0  0  0  0  0  0  0  0
   -2.8972    1.1030    1.6626 C   0  0  0  0  0  0  0  0  0  0  0  0
   -3.9540    1.8384    2.4555 C   0  0  0  0  0  0  0  0  0  0  0  0
   -3.2961    2.2567    3.7754 C   0  0  0  0  0  0  0  0  0  0  0  0
   -4.3678    2.7864    4.7015 C   0  0  0  0  0  0  0  0  0  0  0  0
   -5.5600    3.2930    3.9135 C   0  0  0  0  0  0  0  0  0  0  0  0
   -5.0240    4.0736    2.7286 C   0  0  0  0  0  0  0  0  0  0  0  0
   -4.3870    3.1106    1.7611 C   0  0  0  0  0  0  0  0  0  0  0  0
   -1.3842    1.2151   -0.5805 O   0  0  0  0  0  0  0  0  0  0  0  0
   -0.3384   -3.0977   -0.4383 C   0  0  0  0  0  0  0  0  0  0  0  0
   -1.5019   -4.0406   -0.4191 C   0  0  0  0  0  0  0  0  0  0  0  0
   -0.9730   -5.3528    0.1618 C   0  0  0  0  0  0  0  0  0  0  0  0
   -0.0897   -6.0931   -0.8091 C   0  0  0  0  0  0  0  0  0  0  0  0
   -0.7494   -6.3471   -2.1464 C   0  0  0  0  0  0  0  0  0  0  0  0
   -1.0800   -4.9757   -2.7133 C   0  0  0  0  0  0  0  0  0  0  0  0
   -2.0417   -4.2741   -1.7758 C   0  0  0  0  0  0  0  0  0  0  0  0
    0.5218   -0.9877   -1.1502 N   0  0  0  0  0  0  0  0  0  0  0  0
    3.7718   -0.7277    0.5948 N   0  0  0  0  0  0  0  0  0  0  0  0
    2.8690   -0.9594   -0.4455 C   0  0  2  0  0  0  0  0  0  0  0  0
    1.4201   -0.7515   -0.0964 C   0  0  1  0  0  0  0  0  0  0  0  0
    1.3172    0.6149    0.2888 O   0  0  0  0  0  0  0  0  0  0  0  0
    3.0968   -2.3691   -0.9543 C   0  0  0  0  0  0  0  0  0  0  0  0
    4.5434   -2.4786   -1.4807 C   0  0  0  0  0  0  0  0  0  0  0  0
    3.0383   -3.3053    0.2229 C   0  0  0  0  0  0  0  0  0  0  0  0
    3.9979    0.5574    1.1347 C   0  0  1  0  0  0  0  0  0  0  0  0
    4.9931    0.4801    2.1317 N   0  0  0  0  0  0  0  0  0  0  0  0
    5.8532    1.5194    2.4582 C   0  0  0  0  0  0  0  0  0  0  0  0
    4.1473    1.4578    0.1161 O   0  0  0  0  0  0  0  0  0  0  0  0
    7.0065    1.7999    1.4768 C   0  0  0  0  0  0  0  0  0  0  0  0
    7.7842    0.5217    1.4373 C   0  0  0  0  0  0  0  0  0  0  0  0
    8.1403    0.3457   -0.3274 S   0  0  0  0  0  0  0  0  0  0  0  0
    7.3254    1.8752   -0.8717 C   0  0  0  0  0  0  0  0  0  0  0  0
    6.5357    2.2229    0.2503 N   0  0  0  0  0  0  0  0  0  0  0  0
    8.3240    2.8972   -1.3288 C   0  0  0  0  0  0  0  0  0  0  0  0
    7.7114    4.1720   -1.7954 C   0  0  0  0  0  0  0  0  0  0  0  0
    9.3856    3.1278   -0.2755 C   0  0  0  0  0  0  0  0  0  0  0  0
    4.5246   -0.3209    3.2365 C   0  0  0  0  0  0  0  0  0  0  0  0
   -7.3285    0.8558   -3.6778 H   0  0  0  0  0  0  0  0  0  0  0  0
   -8.7935    1.9563   -3.8037 H   0  0  0  0  0  0  0  0  0  0  0  0
   -9.3855    0.9456   -1.8494 H   0  0  0  0  0  0  0  0  0  0  0  0
   -6.9461    4.6037   -2.0954 H   0  0  0  0  0  0  0  0  0  0  0  0
   -8.5463    4.2420   -2.9764 H   0  0  0  0  0  0  0  0  0  0  0  0
   -6.0887    2.5850   -2.7454 H   0  0  0  0  0  0  0  0  0  0  0  0
   -7.8839   -0.0316   -0.2373 H   0  0  0  0  0  0  0  0  0  0  0  0
   -7.5819   -0.6972   -1.8446 H   0  0  0  0  0  0  0  0  0  0  0  0
   -6.1194   -1.3510   -0.4254 H   0  0  0  0  0  0  0  0  0  0  0  0
   -4.9920   -0.6954   -2.5891 H   0  0  0  0  0  0  0  0  0  0  0  0
   -4.6236   -0.8023    1.3023 H   0  0  0  0  0  0  0  0  0  0  0  0
   -3.8267    1.5787   -0.1655 H   0  0  0  0  0  0  0  0  0  0  0  0
   -2.7039    0.1261   -1.6116 H   0  0  0  0  0  0  0  0  0  0  0  0
   -1.4371   -1.0134    0.9095 H   0  0  0  0  0  0  0  0  0  0  0  0
   -2.6099   -1.8675   -0.1899 H   0  0  0  0  0  0  0  0  0  0  0  0
   -1.0979   -1.8567   -2.0469 H   0  0  0  0  0  0  0  0  0  0  0  0
   -2.0740    1.8187    1.4790 H   0  0  0  0  0  0  0  0  0  0  0  0
   -2.4899    0.3041    2.2872 H   0  0  0  0  0  0  0  0  0  0  0  0
   -4.8257    1.2137    2.7186 H   0  0  0  0  0  0  0  0  0  0  0  0
   -2.5595    3.0585    3.6075 H   0  0  0  0  0  0  0  0  0  0  0  0
   -2.8275    1.3783    4.2642 H   0  0  0  0  0  0  0  0  0  0  0  0
   -4.7120    2.0389    5.4242 H   0  0  0  0  0  0  0  0  0  0  0  0
   -3.9661    3.6823    5.2571 H   0  0  0  0  0  0  0  0  0  0  0  0
   -6.1749    4.0010    4.5251 H   0  0  0  0  0  0  0  0  0  0  0  0
   -6.2009    2.4753    3.5578 H   0  0  0  0  0  0  0  0  0  0  0  0
   -4.2449    4.8027    3.0839 H   0  0  0  0  0  0  0  0  0  0  0  0
   -5.8506    4.6224    2.2022 H   0  0  0  0  0  0  0  0  0  0  0  0
   -5.1423    2.8439    1.0029 H   0  0  0  0  0  0  0  0  0  0  0  0
   -3.5093    3.6369    1.3181 H   0  0  0  0  0  0  0  0  0  0  0  0
   -1.7609    2.0325   -0.9445 H   0  0  0  0  0  0  0  0  0  0  0  0
    0.0661   -2.9219    0.5745 H   0  0  0  0  0  0  0  0  0  0  0  0
    0.4812   -3.4962   -1.0657 H   0  0  0  0  0  0  0  0  0  0  0  0
   -2.3251   -3.7418    0.2576 H   0  0  0  0  0  0  0  0  0  0  0  0
   -1.8360   -5.9643    0.4216 H   0  0  0  0  0  0  0  0  0  0  0  0
   -0.3221   -5.1154    1.0464 H   0  0  0  0  0  0  0  0  0  0  0  0
    0.8609   -5.5357   -0.9614 H   0  0  0  0  0  0  0  0  0  0  0  0
    0.1705   -7.0536   -0.3436 H   0  0  0  0  0  0  0  0  0  0  0  0
   -1.6957   -6.8807   -1.9855 H   0  0  0  0  0  0  0  0  0  0  0  0
   -0.0320   -6.8519   -2.7943 H   0  0  0  0  0  0  0  0  0  0  0  0
   -1.6437   -5.1643   -3.6513 H   0  0  0  0  0  0  0  0  0  0  0  0
   -0.1819   -4.4162   -2.9554 H   0  0  0  0  0  0  0  0  0  0  0  0
   -2.3662   -3.3413   -2.2599 H   0  0  0  0  0  0  0  0  0  0  0  0
   -2.9301   -4.9764   -1.7148 H   0  0  0  0  0  0  0  0  0  0  0  0
    0.8748   -0.8021   -2.0973 H   0  0  0  0  0  0  0  0  0  0  0  0
    3.9896   -1.4841    1.2546 H   0  0  0  0  0  0  0  0  0  0  0  0
    3.1101   -0.2757   -1.3503 H   0  0  0  0  0  0  0  0  0  0  0  0
    1.2122   -1.3340    0.8290 H   0  0  0  0  0  0  0  0  0  0  0  0
    0.7193    0.6894    1.0890 H   0  0  0  0  0  0  0  0  0  0  0  0
    2.4816   -2.6448   -1.8142 H   0  0  0  0  0  0  0  0  0  0  0  0
    4.6681   -3.4536   -1.9907 H   0  0  0  0  0  0  0  0  0  0  0  0
    4.7441   -1.6914   -2.2180 H   0  0  0  0  0  0  0  0  0  0  0  0
    5.2456   -2.4708   -0.6310 H   0  0  0  0  0  0  0  0  0  0  0  0
    2.7070   -4.3206   -0.0802 H   0  0  0  0  0  0  0  0  0  0  0  0
    2.3814   -2.9407    1.0354 H   0  0  0  0  0  0  0  0  0  0  0  0
    4.0944   -3.4215    0.6088 H   0  0  0  0  0  0  0  0  0  0  0  0
    3.0225    0.8668    1.6542 H   0  0  0  0  0  0  0  0  0  0  0  0
    6.3020    1.2921    3.4777 H   0  0  0  0  0  0  0  0  0  0  0  0
    5.2952    2.4731    2.6498 H   0  0  0  0  0  0  0  0  0  0  0  0
    3.5321    2.2389    0.1463 H   0  0  0  0  0  0  0  0  0  0  0  0
    7.5928    2.6113    2.0094 H   0  0  0  0  0  0  0  0  0  0  0  0
    8.7546    0.6711    1.9563 H   0  0  0  0  0  0  0  0  0  0  0  0
    7.2298   -0.3524    1.8387 H   0  0  0  0  0  0  0  0  0  0  0  0
    6.6350    1.6178   -1.7109 H   0  0  0  0  0  0  0  0  0  0  0  0
    6.2012    3.2190    0.2317 H   0  0  0  0  0  0  0  0  0  0  0  0
    8.8800    2.4125   -2.1875 H   0  0  0  0  0  0  0  0  0  0  0  0
    8.1266    4.4416   -2.8131 H   0  0  0  0  0  0  0  0  0  0  0  0
    8.0602    4.9784   -1.0929 H   0  0  0  0  0  0  0  0  0  0  0  0
    6.6220    4.0915   -1.8530 H   0  0  0  0  0  0  0  0  0  0  0  0
    9.0812    3.9356    0.4291 H   0  0  0  0  0  0  0  0  0  0  0  0
    9.5920    2.2269    0.3216 H   0  0  0  0  0  0  0  0  0  0  0  0
   10.3531    3.3950   -0.7928 H   0  0  0  0  0  0  0  0  0  0  0  0
    4.6187    0.2217    4.2143 H   0  0  0  0  0  0  0  0  0  0  0  0
    3.5027   -0.6595    3.0390 H   0  0  0  0  0  0  0  0  0  0  0  0
    5.1926   -1.2061    3.3136 H   0  0  0  0  0  0  0  0  0  0  0  0
  1  2  1  0
  2  3  1  0
  3  4  1  0
  1  5  1  0
  4  5  1  0
  2  6  1  0
  6  7  1  0
  7  8  1  0
  8  9  1  0
  8 10  1  0
 10 11  1  0
 11 12  1  0
 12 13  1  0
 13 14  1  0
 11 15  1  0
 15 16  1  0
 16 17  1  0
 17 18  1  0
 18 19  1  0
 19 20  1  0
 16 21  1  0
 20 21  1  0
 12 22  1  0
 14 23  1  0
 23 24  1  0
 24 25  1  0
 25 26  1  0
 26 27  1  0
 27 28  1  0
 24 29  1  0
 28 29  1  0
 14 30  1  0
 31 32  1  0
 30 33  1  0
 32 33  1  0
 33 34  1  0
 32 35  1  0
 35 36  1  0
 35 37  1  0
 31 38  1  0
 38 39  1  0
 39 40  1  0
 38 41  1  0
 40 42  1  0
 42 43  1  0
 43 44  1  0
 44 45  1  0
 42 46  1  0
 45 46  1  0
 45 47  1  0
 47 48  1  0
 47 49  1  0
 39 50  1  0
  1 51  1  0
  1 52  1  0
  2 53  1  0
  4 54  1  0
  4 55  1  0
  5 56  1  0
  6 57  1  0
  6 58  1  0
  8 59  1  0
  9 60  1  0
 10 61  1  0
 11 62  1  6
 12 63  1  6
 13 64  1  0
 13 65  1  0
 14 66  1  6
 15 67  1  0
 15 68  1  0
 16 69  1  0
 17 70  1  0
 17 71  1  0
 18 72  1  0
 18 73  1  0
 19 74  1  0
 19 75  1  0
 20 76  1  0
 20 77  1  0
 21 78  1  0
 21 79  1  0
 22 80  1  0
 23 81  1  0
 23 82  1  0
 24 83  1  0
 25 84  1  0
 25 85  1  0
 26 86  1  0
 26 87  1  0
 27 88  1  0
 27 89  1  0
 28 90  1  0
 28 91  1  0
 29 92  1  0
 29 93  1  0
 30 94  1  0
 31 95  1  0
 32 96  1  6
 33 97  1  1
 34 98  1  0
 35 99  1  0
 36100  1  0
 36101  1  0
 36102  1  0
 37103  1  0
 37104  1  0
 37105  1  0
 38106  1  1
 40107  1  0
 40108  1  0
 41109  1  0
 42110  1  0
 43111  1  0
 43112  1  0
 45113  1  0
 46114  1  0
 47115  1  0
 48116  1  0
 48117  1  0
 48118  1  0
 49119  1  0
 49120  1  0
 49121  1  0
 50122  1  0
 50123  1  0
 50124  1  0
M  END
>  <PDBID>  (1) 
1HXW

>  <PDB ID>  (1) 
1HXW

>  <Generic Name>  (1) 
Ritonavir

>  <Brand Name>  (1) 
Holkira Pak#Kaletra#Lopinavir-ritonavir#Norvir#Norvir Sec#Technivie#Viekira Pak#Viekira XR#Busvir#Empetus#Normune

>  <DrugBank ID>  (1) 
DB00503

>  <ATC Codes>  (1) 
J05AX67#J05AR10#J05AE03#J05AX66

>  <Ligand ID>  (1) 
RIT

>  <Target Name>  (1) 
Pol polyprotein

>  <UniProt ID>  (1) 
Q72874

>  <PDB ID.1>  (1) 
1HXW

>  <Seq. Identity>  (1) 
98%

$$$$
