PDB_DB00869_08
     RDKit          3D

 43 44  0  0  0  0  0  0  0  0999 V2000
    2.2865   -1.2123   -0.9605 S   0  0  0  0  0  0  0  0  0  0  0  0
    2.5706    0.0148    0.3786 C   0  0  0  0  0  0  0  0  0  0  0  0
    1.2396    0.7305    0.4297 C   0  0  0  0  0  0  0  0  0  0  0  0
    0.2186   -0.3658    0.2781 C   0  0  0  0  0  0  0  0  0  0  0  0
   -1.1907    0.1263    0.3619 C   0  0  2  0  0  0  0  0  0  0  0  0
   -2.1409   -0.6426   -0.5331 C   0  0  0  0  0  0  0  0  0  0  0  0
   -1.9394   -2.1341   -0.4148 C   0  0  1  0  0  0  0  0  0  0  0  0
   -0.3178   -2.6030   -0.9579 S   0  0  0  0  0  0  0  0  0  0  0  0
    0.4634   -1.0391   -1.0550 C   0  0  2  0  0  0  0  0  0  0  0  0
    3.8811    1.0530   -0.0774 S   0  0  0  0  0  0  0  0  0  0  0  0
    3.3530    1.8228   -1.5356 O   0  0  0  0  0  0  0  0  0  0  0  0
    5.1529    0.2053   -0.5381 O   0  0  0  0  0  0  0  0  0  0  0  0
    4.1292    2.1105    1.0492 N   0  0  0  0  0  0  0  0  0  0  0  0
   -1.3112    1.5327    0.1555 N   0  0  0  0  0  0  0  0  0  0  0  0
   -2.2034   -2.5457    0.9945 C   0  0  0  0  0  0  0  0  0  0  0  0
    0.5813   -3.6462    0.2340 O   0  0  0  0  0  0  0  0  0  0  0  0
   -0.2403   -3.4828   -2.5002 O   0  0  0  0  0  0  0  0  0  0  0  0
   -2.6673    1.9733    0.2333 C   0  0  0  0  0  0  0  0  0  0  0  0
   -2.7675    3.4894    0.0149 C   0  0  0  0  0  0  0  0  0  0  0  0
    2.7827   -0.5366    1.2992 H   0  0  0  0  0  0  0  0  0  0  0  0
    1.1309    1.1349    1.4475 H   0  0  0  0  0  0  0  0  0  0  0  0
    1.1623    1.5134   -0.3302 H   0  0  0  0  0  0  0  0  0  0  0  0
    0.4354   -1.1181    1.0657 H   0  0  0  0  0  0  0  0  0  0  0  0
   -1.5455   -0.0775    1.4150 H   0  0  0  0  0  0  0  0  0  0  0  0
   -3.1716   -0.4591   -0.1278 H   0  0  0  0  0  0  0  0  0  0  0  0
   -2.1435   -0.2809   -1.5733 H   0  0  0  0  0  0  0  0  0  0  0  0
   -2.7046   -2.6055   -1.0675 H   0  0  0  0  0  0  0  0  0  0  0  0
    0.1502   -0.4523   -1.9081 H   0  0  0  0  0  0  0  0  0  0  0  0
    2.9750    2.6850   -1.2721 H   0  0  0  0  0  0  0  0  0  0  0  0
    4.9827   -0.7810   -0.5055 H   0  0  0  0  0  0  0  0  0  0  0  0
    4.9520    2.7180    1.0420 H   0  0  0  0  0  0  0  0  0  0  0  0
    3.6803    2.0194    1.9988 H   0  0  0  0  0  0  0  0  0  0  0  0
   -0.8192    1.9120   -0.6576 H   0  0  0  0  0  0  0  0  0  0  0  0
   -1.2653   -2.7446    1.5313 H   0  0  0  0  0  0  0  0  0  0  0  0
   -2.9087   -3.4066    1.0291 H   0  0  0  0  0  0  0  0  0  0  0  0
   -2.7364   -1.7263    1.5594 H   0  0  0  0  0  0  0  0  0  0  0  0
    1.4941   -3.6437   -0.1415 H   0  0  0  0  0  0  0  0  0  0  0  0
   -0.6810   -4.3362   -2.3276 H   0  0  0  0  0  0  0  0  0  0  0  0
   -3.1182    1.7639    1.2094 H   0  0  0  0  0  0  0  0  0  0  0  0
   -3.2517    1.5151   -0.6078 H   0  0  0  0  0  0  0  0  0  0  0  0
   -2.0281    3.8514   -0.7042 H   0  0  0  0  0  0  0  0  0  0  0  0
   -2.6485    3.9626    1.0301 H   0  0  0  0  0  0  0  0  0  0  0  0
   -3.8211    3.7055   -0.2953 H   0  0  0  0  0  0  0  0  0  0  0  0
  1  2  1  0
  2  3  1  0
  3  4  1  0
  4  5  1  0
  5  6  1  0
  6  7  1  0
  7  8  1  0
  1  9  1  0
  4  9  1  0
  8  9  1  0
  2 10  1  0
 10 11  1  0
 10 12  1  0
 10 13  1  0
  5 14  1  0
  7 15  1  0
  8 16  1  0
  8 17  1  0
 14 18  1  0
 18 19  1  0
  2 20  1  0
  3 21  1  0
  3 22  1  0
  4 23  1  0
  5 24  1  1
  6 25  1  0
  6 26  1  0
  7 27  1  6
  9 28  1  6
 11 29  1  0
 12 30  1  0
 13 31  1  0
 13 32  1  0
 14 33  1  0
 15 34  1  0
 15 35  1  0
 15 36  1  0
 16 37  1  0
 17 38  1  0
 18 39  1  0
 18 40  1  0
 19 41  1  0
 19 42  1  0
 19 43  1  0
M  END
>  <PDBID>  (1) 
1CIL

>  <PDB ID>  (1) 
1CIL

>  <Generic Name>  (1) 
Dorzolamide

>  <Brand Name>  (1) 
Act Dorzotimolol#Apo-dorzo-timop#Apo-dorzolamide#Cosopt#Cosopt PF#Dorzolamide#Dorzolamide HCl#Dorzolamide HCl /timolol Maleate#Dorzolamide HCl and Timolol Maleate#Dorzolamide Hydrochloride#Dorzolamide Hydrochloride Ophthalmic Solution#Dorzolamide Hydrochloride Ophthalmic Solution 2%, 10ml Ophthalmic Solution 2%, 10ml#Dorzolamide Hydrochloride and Timolol Maleate#Dorzolamide Hydrochloride and Timolol Maleate Ophthalmic Solution#Dorzolamide Hydrochloride-timolol Maleate#Dorzolamide Hydrochloride-timolol Maleate Ophthalmic Solution Sterile Ophthalmic Solution#Jamp-dorzolamide#Jamp-dorzolamide/timolol#Med-dorzolamide#Med-dorzolamide-timolol#Mint-dorzolamide/timolol#Mylan-dorzolamide/timolol#PMS-dorzolamide-timolol#Riva-dorzolamide#Riva-dorzolamide/timolol#Sandoz Dorzolamide#Sandoz Dorzolamide/timolol#Teva-dorzotimol#Trusopt#Van-dorzolamide-timolol

>  <DrugBank ID>  (1) 
DB00869

>  <ATC Codes>  (1) 
S01EC03

>  <Ligand ID>  (1) 
ETS

>  <Target Name>  (1) 
Carbonic anhydrase 2

>  <UniProt ID>  (1) 
P00918

>  <PDB ID.1>  (1) 
1CIL

>  <Seq. Identity>  (1) 
100%

$$$$
