PDB_DB06401_05
     RDKit          3D

348367  0  0  0  0  0  0  0  0999 V2000
    7.8389    1.7345    0.5218 C   0  0  1  0  0  0  0  0  0  0  0  0
    8.7916    0.9332    1.3165 C   0  0  0  0  0  0  0  0  0  0  0  0
    9.6640    0.0040    0.5523 C   0  0  0  0  0  0  0  0  0  0  0  0
    9.6986    0.2225   -0.9161 C   0  0  0  0  0  0  0  0  0  0  0  0
    8.2903    0.2720   -1.4825 C   0  0  0  0  0  0  0  0  0  0  0  0
    7.5472    1.3684   -0.8171 C   0  0  1  0  0  0  0  0  0  0  0  0
    6.5795    1.0554    0.1763 N   0  0  0  0  0  0  0  0  0  0  0  0
    6.3092   -0.2236    0.7112 C   0  0  0  0  0  0  0  0  0  0  0  0
    4.9846   -0.7895    0.2271 C   0  0  0  0  0  0  0  0  0  0  0  0
    3.9421    0.0417    0.6015 O   0  0  0  0  0  0  0  0  0  0  0  0
    2.7347   -0.4646    0.1557 C   0  0  0  0  0  0  0  0  0  0  0  0
    2.0926    0.4732   -0.8248 C   0  0  0  0  0  0  0  0  0  0  0  0
    0.7625   -0.0001   -1.2871 C   0  0  0  0  0  0  0  0  0  0  0  0
    1.8155   -0.6814    1.3105 C   0  0  0  0  0  0  0  0  0  0  0  0
    0.4909    0.0729    1.0930 C   0  0  0  0  0  0  0  0  0  0  0  0
   -0.1272   -0.5333   -0.1294 C   0  0  0  0  0  0  0  0  0  0  0  0
   -1.5036    0.0032   -0.4791 C   0  0  0  0  0  0  0  0  0  0  0  0
   -2.6028   -0.2283    0.2279 N   0  0  0  0  0  0  0  0  0  0  0  0
   -2.9632    0.1619    1.5163 C   0  0  0  0  0  0  0  0  0  0  0  0
   -3.4276    1.6122    1.6537 C   0  0  0  0  0  0  0  0  0  0  0  0
   -3.9344    1.8484    3.0487 C   0  0  0  0  0  0  0  0  0  0  0  0
   -5.0770    0.9425    3.4046 C   0  0  0  0  0  0  0  0  0  0  0  0
   -4.7861    0.0698    4.4366 O   0  0  0  0  0  0  0  0  0  0  0  0
   -5.3696    0.1061    2.1491 C   0  0  0  0  0  0  0  0  0  0  0  0
   -4.1661   -0.7199    1.9134 C   0  0  0  0  0  0  0  0  0  0  0  0
   -4.2737   -1.6213    0.6588 C   0  0  0  0  0  0  0  0  0  0  0  0
   -5.6022   -2.2270    0.7002 C   0  0  0  0  0  0  0  0  0  0  0  0
   -3.8684   -0.6555   -0.3596 C   0  0  2  0  0  0  0  0  0  0  0  0
   -3.9253   -0.8711   -1.7929 C   0  0  0  0  0  0  0  0  0  0  0  0
   -5.2586   -1.4426   -2.2495 C   0  0  0  0  0  0  0  0  0  0  0  0
   -6.3806   -0.4531   -2.2386 C   0  0  0  0  0  0  0  0  0  0  0  0
   -6.2084    0.4792   -3.4183 C   0  0  0  0  0  0  0  0  0  0  0  0
   -6.9414    0.0495   -4.4987 O   0  0  0  0  0  0  0  0  0  0  0  0
   -4.7436    0.5155   -3.7590 C   0  0  0  0  0  0  0  0  0  0  0  0
   -3.9089    0.5214   -2.4738 C   0  0  0  0  0  0  0  0  0  0  0  0
    7.1925   -0.4786   -0.1871 C   0  0  1  0  0  0  0  0  0  0  0  0
    8.4044    0.0873   -0.8792 C   0  0  0  0  0  0  0  0  0  0  0  0
    9.6352   -0.3550   -0.1209 C   0  0  0  0  0  0  0  0  0  0  0  0
    9.5148    0.2155    1.2785 C   0  0  0  0  0  0  0  0  0  0  0  0
    8.4433   -0.5787    1.9804 C   0  0  0  0  0  0  0  0  0  0  0  0
    7.2298   -0.8262    1.1682 C   0  0  1  0  0  0  0  0  0  0  0  0
    6.4859    0.3636    0.7613 N   0  0  0  0  0  0  0  0  0  0  0  0
    5.0412    0.2112    0.8836 C   0  0  0  0  0  0  0  0  0  0  0  0
    4.3497    0.6639   -0.3625 C   0  0  0  0  0  0  0  0  0  0  0  0
    2.9805    0.5503   -0.3143 O   0  0  0  0  0  0  0  0  0  0  0  0
    2.4954   -0.7184   -0.1023 C   0  0  0  0  0  0  0  0  0  0  0  0
    1.5167   -0.6449    1.0435 C   0  0  0  0  0  0  0  0  0  0  0  0
    0.1161   -0.6795    0.4958 C   0  0  0  0  0  0  0  0  0  0  0  0
    1.7505   -1.0917   -1.3993 C   0  0  0  0  0  0  0  0  0  0  0  0
    0.9362    0.1316   -1.7456 C   0  0  0  0  0  0  0  0  0  0  0  0
   -0.0293    0.3798   -0.6010 C   0  0  0  0  0  0  0  0  0  0  0  0
   -1.4087    0.2121   -1.1696 C   0  0  0  0  0  0  0  0  0  0  0  0
   -2.4925    0.3731   -0.2907 N   0  0  0  0  0  0  0  0  0  0  0  0
   -2.8406    1.6101    0.2295 C   0  0  0  0  0  0  0  0  0  0  0  0
   -1.9381    2.7834    0.0182 C   0  0  0  0  0  0  0  0  0  0  0  0
   -2.8401    4.0296    0.0157 C   0  0  0  0  0  0  0  0  0  0  0  0
   -3.9627    3.9183    1.0016 C   0  0  0  0  0  0  0  0  0  0  0  0
   -4.6908    5.1213    0.8901 O   0  0  0  0  0  0  0  0  0  0  0  0
   -4.9324    2.7973    0.6326 C   0  0  0  0  0  0  0  0  0  0  0  0
   -4.2193    1.9237   -0.3672 C   0  0  0  0  0  0  0  0  0  0  0  0
   -4.8179    0.5412   -0.4530 C   0  0  1  0  0  0  0  0  0  0  0  0
   -5.9454    0.6304   -1.4673 C   0  0  0  0  0  0  0  0  0  0  0  0
   -3.6687   -0.2845   -0.8676 C   0  0  2  0  0  0  0  0  0  0  0  0
   -3.7124   -1.7270   -0.4079 C   0  0  0  0  0  0  0  0  0  0  0  0
   -4.8394   -2.4575   -1.0402 C   0  0  0  0  0  0  0  0  0  0  0  0
   -5.9370   -2.9390   -0.1833 C   0  0  0  0  0  0  0  0  0  0  0  0
   -5.3626   -3.5109    1.0956 C   0  0  0  0  0  0  0  0  0  0  0  0
   -4.2512   -4.2854    0.7336 O   0  0  0  0  0  0  0  0  0  0  0  0
   -4.7824   -2.2940    1.8240 C   0  0  0  0  0  0  0  0  0  0  0  0
   -3.5731   -1.8702    1.0769 C   0  0  0  0  0  0  0  0  0  0  0  0
    6.8646   -0.5727   -1.8531 C   0  0  0  0  0  0  0  0  0  0  0  0
    8.2033    0.1030   -2.0617 C   0  0  0  0  0  0  0  0  0  0  0  0
    8.5415    0.8396   -0.7753 C   0  0  0  0  0  0  0  0  0  0  0  0
    9.1154   -0.1455    0.1927 C   0  0  0  0  0  0  0  0  0  0  0  0
    8.3306   -1.4144    0.3127 C   0  0  0  0  0  0  0  0  0  0  0  0
    6.8538   -1.1989    0.4643 C   0  0  0  0  0  0  0  0  0  0  0  0
    6.3252   -0.2996   -0.5432 N   0  0  0  0  0  0  0  0  0  0  0  0
    4.8940   -0.3112   -0.6186 C   0  0  0  0  0  0  0  0  0  0  0  0
    4.2383   -0.0369    0.7015 C   0  0  0  0  0  0  0  0  0  0  0  0
    2.8687   -0.0375    0.6699 O   0  0  0  0  0  0  0  0  0  0  0  0
    2.2823    0.8894   -0.1552 C   0  0  0  0  0  0  0  0  0  0  0  0
    1.3675    0.1687   -1.1089 C   0  0  0  0  0  0  0  0  0  0  0  0
   -0.0674    0.4555   -0.8168 C   0  0  0  0  0  0  0  0  0  0  0  0
    1.4121    1.8757    0.6382 C   0  0  0  0  0  0  0  0  0  0  0  0
    0.4024    1.1402    1.4535 C   0  0  0  0  0  0  0  0  0  0  0  0
   -0.4417    0.1661    0.6264 C   0  0  0  0  0  0  0  0  0  0  0  0
   -1.8996    0.4131    0.8555 C   0  0  0  0  0  0  0  0  0  0  0  0
   -2.8700   -0.2347    0.1991 N   0  0  0  0  0  0  0  0  0  0  0  0
   -3.2307   -1.5855    0.2927 C   0  0  0  0  0  0  0  0  0  0  0  0
   -2.2610   -2.6550    0.0371 C   0  0  0  0  0  0  0  0  0  0  0  0
   -1.8050   -3.4261    1.2495 C   0  0  0  0  0  0  0  0  0  0  0  0
   -2.8960   -3.6706    2.2491 C   0  0  0  0  0  0  0  0  0  0  0  0
   -2.3471   -4.3776    3.3110 O   0  0  0  0  0  0  0  0  0  0  0  0
   -3.3871   -2.2962    2.7096 C   0  0  0  0  0  0  0  0  0  0  0  0
   -4.0436   -1.6877    1.5388 C   0  0  0  0  0  0  0  0  0  0  0  0
   -4.5002   -0.2269    1.7575 C   0  0  0  0  0  0  0  0  0  0  0  0
   -5.9375   -0.2456    2.2223 C   0  0  0  0  0  0  0  0  0  0  0  0
   -4.2334    0.3280    0.4100 C   0  0  1  0  0  0  0  0  0  0  0  0
   -4.2932    1.7742    0.1688 C   0  0  0  0  0  0  0  0  0  0  0  0
   -3.7904    2.1656   -1.2128 C   0  0  0  0  0  0  0  0  0  0  0  0
   -4.6088    3.3030   -1.7781 C   0  0  0  0  0  0  0  0  0  0  0  0
   -6.0235    2.9291   -2.1188 C   0  0  0  0  0  0  0  0  0  0  0  0
   -6.1107    2.4824   -3.4376 O   0  0  0  0  0  0  0  0  0  0  0  0
   -6.4263    1.8132   -1.1455 C   0  0  0  0  0  0  0  0  0  0  0  0
   -5.7387    2.2146    0.1708 C   0  0  0  0  0  0  0  0  0  0  0  0
    6.8264    0.9753   -0.4939 C   0  0  2  0  0  0  0  0  0  0  0  0
    7.3718   -0.3156   -1.0589 C   0  0  0  0  0  0  0  0  0  0  0  0
    8.8188    0.0102   -1.4676 C   0  0  0  0  0  0  0  0  0  0  0  0
    9.5810    0.0640   -0.1637 C   0  0  0  0  0  0  0  0  0  0  0  0
    8.9295    0.9264    0.8845 C   0  0  0  0  0  0  0  0  0  0  0  0
    7.6695    1.5863    0.4724 C   0  0  2  0  0  0  0  0  0  0  0  0
    6.3972    1.0831    0.8660 N   0  0  0  0  0  0  0  0  0  0  0  0
    6.1790   -0.0557    1.6791 C   0  0  0  0  0  0  0  0  0  0  0  0
    4.9487   -0.7879    1.1656 C   0  0  0  0  0  0  0  0  0  0  0  0
    3.8839    0.1059    1.2690 O   0  0  0  0  0  0  0  0  0  0  0  0
    2.6892   -0.4806    0.7938 C   0  0  0  0  0  0  0  0  0  0  0  0
    2.2921    0.3055   -0.4107 C   0  0  0  0  0  0  0  0  0  0  0  0
    0.9469    0.0120   -0.9646 C   0  0  0  0  0  0  0  0  0  0  0  0
    1.6653   -0.5255    1.8756 C   0  0  0  0  0  0  0  0  0  0  0  0
    0.3945    0.1419    1.3616 C   0  0  0  0  0  0  0  0  0  0  0  0
   -0.0205   -0.5847    0.1056 C   0  0  0  0  0  0  0  0  0  0  0  0
   -1.3847   -0.1761   -0.4175 C   0  0  0  0  0  0  0  0  0  0  0  0
   -2.5312   -0.5309    0.1793 N   0  0  0  0  0  0  0  0  0  0  0  0
   -3.0144   -0.1748    1.4462 C   0  0  0  0  0  0  0  0  0  0  0  0
   -3.2624    1.2982    1.6617 C   0  0  0  0  0  0  0  0  0  0  0  0
   -3.9492    1.5175    2.9820 C   0  0  0  0  0  0  0  0  0  0  0  0
   -5.2186    0.7387    3.1315 C   0  0  0  0  0  0  0  0  0  0  0  0
   -5.1394   -0.2570    4.0958 O   0  0  0  0  0  0  0  0  0  0  0  0
   -5.4540    0.0521    1.7751 C   0  0  0  0  0  0  0  0  0  0  0  0
   -4.3563   -0.9261    1.6129 C   0  0  0  0  0  0  0  0  0  0  0  0
   -4.4075   -1.6932    0.2686 C   0  0  0  0  0  0  0  0  0  0  0  0
   -5.7791   -2.1526    0.1087 C   0  0  0  0  0  0  0  0  0  0  0  0
   -3.7675   -0.6995   -0.5948 C   0  0  2  0  0  0  0  0  0  0  0  0
   -3.6776   -0.8081   -2.0376 C   0  0  0  0  0  0  0  0  0  0  0  0
   -5.0428   -1.0335   -2.6787 C   0  0  0  0  0  0  0  0  0  0  0  0
   -5.9737    0.1231   -2.4843 C   0  0  0  0  0  0  0  0  0  0  0  0
   -5.5281    1.2549   -3.3843 C   0  0  0  0  0  0  0  0  0  0  0  0
   -6.2956    1.3238   -4.5404 O   0  0  0  0  0  0  0  0  0  0  0  0
   -4.1137    1.0106   -3.7766 C   0  0  0  0  0  0  0  0  0  0  0  0
   -3.2194    0.5293   -2.6321 C   0  0  0  0  0  0  0  0  0  0  0  0
    7.7398    2.8146    0.8330 H   0  0  0  0  0  0  0  0  0  0  0  0
    9.4487    1.6114    1.9415 H   0  0  0  0  0  0  0  0  0  0  0  0
    8.2407    0.3348    2.0796 H   0  0  0  0  0  0  0  0  0  0  0  0
   10.7363    0.0943    0.9091 H   0  0  0  0  0  0  0  0  0  0  0  0
    9.4421   -1.0849    0.7362 H   0  0  0  0  0  0  0  0  0  0  0  0
   10.1879   -0.6674   -1.3813 H   0  0  0  0  0  0  0  0  0  0  0  0
   10.3042    1.0902   -1.2430 H   0  0  0  0  0  0  0  0  0  0  0  0
    7.8515   -0.7332   -1.3785 H   0  0  0  0  0  0  0  0  0  0  0  0
    8.3900    0.4500   -2.6052 H   0  0  0  0  0  0  0  0  0  0  0  0
    7.3123    2.2226   -1.5342 H   0  0  0  0  0  0  0  0  0  0  0  0
    7.0938   -0.9425    0.4276 H   0  0  0  0  0  0  0  0  0  0  0  0
    6.3160   -0.2401    1.8412 H   0  0  0  0  0  0  0  0  0  0  0  0
    5.0497   -0.9298   -0.8682 H   0  0  0  0  0  0  0  0  0  0  0  0
    4.8034   -1.7864    0.6726 H   0  0  0  0  0  0  0  0  0  0  0  0
    2.9382   -1.4262   -0.4036 H   0  0  0  0  0  0  0  0  0  0  0  0
    2.7608    0.4670   -1.7377 H   0  0  0  0  0  0  0  0  0  0  0  0
    2.1054    1.5334   -0.4865 H   0  0  0  0  0  0  0  0  0  0  0  0
    0.9116   -0.7852   -2.0540 H   0  0  0  0  0  0  0  0  0  0  0  0
    0.2762    0.8429   -1.8125 H   0  0  0  0  0  0  0  0  0  0  0  0
    2.2463   -0.4353    2.2922 H   0  0  0  0  0  0  0  0  0  0  0  0
    1.5348   -1.7597    1.3318 H   0  0  0  0  0  0  0  0  0  0  0  0
    0.6909    1.1514    0.9254 H   0  0  0  0  0  0  0  0  0  0  0  0
   -0.0381   -0.0180    2.0271 H   0  0  0  0  0  0  0  0  0  0  0  0
   -0.0385   -1.6162   -0.1918 H   0  0  0  0  0  0  0  0  0  0  0  0
   -1.3197    1.1000   -0.6738 H   0  0  0  0  0  0  0  0  0  0  0  0
   -1.6181   -0.4122   -1.5452 H   0  0  0  0  0  0  0  0  0  0  0  0
   -2.2691    0.0128    2.3491 H   0  0  0  0  0  0  0  0  0  0  0  0
   -4.0643    1.9576    0.8480 H   0  0  0  0  0  0  0  0  0  0  0  0
   -2.4753    2.2185    1.5776 H   0  0  0  0  0  0  0  0  0  0  0  0
   -4.1747    2.9017    3.2071 H   0  0  0  0  0  0  0  0  0  0  0  0
   -3.0805    1.5692    3.7347 H   0  0  0  0  0  0  0  0  0  0  0  0
   -5.9813    1.5087    3.7076 H   0  0  0  0  0  0  0  0  0  0  0  0
   -5.5849   -0.4799    4.5866 H   0  0  0  0  0  0  0  0  0  0  0  0
   -5.6605    0.8227    1.3884 H   0  0  0  0  0  0  0  0  0  0  0  0
   -6.2652   -0.4925    2.3916 H   0  0  0  0  0  0  0  0  0  0  0  0
   -3.9721   -1.3268    2.8015 H   0  0  0  0  0  0  0  0  0  0  0  0
   -3.5034   -2.4193    0.8321 H   0  0  0  0  0  0  0  0  0  0  0  0
   -6.4568   -1.6863    0.3161 H   0  0  0  0  0  0  0  0  0  0  0  0
   -5.5410   -3.3089    0.3605 H   0  0  0  0  0  0  0  0  0  0  0  0
   -5.8644   -2.3923    1.8021 H   0  0  0  0  0  0  0  0  0  0  0  0
   -4.5304    0.2761   -0.1800 H   0  0  0  0  0  0  0  0  0  0  0  0
   -3.1624   -1.5322   -2.2481 H   0  0  0  0  0  0  0  0  0  0  0  0
   -5.5422   -2.3799   -1.7910 H   0  0  0  0  0  0  0  0  0  0  0  0
   -5.1067   -1.7126   -3.3409 H   0  0  0  0  0  0  0  0  0  0  0  0
   -6.4634    0.1048   -1.2820 H   0  0  0  0  0  0  0  0  0  0  0  0
   -7.3229   -1.0187   -2.3654 H   0  0  0  0  0  0  0  0  0  0  0  0
   -6.5176    1.5028   -3.1236 H   0  0  0  0  0  0  0  0  0  0  0  0
   -4.5494    1.5314   -4.1986 H   0  0  0  0  0  0  0  0  0  0  0  0
   -4.4071   -0.2037   -4.4989 H   0  0  0  0  0  0  0  0  0  0  0  0
   -4.4256    1.2562   -1.8234 H   0  0  0  0  0  0  0  0  0  0  0  0
   -2.9188    0.8388   -2.8017 H   0  0  0  0  0  0  0  0  0  0  0  0
    6.5067   -1.0226   -0.8895 H   0  0  0  0  0  0  0  0  0  0  0  0
    8.3617    1.2022   -0.9406 H   0  0  0  0  0  0  0  0  0  0  0  0
    8.5176   -0.2584   -1.9251 H   0  0  0  0  0  0  0  0  0  0  0  0
    9.5758   -1.4682   -0.0610 H   0  0  0  0  0  0  0  0  0  0  0  0
   10.5679   -0.0268   -0.6195 H   0  0  0  0  0  0  0  0  0  0  0  0
    9.1605    1.2617    1.1786 H   0  0  0  0  0  0  0  0  0  0  0  0
   10.4501    0.1252    1.8471 H   0  0  0  0  0  0  0  0  0  0  0  0
    8.8862   -1.5550    2.3273 H   0  0  0  0  0  0  0  0  0  0  0  0
    8.1656   -0.0385    2.9064 H   0  0  0  0  0  0  0  0  0  0  0  0
    6.6356   -1.7187    1.5233 H   0  0  0  0  0  0  0  0  0  0  0  0
    4.7369    0.9270    1.6969 H   0  0  0  0  0  0  0  0  0  0  0  0
    4.7470   -0.7939    1.1792 H   0  0  0  0  0  0  0  0  0  0  0  0
    4.5668    1.7449   -0.5631 H   0  0  0  0  0  0  0  0  0  0  0  0
    4.7154    0.1334   -1.2765 H   0  0  0  0  0  0  0  0  0  0  0  0
    3.2363   -1.5046    0.0297 H   0  0  0  0  0  0  0  0  0  0  0  0
    1.6151    0.3108    1.6117 H   0  0  0  0  0  0  0  0  0  0  0  0
    1.6415   -1.4568    1.7859 H   0  0  0  0  0  0  0  0  0  0  0  0
   -0.5924   -0.3290    1.3041 H   0  0  0  0  0  0  0  0  0  0  0  0
   -0.2354   -1.6661    0.1925 H   0  0  0  0  0  0  0  0  0  0  0  0
    1.1606   -2.0033   -1.2631 H   0  0  0  0  0  0  0  0  0  0  0  0
    2.5335   -1.3210   -2.1458 H   0  0  0  0  0  0  0  0  0  0  0  0
    0.4222   -0.0619   -2.7078 H   0  0  0  0  0  0  0  0  0  0  0  0
    1.6480    0.9729   -1.8309 H   0  0  0  0  0  0  0  0  0  0  0  0
    0.1893    1.3253   -0.1195 H   0  0  0  0  0  0  0  0  0  0  0  0
   -1.5242    0.7975   -2.1358 H   0  0  0  0  0  0  0  0  0  0  0  0
   -1.4343   -0.8526   -1.5563 H   0  0  0  0  0  0  0  0  0  0  0  0
   -3.0157    1.5188    1.3362 H   0  0  0  0  0  0  0  0  0  0  0  0
   -1.2337    2.9535    0.8559 H   0  0  0  0  0  0  0  0  0  0  0  0
   -1.4257    2.8206   -0.9539 H   0  0  0  0  0  0  0  0  0  0  0  0
   -3.2404    4.2212   -0.9944 H   0  0  0  0  0  0  0  0  0  0  0  0
   -2.2273    4.8899    0.2984 H   0  0  0  0  0  0  0  0  0  0  0  0
   -3.6213    3.8403    2.0331 H   0  0  0  0  0  0  0  0  0  0  0  0
   -4.8778    5.2559   -0.0954 H   0  0  0  0  0  0  0  0  0  0  0  0
   -5.8369    3.1990    0.1342 H   0  0  0  0  0  0  0  0  0  0  0  0
   -5.2700    2.2541    1.5213 H   0  0  0  0  0  0  0  0  0  0  0  0
   -4.1349    2.4170   -1.3389 H   0  0  0  0  0  0  0  0  0  0  0  0
   -5.2086    0.3201    0.5611 H   0  0  0  0  0  0  0  0  0  0  0  0
   -5.5139    0.4891   -2.4560 H   0  0  0  0  0  0  0  0  0  0  0  0
   -6.3249    1.6892   -1.4290 H   0  0  0  0  0  0  0  0  0  0  0  0
   -6.7829   -0.0626   -1.2124 H   0  0  0  0  0  0  0  0  0  0  0  0
   -3.5898   -0.2856   -1.9692 H   0  0  0  0  0  0  0  0  0  0  0  0
   -2.7762   -2.1687   -0.8464 H   0  0  0  0  0  0  0  0  0  0  0  0
   -4.4842   -3.3514   -1.6453 H   0  0  0  0  0  0  0  0  0  0  0  0
   -5.2877   -1.8012   -1.8458 H   0  0  0  0  0  0  0  0  0  0  0  0
   -6.7301   -2.1963    0.0375 H   0  0  0  0  0  0  0  0  0  0  0  0
   -6.4819   -3.7630   -0.7266 H   0  0  0  0  0  0  0  0  0  0  0  0
   -6.0836   -4.0444    1.7115 H   0  0  0  0  0  0  0  0  0  0  0  0
   -4.0196   -4.9621    1.4077 H   0  0  0  0  0  0  0  0  0  0  0  0
   -4.4389   -2.6937    2.8163 H   0  0  0  0  0  0  0  0  0  0  0  0
   -5.5405   -1.5409    2.0191 H   0  0  0  0  0  0  0  0  0  0  0  0
   -2.7594   -2.6153    1.3258 H   0  0  0  0  0  0  0  0  0  0  0  0
   -3.1960   -0.9090    1.4949 H   0  0  0  0  0  0  0  0  0  0  0  0
    6.9320   -1.6759   -2.0188 H   0  0  0  0  0  0  0  0  0  0  0  0
    6.1661   -0.1922   -2.6278 H   0  0  0  0  0  0  0  0  0  0  0  0
    8.1668    0.8450   -2.8854 H   0  0  0  0  0  0  0  0  0  0  0  0
    8.9464   -0.6848   -2.2663 H   0  0  0  0  0  0  0  0  0  0  0  0
    7.6169    1.2630   -0.3250 H   0  0  0  0  0  0  0  0  0  0  0  0
    9.2828    1.6073   -1.0251 H   0  0  0  0  0  0  0  0  0  0  0  0
    9.3147    0.3313    1.1805 H   0  0  0  0  0  0  0  0  0  0  0  0
   10.1349   -0.4267   -0.2034 H   0  0  0  0  0  0  0  0  0  0  0  0
    8.5946   -2.0890   -0.5334 H   0  0  0  0  0  0  0  0  0  0  0  0
    8.6815   -1.9354    1.2323 H   0  0  0  0  0  0  0  0  0  0  0  0
    6.6903   -0.7571    1.4777 H   0  0  0  0  0  0  0  0  0  0  0  0
    6.3537   -2.1631    0.3491 H   0  0  0  0  0  0  0  0  0  0  0  0
    4.5891   -1.3025   -1.0165 H   0  0  0  0  0  0  0  0  0  0  0  0
    4.6007    0.4701   -1.3487 H   0  0  0  0  0  0  0  0  0  0  0  0
    4.5522   -0.8519    1.3943 H   0  0  0  0  0  0  0  0  0  0  0  0
    4.6501    0.9005    1.1370 H   0  0  0  0  0  0  0  0  0  0  0  0
    3.0006    1.5343   -0.7019 H   0  0  0  0  0  0  0  0  0  0  0  0
    1.5716    0.5559   -2.1390 H   0  0  0  0  0  0  0  0  0  0  0  0
    1.5519   -0.9207   -1.1367 H   0  0  0  0  0  0  0  0  0  0  0  0
   -0.3258    1.5049   -1.0747 H   0  0  0  0  0  0  0  0  0  0  0  0
   -0.7145   -0.1758   -1.4782 H   0  0  0  0  0  0  0  0  0  0  0  0
    1.0124    2.6368   -0.0311 H   0  0  0  0  0  0  0  0  0  0  0  0
    2.1111    2.3687    1.3429 H   0  0  0  0  0  0  0  0  0  0  0  0
    0.9418    0.6171    2.2670 H   0  0  0  0  0  0  0  0  0  0  0  0
   -0.2950    1.8908    1.8829 H   0  0  0  0  0  0  0  0  0  0  0  0
   -0.0769   -0.8216    0.8679 H   0  0  0  0  0  0  0  0  0  0  0  0
   -2.0046    0.2754    1.9796 H   0  0  0  0  0  0  0  0  0  0  0  0
   -2.0088    1.5130    0.7532 H   0  0  0  0  0  0  0  0  0  0  0  0
   -4.0058   -1.6849   -0.5398 H   0  0  0  0  0  0  0  0  0  0  0  0
   -1.3753   -2.2719   -0.5086 H   0  0  0  0  0  0  0  0  0  0  0  0
   -2.6473   -3.4658   -0.6607 H   0  0  0  0  0  0  0  0  0  0  0  0
   -1.3694   -4.4109    0.9863 H   0  0  0  0  0  0  0  0  0  0  0  0
   -1.0068   -2.8460    1.7545 H   0  0  0  0  0  0  0  0  0  0  0  0
   -3.7710   -4.1833    1.8165 H   0  0  0  0  0  0  0  0  0  0  0  0
   -2.9993   -5.0672    3.5894 H   0  0  0  0  0  0  0  0  0  0  0  0
   -4.1830   -2.4402    3.4930 H   0  0  0  0  0  0  0  0  0  0  0  0
   -2.5389   -1.7454    3.1155 H   0  0  0  0  0  0  0  0  0  0  0  0
   -5.0097   -2.2520    1.3827 H   0  0  0  0  0  0  0  0  0  0  0  0
   -3.8970    0.2270    2.5726 H   0  0  0  0  0  0  0  0  0  0  0  0
   -6.6644   -0.4461    1.4451 H   0  0  0  0  0  0  0  0  0  0  0  0
   -6.1034    0.5713    2.9125 H   0  0  0  0  0  0  0  0  0  0  0  0
   -5.9823   -1.1766    2.8856 H   0  0  0  0  0  0  0  0  0  0  0  0
   -4.8581   -0.2314   -0.3201 H   0  0  0  0  0  0  0  0  0  0  0  0
   -3.7778    2.3938    0.9061 H   0  0  0  0  0  0  0  0  0  0  0  0
   -2.7536    2.5570   -1.2117 H   0  0  0  0  0  0  0  0  0  0  0  0
   -3.9145    1.3083   -1.9113 H   0  0  0  0  0  0  0  0  0  0  0  0
   -4.0875    3.7208   -2.7004 H   0  0  0  0  0  0  0  0  0  0  0  0
   -4.5475    4.1448   -1.0580 H   0  0  0  0  0  0  0  0  0  0  0  0
   -6.6665    3.8171   -1.9467 H   0  0  0  0  0  0  0  0  0  0  0  0
   -7.0095    2.7405   -3.7897 H   0  0  0  0  0  0  0  0  0  0  0  0
   -7.5079    1.7729   -1.0018 H   0  0  0  0  0  0  0  0  0  0  0  0
   -5.9823    0.8934   -1.5733 H   0  0  0  0  0  0  0  0  0  0  0  0
   -6.3513    1.7850    0.9678 H   0  0  0  0  0  0  0  0  0  0  0  0
   -5.8141    3.3332    0.2512 H   0  0  0  0  0  0  0  0  0  0  0  0
    6.2813    1.5880   -1.2403 H   0  0  0  0  0  0  0  0  0  0  0  0
    6.8612   -0.6617   -1.9714 H   0  0  0  0  0  0  0  0  0  0  0  0
    7.4771   -1.1260   -0.3145 H   0  0  0  0  0  0  0  0  0  0  0  0
    8.8556    0.9759   -2.0127 H   0  0  0  0  0  0  0  0  0  0  0  0
    9.2576   -0.8281   -2.0491 H   0  0  0  0  0  0  0  0  0  0  0  0
    9.6248   -0.9954    0.2161 H   0  0  0  0  0  0  0  0  0  0  0  0
   10.6251    0.3516   -0.4013 H   0  0  0  0  0  0  0  0  0  0  0  0
    9.7207    1.6773    1.1856 H   0  0  0  0  0  0  0  0  0  0  0  0
    8.7652    0.3332    1.8166 H   0  0  0  0  0  0  0  0  0  0  0  0
    7.7184    2.7158    0.4817 H   0  0  0  0  0  0  0  0  0  0  0  0
    7.0040   -0.7950    1.6793 H   0  0  0  0  0  0  0  0  0  0  0  0
    6.0497    0.2543    2.7432 H   0  0  0  0  0  0  0  0  0  0  0  0
    5.1550   -1.0675    0.1164 H   0  0  0  0  0  0  0  0  0  0  0  0
    4.8130   -1.6999    1.7734 H   0  0  0  0  0  0  0  0  0  0  0  0
    2.9802   -1.5123    0.4491 H   0  0  0  0  0  0  0  0  0  0  0  0
    3.0435    0.0458   -1.2167 H   0  0  0  0  0  0  0  0  0  0  0  0
    2.4651    1.4148   -0.2653 H   0  0  0  0  0  0  0  0  0  0  0  0
    1.0100   -0.6780   -1.8221 H   0  0  0  0  0  0  0  0  0  0  0  0
    0.5212    0.9660   -1.3594 H   0  0  0  0  0  0  0  0  0  0  0  0
    1.9898   -0.1124    2.8371 H   0  0  0  0  0  0  0  0  0  0  0  0
    1.3872   -1.6095    2.0369 H   0  0  0  0  0  0  0  0  0  0  0  0
    0.6356    1.2057    1.0481 H   0  0  0  0  0  0  0  0  0  0  0  0
   -0.3535    0.2526    2.1317 H   0  0  0  0  0  0  0  0  0  0  0  0
    0.1840   -1.6485    0.0845 H   0  0  0  0  0  0  0  0  0  0  0  0
   -1.2877    0.9291   -0.5889 H   0  0  0  0  0  0  0  0  0  0  0  0
   -1.3437   -0.6171   -1.4662 H   0  0  0  0  0  0  0  0  0  0  0  0
   -2.4485   -0.5246    2.3349 H   0  0  0  0  0  0  0  0  0  0  0  0
   -3.7353    1.8112    0.8255 H   0  0  0  0  0  0  0  0  0  0  0  0
   -2.2341    1.7519    1.7866 H   0  0  0  0  0  0  0  0  0  0  0  0
   -4.1877    2.5976    3.1322 H   0  0  0  0  0  0  0  0  0  0  0  0
   -3.2535    1.1977    3.7848 H   0  0  0  0  0  0  0  0  0  0  0  0
   -6.1161    1.3640    3.3096 H   0  0  0  0  0  0  0  0  0  0  0  0
   -5.8934   -0.8839    3.9175 H   0  0  0  0  0  0  0  0  0  0  0  0
   -5.5310    0.8664    1.0635 H   0  0  0  0  0  0  0  0  0  0  0  0
   -6.4585   -0.4009    1.8555 H   0  0  0  0  0  0  0  0  0  0  0  0
   -4.3510   -1.6221    2.4503 H   0  0  0  0  0  0  0  0  0  0  0  0
   -3.7272   -2.5765    0.4121 H   0  0  0  0  0  0  0  0  0  0  0  0
   -6.5578   -1.4752   -0.2085 H   0  0  0  0  0  0  0  0  0  0  0  0
   -5.8029   -3.1571   -0.4226 H   0  0  0  0  0  0  0  0  0  0  0  0
   -6.1405   -2.4936    1.1491 H   0  0  0  0  0  0  0  0  0  0  0  0
   -4.3035    0.2933   -0.3959 H   0  0  0  0  0  0  0  0  0  0  0  0
   -3.0625   -1.6516   -2.4347 H   0  0  0  0  0  0  0  0  0  0  0  0
   -5.5125   -1.9763   -2.4368 H   0  0  0  0  0  0  0  0  0  0  0  0
   -4.8287   -1.1042   -3.7879 H   0  0  0  0  0  0  0  0  0  0  0  0
   -6.0489    0.4454   -1.4316 H   0  0  0  0  0  0  0  0  0  0  0  0
   -6.9817   -0.1927   -2.8073 H   0  0  0  0  0  0  0  0  0  0  0  0
   -5.6185    2.2269   -2.8534 H   0  0  0  0  0  0  0  0  0  0  0  0
   -3.6895    2.0414   -3.9988 H   0  0  0  0  0  0  0  0  0  0  0  0
   -3.9546    0.4644   -4.7129 H   0  0  0  0  0  0  0  0  0  0  0  0
   -3.2380    1.3493   -1.8929 H   0  0  0  0  0  0  0  0  0  0  0  0
   -2.2224    0.4332   -3.1598 H   0  0  0  0  0  0  0  0  0  0  0  0
  1  2  1  0
  2  3  1  0
  3  4  1  0
  4  5  1  0
  5  6  1  0
  6  1  1  0
  1  7  1  0
  6  7  1  0
  7  8  1  0
  8  9  1  0
  9 10  1  0
 10 11  1  0
 11 12  1  0
 12 13  1  0
 11 14  1  0
 14 15  1  0
 13 16  1  0
 15 16  1  0
 16 17  1  0
 17 18  1  0
 18 19  1  0
 19 20  1  0
 20 21  1  0
 21 22  1  0
 22 23  1  0
 22 24  1  0
 19 25  1  0
 24 25  1  0
 25 26  1  0
 26 27  1  0
 18 28  1  0
 26 28  1  0
 28 29  1  0
 29 30  1  0
 30 31  1  0
 31 32  1  0
 32 33  1  0
 32 34  1  0
 29 35  1  0
 34 35  1  0
 36 37  1  0
 37 38  1  0
 38 39  1  0
 39 40  1  0
 40 41  1  0
 41 36  1  0
 36 42  1  0
 41 42  1  0
 42 43  1  0
 43 44  1  0
 44 45  1  0
 45 46  1  0
 46 47  1  0
 47 48  1  0
 46 49  1  0
 49 50  1  0
 48 51  1  0
 50 51  1  0
 51 52  1  0
 52 53  1  0
 53 54  1  0
 54 55  1  0
 55 56  1  0
 56 57  1  0
 57 58  1  0
 57 59  1  0
 54 60  1  0
 59 60  1  0
 60 61  1  0
 61 62  1  0
 53 63  1  0
 61 63  1  0
 63 64  1  0
 64 65  1  0
 65 66  1  0
 66 67  1  0
 67 68  1  0
 67 69  1  0
 64 70  1  0
 69 70  1  0
 71 72  1  0
 72 73  1  0
 73 74  1  0
 74 75  1  0
 75 76  1  0
 71 77  1  0
 76 77  1  0
 77 78  1  0
 78 79  1  0
 79 80  1  0
 80 81  1  0
 81 82  1  0
 82 83  1  0
 81 84  1  0
 84 85  1  0
 83 86  1  0
 85 86  1  0
 86 87  1  0
 87 88  1  0
 88 89  1  0
 89 90  1  0
 90 91  1  0
 91 92  1  0
 92 93  1  0
 92 94  1  0
 89 95  1  0
 94 95  1  0
 95 96  1  0
 96 97  1  0
 88 98  1  0
 96 98  1  0
 98 99  1  0
 99100  1  0
100101  1  0
101102  1  0
102103  1  0
102104  1  0
 99105  1  0
104105  1  0
106107  1  0
107108  1  0
108109  1  0
109110  1  0
110111  1  0
111106  1  0
106112  1  0
111112  1  0
112113  1  0
113114  1  0
114115  1  0
115116  1  0
116117  1  0
117118  1  0
116119  1  0
119120  1  0
118121  1  0
120121  1  0
121122  1  0
122123  1  0
123124  1  0
124125  1  0
125126  1  0
126127  1  0
127128  1  0
127129  1  0
124130  1  0
129130  1  0
130131  1  0
131132  1  0
123133  1  0
131133  1  0
133134  1  0
134135  1  0
135136  1  0
136137  1  0
137138  1  0
137139  1  0
134140  1  0
139140  1  0
  1141  1  6
  2142  1  0
  2143  1  0
  3144  1  0
  3145  1  0
  4146  1  0
  4147  1  0
  5148  1  0
  5149  1  0
  6150  1  6
  8151  1  0
  8152  1  0
  9153  1  0
  9154  1  0
 11155  1  0
 12156  1  0
 12157  1  0
 13158  1  0
 13159  1  0
 14160  1  0
 14161  1  0
 15162  1  0
 15163  1  0
 16164  1  0
 17165  1  0
 17166  1  0
 19167  1  0
 20168  1  0
 20169  1  0
 21170  1  0
 21171  1  0
 22172  1  0
 23173  1  0
 24174  1  0
 24175  1  0
 25176  1  0
 26177  1  0
 27178  1  0
 27179  1  0
 27180  1  0
 28181  1  6
 29182  1  0
 30183  1  0
 30184  1  0
 31185  1  0
 31186  1  0
 32187  1  0
 34188  1  0
 34189  1  0
 35190  1  0
 35191  1  0
 36192  1  6
 37193  1  0
 37194  1  0
 38195  1  0
 38196  1  0
 39197  1  0
 39198  1  0
 40199  1  0
 40200  1  0
 41201  1  6
 43202  1  0
 43203  1  0
 44204  1  0
 44205  1  0
 46206  1  0
 47207  1  0
 47208  1  0
 48209  1  0
 48210  1  0
 49211  1  0
 49212  1  0
 50213  1  0
 50214  1  0
 51215  1  0
 52216  1  0
 52217  1  0
 54218  1  0
 55219  1  0
 55220  1  0
 56221  1  0
 56222  1  0
 57223  1  0
 58224  1  0
 59225  1  0
 59226  1  0
 60227  1  0
 61228  1  1
 62229  1  0
 62230  1  0
 62231  1  0
 63232  1  6
 64233  1  0
 65234  1  0
 65235  1  0
 66236  1  0
 66237  1  0
 67238  1  0
 68239  1  0
 69240  1  0
 69241  1  0
 70242  1  0
 70243  1  0
 71244  1  0
 71245  1  0
 72246  1  0
 72247  1  0
 73248  1  0
 73249  1  0
 74250  1  0
 74251  1  0
 75252  1  0
 75253  1  0
 76254  1  0
 76255  1  0
 78256  1  0
 78257  1  0
 79258  1  0
 79259  1  0
 81260  1  0
 82261  1  0
 82262  1  0
 83263  1  0
 83264  1  0
 84265  1  0
 84266  1  0
 85267  1  0
 85268  1  0
 86269  1  0
 87270  1  0
 87271  1  0
 89272  1  0
 90273  1  0
 90274  1  0
 91275  1  0
 91276  1  0
 92277  1  0
 93278  1  0
 94279  1  0
 94280  1  0
 95281  1  0
 96282  1  0
 97283  1  0
 97284  1  0
 97285  1  0
 98286  1  6
 99287  1  0
100288  1  0
100289  1  0
101290  1  0
101291  1  0
102292  1  0
103293  1  0
104294  1  0
104295  1  0
105296  1  0
105297  1  0
106298  1  6
107299  1  0
107300  1  0
108301  1  0
108302  1  0
109303  1  0
109304  1  0
110305  1  0
110306  1  0
111307  1  6
113308  1  0
113309  1  0
114310  1  0
114311  1  0
116312  1  0
117313  1  0
117314  1  0
118315  1  0
118316  1  0
119317  1  0
119318  1  0
120319  1  0
120320  1  0
121321  1  0
122322  1  0
122323  1  0
124324  1  0
125325  1  0
125326  1  0
126327  1  0
126328  1  0
127329  1  0
128330  1  0
129331  1  0
129332  1  0
130333  1  0
131334  1  0
132335  1  0
132336  1  0
132337  1  0
133338  1  6
134339  1  0
135340  1  0
135341  1  0
136342  1  0
136343  1  0
137344  1  0
139345  1  0
139346  1  0
140347  1  0
140348  1  0
M  END
>  <PDBID>  (1) 
4XI3

>  <PDB ID>  (1) 
4XI3

>  <Generic Name>  (1) 
Bazedoxifene

>  <Brand Name>  (1) 
Duavee#Duavive#Aprela#Viviant

>  <DrugBank ID>  (1) 
DB06401

>  <ATC Codes>  (1) 
G03CC07#G03XC02

>  <Ligand ID>  (1) 
29S

>  <Target Name>  (1) 
Estrogen receptor

>  <UniProt ID>  (1) 
P03372

>  <PDB ID.1>  (1) 
4XI3

>  <Seq. Identity>  (1) 
92%

$$$$
