PDB_DB01394_05
     RDKit          3D

 70 72  0  0  0  0  0  0  0  0999 V2000
   -2.4928   -2.7899    2.6363 O   0  0  0  0  0  0  0  0  0  0  0  0
   -3.0743   -3.0557    1.3868 C   0  0  0  0  0  0  0  0  0  0  0  0
   -2.5557   -4.3976    0.8669 C   0  0  0  0  0  0  0  0  0  0  0  0
   -2.9071   -1.9918    0.4636 N   0  0  0  0  0  0  0  0  0  0  0  0
   -1.5632   -1.5526    0.1928 C   0  0  2  0  0  0  0  0  0  0  0  0
   -1.5925   -0.0519    0.2476 C   0  0  0  0  0  0  0  0  0  0  0  0
   -2.7700    0.3813   -0.6469 C   0  0  0  0  0  0  0  0  0  0  0  0
   -1.0569   -2.1316   -1.0632 C   0  0  0  0  0  0  0  0  0  0  0  0
    0.4540   -2.3143   -0.8361 C   0  0  0  0  0  0  0  0  0  0  0  0
    1.0654   -0.9878   -1.2335 C   0  0  2  0  0  0  0  0  0  0  0  0
    2.4703   -1.2492   -1.6559 C   0  0  0  0  0  0  0  0  0  0  0  0
    3.4730   -1.0717   -0.5463 C   0  0  0  0  0  0  0  0  0  0  0  0
    3.3067    0.1983    0.2098 C   0  0  0  0  0  0  0  0  0  0  0  0
    2.0644    0.9928   -0.2904 C   0  0  0  0  0  0  0  0  0  0  0  0
    2.2797    1.3653   -1.6060 O   0  0  0  0  0  0  0  0  0  0  0  0
    2.5534    2.6862   -1.8136 C   0  0  0  0  0  0  0  0  0  0  0  0
    3.1347    0.0485    1.5758 O   0  0  0  0  0  0  0  0  0  0  0  0
    4.0665    0.7930    2.2684 C   0  0  0  0  0  0  0  0  0  0  0  0
    4.7391   -1.0517   -1.1577 O   0  0  0  0  0  0  0  0  0  0  0  0
    5.5600   -2.0759   -0.6887 C   0  0  0  0  0  0  0  0  0  0  0  0
    0.9109    0.0720   -0.1642 C   0  0  1  0  0  0  0  0  0  0  0  0
   -0.4292    0.7215   -0.1856 C   0  0  0  0  0  0  0  0  0  0  0  0
   -0.3672    2.0037    0.5895 C   0  0  0  0  0  0  0  0  0  0  0  0
   -1.6652    2.5438    1.0997 C   0  0  0  0  0  0  0  0  0  0  0  0
   -2.7529    2.6805    0.0784 C   0  0  1  0  0  0  0  0  0  0  0  0
   -3.5595    1.3725    0.1332 C   0  0  0  0  0  0  0  0  0  0  0  0
   -3.6283    0.9630    1.4674 O   0  0  0  0  0  0  0  0  0  0  0  0
   -3.6372    3.6673    0.5148 O   0  0  0  0  0  0  0  0  0  0  0  0
   -3.8292    4.6737   -0.4251 C   0  0  0  0  0  0  0  0  0  0  0  0
   -1.9132   -3.5847    2.8390 H   0  0  0  0  0  0  0  0  0  0  0  0
   -4.1593   -3.1919    1.5788 H   0  0  0  0  0  0  0  0  0  0  0  0
   -3.0458   -5.2438    1.4208 H   0  0  0  0  0  0  0  0  0  0  0  0
   -1.4709   -4.4574    0.8178 H   0  0  0  0  0  0  0  0  0  0  0  0
   -2.9939   -4.5052   -0.1731 H   0  0  0  0  0  0  0  0  0  0  0  0
   -3.3941   -2.3219   -0.4313 H   0  0  0  0  0  0  0  0  0  0  0  0
   -0.9313   -1.8746    1.0752 H   0  0  0  0  0  0  0  0  0  0  0  0
   -1.8115    0.1957    1.3296 H   0  0  0  0  0  0  0  0  0  0  0  0
   -3.4190   -0.4244   -0.9459 H   0  0  0  0  0  0  0  0  0  0  0  0
   -2.3625    0.8530   -1.5883 H   0  0  0  0  0  0  0  0  0  0  0  0
   -1.2174   -1.4528   -1.9338 H   0  0  0  0  0  0  0  0  0  0  0  0
   -1.4507   -3.1269   -1.2694 H   0  0  0  0  0  0  0  0  0  0  0  0
    0.8687   -3.1460   -1.4206 H   0  0  0  0  0  0  0  0  0  0  0  0
    0.6795   -2.4371    0.2580 H   0  0  0  0  0  0  0  0  0  0  0  0
    0.4977   -0.6617   -2.1528 H   0  0  0  0  0  0  0  0  0  0  0  0
    2.7953   -0.6807   -2.5590 H   0  0  0  0  0  0  0  0  0  0  0  0
    2.5782   -2.3297   -1.9815 H   0  0  0  0  0  0  0  0  0  0  0  0
    3.4176   -1.9140    0.1789 H   0  0  0  0  0  0  0  0  0  0  0  0
    4.1765    0.9010    0.0650 H   0  0  0  0  0  0  0  0  0  0  0  0
    2.0924    1.8868    0.3330 H   0  0  0  0  0  0  0  0  0  0  0  0
    2.7130    2.7984   -2.9305 H   0  0  0  0  0  0  0  0  0  0  0  0
    3.5168    3.0192   -1.3624 H   0  0  0  0  0  0  0  0  0  0  0  0
    1.7656    3.3547   -1.4766 H   0  0  0  0  0  0  0  0  0  0  0  0
    3.9190    1.8741    1.9772 H   0  0  0  0  0  0  0  0  0  0  0  0
    5.0787    0.5369    1.9520 H   0  0  0  0  0  0  0  0  0  0  0  0
    3.9032    0.7597    3.3701 H   0  0  0  0  0  0  0  0  0  0  0  0
    5.6911   -1.9503    0.4192 H   0  0  0  0  0  0  0  0  0  0  0  0
    6.5679   -1.8860   -1.1169 H   0  0  0  0  0  0  0  0  0  0  0  0
    5.2074   -3.0787   -0.9627 H   0  0  0  0  0  0  0  0  0  0  0  0
    0.9993   -0.4552    0.8141 H   0  0  0  0  0  0  0  0  0  0  0  0
   -0.5853    1.0439   -1.2681 H   0  0  0  0  0  0  0  0  0  0  0  0
    0.0416    2.8113   -0.0686 H   0  0  0  0  0  0  0  0  0  0  0  0
    0.2766    1.8304    1.4749 H   0  0  0  0  0  0  0  0  0  0  0  0
   -2.0504    2.0765    2.0200 H   0  0  0  0  0  0  0  0  0  0  0  0
   -1.4415    3.6075    1.4166 H   0  0  0  0  0  0  0  0  0  0  0  0
   -2.3667    2.8814   -0.9428 H   0  0  0  0  0  0  0  0  0  0  0  0
   -4.6012    1.5076   -0.2105 H   0  0  0  0  0  0  0  0  0  0  0  0
   -4.1764    1.6251    1.9851 H   0  0  0  0  0  0  0  0  0  0  0  0
   -4.2407    4.1940   -1.3407 H   0  0  0  0  0  0  0  0  0  0  0  0
   -2.8225    5.1270   -0.5950 H   0  0  0  0  0  0  0  0  0  0  0  0
   -4.5289    5.3967   -0.0125 H   0  0  0  0  0  0  0  0  0  0  0  0
  1  2  1  0
  2  3  1  0
  2  4  1  0
  4  5  1  0
  5  6  1  0
  6  7  1  0
  5  8  1  0
  8  9  1  0
  9 10  1  0
 10 11  1  0
 11 12  1  0
 12 13  1  0
 13 14  1  0
 14 15  1  0
 15 16  1  0
 13 17  1  0
 17 18  1  0
 12 19  1  0
 19 20  1  0
 10 21  1  0
 14 21  1  0
  6 22  1  0
 21 22  1  0
 22 23  1  0
 23 24  1  0
 24 25  1  0
  7 26  1  0
 25 26  1  0
 26 27  1  0
 25 28  1  0
 28 29  1  0
  1 30  1  0
  2 31  1  0
  3 32  1  0
  3 33  1  0
  3 34  1  0
  4 35  1  0
  5 36  1  1
  6 37  1  0
  7 38  1  0
  7 39  1  0
  8 40  1  0
  8 41  1  0
  9 42  1  0
  9 43  1  0
 10 44  1  6
 11 45  1  0
 11 46  1  0
 12 47  1  0
 13 48  1  0
 14 49  1  0
 16 50  1  0
 16 51  1  0
 16 52  1  0
 18 53  1  0
 18 54  1  0
 18 55  1  0
 20 56  1  0
 20 57  1  0
 20 58  1  0
 21 59  1  1
 22 60  1  0
 23 61  1  0
 23 62  1  0
 24 63  1  0
 24 64  1  0
 25 65  1  6
 26 66  1  0
 27 67  1  0
 29 68  1  0
 29 69  1  0
 29 70  1  0
M  END
>  <PDBID>  (1) 
5EYP

>  <PDB ID>  (1) 
5EYP

>  <Generic Name>  (1) 
Colchicine

>  <Brand Name>  (1) 
Colchicine#Colchicine Tab 0.6mg#Colchicine Tab 1mg#Colcrys#Euro-colchicine#Jamp-colchicine#Mitigare#PMS-colchicine#Probenecid and Colchicine#Verban Ont

>  <DrugBank ID>  (1) 
DB01394

>  <ATC Codes>  (1) 
M04AC01

>  <Ligand ID>  (1) 
LOC

>  <Target Name>  (1) 
Tubulin beta-1 chain

>  <UniProt ID>  (1) 
Q9H4B7

>  <PDB ID.1>  (1) 
5EYP

>  <Seq. Identity>  (1) 
78%

$$$$
