PDB_DB09073_00
     RDKit          3D

 80 84  0  0  0  0  0  0  0  0999 V2000
   -6.4946   -1.8416    0.9105 O   0  0  0  0  0  0  0  0  0  0  0  0
   -5.6933   -1.7962   -0.2580 C   0  0  0  0  0  0  0  0  0  0  0  0
   -6.2947   -0.7722   -1.1584 C   0  0  0  0  0  0  0  0  0  0  0  0
   -4.3045   -1.5685    0.1758 C   0  0  0  0  0  0  0  0  0  0  0  0
   -3.2795   -1.4802   -0.9194 C   0  0  2  0  0  0  0  0  0  0  0  0
   -3.2792   -2.5895   -1.8880 C   0  0  0  0  0  0  0  0  0  0  0  0
   -1.9545   -1.2672   -0.1855 C   0  0  1  0  0  0  0  0  0  0  0  0
   -0.7781   -1.7337   -0.9472 C   0  0  0  0  0  0  0  0  0  0  0  0
    0.1595   -0.7881   -1.4127 N   0  0  0  0  0  0  0  0  0  0  0  0
    0.1662    0.4948   -0.7579 C   0  0  0  0  0  0  0  0  0  0  0  0
   -1.1952    0.9505   -0.7082 N   0  0  0  0  0  0  0  0  0  0  0  0
   -1.9239    0.1685    0.2455 C   0  0  1  0  0  0  0  0  0  0  0  0
   -3.3127    0.6717    0.3501 N   0  0  0  0  0  0  0  0  0  0  0  0
   -3.3807    1.8283    1.2057 C   0  0  0  0  0  0  0  0  0  0  0  0
   -2.5909    3.0076    0.7842 C   0  0  0  0  0  0  0  0  0  0  0  0
   -3.4199    3.6237   -0.3099 C   0  0  0  0  0  0  0  0  0  0  0  0
   -4.7623    3.7000    0.4371 C   0  0  0  0  0  0  0  0  0  0  0  0
   -4.8202    2.3415    1.1067 C   0  0  0  0  0  0  0  0  0  0  0  0
   -4.0871   -0.3679    1.0587 C   0  0  0  0  0  0  0  0  0  0  0  0
   -3.3467   -0.6861    2.2212 O   0  0  0  0  0  0  0  0  0  0  0  0
    0.7592    0.4777    0.5442 N   0  0  0  0  0  0  0  0  0  0  0  0
    2.1716    0.2349    0.5541 C   0  0  0  0  0  0  0  0  0  0  0  0
    2.6177   -1.0145    0.0699 N   0  0  0  0  0  0  0  0  0  0  0  0
    3.7802   -1.0371   -0.7420 C   0  0  0  0  0  0  0  0  0  0  0  0
    4.9074   -0.1893   -0.2078 C   0  0  1  0  0  0  0  0  0  0  0  0
    4.3956    1.0947    0.3200 C   0  0  0  0  0  0  0  0  0  0  0  0
    2.9633    1.3099   -0.1617 C   0  0  0  0  0  0  0  0  0  0  0  0
    5.7104   -0.9653    0.6746 N   0  0  0  0  0  0  0  0  0  0  0  0
    6.4456   -0.2370    1.6691 C   0  0  0  0  0  0  0  0  0  0  0  0
    7.4436    0.7391    1.1303 C   0  0  0  0  0  0  0  0  0  0  0  0
    7.9556    0.3609   -0.1462 N   0  0  0  0  0  0  0  0  0  0  0  0
    7.9323   -1.0405   -0.4154 C   0  0  0  0  0  0  0  0  0  0  0  0
    6.6650   -1.7402   -0.0900 C   0  0  0  0  0  0  0  0  0  0  0  0
   -5.6075   -0.3659   -1.9239 H   0  0  0  0  0  0  0  0  0  0  0  0
   -6.7929   -0.0014   -0.5410 H   0  0  0  0  0  0  0  0  0  0  0  0
   -7.1478   -1.2887   -1.6951 H   0  0  0  0  0  0  0  0  0  0  0  0
   -4.3425   -2.8622   -2.1027 H   0  0  0  0  0  0  0  0  0  0  0  0
   -2.9011   -2.1910   -2.8762 H   0  0  0  0  0  0  0  0  0  0  0  0
   -2.7842   -3.5115   -1.5868 H   0  0  0  0  0  0  0  0  0  0  0  0
   -1.1397   -2.3250   -1.8437 H   0  0  0  0  0  0  0  0  0  0  0  0
   -3.2099    1.5684    2.2679 H   0  0  0  0  0  0  0  0  0  0  0  0
   -1.5395    2.8857    0.5862 H   0  0  0  0  0  0  0  0  0  0  0  0
   -2.6506    3.7421    1.6461 H   0  0  0  0  0  0  0  0  0  0  0  0
   -3.5713    2.9045   -1.1387 H   0  0  0  0  0  0  0  0  0  0  0  0
   -3.0712    4.6048   -0.6305 H   0  0  0  0  0  0  0  0  0  0  0  0
   -5.5802    3.8656   -0.2737 H   0  0  0  0  0  0  0  0  0  0  0  0
   -4.7044    4.4588    1.2418 H   0  0  0  0  0  0  0  0  0  0  0  0
   -5.3365    2.3518    2.0668 H   0  0  0  0  0  0  0  0  0  0  0  0
   -5.4379    1.7180    0.4057 H   0  0  0  0  0  0  0  0  0  0  0  0
    0.3454   -0.3665    1.0515 H   0  0  0  0  0  0  0  0  0  0  0  0
    3.5879   -0.8468   -1.8205 H   0  0  0  0  0  0  0  0  0  0  0  0
    4.9834    1.9483   -0.0712 H   0  0  0  0  0  0  0  0  0  0  0  0
    2.6554    2.3185    0.1769 H   0  0  0  0  0  0  0  0  0  0  0  0
    5.8146    0.2249    2.4574 H   0  0  0  0  0  0  0  0  0  0  0  0
    7.0439   -1.0169    2.2308 H   0  0  0  0  0  0  0  0  0  0  0  0
    7.0537    1.7868    1.1225 H   0  0  0  0  0  0  0  0  0  0  0  0
    8.3254    0.7886    1.8366 H   0  0  0  0  0  0  0  0  0  0  0  0
    7.7429    0.9754   -0.9330 H   0  0  0  0  0  0  0  0  0  0  0  0
    8.1963   -1.1606   -1.5069 H   0  0  0  0  0  0  0  0  0  0  0  0
    8.8032   -1.5158    0.1254 H   0  0  0  0  0  0  0  0  0  0  0  0
    6.9043   -2.6753    0.4695 H   0  0  0  0  0  0  0  0  0  0  0  0
    6.1741   -2.0563   -1.0295 H   0  0  0  0  0  0  0  0  0  0  0  0
   -6.2118   -2.6558    1.4053 H   0  0  0  0  0  0  0  0  0  0  0  0
   -5.7716   -2.8294   -0.6579 H   0  0  0  0  0  0  0  0  0  0  0  0
   -4.0011   -2.4600    0.7962 H   0  0  0  0  0  0  0  0  0  0  0  0
   -3.5055   -0.5202   -1.4738 H   0  0  0  0  0  0  0  0  0  0  0  0
   -1.9872   -1.8736    0.7656 H   0  0  0  0  0  0  0  0  0  0  0  0
   -0.1807   -2.5211   -0.3885 H   0  0  0  0  0  0  0  0  0  0  0  0
    0.0360   -0.6351   -2.4378 H   0  0  0  0  0  0  0  0  0  0  0  0
    0.7051    1.2086   -1.4458 H   0  0  0  0  0  0  0  0  0  0  0  0
   -1.6145    0.9019   -1.6495 H   0  0  0  0  0  0  0  0  0  0  0  0
   -1.5205    0.3346    1.2650 H   0  0  0  0  0  0  0  0  0  0  0  0
   -5.0221    0.0702    1.4419 H   0  0  0  0  0  0  0  0  0  0  0  0
   -3.7152   -1.5756    2.5057 H   0  0  0  0  0  0  0  0  0  0  0  0
    2.4932    0.3199    1.6369 H   0  0  0  0  0  0  0  0  0  0  0  0
    2.3508   -1.8644    0.5591 H   0  0  0  0  0  0  0  0  0  0  0  0
    4.1611   -2.1028   -0.7306 H   0  0  0  0  0  0  0  0  0  0  0  0
    5.5490    0.0247   -1.1214 H   0  0  0  0  0  0  0  0  0  0  0  0
    4.3074    1.1370    1.4416 H   0  0  0  0  0  0  0  0  0  0  0  0
    2.9595    1.1941   -1.2539 H   0  0  0  0  0  0  0  0  0  0  0  0
  1  2  1  0
  2  3  1  0
  2  4  1  0
  4  5  1  0
  5  6  1  0
  5  7  1  0
  7  8  1  0
  8  9  1  0
  9 10  1  0
 10 11  1  0
  7 12  1  0
 11 12  1  0
 12 13  1  0
 13 14  1  0
 14 15  1  0
 15 16  1  0
 16 17  1  0
 14 18  1  0
 17 18  1  0
  4 19  1  0
 13 19  1  0
 19 20  1  0
 10 21  1  0
 21 22  1  0
 22 23  1  0
 23 24  1  0
 24 25  1  0
 25 26  1  0
 22 27  1  0
 26 27  1  0
 25 28  1  0
 28 29  1  0
 29 30  1  0
 30 31  1  0
 31 32  1  0
 28 33  1  0
 32 33  1  0
  3 34  1  0
  3 35  1  0
  3 36  1  0
  6 37  1  0
  6 38  1  0
  6 39  1  0
  8 40  1  0
 14 41  1  0
 15 42  1  0
 15 43  1  0
 16 44  1  0
 16 45  1  0
 17 46  1  0
 17 47  1  0
 18 48  1  0
 18 49  1  0
 21 50  1  0
 24 51  1  0
 26 52  1  0
 27 53  1  0
 29 54  1  0
 29 55  1  0
 30 56  1  0
 30 57  1  0
 31 58  1  0
 32 59  1  0
 32 60  1  0
 33 61  1  0
 33 62  1  0
  1 63  1  0
  2 64  1  0
  4 65  1  0
  5 66  1  6
  7 67  1  1
  8 68  1  0
  9 69  1  0
 10 70  1  0
 11 71  1  0
 12 72  1  1
 19 73  1  0
 20 74  1  0
 22 75  1  0
 23 76  1  0
 24 77  1  0
 25 78  1  6
 26 79  1  0
 27 80  1  0
M  END
>  <PDBID>  (1) 
5L2I

>  <PDB ID>  (1) 
5L2I

>  <Generic Name>  (1) 
Palbociclib

>  <Brand Name>  (1) 
Ibrance

>  <DrugBank ID>  (1) 
DB09073

>  <ATC Codes>  (1) 
L01XE33

>  <Ligand ID>  (1) 
LQQ

>  <Target Name>  (1) 
Cyclin-dependent kinase 6

>  <UniProt ID>  (1) 
Q00534

>  <PDB ID.1>  (1) 
5L2I

>  <Seq. Identity>  (1) 
100%

$$$$
