PDB_DB00238_04
     RDKit          3D

 48 51  0  0  0  0  0  0  0  0999 V2000
   -0.3987    0.8438    0.0714 N   0  0  0  0  0  0  0  0  0  0  0  0
   -0.5797    2.2528    0.1883 C   0  0  0  0  0  0  0  0  0  0  0  0
   -1.1632    3.0841   -0.8934 C   0  0  0  0  0  0  0  0  0  0  0  0
    0.3046    3.0629   -0.7583 C   0  0  0  0  0  0  0  0  0  0  0  0
    1.7472    1.3251    1.0739 N   0  0  0  0  0  0  0  0  0  0  0  0
    2.8161    0.6423    1.7983 C   0  0  0  0  0  0  0  0  0  0  0  0
    3.5317   -0.3729    0.9556 C   0  0  0  0  0  0  0  0  0  0  0  0
    2.9457   -0.4301   -0.4281 C   0  0  0  0  0  0  0  0  0  0  0  0
    3.5349   -1.5463   -1.2431 C   0  0  0  0  0  0  0  0  0  0  0  0
    0.8110    0.3324    0.6444 C   0  0  2  0  0  0  0  0  0  0  0  0
    1.4575   -0.4972   -0.4603 C   0  0  2  0  0  0  0  0  0  0  0  0
    0.9011   -1.8168   -0.3136 N   0  0  0  0  0  0  0  0  0  0  0  0
   -0.4449   -1.7723   -0.8268 C   0  0  0  0  0  0  0  0  0  0  0  0
   -0.4751   -1.0312   -1.9975 O   0  0  0  0  0  0  0  0  0  0  0  0
   -1.4814   -1.3669    0.1730 C   0  0  1  0  0  0  0  0  0  0  0  0
   -1.5193    0.0737    0.5242 C   0  0  2  0  0  0  0  0  0  0  0  0
   -2.8217   -1.7392   -0.4514 C   0  0  0  0  0  0  0  0  0  0  0  0
   -3.9922   -1.2744    0.3642 C   0  0  0  0  0  0  0  0  0  0  0  0
   -3.8704    0.1529    0.8258 C   0  0  0  0  0  0  0  0  0  0  0  0
   -2.7475    0.7436    0.0999 N   0  0  0  0  0  0  0  0  0  0  0  0
   -0.7137    2.6331    1.2192 H   0  0  0  0  0  0  0  0  0  0  0  0
   -1.6797    4.0249   -0.6056 H   0  0  0  0  0  0  0  0  0  0  0  0
   -1.6573    2.5810   -1.7487 H   0  0  0  0  0  0  0  0  0  0  0  0
    0.8340    3.9014   -0.2748 H   0  0  0  0  0  0  0  0  0  0  0  0
    0.8631    2.5402   -1.5469 H   0  0  0  0  0  0  0  0  0  0  0  0
    2.2096    1.8473    0.3102 H   0  0  0  0  0  0  0  0  0  0  0  0
    3.5413    1.4214    2.1451 H   0  0  0  0  0  0  0  0  0  0  0  0
    2.3970    0.1935    2.7264 H   0  0  0  0  0  0  0  0  0  0  0  0
    3.5557   -1.3906    1.4189 H   0  0  0  0  0  0  0  0  0  0  0  0
    4.6091   -0.0945    0.8310 H   0  0  0  0  0  0  0  0  0  0  0  0
    3.2562    0.5211   -0.9321 H   0  0  0  0  0  0  0  0  0  0  0  0
    3.1816   -2.5407   -0.9317 H   0  0  0  0  0  0  0  0  0  0  0  0
    4.6426   -1.4325   -1.1821 H   0  0  0  0  0  0  0  0  0  0  0  0
    3.2442   -1.3587   -2.3075 H   0  0  0  0  0  0  0  0  0  0  0  0
    0.5540   -0.2990    1.5222 H   0  0  0  0  0  0  0  0  0  0  0  0
    1.1392   -0.1309   -1.4695 H   0  0  0  0  0  0  0  0  0  0  0  0
    0.9406   -2.1472    0.6803 H   0  0  0  0  0  0  0  0  0  0  0  0
   -0.6963   -2.8218   -1.1290 H   0  0  0  0  0  0  0  0  0  0  0  0
    0.0538   -1.5456   -2.6716 H   0  0  0  0  0  0  0  0  0  0  0  0
   -1.3614   -2.0182    1.0598 H   0  0  0  0  0  0  0  0  0  0  0  0
   -1.5272    0.1513    1.6415 H   0  0  0  0  0  0  0  0  0  0  0  0
   -2.8370   -2.8430   -0.5033 H   0  0  0  0  0  0  0  0  0  0  0  0
   -2.9194   -1.2665   -1.4581 H   0  0  0  0  0  0  0  0  0  0  0  0
   -4.8812   -1.3042   -0.3168 H   0  0  0  0  0  0  0  0  0  0  0  0
   -4.2519   -1.9728    1.1974 H   0  0  0  0  0  0  0  0  0  0  0  0
   -4.7594    0.7629    0.5794 H   0  0  0  0  0  0  0  0  0  0  0  0
   -3.6253    0.2019    1.9104 H   0  0  0  0  0  0  0  0  0  0  0  0
   -2.6681    1.7202    0.4894 H   0  0  0  0  0  0  0  0  0  0  0  0
  1  2  1  0
  2  3  1  0
  2  4  1  0
  3  4  1  0
  5  6  1  0
  6  7  1  0
  7  8  1  0
  8  9  1  0
  1 10  1  0
  5 10  1  0
  8 11  1  0
 10 11  1  0
 11 12  1  0
 12 13  1  0
 13 14  1  0
 13 15  1  0
  1 16  1  0
 15 16  1  0
 15 17  1  0
 17 18  1  0
 18 19  1  0
 16 20  1  0
 19 20  1  0
  2 21  1  0
  3 22  1  0
  3 23  1  0
  4 24  1  0
  4 25  1  0
  5 26  1  0
  6 27  1  0
  6 28  1  0
  7 29  1  0
  7 30  1  0
  8 31  1  0
  9 32  1  0
  9 33  1  0
  9 34  1  0
 10 35  1  1
 11 36  1  6
 12 37  1  0
 13 38  1  0
 14 39  1  0
 15 40  1  1
 16 41  1  1
 17 42  1  0
 17 43  1  0
 18 44  1  0
 18 45  1  0
 19 46  1  0
 19 47  1  0
 20 48  1  0
M  END
>  <PDBID>  (1) 
2HND

>  <PDB ID>  (1) 
2HND

>  <Generic Name>  (1) 
Nevirapine

>  <Brand Name>  (1) 
Apo-nevirapine#Apo-nevirapine XR#Apo-zidovudine-lamivudine-nevirapine#Auro-nevirapine#Mylan-nevirapine#Nevirapine#Nevirapine Extended Release#PMS-nevirapine#Teva-nevirapine#Viramune#Viramune XR

>  <DrugBank ID>  (1) 
DB00238

>  <ATC Codes>  (1) 
J05AR05#J05AG01#J05AR07

>  <Ligand ID>  (1) 
NVP

>  <Target Name>  (1) 
Reverse transcriptase/RNaseH

>  <UniProt ID>  (1) 
Q72547

>  <PDB ID.1>  (1) 
2HND

>  <Seq. Identity>  (1) 
96%

$$$$
