PDB_DB01016_06
     RDKit          3D

316324  0  0  0  0  0  0  0  0999 V2000
    5.5600   -1.4126    1.7578 O   0  0  0  0  0  0  0  0  0  0  0  0
    2.9998    2.1233    1.2222 O   0  0  0  0  0  0  0  0  0  0  0  0
    3.4166    1.6154   -1.3505 O   0  0  0  0  0  0  0  0  0  0  0  0
   -5.2636   -2.5151   -2.0201 O   0  0  0  0  0  0  0  0  0  0  0  0
   -9.5106    0.6400   -1.7131 Cl  0  0  0  0  0  0  0  0  0  0  0  0
    3.0964    0.8767    0.1346 S   0  0  0  0  0  0  0  0  0  0  0  0
   -6.1627    1.7127   -0.1236 O   0  0  0  0  0  0  0  0  0  0  0  0
    5.8302    0.9145    1.6052 N   0  0  0  0  0  0  0  0  0  0  0  0
    4.0230   -0.2713    0.4858 N   0  0  0  0  0  0  0  0  0  0  0  0
   -4.4195   -2.1487    0.0997 N   0  0  0  0  0  0  0  0  0  0  0  0
    6.9862    0.8941    0.8000 C   0  0  0  0  0  0  0  0  0  0  0  0
    6.8186    0.8532   -0.6733 C   0  0  0  0  0  0  0  0  0  0  0  0
    7.9993   -0.1753    1.2497 C   0  0  0  0  0  0  0  0  0  0  0  0
    7.9548    0.1672   -1.3937 C   0  0  0  0  0  0  0  0  0  0  0  0
    9.3396    0.3046    0.7212 C   0  0  0  0  0  0  0  0  0  0  0  0
    9.2967    0.3391   -0.7731 C   0  0  0  0  0  0  0  0  0  0  0  0
    4.9366   -0.1799    1.5718 C   0  0  0  0  0  0  0  0  0  0  0  0
    1.4563    0.3472   -0.0578 C   0  0  0  0  0  0  0  0  0  0  0  0
   -1.1966   -0.2085   -0.1124 C   0  0  0  0  0  0  0  0  0  0  0  0
   -2.7037   -0.4060    0.0595 C   0  0  0  0  0  0  0  0  0  0  0  0
    0.5717    1.4729   -0.5192 C   0  0  0  0  0  0  0  0  0  0  0  0
    0.8642   -0.2335    1.2303 C   0  0  0  0  0  0  0  0  0  0  0  0
   -0.8407    1.2534    0.0072 C   0  0  0  0  0  0  0  0  0  0  0  0
   -0.3627   -1.0475    0.7875 C   0  0  0  0  0  0  0  0  0  0  0  0
   -3.0867   -1.8300   -0.0533 C   0  0  0  0  0  0  0  0  0  0  0  0
   -5.4793   -1.8897   -0.7310 C   0  0  0  0  0  0  0  0  0  0  0  0
   -6.0117   -0.5175   -0.9869 C   0  0  0  0  0  0  0  0  0  0  0  0
   -6.3221    0.3239    0.1868 C   0  0  0  0  0  0  0  0  0  0  0  0
   -7.1939   -0.6184   -1.9524 C   0  0  0  0  0  0  0  0  0  0  0  0
   -7.6413    0.1519    0.8506 C   0  0  0  0  0  0  0  0  0  0  0  0
   -8.4931   -0.7842   -1.2660 C   0  0  0  0  0  0  0  0  0  0  0  0
   -8.5051   -0.8712    0.2074 C   0  0  0  0  0  0  0  0  0  0  0  0
   -5.2171    2.3299    0.6428 C   0  0  0  0  0  0  0  0  0  0  0  0
    5.5600   -1.4126    1.7578 O   0  0  0  0  0  0  0  0  0  0  0  0
    2.9998    2.1233    1.2222 O   0  0  0  0  0  0  0  0  0  0  0  0
    3.4166    1.6154   -1.3505 O   0  0  0  0  0  0  0  0  0  0  0  0
   -5.2636   -2.5151   -2.0201 O   0  0  0  0  0  0  0  0  0  0  0  0
   -9.5106    0.6400   -1.7131 Cl  0  0  0  0  0  0  0  0  0  0  0  0
    3.0964    0.8767    0.1346 S   0  0  0  0  0  0  0  0  0  0  0  0
   -6.1627    1.7127   -0.1236 O   0  0  0  0  0  0  0  0  0  0  0  0
    5.8302    0.9145    1.6052 N   0  0  0  0  0  0  0  0  0  0  0  0
    4.0230   -0.2713    0.4858 N   0  0  0  0  0  0  0  0  0  0  0  0
   -4.4195   -2.1487    0.0997 N   0  0  0  0  0  0  0  0  0  0  0  0
    6.9862    0.8941    0.8000 C   0  0  0  0  0  0  0  0  0  0  0  0
    6.8186    0.8532   -0.6733 C   0  0  0  0  0  0  0  0  0  0  0  0
    7.9993   -0.1753    1.2497 C   0  0  0  0  0  0  0  0  0  0  0  0
    7.9548    0.1672   -1.3937 C   0  0  0  0  0  0  0  0  0  0  0  0
    9.3396    0.3046    0.7212 C   0  0  0  0  0  0  0  0  0  0  0  0
    9.2967    0.3391   -0.7731 C   0  0  0  0  0  0  0  0  0  0  0  0
    4.9366   -0.1799    1.5718 C   0  0  0  0  0  0  0  0  0  0  0  0
    1.4563    0.3472   -0.0578 C   0  0  0  0  0  0  0  0  0  0  0  0
   -1.1966   -0.2085   -0.1124 C   0  0  0  0  0  0  0  0  0  0  0  0
   -2.7037   -0.4060    0.0595 C   0  0  0  0  0  0  0  0  0  0  0  0
    0.5717    1.4729   -0.5192 C   0  0  0  0  0  0  0  0  0  0  0  0
    0.8642   -0.2335    1.2303 C   0  0  0  0  0  0  0  0  0  0  0  0
   -0.8407    1.2534    0.0072 C   0  0  0  0  0  0  0  0  0  0  0  0
   -0.3627   -1.0475    0.7875 C   0  0  0  0  0  0  0  0  0  0  0  0
   -3.0867   -1.8300   -0.0533 C   0  0  0  0  0  0  0  0  0  0  0  0
   -5.4793   -1.8897   -0.7310 C   0  0  0  0  0  0  0  0  0  0  0  0
   -6.0117   -0.5175   -0.9869 C   0  0  0  0  0  0  0  0  0  0  0  0
   -6.3221    0.3239    0.1868 C   0  0  0  0  0  0  0  0  0  0  0  0
   -7.1939   -0.6184   -1.9524 C   0  0  0  0  0  0  0  0  0  0  0  0
   -7.6413    0.1519    0.8506 C   0  0  0  0  0  0  0  0  0  0  0  0
   -8.4931   -0.7842   -1.2660 C   0  0  0  0  0  0  0  0  0  0  0  0
   -8.5051   -0.8712    0.2074 C   0  0  0  0  0  0  0  0  0  0  0  0
   -5.2171    2.3299    0.6428 C   0  0  0  0  0  0  0  0  0  0  0  0
    5.5600   -1.4126    1.7578 O   0  0  0  0  0  0  0  0  0  0  0  0
    2.9998    2.1233    1.2222 O   0  0  0  0  0  0  0  0  0  0  0  0
    3.4166    1.6154   -1.3505 O   0  0  0  0  0  0  0  0  0  0  0  0
   -5.2636   -2.5151   -2.0201 O   0  0  0  0  0  0  0  0  0  0  0  0
   -9.5106    0.6400   -1.7131 Cl  0  0  0  0  0  0  0  0  0  0  0  0
    3.0964    0.8767    0.1346 S   0  0  0  0  0  0  0  0  0  0  0  0
   -6.1627    1.7127   -0.1236 O   0  0  0  0  0  0  0  0  0  0  0  0
    5.8302    0.9145    1.6052 N   0  0  0  0  0  0  0  0  0  0  0  0
    4.0230   -0.2713    0.4858 N   0  0  0  0  0  0  0  0  0  0  0  0
   -4.4195   -2.1487    0.0997 N   0  0  0  0  0  0  0  0  0  0  0  0
    6.9862    0.8941    0.8000 C   0  0  0  0  0  0  0  0  0  0  0  0
    6.8186    0.8532   -0.6733 C   0  0  0  0  0  0  0  0  0  0  0  0
    7.9993   -0.1753    1.2497 C   0  0  0  0  0  0  0  0  0  0  0  0
    7.9548    0.1672   -1.3937 C   0  0  0  0  0  0  0  0  0  0  0  0
    9.3396    0.3046    0.7212 C   0  0  0  0  0  0  0  0  0  0  0  0
    9.2967    0.3391   -0.7731 C   0  0  0  0  0  0  0  0  0  0  0  0
    4.9366   -0.1799    1.5718 C   0  0  0  0  0  0  0  0  0  0  0  0
    1.4563    0.3472   -0.0578 C   0  0  0  0  0  0  0  0  0  0  0  0
   -1.1966   -0.2085   -0.1124 C   0  0  0  0  0  0  0  0  0  0  0  0
   -2.7037   -0.4060    0.0595 C   0  0  0  0  0  0  0  0  0  0  0  0
    0.5717    1.4729   -0.5192 C   0  0  0  0  0  0  0  0  0  0  0  0
    0.8642   -0.2335    1.2303 C   0  0  0  0  0  0  0  0  0  0  0  0
   -0.8407    1.2534    0.0072 C   0  0  0  0  0  0  0  0  0  0  0  0
   -0.3627   -1.0475    0.7875 C   0  0  0  0  0  0  0  0  0  0  0  0
   -3.0867   -1.8300   -0.0533 C   0  0  0  0  0  0  0  0  0  0  0  0
   -5.4793   -1.8897   -0.7310 C   0  0  0  0  0  0  0  0  0  0  0  0
   -6.0117   -0.5175   -0.9869 C   0  0  0  0  0  0  0  0  0  0  0  0
   -6.3221    0.3239    0.1868 C   0  0  0  0  0  0  0  0  0  0  0  0
   -7.1939   -0.6184   -1.9524 C   0  0  0  0  0  0  0  0  0  0  0  0
   -7.6413    0.1519    0.8506 C   0  0  0  0  0  0  0  0  0  0  0  0
   -8.4931   -0.7842   -1.2660 C   0  0  0  0  0  0  0  0  0  0  0  0
   -8.5051   -0.8712    0.2074 C   0  0  0  0  0  0  0  0  0  0  0  0
   -5.2171    2.3299    0.6428 C   0  0  0  0  0  0  0  0  0  0  0  0
    5.5600   -1.4126    1.7578 O   0  0  0  0  0  0  0  0  0  0  0  0
    2.9998    2.1233    1.2222 O   0  0  0  0  0  0  0  0  0  0  0  0
    3.4166    1.6154   -1.3505 O   0  0  0  0  0  0  0  0  0  0  0  0
   -5.2636   -2.5151   -2.0201 O   0  0  0  0  0  0  0  0  0  0  0  0
   -9.5106    0.6400   -1.7131 Cl  0  0  0  0  0  0  0  0  0  0  0  0
    3.0964    0.8767    0.1346 S   0  0  0  0  0  0  0  0  0  0  0  0
   -6.1627    1.7127   -0.1236 O   0  0  0  0  0  0  0  0  0  0  0  0
    5.8302    0.9145    1.6052 N   0  0  0  0  0  0  0  0  0  0  0  0
    4.0230   -0.2713    0.4858 N   0  0  0  0  0  0  0  0  0  0  0  0
   -4.4195   -2.1487    0.0997 N   0  0  0  0  0  0  0  0  0  0  0  0
    6.9862    0.8941    0.8000 C   0  0  0  0  0  0  0  0  0  0  0  0
    6.8186    0.8532   -0.6733 C   0  0  0  0  0  0  0  0  0  0  0  0
    7.9993   -0.1753    1.2497 C   0  0  0  0  0  0  0  0  0  0  0  0
    7.9548    0.1672   -1.3937 C   0  0  0  0  0  0  0  0  0  0  0  0
    9.3396    0.3046    0.7212 C   0  0  0  0  0  0  0  0  0  0  0  0
    9.2967    0.3391   -0.7731 C   0  0  0  0  0  0  0  0  0  0  0  0
    4.9366   -0.1799    1.5718 C   0  0  0  0  0  0  0  0  0  0  0  0
    1.4563    0.3472   -0.0578 C   0  0  0  0  0  0  0  0  0  0  0  0
   -1.1966   -0.2085   -0.1124 C   0  0  0  0  0  0  0  0  0  0  0  0
   -2.7037   -0.4060    0.0595 C   0  0  0  0  0  0  0  0  0  0  0  0
    0.5717    1.4729   -0.5192 C   0  0  0  0  0  0  0  0  0  0  0  0
    0.8642   -0.2335    1.2303 C   0  0  0  0  0  0  0  0  0  0  0  0
   -0.8407    1.2534    0.0072 C   0  0  0  0  0  0  0  0  0  0  0  0
   -0.3627   -1.0475    0.7875 C   0  0  0  0  0  0  0  0  0  0  0  0
   -3.0867   -1.8300   -0.0533 C   0  0  0  0  0  0  0  0  0  0  0  0
   -5.4793   -1.8897   -0.7310 C   0  0  0  0  0  0  0  0  0  0  0  0
   -6.0117   -0.5175   -0.9869 C   0  0  0  0  0  0  0  0  0  0  0  0
   -6.3221    0.3239    0.1868 C   0  0  0  0  0  0  0  0  0  0  0  0
   -7.1939   -0.6184   -1.9524 C   0  0  0  0  0  0  0  0  0  0  0  0
   -7.6413    0.1519    0.8506 C   0  0  0  0  0  0  0  0  0  0  0  0
   -8.4931   -0.7842   -1.2660 C   0  0  0  0  0  0  0  0  0  0  0  0
   -8.5051   -0.8712    0.2074 C   0  0  0  0  0  0  0  0  0  0  0  0
   -5.2171    2.3299    0.6428 C   0  0  0  0  0  0  0  0  0  0  0  0
    5.5224   -1.8899    0.8861 H   0  0  0  0  0  0  0  0  0  0  0  0
    2.5909    1.8257    2.0676 H   0  0  0  0  0  0  0  0  0  0  0  0
    3.7922    0.9318   -1.9786 H   0  0  0  0  0  0  0  0  0  0  0  0
   -4.8293   -3.4005   -1.8277 H   0  0  0  0  0  0  0  0  0  0  0  0
    5.3902    1.8352    1.7180 H   0  0  0  0  0  0  0  0  0  0  0  0
    3.8165   -1.2792    0.2397 H   0  0  0  0  0  0  0  0  0  0  0  0
   -4.7377   -2.3329    1.0812 H   0  0  0  0  0  0  0  0  0  0  0  0
    7.5347    1.8656    1.0185 H   0  0  0  0  0  0  0  0  0  0  0  0
    6.6989    1.8940   -1.1052 H   0  0  0  0  0  0  0  0  0  0  0  0
    5.8831    0.3161   -0.9569 H   0  0  0  0  0  0  0  0  0  0  0  0
    8.0197   -0.1944    2.3541 H   0  0  0  0  0  0  0  0  0  0  0  0
    7.8070   -1.1368    0.7796 H   0  0  0  0  0  0  0  0  0  0  0  0
    7.7408   -0.9235   -1.5809 H   0  0  0  0  0  0  0  0  0  0  0  0
    8.0017    0.6098   -2.4142 H   0  0  0  0  0  0  0  0  0  0  0  0
   10.1143   -0.3694    1.1297 H   0  0  0  0  0  0  0  0  0  0  0  0
    9.4884    1.3562    1.0744 H   0  0  0  0  0  0  0  0  0  0  0  0
    9.9211   -0.5437   -1.1117 H   0  0  0  0  0  0  0  0  0  0  0  0
    9.8647    1.2194   -1.1463 H   0  0  0  0  0  0  0  0  0  0  0  0
    4.2873   -0.0747    2.5023 H   0  0  0  0  0  0  0  0  0  0  0  0
    1.4089   -0.4871   -0.7926 H   0  0  0  0  0  0  0  0  0  0  0  0
   -1.0088   -0.4770   -1.1942 H   0  0  0  0  0  0  0  0  0  0  0  0
   -2.9978   -0.0448    1.0694 H   0  0  0  0  0  0  0  0  0  0  0  0
   -3.2282    0.2197   -0.6824 H   0  0  0  0  0  0  0  0  0  0  0  0
    0.8988    2.4628   -0.1506 H   0  0  0  0  0  0  0  0  0  0  0  0
    0.5085    1.5410   -1.6243 H   0  0  0  0  0  0  0  0  0  0  0  0
    1.5677   -0.9520    1.6860 H   0  0  0  0  0  0  0  0  0  0  0  0
    0.5783    0.5442    1.9343 H   0  0  0  0  0  0  0  0  0  0  0  0
   -0.9133    1.6143    1.0516 H   0  0  0  0  0  0  0  0  0  0  0  0
   -1.5153    1.8714   -0.6055 H   0  0  0  0  0  0  0  0  0  0  0  0
   -0.8672   -1.5192    1.6337 H   0  0  0  0  0  0  0  0  0  0  0  0
    0.0742   -1.8902    0.1708 H   0  0  0  0  0  0  0  0  0  0  0  0
   -2.5122   -2.3737    0.7793 H   0  0  0  0  0  0  0  0  0  0  0  0
   -2.7319   -2.2778   -1.0347 H   0  0  0  0  0  0  0  0  0  0  0  0
   -6.3746   -2.4918   -0.3548 H   0  0  0  0  0  0  0  0  0  0  0  0
   -5.2368    0.0294   -1.6076 H   0  0  0  0  0  0  0  0  0  0  0  0
   -5.5430    0.1580    0.9696 H   0  0  0  0  0  0  0  0  0  0  0  0
   -7.0067   -1.5120   -2.5796 H   0  0  0  0  0  0  0  0  0  0  0  0
   -7.1578    0.2557   -2.6385 H   0  0  0  0  0  0  0  0  0  0  0  0
   -8.2177    1.1143    0.9051 H   0  0  0  0  0  0  0  0  0  0  0  0
   -7.4684   -0.1661    1.9310 H   0  0  0  0  0  0  0  0  0  0  0  0
   -9.0884   -1.6590   -1.6610 H   0  0  0  0  0  0  0  0  0  0  0  0
   -9.5782   -0.5879    0.5502 H   0  0  0  0  0  0  0  0  0  0  0  0
   -8.3005   -1.8845    0.6312 H   0  0  0  0  0  0  0  0  0  0  0  0
   -4.2092    1.9479    0.5846 H   0  0  0  0  0  0  0  0  0  0  0  0
   -5.5473    2.2168    1.7187 H   0  0  0  0  0  0  0  0  0  0  0  0
   -5.1793    3.4283    0.4955 H   0  0  0  0  0  0  0  0  0  0  0  0
    5.5224   -1.8899    0.8861 H   0  0  0  0  0  0  0  0  0  0  0  0
    2.5909    1.8257    2.0676 H   0  0  0  0  0  0  0  0  0  0  0  0
    3.7922    0.9318   -1.9786 H   0  0  0  0  0  0  0  0  0  0  0  0
   -4.8293   -3.4005   -1.8277 H   0  0  0  0  0  0  0  0  0  0  0  0
    5.3902    1.8352    1.7180 H   0  0  0  0  0  0  0  0  0  0  0  0
    3.8165   -1.2792    0.2397 H   0  0  0  0  0  0  0  0  0  0  0  0
   -4.7377   -2.3329    1.0812 H   0  0  0  0  0  0  0  0  0  0  0  0
    7.5347    1.8656    1.0185 H   0  0  0  0  0  0  0  0  0  0  0  0
    6.6989    1.8940   -1.1052 H   0  0  0  0  0  0  0  0  0  0  0  0
    5.8831    0.3161   -0.9569 H   0  0  0  0  0  0  0  0  0  0  0  0
    8.0197   -0.1944    2.3541 H   0  0  0  0  0  0  0  0  0  0  0  0
    7.8070   -1.1368    0.7796 H   0  0  0  0  0  0  0  0  0  0  0  0
    7.7408   -0.9235   -1.5809 H   0  0  0  0  0  0  0  0  0  0  0  0
    8.0017    0.6098   -2.4142 H   0  0  0  0  0  0  0  0  0  0  0  0
   10.1143   -0.3694    1.1297 H   0  0  0  0  0  0  0  0  0  0  0  0
    9.4884    1.3562    1.0744 H   0  0  0  0  0  0  0  0  0  0  0  0
    9.9211   -0.5437   -1.1117 H   0  0  0  0  0  0  0  0  0  0  0  0
    9.8647    1.2194   -1.1463 H   0  0  0  0  0  0  0  0  0  0  0  0
    4.2873   -0.0747    2.5023 H   0  0  0  0  0  0  0  0  0  0  0  0
    1.4089   -0.4871   -0.7926 H   0  0  0  0  0  0  0  0  0  0  0  0
   -1.0088   -0.4770   -1.1942 H   0  0  0  0  0  0  0  0  0  0  0  0
   -2.9978   -0.0448    1.0694 H   0  0  0  0  0  0  0  0  0  0  0  0
   -3.2282    0.2197   -0.6824 H   0  0  0  0  0  0  0  0  0  0  0  0
    0.8988    2.4628   -0.1506 H   0  0  0  0  0  0  0  0  0  0  0  0
    0.5085    1.5410   -1.6243 H   0  0  0  0  0  0  0  0  0  0  0  0
    1.5677   -0.9520    1.6860 H   0  0  0  0  0  0  0  0  0  0  0  0
    0.5783    0.5442    1.9343 H   0  0  0  0  0  0  0  0  0  0  0  0
   -0.9133    1.6143    1.0516 H   0  0  0  0  0  0  0  0  0  0  0  0
   -1.5153    1.8714   -0.6055 H   0  0  0  0  0  0  0  0  0  0  0  0
   -0.8672   -1.5192    1.6337 H   0  0  0  0  0  0  0  0  0  0  0  0
    0.0742   -1.8902    0.1708 H   0  0  0  0  0  0  0  0  0  0  0  0
   -2.5122   -2.3737    0.7793 H   0  0  0  0  0  0  0  0  0  0  0  0
   -2.7319   -2.2778   -1.0347 H   0  0  0  0  0  0  0  0  0  0  0  0
   -6.3746   -2.4918   -0.3548 H   0  0  0  0  0  0  0  0  0  0  0  0
   -5.2368    0.0294   -1.6076 H   0  0  0  0  0  0  0  0  0  0  0  0
   -5.5430    0.1580    0.9696 H   0  0  0  0  0  0  0  0  0  0  0  0
   -7.0067   -1.5120   -2.5796 H   0  0  0  0  0  0  0  0  0  0  0  0
   -7.1578    0.2557   -2.6385 H   0  0  0  0  0  0  0  0  0  0  0  0
   -8.2177    1.1143    0.9051 H   0  0  0  0  0  0  0  0  0  0  0  0
   -7.4684   -0.1661    1.9310 H   0  0  0  0  0  0  0  0  0  0  0  0
   -9.0884   -1.6590   -1.6610 H   0  0  0  0  0  0  0  0  0  0  0  0
   -9.5782   -0.5879    0.5502 H   0  0  0  0  0  0  0  0  0  0  0  0
   -8.3005   -1.8845    0.6312 H   0  0  0  0  0  0  0  0  0  0  0  0
   -4.2092    1.9479    0.5846 H   0  0  0  0  0  0  0  0  0  0  0  0
   -5.5473    2.2168    1.7187 H   0  0  0  0  0  0  0  0  0  0  0  0
   -5.1793    3.4283    0.4955 H   0  0  0  0  0  0  0  0  0  0  0  0
    5.5224   -1.8899    0.8861 H   0  0  0  0  0  0  0  0  0  0  0  0
    2.5909    1.8257    2.0676 H   0  0  0  0  0  0  0  0  0  0  0  0
    3.7922    0.9318   -1.9786 H   0  0  0  0  0  0  0  0  0  0  0  0
   -4.8293   -3.4005   -1.8277 H   0  0  0  0  0  0  0  0  0  0  0  0
    5.3902    1.8352    1.7180 H   0  0  0  0  0  0  0  0  0  0  0  0
    3.8165   -1.2792    0.2397 H   0  0  0  0  0  0  0  0  0  0  0  0
   -4.7377   -2.3329    1.0812 H   0  0  0  0  0  0  0  0  0  0  0  0
    7.5347    1.8656    1.0185 H   0  0  0  0  0  0  0  0  0  0  0  0
    6.6989    1.8940   -1.1052 H   0  0  0  0  0  0  0  0  0  0  0  0
    5.8831    0.3161   -0.9569 H   0  0  0  0  0  0  0  0  0  0  0  0
    8.0197   -0.1944    2.3541 H   0  0  0  0  0  0  0  0  0  0  0  0
    7.8070   -1.1368    0.7796 H   0  0  0  0  0  0  0  0  0  0  0  0
    7.7408   -0.9235   -1.5809 H   0  0  0  0  0  0  0  0  0  0  0  0
    8.0017    0.6098   -2.4142 H   0  0  0  0  0  0  0  0  0  0  0  0
   10.1143   -0.3694    1.1297 H   0  0  0  0  0  0  0  0  0  0  0  0
    9.4884    1.3562    1.0744 H   0  0  0  0  0  0  0  0  0  0  0  0
    9.9211   -0.5437   -1.1117 H   0  0  0  0  0  0  0  0  0  0  0  0
    9.8647    1.2194   -1.1463 H   0  0  0  0  0  0  0  0  0  0  0  0
    4.2873   -0.0747    2.5023 H   0  0  0  0  0  0  0  0  0  0  0  0
    1.4089   -0.4871   -0.7926 H   0  0  0  0  0  0  0  0  0  0  0  0
   -1.0088   -0.4770   -1.1942 H   0  0  0  0  0  0  0  0  0  0  0  0
   -2.9978   -0.0448    1.0694 H   0  0  0  0  0  0  0  0  0  0  0  0
   -3.2282    0.2197   -0.6824 H   0  0  0  0  0  0  0  0  0  0  0  0
    0.8988    2.4628   -0.1506 H   0  0  0  0  0  0  0  0  0  0  0  0
    0.5085    1.5410   -1.6243 H   0  0  0  0  0  0  0  0  0  0  0  0
    1.5677   -0.9520    1.6860 H   0  0  0  0  0  0  0  0  0  0  0  0
    0.5783    0.5442    1.9343 H   0  0  0  0  0  0  0  0  0  0  0  0
   -0.9133    1.6143    1.0516 H   0  0  0  0  0  0  0  0  0  0  0  0
   -1.5153    1.8714   -0.6055 H   0  0  0  0  0  0  0  0  0  0  0  0
   -0.8672   -1.5192    1.6337 H   0  0  0  0  0  0  0  0  0  0  0  0
    0.0742   -1.8902    0.1708 H   0  0  0  0  0  0  0  0  0  0  0  0
   -2.5122   -2.3737    0.7793 H   0  0  0  0  0  0  0  0  0  0  0  0
   -2.7319   -2.2778   -1.0347 H   0  0  0  0  0  0  0  0  0  0  0  0
   -6.3746   -2.4918   -0.3548 H   0  0  0  0  0  0  0  0  0  0  0  0
   -5.2368    0.0294   -1.6076 H   0  0  0  0  0  0  0  0  0  0  0  0
   -5.5430    0.1580    0.9696 H   0  0  0  0  0  0  0  0  0  0  0  0
   -7.0067   -1.5120   -2.5796 H   0  0  0  0  0  0  0  0  0  0  0  0
   -7.1578    0.2557   -2.6385 H   0  0  0  0  0  0  0  0  0  0  0  0
   -8.2177    1.1143    0.9051 H   0  0  0  0  0  0  0  0  0  0  0  0
   -7.4684   -0.1661    1.9310 H   0  0  0  0  0  0  0  0  0  0  0  0
   -9.0884   -1.6590   -1.6610 H   0  0  0  0  0  0  0  0  0  0  0  0
   -9.5782   -0.5879    0.5502 H   0  0  0  0  0  0  0  0  0  0  0  0
   -8.3005   -1.8845    0.6312 H   0  0  0  0  0  0  0  0  0  0  0  0
   -4.2092    1.9479    0.5846 H   0  0  0  0  0  0  0  0  0  0  0  0
   -5.5473    2.2168    1.7187 H   0  0  0  0  0  0  0  0  0  0  0  0
   -5.1793    3.4283    0.4955 H   0  0  0  0  0  0  0  0  0  0  0  0
    5.5224   -1.8899    0.8861 H   0  0  0  0  0  0  0  0  0  0  0  0
    2.5909    1.8257    2.0676 H   0  0  0  0  0  0  0  0  0  0  0  0
    3.7922    0.9318   -1.9786 H   0  0  0  0  0  0  0  0  0  0  0  0
   -4.8293   -3.4005   -1.8277 H   0  0  0  0  0  0  0  0  0  0  0  0
    5.3902    1.8352    1.7180 H   0  0  0  0  0  0  0  0  0  0  0  0
    3.8165   -1.2792    0.2397 H   0  0  0  0  0  0  0  0  0  0  0  0
   -4.7377   -2.3329    1.0812 H   0  0  0  0  0  0  0  0  0  0  0  0
    7.5347    1.8656    1.0185 H   0  0  0  0  0  0  0  0  0  0  0  0
    6.6989    1.8940   -1.1052 H   0  0  0  0  0  0  0  0  0  0  0  0
    5.8831    0.3161   -0.9569 H   0  0  0  0  0  0  0  0  0  0  0  0
    8.0197   -0.1944    2.3541 H   0  0  0  0  0  0  0  0  0  0  0  0
    7.8070   -1.1368    0.7796 H   0  0  0  0  0  0  0  0  0  0  0  0
    7.7408   -0.9235   -1.5809 H   0  0  0  0  0  0  0  0  0  0  0  0
    8.0017    0.6098   -2.4142 H   0  0  0  0  0  0  0  0  0  0  0  0
   10.1143   -0.3694    1.1297 H   0  0  0  0  0  0  0  0  0  0  0  0
    9.4884    1.3562    1.0744 H   0  0  0  0  0  0  0  0  0  0  0  0
    9.9211   -0.5437   -1.1117 H   0  0  0  0  0  0  0  0  0  0  0  0
    9.8647    1.2194   -1.1463 H   0  0  0  0  0  0  0  0  0  0  0  0
    4.2873   -0.0747    2.5023 H   0  0  0  0  0  0  0  0  0  0  0  0
    1.4089   -0.4871   -0.7926 H   0  0  0  0  0  0  0  0  0  0  0  0
   -1.0088   -0.4770   -1.1942 H   0  0  0  0  0  0  0  0  0  0  0  0
   -2.9978   -0.0448    1.0694 H   0  0  0  0  0  0  0  0  0  0  0  0
   -3.2282    0.2197   -0.6824 H   0  0  0  0  0  0  0  0  0  0  0  0
    0.8988    2.4628   -0.1506 H   0  0  0  0  0  0  0  0  0  0  0  0
    0.5085    1.5410   -1.6243 H   0  0  0  0  0  0  0  0  0  0  0  0
    1.5677   -0.9520    1.6860 H   0  0  0  0  0  0  0  0  0  0  0  0
    0.5783    0.5442    1.9343 H   0  0  0  0  0  0  0  0  0  0  0  0
   -0.9133    1.6143    1.0516 H   0  0  0  0  0  0  0  0  0  0  0  0
   -1.5153    1.8714   -0.6055 H   0  0  0  0  0  0  0  0  0  0  0  0
   -0.8672   -1.5192    1.6337 H   0  0  0  0  0  0  0  0  0  0  0  0
    0.0742   -1.8902    0.1708 H   0  0  0  0  0  0  0  0  0  0  0  0
   -2.5122   -2.3737    0.7793 H   0  0  0  0  0  0  0  0  0  0  0  0
   -2.7319   -2.2778   -1.0347 H   0  0  0  0  0  0  0  0  0  0  0  0
   -6.3746   -2.4918   -0.3548 H   0  0  0  0  0  0  0  0  0  0  0  0
   -5.2368    0.0294   -1.6076 H   0  0  0  0  0  0  0  0  0  0  0  0
   -5.5430    0.1580    0.9696 H   0  0  0  0  0  0  0  0  0  0  0  0
   -7.0067   -1.5120   -2.5796 H   0  0  0  0  0  0  0  0  0  0  0  0
   -7.1578    0.2557   -2.6385 H   0  0  0  0  0  0  0  0  0  0  0  0
   -8.2177    1.1143    0.9051 H   0  0  0  0  0  0  0  0  0  0  0  0
   -7.4684   -0.1661    1.9310 H   0  0  0  0  0  0  0  0  0  0  0  0
   -9.0884   -1.6590   -1.6610 H   0  0  0  0  0  0  0  0  0  0  0  0
   -9.5782   -0.5879    0.5502 H   0  0  0  0  0  0  0  0  0  0  0  0
   -8.3005   -1.8845    0.6312 H   0  0  0  0  0  0  0  0  0  0  0  0
   -4.2092    1.9479    0.5846 H   0  0  0  0  0  0  0  0  0  0  0  0
   -5.5473    2.2168    1.7187 H   0  0  0  0  0  0  0  0  0  0  0  0
   -5.1793    3.4283    0.4955 H   0  0  0  0  0  0  0  0  0  0  0  0
  6  2  1  0
  3  6  1  0
  6  9  1  0
  8 11  1  0
 11 12  1  0
 11 13  1  0
 12 14  1  0
 13 15  1  0
 14 16  1  0
 15 16  1  0
  1 17  1  0
  8 17  1  0
  9 17  1  0
  6 18  1  0
 19 20  1  0
 18 21  1  0
 18 22  1  0
 19 23  1  0
 21 23  1  0
 19 24  1  0
 22 24  1  0
 10 25  1  0
 20 25  1  0
  4 26  1  0
 10 26  1  0
 26 27  1  0
  7 28  1  0
 27 28  1  0
 27 29  1  0
 28 30  1  0
  5 31  1  0
 29 31  1  0
 30 32  1  0
 31 32  1  0
  7 33  1  0
 39 35  1  0
 36 39  1  0
 39 42  1  0
 41 44  1  0
 44 45  1  0
 44 46  1  0
 45 47  1  0
 46 48  1  0
 47 49  1  0
 48 49  1  0
 34 50  1  0
 41 50  1  0
 42 50  1  0
 39 51  1  0
 52 53  1  0
 51 54  1  0
 51 55  1  0
 52 56  1  0
 54 56  1  0
 52 57  1  0
 55 57  1  0
 43 58  1  0
 53 58  1  0
 37 59  1  0
 43 59  1  0
 59 60  1  0
 40 61  1  0
 60 61  1  0
 60 62  1  0
 61 63  1  0
 38 64  1  0
 62 64  1  0
 63 65  1  0
 64 65  1  0
 40 66  1  0
 72 68  1  0
 69 72  1  0
 72 75  1  0
 74 77  1  0
 77 78  1  0
 77 79  1  0
 78 80  1  0
 79 81  1  0
 80 82  1  0
 81 82  1  0
 67 83  1  0
 74 83  1  0
 75 83  1  0
 72 84  1  0
 85 86  1  0
 84 87  1  0
 84 88  1  0
 85 89  1  0
 87 89  1  0
 85 90  1  0
 88 90  1  0
 76 91  1  0
 86 91  1  0
 70 92  1  0
 76 92  1  0
 92 93  1  0
 73 94  1  0
 93 94  1  0
 93 95  1  0
 94 96  1  0
 71 97  1  0
 95 97  1  0
 96 98  1  0
 97 98  1  0
 73 99  1  0
105101  1  0
102105  1  0
105108  1  0
107110  1  0
110111  1  0
110112  1  0
111113  1  0
112114  1  0
113115  1  0
114115  1  0
100116  1  0
107116  1  0
108116  1  0
105117  1  0
118119  1  0
117120  1  0
117121  1  0
118122  1  0
120122  1  0
118123  1  0
121123  1  0
109124  1  0
119124  1  0
103125  1  0
109125  1  0
125126  1  0
106127  1  0
126127  1  0
126128  1  0
127129  1  0
104130  1  0
128130  1  0
129131  1  0
130131  1  0
106132  1  0
  1133  1  0
  2134  1  0
  3135  1  0
  4136  1  0
  8137  1  0
  9138  1  0
 10139  1  0
 11140  1  0
 12141  1  0
 12142  1  0
 13143  1  0
 13144  1  0
 14145  1  0
 14146  1  0
 15147  1  0
 15148  1  0
 16149  1  0
 16150  1  0
 17151  1  0
 18152  1  0
 19153  1  0
 20154  1  0
 20155  1  0
 21156  1  0
 21157  1  0
 22158  1  0
 22159  1  0
 23160  1  0
 23161  1  0
 24162  1  0
 24163  1  0
 25164  1  0
 25165  1  0
 26166  1  0
 27167  1  0
 28168  1  0
 29169  1  0
 29170  1  0
 30171  1  0
 30172  1  0
 31173  1  0
 32174  1  0
 32175  1  0
 33176  1  0
 33177  1  0
 33178  1  0
 34179  1  0
 35180  1  0
 36181  1  0
 37182  1  0
 41183  1  0
 42184  1  0
 43185  1  0
 44186  1  0
 45187  1  0
 45188  1  0
 46189  1  0
 46190  1  0
 47191  1  0
 47192  1  0
 48193  1  0
 48194  1  0
 49195  1  0
 49196  1  0
 50197  1  0
 51198  1  0
 52199  1  0
 53200  1  0
 53201  1  0
 54202  1  0
 54203  1  0
 55204  1  0
 55205  1  0
 56206  1  0
 56207  1  0
 57208  1  0
 57209  1  0
 58210  1  0
 58211  1  0
 59212  1  0
 60213  1  0
 61214  1  0
 62215  1  0
 62216  1  0
 63217  1  0
 63218  1  0
 64219  1  0
 65220  1  0
 65221  1  0
 66222  1  0
 66223  1  0
 66224  1  0
 67225  1  0
 68226  1  0
 69227  1  0
 70228  1  0
 74229  1  0
 75230  1  0
 76231  1  0
 77232  1  0
 78233  1  0
 78234  1  0
 79235  1  0
 79236  1  0
 80237  1  0
 80238  1  0
 81239  1  0
 81240  1  0
 82241  1  0
 82242  1  0
 83243  1  0
 84244  1  0
 85245  1  0
 86246  1  0
 86247  1  0
 87248  1  0
 87249  1  0
 88250  1  0
 88251  1  0
 89252  1  0
 89253  1  0
 90254  1  0
 90255  1  0
 91256  1  0
 91257  1  0
 92258  1  0
 93259  1  0
 94260  1  0
 95261  1  0
 95262  1  0
 96263  1  0
 96264  1  0
 97265  1  0
 98266  1  0
 98267  1  0
 99268  1  0
 99269  1  0
 99270  1  0
100271  1  0
101272  1  0
102273  1  0
103274  1  0
107275  1  0
108276  1  0
109277  1  0
110278  1  0
111279  1  0
111280  1  0
112281  1  0
112282  1  0
113283  1  0
113284  1  0
114285  1  0
114286  1  0
115287  1  0
115288  1  0
116289  1  0
117290  1  0
118291  1  0
119292  1  0
119293  1  0
120294  1  0
120295  1  0
121296  1  0
121297  1  0
122298  1  0
122299  1  0
123300  1  0
123301  1  0
124302  1  0
124303  1  0
125304  1  0
126305  1  0
127306  1  0
128307  1  0
128308  1  0
129309  1  0
129310  1  0
130311  1  0
131312  1  0
131313  1  0
132314  1  0
132315  1  0
132316  1  0
M  END
>  <PDBID>  (1) 
6BAA

>  <PDB ID>  (1) 
6BAA

>  <Generic Name>  (1) 
Glyburide

>  <Brand Name>  (1) 
Apo Glyburide Tab 2.5mg#Apo Glyburide Tab 5mg#Ava-glyburide#Diabeta#Diabeta 5mg#Diabeta Tab 2.5mg#Diabeta Tab 5mg#Diabeta Tablets 2.5mg#Dom-glyburide#Euglucon#Glucovance#Glyburide#Glyburide (micronized) and Metformin Hydrochloride#Glyburide Tablets 2.5mg#Glyburide Tablets 5mg#Glyburide and Metformin#Glyburide and Metformin Hydrochloride#Glyburide-2.5 Tab 2.5mg#Glyburide-5 Tab 5mg#Glyburide-metformin Hydrochloride#Glynase#Med Glybe Tab 2.5mg#Med Glybe Tab 5mg#Mylan-glybe#Ntp-glyburide#Nu-glyburide Tab 2.5mg#Nu-glyburide Tab 5mg#PMS-glyburide#Penta-glyburide - 2.5mg#Penta-glyburide - 5mg#Pro-glyburide#Ratio-glyburide#Riva-glyburide#Sandoz Glyburide#Teva-glyburide#Daonil#Delmide#Micronase#Novo-Glyburide#Semi-Daonil

>  <DrugBank ID>  (1) 
DB01016

>  <ATC Codes>  (1) 
A10BB01

>  <Ligand ID>  (1) 
GBM

>  <Target Name>  (1) 
ATP-sensitive inward rectifier potassium channel 11

>  <UniProt ID>  (1) 
Q14654

>  <PDB ID.1>  (1) 
6BAA

>  <Seq. Identity>  (1) 
94%

$$$$
