PDB_DB08906_03
     RDKit          3D

160168  0  0  0  0  0  0  0  0999 V2000
   -2.9914   -1.2230    2.2178 C   0  0  0  0  0  0  0  0  0  0  0  0
   -2.1366   -1.8263    1.1111 C   0  0  2  0  0  0  0  0  0  0  0  0
   -0.7329   -1.8721    1.6790 C   0  0  0  0  0  0  0  0  0  0  0  0
   -0.0334   -0.7942    0.8938 C   0  0  1  0  0  0  0  0  0  0  0  0
    1.4595   -0.9019    0.9154 C   0  0  2  0  0  0  0  0  0  0  0  0
    1.9146   -0.1510    2.1731 C   0  0  0  0  0  0  0  0  0  0  0  0
    3.3945    0.0467    2.1989 C   0  0  2  0  0  0  0  0  0  0  0  0
    3.6541    0.9490    3.2396 F   0  0  0  0  0  0  0  0  0  0  0  0
    3.9456    0.6571    0.9527 C   0  0  0  0  0  0  0  0  0  0  0  0
    5.4349    0.7484    1.0747 C   0  0  0  0  0  0  0  0  0  0  0  0
    6.0955    0.8767   -0.2622 C   0  0  0  0  0  0  0  0  0  0  0  0
    7.2136    1.7304   -0.1303 O   0  0  0  0  0  0  0  0  0  0  0  0
    5.1762    1.5174   -1.2467 C   0  0  0  0  0  0  0  0  0  0  0  0
    3.8897    0.7946   -1.4694 C   0  0  0  0  0  0  0  0  0  0  0  0
    3.5005   -0.0746   -0.2804 C   0  0  1  0  0  0  0  0  0  0  0  0
    4.1344   -1.4309   -0.3384 C   0  0  0  0  0  0  0  0  0  0  0  0
    1.9881   -0.1243   -0.2604 C   0  0  2  0  0  0  0  0  0  0  0  0
    1.5773    1.2028   -0.0527 F   0  0  0  0  0  0  0  0  0  0  0  0
    1.4296   -0.5319   -1.5827 C   0  0  1  0  0  0  0  0  0  0  0  0
    1.7555   -1.7859   -2.0046 O   0  0  0  0  0  0  0  0  0  0  0  0
   -0.0891   -0.2643   -1.5492 C   0  0  0  0  0  0  0  0  0  0  0  0
   -0.6255   -1.0959   -0.4661 C   0  0  1  0  0  0  0  0  0  0  0  0
   -0.3930   -2.5559   -0.8276 C   0  0  0  0  0  0  0  0  0  0  0  0
   -2.1008   -0.8545   -0.0898 C   0  0  2  0  0  0  0  0  0  0  0  0
   -2.2455    0.3633    0.4273 O   0  0  0  0  0  0  0  0  0  0  0  0
   -2.3482    1.5169   -0.2065 C   0  0  0  0  0  0  0  0  0  0  0  0
   -1.3794    2.4782    0.2275 O   0  0  0  0  0  0  0  0  0  0  0  0
   -3.6588    2.2357    0.2022 C   0  0  0  0  0  0  0  0  0  0  0  0
   -3.7778    3.4616   -0.6898 C   0  0  0  0  0  0  0  0  0  0  0  0
   -5.2513    3.5737   -1.0085 C   0  0  0  0  0  0  0  0  0  0  0  0
   -5.8297    2.4033   -0.2577 C   0  0  0  0  0  0  0  0  0  0  0  0
   -4.7812    1.5258   -0.0891 O   0  0  0  0  0  0  0  0  0  0  0  0
   -2.9963   -1.3028   -1.1677 C   0  0  0  0  0  0  0  0  0  0  0  0
   -2.8582   -0.4452   -2.2862 O   0  0  0  0  0  0  0  0  0  0  0  0
   -4.6781   -1.6921   -0.8181 S   0  0  0  0  0  0  0  0  0  0  0  0
   -5.0454   -3.1277    0.1405 C   0  0  0  0  0  0  0  0  0  0  0  0
   -4.6532   -4.3076   -0.5172 F   0  0  0  0  0  0  0  0  0  0  0  0
   -2.9914   -1.2230    2.2178 C   0  0  0  0  0  0  0  0  0  0  0  0
   -2.1366   -1.8263    1.1111 C   0  0  2  0  0  0  0  0  0  0  0  0
   -0.7329   -1.8721    1.6790 C   0  0  0  0  0  0  0  0  0  0  0  0
   -0.0334   -0.7942    0.8938 C   0  0  1  0  0  0  0  0  0  0  0  0
    1.4595   -0.9019    0.9154 C   0  0  2  0  0  0  0  0  0  0  0  0
    1.9146   -0.1510    2.1731 C   0  0  0  0  0  0  0  0  0  0  0  0
    3.3945    0.0467    2.1989 C   0  0  2  0  0  0  0  0  0  0  0  0
    3.6541    0.9490    3.2396 F   0  0  0  0  0  0  0  0  0  0  0  0
    3.9456    0.6571    0.9527 C   0  0  0  0  0  0  0  0  0  0  0  0
    5.4349    0.7484    1.0747 C   0  0  0  0  0  0  0  0  0  0  0  0
    6.0955    0.8767   -0.2622 C   0  0  0  0  0  0  0  0  0  0  0  0
    7.2136    1.7304   -0.1303 O   0  0  0  0  0  0  0  0  0  0  0  0
    5.1762    1.5174   -1.2467 C   0  0  0  0  0  0  0  0  0  0  0  0
    3.8897    0.7946   -1.4694 C   0  0  0  0  0  0  0  0  0  0  0  0
    3.5005   -0.0746   -0.2804 C   0  0  1  0  0  0  0  0  0  0  0  0
    4.1344   -1.4309   -0.3384 C   0  0  0  0  0  0  0  0  0  0  0  0
    1.9881   -0.1243   -0.2604 C   0  0  2  0  0  0  0  0  0  0  0  0
    1.5773    1.2028   -0.0527 F   0  0  0  0  0  0  0  0  0  0  0  0
    1.4296   -0.5319   -1.5827 C   0  0  1  0  0  0  0  0  0  0  0  0
    1.7555   -1.7859   -2.0046 O   0  0  0  0  0  0  0  0  0  0  0  0
   -0.0891   -0.2643   -1.5492 C   0  0  0  0  0  0  0  0  0  0  0  0
   -0.6255   -1.0959   -0.4661 C   0  0  1  0  0  0  0  0  0  0  0  0
   -0.3930   -2.5559   -0.8276 C   0  0  0  0  0  0  0  0  0  0  0  0
   -2.1008   -0.8545   -0.0898 C   0  0  2  0  0  0  0  0  0  0  0  0
   -2.2455    0.3633    0.4273 O   0  0  0  0  0  0  0  0  0  0  0  0
   -2.3482    1.5169   -0.2065 C   0  0  0  0  0  0  0  0  0  0  0  0
   -1.3794    2.4782    0.2275 O   0  0  0  0  0  0  0  0  0  0  0  0
   -3.6588    2.2357    0.2022 C   0  0  0  0  0  0  0  0  0  0  0  0
   -3.7778    3.4616   -0.6898 C   0  0  0  0  0  0  0  0  0  0  0  0
   -5.2513    3.5737   -1.0085 C   0  0  0  0  0  0  0  0  0  0  0  0
   -5.8297    2.4033   -0.2577 C   0  0  0  0  0  0  0  0  0  0  0  0
   -4.7812    1.5258   -0.0891 O   0  0  0  0  0  0  0  0  0  0  0  0
   -2.9963   -1.3028   -1.1677 C   0  0  0  0  0  0  0  0  0  0  0  0
   -2.8582   -0.4452   -2.2862 O   0  0  0  0  0  0  0  0  0  0  0  0
   -4.6781   -1.6921   -0.8181 S   0  0  0  0  0  0  0  0  0  0  0  0
   -5.0454   -3.1277    0.1405 C   0  0  0  0  0  0  0  0  0  0  0  0
   -4.6532   -4.3076   -0.5172 F   0  0  0  0  0  0  0  0  0  0  0  0
   -3.9258   -0.8815    1.7701 H   0  0  0  0  0  0  0  0  0  0  0  0
   -2.4281   -0.4078    2.7307 H   0  0  0  0  0  0  0  0  0  0  0  0
   -3.2150   -1.9882    2.9664 H   0  0  0  0  0  0  0  0  0  0  0  0
   -2.5423   -2.7957    0.8698 H   0  0  0  0  0  0  0  0  0  0  0  0
   -0.2941   -2.8694    1.4842 H   0  0  0  0  0  0  0  0  0  0  0  0
   -0.6926   -1.6899    2.7712 H   0  0  0  0  0  0  0  0  0  0  0  0
   -0.3905    0.1645    1.2603 H   0  0  0  0  0  0  0  0  0  0  0  0
    1.8102   -1.9459    0.9400 H   0  0  0  0  0  0  0  0  0  0  0  0
    1.5826   -0.6323    3.0905 H   0  0  0  0  0  0  0  0  0  0  0  0
    1.4505    0.8711    2.0687 H   0  0  0  0  0  0  0  0  0  0  0  0
    3.9515   -0.8705    2.4676 H   0  0  0  0  0  0  0  0  0  0  0  0
    3.5431    1.6988    0.8843 H   0  0  0  0  0  0  0  0  0  0  0  0
    5.8156   -0.1245    1.6334 H   0  0  0  0  0  0  0  0  0  0  0  0
    5.6802    1.6573    1.6730 H   0  0  0  0  0  0  0  0  0  0  0  0
    6.4949   -0.0801   -0.6477 H   0  0  0  0  0  0  0  0  0  0  0  0
    7.3572    2.2741   -0.9408 H   0  0  0  0  0  0  0  0  0  0  0  0
    5.0278    2.5935   -0.9827 H   0  0  0  0  0  0  0  0  0  0  0  0
    5.7184    1.5445   -2.2328 H   0  0  0  0  0  0  0  0  0  0  0  0
    3.9246    0.1830   -2.3830 H   0  0  0  0  0  0  0  0  0  0  0  0
    3.0914    1.5843   -1.5783 H   0  0  0  0  0  0  0  0  0  0  0  0
    4.7145   -1.5644   -1.2791 H   0  0  0  0  0  0  0  0  0  0  0  0
    4.8455   -1.6064    0.5015 H   0  0  0  0  0  0  0  0  0  0  0  0
    3.4048   -2.2643   -0.2904 H   0  0  0  0  0  0  0  0  0  0  0  0
    1.8223    0.1839   -2.3355 H   0  0  0  0  0  0  0  0  0  0  0  0
    1.9213   -1.8249   -2.9813 H   0  0  0  0  0  0  0  0  0  0  0  0
   -0.1635    0.8159   -1.4616 H   0  0  0  0  0  0  0  0  0  0  0  0
   -0.4556   -0.6513   -2.5246 H   0  0  0  0  0  0  0  0  0  0  0  0
   -1.1579   -3.2447   -0.4602 H   0  0  0  0  0  0  0  0  0  0  0  0
    0.5595   -2.8918   -0.3597 H   0  0  0  0  0  0  0  0  0  0  0  0
   -0.3835   -2.6948   -1.9428 H   0  0  0  0  0  0  0  0  0  0  0  0
   -2.3410    1.5857   -1.2877 H   0  0  0  0  0  0  0  0  0  0  0  0
   -1.2768    2.4057    1.2213 H   0  0  0  0  0  0  0  0  0  0  0  0
   -3.6182    2.5423    1.2624 H   0  0  0  0  0  0  0  0  0  0  0  0
   -3.4364    4.3768   -0.1612 H   0  0  0  0  0  0  0  0  0  0  0  0
   -3.1867    3.2956   -1.6060 H   0  0  0  0  0  0  0  0  0  0  0  0
   -5.6916    4.5045   -0.6154 H   0  0  0  0  0  0  0  0  0  0  0  0
   -5.4620    3.5418   -2.0972 H   0  0  0  0  0  0  0  0  0  0  0  0
   -6.6949    1.9528   -0.7450 H   0  0  0  0  0  0  0  0  0  0  0  0
   -6.1764    2.7531    0.7567 H   0  0  0  0  0  0  0  0  0  0  0  0
   -2.5282   -2.2632   -1.5782 H   0  0  0  0  0  0  0  0  0  0  0  0
   -3.6114   -0.5793   -2.9129 H   0  0  0  0  0  0  0  0  0  0  0  0
   -4.8084   -3.1411    1.1950 H   0  0  0  0  0  0  0  0  0  0  0  0
   -6.1931   -3.2360    0.1170 H   0  0  0  0  0  0  0  0  0  0  0  0
   -3.9258   -0.8815    1.7701 H   0  0  0  0  0  0  0  0  0  0  0  0
   -2.4281   -0.4078    2.7307 H   0  0  0  0  0  0  0  0  0  0  0  0
   -3.2150   -1.9882    2.9664 H   0  0  0  0  0  0  0  0  0  0  0  0
   -2.5423   -2.7957    0.8698 H   0  0  0  0  0  0  0  0  0  0  0  0
   -0.2941   -2.8694    1.4842 H   0  0  0  0  0  0  0  0  0  0  0  0
   -0.6926   -1.6899    2.7712 H   0  0  0  0  0  0  0  0  0  0  0  0
   -0.3905    0.1645    1.2603 H   0  0  0  0  0  0  0  0  0  0  0  0
    1.8102   -1.9459    0.9400 H   0  0  0  0  0  0  0  0  0  0  0  0
    1.5826   -0.6323    3.0905 H   0  0  0  0  0  0  0  0  0  0  0  0
    1.4505    0.8711    2.0687 H   0  0  0  0  0  0  0  0  0  0  0  0
    3.9515   -0.8705    2.4676 H   0  0  0  0  0  0  0  0  0  0  0  0
    3.5431    1.6988    0.8843 H   0  0  0  0  0  0  0  0  0  0  0  0
    5.8156   -0.1245    1.6334 H   0  0  0  0  0  0  0  0  0  0  0  0
    5.6802    1.6573    1.6730 H   0  0  0  0  0  0  0  0  0  0  0  0
    6.4949   -0.0801   -0.6477 H   0  0  0  0  0  0  0  0  0  0  0  0
    7.3572    2.2741   -0.9408 H   0  0  0  0  0  0  0  0  0  0  0  0
    5.0278    2.5935   -0.9827 H   0  0  0  0  0  0  0  0  0  0  0  0
    5.7184    1.5445   -2.2328 H   0  0  0  0  0  0  0  0  0  0  0  0
    3.9246    0.1830   -2.3830 H   0  0  0  0  0  0  0  0  0  0  0  0
    3.0914    1.5843   -1.5783 H   0  0  0  0  0  0  0  0  0  0  0  0
    4.7145   -1.5644   -1.2791 H   0  0  0  0  0  0  0  0  0  0  0  0
    4.8455   -1.6064    0.5015 H   0  0  0  0  0  0  0  0  0  0  0  0
    3.4048   -2.2643   -0.2904 H   0  0  0  0  0  0  0  0  0  0  0  0
    1.8223    0.1839   -2.3355 H   0  0  0  0  0  0  0  0  0  0  0  0
    1.9213   -1.8249   -2.9813 H   0  0  0  0  0  0  0  0  0  0  0  0
   -0.1635    0.8159   -1.4616 H   0  0  0  0  0  0  0  0  0  0  0  0
   -0.4556   -0.6513   -2.5246 H   0  0  0  0  0  0  0  0  0  0  0  0
   -1.1579   -3.2447   -0.4602 H   0  0  0  0  0  0  0  0  0  0  0  0
    0.5595   -2.8918   -0.3597 H   0  0  0  0  0  0  0  0  0  0  0  0
   -0.3835   -2.6948   -1.9428 H   0  0  0  0  0  0  0  0  0  0  0  0
   -2.3410    1.5857   -1.2877 H   0  0  0  0  0  0  0  0  0  0  0  0
   -1.2768    2.4057    1.2213 H   0  0  0  0  0  0  0  0  0  0  0  0
   -3.6182    2.5423    1.2624 H   0  0  0  0  0  0  0  0  0  0  0  0
   -3.4364    4.3768   -0.1612 H   0  0  0  0  0  0  0  0  0  0  0  0
   -3.1867    3.2956   -1.6060 H   0  0  0  0  0  0  0  0  0  0  0  0
   -5.6916    4.5045   -0.6154 H   0  0  0  0  0  0  0  0  0  0  0  0
   -5.4620    3.5418   -2.0972 H   0  0  0  0  0  0  0  0  0  0  0  0
   -6.6949    1.9528   -0.7450 H   0  0  0  0  0  0  0  0  0  0  0  0
   -6.1764    2.7531    0.7567 H   0  0  0  0  0  0  0  0  0  0  0  0
   -2.5282   -2.2632   -1.5782 H   0  0  0  0  0  0  0  0  0  0  0  0
   -3.6114   -0.5793   -2.9129 H   0  0  0  0  0  0  0  0  0  0  0  0
   -4.8084   -3.1411    1.1950 H   0  0  0  0  0  0  0  0  0  0  0  0
   -6.1931   -3.2360    0.1170 H   0  0  0  0  0  0  0  0  0  0  0  0
  1  2  1  0
  2  3  1  0
  3  4  1  0
  4  5  1  0
  5  6  1  0
  6  7  1  0
  7  8  1  0
  7  9  1  0
  9 10  1  0
 10 11  1  0
 11 12  1  0
 11 13  1  0
 13 14  1  0
  9 15  1  0
 14 15  1  0
 15 16  1  6
  5 17  1  0
 15 17  1  0
 17 18  1  1
 17 19  1  0
 19 20  1  0
 19 21  1  0
  4 22  1  0
 21 22  1  0
 22 23  1  6
  2 24  1  0
 22 24  1  0
 24 25  1  1
 25 26  1  0
 26 27  1  0
 26 28  1  0
 28 29  1  0
 29 30  1  0
 30 31  1  0
 28 32  1  0
 31 32  1  0
 24 33  1  0
 33 34  1  0
 33 35  1  0
 35 36  1  0
 36 37  1  0
 38 39  1  0
 39 40  1  0
 40 41  1  0
 41 42  1  0
 42 43  1  0
 43 44  1  0
 44 45  1  0
 44 46  1  0
 46 47  1  0
 47 48  1  0
 48 49  1  0
 48 50  1  0
 50 51  1  0
 46 52  1  0
 51 52  1  0
 52 53  1  6
 42 54  1  0
 52 54  1  0
 54 55  1  1
 54 56  1  0
 56 57  1  0
 56 58  1  0
 41 59  1  0
 58 59  1  0
 59 60  1  6
 39 61  1  0
 59 61  1  0
 61 62  1  1
 62 63  1  0
 63 64  1  0
 63 65  1  0
 65 66  1  0
 66 67  1  0
 67 68  1  0
 65 69  1  0
 68 69  1  0
 61 70  1  0
 70 71  1  0
 70 72  1  0
 72 73  1  0
 73 74  1  0
  1 75  1  0
  1 76  1  0
  1 77  1  0
  2 78  1  6
  3 79  1  0
  3 80  1  0
  4 81  1  1
  5 82  1  1
  6 83  1  0
  6 84  1  0
  7 85  1  1
  9 86  1  0
 10 87  1  0
 10 88  1  0
 11 89  1  0
 12 90  1  0
 13 91  1  0
 13 92  1  0
 14 93  1  0
 14 94  1  0
 16 95  1  0
 16 96  1  0
 16 97  1  0
 19 98  1  6
 20 99  1  0
 21100  1  0
 21101  1  0
 23102  1  0
 23103  1  0
 23104  1  0
 26105  1  0
 27106  1  0
 28107  1  0
 29108  1  0
 29109  1  0
 30110  1  0
 30111  1  0
 31112  1  0
 31113  1  0
 33114  1  0
 34115  1  0
 36116  1  0
 36117  1  0
 38118  1  0
 38119  1  0
 38120  1  0
 39121  1  6
 40122  1  0
 40123  1  0
 41124  1  1
 42125  1  1
 43126  1  0
 43127  1  0
 44128  1  1
 46129  1  0
 47130  1  0
 47131  1  0
 48132  1  0
 49133  1  0
 50134  1  0
 50135  1  0
 51136  1  0
 51137  1  0
 53138  1  0
 53139  1  0
 53140  1  0
 56141  1  6
 57142  1  0
 58143  1  0
 58144  1  0
 60145  1  0
 60146  1  0
 60147  1  0
 63148  1  0
 64149  1  0
 65150  1  0
 66151  1  0
 66152  1  0
 67153  1  0
 67154  1  0
 68155  1  0
 68156  1  0
 70157  1  0
 71158  1  0
 73159  1  0
 73160  1  0
M  END
>  <PDBID>  (1) 
3CLD

>  <PDB ID>  (1) 
3CLD

>  <Generic Name>  (1) 
Fluticasone furoate

>  <Brand Name>  (1) 
Arnuity Ellipta#Avamys#Breo Ellipta#Flonase Sensimist Allergy Relief#Veramyst

>  <DrugBank ID>  (1) 
DB08906

>  <ATC Codes>  (1) 
R03AK10#R01AD12#R03BA09

>  <Ligand ID>  (1) 
GW6

>  <Target Name>  (1) 
Glucocorticoid receptor

>  <UniProt ID>  (1) 
P04150

>  <PDB ID.1>  (1) 
3CLD

>  <Seq. Identity>  (1) 
99%

$$$$
