PDB_DB06243_06
     RDKit          3D

 76 72  0  0  0  0  0  0  0  0999 V2000
   -1.6917    0.0194    0.3623 C   0  0  2  0  0  0  0  0  0  0  0  0
   -2.5601   -1.1890    0.0051 C   0  0  0  0  0  0  0  0  0  0  0  0
   -2.1758    1.1524   -0.3912 N   0  0  0  0  0  0  0  0  0  0  0  0
   -0.2989   -0.2979   -0.1074 C   0  0  0  0  0  0  0  0  0  0  0  0
    0.6069    0.8777    0.2259 C   0  0  0  0  0  0  0  0  0  0  0  0
    1.9938    0.4981   -0.2714 C   0  0  0  0  0  0  0  0  0  0  0  0
    2.3956   -0.6949    0.4138 N   0  0  0  0  0  0  0  0  0  0  0  0
   -1.6992   -0.0289    0.5534 C   0  0  0  0  0  0  0  0  0  0  0  0
   -2.6277   -1.0819   -0.0385 C   0  0  0  0  0  0  0  0  0  0  0  0
   -2.1956    1.2854    0.2681 N   0  0  0  0  0  0  0  0  0  0  0  0
   -0.3351   -0.2676   -0.1038 C   0  0  0  0  0  0  0  0  0  0  0  0
    0.6470    0.7687    0.4560 C   0  0  0  0  0  0  0  0  0  0  0  0
    1.9973    0.5815   -0.1523 C   0  0  0  0  0  0  0  0  0  0  0  0
    2.5140   -0.7191    0.1280 N   0  0  0  0  0  0  0  0  0  0  0  0
   -1.6917    0.0194    0.3623 C   0  0  2  0  0  0  0  0  0  0  0  0
   -2.5601   -1.1890    0.0051 C   0  0  0  0  0  0  0  0  0  0  0  0
   -2.1758    1.1524   -0.3912 N   0  0  0  0  0  0  0  0  0  0  0  0
   -0.2989   -0.2979   -0.1074 C   0  0  0  0  0  0  0  0  0  0  0  0
    0.6069    0.8777    0.2259 C   0  0  0  0  0  0  0  0  0  0  0  0
    1.9938    0.4981   -0.2714 C   0  0  0  0  0  0  0  0  0  0  0  0
    2.3956   -0.6949    0.4138 N   0  0  0  0  0  0  0  0  0  0  0  0
   -1.6917    0.0194    0.3623 C   0  0  2  0  0  0  0  0  0  0  0  0
   -2.5601   -1.1890    0.0051 C   0  0  0  0  0  0  0  0  0  0  0  0
   -2.1758    1.1524   -0.3912 N   0  0  0  0  0  0  0  0  0  0  0  0
   -0.2989   -0.2979   -0.1074 C   0  0  0  0  0  0  0  0  0  0  0  0
    0.6069    0.8777    0.2259 C   0  0  0  0  0  0  0  0  0  0  0  0
    1.9938    0.4981   -0.2714 C   0  0  0  0  0  0  0  0  0  0  0  0
    2.3956   -0.6949    0.4138 N   0  0  0  0  0  0  0  0  0  0  0  0
   -1.7203    0.1619    1.4500 H   0  0  0  0  0  0  0  0  0  0  0  0
   -2.1929   -2.0981    0.5352 H   0  0  0  0  0  0  0  0  0  0  0  0
   -2.4169   -1.3244   -1.1046 H   0  0  0  0  0  0  0  0  0  0  0  0
   -2.8647    1.7311    0.1010 H   0  0  0  0  0  0  0  0  0  0  0  0
   -0.2758   -0.4092   -1.2021 H   0  0  0  0  0  0  0  0  0  0  0  0
    0.0799   -1.2220    0.3777 H   0  0  0  0  0  0  0  0  0  0  0  0
    0.5973    1.1168    1.2930 H   0  0  0  0  0  0  0  0  0  0  0  0
    0.2606    1.7260   -0.3760 H   0  0  0  0  0  0  0  0  0  0  0  0
    2.6501    1.3674   -0.0825 H   0  0  0  0  0  0  0  0  0  0  0  0
    1.9300    0.2918   -1.3461 H   0  0  0  0  0  0  0  0  0  0  0  0
    2.4428   -0.5573    1.4309 H   0  0  0  0  0  0  0  0  0  0  0  0
    3.2403   -1.1500    0.0263 H   0  0  0  0  0  0  0  0  0  0  0  0
   -1.5977   -0.1307    1.6453 H   0  0  0  0  0  0  0  0  0  0  0  0
   -2.6533   -0.8614   -1.1427 H   0  0  0  0  0  0  0  0  0  0  0  0
   -2.2061   -2.0940    0.1381 H   0  0  0  0  0  0  0  0  0  0  0  0
   -2.6105    1.3711   -0.6957 H   0  0  0  0  0  0  0  0  0  0  0  0
   -0.4604   -0.1097   -1.1915 H   0  0  0  0  0  0  0  0  0  0  0  0
    0.0267   -1.2629    0.1654 H   0  0  0  0  0  0  0  0  0  0  0  0
    0.6448    0.7444    1.5617 H   0  0  0  0  0  0  0  0  0  0  0  0
    0.2763    1.7893    0.1627 H   0  0  0  0  0  0  0  0  0  0  0  0
    2.6539    1.4115    0.1685 H   0  0  0  0  0  0  0  0  0  0  0  0
    1.8849    0.6669   -1.2540 H   0  0  0  0  0  0  0  0  0  0  0  0
    2.4160   -1.0513    1.0799 H   0  0  0  0  0  0  0  0  0  0  0  0
    3.3248   -1.0111   -0.4088 H   0  0  0  0  0  0  0  0  0  0  0  0
   -1.7203    0.1619    1.4500 H   0  0  0  0  0  0  0  0  0  0  0  0
   -2.1929   -2.0981    0.5352 H   0  0  0  0  0  0  0  0  0  0  0  0
   -2.4169   -1.3244   -1.1046 H   0  0  0  0  0  0  0  0  0  0  0  0
   -2.8647    1.7311    0.1010 H   0  0  0  0  0  0  0  0  0  0  0  0
   -0.2758   -0.4092   -1.2021 H   0  0  0  0  0  0  0  0  0  0  0  0
    0.0799   -1.2220    0.3777 H   0  0  0  0  0  0  0  0  0  0  0  0
    0.5973    1.1168    1.2930 H   0  0  0  0  0  0  0  0  0  0  0  0
    0.2606    1.7260   -0.3760 H   0  0  0  0  0  0  0  0  0  0  0  0
    2.6501    1.3674   -0.0825 H   0  0  0  0  0  0  0  0  0  0  0  0
    1.9300    0.2918   -1.3461 H   0  0  0  0  0  0  0  0  0  0  0  0
    2.4428   -0.5573    1.4309 H   0  0  0  0  0  0  0  0  0  0  0  0
    3.2403   -1.1500    0.0263 H   0  0  0  0  0  0  0  0  0  0  0  0
   -1.7203    0.1619    1.4500 H   0  0  0  0  0  0  0  0  0  0  0  0
   -2.1929   -2.0981    0.5352 H   0  0  0  0  0  0  0  0  0  0  0  0
   -2.4169   -1.3244   -1.1046 H   0  0  0  0  0  0  0  0  0  0  0  0
   -2.8647    1.7311    0.1010 H   0  0  0  0  0  0  0  0  0  0  0  0
   -0.2758   -0.4092   -1.2021 H   0  0  0  0  0  0  0  0  0  0  0  0
    0.0799   -1.2220    0.3777 H   0  0  0  0  0  0  0  0  0  0  0  0
    0.5973    1.1168    1.2930 H   0  0  0  0  0  0  0  0  0  0  0  0
    0.2606    1.7260   -0.3760 H   0  0  0  0  0  0  0  0  0  0  0  0
    2.6501    1.3674   -0.0825 H   0  0  0  0  0  0  0  0  0  0  0  0
    1.9300    0.2918   -1.3461 H   0  0  0  0  0  0  0  0  0  0  0  0
    2.4428   -0.5573    1.4309 H   0  0  0  0  0  0  0  0  0  0  0  0
    3.2403   -1.1500    0.0263 H   0  0  0  0  0  0  0  0  0  0  0  0
  1  2  1  0
  1  3  1  0
  1  4  1  0
  4  5  1  0
  5  6  1  0
  6  7  1  0
  8  9  1  0
  8 10  1  0
  8 11  1  0
 11 12  1  0
 12 13  1  0
 13 14  1  0
 15 16  1  0
 15 17  1  0
 15 18  1  0
 18 19  1  0
 19 20  1  0
 20 21  1  0
 22 23  1  0
 22 24  1  0
 22 25  1  0
 25 26  1  0
 26 27  1  0
 27 28  1  0
  1 29  1  1
  2 30  1  0
  2 31  1  0
  3 32  1  0
  4 33  1  0
  4 34  1  0
  5 35  1  0
  5 36  1  0
  6 37  1  0
  6 38  1  0
  7 39  1  0
  7 40  1  0
  8 41  1  0
  9 42  1  0
  9 43  1  0
 10 44  1  0
 11 45  1  0
 11 46  1  0
 12 47  1  0
 12 48  1  0
 13 49  1  0
 13 50  1  0
 14 51  1  0
 14 52  1  0
 15 53  1  1
 16 54  1  0
 16 55  1  0
 17 56  1  0
 18 57  1  0
 18 58  1  0
 19 59  1  0
 19 60  1  0
 20 61  1  0
 20 62  1  0
 21 63  1  0
 21 64  1  0
 22 65  1  1
 23 66  1  0
 23 67  1  0
 24 68  1  0
 25 69  1  0
 25 70  1  0
 26 71  1  0
 26 72  1  0
 27 73  1  0
 27 74  1  0
 28 75  1  0
 28 76  1  0
M  END
>  <PDBID>  (1) 
2TOD

>  <PDB ID>  (1) 
2TOD

>  <Generic Name>  (1) 
Eflornithine

>  <Brand Name>  (1) 
Vaniqa

>  <DrugBank ID>  (1) 
DB06243

>  <ATC Codes>  (1) 
D11AX16#P01CX03

>  <Ligand ID>  (1) 
DMO

>  <Target Name>  (1) 
Ornithine decarboxylase

>  <UniProt ID>  (1) 
P11926

>  <PDB ID.1>  (1) 
2TOD

>  <Seq. Identity>  (1) 
65%

$$$$
