PDB_DB13139_01
     RDKit          3D

 88 88  0  0  0  0  0  0  0  0999 V2000
   -4.9316    2.0879   -0.3633 O   0  0  0  0  0  0  0  0  0  0  0  0
   -4.0767    1.6445    0.6520 C   0  0  0  0  0  0  0  0  0  0  0  0
   -2.9203    0.9486   -0.0383 C   0  0  0  0  0  0  0  0  0  0  0  0
   -3.4419   -0.2098   -0.8513 C   0  0  0  0  0  0  0  0  0  0  0  0
   -4.5096   -0.8036   -0.1673 O   0  0  0  0  0  0  0  0  0  0  0  0
   -2.4155   -1.2359   -1.1822 C   0  0  0  0  0  0  0  0  0  0  0  0
   -0.9866   -0.7988   -0.9686 C   0  0  0  0  0  0  0  0  0  0  0  0
   -2.0012    0.3565    1.0093 C   0  0  0  0  0  0  0  0  0  0  0  0
   -0.7331   -0.0484    0.2845 C   0  0  0  0  0  0  0  0  0  0  0  0
    0.2163   -0.7043    1.2433 C   0  0  1  0  0  0  0  0  0  0  0  0
   -0.2444   -1.9615    1.6511 O   0  0  0  0  0  0  0  0  0  0  0  0
    1.5889   -0.9183    0.6602 C   0  0  0  0  0  0  0  0  0  0  0  0
    2.1230    0.3263    0.2138 N   0  0  0  0  0  0  0  0  0  0  0  0
    3.4931    0.2201   -0.2693 C   0  0  0  0  0  0  0  0  0  0  0  0
    4.4612   -0.2083    0.8028 C   0  0  0  0  0  0  0  0  0  0  0  0
    3.9368    1.5731   -0.7742 C   0  0  0  0  0  0  0  0  0  0  0  0
    3.4963   -0.7414   -1.4419 C   0  0  0  0  0  0  0  0  0  0  0  0
   -4.9316    2.0879   -0.3633 O   0  0  0  0  0  0  0  0  0  0  0  0
   -4.0767    1.6445    0.6520 C   0  0  0  0  0  0  0  0  0  0  0  0
   -2.9203    0.9486   -0.0383 C   0  0  0  0  0  0  0  0  0  0  0  0
   -3.4419   -0.2098   -0.8513 C   0  0  0  0  0  0  0  0  0  0  0  0
   -4.5096   -0.8036   -0.1673 O   0  0  0  0  0  0  0  0  0  0  0  0
   -2.4155   -1.2359   -1.1822 C   0  0  0  0  0  0  0  0  0  0  0  0
   -0.9866   -0.7988   -0.9686 C   0  0  0  0  0  0  0  0  0  0  0  0
   -2.0012    0.3565    1.0093 C   0  0  0  0  0  0  0  0  0  0  0  0
   -0.7331   -0.0484    0.2845 C   0  0  0  0  0  0  0  0  0  0  0  0
    0.2163   -0.7043    1.2433 C   0  0  1  0  0  0  0  0  0  0  0  0
   -0.2444   -1.9615    1.6511 O   0  0  0  0  0  0  0  0  0  0  0  0
    1.5889   -0.9183    0.6602 C   0  0  0  0  0  0  0  0  0  0  0  0
    2.1230    0.3263    0.2138 N   0  0  0  0  0  0  0  0  0  0  0  0
    3.4931    0.2201   -0.2693 C   0  0  0  0  0  0  0  0  0  0  0  0
    4.4612   -0.2083    0.8028 C   0  0  0  0  0  0  0  0  0  0  0  0
    3.9368    1.5731   -0.7742 C   0  0  0  0  0  0  0  0  0  0  0  0
    3.4963   -0.7414   -1.4419 C   0  0  0  0  0  0  0  0  0  0  0  0
   -4.7042    3.0098   -0.6074 H   0  0  0  0  0  0  0  0  0  0  0  0
   -4.6259    0.8915    1.2400 H   0  0  0  0  0  0  0  0  0  0  0  0
   -3.7124    2.4918    1.2639 H   0  0  0  0  0  0  0  0  0  0  0  0
   -2.3642    1.6121   -0.6964 H   0  0  0  0  0  0  0  0  0  0  0  0
   -3.9150    0.2537   -1.7660 H   0  0  0  0  0  0  0  0  0  0  0  0
   -4.2620   -1.0545    0.7475 H   0  0  0  0  0  0  0  0  0  0  0  0
   -2.5172   -1.4334   -2.2931 H   0  0  0  0  0  0  0  0  0  0  0  0
   -2.6186   -2.2350   -0.7303 H   0  0  0  0  0  0  0  0  0  0  0  0
   -0.6598   -0.2612   -1.8902 H   0  0  0  0  0  0  0  0  0  0  0  0
   -0.3923   -1.7518   -0.9517 H   0  0  0  0  0  0  0  0  0  0  0  0
   -1.7603    1.1613    1.7312 H   0  0  0  0  0  0  0  0  0  0  0  0
   -2.4819   -0.4564    1.5463 H   0  0  0  0  0  0  0  0  0  0  0  0
   -0.2720    0.9401   -0.0231 H   0  0  0  0  0  0  0  0  0  0  0  0
    0.2804   -0.0893    2.1897 H   0  0  0  0  0  0  0  0  0  0  0  0
   -1.2069   -1.9805    1.7955 H   0  0  0  0  0  0  0  0  0  0  0  0
    2.2323   -1.4552    1.3907 H   0  0  0  0  0  0  0  0  0  0  0  0
    1.4688   -1.6599   -0.1855 H   0  0  0  0  0  0  0  0  0  0  0  0
    1.5751    0.5858   -0.6632 H   0  0  0  0  0  0  0  0  0  0  0  0
    4.3676   -1.2449    1.1134 H   0  0  0  0  0  0  0  0  0  0  0  0
    5.4779   -0.0270    0.3893 H   0  0  0  0  0  0  0  0  0  0  0  0
    4.2759    0.4451    1.6800 H   0  0  0  0  0  0  0  0  0  0  0  0
    5.0215    1.6688   -0.5683 H   0  0  0  0  0  0  0  0  0  0  0  0
    3.4400    2.4126   -0.2169 H   0  0  0  0  0  0  0  0  0  0  0  0
    3.7897    1.6809   -1.8690 H   0  0  0  0  0  0  0  0  0  0  0  0
    3.8202   -1.7588   -1.1141 H   0  0  0  0  0  0  0  0  0  0  0  0
    4.1945   -0.4183   -2.2194 H   0  0  0  0  0  0  0  0  0  0  0  0
    2.4938   -0.8537   -1.9012 H   0  0  0  0  0  0  0  0  0  0  0  0
   -4.7042    3.0098   -0.6074 H   0  0  0  0  0  0  0  0  0  0  0  0
   -4.6259    0.8915    1.2400 H   0  0  0  0  0  0  0  0  0  0  0  0
   -3.7124    2.4918    1.2639 H   0  0  0  0  0  0  0  0  0  0  0  0
   -2.3642    1.6121   -0.6964 H   0  0  0  0  0  0  0  0  0  0  0  0
   -3.9150    0.2537   -1.7660 H   0  0  0  0  0  0  0  0  0  0  0  0
   -4.2620   -1.0545    0.7475 H   0  0  0  0  0  0  0  0  0  0  0  0
   -2.5172   -1.4334   -2.2931 H   0  0  0  0  0  0  0  0  0  0  0  0
   -2.6186   -2.2350   -0.7303 H   0  0  0  0  0  0  0  0  0  0  0  0
   -0.6598   -0.2612   -1.8902 H   0  0  0  0  0  0  0  0  0  0  0  0
   -0.3923   -1.7518   -0.9517 H   0  0  0  0  0  0  0  0  0  0  0  0
   -1.7603    1.1613    1.7312 H   0  0  0  0  0  0  0  0  0  0  0  0
   -2.4819   -0.4564    1.5463 H   0  0  0  0  0  0  0  0  0  0  0  0
   -0.2720    0.9401   -0.0231 H   0  0  0  0  0  0  0  0  0  0  0  0
    0.2804   -0.0893    2.1897 H   0  0  0  0  0  0  0  0  0  0  0  0
   -1.2069   -1.9805    1.7955 H   0  0  0  0  0  0  0  0  0  0  0  0
    2.2323   -1.4552    1.3907 H   0  0  0  0  0  0  0  0  0  0  0  0
    1.4688   -1.6599   -0.1855 H   0  0  0  0  0  0  0  0  0  0  0  0
    1.5751    0.5858   -0.6632 H   0  0  0  0  0  0  0  0  0  0  0  0
    4.3676   -1.2449    1.1134 H   0  0  0  0  0  0  0  0  0  0  0  0
    5.4779   -0.0270    0.3893 H   0  0  0  0  0  0  0  0  0  0  0  0
    4.2759    0.4451    1.6800 H   0  0  0  0  0  0  0  0  0  0  0  0
    5.0215    1.6688   -0.5683 H   0  0  0  0  0  0  0  0  0  0  0  0
    3.4400    2.4126   -0.2169 H   0  0  0  0  0  0  0  0  0  0  0  0
    3.7897    1.6809   -1.8690 H   0  0  0  0  0  0  0  0  0  0  0  0
    3.8202   -1.7588   -1.1141 H   0  0  0  0  0  0  0  0  0  0  0  0
    4.1945   -0.4183   -2.2194 H   0  0  0  0  0  0  0  0  0  0  0  0
    2.4938   -0.8537   -1.9012 H   0  0  0  0  0  0  0  0  0  0  0  0
  1  2  1  0
  2  3  1  0
  3  4  1  0
  4  5  1  0
  4  6  1  0
  6  7  1  0
  3  8  1  0
  7  9  1  0
  8  9  1  0
  9 10  1  0
 10 11  1  0
 10 12  1  0
 12 13  1  0
 14 13  1  0
 14 15  1  0
 14 16  1  0
 14 17  1  0
 18 19  1  0
 19 20  1  0
 20 21  1  0
 21 22  1  0
 21 23  1  0
 23 24  1  0
 20 25  1  0
 24 26  1  0
 25 26  1  0
 26 27  1  0
 27 28  1  0
 27 29  1  0
 29 30  1  0
 31 30  1  0
 31 32  1  0
 31 33  1  0
 31 34  1  0
  1 35  1  0
  2 36  1  0
  2 37  1  0
  3 38  1  0
  4 39  1  0
  5 40  1  0
  6 41  1  0
  6 42  1  0
  7 43  1  0
  7 44  1  0
  8 45  1  0
  8 46  1  0
  9 47  1  0
 10 48  1  1
 11 49  1  0
 12 50  1  0
 12 51  1  0
 13 52  1  0
 15 53  1  0
 15 54  1  0
 15 55  1  0
 16 56  1  0
 16 57  1  0
 16 58  1  0
 17 59  1  0
 17 60  1  0
 17 61  1  0
 18 62  1  0
 19 63  1  0
 19 64  1  0
 20 65  1  0
 21 66  1  0
 22 67  1  0
 23 68  1  0
 23 69  1  0
 24 70  1  0
 24 71  1  0
 25 72  1  0
 25 73  1  0
 26 74  1  0
 27 75  1  1
 28 76  1  0
 29 77  1  0
 29 78  1  0
 30 79  1  0
 32 80  1  0
 32 81  1  0
 32 82  1  0
 33 83  1  0
 33 84  1  0
 33 85  1  0
 34 86  1  0
 34 87  1  0
 34 88  1  0
M  END
>  <PDBID>  (1) 
2Y04

>  <PDB ID>  (1) 
2Y04

>  <Generic Name>  (1) 
Levosalbutamol

>  <Brand Name>  (1) 
Levalbuterol#Levalbuterol Hydrochloride#Xopenex

>  <DrugBank ID>  (1) 
DB13139

>  <ATC Codes>  (1) 
nan

>  <Ligand ID>  (1) 
68H

>  <Target Name>  (1) 
Beta-2 adrenergic receptor

>  <UniProt ID>  (1) 
P07550

>  <PDB ID.1>  (1) 
2Y04

>  <Seq. Identity>  (1) 
58%

$$$$
