PDB_DB01030_00
     RDKit          3D

 72 76  0  0  0  0  0  0  0  0999 V2000
   -5.4864   -0.2691    1.5452 C   0  0  0  0  0  0  0  0  0  0  0  0
   -6.8866   -0.8207    1.6999 C   0  0  0  0  0  0  0  0  0  0  0  0
   -4.8373   -0.6956    0.2464 C   0  0  2  0  0  0  0  0  0  0  0  0
   -4.7559   -2.0650    0.2179 O   0  0  0  0  0  0  0  0  0  0  0  0
   -3.5831    0.0483    0.0290 C   0  0  0  0  0  0  0  0  0  0  0  0
   -5.7536   -0.3161   -0.9383 C   0  0  0  0  0  0  0  0  0  0  0  0
   -2.8785   -0.5027   -1.2210 C   0  0  0  0  0  0  0  0  0  0  0  0
   -2.5413   -0.0226    1.1067 C   0  0  0  0  0  0  0  0  0  0  0  0
   -6.5560    0.7416   -0.4740 O   0  0  0  0  0  0  0  0  0  0  0  0
   -5.0150    0.2030   -1.9998 O   0  0  0  0  0  0  0  0  0  0  0  0
   -1.7737    0.4682   -1.5383 C   0  0  0  0  0  0  0  0  0  0  0  0
   -3.9084   -0.6141   -2.2919 C   0  0  0  0  0  0  0  0  0  0  0  0
   -1.5616    1.0578    0.7853 C   0  0  0  0  0  0  0  0  0  0  0  0
   -2.0908    1.0722   -2.7759 O   0  0  0  0  0  0  0  0  0  0  0  0
   -1.5984    1.5083   -0.5821 N   0  0  0  0  0  0  0  0  0  0  0  0
   -0.1259    0.7677    1.0484 C   0  0  0  0  0  0  0  0  0  0  0  0
   -0.3186    2.1494   -0.8273 C   0  0  0  0  0  0  0  0  0  0  0  0
    0.4906    2.0115    0.4423 C   0  0  0  0  0  0  0  0  0  0  0  0
    0.2914   -0.4413    0.4062 N   0  0  0  0  0  0  0  0  0  0  0  0
    1.9622    1.9025    0.2237 C   0  0  0  0  0  0  0  0  0  0  0  0
    1.6989   -0.5843    0.2016 C   0  0  0  0  0  0  0  0  0  0  0  0
    2.5123    0.5749    0.6257 C   0  0  0  0  0  0  0  0  0  0  0  0
    1.9000   -0.9872   -1.2584 C   0  0  0  0  0  0  0  0  0  0  0  0
    3.9623    0.4925    0.1861 C   0  0  0  0  0  0  0  0  0  0  0  0
    3.3801   -1.3477   -1.4022 C   0  0  0  0  0  0  0  0  0  0  0  0
    4.1051   -0.0229   -1.1968 C   0  0  0  0  0  0  0  0  0  0  0  0
    4.8111   -0.1814    1.2012 C   0  0  0  0  0  0  0  0  0  0  0  0
    6.1860   -0.3245    0.9760 N   0  0  0  0  0  0  0  0  0  0  0  0
    6.6954   -1.2138    0.0121 C   0  0  0  0  0  0  0  0  0  0  0  0
    7.0021   -0.2144    2.1395 C   0  0  0  0  0  0  0  0  0  0  0  0
    3.5030    0.8438   -2.1387 O   0  0  0  0  0  0  0  0  0  0  0  0
   -4.8338   -0.6423    2.3690 H   0  0  0  0  0  0  0  0  0  0  0  0
   -5.4682    0.8368    1.5832 H   0  0  0  0  0  0  0  0  0  0  0  0
   -7.1788   -1.5278    0.9205 H   0  0  0  0  0  0  0  0  0  0  0  0
   -7.5890    0.0546    1.7694 H   0  0  0  0  0  0  0  0  0  0  0  0
   -6.9481   -1.3251    2.6832 H   0  0  0  0  0  0  0  0  0  0  0  0
   -5.3596   -2.4446    0.9029 H   0  0  0  0  0  0  0  0  0  0  0  0
   -3.8330    1.1060   -0.2435 H   0  0  0  0  0  0  0  0  0  0  0  0
   -6.3582   -1.1734   -1.2683 H   0  0  0  0  0  0  0  0  0  0  0  0
   -2.4424   -1.4755   -0.9081 H   0  0  0  0  0  0  0  0  0  0  0  0
   -2.1189   -1.0489    1.0770 H   0  0  0  0  0  0  0  0  0  0  0  0
   -2.9878    0.0902    2.1116 H   0  0  0  0  0  0  0  0  0  0  0  0
   -6.2171    1.6125   -0.7666 H   0  0  0  0  0  0  0  0  0  0  0  0
   -0.8022   -0.0547   -1.6877 H   0  0  0  0  0  0  0  0  0  0  0  0
   -3.5665   -0.4135   -3.3051 H   0  0  0  0  0  0  0  0  0  0  0  0
   -4.3058   -1.6723   -2.2517 H   0  0  0  0  0  0  0  0  0  0  0  0
   -1.8422    1.9438    1.4230 H   0  0  0  0  0  0  0  0  0  0  0  0
   -1.4937    0.7485   -3.4978 H   0  0  0  0  0  0  0  0  0  0  0  0
    0.0345    0.6890    2.1376 H   0  0  0  0  0  0  0  0  0  0  0  0
    0.2368    1.7296   -1.6636 H   0  0  0  0  0  0  0  0  0  0  0  0
   -0.4571    3.2436   -1.0660 H   0  0  0  0  0  0  0  0  0  0  0  0
    0.2048    2.8631    1.0970 H   0  0  0  0  0  0  0  0  0  0  0  0
   -0.0958   -1.2350    0.9839 H   0  0  0  0  0  0  0  0  0  0  0  0
    2.1885    2.2261   -0.7985 H   0  0  0  0  0  0  0  0  0  0  0  0
    2.4460    2.6674    0.8974 H   0  0  0  0  0  0  0  0  0  0  0  0
    2.0417   -1.4788    0.7905 H   0  0  0  0  0  0  0  0  0  0  0  0
    2.5380    0.5669    1.7548 H   0  0  0  0  0  0  0  0  0  0  0  0
    1.6540   -0.1967   -1.9630 H   0  0  0  0  0  0  0  0  0  0  0  0
    1.3385   -1.9233   -1.4161 H   0  0  0  0  0  0  0  0  0  0  0  0
    4.3283    1.5674    0.1491 H   0  0  0  0  0  0  0  0  0  0  0  0
    3.6321   -2.0957   -0.6433 H   0  0  0  0  0  0  0  0  0  0  0  0
    3.5854   -1.6979   -2.4275 H   0  0  0  0  0  0  0  0  0  0  0  0
    5.1308   -0.1332   -1.5012 H   0  0  0  0  0  0  0  0  0  0  0  0
    4.3995   -1.2450    1.3409 H   0  0  0  0  0  0  0  0  0  0  0  0
    4.6870    0.2914    2.2242 H   0  0  0  0  0  0  0  0  0  0  0  0
    5.9684   -1.9812   -0.3089 H   0  0  0  0  0  0  0  0  0  0  0  0
    7.2709   -0.7521   -0.8248 H   0  0  0  0  0  0  0  0  0  0  0  0
    7.5171   -1.8153    0.5464 H   0  0  0  0  0  0  0  0  0  0  0  0
    7.5750   -1.1794    2.2308 H   0  0  0  0  0  0  0  0  0  0  0  0
    6.3740   -0.0798    3.0394 H   0  0  0  0  0  0  0  0  0  0  0  0
    7.7250    0.6245    2.0012 H   0  0  0  0  0  0  0  0  0  0  0  0
    4.1922    1.5117   -2.4063 H   0  0  0  0  0  0  0  0  0  0  0  0
  1  2  1  0
  1  3  1  0
  3  4  1  1
  3  5  1  0
  3  6  1  0
  5  7  1  0
  5  8  1  0
  6  9  1  0
  6 10  1  0
  7 11  1  0
  7 12  1  0
 10 12  1  0
  8 13  1  0
 11 14  1  0
 11 15  1  0
 13 15  1  0
 13 16  1  0
 15 17  1  0
 16 18  1  0
 17 18  1  0
 16 19  1  0
 18 20  1  0
 19 21  1  0
 20 22  1  0
 21 22  1  0
 21 23  1  0
 22 24  1  0
 23 25  1  0
 24 26  1  0
 25 26  1  0
 24 27  1  0
 27 28  1  0
 28 29  1  0
 28 30  1  0
 26 31  1  0
  1 32  1  0
  1 33  1  0
  2 34  1  0
  2 35  1  0
  2 36  1  0
  4 37  1  0
  5 38  1  0
  6 39  1  0
  7 40  1  0
  8 41  1  0
  8 42  1  0
  9 43  1  0
 11 44  1  0
 12 45  1  0
 12 46  1  0
 13 47  1  0
 14 48  1  0
 16 49  1  0
 17 50  1  0
 17 51  1  0
 18 52  1  0
 19 53  1  0
 20 54  1  0
 20 55  1  0
 21 56  1  0
 22 57  1  0
 23 58  1  0
 23 59  1  0
 24 60  1  0
 25 61  1  0
 25 62  1  0
 26 63  1  0
 27 64  1  0
 27 65  1  0
 29 66  1  0
 29 67  1  0
 29 68  1  0
 30 69  1  0
 30 70  1  0
 30 71  1  0
 31 72  1  0
M  END
>  <PDBID>  (1) 
1K4T

>  <PDB ID>  (1) 
1K4T

>  <Generic Name>  (1) 
Topotecan

>  <Brand Name>  (1) 
Act Topotecan#Hycamtin#Mylan-topotecan Hydrochloride for Injection#PMS-topotecan#Topotecan#Topotecan Hydrochloride#Topotecan Hydrochloride for Injection#Topotecan Injection#Topotecan for Injection

>  <DrugBank ID>  (1) 
DB01030

>  <ATC Codes>  (1) 
L01XX17

>  <Ligand ID>  (1) 
TTC

>  <Target Name>  (1) 
DNA topoisomerase 1

>  <UniProt ID>  (1) 
P11387

>  <PDB ID.1>  (1) 
1K4T

>  <Seq. Identity>  (1) 
92%

$$$$
