PDB_DB01361_08
     RDKit          3D

134137  0  0  0  0  0  0  0  0999 V2000
    7.0850   -1.2430    2.5982 C   0  0  0  0  0  0  0  0  0  0  0  0
    6.6064   -0.1323    1.8985 O   0  0  0  0  0  0  0  0  0  0  0  0
    5.7829   -0.5164    0.8448 C   0  0  1  0  0  0  0  0  0  0  0  0
    4.4519    0.2201    0.9677 C   0  0  0  0  0  0  0  0  0  0  0  0
    3.5842   -0.1159   -0.2272 C   0  0  1  0  0  0  0  0  0  0  0  0
    4.2887   -0.9358   -1.1256 O   0  0  0  0  0  0  0  0  0  0  0  0
    5.4230   -0.2841   -1.5853 C   0  0  1  0  0  0  0  0  0  0  0  0
    5.1360    1.0085   -2.3086 C   0  0  0  0  0  0  0  0  0  0  0  0
    6.4045   -0.0091   -0.4626 C   0  0  2  0  0  0  0  0  0  0  0  0
    7.5823   -0.7263   -0.6583 O   0  0  0  0  0  0  0  0  0  0  0  0
    8.7002    0.1358   -0.6504 C   0  0  1  0  0  0  0  0  0  0  0  0
    9.5854   -0.1830    0.3521 O   0  0  0  0  0  0  0  0  0  0  0  0
    9.3465    0.1057   -2.0220 C   0  0  0  0  0  0  0  0  0  0  0  0
    2.3843   -0.6369    0.1389 O   0  0  0  0  0  0  0  0  0  0  0  0
    1.2429    0.0907   -0.3197 C   0  0  2  0  0  0  0  0  0  0  0  0
    0.5756    0.6234    0.8837 C   0  0  2  0  0  0  0  0  0  0  0  0
    0.7709    2.1421    1.0428 C   0  0  0  0  0  0  0  0  0  0  0  0
    1.3297    2.6146   -0.1156 O   0  0  0  0  0  0  0  0  0  0  0  0
   -0.3769    2.7506    1.4718 O   0  0  0  0  0  0  0  0  0  0  0  0
   -0.3706    4.0878    1.2005 C   0  0  2  0  0  0  0  0  0  0  0  0
    0.5556    4.8864    2.0873 C   0  0  0  0  0  0  0  0  0  0  0  0
   -1.7377    4.7247    1.2576 C   0  0  2  0  0  0  0  0  0  0  0  0
   -1.8353    5.4974    2.5534 C   0  0  0  0  0  0  0  0  0  0  0  0
   -2.8533    3.7151    1.0969 C   0  0  1  0  0  0  0  0  0  0  0  0
   -3.6579    3.8524    2.2312 O   0  0  0  0  0  0  0  0  0  0  0  0
   -3.7362    2.7481    3.0305 C   0  0  2  0  0  0  0  0  0  0  0  0
   -5.0377    2.2488    3.1442 O   0  0  0  0  0  0  0  0  0  0  0  0
   -3.2870    3.0049    4.4690 C   0  0  0  0  0  0  0  0  0  0  0  0
   -3.6580    3.8970   -0.1523 C   0  0  2  0  0  0  0  0  0  0  0  0
   -4.1639    2.6526   -0.7902 C   0  0  2  0  0  0  0  0  0  0  0  0
   -4.1838    1.6363    0.1822 O   0  0  0  0  0  0  0  0  0  0  0  0
   -3.3505    2.1079   -1.9318 C   0  0  2  0  0  0  0  0  0  0  0  0
   -3.3371    2.6663   -3.1801 O   0  0  0  0  0  0  0  0  0  0  0  0
   -4.2041    1.5983   -3.0651 C   0  0  0  0  0  0  0  0  0  0  0  0
   -2.2194    1.3434   -1.3801 C   0  0  0  0  0  0  0  0  0  0  0  0
   -1.4045    0.5252   -2.3544 C   0  0  1  0  0  0  0  0  0  0  0  0
   -0.5134    1.3822   -3.1639 C   0  0  0  0  0  0  0  0  0  0  0  0
   -0.8468   -0.6712   -1.6772 C   0  0  2  0  0  0  0  0  0  0  0  0
   -1.8119   -1.1362   -0.7450 O   0  0  0  0  0  0  0  0  0  0  0  0
   -2.4660   -2.2659   -1.1275 C   0  0  2  0  0  0  0  0  0  0  0  0
   -3.8182   -2.0021   -1.4143 O   0  0  0  0  0  0  0  0  0  0  0  0
   -4.5004   -3.1596   -1.6909 C   0  0  2  0  0  0  0  0  0  0  0  0
   -5.5527   -3.4983   -0.6507 C   0  0  0  0  0  0  0  0  0  0  0  0
   -3.6451   -4.3395   -2.0699 C   0  0  0  0  0  0  0  0  0  0  0  0
   -2.5651   -4.6696   -1.0810 C   0  0  2  0  0  0  0  0  0  0  0  0
   -2.8418   -5.8664   -0.3634 N   0  0  0  0  0  0  0  0  0  0  0  0
   -1.6417   -6.4891    0.1735 C   0  0  0  0  0  0  0  0  0  0  0  0
   -3.4767   -6.8424   -1.2261 C   0  0  0  0  0  0  0  0  0  0  0  0
   -2.4226   -3.4344   -0.1935 C   0  0  1  0  0  0  0  0  0  0  0  0
   -1.3623   -3.4737    0.6668 O   0  0  0  0  0  0  0  0  0  0  0  0
   -1.7781   -3.3479    1.9905 C   0  0  2  0  0  0  0  0  0  0  0  0
   -1.2199   -2.1880    2.4963 O   0  0  0  0  0  0  0  0  0  0  0  0
   -1.3521   -4.4890    2.8786 C   0  0  0  0  0  0  0  0  0  0  0  0
    0.5034   -0.8039   -1.2154 C   0  0  1  0  0  0  0  0  0  0  0  0
    1.4114   -1.1161   -2.4210 C   0  0  0  0  0  0  0  0  0  0  0  0
   -3.0303    4.7999   -1.1821 C   0  0  0  0  0  0  0  0  0  0  0  0
    1.1282    0.0468    2.1899 C   0  0  0  0  0  0  0  0  0  0  0  0
    7.7363   -0.9632    3.4364 H   0  0  0  0  0  0  0  0  0  0  0  0
    7.6985   -1.8905    1.9088 H   0  0  0  0  0  0  0  0  0  0  0  0
    6.2557   -1.8500    3.0083 H   0  0  0  0  0  0  0  0  0  0  0  0
    5.6711   -1.5973    0.7865 H   0  0  0  0  0  0  0  0  0  0  0  0
    4.0131   -0.0782    1.9350 H   0  0  0  0  0  0  0  0  0  0  0  0
    4.6095    1.3128    1.0034 H   0  0  0  0  0  0  0  0  0  0  0  0
    3.4116    0.8219   -0.7939 H   0  0  0  0  0  0  0  0  0  0  0  0
    5.9384   -0.9422   -2.3165 H   0  0  0  0  0  0  0  0  0  0  0  0
    5.0651    1.8825   -1.6285 H   0  0  0  0  0  0  0  0  0  0  0  0
    5.9312    1.2180   -3.0827 H   0  0  0  0  0  0  0  0  0  0  0  0
    4.1751    0.8943   -2.8438 H   0  0  0  0  0  0  0  0  0  0  0  0
    6.6695    1.0494   -0.3550 H   0  0  0  0  0  0  0  0  0  0  0  0
    8.3631    1.1937   -0.4823 H   0  0  0  0  0  0  0  0  0  0  0  0
   10.5402   -0.0999    0.1006 H   0  0  0  0  0  0  0  0  0  0  0  0
    8.6822   -0.4248   -2.7239 H   0  0  0  0  0  0  0  0  0  0  0  0
    9.4956    1.1204   -2.4050 H   0  0  0  0  0  0  0  0  0  0  0  0
   10.3560   -0.3644   -1.9601 H   0  0  0  0  0  0  0  0  0  0  0  0
    1.7067    0.9180   -0.8869 H   0  0  0  0  0  0  0  0  0  0  0  0
   -0.5101    0.3775    0.9480 H   0  0  0  0  0  0  0  0  0  0  0  0
    1.5431    2.3585    1.8451 H   0  0  0  0  0  0  0  0  0  0  0  0
    0.7702    2.7126   -0.8910 H   0  0  0  0  0  0  0  0  0  0  0  0
    0.0250    4.2310    0.1659 H   0  0  0  0  0  0  0  0  0  0  0  0
    1.5888    4.9541    1.6299 H   0  0  0  0  0  0  0  0  0  0  0  0
    0.2470    5.9456    2.2026 H   0  0  0  0  0  0  0  0  0  0  0  0
    0.7082    4.4633    3.0790 H   0  0  0  0  0  0  0  0  0  0  0  0
   -1.7873    5.4742    0.4444 H   0  0  0  0  0  0  0  0  0  0  0  0
   -1.2042    5.0824    3.3634 H   0  0  0  0  0  0  0  0  0  0  0  0
   -1.6711    6.5951    2.3989 H   0  0  0  0  0  0  0  0  0  0  0  0
   -2.8841    5.4505    2.9702 H   0  0  0  0  0  0  0  0  0  0  0  0
   -2.4792    2.6734    1.1420 H   0  0  0  0  0  0  0  0  0  0  0  0
   -3.1233    1.9050    2.6573 H   0  0  0  0  0  0  0  0  0  0  0  0
   -4.9968    1.4359    3.7081 H   0  0  0  0  0  0  0  0  0  0  0  0
   -3.7761    3.8855    4.8948 H   0  0  0  0  0  0  0  0  0  0  0  0
   -2.1959    3.1874    4.4402 H   0  0  0  0  0  0  0  0  0  0  0  0
   -3.4289    2.0822    5.0708 H   0  0  0  0  0  0  0  0  0  0  0  0
   -4.5963    4.4730    0.1573 H   0  0  0  0  0  0  0  0  0  0  0  0
   -5.2560    2.7528   -1.0779 H   0  0  0  0  0  0  0  0  0  0  0  0
   -4.8328    0.9214   -0.0239 H   0  0  0  0  0  0  0  0  0  0  0  0
   -4.0541    0.6380   -3.5433 H   0  0  0  0  0  0  0  0  0  0  0  0
   -5.3078    1.8789   -3.0709 H   0  0  0  0  0  0  0  0  0  0  0  0
   -1.4932    2.0447   -0.9170 H   0  0  0  0  0  0  0  0  0  0  0  0
   -2.5986    0.7081   -0.5322 H   0  0  0  0  0  0  0  0  0  0  0  0
   -2.2016    0.2031   -3.1090 H   0  0  0  0  0  0  0  0  0  0  0  0
   -0.9077    2.4437   -3.0652 H   0  0  0  0  0  0  0  0  0  0  0  0
    0.5313    1.4549   -2.8746 H   0  0  0  0  0  0  0  0  0  0  0  0
   -0.6198    1.2300   -4.2885 H   0  0  0  0  0  0  0  0  0  0  0  0
   -0.9342   -1.4752   -2.5001 H   0  0  0  0  0  0  0  0  0  0  0  0
   -2.0344   -2.6010   -2.1173 H   0  0  0  0  0  0  0  0  0  0  0  0
   -5.1000   -2.9317   -2.6297 H   0  0  0  0  0  0  0  0  0  0  0  0
   -6.5803   -3.5963   -1.1010 H   0  0  0  0  0  0  0  0  0  0  0  0
   -5.6261   -2.7047    0.1081 H   0  0  0  0  0  0  0  0  0  0  0  0
   -5.3749   -4.4510   -0.1438 H   0  0  0  0  0  0  0  0  0  0  0  0
   -4.3451   -5.1846   -2.2330 H   0  0  0  0  0  0  0  0  0  0  0  0
   -3.2293   -4.1279   -3.0889 H   0  0  0  0  0  0  0  0  0  0  0  0
   -1.5749   -4.7148   -1.6280 H   0  0  0  0  0  0  0  0  0  0  0  0
   -0.8343   -5.7490    0.3330 H   0  0  0  0  0  0  0  0  0  0  0  0
   -1.3200   -7.2742   -0.5430 H   0  0  0  0  0  0  0  0  0  0  0  0
   -1.8431   -6.9802    1.1446 H   0  0  0  0  0  0  0  0  0  0  0  0
   -3.1101   -6.7789   -2.2695 H   0  0  0  0  0  0  0  0  0  0  0  0
   -4.5806   -6.8540   -1.1296 H   0  0  0  0  0  0  0  0  0  0  0  0
   -3.1753   -7.8843   -0.8888 H   0  0  0  0  0  0  0  0  0  0  0  0
   -3.3474   -3.3349    0.4556 H   0  0  0  0  0  0  0  0  0  0  0  0
   -2.8833   -3.2518    2.0730 H   0  0  0  0  0  0  0  0  0  0  0  0
   -1.9044   -1.5684    2.8442 H   0  0  0  0  0  0  0  0  0  0  0  0
   -2.1428   -5.2735    2.8013 H   0  0  0  0  0  0  0  0  0  0  0  0
   -1.3806   -4.0952    3.9309 H   0  0  0  0  0  0  0  0  0  0  0  0
   -0.3579   -4.8707    2.6071 H   0  0  0  0  0  0  0  0  0  0  0  0
    0.5014   -1.8171   -0.6695 H   0  0  0  0  0  0  0  0  0  0  0  0
    2.1114   -0.2809   -2.6115 H   0  0  0  0  0  0  0  0  0  0  0  0
    2.0361   -2.0163   -2.2494 H   0  0  0  0  0  0  0  0  0  0  0  0
    0.7924   -1.3615   -3.3085 H   0  0  0  0  0  0  0  0  0  0  0  0
   -3.2022    5.8888   -0.9226 H   0  0  0  0  0  0  0  0  0  0  0  0
   -2.0067    4.5619   -1.4532 H   0  0  0  0  0  0  0  0  0  0  0  0
   -3.6518    4.6839   -2.1150 H   0  0  0  0  0  0  0  0  0  0  0  0
    1.9049    0.7209    2.6153 H   0  0  0  0  0  0  0  0  0  0  0  0
    1.4476   -0.9733    1.9928 H   0  0  0  0  0  0  0  0  0  0  0  0
    0.3181   -0.0043    2.9750 H   0  0  0  0  0  0  0  0  0  0  0  0
  1  2  1  0
  2  3  1  0
  3  4  1  0
  4  5  1  0
  5  6  1  0
  6  7  1  0
  7  8  1  0
  3  9  1  0
  7  9  1  0
  9 10  1  0
 10 11  1  0
 11 12  1  0
 11 13  1  0
  5 14  1  0
 14 15  1  0
 15 16  1  0
 16 17  1  0
 17 18  1  0
 17 19  1  0
 19 20  1  0
 20 21  1  0
 20 22  1  0
 22 23  1  0
 22 24  1  0
 24 25  1  0
 25 26  1  0
 26 27  1  0
 26 28  1  0
 24 29  1  0
 29 30  1  0
 30 31  1  0
 30 32  1  0
 32 33  1  6
 32 34  1  0
 33 34  1  0
 32 35  1  0
 35 36  1  0
 36 37  1  0
 36 38  1  0
 38 39  1  0
 39 40  1  0
 40 41  1  0
 41 42  1  0
 42 43  1  0
 42 44  1  0
 44 45  1  0
 45 46  1  0
 46 47  1  0
 46 48  1  0
 40 49  1  0
 45 49  1  0
 49 50  1  0
 50 51  1  0
 51 52  1  0
 51 53  1  0
 15 54  1  0
 38 54  1  0
 54 55  1  0
 29 56  1  0
 16 57  1  0
  1 58  1  0
  1 59  1  0
  1 60  1  0
  3 61  1  6
  4 62  1  0
  4 63  1  0
  5 64  1  6
  7 65  1  6
  8 66  1  0
  8 67  1  0
  8 68  1  0
  9 69  1  1
 11 70  1  1
 12 71  1  0
 13 72  1  0
 13 73  1  0
 13 74  1  0
 15 75  1  6
 16 76  1  6
 17 77  1  0
 18 78  1  0
 20 79  1  6
 21 80  1  0
 21 81  1  0
 21 82  1  0
 22 83  1  6
 23 84  1  0
 23 85  1  0
 23 86  1  0
 24 87  1  6
 26 88  1  6
 27 89  1  0
 28 90  1  0
 28 91  1  0
 28 92  1  0
 29 93  1  1
 30 94  1  6
 31 95  1  0
 34 96  1  0
 34 97  1  0
 35 98  1  0
 35 99  1  0
 36100  1  6
 37101  1  0
 37102  1  0
 37103  1  0
 38104  1  6
 40105  1  6
 42106  1  6
 43107  1  0
 43108  1  0
 43109  1  0
 44110  1  0
 44111  1  0
 45112  1  6
 47113  1  0
 47114  1  0
 47115  1  0
 48116  1  0
 48117  1  0
 48118  1  0
 49119  1  1
 51120  1  6
 52121  1  0
 53122  1  0
 53123  1  0
 53124  1  0
 54125  1  1
 55126  1  0
 55127  1  0
 55128  1  0
 56129  1  0
 56130  1  0
 56131  1  0
 57132  1  0
 57133  1  0
 57134  1  0
M  END
>  <PDBID>  (1) 
1OND

>  <PDB ID>  (1) 
1OND

>  <Generic Name>  (1) 
Troleandomycin

>  <Brand Name>  (1) 
Tao#Triocetin

>  <DrugBank ID>  (1) 
DB01361

>  <ATC Codes>  (1) 
J01FA08

>  <Ligand ID>  (1) 
TAO

>  <Target Name>  (1) 
50S ribosomal protein L32

>  <UniProt ID>  (1) 
P49228

>  <PDB ID.1>  (1) 
1OND

>  <Seq. Identity>  (1) 
100%

$$$$
