PDB_DB01095_05
     RDKit          3D

296304  0  0  0  0  0  0  0  0999 V2000
   -2.4836   -0.7184    0.6090 C   0  0  0  0  0  0  0  0  0  0  0  0
   -2.6216   -1.2833   -0.7815 C   0  0  0  0  0  0  0  0  0  0  0  0
   -3.8225   -2.0876   -0.9516 C   0  0  0  0  0  0  0  0  0  0  0  0
   -4.6408   -2.4698    0.2238 C   0  0  0  0  0  0  0  0  0  0  0  0
   -4.4663   -1.7154    1.4785 C   0  0  0  0  0  0  0  0  0  0  0  0
   -3.7102   -0.3690    1.2590 C   0  0  0  0  0  0  0  0  0  0  0  0
   -1.2606    0.0941    0.5205 C   0  0  0  0  0  0  0  0  0  0  0  0
   -0.4316   -0.8592   -0.2926 C   0  0  0  0  0  0  0  0  0  0  0  0
   -1.3164   -1.8591   -0.9090 N   0  0  0  0  0  0  0  0  0  0  0  0
   -2.9468    2.9386   -0.9684 C   0  0  0  0  0  0  0  0  0  0  0  0
   -1.6395    2.1541   -1.0057 C   0  0  0  0  0  0  0  0  0  0  0  0
   -1.2483    1.5062    0.2282 C   0  0  0  0  0  0  0  0  0  0  0  0
   -2.1104    2.2766    1.2956 C   0  0  0  0  0  0  0  0  0  0  0  0
   -1.7795    3.7339    1.0413 C   0  0  0  0  0  0  0  0  0  0  0  0
   -2.6988    4.1693   -0.1087 C   0  0  0  0  0  0  0  0  0  0  0  0
   -1.9678    5.0785   -0.8566 F   0  0  0  0  0  0  0  0  0  0  0  0
    7.5569    1.8748    1.6922 O   0  0  0  0  0  0  0  0  0  0  0  0
    6.9337   -0.1763    0.8584 O   0  0  0  0  0  0  0  0  0  0  0  0
    4.0984    1.7681   -1.4739 O   0  0  0  0  0  0  0  0  0  0  0  0
    6.4874    1.0692    1.2454 C   0  0  0  0  0  0  0  0  0  0  0  0
    5.8052    1.7849    0.1109 C   0  0  0  0  0  0  0  0  0  0  0  0
    4.6278    1.0008   -0.4536 C   0  0  1  0  0  0  0  0  0  0  0  0
    3.6525    0.6354    0.5931 C   0  0  0  0  0  0  0  0  0  0  0  0
    2.4950   -0.1731    0.1042 C   0  0  1  0  0  0  0  0  0  0  0  0
    1.6399    0.4888   -0.9479 C   0  0  0  0  0  0  0  0  0  0  0  0
    0.4877   -0.4096   -1.3254 C   0  0  0  0  0  0  0  0  0  0  0  0
   -1.0990   -3.1904   -0.6551 C   0  0  0  0  0  0  0  0  0  0  0  0
   -1.2421   -3.7896    0.6985 C   0  0  0  0  0  0  0  0  0  0  0  0
    0.2094   -3.7320   -1.2352 C   0  0  0  0  0  0  0  0  0  0  0  0
    2.9064   -1.4426   -0.3310 O   0  0  0  0  0  0  0  0  0  0  0  0
   -2.4836   -0.7184    0.6090 C   0  0  0  0  0  0  0  0  0  0  0  0
   -2.6216   -1.2833   -0.7815 C   0  0  0  0  0  0  0  0  0  0  0  0
   -3.8225   -2.0876   -0.9516 C   0  0  0  0  0  0  0  0  0  0  0  0
   -4.6408   -2.4698    0.2238 C   0  0  0  0  0  0  0  0  0  0  0  0
   -4.4663   -1.7154    1.4785 C   0  0  0  0  0  0  0  0  0  0  0  0
   -3.7102   -0.3690    1.2590 C   0  0  0  0  0  0  0  0  0  0  0  0
   -1.2606    0.0941    0.5205 C   0  0  0  0  0  0  0  0  0  0  0  0
   -0.4316   -0.8592   -0.2926 C   0  0  0  0  0  0  0  0  0  0  0  0
   -1.3164   -1.8591   -0.9090 N   0  0  0  0  0  0  0  0  0  0  0  0
   -2.9468    2.9386   -0.9684 C   0  0  0  0  0  0  0  0  0  0  0  0
   -1.6395    2.1541   -1.0057 C   0  0  0  0  0  0  0  0  0  0  0  0
   -1.2483    1.5062    0.2282 C   0  0  0  0  0  0  0  0  0  0  0  0
   -2.1104    2.2766    1.2956 C   0  0  0  0  0  0  0  0  0  0  0  0
   -1.7795    3.7339    1.0413 C   0  0  0  0  0  0  0  0  0  0  0  0
   -2.6988    4.1693   -0.1087 C   0  0  0  0  0  0  0  0  0  0  0  0
   -1.9678    5.0785   -0.8566 F   0  0  0  0  0  0  0  0  0  0  0  0
    7.5569    1.8748    1.6922 O   0  0  0  0  0  0  0  0  0  0  0  0
    6.9337   -0.1763    0.8584 O   0  0  0  0  0  0  0  0  0  0  0  0
    4.0984    1.7681   -1.4739 O   0  0  0  0  0  0  0  0  0  0  0  0
    6.4874    1.0692    1.2454 C   0  0  0  0  0  0  0  0  0  0  0  0
    5.8052    1.7849    0.1109 C   0  0  0  0  0  0  0  0  0  0  0  0
    4.6278    1.0008   -0.4536 C   0  0  1  0  0  0  0  0  0  0  0  0
    3.6525    0.6354    0.5931 C   0  0  0  0  0  0  0  0  0  0  0  0
    2.4950   -0.1731    0.1042 C   0  0  1  0  0  0  0  0  0  0  0  0
    1.6399    0.4888   -0.9479 C   0  0  0  0  0  0  0  0  0  0  0  0
    0.4877   -0.4096   -1.3254 C   0  0  0  0  0  0  0  0  0  0  0  0
   -1.0990   -3.1904   -0.6551 C   0  0  0  0  0  0  0  0  0  0  0  0
   -1.2421   -3.7896    0.6985 C   0  0  0  0  0  0  0  0  0  0  0  0
    0.2094   -3.7320   -1.2352 C   0  0  0  0  0  0  0  0  0  0  0  0
    2.9064   -1.4426   -0.3310 O   0  0  0  0  0  0  0  0  0  0  0  0
   -2.4836   -0.7184    0.6090 C   0  0  0  0  0  0  0  0  0  0  0  0
   -2.6216   -1.2833   -0.7815 C   0  0  0  0  0  0  0  0  0  0  0  0
   -3.8225   -2.0876   -0.9516 C   0  0  0  0  0  0  0  0  0  0  0  0
   -4.6408   -2.4698    0.2238 C   0  0  0  0  0  0  0  0  0  0  0  0
   -4.4663   -1.7154    1.4785 C   0  0  0  0  0  0  0  0  0  0  0  0
   -3.7102   -0.3690    1.2590 C   0  0  0  0  0  0  0  0  0  0  0  0
   -1.2606    0.0941    0.5205 C   0  0  0  0  0  0  0  0  0  0  0  0
   -0.4316   -0.8592   -0.2926 C   0  0  0  0  0  0  0  0  0  0  0  0
   -1.3164   -1.8591   -0.9090 N   0  0  0  0  0  0  0  0  0  0  0  0
   -2.9468    2.9386   -0.9684 C   0  0  0  0  0  0  0  0  0  0  0  0
   -1.6395    2.1541   -1.0057 C   0  0  0  0  0  0  0  0  0  0  0  0
   -1.2483    1.5062    0.2282 C   0  0  0  0  0  0  0  0  0  0  0  0
   -2.1104    2.2766    1.2956 C   0  0  0  0  0  0  0  0  0  0  0  0
   -1.7795    3.7339    1.0413 C   0  0  0  0  0  0  0  0  0  0  0  0
   -2.6988    4.1693   -0.1087 C   0  0  0  0  0  0  0  0  0  0  0  0
   -1.9678    5.0785   -0.8566 F   0  0  0  0  0  0  0  0  0  0  0  0
    7.5569    1.8748    1.6922 O   0  0  0  0  0  0  0  0  0  0  0  0
    6.9337   -0.1763    0.8584 O   0  0  0  0  0  0  0  0  0  0  0  0
    4.0984    1.7681   -1.4739 O   0  0  0  0  0  0  0  0  0  0  0  0
    6.4874    1.0692    1.2454 C   0  0  0  0  0  0  0  0  0  0  0  0
    5.8052    1.7849    0.1109 C   0  0  0  0  0  0  0  0  0  0  0  0
    4.6278    1.0008   -0.4536 C   0  0  1  0  0  0  0  0  0  0  0  0
    3.6525    0.6354    0.5931 C   0  0  0  0  0  0  0  0  0  0  0  0
    2.4950   -0.1731    0.1042 C   0  0  1  0  0  0  0  0  0  0  0  0
    1.6399    0.4888   -0.9479 C   0  0  0  0  0  0  0  0  0  0  0  0
    0.4877   -0.4096   -1.3254 C   0  0  0  0  0  0  0  0  0  0  0  0
   -1.0990   -3.1904   -0.6551 C   0  0  0  0  0  0  0  0  0  0  0  0
   -1.2421   -3.7896    0.6985 C   0  0  0  0  0  0  0  0  0  0  0  0
    0.2094   -3.7320   -1.2352 C   0  0  0  0  0  0  0  0  0  0  0  0
    2.9064   -1.4426   -0.3310 O   0  0  0  0  0  0  0  0  0  0  0  0
   -2.4836   -0.7184    0.6090 C   0  0  0  0  0  0  0  0  0  0  0  0
   -2.6216   -1.2833   -0.7815 C   0  0  0  0  0  0  0  0  0  0  0  0
   -3.8225   -2.0876   -0.9516 C   0  0  0  0  0  0  0  0  0  0  0  0
   -4.6408   -2.4698    0.2238 C   0  0  0  0  0  0  0  0  0  0  0  0
   -4.4663   -1.7154    1.4785 C   0  0  0  0  0  0  0  0  0  0  0  0
   -3.7102   -0.3690    1.2590 C   0  0  0  0  0  0  0  0  0  0  0  0
   -1.2606    0.0941    0.5205 C   0  0  0  0  0  0  0  0  0  0  0  0
   -0.4316   -0.8592   -0.2926 C   0  0  0  0  0  0  0  0  0  0  0  0
   -1.3164   -1.8591   -0.9090 N   0  0  0  0  0  0  0  0  0  0  0  0
   -2.9468    2.9386   -0.9684 C   0  0  0  0  0  0  0  0  0  0  0  0
   -1.6395    2.1541   -1.0057 C   0  0  0  0  0  0  0  0  0  0  0  0
   -1.2483    1.5062    0.2282 C   0  0  0  0  0  0  0  0  0  0  0  0
   -2.1104    2.2766    1.2956 C   0  0  0  0  0  0  0  0  0  0  0  0
   -1.7795    3.7339    1.0413 C   0  0  0  0  0  0  0  0  0  0  0  0
   -2.6988    4.1693   -0.1087 C   0  0  0  0  0  0  0  0  0  0  0  0
   -1.9678    5.0785   -0.8566 F   0  0  0  0  0  0  0  0  0  0  0  0
    7.5569    1.8748    1.6922 O   0  0  0  0  0  0  0  0  0  0  0  0
    6.9337   -0.1763    0.8584 O   0  0  0  0  0  0  0  0  0  0  0  0
    4.0984    1.7681   -1.4739 O   0  0  0  0  0  0  0  0  0  0  0  0
    6.4874    1.0692    1.2454 C   0  0  0  0  0  0  0  0  0  0  0  0
    5.8052    1.7849    0.1109 C   0  0  0  0  0  0  0  0  0  0  0  0
    4.6278    1.0008   -0.4536 C   0  0  1  0  0  0  0  0  0  0  0  0
    3.6525    0.6354    0.5931 C   0  0  0  0  0  0  0  0  0  0  0  0
    2.4950   -0.1731    0.1042 C   0  0  1  0  0  0  0  0  0  0  0  0
    1.6399    0.4888   -0.9479 C   0  0  0  0  0  0  0  0  0  0  0  0
    0.4877   -0.4096   -1.3254 C   0  0  0  0  0  0  0  0  0  0  0  0
   -1.0990   -3.1904   -0.6551 C   0  0  0  0  0  0  0  0  0  0  0  0
   -1.2421   -3.7896    0.6985 C   0  0  0  0  0  0  0  0  0  0  0  0
    0.2094   -3.7320   -1.2352 C   0  0  0  0  0  0  0  0  0  0  0  0
    2.9064   -1.4426   -0.3310 O   0  0  0  0  0  0  0  0  0  0  0  0
   -2.1242   -1.6443    1.1872 H   0  0  0  0  0  0  0  0  0  0  0  0
   -2.5965   -0.4686   -1.5606 H   0  0  0  0  0  0  0  0  0  0  0  0
   -4.5344   -1.4835   -1.6182 H   0  0  0  0  0  0  0  0  0  0  0  0
   -3.6283   -2.9636   -1.6029 H   0  0  0  0  0  0  0  0  0  0  0  0
   -5.7462   -2.4125   -0.0280 H   0  0  0  0  0  0  0  0  0  0  0  0
   -4.5104   -3.5530    0.4313 H   0  0  0  0  0  0  0  0  0  0  0  0
   -3.8343   -2.2429    2.2248 H   0  0  0  0  0  0  0  0  0  0  0  0
   -5.4002   -1.4303    2.0055 H   0  0  0  0  0  0  0  0  0  0  0  0
   -3.5442    0.0278    2.2730 H   0  0  0  0  0  0  0  0  0  0  0  0
   -4.4839    0.2352    0.7663 H   0  0  0  0  0  0  0  0  0  0  0  0
   -0.8023    0.0375    1.5764 H   0  0  0  0  0  0  0  0  0  0  0  0
    0.2105   -1.5161    0.3987 H   0  0  0  0  0  0  0  0  0  0  0  0
   -3.1226    3.3395   -2.0007 H   0  0  0  0  0  0  0  0  0  0  0  0
   -3.8151    2.3628   -0.6730 H   0  0  0  0  0  0  0  0  0  0  0  0
   -1.6431    1.6213   -1.9581 H   0  0  0  0  0  0  0  0  0  0  0  0
   -0.9009    3.0035   -1.2441 H   0  0  0  0  0  0  0  0  0  0  0  0
   -0.2491    1.9329    0.5699 H   0  0  0  0  0  0  0  0  0  0  0  0
   -1.7471    1.9490    2.2835 H   0  0  0  0  0  0  0  0  0  0  0  0
   -3.1597    2.0603    1.1976 H   0  0  0  0  0  0  0  0  0  0  0  0
   -0.7178    3.7855    0.7382 H   0  0  0  0  0  0  0  0  0  0  0  0
   -1.9251    4.3737    1.9307 H   0  0  0  0  0  0  0  0  0  0  0  0
   -3.6445    4.6049    0.2695 H   0  0  0  0  0  0  0  0  0  0  0  0
    7.9929    1.3845    2.4520 H   0  0  0  0  0  0  0  0  0  0  0  0
    7.2620   -0.1191   -0.0727 H   0  0  0  0  0  0  0  0  0  0  0  0
    4.2365    2.7169   -1.2825 H   0  0  0  0  0  0  0  0  0  0  0  0
    5.8399    0.9341    2.1222 H   0  0  0  0  0  0  0  0  0  0  0  0
    6.5195    1.9239   -0.7155 H   0  0  0  0  0  0  0  0  0  0  0  0
    5.4335    2.7660    0.4534 H   0  0  0  0  0  0  0  0  0  0  0  0
    5.0505    0.0614   -0.8773 H   0  0  0  0  0  0  0  0  0  0  0  0
    3.2951    1.5456    1.1362 H   0  0  0  0  0  0  0  0  0  0  0  0
    4.2048    0.0154    1.3605 H   0  0  0  0  0  0  0  0  0  0  0  0
    1.8740   -0.3996    1.0254 H   0  0  0  0  0  0  0  0  0  0  0  0
    1.4310    1.4960   -0.6361 H   0  0  0  0  0  0  0  0  0  0  0  0
    2.3274    0.5056   -1.8756 H   0  0  0  0  0  0  0  0  0  0  0  0
    1.0254   -1.3378   -1.7065 H   0  0  0  0  0  0  0  0  0  0  0  0
    0.0026   -0.0667   -2.2818 H   0  0  0  0  0  0  0  0  0  0  0  0
   -1.8822   -3.7916   -1.2748 H   0  0  0  0  0  0  0  0  0  0  0  0
   -0.5533   -3.3734    1.4759 H   0  0  0  0  0  0  0  0  0  0  0  0
   -2.2677   -3.9765    1.0485 H   0  0  0  0  0  0  0  0  0  0  0  0
   -0.8306   -4.8528    0.5900 H   0  0  0  0  0  0  0  0  0  0  0  0
    0.3558   -3.4724   -2.2932 H   0  0  0  0  0  0  0  0  0  0  0  0
    1.0975   -3.4244   -0.6643 H   0  0  0  0  0  0  0  0  0  0  0  0
    0.2095   -4.8676   -1.1228 H   0  0  0  0  0  0  0  0  0  0  0  0
    3.8808   -1.5842   -0.2391 H   0  0  0  0  0  0  0  0  0  0  0  0
   -2.1242   -1.6443    1.1872 H   0  0  0  0  0  0  0  0  0  0  0  0
   -2.5965   -0.4686   -1.5606 H   0  0  0  0  0  0  0  0  0  0  0  0
   -4.5344   -1.4835   -1.6182 H   0  0  0  0  0  0  0  0  0  0  0  0
   -3.6283   -2.9636   -1.6029 H   0  0  0  0  0  0  0  0  0  0  0  0
   -5.7462   -2.4125   -0.0280 H   0  0  0  0  0  0  0  0  0  0  0  0
   -4.5104   -3.5530    0.4313 H   0  0  0  0  0  0  0  0  0  0  0  0
   -3.8343   -2.2429    2.2248 H   0  0  0  0  0  0  0  0  0  0  0  0
   -5.4002   -1.4303    2.0055 H   0  0  0  0  0  0  0  0  0  0  0  0
   -3.5442    0.0278    2.2730 H   0  0  0  0  0  0  0  0  0  0  0  0
   -4.4839    0.2352    0.7663 H   0  0  0  0  0  0  0  0  0  0  0  0
   -0.8023    0.0375    1.5764 H   0  0  0  0  0  0  0  0  0  0  0  0
    0.2105   -1.5161    0.3987 H   0  0  0  0  0  0  0  0  0  0  0  0
   -3.1226    3.3395   -2.0007 H   0  0  0  0  0  0  0  0  0  0  0  0
   -3.8151    2.3628   -0.6730 H   0  0  0  0  0  0  0  0  0  0  0  0
   -1.6431    1.6213   -1.9581 H   0  0  0  0  0  0  0  0  0  0  0  0
   -0.9009    3.0035   -1.2441 H   0  0  0  0  0  0  0  0  0  0  0  0
   -0.2491    1.9329    0.5699 H   0  0  0  0  0  0  0  0  0  0  0  0
   -1.7471    1.9490    2.2835 H   0  0  0  0  0  0  0  0  0  0  0  0
   -3.1597    2.0603    1.1976 H   0  0  0  0  0  0  0  0  0  0  0  0
   -0.7178    3.7855    0.7382 H   0  0  0  0  0  0  0  0  0  0  0  0
   -1.9251    4.3737    1.9307 H   0  0  0  0  0  0  0  0  0  0  0  0
   -3.6445    4.6049    0.2695 H   0  0  0  0  0  0  0  0  0  0  0  0
    7.9929    1.3845    2.4520 H   0  0  0  0  0  0  0  0  0  0  0  0
    7.2620   -0.1191   -0.0727 H   0  0  0  0  0  0  0  0  0  0  0  0
    4.2365    2.7169   -1.2825 H   0  0  0  0  0  0  0  0  0  0  0  0
    5.8399    0.9341    2.1222 H   0  0  0  0  0  0  0  0  0  0  0  0
    6.5195    1.9239   -0.7155 H   0  0  0  0  0  0  0  0  0  0  0  0
    5.4335    2.7660    0.4534 H   0  0  0  0  0  0  0  0  0  0  0  0
    5.0505    0.0614   -0.8773 H   0  0  0  0  0  0  0  0  0  0  0  0
    3.2951    1.5456    1.1362 H   0  0  0  0  0  0  0  0  0  0  0  0
    4.2048    0.0154    1.3605 H   0  0  0  0  0  0  0  0  0  0  0  0
    1.8740   -0.3996    1.0254 H   0  0  0  0  0  0  0  0  0  0  0  0
    1.4310    1.4960   -0.6361 H   0  0  0  0  0  0  0  0  0  0  0  0
    2.3274    0.5056   -1.8756 H   0  0  0  0  0  0  0  0  0  0  0  0
    1.0254   -1.3378   -1.7065 H   0  0  0  0  0  0  0  0  0  0  0  0
    0.0026   -0.0667   -2.2818 H   0  0  0  0  0  0  0  0  0  0  0  0
   -1.8822   -3.7916   -1.2748 H   0  0  0  0  0  0  0  0  0  0  0  0
   -0.5533   -3.3734    1.4759 H   0  0  0  0  0  0  0  0  0  0  0  0
   -2.2677   -3.9765    1.0485 H   0  0  0  0  0  0  0  0  0  0  0  0
   -0.8306   -4.8528    0.5900 H   0  0  0  0  0  0  0  0  0  0  0  0
    0.3558   -3.4724   -2.2932 H   0  0  0  0  0  0  0  0  0  0  0  0
    1.0975   -3.4244   -0.6643 H   0  0  0  0  0  0  0  0  0  0  0  0
    0.2095   -4.8676   -1.1228 H   0  0  0  0  0  0  0  0  0  0  0  0
    3.8808   -1.5842   -0.2391 H   0  0  0  0  0  0  0  0  0  0  0  0
   -2.1242   -1.6443    1.1872 H   0  0  0  0  0  0  0  0  0  0  0  0
   -2.5965   -0.4686   -1.5606 H   0  0  0  0  0  0  0  0  0  0  0  0
   -4.5344   -1.4835   -1.6182 H   0  0  0  0  0  0  0  0  0  0  0  0
   -3.6283   -2.9636   -1.6029 H   0  0  0  0  0  0  0  0  0  0  0  0
   -5.7462   -2.4125   -0.0280 H   0  0  0  0  0  0  0  0  0  0  0  0
   -4.5104   -3.5530    0.4313 H   0  0  0  0  0  0  0  0  0  0  0  0
   -3.8343   -2.2429    2.2248 H   0  0  0  0  0  0  0  0  0  0  0  0
   -5.4002   -1.4303    2.0055 H   0  0  0  0  0  0  0  0  0  0  0  0
   -3.5442    0.0278    2.2730 H   0  0  0  0  0  0  0  0  0  0  0  0
   -4.4839    0.2352    0.7663 H   0  0  0  0  0  0  0  0  0  0  0  0
   -0.8023    0.0375    1.5764 H   0  0  0  0  0  0  0  0  0  0  0  0
    0.2105   -1.5161    0.3987 H   0  0  0  0  0  0  0  0  0  0  0  0
   -3.1226    3.3395   -2.0007 H   0  0  0  0  0  0  0  0  0  0  0  0
   -3.8151    2.3628   -0.6730 H   0  0  0  0  0  0  0  0  0  0  0  0
   -1.6431    1.6213   -1.9581 H   0  0  0  0  0  0  0  0  0  0  0  0
   -0.9009    3.0035   -1.2441 H   0  0  0  0  0  0  0  0  0  0  0  0
   -0.2491    1.9329    0.5699 H   0  0  0  0  0  0  0  0  0  0  0  0
   -1.7471    1.9490    2.2835 H   0  0  0  0  0  0  0  0  0  0  0  0
   -3.1597    2.0603    1.1976 H   0  0  0  0  0  0  0  0  0  0  0  0
   -0.7178    3.7855    0.7382 H   0  0  0  0  0  0  0  0  0  0  0  0
   -1.9251    4.3737    1.9307 H   0  0  0  0  0  0  0  0  0  0  0  0
   -3.6445    4.6049    0.2695 H   0  0  0  0  0  0  0  0  0  0  0  0
    7.9929    1.3845    2.4520 H   0  0  0  0  0  0  0  0  0  0  0  0
    7.2620   -0.1191   -0.0727 H   0  0  0  0  0  0  0  0  0  0  0  0
    4.2365    2.7169   -1.2825 H   0  0  0  0  0  0  0  0  0  0  0  0
    5.8399    0.9341    2.1222 H   0  0  0  0  0  0  0  0  0  0  0  0
    6.5195    1.9239   -0.7155 H   0  0  0  0  0  0  0  0  0  0  0  0
    5.4335    2.7660    0.4534 H   0  0  0  0  0  0  0  0  0  0  0  0
    5.0505    0.0614   -0.8773 H   0  0  0  0  0  0  0  0  0  0  0  0
    3.2951    1.5456    1.1362 H   0  0  0  0  0  0  0  0  0  0  0  0
    4.2048    0.0154    1.3605 H   0  0  0  0  0  0  0  0  0  0  0  0
    1.8740   -0.3996    1.0254 H   0  0  0  0  0  0  0  0  0  0  0  0
    1.4310    1.4960   -0.6361 H   0  0  0  0  0  0  0  0  0  0  0  0
    2.3274    0.5056   -1.8756 H   0  0  0  0  0  0  0  0  0  0  0  0
    1.0254   -1.3378   -1.7065 H   0  0  0  0  0  0  0  0  0  0  0  0
    0.0026   -0.0667   -2.2818 H   0  0  0  0  0  0  0  0  0  0  0  0
   -1.8822   -3.7916   -1.2748 H   0  0  0  0  0  0  0  0  0  0  0  0
   -0.5533   -3.3734    1.4759 H   0  0  0  0  0  0  0  0  0  0  0  0
   -2.2677   -3.9765    1.0485 H   0  0  0  0  0  0  0  0  0  0  0  0
   -0.8306   -4.8528    0.5900 H   0  0  0  0  0  0  0  0  0  0  0  0
    0.3558   -3.4724   -2.2932 H   0  0  0  0  0  0  0  0  0  0  0  0
    1.0975   -3.4244   -0.6643 H   0  0  0  0  0  0  0  0  0  0  0  0
    0.2095   -4.8676   -1.1228 H   0  0  0  0  0  0  0  0  0  0  0  0
    3.8808   -1.5842   -0.2391 H   0  0  0  0  0  0  0  0  0  0  0  0
   -2.1242   -1.6443    1.1872 H   0  0  0  0  0  0  0  0  0  0  0  0
   -2.5965   -0.4686   -1.5606 H   0  0  0  0  0  0  0  0  0  0  0  0
   -4.5344   -1.4835   -1.6182 H   0  0  0  0  0  0  0  0  0  0  0  0
   -3.6283   -2.9636   -1.6029 H   0  0  0  0  0  0  0  0  0  0  0  0
   -5.7462   -2.4125   -0.0280 H   0  0  0  0  0  0  0  0  0  0  0  0
   -4.5104   -3.5530    0.4313 H   0  0  0  0  0  0  0  0  0  0  0  0
   -3.8343   -2.2429    2.2248 H   0  0  0  0  0  0  0  0  0  0  0  0
   -5.4002   -1.4303    2.0055 H   0  0  0  0  0  0  0  0  0  0  0  0
   -3.5442    0.0278    2.2730 H   0  0  0  0  0  0  0  0  0  0  0  0
   -4.4839    0.2352    0.7663 H   0  0  0  0  0  0  0  0  0  0  0  0
   -0.8023    0.0375    1.5764 H   0  0  0  0  0  0  0  0  0  0  0  0
    0.2105   -1.5161    0.3987 H   0  0  0  0  0  0  0  0  0  0  0  0
   -3.1226    3.3395   -2.0007 H   0  0  0  0  0  0  0  0  0  0  0  0
   -3.8151    2.3628   -0.6730 H   0  0  0  0  0  0  0  0  0  0  0  0
   -1.6431    1.6213   -1.9581 H   0  0  0  0  0  0  0  0  0  0  0  0
   -0.9009    3.0035   -1.2441 H   0  0  0  0  0  0  0  0  0  0  0  0
   -0.2491    1.9329    0.5699 H   0  0  0  0  0  0  0  0  0  0  0  0
   -1.7471    1.9490    2.2835 H   0  0  0  0  0  0  0  0  0  0  0  0
   -3.1597    2.0603    1.1976 H   0  0  0  0  0  0  0  0  0  0  0  0
   -0.7178    3.7855    0.7382 H   0  0  0  0  0  0  0  0  0  0  0  0
   -1.9251    4.3737    1.9307 H   0  0  0  0  0  0  0  0  0  0  0  0
   -3.6445    4.6049    0.2695 H   0  0  0  0  0  0  0  0  0  0  0  0
    7.9929    1.3845    2.4520 H   0  0  0  0  0  0  0  0  0  0  0  0
    7.2620   -0.1191   -0.0727 H   0  0  0  0  0  0  0  0  0  0  0  0
    4.2365    2.7169   -1.2825 H   0  0  0  0  0  0  0  0  0  0  0  0
    5.8399    0.9341    2.1222 H   0  0  0  0  0  0  0  0  0  0  0  0
    6.5195    1.9239   -0.7155 H   0  0  0  0  0  0  0  0  0  0  0  0
    5.4335    2.7660    0.4534 H   0  0  0  0  0  0  0  0  0  0  0  0
    5.0505    0.0614   -0.8773 H   0  0  0  0  0  0  0  0  0  0  0  0
    3.2951    1.5456    1.1362 H   0  0  0  0  0  0  0  0  0  0  0  0
    4.2048    0.0154    1.3605 H   0  0  0  0  0  0  0  0  0  0  0  0
    1.8740   -0.3996    1.0254 H   0  0  0  0  0  0  0  0  0  0  0  0
    1.4310    1.4960   -0.6361 H   0  0  0  0  0  0  0  0  0  0  0  0
    2.3274    0.5056   -1.8756 H   0  0  0  0  0  0  0  0  0  0  0  0
    1.0254   -1.3378   -1.7065 H   0  0  0  0  0  0  0  0  0  0  0  0
    0.0026   -0.0667   -2.2818 H   0  0  0  0  0  0  0  0  0  0  0  0
   -1.8822   -3.7916   -1.2748 H   0  0  0  0  0  0  0  0  0  0  0  0
   -0.5533   -3.3734    1.4759 H   0  0  0  0  0  0  0  0  0  0  0  0
   -2.2677   -3.9765    1.0485 H   0  0  0  0  0  0  0  0  0  0  0  0
   -0.8306   -4.8528    0.5900 H   0  0  0  0  0  0  0  0  0  0  0  0
    0.3558   -3.4724   -2.2932 H   0  0  0  0  0  0  0  0  0  0  0  0
    1.0975   -3.4244   -0.6643 H   0  0  0  0  0  0  0  0  0  0  0  0
    0.2095   -4.8676   -1.1228 H   0  0  0  0  0  0  0  0  0  0  0  0
    3.8808   -1.5842   -0.2391 H   0  0  0  0  0  0  0  0  0  0  0  0
  1  2  1  0
  2  3  1  0
  3  4  1  0
  4  5  1  0
  1  6  1  0
  5  6  1  0
  1  7  1  0
  7  8  1  0
  2  9  1  0
  8  9  1  0
 10 11  1  0
  7 12  1  0
 11 12  1  0
 12 13  1  0
 13 14  1  0
 10 15  1  0
 14 15  1  0
 15 16  1  0
 17 20  1  0
 18 20  1  0
 20 21  1  0
 19 22  1  0
 21 22  1  0
 22 23  1  0
 23 24  1  0
 24 25  1  0
  8 26  1  0
 25 26  1  0
  9 27  1  0
 27 28  1  0
 27 29  1  0
 24 30  1  0
 31 32  1  0
 32 33  1  0
 33 34  1  0
 34 35  1  0
 31 36  1  0
 35 36  1  0
 31 37  1  0
 37 38  1  0
 32 39  1  0
 38 39  1  0
 40 41  1  0
 37 42  1  0
 41 42  1  0
 42 43  1  0
 43 44  1  0
 40 45  1  0
 44 45  1  0
 45 46  1  0
 47 50  1  0
 48 50  1  0
 50 51  1  0
 49 52  1  0
 51 52  1  0
 52 53  1  0
 53 54  1  0
 54 55  1  0
 38 56  1  0
 55 56  1  0
 39 57  1  0
 57 58  1  0
 57 59  1  0
 54 60  1  0
 61 62  1  0
 62 63  1  0
 63 64  1  0
 64 65  1  0
 61 66  1  0
 65 66  1  0
 61 67  1  0
 67 68  1  0
 62 69  1  0
 68 69  1  0
 70 71  1  0
 67 72  1  0
 71 72  1  0
 72 73  1  0
 73 74  1  0
 70 75  1  0
 74 75  1  0
 75 76  1  0
 77 80  1  0
 78 80  1  0
 80 81  1  0
 79 82  1  0
 81 82  1  0
 82 83  1  0
 83 84  1  0
 84 85  1  0
 68 86  1  0
 85 86  1  0
 69 87  1  0
 87 88  1  0
 87 89  1  0
 84 90  1  0
 91 92  1  0
 92 93  1  0
 93 94  1  0
 94 95  1  0
 91 96  1  0
 95 96  1  0
 91 97  1  0
 97 98  1  0
 92 99  1  0
 98 99  1  0
100101  1  0
 97102  1  0
101102  1  0
102103  1  0
103104  1  0
100105  1  0
104105  1  0
105106  1  0
107110  1  0
108110  1  0
110111  1  0
109112  1  0
111112  1  0
112113  1  0
113114  1  0
114115  1  0
 98116  1  0
115116  1  0
 99117  1  0
117118  1  0
117119  1  0
114120  1  0
  1121  1  0
  2122  1  0
  3123  1  0
  3124  1  0
  4125  1  0
  4126  1  0
  5127  1  0
  5128  1  0
  6129  1  0
  6130  1  0
  7131  1  0
  8132  1  0
 10133  1  0
 10134  1  0
 11135  1  0
 11136  1  0
 12137  1  0
 13138  1  0
 13139  1  0
 14140  1  0
 14141  1  0
 15142  1  0
 17143  1  0
 18144  1  0
 19145  1  0
 20146  1  0
 21147  1  0
 21148  1  0
 22149  1  6
 23150  1  0
 23151  1  0
 24152  1  1
 25153  1  0
 25154  1  0
 26155  1  0
 26156  1  0
 27157  1  0
 28158  1  0
 28159  1  0
 28160  1  0
 29161  1  0
 29162  1  0
 29163  1  0
 30164  1  0
 31165  1  0
 32166  1  0
 33167  1  0
 33168  1  0
 34169  1  0
 34170  1  0
 35171  1  0
 35172  1  0
 36173  1  0
 36174  1  0
 37175  1  0
 38176  1  0
 40177  1  0
 40178  1  0
 41179  1  0
 41180  1  0
 42181  1  0
 43182  1  0
 43183  1  0
 44184  1  0
 44185  1  0
 45186  1  0
 47187  1  0
 48188  1  0
 49189  1  0
 50190  1  0
 51191  1  0
 51192  1  0
 52193  1  6
 53194  1  0
 53195  1  0
 54196  1  1
 55197  1  0
 55198  1  0
 56199  1  0
 56200  1  0
 57201  1  0
 58202  1  0
 58203  1  0
 58204  1  0
 59205  1  0
 59206  1  0
 59207  1  0
 60208  1  0
 61209  1  0
 62210  1  0
 63211  1  0
 63212  1  0
 64213  1  0
 64214  1  0
 65215  1  0
 65216  1  0
 66217  1  0
 66218  1  0
 67219  1  0
 68220  1  0
 70221  1  0
 70222  1  0
 71223  1  0
 71224  1  0
 72225  1  0
 73226  1  0
 73227  1  0
 74228  1  0
 74229  1  0
 75230  1  0
 77231  1  0
 78232  1  0
 79233  1  0
 80234  1  0
 81235  1  0
 81236  1  0
 82237  1  6
 83238  1  0
 83239  1  0
 84240  1  1
 85241  1  0
 85242  1  0
 86243  1  0
 86244  1  0
 87245  1  0
 88246  1  0
 88247  1  0
 88248  1  0
 89249  1  0
 89250  1  0
 89251  1  0
 90252  1  0
 91253  1  0
 92254  1  0
 93255  1  0
 93256  1  0
 94257  1  0
 94258  1  0
 95259  1  0
 95260  1  0
 96261  1  0
 96262  1  0
 97263  1  0
 98264  1  0
100265  1  0
100266  1  0
101267  1  0
101268  1  0
102269  1  0
103270  1  0
103271  1  0
104272  1  0
104273  1  0
105274  1  0
107275  1  0
108276  1  0
109277  1  0
110278  1  0
111279  1  0
111280  1  0
112281  1  6
113282  1  0
113283  1  0
114284  1  1
115285  1  0
115286  1  0
116287  1  0
116288  1  0
117289  1  0
118290  1  0
118291  1  0
118292  1  0
119293  1  0
119294  1  0
119295  1  0
120296  1  0
M  END
>  <PDBID>  (1) 
1HWI

>  <PDB ID>  (1) 
1HWI

>  <Generic Name>  (1) 
Fluvastatin

>  <Brand Name>  (1) 
Fluvastatin#Fluvastatin Sodium#Fluvastatin Sodium ER#Lescol#Lescol 20mg#Lescol 40mg#Lescol XL#Sandoz Fluvastatin#Teva-fluvastatin#Canef#Cranoc

>  <DrugBank ID>  (1) 
DB01095

>  <ATC Codes>  (1) 
C10AA04

>  <Ligand ID>  (1) 
115

>  <Target Name>  (1) 
3-hydroxy-3-methylglutaryl-coenzyme A reductase

>  <UniProt ID>  (1) 
P04035

>  <PDB ID.1>  (1) 
1HWI

>  <Seq. Identity>  (1) 
97%

$$$$
