PDB_DB00705_03
     RDKit          3D

 78 81  0  0  0  0  0  0  0  0999 V2000
    4.0788   -0.4632    0.3852 C   0  0  0  0  0  0  0  0  0  0  0  0
    5.3127   -0.0944   -0.4603 C   0  0  0  0  0  0  0  0  0  0  0  0
    5.5401    1.3738   -0.1806 C   0  0  0  0  0  0  0  0  0  0  0  0
    5.4956    1.6660    1.2843 C   0  0  0  0  0  0  0  0  0  0  0  0
    5.4451    0.4582    2.1640 C   0  0  0  0  0  0  0  0  0  0  0  0
    2.4227    0.7274   -0.9485 C   0  0  0  0  0  0  0  0  0  0  0  0
    0.9677    0.2514   -1.0129 C   0  0  0  0  0  0  0  0  0  0  0  0
    0.9341    1.4015    1.0764 C   0  0  0  0  0  0  0  0  0  0  0  0
    2.0858    0.4500    1.3654 C   0  0  0  0  0  0  0  0  0  0  0  0
   -0.7671   -0.1601    0.5578 C   0  0  0  0  0  0  0  0  0  0  0  0
   -1.7056   -0.5725   -0.5528 C   0  0  0  0  0  0  0  0  0  0  0  0
   -2.6565    0.5861   -0.8984 C   0  0  0  0  0  0  0  0  0  0  0  0
   -5.1858    0.6380   -0.9135 C   0  0  0  0  0  0  0  0  0  0  0  0
   -6.3296   -0.3030   -1.3132 C   0  0  0  0  0  0  0  0  0  0  0  0
   -6.2621   -1.6096   -0.5503 C   0  0  0  0  0  0  0  0  0  0  0  0
   -4.9022   -2.2582   -0.5894 C   0  0  0  0  0  0  0  0  0  0  0  0
   -3.9014   -1.2340   -0.1095 C   0  0  0  0  0  0  0  0  0  0  0  0
   -3.9194   -0.1409   -1.1881 C   0  0  0  0  0  0  0  0  0  0  0  0
    7.6051   -0.9048   -0.6620 C   0  0  0  0  0  0  0  0  0  0  0  0
    7.5794   -1.2504   -2.1394 C   0  0  0  0  0  0  0  0  0  0  0  0
    8.4497    0.3066   -0.3576 C   0  0  0  0  0  0  0  0  0  0  0  0
   -9.5775   -0.1329    0.8809 C   0  0  0  0  0  0  0  0  0  0  0  0
    6.3464   -0.9619   -0.0174 N   0  0  0  0  0  0  0  0  0  0  0  0
    4.5437   -0.5539    1.7395 N   0  0  0  0  0  0  0  0  0  0  0  0
    3.0477    0.5136    0.2999 N   0  0  0  0  0  0  0  0  0  0  0  0
    0.1495    0.8281    0.0290 N   0  0  0  0  0  0  0  0  0  0  0  0
   -2.5499   -1.6701   -0.1771 N   0  0  0  0  0  0  0  0  0  0  0  0
   -7.6225    0.2678   -1.0323 N   0  0  0  0  0  0  0  0  0  0  0  0
   -1.4492    0.2576    1.6820 O   0  0  0  0  0  0  0  0  0  0  0  0
   -8.7843    2.3283    0.1959 O   0  0  0  0  0  0  0  0  0  0  0  0
   -7.1552    0.7755    1.5507 O   0  0  0  0  0  0  0  0  0  0  0  0
   -8.1567    0.6593    0.3037 S   0  0  0  0  0  0  0  0  0  0  0  0
    3.7332   -1.4875    0.0768 H   0  0  0  0  0  0  0  0  0  0  0  0
    4.9890   -0.2723   -1.5072 H   0  0  0  0  0  0  0  0  0  0  0  0
    4.6342    1.8927   -0.6224 H   0  0  0  0  0  0  0  0  0  0  0  0
    6.3920    1.8132   -0.7275 H   0  0  0  0  0  0  0  0  0  0  0  0
    6.4260    2.2258    1.5465 H   0  0  0  0  0  0  0  0  0  0  0  0
    4.6578    2.3300    1.5855 H   0  0  0  0  0  0  0  0  0  0  0  0
    6.4891    0.0895    2.3606 H   0  0  0  0  0  0  0  0  0  0  0  0
    5.0952    0.8045    3.1816 H   0  0  0  0  0  0  0  0  0  0  0  0
    2.3358    1.8405   -1.1214 H   0  0  0  0  0  0  0  0  0  0  0  0
    2.9293    0.2685   -1.8183 H   0  0  0  0  0  0  0  0  0  0  0  0
    0.5746    0.6429   -1.9897 H   0  0  0  0  0  0  0  0  0  0  0  0
    0.9860   -0.8350   -0.9595 H   0  0  0  0  0  0  0  0  0  0  0  0
    1.3081    2.4206    0.8345 H   0  0  0  0  0  0  0  0  0  0  0  0
    0.3136    1.4829    1.9868 H   0  0  0  0  0  0  0  0  0  0  0  0
    2.5245    0.8025    2.3431 H   0  0  0  0  0  0  0  0  0  0  0  0
    1.6714   -0.5601    1.4776 H   0  0  0  0  0  0  0  0  0  0  0  0
   -0.1776   -1.0747    0.8051 H   0  0  0  0  0  0  0  0  0  0  0  0
   -1.1181   -0.8714   -1.4406 H   0  0  0  0  0  0  0  0  0  0  0  0
   -2.2143    1.0822   -1.7827 H   0  0  0  0  0  0  0  0  0  0  0  0
   -2.7741    1.2748   -0.0363 H   0  0  0  0  0  0  0  0  0  0  0  0
   -5.2457    0.8572    0.1529 H   0  0  0  0  0  0  0  0  0  0  0  0
   -5.2970    1.5422   -1.5104 H   0  0  0  0  0  0  0  0  0  0  0  0
   -6.1843   -0.5046   -2.3958 H   0  0  0  0  0  0  0  0  0  0  0  0
   -7.0614   -2.2459   -0.9271 H   0  0  0  0  0  0  0  0  0  0  0  0
   -6.4977   -1.3679    0.5075 H   0  0  0  0  0  0  0  0  0  0  0  0
   -4.9411   -3.1412    0.0491 H   0  0  0  0  0  0  0  0  0  0  0  0
   -4.6376   -2.4788   -1.6527 H   0  0  0  0  0  0  0  0  0  0  0  0
   -4.2067   -0.7997    0.8521 H   0  0  0  0  0  0  0  0  0  0  0  0
   -3.9113   -0.6205   -2.1671 H   0  0  0  0  0  0  0  0  0  0  0  0
    8.2059   -1.7708   -0.2130 H   0  0  0  0  0  0  0  0  0  0  0  0
    8.6619   -1.3330   -2.4382 H   0  0  0  0  0  0  0  0  0  0  0  0
    7.1524   -2.2564   -2.2285 H   0  0  0  0  0  0  0  0  0  0  0  0
    7.1443   -0.4803   -2.7707 H   0  0  0  0  0  0  0  0  0  0  0  0
    9.5326    0.0226   -0.1663 H   0  0  0  0  0  0  0  0  0  0  0  0
    8.5242    0.9375   -1.2769 H   0  0  0  0  0  0  0  0  0  0  0  0
    8.1518    0.8440    0.5466 H   0  0  0  0  0  0  0  0  0  0  0  0
   -9.5689   -0.2389    1.9827 H   0  0  0  0  0  0  0  0  0  0  0  0
   -9.6802   -1.1832    0.4896 H   0  0  0  0  0  0  0  0  0  0  0  0
  -10.5042    0.3938    0.5755 H   0  0  0  0  0  0  0  0  0  0  0  0
    6.0015   -1.9364   -0.0386 H   0  0  0  0  0  0  0  0  0  0  0  0
    3.8349   -0.8580    2.4227 H   0  0  0  0  0  0  0  0  0  0  0  0
   -2.3765   -2.5430   -0.6815 H   0  0  0  0  0  0  0  0  0  0  0  0
   -8.0268    0.6352   -1.9358 H   0  0  0  0  0  0  0  0  0  0  0  0
   -1.1967   -0.2774    2.4542 H   0  0  0  0  0  0  0  0  0  0  0  0
   -8.1325    2.7802   -0.3694 H   0  0  0  0  0  0  0  0  0  0  0  0
   -7.5954    0.9745    2.4351 H   0  0  0  0  0  0  0  0  0  0  0  0
  1  2  1  0
  2  3  1  0
  3  4  1  0
  4  5  1  0
  6  7  1  0
  8  9  1  0
 10 11  1  0
 11 12  1  0
 13 14  1  0
 14 15  1  0
 15 16  1  0
 16 17  1  0
 12 18  1  0
 13 18  1  0
 17 18  1  0
 19 20  1  0
 19 21  1  0
  2 23  1  0
 19 23  1  0
  1 24  1  0
  5 24  1  0
  1 25  1  0
  6 25  1  0
  9 25  1  0
  7 26  1  0
  8 26  1  0
 10 26  1  0
 11 27  1  0
 17 27  1  0
 14 28  1  0
 10 29  1  0
 22 32  1  0
 28 32  1  0
 32 30  1  0
 31 32  1  0
  1 33  1  0
  2 34  1  0
  3 35  1  0
  3 36  1  0
  4 37  1  0
  4 38  1  0
  5 39  1  0
  5 40  1  0
  6 41  1  0
  6 42  1  0
  7 43  1  0
  7 44  1  0
  8 45  1  0
  8 46  1  0
  9 47  1  0
  9 48  1  0
 10 49  1  0
 11 50  1  0
 12 51  1  0
 12 52  1  0
 13 53  1  0
 13 54  1  0
 14 55  1  0
 15 56  1  0
 15 57  1  0
 16 58  1  0
 16 59  1  0
 17 60  1  0
 18 61  1  0
 19 62  1  0
 20 63  1  0
 20 64  1  0
 20 65  1  0
 21 66  1  0
 21 67  1  0
 21 68  1  0
 22 69  1  0
 22 70  1  0
 22 71  1  0
 23 72  1  0
 24 73  1  0
 27 74  1  0
 28 75  1  0
 29 76  1  0
 30 77  1  0
 31 78  1  0
M  END
>  <PDBID>  (1) 
1KLM

>  <PDB ID>  (1) 
1KLM

>  <Generic Name>  (1) 
Delavirdine

>  <Brand Name>  (1) 
Rescriptor

>  <DrugBank ID>  (1) 
DB00705

>  <ATC Codes>  (1) 
J05AG02

>  <Ligand ID>  (1) 
SPP

>  <Target Name>  (1) 
Reverse transcriptase/RNaseH

>  <UniProt ID>  (1) 
Q72547

>  <PDB ID.1>  (1) 
1KLM

>  <Seq. Identity>  (1) 
95%

$$$$
