PDB_DB01201_06
     RDKit          3D

302312  0  0  0  0  0  0  0  0999 V2000
    0.5724    0.6702   -1.3509 C   0  0  0  0  0  0  0  0  0  0  0  0
    1.9737    0.6577   -1.9014 C   0  0  0  0  0  0  0  0  0  0  0  0
    2.9106   -0.2444   -1.1093 C   0  0  2  0  0  0  0  0  0  0  0  0
    2.2007   -1.1707   -0.1559 C   0  0  0  0  0  0  0  0  0  0  0  0
    0.1377   -2.6205    0.0283 C   0  0  0  0  0  0  0  0  0  0  0  0
   -1.0623   -2.9727   -0.8760 C   0  0  0  0  0  0  0  0  0  0  0  0
   -0.7483   -2.7490   -2.3378 C   0  0  0  0  0  0  0  0  0  0  0  0
   -0.4642   -1.2672   -2.6369 C   0  0  0  0  0  0  0  0  0  0  0  0
    0.0271   -0.7066   -1.3411 C   0  0  0  0  0  0  0  0  0  0  0  0
    0.9986   -1.7550   -0.8044 C   0  0  1  0  0  0  0  0  0  0  0  0
    0.6140   -3.9732    0.3966 C   0  0  2  0  0  0  0  0  0  0  0  0
   -0.7894   -4.5986    0.6171 C   0  0  2  0  0  0  0  0  0  0  0  0
   -0.7391   -6.0348    0.9453 C   0  0  0  0  0  0  0  0  0  0  0  0
   -2.0303   -3.1008   -3.0948 C   0  0  0  0  0  0  0  0  0  0  0  0
    2.2125    3.0338   -1.3668 C   0  0  0  0  0  0  0  0  0  0  0  0
    1.0900    3.9735   -1.8235 C   0  0  0  0  0  0  0  0  0  0  0  0
    0.4153    4.5925   -0.6218 C   0  0  0  0  0  0  0  0  0  0  0  0
   -1.0260    4.9274   -0.7993 C   0  0  0  0  0  0  0  0  0  0  0  0
   -1.9517    3.7801   -0.9673 C   0  0  0  0  0  0  0  0  0  0  0  0
   -3.1787    3.8128   -0.0513 C   0  0  1  0  0  0  0  0  0  0  0  0
   -3.0536    2.6393    0.8577 C   0  0  1  0  0  0  0  0  0  0  0  0
   -4.2884    2.1713    1.5382 C   0  0  2  0  0  0  0  0  0  0  0  0
   -5.3795    1.6921    0.6052 C   0  0  2  0  0  0  0  0  0  0  0  0
   -6.2784    0.6900    1.3005 C   0  0  2  0  0  0  0  0  0  0  0  0
   -6.4001   -0.6268    0.5169 C   0  0  1  0  0  0  0  0  0  0  0  0
   -5.0892   -1.3434    0.3746 C   0  0  1  0  0  0  0  0  0  0  0  0
   -4.8751   -2.5601    1.1638 C   0  0  2  0  0  0  0  0  0  0  0  0
   -3.4697   -2.5371    1.7968 C   0  0  0  0  0  0  0  0  0  0  0  0
   -2.7520   -3.8380    1.6233 C   0  0  0  0  0  0  0  0  0  0  0  0
    1.6963    5.1610   -2.5949 C   0  0  0  0  0  0  0  0  0  0  0  0
   -3.3258    5.1403    0.6554 C   0  0  0  0  0  0  0  0  0  0  0  0
   -4.8912    3.1430    2.5162 C   0  0  0  0  0  0  0  0  0  0  0  0
   -7.6833    1.3075    1.2424 C   0  0  0  0  0  0  0  0  0  0  0  0
   -4.7643   -1.6492   -1.0938 C   0  0  0  0  0  0  0  0  0  0  0  0
   -8.5532   -1.5755    0.0600 C   0  0  0  0  0  0  0  0  0  0  0  0
   -8.9779   -3.0209   -0.1623 C   0  0  0  0  0  0  0  0  0  0  0  0
   -5.6392   -4.6580    0.8921 C   0  0  0  0  0  0  0  0  0  0  0  0
   10.0610    0.4020    1.2862 C   0  0  0  0  0  0  0  0  0  0  0  0
    8.1500   -0.3919    0.0231 C   0  0  0  0  0  0  0  0  0  0  0  0
    7.0136    0.6096   -0.1697 C   0  0  0  0  0  0  0  0  0  0  0  0
    6.5021   -0.3449    1.9258 C   0  0  0  0  0  0  0  0  0  0  0  0
    7.8738    0.1950    2.2917 C   0  0  0  0  0  0  0  0  0  0  0  0
    4.0257    0.5469   -0.4844 C   0  0  0  0  0  0  0  0  0  0  0  0
   10.1065    1.8184    0.7906 C   0  0  0  0  0  0  0  0  0  0  0  0
   11.1238   -0.3131    0.5256 C   0  0  0  0  0  0  0  0  0  0  0  0
   11.6145    2.0687    0.6847 C   0  0  0  0  0  0  0  0  0  0  0  0
   12.2382    0.7268    0.4617 C   0  0  0  0  0  0  0  0  0  0  0  0
    2.4844    1.9463   -2.2050 N   0  0  0  0  0  0  0  0  0  0  0  0
    4.9127   -0.3408    0.2713 N   0  0  0  0  0  0  0  0  0  0  0  0
    5.9862    0.4151    0.8058 N   0  0  0  0  0  0  0  0  0  0  0  0
    8.7908   -0.2232    1.2810 N   0  0  0  0  0  0  0  0  0  0  0  0
    0.5635    1.0899    0.0001 O   0  0  0  0  0  0  0  0  0  0  0  0
   -1.5585   -0.6246   -3.1619 O   0  0  0  0  0  0  0  0  0  0  0  0
   -1.3031   -4.3308   -0.6803 O   0  0  0  0  0  0  0  0  0  0  0  0
    1.2452   -3.9394    1.6251 O   0  0  0  0  0  0  0  0  0  0  0  0
   -1.3885   -3.7717    1.5494 O   0  0  0  0  0  0  0  0  0  0  0  0
   -4.8306   -3.6780    0.3180 O   0  0  0  0  0  0  0  0  0  0  0  0
   -7.4859   -1.3511    0.7732 O   0  0  0  0  0  0  0  0  0  0  0  0
   -9.6647   -1.0652    0.7647 O   0  0  0  0  0  0  0  0  0  0  0  0
   -4.8941    1.2442   -0.6183 O   0  0  0  0  0  0  0  0  0  0  0  0
   -2.4591    1.5416    0.1761 O   0  0  0  0  0  0  0  0  0  0  0  0
    3.3799    3.8444   -1.3552 O   0  0  0  0  0  0  0  0  0  0  0  0
    3.0654   -2.2893    0.0651 O   0  0  0  0  0  0  0  0  0  0  0  0
    1.0687    1.3259   -1.5388 C   0  0  0  0  0  0  0  0  0  0  0  0
    2.5400    1.4415   -1.2167 C   0  0  0  0  0  0  0  0  0  0  0  0
    3.1555    0.2505   -0.6488 C   0  0  2  0  0  0  0  0  0  0  0  0
    2.3821   -0.8701   -0.1106 C   0  0  0  0  0  0  0  0  0  0  0  0
    0.0512   -1.8491    0.0462 C   0  0  0  0  0  0  0  0  0  0  0  0
   -0.9341   -2.3321   -0.9819 C   0  0  0  0  0  0  0  0  0  0  0  0
   -0.5469   -2.0051   -2.3970 C   0  0  0  0  0  0  0  0  0  0  0  0
   -0.4804   -0.4661   -2.4282 C   0  0  0  0  0  0  0  0  0  0  0  0
    0.7772   -0.1558   -1.7003 C   0  0  0  0  0  0  0  0  0  0  0  0
    0.8738   -0.7115   -0.2979 C   0  0  0  0  0  0  0  0  0  0  0  0
    0.6722   -3.1379    0.4773 C   0  0  2  0  0  0  0  0  0  0  0  0
   -0.5974   -4.0268    0.4180 C   0  0  2  0  0  0  0  0  0  0  0  0
   -0.2865   -5.4715    0.5681 C   0  0  0  0  0  0  0  0  0  0  0  0
   -1.5959   -2.5241   -3.3327 C   0  0  0  0  0  0  0  0  0  0  0  0
    2.0258    3.2198    0.3845 C   0  0  0  0  0  0  0  0  0  0  0  0
    1.2335    4.4059   -0.1869 C   0  0  0  0  0  0  0  0  0  0  0  0
    0.0853    4.7656    0.6970 C   0  0  0  0  0  0  0  0  0  0  0  0
   -1.2219    4.9936   -0.0214 C   0  0  0  0  0  0  0  0  0  0  0  0
   -1.8496    3.7879   -0.6036 C   0  0  0  0  0  0  0  0  0  0  0  0
   -3.3399    3.6206   -0.2667 C   0  0  1  0  0  0  0  0  0  0  0  0
   -3.3990    2.9281    1.0485 C   0  0  1  0  0  0  0  0  0  0  0  0
   -4.5620    2.0510    1.3227 C   0  0  2  0  0  0  0  0  0  0  0  0
   -5.1777    1.3648    0.1154 C   0  0  2  0  0  0  0  0  0  0  0  0
   -6.2437    0.4478    0.5994 C   0  0  2  0  0  0  0  0  0  0  0  0
   -6.3706   -0.9243    0.0411 C   0  0  1  0  0  0  0  0  0  0  0  0
   -5.1704   -1.7909    0.0812 C   0  0  1  0  0  0  0  0  0  0  0  0
   -5.1279   -2.9573    1.0030 C   0  0  2  0  0  0  0  0  0  0  0  0
   -3.8100   -2.9670    1.8256 C   0  0  0  0  0  0  0  0  0  0  0  0
   -2.8015   -3.8722    1.1573 C   0  0  0  0  0  0  0  0  0  0  0  0
    2.1909    5.6102   -0.2168 C   0  0  0  0  0  0  0  0  0  0  0  0
   -4.0036    4.9807   -0.2930 C   0  0  0  0  0  0  0  0  0  0  0  0
   -5.5998    2.7709    2.1595 C   0  0  0  0  0  0  0  0  0  0  0  0
   -7.5764    1.1761    0.3131 C   0  0  0  0  0  0  0  0  0  0  0  0
   -4.9339   -2.3586   -1.3455 C   0  0  0  0  0  0  0  0  0  0  0  0
   -8.4189   -2.0632   -0.0633 C   0  0  0  0  0  0  0  0  0  0  0  0
   -9.0682   -3.2027    0.6351 C   0  0  0  0  0  0  0  0  0  0  0  0
   -5.9254   -5.1550    0.7807 C   0  0  0  0  0  0  0  0  0  0  0  0
    9.9704   -0.0432    0.3897 C   0  0  0  0  0  0  0  0  0  0  0  0
    8.0791   -0.8213   -0.8767 C   0  0  0  0  0  0  0  0  0  0  0  0
    6.7822   -0.1019   -0.4776 C   0  0  0  0  0  0  0  0  0  0  0  0
    6.8301   -1.9328    1.0287 C   0  0  0  0  0  0  0  0  0  0  0  0
    8.1944   -1.3280    1.4369 C   0  0  0  0  0  0  0  0  0  0  0  0
    4.3308    0.5681    0.3030 C   0  0  0  0  0  0  0  0  0  0  0  0
    9.6981    1.4204    0.4026 C   0  0  0  0  0  0  0  0  0  0  0  0
   11.0575   -0.2922   -0.6484 C   0  0  0  0  0  0  0  0  0  0  0  0
   11.0234    2.0607   -0.0325 C   0  0  0  0  0  0  0  0  0  0  0  0
   11.9190    0.9338   -0.4293 C   0  0  0  0  0  0  0  0  0  0  0  0
    2.9179    2.6491   -0.5379 N   0  0  0  0  0  0  0  0  0  0  0  0
    4.8091   -0.7598    0.7218 N   0  0  0  0  0  0  0  0  0  0  0  0
    6.0651   -0.9952    0.3268 N   0  0  0  0  0  0  0  0  0  0  0  0
    8.8676   -0.9115    0.2799 N   0  0  0  0  0  0  0  0  0  0  0  0
    0.6924    1.9567   -2.7001 O   0  0  0  0  0  0  0  0  0  0  0  0
   -1.6108   -0.0460   -1.7439 O   0  0  0  0  0  0  0  0  0  0  0  0
   -1.0073   -3.7133   -0.8780 O   0  0  0  0  0  0  0  0  0  0  0  0
    1.0640   -3.1921    1.8002 O   0  0  0  0  0  0  0  0  0  0  0  0
   -1.4904   -3.4944    1.3210 O   0  0  0  0  0  0  0  0  0  0  0  0
   -5.0759   -4.1882    0.3458 O   0  0  0  0  0  0  0  0  0  0  0  0
   -7.4439   -1.4980    0.7321 O   0  0  0  0  0  0  0  0  0  0  0  0
   -9.4442   -1.0670   -0.3433 O   0  0  0  0  0  0  0  0  0  0  0  0
   -4.2423    0.8316   -0.7180 O   0  0  0  0  0  0  0  0  0  0  0  0
   -2.1688    2.3142    1.3819 O   0  0  0  0  0  0  0  0  0  0  0  0
    2.8344    3.8309    1.3797 O   0  0  0  0  0  0  0  0  0  0  0  0
    2.7165   -1.1187    1.2004 O   0  0  0  0  0  0  0  0  0  0  0  0
   -0.0436    1.2790   -2.0052 H   0  0  0  0  0  0  0  0  0  0  0  0
    1.8569    0.1322   -2.9024 H   0  0  0  0  0  0  0  0  0  0  0  0
    3.4527   -0.9500   -1.8209 H   0  0  0  0  0  0  0  0  0  0  0  0
    2.0607   -0.7456    0.8415 H   0  0  0  0  0  0  0  0  0  0  0  0
   -0.2143   -2.0868    0.9362 H   0  0  0  0  0  0  0  0  0  0  0  0
   -1.9445   -2.3549   -0.6546 H   0  0  0  0  0  0  0  0  0  0  0  0
    0.0181   -3.4095   -2.7358 H   0  0  0  0  0  0  0  0  0  0  0  0
    0.3242   -1.2837   -3.4166 H   0  0  0  0  0  0  0  0  0  0  0  0
   -0.9048   -0.6380   -0.6890 H   0  0  0  0  0  0  0  0  0  0  0  0
    1.3945   -2.4036   -1.6457 H   0  0  0  0  0  0  0  0  0  0  0  0
    1.1648   -4.5004   -0.3850 H   0  0  0  0  0  0  0  0  0  0  0  0
   -1.5737   -6.5682    0.4412 H   0  0  0  0  0  0  0  0  0  0  0  0
   -0.9422   -6.1401    2.0447 H   0  0  0  0  0  0  0  0  0  0  0  0
    0.2386   -6.4962    0.7729 H   0  0  0  0  0  0  0  0  0  0  0  0
   -2.5830   -3.9247   -2.6160 H   0  0  0  0  0  0  0  0  0  0  0  0
   -2.6560   -2.1996   -3.2245 H   0  0  0  0  0  0  0  0  0  0  0  0
   -1.7712   -3.4200   -4.1363 H   0  0  0  0  0  0  0  0  0  0  0  0
    2.0299    2.8392   -0.2959 H   0  0  0  0  0  0  0  0  0  0  0  0
    0.4060    3.5129   -2.5447 H   0  0  0  0  0  0  0  0  0  0  0  0
    0.4858    3.8264    0.2044 H   0  0  0  0  0  0  0  0  0  0  0  0
    0.9841    5.4593   -0.2261 H   0  0  0  0  0  0  0  0  0  0  0  0
   -1.1309    5.6946   -1.6097 H   0  0  0  0  0  0  0  0  0  0  0  0
   -1.3156    5.4892    0.1389 H   0  0  0  0  0  0  0  0  0  0  0  0
   -2.2657    3.7701   -2.0533 H   0  0  0  0  0  0  0  0  0  0  0  0
   -1.4034    2.8127   -0.8471 H   0  0  0  0  0  0  0  0  0  0  0  0
   -4.0639    3.7395   -0.7247 H   0  0  0  0  0  0  0  0  0  0  0  0
   -2.3167    2.9014    1.6471 H   0  0  0  0  0  0  0  0  0  0  0  0
   -3.9951    1.2638    2.1372 H   0  0  0  0  0  0  0  0  0  0  0  0
   -5.9273    2.6476    0.3339 H   0  0  0  0  0  0  0  0  0  0  0  0
   -5.9400    0.5415    2.3272 H   0  0  0  0  0  0  0  0  0  0  0  0
   -6.5783   -0.2196   -0.5120 H   0  0  0  0  0  0  0  0  0  0  0  0
   -4.3011   -0.5903    0.6736 H   0  0  0  0  0  0  0  0  0  0  0  0
   -5.5407   -2.7323    2.0311 H   0  0  0  0  0  0  0  0  0  0  0  0
   -3.5301   -2.3507    2.9073 H   0  0  0  0  0  0  0  0  0  0  0  0
   -2.8879   -1.6728    1.4206 H   0  0  0  0  0  0  0  0  0  0  0  0
   -3.1140   -4.4280    0.7470 H   0  0  0  0  0  0  0  0  0  0  0  0
   -2.9810   -4.5019    2.5122 H   0  0  0  0  0  0  0  0  0  0  0  0
    0.8511    5.7065   -3.0176 H   0  0  0  0  0  0  0  0  0  0  0  0
    2.1724    5.8030   -1.8257 H   0  0  0  0  0  0  0  0  0  0  0  0
    2.4291    4.8104   -3.3340 H   0  0  0  0  0  0  0  0  0  0  0  0
   -2.7324    5.2403    1.5625 H   0  0  0  0  0  0  0  0  0  0  0  0
   -3.2375    5.9858   -0.0696 H   0  0  0  0  0  0  0  0  0  0  0  0
   -4.4025    5.2167    0.9956 H   0  0  0  0  0  0  0  0  0  0  0  0
   -4.1353    3.8415    2.9391 H   0  0  0  0  0  0  0  0  0  0  0  0
   -5.2968    2.5575    3.3985 H   0  0  0  0  0  0  0  0  0  0  0  0
   -5.7854    3.6696    2.1245 H   0  0  0  0  0  0  0  0  0  0  0  0
   -8.1571    1.1354    0.2777 H   0  0  0  0  0  0  0  0  0  0  0  0
   -8.2880    0.9002    2.0611 H   0  0  0  0  0  0  0  0  0  0  0  0
   -7.6601    2.4082    1.3931 H   0  0  0  0  0  0  0  0  0  0  0  0
   -3.8580   -1.1488   -1.4485 H   0  0  0  0  0  0  0  0  0  0  0  0
   -5.6094   -1.1914   -1.6877 H   0  0  0  0  0  0  0  0  0  0  0  0
   -4.7933   -2.7126   -1.3275 H   0  0  0  0  0  0  0  0  0  0  0  0
   -8.6500   -1.1030   -0.9425 H   0  0  0  0  0  0  0  0  0  0  0  0
   -8.9451   -3.6088    0.7632 H   0  0  0  0  0  0  0  0  0  0  0  0
   -9.9463   -3.0869   -0.6926 H   0  0  0  0  0  0  0  0  0  0  0  0
   -8.2246   -3.4591   -0.8487 H   0  0  0  0  0  0  0  0  0  0  0  0
   -5.2578   -4.9341    1.9188 H   0  0  0  0  0  0  0  0  0  0  0  0
   -5.6539   -5.5528    0.2406 H   0  0  0  0  0  0  0  0  0  0  0  0
   -6.6584   -4.2416    1.0097 H   0  0  0  0  0  0  0  0  0  0  0  0
   10.4041    0.4402    2.3617 H   0  0  0  0  0  0  0  0  0  0  0  0
    7.6471   -1.4042    0.0337 H   0  0  0  0  0  0  0  0  0  0  0  0
    8.8219   -0.4120   -0.8498 H   0  0  0  0  0  0  0  0  0  0  0  0
    7.3533    1.6557   -0.0850 H   0  0  0  0  0  0  0  0  0  0  0  0
    6.6547    0.4824   -1.2249 H   0  0  0  0  0  0  0  0  0  0  0  0
    5.8653   -0.1461    2.8382 H   0  0  0  0  0  0  0  0  0  0  0  0
    6.4943   -1.4227    1.7695 H   0  0  0  0  0  0  0  0  0  0  0  0
    7.7855    1.2994    2.2734 H   0  0  0  0  0  0  0  0  0  0  0  0
    8.1501   -0.1035    3.3237 H   0  0  0  0  0  0  0  0  0  0  0  0
    3.7024    1.3035    0.2485 H   0  0  0  0  0  0  0  0  0  0  0  0
    4.6498    0.9587   -1.3025 H   0  0  0  0  0  0  0  0  0  0  0  0
    9.7199    1.9682   -0.2211 H   0  0  0  0  0  0  0  0  0  0  0  0
    9.7050    2.5529    1.4893 H   0  0  0  0  0  0  0  0  0  0  0  0
   10.8228   -0.6418   -0.4863 H   0  0  0  0  0  0  0  0  0  0  0  0
   11.4932   -1.1623    1.1615 H   0  0  0  0  0  0  0  0  0  0  0  0
   11.9883    2.5998    1.5655 H   0  0  0  0  0  0  0  0  0  0  0  0
   11.8480    2.7105   -0.1944 H   0  0  0  0  0  0  0  0  0  0  0  0
   12.9474    0.5494    1.2999 H   0  0  0  0  0  0  0  0  0  0  0  0
   12.8021    0.6511   -0.4882 H   0  0  0  0  0  0  0  0  0  0  0  0
    2.2702    2.2295   -3.2031 H   0  0  0  0  0  0  0  0  0  0  0  0
    4.3868   -0.7780    1.0752 H   0  0  0  0  0  0  0  0  0  0  0  0
    0.0430    0.4996    0.5792 H   0  0  0  0  0  0  0  0  0  0  0  0
   -1.9750    0.0458   -2.5890 H   0  0  0  0  0  0  0  0  0  0  0  0
    1.9917   -4.5772    1.7290 H   0  0  0  0  0  0  0  0  0  0  0  0
  -10.0794   -0.2889    0.3197 H   0  0  0  0  0  0  0  0  0  0  0  0
   -5.4499    1.5496   -1.3817 H   0  0  0  0  0  0  0  0  0  0  0  0
   -2.3244    0.7889    0.7840 H   0  0  0  0  0  0  0  0  0  0  0  0
    3.3118    4.5272   -0.6541 H   0  0  0  0  0  0  0  0  0  0  0  0
    3.3267   -2.5798   -0.8437 H   0  0  0  0  0  0  0  0  0  0  0  0
    0.4326    1.6621   -0.7321 H   0  0  0  0  0  0  0  0  0  0  0  0
    2.9705    1.6080   -2.2760 H   0  0  0  0  0  0  0  0  0  0  0  0
    3.7858   -0.2378   -1.4947 H   0  0  0  0  0  0  0  0  0  0  0  0
    2.5994   -1.8396   -0.6524 H   0  0  0  0  0  0  0  0  0  0  0  0
   -0.5970   -1.5651    0.9390 H   0  0  0  0  0  0  0  0  0  0  0  0
   -1.9505   -1.9276   -0.8153 H   0  0  0  0  0  0  0  0  0  0  0  0
    0.4268   -2.4460   -2.6299 H   0  0  0  0  0  0  0  0  0  0  0  0
   -0.3942   -0.0740   -3.4558 H   0  0  0  0  0  0  0  0  0  0  0  0
    1.6129   -0.5385   -2.3206 H   0  0  0  0  0  0  0  0  0  0  0  0
    0.6523    0.1634    0.3973 H   0  0  0  0  0  0  0  0  0  0  0  0
    1.3986   -3.5658   -0.2173 H   0  0  0  0  0  0  0  0  0  0  0  0
   -0.9479   -6.1030   -0.0690 H   0  0  0  0  0  0  0  0  0  0  0  0
   -0.5258   -5.7775    1.6137 H   0  0  0  0  0  0  0  0  0  0  0  0
    0.7700   -5.7406    0.3440 H   0  0  0  0  0  0  0  0  0  0  0  0
   -2.0128   -3.4452   -2.8970 H   0  0  0  0  0  0  0  0  0  0  0  0
   -2.3668   -1.7701   -3.5884 H   0  0  0  0  0  0  0  0  0  0  0  0
   -1.0669   -2.8450   -4.2779 H   0  0  0  0  0  0  0  0  0  0  0  0
    1.3751    2.5570    0.9388 H   0  0  0  0  0  0  0  0  0  0  0  0
    0.8983    4.2549   -1.2053 H   0  0  0  0  0  0  0  0  0  0  0  0
   -0.0745    4.0491    1.5219 H   0  0  0  0  0  0  0  0  0  0  0  0
    0.2890    5.7476    1.2379 H   0  0  0  0  0  0  0  0  0  0  0  0
   -1.1007    5.7521   -0.8398 H   0  0  0  0  0  0  0  0  0  0  0  0
   -1.9006    5.4894    0.7138 H   0  0  0  0  0  0  0  0  0  0  0  0
   -1.7040    3.7228   -1.7039 H   0  0  0  0  0  0  0  0  0  0  0  0
   -1.3277    2.9054   -0.1652 H   0  0  0  0  0  0  0  0  0  0  0  0
   -3.7575    3.0440   -1.0963 H   0  0  0  0  0  0  0  0  0  0  0  0
   -3.4630    3.7756    1.8213 H   0  0  0  0  0  0  0  0  0  0  0  0
   -4.1879    1.2231    1.9983 H   0  0  0  0  0  0  0  0  0  0  0  0
   -5.6235    2.2412   -0.4711 H   0  0  0  0  0  0  0  0  0  0  0  0
   -6.2534    0.3382    1.7332 H   0  0  0  0  0  0  0  0  0  0  0  0
   -6.7150   -0.8663   -1.0590 H   0  0  0  0  0  0  0  0  0  0  0  0
   -4.2481   -1.1719    0.3430 H   0  0  0  0  0  0  0  0  0  0  0  0
   -5.9202   -3.0109    1.7662 H   0  0  0  0  0  0  0  0  0  0  0  0
   -4.0009   -3.2491    2.8623 H   0  0  0  0  0  0  0  0  0  0  0  0
   -3.4197   -1.9553    1.7994 H   0  0  0  0  0  0  0  0  0  0  0  0
   -3.0497   -4.1219    0.1022 H   0  0  0  0  0  0  0  0  0  0  0  0
   -2.9106   -4.8607    1.6975 H   0  0  0  0  0  0  0  0  0  0  0  0
    1.5633    6.4835   -0.5392 H   0  0  0  0  0  0  0  0  0  0  0  0
    2.5556    5.8578    0.8070 H   0  0  0  0  0  0  0  0  0  0  0  0
    2.9932    5.4779   -0.9452 H   0  0  0  0  0  0  0  0  0  0  0  0
   -4.0467    5.4712    0.7052 H   0  0  0  0  0  0  0  0  0  0  0  0
   -3.4574    5.5877   -1.0476 H   0  0  0  0  0  0  0  0  0  0  0  0
   -5.0557    4.8849   -0.6882 H   0  0  0  0  0  0  0  0  0  0  0  0
   -4.9904    3.2183    3.0167 H   0  0  0  0  0  0  0  0  0  0  0  0
   -6.3041    2.0951    2.6757 H   0  0  0  0  0  0  0  0  0  0  0  0
   -6.0518    3.6412    1.6854 H   0  0  0  0  0  0  0  0  0  0  0  0
   -8.3654    0.9239    0.9983 H   0  0  0  0  0  0  0  0  0  0  0  0
   -7.3991    2.2939    0.3293 H   0  0  0  0  0  0  0  0  0  0  0  0
   -7.7714    0.9787   -0.7699 H   0  0  0  0  0  0  0  0  0  0  0  0
   -4.0591   -1.8764   -1.8233 H   0  0  0  0  0  0  0  0  0  0  0  0
   -5.8630   -2.1856   -1.9744 H   0  0  0  0  0  0  0  0  0  0  0  0
   -4.7723   -3.4402   -1.3462 H   0  0  0  0  0  0  0  0  0  0  0  0
   -8.1039   -2.3011   -1.0914 H   0  0  0  0  0  0  0  0  0  0  0  0
   -8.4677   -3.4613    1.5587 H   0  0  0  0  0  0  0  0  0  0  0  0
  -10.0544   -2.8574    1.0445 H   0  0  0  0  0  0  0  0  0  0  0  0
   -9.1523   -4.1434    0.0606 H   0  0  0  0  0  0  0  0  0  0  0  0
   -5.8260   -5.4245    1.8549 H   0  0  0  0  0  0  0  0  0  0  0  0
   -5.6265   -6.1008    0.1988 H   0  0  0  0  0  0  0  0  0  0  0  0
   -6.9562   -4.9401    0.5227 H   0  0  0  0  0  0  0  0  0  0  0  0
   10.4730   -0.2798    1.3792 H   0  0  0  0  0  0  0  0  0  0  0  0
    7.7605   -1.8347   -1.1865 H   0  0  0  0  0  0  0  0  0  0  0  0
    8.5421   -0.3502   -1.7505 H   0  0  0  0  0  0  0  0  0  0  0  0
    6.9897    0.8042    0.1543 H   0  0  0  0  0  0  0  0  0  0  0  0
    6.3122    0.2534   -1.4142 H   0  0  0  0  0  0  0  0  0  0  0  0
    6.3538   -2.2743    1.9730 H   0  0  0  0  0  0  0  0  0  0  0  0
    7.0196   -2.8891    0.4660 H   0  0  0  0  0  0  0  0  0  0  0  0
    7.9164   -0.5332    2.1662 H   0  0  0  0  0  0  0  0  0  0  0  0
    8.6837   -2.1175    2.0156 H   0  0  0  0  0  0  0  0  0  0  0  0
    3.9409    1.0663    1.2156 H   0  0  0  0  0  0  0  0  0  0  0  0
    5.0816    1.0859   -0.2295 H   0  0  0  0  0  0  0  0  0  0  0  0
    8.9662    1.7851   -0.3375 H   0  0  0  0  0  0  0  0  0  0  0  0
    9.4230    1.8487    1.3663 H   0  0  0  0  0  0  0  0  0  0  0  0
   10.5941   -0.3351   -1.6460 H   0  0  0  0  0  0  0  0  0  0  0  0
   11.5960   -1.2041   -0.3444 H   0  0  0  0  0  0  0  0  0  0  0  0
   11.4643    2.6848    0.7458 H   0  0  0  0  0  0  0  0  0  0  0  0
   10.8907    2.7046   -0.9384 H   0  0  0  0  0  0  0  0  0  0  0  0
   12.6328    0.6660    0.3997 H   0  0  0  0  0  0  0  0  0  0  0  0
   12.5145    1.1299   -1.3205 H   0  0  0  0  0  0  0  0  0  0  0  0
    3.3182    3.3963   -1.1471 H   0  0  0  0  0  0  0  0  0  0  0  0
    4.8278   -0.6851    1.8180 H   0  0  0  0  0  0  0  0  0  0  0  0
   -0.3126    2.0898   -2.7251 H   0  0  0  0  0  0  0  0  0  0  0  0
   -1.4538    0.0336   -0.7727 H   0  0  0  0  0  0  0  0  0  0  0  0
    1.5182   -4.0382    1.9424 H   0  0  0  0  0  0  0  0  0  0  0  0
   -9.3167   -0.7486   -1.2915 H   0  0  0  0  0  0  0  0  0  0  0  0
   -4.6001    0.7759   -1.6365 H   0  0  0  0  0  0  0  0  0  0  0  0
   -2.1283    1.3853    1.1114 H   0  0  0  0  0  0  0  0  0  0  0  0
    2.9122    3.2835    2.1882 H   0  0  0  0  0  0  0  0  0  0  0  0
    2.2160   -0.6697    1.8906 H   0  0  0  0  0  0  0  0  0  0  0  0
  1  2  1  0
  2  3  1  0
  3  4  1  0
  5  6  1  0
  6  7  1  0
  7  8  1  0
  1  9  1  0
  8  9  1  0
  4 10  1  0
  5 10  1  0
  9 10  1  0
  5 11  1  0
 11 12  1  0
 12 13  1  1
  7 14  1  0
 15 16  1  0
 16 17  1  0
 17 18  1  0
 18 19  1  0
 19 20  1  0
 20 21  1  0
 21 22  1  0
 22 23  1  0
 23 24  1  0
 24 25  1  0
 25 26  1  0
 26 27  1  0
 27 28  1  0
 28 29  1  0
 16 30  1  0
 20 31  1  0
 22 32  1  0
 24 33  1  0
 26 34  1  0
 35 36  1  0
 39 40  1  0
 41 42  1  0
  3 43  1  0
 38 44  1  0
 38 45  1  0
 44 46  1  0
 45 47  1  0
 46 47  1  0
  2 48  1  0
 15 48  1  0
 43 49  1  0
 40 50  1  0
 41 50  1  0
 49 50  1  0
 38 51  1  0
 39 51  1  0
 42 51  1  0
  1 52  1  0
  8 53  1  0
  6 54  1  0
 12 54  1  0
 11 55  1  0
 12 56  1  0
 29 56  1  0
 27 57  1  0
 37 57  1  0
 25 58  1  0
 35 58  1  0
 35 59  1  0
 23 60  1  0
 21 61  1  0
 15 62  1  0
  4 63  1  0
 64 65  1  0
 65 66  1  0
 66 67  1  0
 68 69  1  0
 69 70  1  0
 70 71  1  0
 64 72  1  0
 71 72  1  0
 67 73  1  0
 68 73  1  0
 72 73  1  0
 68 74  1  0
 74 75  1  0
 75 76  1  6
 70 77  1  0
 78 79  1  0
 79 80  1  0
 80 81  1  0
 81 82  1  0
 82 83  1  0
 83 84  1  0
 84 85  1  0
 85 86  1  0
 86 87  1  0
 87 88  1  0
 88 89  1  0
 89 90  1  0
 90 91  1  0
 91 92  1  0
 79 93  1  0
 83 94  1  0
 85 95  1  0
 87 96  1  0
 89 97  1  0
 98 99  1  0
102103  1  0
104105  1  0
 66106  1  0
101107  1  0
101108  1  0
107109  1  0
108110  1  0
109110  1  0
 65111  1  0
 78111  1  0
106112  1  0
103113  1  0
104113  1  0
112113  1  0
101114  1  0
102114  1  0
105114  1  0
 64115  1  0
 71116  1  0
 69117  1  0
 75117  1  0
 74118  1  0
 75119  1  0
 92119  1  0
 90120  1  0
100120  1  0
 88121  1  0
 98121  1  0
 98122  1  0
 86123  1  0
 84124  1  0
 78125  1  0
 67126  1  0
  1127  1  0
  2128  1  0
  3129  1  6
  4130  1  0
  5131  1  0
  6132  1  0
  7133  1  0
  8134  1  0
  9135  1  0
 10136  1  6
 11137  1  6
 13138  1  0
 13139  1  0
 13140  1  0
 14141  1  0
 14142  1  0
 14143  1  0
 15144  1  0
 16145  1  0
 17146  1  0
 17147  1  0
 18148  1  0
 18149  1  0
 19150  1  0
 19151  1  0
 20152  1  6
 21153  1  1
 22154  1  1
 23155  1  6
 24156  1  1
 25157  1  6
 26158  1  1
 27159  1  1
 28160  1  0
 28161  1  0
 29162  1  0
 29163  1  0
 30164  1  0
 30165  1  0
 30166  1  0
 31167  1  0
 31168  1  0
 31169  1  0
 32170  1  0
 32171  1  0
 32172  1  0
 33173  1  0
 33174  1  0
 33175  1  0
 34176  1  0
 34177  1  0
 34178  1  0
 35179  1  0
 36180  1  0
 36181  1  0
 36182  1  0
 37183  1  0
 37184  1  0
 37185  1  0
 38186  1  0
 39187  1  0
 39188  1  0
 40189  1  0
 40190  1  0
 41191  1  0
 41192  1  0
 42193  1  0
 42194  1  0
 43195  1  0
 43196  1  0
 44197  1  0
 44198  1  0
 45199  1  0
 45200  1  0
 46201  1  0
 46202  1  0
 47203  1  0
 47204  1  0
 48205  1  0
 49206  1  0
 52207  1  0
 53208  1  0
 55209  1  0
 59210  1  0
 60211  1  0
 61212  1  0
 62213  1  0
 63214  1  0
 64215  1  0
 65216  1  0
 66217  1  6
 67218  1  0
 68219  1  0
 69220  1  0
 70221  1  0
 71222  1  0
 72223  1  0
 73224  1  0
 74225  1  6
 76226  1  0
 76227  1  0
 76228  1  0
 77229  1  0
 77230  1  0
 77231  1  0
 78232  1  0
 79233  1  0
 80234  1  0
 80235  1  0
 81236  1  0
 81237  1  0
 82238  1  0
 82239  1  0
 83240  1  6
 84241  1  1
 85242  1  1
 86243  1  6
 87244  1  1
 88245  1  6
 89246  1  1
 90247  1  1
 91248  1  0
 91249  1  0
 92250  1  0
 92251  1  0
 93252  1  0
 93253  1  0
 93254  1  0
 94255  1  0
 94256  1  0
 94257  1  0
 95258  1  0
 95259  1  0
 95260  1  0
 96261  1  0
 96262  1  0
 96263  1  0
 97264  1  0
 97265  1  0
 97266  1  0
 98267  1  0
 99268  1  0
 99269  1  0
 99270  1  0
100271  1  0
100272  1  0
100273  1  0
101274  1  0
102275  1  0
102276  1  0
103277  1  0
103278  1  0
104279  1  0
104280  1  0
105281  1  0
105282  1  0
106283  1  0
106284  1  0
107285  1  0
107286  1  0
108287  1  0
108288  1  0
109289  1  0
109290  1  0
110291  1  0
110292  1  0
111293  1  0
112294  1  0
115295  1  0
116296  1  0
118297  1  0
122298  1  0
123299  1  0
124300  1  0
125301  1  0
126302  1  0
M  END
>  <PDBID>  (1) 
2A69

>  <PDB ID>  (1) 
2A69

>  <Generic Name>  (1) 
Rifapentine

>  <Brand Name>  (1) 
Priftin

>  <DrugBank ID>  (1) 
DB01201

>  <ATC Codes>  (1) 
J04AB05

>  <Ligand ID>  (1) 
RPT

>  <Target Name>  (1) 
DNA-directed RNA polymerase subunit beta'

>  <UniProt ID>  (1) 
P0A674

>  <PDB ID.1>  (1) 
2A69

>  <Seq. Identity>  (1) 
50%

$$$$
