PDB_DB00530_06
     RDKit          3D

 72 74  0  0  0  0  0  0  0  0999 V2000
    6.6195    2.6054    0.4013 C   0  0  0  0  0  0  0  0  0  0  0  0
    6.1590    1.2474    0.8078 C   0  0  0  0  0  0  0  0  0  0  0  0
    5.2403    0.5849   -0.1979 C   0  0  0  0  0  0  0  0  0  0  0  0
    3.9916    1.3874   -0.4366 C   0  0  0  0  0  0  0  0  0  0  0  0
    2.9340    0.4181   -0.9883 C   0  0  0  0  0  0  0  0  0  0  0  0
    2.2306   -0.0966    0.1090 N   0  0  0  0  0  0  0  0  0  0  0  0
    1.0721   -0.8445   -0.0557 C   0  0  0  0  0  0  0  0  0  0  0  0
   -0.0911   -0.0818   -0.7106 C   0  0  0  0  0  0  0  0  0  0  0  0
   -1.0034   -1.0864   -1.2864 C   0  0  0  0  0  0  0  0  0  0  0  0
   -2.2618   -1.3411   -0.4994 C   0  0  0  0  0  0  0  0  0  0  0  0
   -3.1824   -2.1013   -1.1691 O   0  0  0  0  0  0  0  0  0  0  0  0
   -3.5270   -3.2836   -0.5588 C   0  0  0  0  0  0  0  0  0  0  0  0
   -4.1332   -3.1267    0.8115 C   0  0  0  0  0  0  0  0  0  0  0  0
   -4.4166   -4.4284    1.2723 O   0  0  0  0  0  0  0  0  0  0  0  0
   -4.9819   -4.3881    2.5457 C   0  0  0  0  0  0  0  0  0  0  0  0
   -2.8643    0.0194   -0.1979 C   0  0  0  0  0  0  0  0  0  0  0  0
   -4.1810   -0.0201    0.1102 O   0  0  0  0  0  0  0  0  0  0  0  0
   -5.0650    0.6236   -0.6956 C   0  0  0  0  0  0  0  0  0  0  0  0
   -4.7548    2.1002   -0.7255 C   0  0  0  0  0  0  0  0  0  0  0  0
   -4.8338    2.6706    0.5449 O   0  0  0  0  0  0  0  0  0  0  0  0
   -4.5487    4.0263    0.5224 C   0  0  0  0  0  0  0  0  0  0  0  0
   -1.9612    0.6048    0.8613 C   0  0  0  0  0  0  0  0  0  0  0  0
   -0.6188    0.8818    0.2529 C   0  0  0  0  0  0  0  0  0  0  0  0
    0.3354    1.1094    1.3241 N   0  0  0  0  0  0  0  0  0  0  0  0
    0.5826   -0.0374    2.1395 C   0  0  0  0  0  0  0  0  0  0  0  0
    0.5642   -1.2021    1.2775 N   0  0  0  0  0  0  0  0  0  0  0  0
    3.6410   -0.6782   -1.7982 C   0  0  0  0  0  0  0  0  0  0  0  0
    4.8508   -0.1193   -2.4936 C   0  0  0  0  0  0  0  0  0  0  0  0
    5.9115    0.3754   -1.5315 C   0  0  0  0  0  0  0  0  0  0  0  0
    6.1860    2.9036   -0.5893 H   0  0  0  0  0  0  0  0  0  0  0  0
    7.7329    2.6086    0.3744 H   0  0  0  0  0  0  0  0  0  0  0  0
    6.3313    3.3809    1.1708 H   0  0  0  0  0  0  0  0  0  0  0  0
    7.0295    0.5528    0.9644 H   0  0  0  0  0  0  0  0  0  0  0  0
    5.6542    1.3198    1.7922 H   0  0  0  0  0  0  0  0  0  0  0  0
    4.9980   -0.4222    0.2358 H   0  0  0  0  0  0  0  0  0  0  0  0
    3.6102    1.8369    0.5102 H   0  0  0  0  0  0  0  0  0  0  0  0
    4.1905    2.1972   -1.1651 H   0  0  0  0  0  0  0  0  0  0  0  0
    2.3572    1.0028   -1.7299 H   0  0  0  0  0  0  0  0  0  0  0  0
    2.7326   -0.1523    1.0086 H   0  0  0  0  0  0  0  0  0  0  0  0
    1.2097   -1.7796   -0.6312 H   0  0  0  0  0  0  0  0  0  0  0  0
    0.4021    0.4749   -1.5632 H   0  0  0  0  0  0  0  0  0  0  0  0
   -1.3444   -0.7414   -2.3094 H   0  0  0  0  0  0  0  0  0  0  0  0
   -0.5357   -2.0827   -1.4730 H   0  0  0  0  0  0  0  0  0  0  0  0
   -1.9582   -1.8318    0.4376 H   0  0  0  0  0  0  0  0  0  0  0  0
   -4.3289   -3.7494   -1.1933 H   0  0  0  0  0  0  0  0  0  0  0  0
   -2.6945   -4.0047   -0.5720 H   0  0  0  0  0  0  0  0  0  0  0  0
   -3.4920   -2.5848    1.5320 H   0  0  0  0  0  0  0  0  0  0  0  0
   -5.0917   -2.5695    0.7736 H   0  0  0  0  0  0  0  0  0  0  0  0
   -4.2687   -3.8973    3.2678 H   0  0  0  0  0  0  0  0  0  0  0  0
   -5.9677   -3.9141    2.5780 H   0  0  0  0  0  0  0  0  0  0  0  0
   -5.0371   -5.4490    2.8891 H   0  0  0  0  0  0  0  0  0  0  0  0
   -2.7141    0.6110   -1.1227 H   0  0  0  0  0  0  0  0  0  0  0  0
   -4.9498    0.2275   -1.7437 H   0  0  0  0  0  0  0  0  0  0  0  0
   -6.1207    0.5276   -0.3974 H   0  0  0  0  0  0  0  0  0  0  0  0
   -5.5296    2.6099   -1.3629 H   0  0  0  0  0  0  0  0  0  0  0  0
   -3.7904    2.3100   -1.1841 H   0  0  0  0  0  0  0  0  0  0  0  0
   -5.2836    4.5648   -0.1427 H   0  0  0  0  0  0  0  0  0  0  0  0
   -3.5517    4.2412    0.0810 H   0  0  0  0  0  0  0  0  0  0  0  0
   -4.6818    4.4562    1.5351 H   0  0  0  0  0  0  0  0  0  0  0  0
   -2.4489    1.5253    1.2405 H   0  0  0  0  0  0  0  0  0  0  0  0
   -1.8220   -0.0725    1.7203 H   0  0  0  0  0  0  0  0  0  0  0  0
   -0.7334    1.8947   -0.2431 H   0  0  0  0  0  0  0  0  0  0  0  0
    0.1114    1.9666    1.8779 H   0  0  0  0  0  0  0  0  0  0  0  0
    1.5583    0.0968    2.6468 H   0  0  0  0  0  0  0  0  0  0  0  0
   -0.1889   -0.1730    2.9193 H   0  0  0  0  0  0  0  0  0  0  0  0
    1.0907   -2.0095    1.6766 H   0  0  0  0  0  0  0  0  0  0  0  0
    3.8649   -1.5530   -1.1670 H   0  0  0  0  0  0  0  0  0  0  0  0
    2.9341   -1.0011   -2.5838 H   0  0  0  0  0  0  0  0  0  0  0  0
    4.5055    0.7255   -3.1308 H   0  0  0  0  0  0  0  0  0  0  0  0
    5.2310   -0.8859   -3.1936 H   0  0  0  0  0  0  0  0  0  0  0  0
    6.3164    1.3538   -1.9030 H   0  0  0  0  0  0  0  0  0  0  0  0
    6.7795   -0.3339   -1.4658 H   0  0  0  0  0  0  0  0  0  0  0  0
  1  2  1  0
  2  3  1  0
  3  4  1  0
  4  5  1  0
  5  6  1  0
  6  7  1  0
  7  8  1  0
  8  9  1  0
  9 10  1  0
 10 11  1  0
 11 12  1  0
 12 13  1  0
 13 14  1  0
 14 15  1  0
 10 16  1  0
 16 17  1  0
 17 18  1  0
 18 19  1  0
 19 20  1  0
 20 21  1  0
 16 22  1  0
  8 23  1  0
 22 23  1  0
 23 24  1  0
 24 25  1  0
  7 26  1  0
 25 26  1  0
  5 27  1  0
 27 28  1  0
  3 29  1  0
 28 29  1  0
  1 30  1  0
  1 31  1  0
  1 32  1  0
  2 33  1  0
  2 34  1  0
  3 35  1  0
  4 36  1  0
  4 37  1  0
  5 38  1  0
  6 39  1  0
  7 40  1  0
  8 41  1  0
  9 42  1  0
  9 43  1  0
 10 44  1  0
 12 45  1  0
 12 46  1  0
 13 47  1  0
 13 48  1  0
 15 49  1  0
 15 50  1  0
 15 51  1  0
 16 52  1  0
 18 53  1  0
 18 54  1  0
 19 55  1  0
 19 56  1  0
 21 57  1  0
 21 58  1  0
 21 59  1  0
 22 60  1  0
 22 61  1  0
 23 62  1  0
 24 63  1  0
 25 64  1  0
 25 65  1  0
 26 66  1  0
 27 67  1  0
 27 68  1  0
 28 69  1  0
 28 70  1  0
 29 71  1  0
 29 72  1  0
M  END
>  <PDBID>  (1) 
1M17

>  <PDB ID>  (1) 
1M17

>  <Generic Name>  (1) 
Erlotinib

>  <Brand Name>  (1) 
PMS-erlotinib#Tarceva#Teva-erlotinib

>  <DrugBank ID>  (1) 
DB00530

>  <ATC Codes>  (1) 
L01XE03

>  <Ligand ID>  (1) 
AQ4

>  <Target Name>  (1) 
Epidermal growth factor receptor

>  <UniProt ID>  (1) 
P00533

>  <PDB ID.1>  (1) 
1M17

>  <Seq. Identity>  (1) 
96%

$$$$
