PDB_DB00552_08
     RDKit          3D

164172  0  0  0  0  0  0  0  0999 V2000
   -1.9307   -1.1742    0.9797 N   0  0  0  0  0  0  0  0  0  0  0  0
   -0.6900   -1.7230    0.5012 C   0  0  0  0  0  0  0  0  0  0  0  0
    0.0091   -0.6884   -0.1967 N   0  0  0  0  0  0  0  0  0  0  0  0
   -1.7139    0.2332    0.9724 C   0  0  1  0  0  0  0  0  0  0  0  0
   -0.8030    0.5010   -0.1825 C   0  0  2  0  0  0  0  0  0  0  0  0
   -1.3812    0.8519   -1.4013 N   0  0  0  0  0  0  0  0  0  0  0  0
   -2.6331    0.3494   -1.7923 C   0  0  0  0  0  0  0  0  0  0  0  0
   -3.7485    1.1073   -1.2253 N   0  0  0  0  0  0  0  0  0  0  0  0
   -4.0333    0.7404    0.1324 C   0  0  0  0  0  0  0  0  0  0  0  0
   -2.9179    1.0875    1.0480 C   0  0  1  0  0  0  0  0  0  0  0  0
   -3.3821    1.0522    2.3840 O   0  0  0  0  0  0  0  0  0  0  0  0
    2.1245   -1.7456    0.2846 C   0  0  0  0  0  0  0  0  0  0  0  0
    3.3863   -1.1973   -0.3942 C   0  0  2  0  0  0  0  0  0  0  0  0
    4.5212   -1.8501    0.0671 O   0  0  0  0  0  0  0  0  0  0  0  0
    4.0865    2.4424   -0.4627 O   0  0  0  0  0  0  0  0  0  0  0  0
    4.2094    1.1168   -0.8431 C   0  0  0  0  0  0  0  0  0  0  0  0
    3.3477    0.2319    0.0351 C   0  0  1  0  0  0  0  0  0  0  0  0
    2.0154    0.5681   -0.0666 O   0  0  0  0  0  0  0  0  0  0  0  0
    1.3041   -0.4945    0.4248 C   0  0  1  0  0  0  0  0  0  0  0  0
   -1.3165   -0.8292    1.8694 N   0  0  0  0  0  0  0  0  0  0  0  0
   -0.4881   -1.7465    1.0565 C   0  0  0  0  0  0  0  0  0  0  0  0
   -0.0379   -0.8570    0.0019 N   0  0  0  0  0  0  0  0  0  0  0  0
   -2.0931   -0.2264    0.7923 C   0  0  0  0  0  0  0  0  0  0  0  0
   -0.9858    0.1879   -0.1518 C   0  0  2  0  0  0  0  0  0  0  0  0
   -1.4402    0.3868   -1.4984 N   0  0  0  0  0  0  0  0  0  0  0  0
   -2.8512    0.3395   -1.6918 C   0  0  0  0  0  0  0  0  0  0  0  0
   -3.5491    1.4286   -1.0508 N   0  0  0  0  0  0  0  0  0  0  0  0
   -4.0773    1.0645    0.2570 C   0  0  0  0  0  0  0  0  0  0  0  0
   -2.8733    0.9800    1.2011 C   0  0  1  0  0  0  0  0  0  0  0  0
   -3.2257    1.0416    2.5223 O   0  0  0  0  0  0  0  0  0  0  0  0
    2.1700   -1.7280    0.1962 C   0  0  0  0  0  0  0  0  0  0  0  0
    3.3839   -1.1786   -0.5721 C   0  0  2  0  0  0  0  0  0  0  0  0
    4.5577   -1.7039   -0.0488 O   0  0  0  0  0  0  0  0  0  0  0  0
    3.7144    2.5090   -0.8031 O   0  0  0  0  0  0  0  0  0  0  0  0
    4.0712    1.1924   -1.1234 C   0  0  0  0  0  0  0  0  0  0  0  0
    3.2237    0.2892   -0.2965 C   0  0  1  0  0  0  0  0  0  0  0  0
    1.8529    0.4593   -0.5555 O   0  0  0  0  0  0  0  0  0  0  0  0
    1.3072   -0.4797    0.2804 C   0  0  1  0  0  0  0  0  0  0  0  0
   -1.9307   -1.1742    0.9797 N   0  0  0  0  0  0  0  0  0  0  0  0
   -0.6900   -1.7230    0.5012 C   0  0  0  0  0  0  0  0  0  0  0  0
    0.0091   -0.6884   -0.1967 N   0  0  0  0  0  0  0  0  0  0  0  0
   -1.7139    0.2332    0.9724 C   0  0  1  0  0  0  0  0  0  0  0  0
   -0.8030    0.5010   -0.1825 C   0  0  2  0  0  0  0  0  0  0  0  0
   -1.3812    0.8519   -1.4013 N   0  0  0  0  0  0  0  0  0  0  0  0
   -2.6331    0.3494   -1.7923 C   0  0  0  0  0  0  0  0  0  0  0  0
   -3.7485    1.1073   -1.2253 N   0  0  0  0  0  0  0  0  0  0  0  0
   -4.0333    0.7404    0.1324 C   0  0  0  0  0  0  0  0  0  0  0  0
   -2.9179    1.0875    1.0480 C   0  0  1  0  0  0  0  0  0  0  0  0
   -3.3821    1.0522    2.3840 O   0  0  0  0  0  0  0  0  0  0  0  0
    2.1245   -1.7456    0.2846 C   0  0  0  0  0  0  0  0  0  0  0  0
    3.3863   -1.1973   -0.3942 C   0  0  2  0  0  0  0  0  0  0  0  0
    4.5212   -1.8501    0.0671 O   0  0  0  0  0  0  0  0  0  0  0  0
    4.0865    2.4424   -0.4627 O   0  0  0  0  0  0  0  0  0  0  0  0
    4.2094    1.1168   -0.8431 C   0  0  0  0  0  0  0  0  0  0  0  0
    3.3477    0.2319    0.0351 C   0  0  1  0  0  0  0  0  0  0  0  0
    2.0154    0.5681   -0.0666 O   0  0  0  0  0  0  0  0  0  0  0  0
    1.3041   -0.4945    0.4248 C   0  0  1  0  0  0  0  0  0  0  0  0
   -1.9307   -1.1742    0.9797 N   0  0  0  0  0  0  0  0  0  0  0  0
   -0.6900   -1.7230    0.5012 C   0  0  0  0  0  0  0  0  0  0  0  0
    0.0091   -0.6884   -0.1967 N   0  0  0  0  0  0  0  0  0  0  0  0
   -1.7139    0.2332    0.9724 C   0  0  1  0  0  0  0  0  0  0  0  0
   -0.8030    0.5010   -0.1825 C   0  0  2  0  0  0  0  0  0  0  0  0
   -1.3812    0.8519   -1.4013 N   0  0  0  0  0  0  0  0  0  0  0  0
   -2.6331    0.3494   -1.7923 C   0  0  0  0  0  0  0  0  0  0  0  0
   -3.7485    1.1073   -1.2253 N   0  0  0  0  0  0  0  0  0  0  0  0
   -4.0333    0.7404    0.1324 C   0  0  0  0  0  0  0  0  0  0  0  0
   -2.9179    1.0875    1.0480 C   0  0  1  0  0  0  0  0  0  0  0  0
   -3.3821    1.0522    2.3840 O   0  0  0  0  0  0  0  0  0  0  0  0
    2.1245   -1.7456    0.2846 C   0  0  0  0  0  0  0  0  0  0  0  0
    3.3863   -1.1973   -0.3942 C   0  0  2  0  0  0  0  0  0  0  0  0
    4.5212   -1.8501    0.0671 O   0  0  0  0  0  0  0  0  0  0  0  0
    4.0865    2.4424   -0.4627 O   0  0  0  0  0  0  0  0  0  0  0  0
    4.2094    1.1168   -0.8431 C   0  0  0  0  0  0  0  0  0  0  0  0
    3.3477    0.2319    0.0351 C   0  0  1  0  0  0  0  0  0  0  0  0
    2.0154    0.5681   -0.0666 O   0  0  0  0  0  0  0  0  0  0  0  0
    1.3041   -0.4945    0.4248 C   0  0  1  0  0  0  0  0  0  0  0  0
   -2.7779   -1.5337    0.5570 H   0  0  0  0  0  0  0  0  0  0  0  0
   -0.8032   -2.6470   -0.1000 H   0  0  0  0  0  0  0  0  0  0  0  0
   -0.1208   -2.0461    1.4218 H   0  0  0  0  0  0  0  0  0  0  0  0
   -1.1167    0.4433    1.9120 H   0  0  0  0  0  0  0  0  0  0  0  0
   -0.1240    1.3542    0.1212 H   0  0  0  0  0  0  0  0  0  0  0  0
   -1.2672    1.8219   -1.7302 H   0  0  0  0  0  0  0  0  0  0  0  0
   -2.7305    0.5404   -2.9076 H   0  0  0  0  0  0  0  0  0  0  0  0
   -2.7784   -0.7418   -1.7005 H   0  0  0  0  0  0  0  0  0  0  0  0
   -4.6271    0.9699   -1.7753 H   0  0  0  0  0  0  0  0  0  0  0  0
   -4.3881   -0.3028    0.2445 H   0  0  0  0  0  0  0  0  0  0  0  0
   -4.9165    1.3731    0.4345 H   0  0  0  0  0  0  0  0  0  0  0  0
   -2.6227    2.1372    0.8602 H   0  0  0  0  0  0  0  0  0  0  0  0
   -2.8604    1.6734    2.9519 H   0  0  0  0  0  0  0  0  0  0  0  0
    2.3918   -2.1359    1.2810 H   0  0  0  0  0  0  0  0  0  0  0  0
    1.6431   -2.4961   -0.3631 H   0  0  0  0  0  0  0  0  0  0  0  0
    3.2625   -1.2692   -1.4756 H   0  0  0  0  0  0  0  0  0  0  0  0
    4.3252   -2.8136    0.1420 H   0  0  0  0  0  0  0  0  0  0  0  0
    3.7804    2.4479    0.4978 H   0  0  0  0  0  0  0  0  0  0  0  0
    5.2478    0.7346   -0.7918 H   0  0  0  0  0  0  0  0  0  0  0  0
    3.8661    0.9875   -1.9104 H   0  0  0  0  0  0  0  0  0  0  0  0
    3.7095    0.3732    1.0774 H   0  0  0  0  0  0  0  0  0  0  0  0
    1.1368   -0.2793    1.5168 H   0  0  0  0  0  0  0  0  0  0  0  0
   -0.6198   -0.0729    2.1495 H   0  0  0  0  0  0  0  0  0  0  0  0
   -1.0868   -2.5620    0.6372 H   0  0  0  0  0  0  0  0  0  0  0  0
    0.3534   -2.1467    1.6543 H   0  0  0  0  0  0  0  0  0  0  0  0
   -2.7178   -1.0442    0.3912 H   0  0  0  0  0  0  0  0  0  0  0  0
   -0.5856    1.1550    0.2327 H   0  0  0  0  0  0  0  0  0  0  0  0
   -0.9038   -0.1345   -2.2132 H   0  0  0  0  0  0  0  0  0  0  0  0
   -3.0173    0.4868   -2.8017 H   0  0  0  0  0  0  0  0  0  0  0  0
   -3.3176   -0.6532   -1.4972 H   0  0  0  0  0  0  0  0  0  0  0  0
   -4.3759    1.7185   -1.6441 H   0  0  0  0  0  0  0  0  0  0  0  0
   -4.5735    0.0897    0.2255 H   0  0  0  0  0  0  0  0  0  0  0  0
   -4.7948    1.8223    0.5816 H   0  0  0  0  0  0  0  0  0  0  0  0
   -2.2763    1.9034    0.9662 H   0  0  0  0  0  0  0  0  0  0  0  0
   -2.7099    1.7411    3.0273 H   0  0  0  0  0  0  0  0  0  0  0  0
    2.4346   -2.0701    1.1915 H   0  0  0  0  0  0  0  0  0  0  0  0
    1.6490   -2.4958   -0.4120 H   0  0  0  0  0  0  0  0  0  0  0  0
    3.2521   -1.3383   -1.6424 H   0  0  0  0  0  0  0  0  0  0  0  0
    4.4187   -2.6672    0.0786 H   0  0  0  0  0  0  0  0  0  0  0  0
    3.5517    2.6171    0.1700 H   0  0  0  0  0  0  0  0  0  0  0  0
    5.1383    1.0743   -0.8465 H   0  0  0  0  0  0  0  0  0  0  0  0
    3.9843    1.0393   -2.2154 H   0  0  0  0  0  0  0  0  0  0  0  0
    3.4298    0.4822    0.7875 H   0  0  0  0  0  0  0  0  0  0  0  0
    1.4246   -0.0742    1.3221 H   0  0  0  0  0  0  0  0  0  0  0  0
   -2.7779   -1.5337    0.5570 H   0  0  0  0  0  0  0  0  0  0  0  0
   -0.8032   -2.6470   -0.1000 H   0  0  0  0  0  0  0  0  0  0  0  0
   -0.1208   -2.0461    1.4218 H   0  0  0  0  0  0  0  0  0  0  0  0
   -1.1167    0.4433    1.9120 H   0  0  0  0  0  0  0  0  0  0  0  0
   -0.1240    1.3542    0.1212 H   0  0  0  0  0  0  0  0  0  0  0  0
   -1.2672    1.8219   -1.7302 H   0  0  0  0  0  0  0  0  0  0  0  0
   -2.7305    0.5404   -2.9076 H   0  0  0  0  0  0  0  0  0  0  0  0
   -2.7784   -0.7418   -1.7005 H   0  0  0  0  0  0  0  0  0  0  0  0
   -4.6271    0.9699   -1.7753 H   0  0  0  0  0  0  0  0  0  0  0  0
   -4.3881   -0.3028    0.2445 H   0  0  0  0  0  0  0  0  0  0  0  0
   -4.9165    1.3731    0.4345 H   0  0  0  0  0  0  0  0  0  0  0  0
   -2.6227    2.1372    0.8602 H   0  0  0  0  0  0  0  0  0  0  0  0
   -2.8604    1.6734    2.9519 H   0  0  0  0  0  0  0  0  0  0  0  0
    2.3918   -2.1359    1.2810 H   0  0  0  0  0  0  0  0  0  0  0  0
    1.6431   -2.4961   -0.3631 H   0  0  0  0  0  0  0  0  0  0  0  0
    3.2625   -1.2692   -1.4756 H   0  0  0  0  0  0  0  0  0  0  0  0
    4.3252   -2.8136    0.1420 H   0  0  0  0  0  0  0  0  0  0  0  0
    3.7804    2.4479    0.4978 H   0  0  0  0  0  0  0  0  0  0  0  0
    5.2478    0.7346   -0.7918 H   0  0  0  0  0  0  0  0  0  0  0  0
    3.8661    0.9875   -1.9104 H   0  0  0  0  0  0  0  0  0  0  0  0
    3.7095    0.3732    1.0774 H   0  0  0  0  0  0  0  0  0  0  0  0
    1.1368   -0.2793    1.5168 H   0  0  0  0  0  0  0  0  0  0  0  0
   -2.7779   -1.5337    0.5570 H   0  0  0  0  0  0  0  0  0  0  0  0
   -0.8032   -2.6470   -0.1000 H   0  0  0  0  0  0  0  0  0  0  0  0
   -0.1208   -2.0461    1.4218 H   0  0  0  0  0  0  0  0  0  0  0  0
   -1.1167    0.4433    1.9120 H   0  0  0  0  0  0  0  0  0  0  0  0
   -0.1240    1.3542    0.1212 H   0  0  0  0  0  0  0  0  0  0  0  0
   -1.2672    1.8219   -1.7302 H   0  0  0  0  0  0  0  0  0  0  0  0
   -2.7305    0.5404   -2.9076 H   0  0  0  0  0  0  0  0  0  0  0  0
   -2.7784   -0.7418   -1.7005 H   0  0  0  0  0  0  0  0  0  0  0  0
   -4.6271    0.9699   -1.7753 H   0  0  0  0  0  0  0  0  0  0  0  0
   -4.3881   -0.3028    0.2445 H   0  0  0  0  0  0  0  0  0  0  0  0
   -4.9165    1.3731    0.4345 H   0  0  0  0  0  0  0  0  0  0  0  0
   -2.6227    2.1372    0.8602 H   0  0  0  0  0  0  0  0  0  0  0  0
   -2.8604    1.6734    2.9519 H   0  0  0  0  0  0  0  0  0  0  0  0
    2.3918   -2.1359    1.2810 H   0  0  0  0  0  0  0  0  0  0  0  0
    1.6431   -2.4961   -0.3631 H   0  0  0  0  0  0  0  0  0  0  0  0
    3.2625   -1.2692   -1.4756 H   0  0  0  0  0  0  0  0  0  0  0  0
    4.3252   -2.8136    0.1420 H   0  0  0  0  0  0  0  0  0  0  0  0
    3.7804    2.4479    0.4978 H   0  0  0  0  0  0  0  0  0  0  0  0
    5.2478    0.7346   -0.7918 H   0  0  0  0  0  0  0  0  0  0  0  0
    3.8661    0.9875   -1.9104 H   0  0  0  0  0  0  0  0  0  0  0  0
    3.7095    0.3732    1.0774 H   0  0  0  0  0  0  0  0  0  0  0  0
    1.1368   -0.2793    1.5168 H   0  0  0  0  0  0  0  0  0  0  0  0
  1  2  1  0
  2  3  1  0
  1  4  1  0
  3  5  1  0
  4  5  1  0
  5  6  1  0
  6  7  1  0
  7  8  1  0
  8  9  1  0
  4 10  1  0
  9 10  1  0
 10 11  1  0
 12 13  1  0
 13 14  1  0
 15 16  1  0
 13 17  1  0
 16 17  1  0
 17 18  1  0
  3 19  1  0
 12 19  1  0
 18 19  1  0
 20 21  1  0
 21 22  1  0
 20 23  1  0
 22 24  1  0
 23 24  1  0
 24 25  1  0
 25 26  1  0
 26 27  1  0
 27 28  1  0
 23 29  1  0
 28 29  1  0
 29 30  1  0
 31 32  1  0
 32 33  1  0
 34 35  1  0
 32 36  1  0
 35 36  1  0
 36 37  1  0
 22 38  1  0
 31 38  1  0
 37 38  1  0
 39 40  1  0
 40 41  1  0
 39 42  1  0
 41 43  1  0
 42 43  1  0
 43 44  1  0
 44 45  1  0
 45 46  1  0
 46 47  1  0
 42 48  1  0
 47 48  1  0
 48 49  1  0
 50 51  1  0
 51 52  1  0
 53 54  1  0
 51 55  1  0
 54 55  1  0
 55 56  1  0
 41 57  1  0
 50 57  1  0
 56 57  1  0
 58 59  1  0
 59 60  1  0
 58 61  1  0
 60 62  1  0
 61 62  1  0
 62 63  1  0
 63 64  1  0
 64 65  1  0
 65 66  1  0
 61 67  1  0
 66 67  1  0
 67 68  1  0
 69 70  1  0
 70 71  1  0
 72 73  1  0
 70 74  1  0
 73 74  1  0
 74 75  1  0
 60 76  1  0
 69 76  1  0
 75 76  1  0
  1 77  1  0
  2 78  1  0
  2 79  1  0
  4 80  1  1
  5 81  1  1
  6 82  1  0
  7 83  1  0
  7 84  1  0
  8 85  1  0
  9 86  1  0
  9 87  1  0
 10 88  1  6
 11 89  1  0
 12 90  1  0
 12 91  1  0
 13 92  1  6
 14 93  1  0
 15 94  1  0
 16 95  1  0
 16 96  1  0
 17 97  1  1
 19 98  1  1
 20 99  1  0
 21100  1  0
 21101  1  0
 23102  1  0
 24103  1  1
 25104  1  0
 26105  1  0
 26106  1  0
 27107  1  0
 28108  1  0
 28109  1  0
 29110  1  6
 30111  1  0
 31112  1  0
 31113  1  0
 32114  1  6
 33115  1  0
 34116  1  0
 35117  1  0
 35118  1  0
 36119  1  1
 38120  1  1
 39121  1  0
 40122  1  0
 40123  1  0
 42124  1  1
 43125  1  1
 44126  1  0
 45127  1  0
 45128  1  0
 46129  1  0
 47130  1  0
 47131  1  0
 48132  1  6
 49133  1  0
 50134  1  0
 50135  1  0
 51136  1  6
 52137  1  0
 53138  1  0
 54139  1  0
 54140  1  0
 55141  1  1
 57142  1  1
 58143  1  0
 59144  1  0
 59145  1  0
 61146  1  1
 62147  1  1
 63148  1  0
 64149  1  0
 64150  1  0
 65151  1  0
 66152  1  0
 66153  1  0
 67154  1  6
 68155  1  0
 69156  1  0
 69157  1  0
 70158  1  6
 71159  1  0
 72160  1  0
 73161  1  0
 73162  1  0
 74163  1  1
 76164  1  1
M  END
>  <PDBID>  (1) 
1A4L

>  <PDB ID>  (1) 
1A4L

>  <Generic Name>  (1) 
Pentostatin

>  <Brand Name>  (1) 
Nipent#Nipent Pws 10mg/vial

>  <DrugBank ID>  (1) 
DB00552

>  <ATC Codes>  (1) 
L01XX08

>  <Ligand ID>  (1) 
DCF

>  <Target Name>  (1) 
Adenosine deaminase

>  <UniProt ID>  (1) 
P00813

>  <PDB ID.1>  (1) 
1A4L

>  <Seq. Identity>  (1) 
83%

$$$$
