PDB_DB01199_01
     RDKit          3D

550580  0  0  0  0  0  0  0  0999 V2000
   -4.6573    3.1600   -0.6105 N   0  0  0  0  0  0  0  0  0  0  0  0
   -5.2370    2.7799   -1.8854 C   0  0  0  0  0  0  0  0  0  0  0  0
   -5.8292    1.3902   -1.8612 C   0  0  0  0  0  0  0  0  0  0  0  0
   -4.8990    0.3882   -1.2147 C   0  0  0  0  0  0  0  0  0  0  0  0
   -4.3374    0.9163    0.0860 C   0  0  0  0  0  0  0  0  0  0  0  0
   -3.6040    2.2107   -0.2223 C   0  0  2  0  0  0  0  0  0  0  0  0
   -5.6694   -0.8746   -0.9407 C   0  0  0  0  0  0  0  0  0  0  0  0
   -4.9175   -1.7962   -0.0328 C   0  0  0  0  0  0  0  0  0  0  0  0
   -3.4266   -1.4352   -0.0233 C   0  0  1  0  0  0  0  0  0  0  0  0
   -3.3765   -0.0588    0.6587 C   0  0  0  0  0  0  0  0  0  0  0  0
   -2.7325   -2.2933    0.8043 O   0  0  0  0  0  0  0  0  0  0  0  0
   -1.4835   -2.6837    0.2635 C   0  0  2  0  0  0  0  0  0  0  0  0
   -1.2667   -4.0902    0.7462 C   0  0  0  0  0  0  0  0  0  0  0  0
   -0.1577   -4.0888    1.8065 C   0  0  0  0  0  0  0  0  0  0  0  0
    1.0793   -3.6739    1.0606 C   0  0  0  0  0  0  0  0  0  0  0  0
    0.9669   -2.2163    0.7299 C   0  0  2  0  0  0  0  0  0  0  0  0
   -0.4328   -1.7182    0.6297 C   0  0  0  0  0  0  0  0  0  0  0  0
    1.7885   -1.9052   -0.5252 C   0  0  0  0  0  0  0  0  0  0  0  0
    3.2408   -1.6721   -0.1760 C   0  0  1  0  0  0  0  0  0  0  0  0
    4.1470   -2.3267   -1.0913 N   0  0  0  0  0  0  0  0  0  0  0  0
    5.4964   -2.2748   -0.6194 C   0  0  0  0  0  0  0  0  0  0  0  0
    5.6909   -1.3427    0.5845 C   0  0  0  0  0  0  0  0  0  0  0  0
    5.0422   -0.0729    0.1609 C   0  0  0  0  0  0  0  0  0  0  0  0
    3.5513   -0.2846    0.2077 C   0  0  1  0  0  0  0  0  0  0  0  0
    5.3066    1.1354    0.9987 C   0  0  0  0  0  0  0  0  0  0  0  0
    4.9264    2.2959    0.0966 C   0  0  0  0  0  0  0  0  0  0  0  0
    3.7896    2.0213   -0.8114 C   0  0  2  0  0  0  0  0  0  0  0  0
    2.9417    0.8353   -0.5811 C   0  0  2  0  0  0  0  0  0  0  0  0
    1.6341    1.0833   -0.1955 O   0  0  0  0  0  0  0  0  0  0  0  0
    1.3345    2.2798    0.3579 C   0  0  0  0  0  0  0  0  0  0  0  0
    0.3432    1.9709    1.5023 C   0  0  0  0  0  0  0  0  0  0  0  0
   -0.4930    3.2183    1.6740 C   0  0  0  0  0  0  0  0  0  0  0  0
   -1.5037    3.3628    0.5476 C   0  0  0  0  0  0  0  0  0  0  0  0
   -0.8968    2.8185   -0.6981 C   0  0  0  0  0  0  0  0  0  0  0  0
    0.5981    3.1686   -0.6601 C   0  0  0  0  0  0  0  0  0  0  0  0
   -2.8307    2.7649    0.9167 C   0  0  0  0  0  0  0  0  0  0  0  0
   -5.1356   -3.1279   -0.2657 O   0  0  0  0  0  0  0  0  0  0  0  0
   -5.6883   -3.7958    0.8231 C   0  0  0  0  0  0  0  0  0  0  0  0
   -2.3818   -4.6470    1.3568 O   0  0  0  0  0  0  0  0  0  0  0  0
    4.7677    3.4124    0.9059 O   0  0  0  0  0  0  0  0  0  0  0  0
    5.7549    4.3523    0.7548 C   0  0  0  0  0  0  0  0  0  0  0  0
    4.3192    2.0224   -2.1376 O   0  0  0  0  0  0  0  0  0  0  0  0
   -5.6724    3.3070    0.3940 C   0  0  0  0  0  0  0  0  0  0  0  0
    3.8227   -3.7689   -1.0985 C   0  0  0  0  0  0  0  0  0  0  0  0
    4.0078   -1.9136   -2.4572 C   0  0  0  0  0  0  0  0  0  0  0  0
   -4.9604    3.1233   -0.1878 N   0  0  0  0  0  0  0  0  0  0  0  0
   -6.0779    2.4682   -0.7669 C   0  0  0  0  0  0  0  0  0  0  0  0
   -5.7743    1.3198   -1.6566 C   0  0  0  0  0  0  0  0  0  0  0  0
   -4.8549    0.3402   -1.0331 C   0  0  0  0  0  0  0  0  0  0  0  0
   -4.1873    0.9168    0.2270 C   0  0  2  0  0  0  0  0  0  0  0  0
   -3.7324    2.3086   -0.1845 C   0  0  2  0  0  0  0  0  0  0  0  0
   -5.4562   -0.9708   -0.6651 C   0  0  0  0  0  0  0  0  0  0  0  0
   -4.3348   -1.9386   -0.3070 C   0  0  0  0  0  0  0  0  0  0  0  0
   -3.5842   -1.3669    0.8474 C   0  0  0  0  0  0  0  0  0  0  0  0
   -3.0182   -0.0097    0.4751 C   0  0  0  0  0  0  0  0  0  0  0  0
   -2.6799   -2.1693    1.4651 O   0  0  0  0  0  0  0  0  0  0  0  0
   -1.5270   -2.4771    0.7476 C   0  0  0  0  0  0  0  0  0  0  0  0
   -1.2342   -3.9241    1.0845 C   0  0  0  0  0  0  0  0  0  0  0  0
   -0.1721   -3.8984    2.1926 C   0  0  0  0  0  0  0  0  0  0  0  0
    1.1009   -3.4833    1.4726 C   0  0  0  0  0  0  0  0  0  0  0  0
    0.9784   -2.0797    0.9727 C   0  0  0  0  0  0  0  0  0  0  0  0
   -0.4122   -1.5397    1.0307 C   0  0  0  0  0  0  0  0  0  0  0  0
    1.6476   -1.8589   -0.3806 C   0  0  0  0  0  0  0  0  0  0  0  0
    3.1224   -1.7089   -0.2206 C   0  0  1  0  0  0  0  0  0  0  0  0
    3.8955   -2.3715   -1.2585 N   0  0  0  0  0  0  0  0  0  0  0  0
    5.3062   -2.3817   -0.9837 C   0  0  0  0  0  0  0  0  0  0  0  0
    5.6852   -1.4918    0.2112 C   0  0  0  0  0  0  0  0  0  0  0  0
    5.0487   -0.1712   -0.1344 C   0  0  0  0  0  0  0  0  0  0  0  0
    3.5696   -0.3356    0.1367 C   0  0  1  0  0  0  0  0  0  0  0  0
    5.4933    0.9950    0.6699 C   0  0  0  0  0  0  0  0  0  0  0  0
    4.9500    2.2252   -0.0298 C   0  0  0  0  0  0  0  0  0  0  0  0
    3.7650    1.9587   -0.8915 C   0  0  0  0  0  0  0  0  0  0  0  0
    2.8796    0.8211   -0.5043 C   0  0  2  0  0  0  0  0  0  0  0  0
    1.7739    1.1452    0.2197 O   0  0  0  0  0  0  0  0  0  0  0  0
    1.3195    2.4013    0.3143 C   0  0  0  0  0  0  0  0  0  0  0  0
    0.2562    2.4020    1.4320 C   0  0  0  0  0  0  0  0  0  0  0  0
   -0.5097    3.6796    1.2833 C   0  0  0  0  0  0  0  0  0  0  0  0
   -1.5160    3.4697    0.1439 C   0  0  0  0  0  0  0  0  0  0  0  0
   -0.8690    2.6645   -0.9084 C   0  0  0  0  0  0  0  0  0  0  0  0
    0.6323    2.9291   -0.9202 C   0  0  0  0  0  0  0  0  0  0  0  0
   -2.7731    2.9507    0.7491 C   0  0  0  0  0  0  0  0  0  0  0  0
   -4.9660   -3.1097    0.1021 O   0  0  0  0  0  0  0  0  0  0  0  0
   -4.7035   -4.1633   -0.7751 C   0  0  0  0  0  0  0  0  0  0  0  0
   -2.3334   -4.5558    1.6416 O   0  0  0  0  0  0  0  0  0  0  0  0
    4.7382    3.1790    0.9623 O   0  0  0  0  0  0  0  0  0  0  0  0
    5.5980    4.2403    0.8771 C   0  0  0  0  0  0  0  0  0  0  0  0
    4.2400    1.8162   -2.2168 O   0  0  0  0  0  0  0  0  0  0  0  0
   -5.3265    3.4905    1.1859 C   0  0  0  0  0  0  0  0  0  0  0  0
    3.5111   -3.7972   -1.1924 C   0  0  0  0  0  0  0  0  0  0  0  0
    3.5830   -1.9363   -2.5787 C   0  0  0  0  0  0  0  0  0  0  0  0
   -5.1008    2.2165    0.4371 N   0  0  0  0  0  0  0  0  0  0  0  0
   -6.0311    2.5582   -0.6219 C   0  0  0  0  0  0  0  0  0  0  0  0
   -6.1761    1.3864   -1.5195 C   0  0  0  0  0  0  0  0  0  0  0  0
   -5.2571    0.2512   -1.2294 C   0  0  0  0  0  0  0  0  0  0  0  0
   -3.8386    0.7021   -0.8663 C   0  0  0  0  0  0  0  0  0  0  0  0
   -3.7842    2.0483   -0.2104 C   0  0  2  0  0  0  0  0  0  0  0  0
   -5.8247   -0.7174   -0.2086 C   0  0  0  0  0  0  0  0  0  0  0  0
   -4.9116   -1.9578   -0.2347 C   0  0  0  0  0  0  0  0  0  0  0  0
   -3.6796   -1.4778    0.5162 C   0  0  0  0  0  0  0  0  0  0  0  0
   -3.0478   -0.3659   -0.2408 C   0  0  0  0  0  0  0  0  0  0  0  0
   -2.7855   -2.3804    0.8930 O   0  0  0  0  0  0  0  0  0  0  0  0
   -1.5265   -2.5190    0.4290 C   0  0  0  0  0  0  0  0  0  0  0  0
   -1.1223   -3.9081    0.9232 C   0  0  0  0  0  0  0  0  0  0  0  0
   -0.3571   -3.7107    2.2349 C   0  0  0  0  0  0  0  0  0  0  0  0
    1.0474   -3.3345    1.7217 C   0  0  0  0  0  0  0  0  0  0  0  0
    0.9097   -2.0132    1.0715 C   0  0  2  0  0  0  0  0  0  0  0  0
   -0.5074   -1.5440    0.8537 C   0  0  0  0  0  0  0  0  0  0  0  0
    1.7823   -1.7570   -0.1361 C   0  0  0  0  0  0  0  0  0  0  0  0
    3.2220   -1.4580    0.1578 C   0  0  1  0  0  0  0  0  0  0  0  0
    4.1365   -2.3391   -0.5977 N   0  0  0  0  0  0  0  0  0  0  0  0
    5.4921   -2.2832   -0.0759 C   0  0  0  0  0  0  0  0  0  0  0  0
    5.7050   -1.0850    0.8603 C   0  0  0  0  0  0  0  0  0  0  0  0
    5.1428    0.0517    0.0824 C   0  0  0  0  0  0  0  0  0  0  0  0
    3.6187   -0.0596    0.2348 C   0  0  1  0  0  0  0  0  0  0  0  0
    5.5273    1.4224    0.5088 C   0  0  0  0  0  0  0  0  0  0  0  0
    5.1950    2.3134   -0.7008 C   0  0  0  0  0  0  0  0  0  0  0  0
    4.0440    1.7517   -1.4882 C   0  0  0  0  0  0  0  0  0  0  0  0
    3.0352    1.0175   -0.5784 C   0  0  2  0  0  0  0  0  0  0  0  0
    2.6123    2.1339    0.2114 O   0  0  0  0  0  0  0  0  0  0  0  0
    1.2481    2.2141    0.2625 C   0  0  0  0  0  0  0  0  0  0  0  0
    0.5666    2.6320   -1.0155 C   0  0  0  0  0  0  0  0  0  0  0  0
   -0.9012    2.1892   -0.8669 C   0  0  0  0  0  0  0  0  0  0  0  0
   -1.3335    2.3465    0.5327 C   0  0  0  0  0  0  0  0  0  0  0  0
   -0.6248    3.6388    1.0180 C   0  0  0  0  0  0  0  0  0  0  0  0
    0.8575    3.2854    1.2665 C   0  0  0  0  0  0  0  0  0  0  0  0
   -2.7781    2.3220    0.8130 C   0  0  0  0  0  0  0  0  0  0  0  0
   -5.5258   -2.9069    0.5436 O   0  0  0  0  0  0  0  0  0  0  0  0
   -5.7422   -4.1099   -0.1220 C   0  0  0  0  0  0  0  0  0  0  0  0
   -2.2034   -4.7249    1.1987 O   0  0  0  0  0  0  0  0  0  0  0  0
    4.8820    3.5591   -0.1928 O   0  0  0  0  0  0  0  0  0  0  0  0
    5.7399    4.5540   -0.6611 C   0  0  0  0  0  0  0  0  0  0  0  0
    4.3695    1.0668   -2.6225 O   0  0  0  0  0  0  0  0  0  0  0  0
   -5.1227    3.2990    1.3765 C   0  0  0  0  0  0  0  0  0  0  0  0
    3.7781   -3.7560   -0.3740 C   0  0  0  0  0  0  0  0  0  0  0  0
    4.0337   -2.1488   -2.0074 C   0  0  0  0  0  0  0  0  0  0  0  0
   -5.0548    2.2414    0.3292 N   0  0  0  0  0  0  0  0  0  0  0  0
   -6.0436    2.4678   -0.7200 C   0  0  0  0  0  0  0  0  0  0  0  0
   -5.8392    1.3877   -1.7375 C   0  0  0  0  0  0  0  0  0  0  0  0
   -4.8655    0.3268   -1.3228 C   0  0  0  0  0  0  0  0  0  0  0  0
   -3.5264    0.9351   -0.8688 C   0  0  0  0  0  0  0  0  0  0  0  0
   -3.7399    2.3017   -0.2714 C   0  0  2  0  0  0  0  0  0  0  0  0
   -5.3924   -0.5310   -0.1857 C   0  0  0  0  0  0  0  0  0  0  0  0
   -4.6155   -1.8381   -0.2984 C   0  0  1  0  0  0  0  0  0  0  0  0
   -3.1632   -1.4970   -0.2342 C   0  0  1  0  0  0  0  0  0  0  0  0
   -2.8632   -0.0587   -0.0017 C   0  0  0  0  0  0  0  0  0  0  0  0
   -2.6026   -2.2134    0.8247 O   0  0  0  0  0  0  0  0  0  0  0  0
   -1.3498   -2.6866    0.5861 C   0  0  2  0  0  0  0  0  0  0  0  0
   -1.3468   -4.1667    0.9129 C   0  0  0  0  0  0  0  0  0  0  0  0
   -0.1608   -4.5648    1.7373 C   0  0  0  0  0  0  0  0  0  0  0  0
    1.0807   -4.0532    1.0427 C   0  0  0  0  0  0  0  0  0  0  0  0
    1.0954   -2.5538    1.0897 C   0  0  0  0  0  0  0  0  0  0  0  0
   -0.2828   -2.0515    1.4434 C   0  0  0  0  0  0  0  0  0  0  0  0
    1.6403   -1.8974   -0.1633 C   0  0  0  0  0  0  0  0  0  0  0  0
    3.1140   -1.5919   -0.0991 C   0  0  1  0  0  0  0  0  0  0  0  0
    3.8888   -2.2393   -1.1294 N   0  0  0  0  0  0  0  0  0  0  0  0
    5.3005   -2.1970   -0.8373 C   0  0  0  0  0  0  0  0  0  0  0  0
    5.6329   -1.3400    0.3824 C   0  0  0  0  0  0  0  0  0  0  0  0
    4.9621   -0.0418    0.1030 C   0  0  0  0  0  0  0  0  0  0  0  0
    3.4605   -0.1995    0.2337 C   0  0  1  0  0  0  0  0  0  0  0  0
    5.3470    1.1258    0.9271 C   0  0  0  0  0  0  0  0  0  0  0  0
    4.9251    2.3315    0.1094 C   0  0  0  0  0  0  0  0  0  0  0  0
    3.7943    2.0705   -0.8197 C   0  0  0  0  0  0  0  0  0  0  0  0
    2.8790    0.9309   -0.5499 C   0  0  2  0  0  0  0  0  0  0  0  0
    1.5874    1.2619   -0.1874 O   0  0  0  0  0  0  0  0  0  0  0  0
    1.2957    2.4901    0.2621 C   0  0  0  0  0  0  0  0  0  0  0  0
    0.2592    2.2808    1.3898 C   0  0  0  0  0  0  0  0  0  0  0  0
   -0.5753    3.5438    1.4187 C   0  0  0  0  0  0  0  0  0  0  0  0
   -1.5660    3.5389    0.2394 C   0  0  0  0  0  0  0  0  0  0  0  0
   -0.8528    3.0618   -0.9497 C   0  0  0  0  0  0  0  0  0  0  0  0
    0.6335    3.3912   -0.7911 C   0  0  0  0  0  0  0  0  0  0  0  0
   -2.7824    2.8167    0.6860 C   0  0  0  0  0  0  0  0  0  0  0  0
   -5.0157   -2.7734    0.6134 O   0  0  0  0  0  0  0  0  0  0  0  0
   -5.5630   -3.8638   -0.0541 C   0  0  0  0  0  0  0  0  0  0  0  0
   -2.4926   -4.5454    1.6100 O   0  0  0  0  0  0  0  0  0  0  0  0
    4.7526    3.4013    0.9756 O   0  0  0  0  0  0  0  0  0  0  0  0
    5.7134    4.3649    0.8319 C   0  0  0  0  0  0  0  0  0  0  0  0
    4.3260    2.0097   -2.1424 O   0  0  0  0  0  0  0  0  0  0  0  0
   -5.3306    3.1467    1.3776 C   0  0  0  0  0  0  0  0  0  0  0  0
    3.5766   -3.6828   -1.1183 C   0  0  0  0  0  0  0  0  0  0  0  0
    3.6442   -1.7977   -2.4575 C   0  0  0  0  0  0  0  0  0  0  0  0
   -4.8655    3.0023   -0.5277 N   0  0  0  0  0  0  0  0  0  0  0  0
   -5.7746    2.4586   -1.4879 C   0  0  0  0  0  0  0  0  0  0  0  0
   -6.4099    1.1868   -0.9641 C   0  0  0  0  0  0  0  0  0  0  0  0
   -5.2809    0.2057   -0.7299 C   0  0  0  0  0  0  0  0  0  0  0  0
   -4.3259    0.7830    0.2480 C   0  0  0  0  0  0  0  0  0  0  0  0
   -3.7362    2.1049   -0.2441 C   0  0  2  0  0  0  0  0  0  0  0  0
   -5.8983   -1.0347   -0.1206 C   0  0  0  0  0  0  0  0  0  0  0  0
   -4.9399   -1.8541    0.6745 C   0  0  0  0  0  0  0  0  0  0  0  0
   -3.5204   -1.6419    0.2228 C   0  0  1  0  0  0  0  0  0  0  0  0
   -3.1920   -0.1790    0.4441 C   0  0  0  0  0  0  0  0  0  0  0  0
   -2.6258   -2.3660    0.9599 O   0  0  0  0  0  0  0  0  0  0  0  0
   -1.4525   -2.7576    0.2949 C   0  0  0  0  0  0  0  0  0  0  0  0
   -1.0593   -4.0363    1.0048 C   0  0  0  0  0  0  0  0  0  0  0  0
    0.0839   -3.6841    1.9353 C   0  0  0  0  0  0  0  0  0  0  0  0
    1.2564   -3.4399    0.9690 C   0  0  0  0  0  0  0  0  0  0  0  0
    1.0210   -2.0683    0.3962 C   0  0  0  0  0  0  0  0  0  0  0  0
   -0.4167   -1.7260    0.2189 C   0  0  0  0  0  0  0  0  0  0  0  0
    1.8726   -1.7725   -0.8322 C   0  0  0  0  0  0  0  0  0  0  0  0
    3.2990   -1.4605   -0.5297 C   0  0  1  0  0  0  0  0  0  0  0  0
    4.2276   -2.4477   -1.0826 N   0  0  0  0  0  0  0  0  0  0  0  0
    5.5419   -2.2822   -0.5232 C   0  0  0  0  0  0  0  0  0  0  0  0
    5.6537   -1.1240    0.4296 C   0  0  0  0  0  0  0  0  0  0  0  0
    5.1298    0.1146   -0.2373 C   0  0  0  0  0  0  0  0  0  0  0  0
    3.8132   -0.1456   -0.9705 C   0  0  0  0  0  0  0  0  0  0  0  0
    4.9981    1.2850    0.7075 C   0  0  0  0  0  0  0  0  0  0  0  0
    4.8075    2.5100   -0.1837 C   0  0  0  0  0  0  0  0  0  0  0  0
    3.9181    2.1931   -1.3884 C   0  0  0  0  0  0  0  0  0  0  0  0
    2.9477    1.0459   -0.9920 C   0  0  2  0  0  0  0  0  0  0  0  0
    2.3727    1.4994    0.1308 O   0  0  0  0  0  0  0  0  0  0  0  0
    1.1058    1.9297    0.1454 C   0  0  0  0  0  0  0  0  0  0  0  0
    0.5855    2.7610   -0.9725 C   0  0  0  0  0  0  0  0  0  0  0  0
   -0.9492    2.6830   -0.8929 C   0  0  0  0  0  0  0  0  0  0  0  0
   -1.3867    2.5223    0.5224 C   0  0  0  0  0  0  0  0  0  0  0  0
   -0.4920    3.4651    1.3294 C   0  0  0  0  0  0  0  0  0  0  0  0
    0.8570    2.7200    1.4166 C   0  0  0  0  0  0  0  0  0  0  0  0
   -2.8517    2.7923    0.7066 C   0  0  0  0  0  0  0  0  0  0  0  0
   -5.3066   -3.1987    0.6414 O   0  0  0  0  0  0  0  0  0  0  0  0
   -5.5796   -3.6944    1.9242 C   0  0  0  0  0  0  0  0  0  0  0  0
   -2.1059   -4.6564    1.6378 O   0  0  0  0  0  0  0  0  0  0  0  0
    4.3667    3.5998    0.5146 O   0  0  0  0  0  0  0  0  0  0  0  0
    5.3316    4.6019    0.4484 C   0  0  0  0  0  0  0  0  0  0  0  0
    4.6479    1.8580   -2.5027 O   0  0  0  0  0  0  0  0  0  0  0  0
   -5.4692    3.5249    0.6539 C   0  0  0  0  0  0  0  0  0  0  0  0
    3.8555   -3.8158   -0.8542 C   0  0  0  0  0  0  0  0  0  0  0  0
    4.3531   -2.3111   -2.5379 C   0  0  0  0  0  0  0  0  0  0  0  0
   -4.5045    2.9158   -2.6813 H   0  0  0  0  0  0  0  0  0  0  0  0
   -6.0845    3.4802   -2.0610 H   0  0  0  0  0  0  0  0  0  0  0  0
   -6.8177    1.3559   -1.3862 H   0  0  0  0  0  0  0  0  0  0  0  0
   -5.9620    1.0735   -2.9172 H   0  0  0  0  0  0  0  0  0  0  0  0
   -4.0455    0.1430   -1.8757 H   0  0  0  0  0  0  0  0  0  0  0  0
   -5.2047    1.0756    0.7588 H   0  0  0  0  0  0  0  0  0  0  0  0
   -3.0067    2.0728   -1.1489 H   0  0  0  0  0  0  0  0  0  0  0  0
   -5.9423   -1.3509   -1.9060 H   0  0  0  0  0  0  0  0  0  0  0  0
   -6.6367   -0.6071   -0.4543 H   0  0  0  0  0  0  0  0  0  0  0  0
   -5.2564   -1.5883    1.0202 H   0  0  0  0  0  0  0  0  0  0  0  0
   -3.0183   -1.3971   -1.0375 H   0  0  0  0  0  0  0  0  0  0  0  0
   -3.6333   -0.2027    1.7368 H   0  0  0  0  0  0  0  0  0  0  0  0
   -2.3591    0.2951    0.5041 H   0  0  0  0  0  0  0  0  0  0  0  0
   -1.6441   -2.7396   -0.8469 H   0  0  0  0  0  0  0  0  0  0  0  0
   -0.9449   -4.7862   -0.0538 H   0  0  0  0  0  0  0  0  0  0  0  0
   -0.3962   -3.2649    2.5234 H   0  0  0  0  0  0  0  0  0  0  0  0
   -0.0589   -5.0654    2.2918 H   0  0  0  0  0  0  0  0  0  0  0  0
    1.1270   -4.2241    0.0859 H   0  0  0  0  0  0  0  0  0  0  0  0
    2.0152   -3.8655    1.6147 H   0  0  0  0  0  0  0  0  0  0  0  0
    1.4836   -1.6696    1.5479 H   0  0  0  0  0  0  0  0  0  0  0  0
   -0.4110   -0.9076   -0.1581 H   0  0  0  0  0  0  0  0  0  0  0  0
   -0.7255   -1.2340    1.5847 H   0  0  0  0  0  0  0  0  0  0  0  0
    1.6653   -2.7849   -1.1675 H   0  0  0  0  0  0  0  0  0  0  0  0
    1.3486   -1.0556   -1.0826 H   0  0  0  0  0  0  0  0  0  0  0  0
    3.3731   -2.2860    0.7701 H   0  0  0  0  0  0  0  0  0  0  0  0
    6.1448   -1.8473   -1.4352 H   0  0  0  0  0  0  0  0  0  0  0  0
    5.9490   -3.2249   -0.3419 H   0  0  0  0  0  0  0  0  0  0  0  0
    6.7824   -1.2076    0.6884 H   0  0  0  0  0  0  0  0  0  0  0  0
    5.3072   -1.7777    1.5080 H   0  0  0  0  0  0  0  0  0  0  0  0
    5.4056    0.1512   -0.8653 H   0  0  0  0  0  0  0  0  0  0  0  0
    3.2057   -0.1186    1.2720 H   0  0  0  0  0  0  0  0  0  0  0  0
    4.6045    1.1562    1.8600 H   0  0  0  0  0  0  0  0  0  0  0  0
    6.3381    1.2280    1.3500 H   0  0  0  0  0  0  0  0  0  0  0  0
    5.8773    2.4986   -0.4844 H   0  0  0  0  0  0  0  0  0  0  0  0
    3.1509    2.9293   -0.8364 H   0  0  0  0  0  0  0  0  0  0  0  0
    2.7772    0.3716   -1.6154 H   0  0  0  0  0  0  0  0  0  0  0  0
    2.1287    2.8337    0.8611 H   0  0  0  0  0  0  0  0  0  0  0  0
    0.8984    1.7948    2.4231 H   0  0  0  0  0  0  0  0  0  0  0  0
   -0.2472    1.0840    1.2753 H   0  0  0  0  0  0  0  0  0  0  0  0
    0.2065    4.0761    1.7244 H   0  0  0  0  0  0  0  0  0  0  0  0
   -1.0534    3.2008    2.6294 H   0  0  0  0  0  0  0  0  0  0  0  0
   -1.6482    4.4577    0.3995 H   0  0  0  0  0  0  0  0  0  0  0  0
   -1.2899    3.2800   -1.6221 H   0  0  0  0  0  0  0  0  0  0  0  0
   -0.9272    1.7135   -0.7894 H   0  0  0  0  0  0  0  0  0  0  0  0
    0.9394    2.9562   -1.7023 H   0  0  0  0  0  0  0  0  0  0  0  0
    0.7081    4.2197   -0.3958 H   0  0  0  0  0  0  0  0  0  0  0  0
   -3.4335    3.5272    1.4946 H   0  0  0  0  0  0  0  0  0  0  0  0
   -2.6429    1.9536    1.6512 H   0  0  0  0  0  0  0  0  0  0  0  0
   -5.8200   -4.8560    0.5245 H   0  0  0  0  0  0  0  0  0  0  0  0
   -6.6676   -3.3588    1.1145 H   0  0  0  0  0  0  0  0  0  0  0  0
   -4.9602   -3.7406    1.6518 H   0  0  0  0  0  0  0  0  0  0  0  0
   -2.5563   -4.2800    2.2606 H   0  0  0  0  0  0  0  0  0  0  0  0
    5.7350    4.6843   -0.3210 H   0  0  0  0  0  0  0  0  0  0  0  0
    6.7557    3.9560    1.0275 H   0  0  0  0  0  0  0  0  0  0  0  0
    5.5235    5.2407    1.3661 H   0  0  0  0  0  0  0  0  0  0  0  0
    5.0317    2.7337   -2.1857 H   0  0  0  0  0  0  0  0  0  0  0  0
   -5.3889    2.9941    1.4060 H   0  0  0  0  0  0  0  0  0  0  0  0
   -5.8928    4.4089    0.4652 H   0  0  0  0  0  0  0  0  0  0  0  0
   -6.6494    2.8562    0.0725 H   0  0  0  0  0  0  0  0  0  0  0  0
    3.6601   -4.1723   -0.1083 H   0  0  0  0  0  0  0  0  0  0  0  0
    4.7606   -4.2899   -1.4717 H   0  0  0  0  0  0  0  0  0  0  0  0
    3.0776   -4.0232   -1.8739 H   0  0  0  0  0  0  0  0  0  0  0  0
    2.9368   -1.8020   -2.7169 H   0  0  0  0  0  0  0  0  0  0  0  0
    4.6251   -1.0587   -2.7653 H   0  0  0  0  0  0  0  0  0  0  0  0
    4.3669   -2.7636   -3.1142 H   0  0  0  0  0  0  0  0  0  0  0  0
   -6.6612    3.2313   -1.3602 H   0  0  0  0  0  0  0  0  0  0  0  0
   -6.8076    2.1257    0.0175 H   0  0  0  0  0  0  0  0  0  0  0  0
   -5.4039    1.7260   -2.6310 H   0  0  0  0  0  0  0  0  0  0  0  0
   -6.7401    0.7949   -1.8770 H   0  0  0  0  0  0  0  0  0  0  0  0
   -3.9999    0.1778   -1.7507 H   0  0  0  0  0  0  0  0  0  0  0  0
   -4.9140    0.9365    1.0464 H   0  0  0  0  0  0  0  0  0  0  0  0
   -3.3951    2.3107   -1.2462 H   0  0  0  0  0  0  0  0  0  0  0  0
   -6.0246   -1.3729   -1.5046 H   0  0  0  0  0  0  0  0  0  0  0  0
   -6.1170   -0.8596    0.2114 H   0  0  0  0  0  0  0  0  0  0  0  0
   -3.7393   -2.0868   -1.2282 H   0  0  0  0  0  0  0  0  0  0  0  0
   -4.3681   -1.1307    1.6327 H   0  0  0  0  0  0  0  0  0  0  0  0
   -2.3636    0.3000    1.2784 H   0  0  0  0  0  0  0  0  0  0  0  0
   -2.5521   -0.1574   -0.5200 H   0  0  0  0  0  0  0  0  0  0  0  0
   -1.7445   -2.4484   -0.3468 H   0  0  0  0  0  0  0  0  0  0  0  0
   -0.8802   -4.4967    0.2069 H   0  0  0  0  0  0  0  0  0  0  0  0
   -0.4274   -3.0722    2.8884 H   0  0  0  0  0  0  0  0  0  0  0  0
   -0.0421   -4.8698    2.6648 H   0  0  0  0  0  0  0  0  0  0  0  0
    1.1479   -4.1762    0.5817 H   0  0  0  0  0  0  0  0  0  0  0  0
    1.9656   -3.7036    2.0941 H   0  0  0  0  0  0  0  0  0  0  0  0
    1.5945   -1.4428    1.6771 H   0  0  0  0  0  0  0  0  0  0  0  0
   -0.4025   -0.6499    0.3351 H   0  0  0  0  0  0  0  0  0  0  0  0
   -0.5790   -1.1077    2.0462 H   0  0  0  0  0  0  0  0  0  0  0  0
    1.4412   -2.7846   -0.9514 H   0  0  0  0  0  0  0  0  0  0  0  0
    1.1623   -1.0466   -0.9476 H   0  0  0  0  0  0  0  0  0  0  0  0
    3.3650   -2.3427    0.6945 H   0  0  0  0  0  0  0  0  0  0  0  0
    5.8814   -1.9377   -1.8481 H   0  0  0  0  0  0  0  0  0  0  0  0
    5.7508   -3.3546   -0.7879 H   0  0  0  0  0  0  0  0  0  0  0  0
    6.7742   -1.4256    0.2348 H   0  0  0  0  0  0  0  0  0  0  0  0
    5.3082   -1.9249    1.1538 H   0  0  0  0  0  0  0  0  0  0  0  0
    5.2857    0.0353   -1.1912 H   0  0  0  0  0  0  0  0  0  0  0  0
    3.4126   -0.1911    1.2502 H   0  0  0  0  0  0  0  0  0  0  0  0
    4.9926    0.9261    1.6762 H   0  0  0  0  0  0  0  0  0  0  0  0
    6.5690    1.0443    0.8655 H   0  0  0  0  0  0  0  0  0  0  0  0
    5.7964    2.6159   -0.6366 H   0  0  0  0  0  0  0  0  0  0  0  0
    3.1765    2.9004   -0.9517 H   0  0  0  0  0  0  0  0  0  0  0  0
    2.4657    0.4167   -1.4810 H   0  0  0  0  0  0  0  0  0  0  0  0
    2.0148    3.1918    0.6568 H   0  0  0  0  0  0  0  0  0  0  0  0
    0.8438    2.3703    2.3869 H   0  0  0  0  0  0  0  0  0  0  0  0
   -0.3298    1.4869    1.4173 H   0  0  0  0  0  0  0  0  0  0  0  0
    0.2241    4.4781    1.0039 H   0  0  0  0  0  0  0  0  0  0  0  0
   -1.0079    4.0141    2.2041 H   0  0  0  0  0  0  0  0  0  0  0  0
   -1.6608    4.5120   -0.2748 H   0  0  0  0  0  0  0  0  0  0  0  0
   -1.2372    3.0123   -1.9042 H   0  0  0  0  0  0  0  0  0  0  0  0
   -0.9883    1.5913   -0.8760 H   0  0  0  0  0  0  0  0  0  0  0  0
    1.0102    2.4467   -1.8606 H   0  0  0  0  0  0  0  0  0  0  0  0
    0.7596    4.0218   -1.0524 H   0  0  0  0  0  0  0  0  0  0  0  0
   -3.2349    3.8557    1.2605 H   0  0  0  0  0  0  0  0  0  0  0  0
   -2.5996    2.2642    1.6045 H   0  0  0  0  0  0  0  0  0  0  0  0
   -5.0730   -3.9177   -1.7992 H   0  0  0  0  0  0  0  0  0  0  0  0
   -3.6303   -4.3733   -0.7529 H   0  0  0  0  0  0  0  0  0  0  0  0
   -5.2938   -5.0305   -0.4221 H   0  0  0  0  0  0  0  0  0  0  0  0
   -2.4516   -4.3146    2.6039 H   0  0  0  0  0  0  0  0  0  0  0  0
    5.4929    4.7570   -0.0886 H   0  0  0  0  0  0  0  0  0  0  0  0
    6.6568    3.9235    1.0852 H   0  0  0  0  0  0  0  0  0  0  0  0
    5.3456    4.9562    1.6804 H   0  0  0  0  0  0  0  0  0  0  0  0
    3.6389    2.2006   -2.8741 H   0  0  0  0  0  0  0  0  0  0  0  0
   -4.8575    2.8195    1.9293 H   0  0  0  0  0  0  0  0  0  0  0  0
   -5.1402    4.5680    1.3824 H   0  0  0  0  0  0  0  0  0  0  0  0
   -6.4377    3.3653    1.3469 H   0  0  0  0  0  0  0  0  0  0  0  0
    3.3923   -4.1480   -0.1711 H   0  0  0  0  0  0  0  0  0  0  0  0
    4.3775   -4.4070   -1.6036 H   0  0  0  0  0  0  0  0  0  0  0  0
    2.6853   -4.0367   -1.8888 H   0  0  0  0  0  0  0  0  0  0  0  0
    2.4967   -1.7358   -2.6835 H   0  0  0  0  0  0  0  0  0  0  0  0
    4.2101   -1.1263   -2.9812 H   0  0  0  0  0  0  0  0  0  0  0  0
    3.7748   -2.8096   -3.2727 H   0  0  0  0  0  0  0  0  0  0  0  0
   -5.6452    3.4151   -1.2413 H   0  0  0  0  0  0  0  0  0  0  0  0
   -6.9891    2.9128   -0.1852 H   0  0  0  0  0  0  0  0  0  0  0  0
   -7.2276    0.9936   -1.3940 H   0  0  0  0  0  0  0  0  0  0  0  0
   -6.1243    1.6621   -2.6112 H   0  0  0  0  0  0  0  0  0  0  0  0
   -5.2211   -0.3647   -2.1821 H   0  0  0  0  0  0  0  0  0  0  0  0
   -3.4063    0.9210   -1.9005 H   0  0  0  0  0  0  0  0  0  0  0  0
   -3.7583    2.9077   -0.9484 H   0  0  0  0  0  0  0  0  0  0  0  0
   -6.8413   -0.9503   -0.5193 H   0  0  0  0  0  0  0  0  0  0  0  0
   -5.7702   -0.3020    0.8318 H   0  0  0  0  0  0  0  0  0  0  0  0
   -4.6832   -2.2772   -1.2546 H   0  0  0  0  0  0  0  0  0  0  0  0
   -4.1387   -1.0560    1.4705 H   0  0  0  0  0  0  0  0  0  0  0  0
   -2.4775    0.1381    0.5587 H   0  0  0  0  0  0  0  0  0  0  0  0
   -2.4170   -0.8524   -1.0147 H   0  0  0  0  0  0  0  0  0  0  0  0
   -1.4617   -2.6237   -0.6960 H   0  0  0  0  0  0  0  0  0  0  0  0
   -0.4817   -4.4393    0.2069 H   0  0  0  0  0  0  0  0  0  0  0  0
   -0.7943   -2.9199    2.8433 H   0  0  0  0  0  0  0  0  0  0  0  0
   -0.2840   -4.6939    2.7089 H   0  0  0  0  0  0  0  0  0  0  0  0
    1.3247   -4.1786    1.0627 H   0  0  0  0  0  0  0  0  0  0  0  0
    1.7081   -3.3767    2.6070 H   0  0  0  0  0  0  0  0  0  0  0  0
    1.3352   -1.2808    1.8362 H   0  0  0  0  0  0  0  0  0  0  0  0
   -0.3181   -0.7229    0.0928 H   0  0  0  0  0  0  0  0  0  0  0  0
   -0.8534   -1.0910    1.8143 H   0  0  0  0  0  0  0  0  0  0  0  0
    1.7218   -2.6004   -0.8126 H   0  0  0  0  0  0  0  0  0  0  0  0
    1.2565   -0.9168   -0.6803 H   0  0  0  0  0  0  0  0  0  0  0  0
    3.3533   -1.9145    1.1993 H   0  0  0  0  0  0  0  0  0  0  0  0
    6.1476   -2.0613   -0.9604 H   0  0  0  0  0  0  0  0  0  0  0  0
    5.8161   -3.1532    0.4850 H   0  0  0  0  0  0  0  0  0  0  0  0
    6.7959   -0.9624    0.9494 H   0  0  0  0  0  0  0  0  0  0  0  0
    5.1886   -1.2661    1.8151 H   0  0  0  0  0  0  0  0  0  0  0  0
    5.4820   -0.0677   -0.9612 H   0  0  0  0  0  0  0  0  0  0  0  0
    3.4916    0.2810    1.3173 H   0  0  0  0  0  0  0  0  0  0  0  0
    4.9304    1.6998    1.3904 H   0  0  0  0  0  0  0  0  0  0  0  0
    6.6224    1.4438    0.7076 H   0  0  0  0  0  0  0  0  0  0  0  0
    6.0613    2.4128   -1.3632 H   0  0  0  0  0  0  0  0  0  0  0  0
    3.4941    2.6663   -1.8818 H   0  0  0  0  0  0  0  0  0  0  0  0
    2.2003    0.7800   -1.2257 H   0  0  0  0  0  0  0  0  0  0  0  0
    0.9564    1.1922    0.6024 H   0  0  0  0  0  0  0  0  0  0  0  0
    1.0102    2.2573   -1.9332 H   0  0  0  0  0  0  0  0  0  0  0  0
    0.5592    3.7368   -1.0857 H   0  0  0  0  0  0  0  0  0  0  0  0
   -0.9232    1.2121   -1.3278 H   0  0  0  0  0  0  0  0  0  0  0  0
   -1.4934    2.8948   -1.4828 H   0  0  0  0  0  0  0  0  0  0  0  0
   -0.8574    1.6349    1.2744 H   0  0  0  0  0  0  0  0  0  0  0  0
   -1.0696    3.8462    2.0083 H   0  0  0  0  0  0  0  0  0  0  0  0
   -0.7428    4.4529    0.3094 H   0  0  0  0  0  0  0  0  0  0  0  0
    1.4187    4.2042    1.0262 H   0  0  0  0  0  0  0  0  0  0  0  0
    1.0015    2.9425    2.3172 H   0  0  0  0  0  0  0  0  0  0  0  0
   -3.0166    3.3721    1.1840 H   0  0  0  0  0  0  0  0  0  0  0  0
   -3.0490    1.7062    1.7269 H   0  0  0  0  0  0  0  0  0  0  0  0
   -6.2391   -4.7917    0.6000 H   0  0  0  0  0  0  0  0  0  0  0  0
   -4.8112   -4.5587   -0.4885 H   0  0  0  0  0  0  0  0  0  0  0  0
   -6.4695   -3.9084   -0.9414 H   0  0  0  0  0  0  0  0  0  0  0  0
   -2.5392   -4.5202    2.0929 H   0  0  0  0  0  0  0  0  0  0  0  0
    6.7881    4.3644   -0.3926 H   0  0  0  0  0  0  0  0  0  0  0  0
    5.3747    5.5634   -0.3837 H   0  0  0  0  0  0  0  0  0  0  0  0
    5.6752    4.5101   -1.7773 H   0  0  0  0  0  0  0  0  0  0  0  0
    3.9490    1.3504   -3.4488 H   0  0  0  0  0  0  0  0  0  0  0  0
   -4.6635    3.0972    2.3426 H   0  0  0  0  0  0  0  0  0  0  0  0
   -4.8118    4.2841    0.9194 H   0  0  0  0  0  0  0  0  0  0  0  0
   -6.2190    3.4707    1.5986 H   0  0  0  0  0  0  0  0  0  0  0  0
    3.6553   -3.9925    0.6737 H   0  0  0  0  0  0  0  0  0  0  0  0
    4.6793   -4.3760   -0.6899 H   0  0  0  0  0  0  0  0  0  0  0  0
    2.9983   -4.1091   -1.0695 H   0  0  0  0  0  0  0  0  0  0  0  0
    3.7403   -3.0799   -2.5801 H   0  0  0  0  0  0  0  0  0  0  0  0
    3.2600   -1.4137   -2.3078 H   0  0  0  0  0  0  0  0  0  0  0  0
    5.0387   -1.9083   -2.4088 H   0  0  0  0  0  0  0  0  0  0  0  0
   -5.7718    3.4444   -1.1884 H   0  0  0  0  0  0  0  0  0  0  0  0
   -7.0689    2.4989   -0.3059 H   0  0  0  0  0  0  0  0  0  0  0  0
   -5.5859    1.7719   -2.7400 H   0  0  0  0  0  0  0  0  0  0  0  0
   -6.8297    0.8710   -1.8581 H   0  0  0  0  0  0  0  0  0  0  0  0
   -4.6994   -0.3255   -2.2058 H   0  0  0  0  0  0  0  0  0  0  0  0
   -2.9977    1.0995   -1.8321 H   0  0  0  0  0  0  0  0  0  0  0  0
   -3.8351    3.0667   -1.1037 H   0  0  0  0  0  0  0  0  0  0  0  0
   -6.4754   -0.6890   -0.2720 H   0  0  0  0  0  0  0  0  0  0  0  0
   -5.1391   -0.1058    0.8027 H   0  0  0  0  0  0  0  0  0  0  0  0
   -4.8399   -2.2113   -1.3182 H   0  0  0  0  0  0  0  0  0  0  0  0
   -2.6311   -1.8576   -1.1503 H   0  0  0  0  0  0  0  0  0  0  0  0
   -3.0798    0.1600    1.0547 H   0  0  0  0  0  0  0  0  0  0  0  0
   -1.7692    0.0533   -0.1659 H   0  0  0  0  0  0  0  0  0  0  0  0
   -1.1080   -2.5701   -0.4898 H   0  0  0  0  0  0  0  0  0  0  0  0
   -1.3201   -4.7741   -0.0181 H   0  0  0  0  0  0  0  0  0  0  0  0
   -0.2192   -4.3214    2.7957 H   0  0  0  0  0  0  0  0  0  0  0  0
   -0.0975   -5.6839    1.6788 H   0  0  0  0  0  0  0  0  0  0  0  0
    0.9925   -4.3724   -0.0143 H   0  0  0  0  0  0  0  0  0  0  0  0
    2.0041   -4.5077    1.4765 H   0  0  0  0  0  0  0  0  0  0  0  0
    1.7685   -2.2571    1.9221 H   0  0  0  0  0  0  0  0  0  0  0  0
   -0.2448   -0.9699    1.3912 H   0  0  0  0  0  0  0  0  0  0  0  0
   -0.4599   -2.3221    2.5053 H   0  0  0  0  0  0  0  0  0  0  0  0
    1.3536   -2.5592   -1.0055 H   0  0  0  0  0  0  0  0  0  0  0  0
    1.0263   -0.9823   -0.3170 H   0  0  0  0  0  0  0  0  0  0  0  0
    3.4475   -2.1837    0.8200 H   0  0  0  0  0  0  0  0  0  0  0  0
    5.8508   -1.6984   -1.6892 H   0  0  0  0  0  0  0  0  0  0  0  0
    5.7879   -3.1579   -0.6898 H   0  0  0  0  0  0  0  0  0  0  0  0
    6.7287   -1.1784    0.3595 H   0  0  0  0  0  0  0  0  0  0  0  0
    5.3873   -1.8168    1.3266 H   0  0  0  0  0  0  0  0  0  0  0  0
    5.2370    0.2163   -0.9658 H   0  0  0  0  0  0  0  0  0  0  0  0
    3.1800   -0.0108    1.3120 H   0  0  0  0  0  0  0  0  0  0  0  0
    4.7922    1.1203    1.8885 H   0  0  0  0  0  0  0  0  0  0  0  0
    6.4246    1.1277    1.1436 H   0  0  0  0  0  0  0  0  0  0  0  0
    5.8466    2.5856   -0.4832 H   0  0  0  0  0  0  0  0  0  0  0  0
    3.1992    3.0044   -0.8600 H   0  0  0  0  0  0  0  0  0  0  0  0
    2.6895    0.4637   -1.5797 H   0  0  0  0  0  0  0  0  0  0  0  0
    2.0801    3.0552    0.7641 H   0  0  0  0  0  0  0  0  0  0  0  0
    0.7679    2.1889    2.3482 H   0  0  0  0  0  0  0  0  0  0  0  0
   -0.3370    1.3860    1.2048 H   0  0  0  0  0  0  0  0  0  0  0  0
    0.1071    4.3898    1.3980 H   0  0  0  0  0  0  0  0  0  0  0  0
   -1.1322    3.5786    2.3824 H   0  0  0  0  0  0  0  0  0  0  0  0
   -1.7635    4.6195    0.0547 H   0  0  0  0  0  0  0  0  0  0  0  0
   -1.1548    3.6053   -1.8929 H   0  0  0  0  0  0  0  0  0  0  0  0
   -0.8813    2.0104   -1.1893 H   0  0  0  0  0  0  0  0  0  0  0  0
    1.0437    3.1714   -1.8214 H   0  0  0  0  0  0  0  0  0  0  0  0
    0.7865    4.4491   -0.5175 H   0  0  0  0  0  0  0  0  0  0  0  0
   -3.3396    3.5557    1.3160 H   0  0  0  0  0  0  0  0  0  0  0  0
   -2.4723    2.0505    1.4605 H   0  0  0  0  0  0  0  0  0  0  0  0
   -5.9106   -4.6647    0.6237 H   0  0  0  0  0  0  0  0  0  0  0  0
   -4.8232   -4.3433   -0.7525 H   0  0  0  0  0  0  0  0  0  0  0  0
   -6.4222   -3.5815   -0.6939 H   0  0  0  0  0  0  0  0  0  0  0  0
   -2.3905   -4.2166    2.5426 H   0  0  0  0  0  0  0  0  0  0  0  0
    5.6647    4.7469   -0.2207 H   0  0  0  0  0  0  0  0  0  0  0  0
    6.7467    3.9922    1.0684 H   0  0  0  0  0  0  0  0  0  0  0  0
    5.4576    5.2287    1.4784 H   0  0  0  0  0  0  0  0  0  0  0  0
    3.5961    2.0960   -2.8097 H   0  0  0  0  0  0  0  0  0  0  0  0
   -4.9161    2.8807    2.3790 H   0  0  0  0  0  0  0  0  0  0  0  0
   -5.2298    4.2298    1.1312 H   0  0  0  0  0  0  0  0  0  0  0  0
   -6.4498    3.0498    1.5539 H   0  0  0  0  0  0  0  0  0  0  0  0
    3.7112   -4.1291   -0.1406 H   0  0  0  0  0  0  0  0  0  0  0  0
    4.3932   -4.1581   -1.7529 H   0  0  0  0  0  0  0  0  0  0  0  0
    2.6631   -3.9262   -1.6712 H   0  0  0  0  0  0  0  0  0  0  0  0
    2.5632   -1.6569   -2.6915 H   0  0  0  0  0  0  0  0  0  0  0  0
    4.2592   -0.9422   -2.8065 H   0  0  0  0  0  0  0  0  0  0  0  0
    3.9550   -2.6366   -3.1559 H   0  0  0  0  0  0  0  0  0  0  0  0
   -5.1776    2.1603   -2.3807 H   0  0  0  0  0  0  0  0  0  0  0  0
   -6.4962    3.2267   -1.7608 H   0  0  0  0  0  0  0  0  0  0  0  0
   -6.9781    1.3712   -0.0279 H   0  0  0  0  0  0  0  0  0  0  0  0
   -7.0779    0.7822   -1.7362 H   0  0  0  0  0  0  0  0  0  0  0  0
   -4.8301   -0.0517   -1.7006 H   0  0  0  0  0  0  0  0  0  0  0  0
   -4.8650    0.9458    1.2075 H   0  0  0  0  0  0  0  0  0  0  0  0
   -3.2984    1.8772   -1.2381 H   0  0  0  0  0  0  0  0  0  0  0  0
   -6.7198   -0.7142    0.5843 H   0  0  0  0  0  0  0  0  0  0  0  0
   -6.3740   -1.6309   -0.9027 H   0  0  0  0  0  0  0  0  0  0  0  0
   -4.9694   -1.5407    1.7564 H   0  0  0  0  0  0  0  0  0  0  0  0
   -3.4651   -1.9214   -0.8429 H   0  0  0  0  0  0  0  0  0  0  0  0
   -2.8736   -0.0815    1.4792 H   0  0  0  0  0  0  0  0  0  0  0  0
   -2.4599    0.0410   -0.3451 H   0  0  0  0  0  0  0  0  0  0  0  0
   -1.7916   -3.0763   -0.7311 H   0  0  0  0  0  0  0  0  0  0  0  0
   -0.6475   -4.7763    0.2582 H   0  0  0  0  0  0  0  0  0  0  0  0
   -0.1804   -2.6976    2.4029 H   0  0  0  0  0  0  0  0  0  0  0  0
    0.3116   -4.4649    2.6577 H   0  0  0  0  0  0  0  0  0  0  0  0
    1.2206   -4.2627    0.2603 H   0  0  0  0  0  0  0  0  0  0  0  0
    2.1588   -3.4740    1.6413 H   0  0  0  0  0  0  0  0  0  0  0  0
    1.4661   -1.3793    1.1824 H   0  0  0  0  0  0  0  0  0  0  0  0
   -0.4845   -1.2385   -0.8013 H   0  0  0  0  0  0  0  0  0  0  0  0
   -0.6992   -0.9190    0.9605 H   0  0  0  0  0  0  0  0  0  0  0  0
    1.6962   -2.5692   -1.5522 H   0  0  0  0  0  0  0  0  0  0  0  0
    1.4258   -0.8456   -1.2928 H   0  0  0  0  0  0  0  0  0  0  0  0
    3.4105   -1.5343    0.5729 H   0  0  0  0  0  0  0  0  0  0  0  0
    5.9121   -3.1819    0.0239 H   0  0  0  0  0  0  0  0  0  0  0  0
    6.3246   -2.1046   -1.3189 H   0  0  0  0  0  0  0  0  0  0  0  0
    6.7629   -0.9728    0.5964 H   0  0  0  0  0  0  0  0  0  0  0  0
    5.2425   -1.3160    1.4307 H   0  0  0  0  0  0  0  0  0  0  0  0
    5.9426    0.4347   -0.9574 H   0  0  0  0  0  0  0  0  0  0  0  0
    4.1464   -0.2773   -2.0519 H   0  0  0  0  0  0  0  0  0  0  0  0
    4.2374    1.1712    1.4745 H   0  0  0  0  0  0  0  0  0  0  0  0
    5.9726    1.3593    1.2461 H   0  0  0  0  0  0  0  0  0  0  0  0
    5.8115    2.7063   -0.6182 H   0  0  0  0  0  0  0  0  0  0  0  0
    3.3465    3.1185   -1.5886 H   0  0  0  0  0  0  0  0  0  0  0  0
    2.2780    0.9748   -1.8853 H   0  0  0  0  0  0  0  0  0  0  0  0
    0.4914    0.9794    0.1162 H   0  0  0  0  0  0  0  0  0  0  0  0
    0.8197    2.4251   -1.9770 H   0  0  0  0  0  0  0  0  0  0  0  0
    0.8375    3.8269   -0.7906 H   0  0  0  0  0  0  0  0  0  0  0  0
   -1.2764    1.7912   -1.4653 H   0  0  0  0  0  0  0  0  0  0  0  0
   -1.4047    3.6115   -1.2860 H   0  0  0  0  0  0  0  0  0  0  0  0
   -1.2080    1.5492    0.9928 H   0  0  0  0  0  0  0  0  0  0  0  0
   -0.9028    3.5646    2.3524 H   0  0  0  0  0  0  0  0  0  0  0  0
   -0.3584    4.4245    0.8313 H   0  0  0  0  0  0  0  0  0  0  0  0
    1.6423    3.4742    1.5039 H   0  0  0  0  0  0  0  0  0  0  0  0
    0.8267    1.9883    2.2416 H   0  0  0  0  0  0  0  0  0  0  0  0
   -2.9874    3.9002    0.6542 H   0  0  0  0  0  0  0  0  0  0  0  0
   -3.1159    2.5033    1.7482 H   0  0  0  0  0  0  0  0  0  0  0  0
   -5.8588   -4.7610    1.7886 H   0  0  0  0  0  0  0  0  0  0  0  0
   -4.6601   -3.7043    2.5509 H   0  0  0  0  0  0  0  0  0  0  0  0
   -6.3788   -3.1310    2.4362 H   0  0  0  0  0  0  0  0  0  0  0  0
   -2.0523   -4.3924    2.6102 H   0  0  0  0  0  0  0  0  0  0  0  0
    6.2974    4.2697    0.8827 H   0  0  0  0  0  0  0  0  0  0  0  0
    5.5526    4.9068   -0.5942 H   0  0  0  0  0  0  0  0  0  0  0  0
    5.0318    5.5151    1.0028 H   0  0  0  0  0  0  0  0  0  0  0  0
    4.0563    1.4515   -3.1583 H   0  0  0  0  0  0  0  0  0  0  0  0
   -5.2739    2.9731    1.5735 H   0  0  0  0  0  0  0  0  0  0  0  0
   -5.0508    4.5630    0.8037 H   0  0  0  0  0  0  0  0  0  0  0  0
   -6.5625    3.6748    0.5458 H   0  0  0  0  0  0  0  0  0  0  0  0
    3.9541   -4.1340    0.2067 H   0  0  0  0  0  0  0  0  0  0  0  0
    4.6882   -4.3999   -1.3612 H   0  0  0  0  0  0  0  0  0  0  0  0
    2.9572   -4.1512   -1.3669 H   0  0  0  0  0  0  0  0  0  0  0  0
    3.4464   -1.9211   -3.0116 H   0  0  0  0  0  0  0  0  0  0  0  0
    5.2925   -1.7630   -2.8156 H   0  0  0  0  0  0  0  0  0  0  0  0
    4.5112   -3.3233   -3.0203 H   0  0  0  0  0  0  0  0  0  0  0  0
  1  2  1  0
  2  3  1  0
  3  4  1  0
  4  5  1  0
  1  6  1  0
  5  6  1  0
  4  7  1  0
  7  8  1  0
  8  9  1  0
  5 10  1  0
  9 10  1  0
  9 11  1  0
 11 12  1  0
 12 13  1  0
 13 14  1  0
 14 15  1  0
 15 16  1  0
 12 17  1  0
 16 17  1  0
 16 18  1  0
 18 19  1  0
 19 20  1  0
 20 21  1  0
 21 22  1  0
 22 23  1  0
 19 24  1  0
 23 24  1  0
 23 25  1  0
 25 26  1  0
 26 27  1  0
 24 28  1  0
 27 28  1  0
 28 29  1  0
 29 30  1  0
 30 31  1  0
 31 32  1  0
 32 33  1  0
 33 34  1  0
 30 35  1  0
 34 35  1  0
  6 36  1  0
 33 36  1  0
  8 37  1  0
 37 38  1  0
 13 39  1  0
 26 40  1  0
 40 41  1  0
 27 42  1  0
  1 43  1  0
 20 44  1  0
 20 45  1  0
 46 47  1  0
 47 48  1  0
 48 49  1  0
 49 50  1  0
 46 51  1  0
 50 51  1  0
 49 52  1  0
 52 53  1  0
 53 54  1  0
 50 55  1  0
 54 55  1  0
 54 56  1  0
 56 57  1  0
 57 58  1  0
 58 59  1  0
 59 60  1  0
 60 61  1  0
 57 62  1  0
 61 62  1  0
 61 63  1  0
 63 64  1  0
 64 65  1  0
 65 66  1  0
 66 67  1  0
 67 68  1  0
 64 69  1  0
 68 69  1  0
 68 70  1  0
 70 71  1  0
 71 72  1  0
 69 73  1  0
 72 73  1  0
 73 74  1  0
 74 75  1  0
 75 76  1  0
 76 77  1  0
 77 78  1  0
 78 79  1  0
 75 80  1  0
 79 80  1  0
 51 81  1  0
 78 81  1  0
 53 82  1  0
 82 83  1  0
 58 84  1  0
 71 85  1  0
 85 86  1  0
 72 87  1  0
 46 88  1  0
 65 89  1  0
 65 90  1  0
 91 92  1  0
 92 93  1  0
 93 94  1  0
 94 95  1  0
 91 96  1  0
 95 96  1  0
 94 97  1  0
 97 98  1  0
 98 99  1  0
 95100  1  0
 99100  1  0
 99101  1  0
101102  1  0
102103  1  0
103104  1  0
104105  1  0
105106  1  0
102107  1  0
106107  1  0
106108  1  0
108109  1  0
109110  1  0
110111  1  0
111112  1  0
112113  1  0
109114  1  0
113114  1  0
113115  1  0
115116  1  0
116117  1  0
114118  1  0
117118  1  0
118119  1  0
119120  1  0
120121  1  0
121122  1  0
122123  1  0
123124  1  0
120125  1  0
124125  1  0
 96126  1  0
123126  1  0
 98127  1  0
127128  1  0
103129  1  0
116130  1  0
130131  1  0
117132  1  0
 91133  1  0
110134  1  0
110135  1  0
136137  1  0
137138  1  0
138139  1  0
139140  1  0
136141  1  0
140141  1  0
139142  1  0
142143  1  0
143144  1  0
140145  1  0
144145  1  0
144146  1  0
146147  1  0
147148  1  0
148149  1  0
149150  1  0
150151  1  0
147152  1  0
151152  1  0
151153  1  0
153154  1  0
154155  1  0
155156  1  0
156157  1  0
157158  1  0
154159  1  0
158159  1  0
158160  1  0
160161  1  0
161162  1  0
159163  1  0
162163  1  0
163164  1  0
164165  1  0
165166  1  0
166167  1  0
167168  1  0
168169  1  0
165170  1  0
169170  1  0
141171  1  0
168171  1  0
143172  1  0
172173  1  0
148174  1  0
161175  1  0
175176  1  0
162177  1  0
136178  1  0
155179  1  0
155180  1  0
181182  1  0
182183  1  0
183184  1  0
184185  1  0
181186  1  0
185186  1  0
184187  1  0
187188  1  0
188189  1  0
185190  1  0
189190  1  0
189191  1  0
191192  1  0
192193  1  0
193194  1  0
194195  1  0
195196  1  0
192197  1  0
196197  1  0
196198  1  0
198199  1  0
199200  1  0
200201  1  0
201202  1  0
202203  1  0
199204  1  0
203204  1  0
203205  1  0
205206  1  0
206207  1  0
204208  1  0
207208  1  0
208209  1  0
209210  1  0
210211  1  0
211212  1  0
212213  1  0
213214  1  0
210215  1  0
214215  1  0
186216  1  0
213216  1  0
188217  1  0
217218  1  0
193219  1  0
206220  1  0
220221  1  0
207222  1  0
181223  1  0
200224  1  0
200225  1  0
  2226  1  0
  2227  1  0
  3228  1  0
  3229  1  0
  4230  1  0
  5231  1  0
  6232  1  6
  7233  1  0
  7234  1  0
  8235  1  0
  9236  1  6
 10237  1  0
 10238  1  0
 12239  1  6
 13240  1  0
 14241  1  0
 14242  1  0
 15243  1  0
 15244  1  0
 16245  1  1
 17246  1  0
 17247  1  0
 18248  1  0
 18249  1  0
 19250  1  1
 21251  1  0
 21252  1  0
 22253  1  0
 22254  1  0
 23255  1  0
 24256  1  1
 25257  1  0
 25258  1  0
 26259  1  0
 27260  1  6
 28261  1  6
 30262  1  0
 31263  1  0
 31264  1  0
 32265  1  0
 32266  1  0
 33267  1  0
 34268  1  0
 34269  1  0
 35270  1  0
 35271  1  0
 36272  1  0
 36273  1  0
 38274  1  0
 38275  1  0
 38276  1  0
 39277  1  0
 41278  1  0
 41279  1  0
 41280  1  0
 42281  1  0
 43282  1  0
 43283  1  0
 43284  1  0
 44285  1  0
 44286  1  0
 44287  1  0
 45288  1  0
 45289  1  0
 45290  1  0
 47291  1  0
 47292  1  0
 48293  1  0
 48294  1  0
 49295  1  0
 50296  1  1
 51297  1  6
 52298  1  0
 52299  1  0
 53300  1  0
 54301  1  0
 55302  1  0
 55303  1  0
 57304  1  0
 58305  1  0
 59306  1  0
 59307  1  0
 60308  1  0
 60309  1  0
 61310  1  0
 62311  1  0
 62312  1  0
 63313  1  0
 63314  1  0
 64315  1  1
 66316  1  0
 66317  1  0
 67318  1  0
 67319  1  0
 68320  1  0
 69321  1  1
 70322  1  0
 70323  1  0
 71324  1  0
 72325  1  0
 73326  1  6
 75327  1  0
 76328  1  0
 76329  1  0
 77330  1  0
 77331  1  0
 78332  1  0
 79333  1  0
 79334  1  0
 80335  1  0
 80336  1  0
 81337  1  0
 81338  1  0
 83339  1  0
 83340  1  0
 83341  1  0
 84342  1  0
 86343  1  0
 86344  1  0
 86345  1  0
 87346  1  0
 88347  1  0
 88348  1  0
 88349  1  0
 89350  1  0
 89351  1  0
 89352  1  0
 90353  1  0
 90354  1  0
 90355  1  0
 92356  1  0
 92357  1  0
 93358  1  0
 93359  1  0
 94360  1  0
 95361  1  0
 96362  1  6
 97363  1  0
 97364  1  0
 98365  1  0
 99366  1  0
100367  1  0
100368  1  0
102369  1  0
103370  1  0
104371  1  0
104372  1  0
105373  1  0
105374  1  0
106375  1  1
107376  1  0
107377  1  0
108378  1  0
108379  1  0
109380  1  1
111381  1  0
111382  1  0
112383  1  0
112384  1  0
113385  1  0
114386  1  1
115387  1  0
115388  1  0
116389  1  0
117390  1  0
118391  1  6
120392  1  0
121393  1  0
121394  1  0
122395  1  0
122396  1  0
123397  1  0
124398  1  0
124399  1  0
125400  1  0
125401  1  0
126402  1  0
126403  1  0
128404  1  0
128405  1  0
128406  1  0
129407  1  0
131408  1  0
131409  1  0
131410  1  0
132411  1  0
133412  1  0
133413  1  0
133414  1  0
134415  1  0
134416  1  0
134417  1  0
135418  1  0
135419  1  0
135420  1  0
137421  1  0
137422  1  0
138423  1  0
138424  1  0
139425  1  0
140426  1  0
141427  1  6
142428  1  0
142429  1  0
143430  1  6
144431  1  6
145432  1  0
145433  1  0
147434  1  6
148435  1  0
149436  1  0
149437  1  0
150438  1  0
150439  1  0
151440  1  0
152441  1  0
152442  1  0
153443  1  0
153444  1  0
154445  1  1
156446  1  0
156447  1  0
157448  1  0
157449  1  0
158450  1  0
159451  1  1
160452  1  0
160453  1  0
161454  1  0
162455  1  0
163456  1  6
165457  1  0
166458  1  0
166459  1  0
167460  1  0
167461  1  0
168462  1  0
169463  1  0
169464  1  0
170465  1  0
170466  1  0
171467  1  0
171468  1  0
173469  1  0
173470  1  0
173471  1  0
174472  1  0
176473  1  0
176474  1  0
176475  1  0
177476  1  0
178477  1  0
178478  1  0
178479  1  0
179480  1  0
179481  1  0
179482  1  0
180483  1  0
180484  1  0
180485  1  0
182486  1  0
182487  1  0
183488  1  0
183489  1  0
184490  1  0
185491  1  0
186492  1  6
187493  1  0
187494  1  0
188495  1  0
189496  1  6
190497  1  0
190498  1  0
192499  1  0
193500  1  0
194501  1  0
194502  1  0
195503  1  0
195504  1  0
196505  1  0
197506  1  0
197507  1  0
198508  1  0
198509  1  0
199510  1  1
201511  1  0
201512  1  0
202513  1  0
202514  1  0
203515  1  0
204516  1  0
205517  1  0
205518  1  0
206519  1  0
207520  1  0
208521  1  6
210522  1  0
211523  1  0
211524  1  0
212525  1  0
212526  1  0
213527  1  0
214528  1  0
214529  1  0
215530  1  0
215531  1  0
216532  1  0
216533  1  0
218534  1  0
218535  1  0
218536  1  0
219537  1  0
221538  1  0
221539  1  0
221540  1  0
222541  1  0
223542  1  0
223543  1  0
223544  1  0
224545  1  0
224546  1  0
224547  1  0
225548  1  0
225549  1  0
225550  1  0
M  CHG  5  20   1  65   1 110   1 155   1 200   1
M  END
>  <PDBID>  (1) 
2XYT

>  <PDB ID>  (1) 
2XYT

>  <Generic Name>  (1) 
Tubocurarine

>  <Brand Name>  (1) 
Tubocurarine Chloride Inj 3mg/ml#Tubocurarine Chloride Inj 3mg/ml USP#Tubarine

>  <DrugBank ID>  (1) 
DB01199

>  <ATC Codes>  (1) 
M03AA02

>  <Ligand ID>  (1) 
TC9,TUB

>  <Target Name>  (1) 
Neuronal acetylcholine receptor subunit alpha-2

>  <UniProt ID>  (1) 
Q15822

>  <PDB ID.1>  (1) 
2XYT

>  <Seq. Identity>  (1) 
31%

$$$$
