PDB_DB00317_01
     RDKit          3D

 71 74  0  0  0  0  0  0  0  0999 V2000
    5.8823    0.2329    2.6729 C   0  0  0  0  0  0  0  0  0  0  0  0
    7.3305   -0.1639    2.4602 C   0  0  0  0  0  0  0  0  0  0  0  0
    7.3939   -0.9350    1.3084 O   0  0  0  0  0  0  0  0  0  0  0  0
    7.1134   -0.1635    0.2020 C   0  0  0  0  0  0  0  0  0  0  0  0
    6.5175    1.1755    0.5594 C   0  0  0  0  0  0  0  0  0  0  0  0
    5.4731    1.0401    1.5430 N   0  0  0  0  0  0  0  0  0  0  0  0
    4.2887    0.4267    0.9612 C   0  0  0  0  0  0  0  0  0  0  0  0
    3.1530    0.5866    1.9497 C   0  0  0  0  0  0  0  0  0  0  0  0
    1.8992   -0.0590    1.4085 C   0  0  0  0  0  0  0  0  0  0  0  0
    1.5465    0.5339    0.2343 O   0  0  0  0  0  0  0  0  0  0  0  0
    0.4249    0.0636   -0.3808 C   0  0  0  0  0  0  0  0  0  0  0  0
    0.8040   -0.5549   -1.6793 C   0  0  0  0  0  0  0  0  0  0  0  0
   -0.3589   -0.9679   -2.5463 C   0  0  0  0  0  0  0  0  0  0  0  0
    1.7314    0.2112   -2.3575 O   0  0  0  0  0  0  0  0  0  0  0  0
    2.9447   -0.4061   -2.5546 C   0  0  0  0  0  0  0  0  0  0  0  0
   -0.7465    1.0127   -0.4584 C   0  0  0  0  0  0  0  0  0  0  0  0
   -1.8539    0.1906   -1.0784 C   0  0  0  0  0  0  0  0  0  0  0  0
   -1.4086    0.0920   -2.5509 C   0  0  0  0  0  0  0  0  0  0  0  0
   -2.5782   -0.1431   -3.3018 N   0  0  0  0  0  0  0  0  0  0  0  0
   -3.2787    1.1529   -3.3863 C   0  0  0  0  0  0  0  0  0  0  0  0
   -3.2739    1.8283   -2.0766 N   0  0  0  0  0  0  0  0  0  0  0  0
   -3.1977    0.7846   -1.0888 C   0  0  0  0  0  0  0  0  0  0  0  0
   -3.7406    1.1568    0.1820 N   0  0  0  0  0  0  0  0  0  0  0  0
   -3.9268    0.0802    1.0875 C   0  0  0  0  0  0  0  0  0  0  0  0
   -4.6373    0.5122    2.3260 C   0  0  0  0  0  0  0  0  0  0  0  0
   -6.1326    0.5821    2.1847 C   0  0  0  0  0  0  0  0  0  0  0  0
   -6.6853    2.1388    1.5193 Cl  0  0  0  0  0  0  0  0  0  0  0  0
   -6.7557   -0.5499    1.4458 C   0  0  0  0  0  0  0  0  0  0  0  0
   -8.0265   -0.1520    1.0364 F   0  0  0  0  0  0  0  0  0  0  0  0
   -6.0226   -0.9550    0.1872 C   0  0  0  0  0  0  0  0  0  0  0  0
   -4.5796   -1.1450    0.5436 C   0  0  0  0  0  0  0  0  0  0  0  0
    5.7203    0.8196    3.5883 H   0  0  0  0  0  0  0  0  0  0  0  0
    5.2809   -0.7094    2.7505 H   0  0  0  0  0  0  0  0  0  0  0  0
    7.6522   -0.7759    3.3447 H   0  0  0  0  0  0  0  0  0  0  0  0
    7.9564    0.7357    2.4052 H   0  0  0  0  0  0  0  0  0  0  0  0
    6.3894   -0.6605   -0.4916 H   0  0  0  0  0  0  0  0  0  0  0  0
    8.0512   -0.0177   -0.3643 H   0  0  0  0  0  0  0  0  0  0  0  0
    6.0373    1.5929   -0.3515 H   0  0  0  0  0  0  0  0  0  0  0  0
    7.2589    1.9092    0.8937 H   0  0  0  0  0  0  0  0  0  0  0  0
    4.0929    0.9993    0.0255 H   0  0  0  0  0  0  0  0  0  0  0  0
    4.4257   -0.6254    0.6775 H   0  0  0  0  0  0  0  0  0  0  0  0
    3.4680    0.1737    2.9190 H   0  0  0  0  0  0  0  0  0  0  0  0
    3.0203    1.6902    2.0697 H   0  0  0  0  0  0  0  0  0  0  0  0
    1.1245   -0.1563    2.1616 H   0  0  0  0  0  0  0  0  0  0  0  0
    2.2138   -1.1128    1.1442 H   0  0  0  0  0  0  0  0  0  0  0  0
    0.0410   -0.7731    0.2878 H   0  0  0  0  0  0  0  0  0  0  0  0
    1.3438   -1.5133   -1.4586 H   0  0  0  0  0  0  0  0  0  0  0  0
    0.0366   -1.2380   -3.5386 H   0  0  0  0  0  0  0  0  0  0  0  0
   -0.8142   -1.8873   -2.1251 H   0  0  0  0  0  0  0  0  0  0  0  0
    3.3542   -0.6453   -1.5506 H   0  0  0  0  0  0  0  0  0  0  0  0
    3.6866    0.2643   -3.0335 H   0  0  0  0  0  0  0  0  0  0  0  0
    2.8601   -1.3841   -3.0768 H   0  0  0  0  0  0  0  0  0  0  0  0
   -0.5742    1.8704   -1.1222 H   0  0  0  0  0  0  0  0  0  0  0  0
   -1.0461    1.2722    0.5689 H   0  0  0  0  0  0  0  0  0  0  0  0
   -1.8079   -0.8186   -0.6094 H   0  0  0  0  0  0  0  0  0  0  0  0
   -0.9941    1.0968   -2.8619 H   0  0  0  0  0  0  0  0  0  0  0  0
   -2.3267   -0.3913   -4.2845 H   0  0  0  0  0  0  0  0  0  0  0  0
   -2.6762    1.8262   -4.0516 H   0  0  0  0  0  0  0  0  0  0  0  0
   -4.2805    1.0660   -3.8098 H   0  0  0  0  0  0  0  0  0  0  0  0
   -4.1219    2.4241   -2.0034 H   0  0  0  0  0  0  0  0  0  0  0  0
   -3.8918   -0.0224   -1.4778 H   0  0  0  0  0  0  0  0  0  0  0  0
   -4.5285    1.8160    0.0842 H   0  0  0  0  0  0  0  0  0  0  0  0
   -2.8909   -0.2390    1.4158 H   0  0  0  0  0  0  0  0  0  0  0  0
   -4.3743   -0.1805    3.1718 H   0  0  0  0  0  0  0  0  0  0  0  0
   -4.2744    1.5126    2.6325 H   0  0  0  0  0  0  0  0  0  0  0  0
   -6.5412    0.5376    3.2389 H   0  0  0  0  0  0  0  0  0  0  0  0
   -6.9115   -1.4634    2.0578 H   0  0  0  0  0  0  0  0  0  0  0  0
   -6.4219   -1.9538   -0.1175 H   0  0  0  0  0  0  0  0  0  0  0  0
   -6.2092   -0.2072   -0.5790 H   0  0  0  0  0  0  0  0  0  0  0  0
   -4.0563   -1.6461   -0.2729 H   0  0  0  0  0  0  0  0  0  0  0  0
   -4.5720   -1.8973    1.3910 H   0  0  0  0  0  0  0  0  0  0  0  0
  1  2  1  0
  2  3  1  0
  3  4  1  0
  4  5  1  0
  1  6  1  0
  5  6  1  0
  6  7  1  0
  7  8  1  0
  8  9  1  0
  9 10  1  0
 10 11  1  0
 11 12  1  0
 12 13  1  0
 12 14  1  0
 14 15  1  0
 11 16  1  0
 16 17  1  0
 13 18  1  0
 17 18  1  0
 18 19  1  0
 19 20  1  0
 20 21  1  0
 17 22  1  0
 21 22  1  0
 22 23  1  0
 23 24  1  0
 24 25  1  0
 25 26  1  0
 26 27  1  0
 26 28  1  0
 28 29  1  0
 28 30  1  0
 24 31  1  0
 30 31  1  0
  1 32  1  0
  1 33  1  0
  2 34  1  0
  2 35  1  0
  4 36  1  0
  4 37  1  0
  5 38  1  0
  5 39  1  0
  7 40  1  0
  7 41  1  0
  8 42  1  0
  8 43  1  0
  9 44  1  0
  9 45  1  0
 11 46  1  0
 12 47  1  0
 13 48  1  0
 13 49  1  0
 15 50  1  0
 15 51  1  0
 15 52  1  0
 16 53  1  0
 16 54  1  0
 17 55  1  0
 18 56  1  0
 19 57  1  0
 20 58  1  0
 20 59  1  0
 21 60  1  0
 22 61  1  0
 23 62  1  0
 24 63  1  0
 25 64  1  0
 25 65  1  0
 26 66  1  0
 28 67  1  0
 30 68  1  0
 30 69  1  0
 31 70  1  0
 31 71  1  0
M  END
>  <PDBID>  (1) 
4WKQ

>  <PDB ID>  (1) 
4WKQ

>  <Generic Name>  (1) 
Gefitinib

>  <Brand Name>  (1) 
Iressa

>  <DrugBank ID>  (1) 
DB00317

>  <ATC Codes>  (1) 
L01XE02

>  <Ligand ID>  (1) 
IRE

>  <Target Name>  (1) 
Epidermal growth factor receptor

>  <UniProt ID>  (1) 
P00533

>  <PDB ID.1>  (1) 
4WKQ

>  <Seq. Identity>  (1) 
96%

$$$$
