PDB_DB00390_02
     RDKit          3D

246260  0  0  0  0  0  0  0  0999 V2000
   -3.5828   -0.2034    1.9115 C   0  0  0  0  0  0  0  0  0  0  0  0
   -2.2241    0.0783    2.4926 C   0  0  0  0  0  0  0  0  0  0  0  0
   -1.5615    1.0788    1.5645 C   0  0  2  0  0  0  0  0  0  0  0  0
   -0.2312    1.2581    1.8391 O   0  0  0  0  0  0  0  0  0  0  0  0
   -2.3357    2.3765    1.7292 C   0  0  0  0  0  0  0  0  0  0  0  0
   -3.7078    2.1962    1.1660 C   0  0  1  0  0  0  0  0  0  0  0  0
   -3.6279    2.1889   -0.3160 C   0  0  0  0  0  0  0  0  0  0  0  0
   -4.5267    1.1955   -0.9973 C   0  0  0  0  0  0  0  0  0  0  0  0
   -5.8434    1.2149   -0.3205 C   0  0  2  0  0  0  0  0  0  0  0  0
   -5.6823    0.6601    1.0668 C   0  0  1  0  0  0  0  0  0  0  0  0
   -4.4347    1.0320    1.7698 C   0  0  1  0  0  0  0  0  0  0  0  0
   -6.9640    1.1081    1.7744 C   0  0  0  0  0  0  0  0  0  0  0  0
   -8.0616    0.2917    1.2127 C   0  0  1  0  0  0  0  0  0  0  0  0
   -9.2741    0.7958    1.7112 O   0  0  0  0  0  0  0  0  0  0  0  0
   -8.1692    0.2219   -0.2853 C   0  0  1  0  0  0  0  0  0  0  0  0
   -6.8936    0.4500   -1.0406 C   0  0  1  0  0  0  0  0  0  0  0  0
   -7.1721    1.2006   -2.2116 O   0  0  0  0  0  0  0  0  0  0  0  0
   -6.4047   -0.8897   -1.5548 C   0  0  0  0  0  0  0  0  0  0  0  0
   -7.7561   -1.5427   -1.8842 C   0  0  0  0  0  0  0  0  0  0  0  0
   -8.5140   -1.1854   -0.6158 C   0  0  2  0  0  0  0  0  0  0  0  0
   -9.1205    1.2858   -0.7078 C   0  0  0  0  0  0  0  0  0  0  0  0
   -4.7958    1.4478    3.2045 C   0  0  0  0  0  0  0  0  0  0  0  0
    0.5123    0.8715    0.7253 C   0  0  1  0  0  0  0  0  0  0  0  0
    5.4309    0.4422   -0.0469 C   0  0  2  0  0  0  0  0  0  0  0  0
   10.2677   -0.3589   -0.0954 C   0  0  2  0  0  0  0  0  0  0  0  0
   -9.9330   -1.5853   -0.6862 C   0  0  1  0  0  0  0  0  0  0  0  0
  -10.7818   -0.9930   -1.7351 C   0  0  0  0  0  0  0  0  0  0  0  0
  -11.2282   -1.9941   -2.5959 O   0  0  0  0  0  0  0  0  0  0  0  0
   -9.9581   -3.0806   -0.9995 C   0  0  0  0  0  0  0  0  0  0  0  0
  -10.4639   -3.1156   -2.4239 C   0  0  0  0  0  0  0  0  0  0  0  0
  -11.1376   -4.3082   -2.6489 O   0  0  0  0  0  0  0  0  0  0  0  0
    1.2806    2.0642    0.2675 C   0  0  0  0  0  0  0  0  0  0  0  0
    6.2392   -0.8323   -0.0916 C   0  0  0  0  0  0  0  0  0  0  0  0
   11.1005    0.4165    0.8976 C   0  0  0  0  0  0  0  0  0  0  0  0
    2.3544    1.6830   -0.7275 C   0  0  2  0  0  0  0  0  0  0  0  0
    1.7734    1.2192   -1.9133 O   0  0  0  0  0  0  0  0  0  0  0  0
    7.2173   -0.6600   -1.2605 C   0  0  2  0  0  0  0  0  0  0  0  0
    7.8097   -1.8822   -1.5288 O   0  0  0  0  0  0  0  0  0  0  0  0
   12.5627    0.0617    0.8182 C   0  0  2  0  0  0  0  0  0  0  0  0
   13.0576    0.5844   -0.3763 O   0  0  0  0  0  0  0  0  0  0  0  0
    3.1610    0.5643   -0.0820 C   0  0  2  0  0  0  0  0  0  0  0  0
    4.2837    0.2487   -0.8131 O   0  0  0  0  0  0  0  0  0  0  0  0
    8.2432    0.3778   -0.7892 C   0  0  2  0  0  0  0  0  0  0  0  0
    8.9305   -0.2232    0.2774 O   0  0  0  0  0  0  0  0  0  0  0  0
   12.6842   -1.4438    0.8397 C   0  0  2  0  0  0  0  0  0  0  0  0
   14.0022   -1.8734    0.7846 O   0  0  0  0  0  0  0  0  0  0  0  0
    2.2066   -0.5831    0.1373 C   0  0  2  0  0  0  0  0  0  0  0  0
    1.3245   -0.1808    1.1427 O   0  0  0  0  0  0  0  0  0  0  0  0
    7.4571    1.5269   -0.2397 C   0  0  2  0  0  0  0  0  0  0  0  0
    6.1254    1.5025   -0.6419 O   0  0  0  0  0  0  0  0  0  0  0  0
   11.8802   -1.9951   -0.3201 C   0  0  2  0  0  0  0  0  0  0  0  0
   10.5412   -1.7285   -0.0424 O   0  0  0  0  0  0  0  0  0  0  0  0
    2.9022   -1.8176    0.6068 C   0  0  0  0  0  0  0  0  0  0  0  0
    8.0630    2.8172   -0.7457 C   0  0  0  0  0  0  0  0  0  0  0  0
   12.0132   -3.5066   -0.3762 C   0  0  0  0  0  0  0  0  0  0  0  0
   -3.5828   -0.2034    1.9115 C   0  0  0  0  0  0  0  0  0  0  0  0
   -2.2241    0.0783    2.4926 C   0  0  0  0  0  0  0  0  0  0  0  0
   -1.5615    1.0788    1.5645 C   0  0  2  0  0  0  0  0  0  0  0  0
   -0.2312    1.2581    1.8391 O   0  0  0  0  0  0  0  0  0  0  0  0
   -2.3357    2.3765    1.7292 C   0  0  0  0  0  0  0  0  0  0  0  0
   -3.7078    2.1962    1.1660 C   0  0  1  0  0  0  0  0  0  0  0  0
   -3.6279    2.1889   -0.3160 C   0  0  0  0  0  0  0  0  0  0  0  0
   -4.5267    1.1955   -0.9973 C   0  0  0  0  0  0  0  0  0  0  0  0
   -5.8434    1.2149   -0.3205 C   0  0  2  0  0  0  0  0  0  0  0  0
   -5.6823    0.6601    1.0668 C   0  0  1  0  0  0  0  0  0  0  0  0
   -4.4347    1.0320    1.7698 C   0  0  1  0  0  0  0  0  0  0  0  0
   -6.9640    1.1081    1.7744 C   0  0  0  0  0  0  0  0  0  0  0  0
   -8.0616    0.2917    1.2127 C   0  0  1  0  0  0  0  0  0  0  0  0
   -9.2741    0.7958    1.7112 O   0  0  0  0  0  0  0  0  0  0  0  0
   -8.1692    0.2219   -0.2853 C   0  0  1  0  0  0  0  0  0  0  0  0
   -6.8936    0.4500   -1.0406 C   0  0  1  0  0  0  0  0  0  0  0  0
   -7.1721    1.2006   -2.2116 O   0  0  0  0  0  0  0  0  0  0  0  0
   -6.4047   -0.8897   -1.5548 C   0  0  0  0  0  0  0  0  0  0  0  0
   -7.7561   -1.5427   -1.8842 C   0  0  0  0  0  0  0  0  0  0  0  0
   -8.5140   -1.1854   -0.6158 C   0  0  2  0  0  0  0  0  0  0  0  0
   -9.1205    1.2858   -0.7078 C   0  0  0  0  0  0  0  0  0  0  0  0
   -4.7958    1.4478    3.2045 C   0  0  0  0  0  0  0  0  0  0  0  0
    0.5123    0.8715    0.7253 C   0  0  1  0  0  0  0  0  0  0  0  0
    5.4309    0.4422   -0.0469 C   0  0  2  0  0  0  0  0  0  0  0  0
   10.2677   -0.3589   -0.0954 C   0  0  2  0  0  0  0  0  0  0  0  0
   -9.9330   -1.5853   -0.6862 C   0  0  1  0  0  0  0  0  0  0  0  0
  -10.7818   -0.9930   -1.7351 C   0  0  0  0  0  0  0  0  0  0  0  0
  -11.2282   -1.9941   -2.5959 O   0  0  0  0  0  0  0  0  0  0  0  0
   -9.9581   -3.0806   -0.9995 C   0  0  0  0  0  0  0  0  0  0  0  0
  -10.4639   -3.1156   -2.4239 C   0  0  0  0  0  0  0  0  0  0  0  0
  -11.1376   -4.3082   -2.6489 O   0  0  0  0  0  0  0  0  0  0  0  0
    1.2806    2.0642    0.2675 C   0  0  0  0  0  0  0  0  0  0  0  0
    6.2392   -0.8323   -0.0916 C   0  0  0  0  0  0  0  0  0  0  0  0
   11.1005    0.4165    0.8976 C   0  0  0  0  0  0  0  0  0  0  0  0
    2.3544    1.6830   -0.7275 C   0  0  2  0  0  0  0  0  0  0  0  0
    1.7734    1.2192   -1.9133 O   0  0  0  0  0  0  0  0  0  0  0  0
    7.2173   -0.6600   -1.2605 C   0  0  2  0  0  0  0  0  0  0  0  0
    7.8097   -1.8822   -1.5288 O   0  0  0  0  0  0  0  0  0  0  0  0
   12.5627    0.0617    0.8182 C   0  0  2  0  0  0  0  0  0  0  0  0
   13.0576    0.5844   -0.3763 O   0  0  0  0  0  0  0  0  0  0  0  0
    3.1610    0.5643   -0.0820 C   0  0  2  0  0  0  0  0  0  0  0  0
    4.2837    0.2487   -0.8131 O   0  0  0  0  0  0  0  0  0  0  0  0
    8.2432    0.3778   -0.7892 C   0  0  2  0  0  0  0  0  0  0  0  0
    8.9305   -0.2232    0.2774 O   0  0  0  0  0  0  0  0  0  0  0  0
   12.6842   -1.4438    0.8397 C   0  0  2  0  0  0  0  0  0  0  0  0
   14.0022   -1.8734    0.7846 O   0  0  0  0  0  0  0  0  0  0  0  0
    2.2066   -0.5831    0.1373 C   0  0  2  0  0  0  0  0  0  0  0  0
    1.3245   -0.1808    1.1427 O   0  0  0  0  0  0  0  0  0  0  0  0
    7.4571    1.5269   -0.2397 C   0  0  2  0  0  0  0  0  0  0  0  0
    6.1254    1.5025   -0.6419 O   0  0  0  0  0  0  0  0  0  0  0  0
   11.8802   -1.9951   -0.3201 C   0  0  2  0  0  0  0  0  0  0  0  0
   10.5412   -1.7285   -0.0424 O   0  0  0  0  0  0  0  0  0  0  0  0
    2.9022   -1.8176    0.6068 C   0  0  0  0  0  0  0  0  0  0  0  0
    8.0630    2.8172   -0.7457 C   0  0  0  0  0  0  0  0  0  0  0  0
   12.0132   -3.5066   -0.3762 C   0  0  0  0  0  0  0  0  0  0  0  0
   -4.1127   -0.8632    2.6611 H   0  0  0  0  0  0  0  0  0  0  0  0
   -3.5004   -0.7998    1.0010 H   0  0  0  0  0  0  0  0  0  0  0  0
   -2.2944    0.4656    3.5296 H   0  0  0  0  0  0  0  0  0  0  0  0
   -1.6409   -0.8681    2.4292 H   0  0  0  0  0  0  0  0  0  0  0  0
   -1.7173    0.6631    0.5254 H   0  0  0  0  0  0  0  0  0  0  0  0
   -2.2894    2.6837    2.7726 H   0  0  0  0  0  0  0  0  0  0  0  0
   -1.8387    3.1892    1.1293 H   0  0  0  0  0  0  0  0  0  0  0  0
   -4.2938    3.1110    1.4863 H   0  0  0  0  0  0  0  0  0  0  0  0
   -3.9021    3.2050   -0.7284 H   0  0  0  0  0  0  0  0  0  0  0  0
   -2.5873    2.0229   -0.7185 H   0  0  0  0  0  0  0  0  0  0  0  0
   -4.0789    0.1919   -1.1042 H   0  0  0  0  0  0  0  0  0  0  0  0
   -4.6749    1.5532   -2.0596 H   0  0  0  0  0  0  0  0  0  0  0  0
   -6.1732    2.2723   -0.2343 H   0  0  0  0  0  0  0  0  0  0  0  0
   -5.7866   -0.4612    0.9721 H   0  0  0  0  0  0  0  0  0  0  0  0
   -6.9140    0.9194    2.8560 H   0  0  0  0  0  0  0  0  0  0  0  0
   -7.0767    2.2116    1.5818 H   0  0  0  0  0  0  0  0  0  0  0  0
   -7.9755   -0.7293    1.6709 H   0  0  0  0  0  0  0  0  0  0  0  0
   -9.1925    1.7823    1.8441 H   0  0  0  0  0  0  0  0  0  0  0  0
   -7.2334    0.6540   -3.0094 H   0  0  0  0  0  0  0  0  0  0  0  0
   -5.8878   -1.4916   -0.8114 H   0  0  0  0  0  0  0  0  0  0  0  0
   -5.8350   -0.7358   -2.4923 H   0  0  0  0  0  0  0  0  0  0  0  0
   -8.1916   -1.1321   -2.7915 H   0  0  0  0  0  0  0  0  0  0  0  0
   -7.5403   -2.6300   -1.9038 H   0  0  0  0  0  0  0  0  0  0  0  0
   -8.0440   -1.8774    0.1581 H   0  0  0  0  0  0  0  0  0  0  0  0
   -8.8094    2.2134   -0.1164 H   0  0  0  0  0  0  0  0  0  0  0  0
  -10.1659    1.1548   -0.4704 H   0  0  0  0  0  0  0  0  0  0  0  0
   -9.0211    1.6271   -1.7580 H   0  0  0  0  0  0  0  0  0  0  0  0
   -5.4656    2.3050    3.2212 H   0  0  0  0  0  0  0  0  0  0  0  0
   -3.8482    1.7787    3.7232 H   0  0  0  0  0  0  0  0  0  0  0  0
   -5.1404    0.5737    3.7979 H   0  0  0  0  0  0  0  0  0  0  0  0
   -0.1667    0.5309   -0.0957 H   0  0  0  0  0  0  0  0  0  0  0  0
    5.2068    0.7852    0.9846 H   0  0  0  0  0  0  0  0  0  0  0  0
   10.4373    0.0430   -1.1260 H   0  0  0  0  0  0  0  0  0  0  0  0
  -10.3872   -1.5307    0.3394 H   0  0  0  0  0  0  0  0  0  0  0  0
  -10.2929   -0.2428   -2.3994 H   0  0  0  0  0  0  0  0  0  0  0  0
  -11.6710   -0.4481   -1.2881 H   0  0  0  0  0  0  0  0  0  0  0  0
  -10.6985   -3.6286   -0.3648 H   0  0  0  0  0  0  0  0  0  0  0  0
   -8.9972   -3.5653   -0.8407 H   0  0  0  0  0  0  0  0  0  0  0  0
   -9.5757   -3.0601   -3.0870 H   0  0  0  0  0  0  0  0  0  0  0  0
  -11.1781   -4.8445   -1.8017 H   0  0  0  0  0  0  0  0  0  0  0  0
    1.7783    2.5384    1.1304 H   0  0  0  0  0  0  0  0  0  0  0  0
    0.5703    2.7518   -0.2389 H   0  0  0  0  0  0  0  0  0  0  0  0
    5.6499   -1.7378   -0.2638 H   0  0  0  0  0  0  0  0  0  0  0  0
    6.8272   -0.9747    0.8399 H   0  0  0  0  0  0  0  0  0  0  0  0
   10.9223    1.4897    0.7275 H   0  0  0  0  0  0  0  0  0  0  0  0
   10.7106    0.1369    1.9143 H   0  0  0  0  0  0  0  0  0  0  0  0
    2.9837    2.5434   -0.9934 H   0  0  0  0  0  0  0  0  0  0  0  0
    2.3791    0.6309   -2.4329 H   0  0  0  0  0  0  0  0  0  0  0  0
    6.6566   -0.2479   -2.1337 H   0  0  0  0  0  0  0  0  0  0  0  0
    8.2991   -1.7943   -2.3745 H   0  0  0  0  0  0  0  0  0  0  0  0
   13.0684    0.4958    1.7084 H   0  0  0  0  0  0  0  0  0  0  0  0
   13.8327    1.1531   -0.1369 H   0  0  0  0  0  0  0  0  0  0  0  0
    3.4688    0.8979    0.9319 H   0  0  0  0  0  0  0  0  0  0  0  0
    8.8857    0.6043   -1.6427 H   0  0  0  0  0  0  0  0  0  0  0  0
   12.1776   -1.7920    1.7716 H   0  0  0  0  0  0  0  0  0  0  0  0
   14.0358   -2.7640    1.2142 H   0  0  0  0  0  0  0  0  0  0  0  0
    1.6590   -0.8160   -0.7919 H   0  0  0  0  0  0  0  0  0  0  0  0
    7.4559    1.5593    0.8682 H   0  0  0  0  0  0  0  0  0  0  0  0
   12.2248   -1.5326   -1.2721 H   0  0  0  0  0  0  0  0  0  0  0  0
    3.7132   -1.5062    1.3032 H   0  0  0  0  0  0  0  0  0  0  0  0
    3.3185   -2.3412   -0.2696 H   0  0  0  0  0  0  0  0  0  0  0  0
    2.1924   -2.4719    1.1556 H   0  0  0  0  0  0  0  0  0  0  0  0
    7.8571    2.8665   -1.8358 H   0  0  0  0  0  0  0  0  0  0  0  0
    9.1669    2.8332   -0.6397 H   0  0  0  0  0  0  0  0  0  0  0  0
    7.5955    3.7106   -0.2831 H   0  0  0  0  0  0  0  0  0  0  0  0
   11.0230   -3.9960   -0.5185 H   0  0  0  0  0  0  0  0  0  0  0  0
   12.6357   -3.8142   -1.2283 H   0  0  0  0  0  0  0  0  0  0  0  0
   12.4293   -3.9291    0.5573 H   0  0  0  0  0  0  0  0  0  0  0  0
   -4.1127   -0.8632    2.6611 H   0  0  0  0  0  0  0  0  0  0  0  0
   -3.5004   -0.7998    1.0010 H   0  0  0  0  0  0  0  0  0  0  0  0
   -2.2944    0.4656    3.5296 H   0  0  0  0  0  0  0  0  0  0  0  0
   -1.6409   -0.8681    2.4292 H   0  0  0  0  0  0  0  0  0  0  0  0
   -1.7173    0.6631    0.5254 H   0  0  0  0  0  0  0  0  0  0  0  0
   -2.2894    2.6837    2.7726 H   0  0  0  0  0  0  0  0  0  0  0  0
   -1.8387    3.1892    1.1293 H   0  0  0  0  0  0  0  0  0  0  0  0
   -4.2938    3.1110    1.4863 H   0  0  0  0  0  0  0  0  0  0  0  0
   -3.9021    3.2050   -0.7284 H   0  0  0  0  0  0  0  0  0  0  0  0
   -2.5873    2.0229   -0.7185 H   0  0  0  0  0  0  0  0  0  0  0  0
   -4.0789    0.1919   -1.1042 H   0  0  0  0  0  0  0  0  0  0  0  0
   -4.6749    1.5532   -2.0596 H   0  0  0  0  0  0  0  0  0  0  0  0
   -6.1732    2.2723   -0.2343 H   0  0  0  0  0  0  0  0  0  0  0  0
   -5.7866   -0.4612    0.9721 H   0  0  0  0  0  0  0  0  0  0  0  0
   -6.9140    0.9194    2.8560 H   0  0  0  0  0  0  0  0  0  0  0  0
   -7.0767    2.2116    1.5818 H   0  0  0  0  0  0  0  0  0  0  0  0
   -7.9755   -0.7293    1.6709 H   0  0  0  0  0  0  0  0  0  0  0  0
   -9.1925    1.7823    1.8441 H   0  0  0  0  0  0  0  0  0  0  0  0
   -7.2334    0.6540   -3.0094 H   0  0  0  0  0  0  0  0  0  0  0  0
   -5.8878   -1.4916   -0.8114 H   0  0  0  0  0  0  0  0  0  0  0  0
   -5.8350   -0.7358   -2.4923 H   0  0  0  0  0  0  0  0  0  0  0  0
   -8.1916   -1.1321   -2.7915 H   0  0  0  0  0  0  0  0  0  0  0  0
   -7.5403   -2.6300   -1.9038 H   0  0  0  0  0  0  0  0  0  0  0  0
   -8.0440   -1.8774    0.1581 H   0  0  0  0  0  0  0  0  0  0  0  0
   -8.8094    2.2134   -0.1164 H   0  0  0  0  0  0  0  0  0  0  0  0
  -10.1659    1.1548   -0.4704 H   0  0  0  0  0  0  0  0  0  0  0  0
   -9.0211    1.6271   -1.7580 H   0  0  0  0  0  0  0  0  0  0  0  0
   -5.4656    2.3050    3.2212 H   0  0  0  0  0  0  0  0  0  0  0  0
   -3.8482    1.7787    3.7232 H   0  0  0  0  0  0  0  0  0  0  0  0
   -5.1404    0.5737    3.7979 H   0  0  0  0  0  0  0  0  0  0  0  0
   -0.1667    0.5309   -0.0957 H   0  0  0  0  0  0  0  0  0  0  0  0
    5.2068    0.7852    0.9846 H   0  0  0  0  0  0  0  0  0  0  0  0
   10.4373    0.0430   -1.1260 H   0  0  0  0  0  0  0  0  0  0  0  0
  -10.3872   -1.5307    0.3394 H   0  0  0  0  0  0  0  0  0  0  0  0
  -10.2929   -0.2428   -2.3994 H   0  0  0  0  0  0  0  0  0  0  0  0
  -11.6710   -0.4481   -1.2881 H   0  0  0  0  0  0  0  0  0  0  0  0
  -10.6985   -3.6286   -0.3648 H   0  0  0  0  0  0  0  0  0  0  0  0
   -8.9972   -3.5653   -0.8407 H   0  0  0  0  0  0  0  0  0  0  0  0
   -9.5757   -3.0601   -3.0870 H   0  0  0  0  0  0  0  0  0  0  0  0
  -11.1781   -4.8445   -1.8017 H   0  0  0  0  0  0  0  0  0  0  0  0
    1.7783    2.5384    1.1304 H   0  0  0  0  0  0  0  0  0  0  0  0
    0.5703    2.7518   -0.2389 H   0  0  0  0  0  0  0  0  0  0  0  0
    5.6499   -1.7378   -0.2638 H   0  0  0  0  0  0  0  0  0  0  0  0
    6.8272   -0.9747    0.8399 H   0  0  0  0  0  0  0  0  0  0  0  0
   10.9223    1.4897    0.7275 H   0  0  0  0  0  0  0  0  0  0  0  0
   10.7106    0.1369    1.9143 H   0  0  0  0  0  0  0  0  0  0  0  0
    2.9837    2.5434   -0.9934 H   0  0  0  0  0  0  0  0  0  0  0  0
    2.3791    0.6309   -2.4329 H   0  0  0  0  0  0  0  0  0  0  0  0
    6.6566   -0.2479   -2.1337 H   0  0  0  0  0  0  0  0  0  0  0  0
    8.2991   -1.7943   -2.3745 H   0  0  0  0  0  0  0  0  0  0  0  0
   13.0684    0.4958    1.7084 H   0  0  0  0  0  0  0  0  0  0  0  0
   13.8327    1.1531   -0.1369 H   0  0  0  0  0  0  0  0  0  0  0  0
    3.4688    0.8979    0.9319 H   0  0  0  0  0  0  0  0  0  0  0  0
    8.8857    0.6043   -1.6427 H   0  0  0  0  0  0  0  0  0  0  0  0
   12.1776   -1.7920    1.7716 H   0  0  0  0  0  0  0  0  0  0  0  0
   14.0358   -2.7640    1.2142 H   0  0  0  0  0  0  0  0  0  0  0  0
    1.6590   -0.8160   -0.7919 H   0  0  0  0  0  0  0  0  0  0  0  0
    7.4559    1.5593    0.8682 H   0  0  0  0  0  0  0  0  0  0  0  0
   12.2248   -1.5326   -1.2721 H   0  0  0  0  0  0  0  0  0  0  0  0
    3.7132   -1.5062    1.3032 H   0  0  0  0  0  0  0  0  0  0  0  0
    3.3185   -2.3412   -0.2696 H   0  0  0  0  0  0  0  0  0  0  0  0
    2.1924   -2.4719    1.1556 H   0  0  0  0  0  0  0  0  0  0  0  0
    7.8571    2.8665   -1.8358 H   0  0  0  0  0  0  0  0  0  0  0  0
    9.1669    2.8332   -0.6397 H   0  0  0  0  0  0  0  0  0  0  0  0
    7.5955    3.7106   -0.2831 H   0  0  0  0  0  0  0  0  0  0  0  0
   11.0230   -3.9960   -0.5185 H   0  0  0  0  0  0  0  0  0  0  0  0
   12.6357   -3.8142   -1.2283 H   0  0  0  0  0  0  0  0  0  0  0  0
   12.4293   -3.9291    0.5573 H   0  0  0  0  0  0  0  0  0  0  0  0
  1  2  1  0
  2  3  1  0
  3  4  1  0
  3  5  1  0
  5  6  1  0
  6  7  1  0
  7  8  1  0
  8  9  1  0
  9 10  1  0
  1 11  1  0
  6 11  1  0
 10 11  1  0
 10 12  1  0
 12 13  1  0
 13 14  1  0
 13 15  1  0
  9 16  1  0
 15 16  1  0
 16 17  1  6
 16 18  1  0
 18 19  1  0
 15 20  1  0
 19 20  1  0
 15 21  1  6
 11 22  1  1
  4 23  1  0
 20 26  1  0
 26 27  1  0
 27 28  1  0
 26 29  1  0
 28 30  1  0
 29 30  1  0
 30 31  1  0
 23 32  1  0
 24 33  1  0
 25 34  1  0
 32 35  1  0
 35 36  1  0
 33 37  1  0
 37 38  1  0
 34 39  1  0
 39 40  1  0
 35 41  1  0
 24 42  1  0
 41 42  1  0
 37 43  1  0
 25 44  1  0
 43 44  1  0
 39 45  1  0
 45 46  1  0
 41 47  1  0
 23 48  1  0
 47 48  1  0
 43 49  1  0
 24 50  1  0
 49 50  1  0
 45 51  1  0
 25 52  1  0
 51 52  1  0
 47 53  1  0
 49 54  1  0
 51 55  1  0
 56 57  1  0
 57 58  1  0
 58 59  1  0
 58 60  1  0
 60 61  1  0
 61 62  1  0
 62 63  1  0
 63 64  1  0
 64 65  1  0
 56 66  1  0
 61 66  1  0
 65 66  1  0
 65 67  1  0
 67 68  1  0
 68 69  1  0
 68 70  1  0
 64 71  1  0
 70 71  1  0
 71 72  1  6
 71 73  1  0
 73 74  1  0
 70 75  1  0
 74 75  1  0
 70 76  1  6
 66 77  1  1
 59 78  1  0
 75 81  1  0
 81 82  1  0
 82 83  1  0
 81 84  1  0
 83 85  1  0
 84 85  1  0
 85 86  1  0
 78 87  1  0
 79 88  1  0
 80 89  1  0
 87 90  1  0
 90 91  1  0
 88 92  1  0
 92 93  1  0
 89 94  1  0
 94 95  1  0
 90 96  1  0
 79 97  1  0
 96 97  1  0
 92 98  1  0
 80 99  1  0
 98 99  1  0
 94100  1  0
100101  1  0
 96102  1  0
 78103  1  0
102103  1  0
 98104  1  0
 79105  1  0
104105  1  0
100106  1  0
 80107  1  0
106107  1  0
102108  1  0
104109  1  0
106110  1  0
  1111  1  0
  1112  1  0
  2113  1  0
  2114  1  0
  3115  1  6
  5116  1  0
  5117  1  0
  6118  1  6
  7119  1  0
  7120  1  0
  8121  1  0
  8122  1  0
  9123  1  1
 10124  1  6
 12125  1  0
 12126  1  0
 13127  1  1
 14128  1  0
 17129  1  0
 18130  1  0
 18131  1  0
 19132  1  0
 19133  1  0
 20134  1  1
 21135  1  0
 21136  1  0
 21137  1  0
 22138  1  0
 22139  1  0
 22140  1  0
 23141  1  6
 24142  1  1
 25143  1  6
 26144  1  1
 27145  1  0
 27146  1  0
 29147  1  0
 29148  1  0
 30149  1  0
 31150  1  0
 32151  1  0
 32152  1  0
 33153  1  0
 33154  1  0
 34155  1  0
 34156  1  0
 35157  1  6
 36158  1  0
 37159  1  6
 38160  1  0
 39161  1  1
 40162  1  0
 41163  1  1
 43164  1  6
 45165  1  1
 46166  1  0
 47167  1  6
 49168  1  1
 51169  1  6
 53170  1  0
 53171  1  0
 53172  1  0
 54173  1  0
 54174  1  0
 54175  1  0
 55176  1  0
 55177  1  0
 55178  1  0
 56179  1  0
 56180  1  0
 57181  1  0
 57182  1  0
 58183  1  6
 60184  1  0
 60185  1  0
 61186  1  6
 62187  1  0
 62188  1  0
 63189  1  0
 63190  1  0
 64191  1  1
 65192  1  6
 67193  1  0
 67194  1  0
 68195  1  1
 69196  1  0
 72197  1  0
 73198  1  0
 73199  1  0
 74200  1  0
 74201  1  0
 75202  1  1
 76203  1  0
 76204  1  0
 76205  1  0
 77206  1  0
 77207  1  0
 77208  1  0
 78209  1  6
 79210  1  1
 80211  1  6
 81212  1  1
 82213  1  0
 82214  1  0
 84215  1  0
 84216  1  0
 85217  1  0
 86218  1  0
 87219  1  0
 87220  1  0
 88221  1  0
 88222  1  0
 89223  1  0
 89224  1  0
 90225  1  6
 91226  1  0
 92227  1  6
 93228  1  0
 94229  1  1
 95230  1  0
 96231  1  1
 98232  1  6
100233  1  1
101234  1  0
102235  1  6
104236  1  1
106237  1  6
108238  1  0
108239  1  0
108240  1  0
109241  1  0
109242  1  0
109243  1  0
110244  1  0
110245  1  0
110246  1  0
M  END
>  <PDBID>  (1) 
4RET

>  <PDB ID>  (1) 
4RET

>  <Generic Name>  (1) 
Digoxin

>  <Brand Name>  (1) 
Apo-digoxin#Digitek#Digox#Digoxin#Digoxin Injection C.S.D.#Lanoxin#Lanoxin Elx 0.05mg/ml Pediatric#Lanoxin Inj 0.05mg/ml Pediatric#Lanoxin Inj 0.25mg/ml#Lanoxin Tab 0.0625mg#Lanoxin Tab 0.125mg#Lanoxin Tab 0.25mg#Novo-digoxin Tab 0.25mg#PMS-digoxin#Pediatric Digoxin Injection C.S.D.#Toloxin#Agoxin#Cardiacin#Cardiogoxin#Cardioxin#Cardoxin#Celoxin#Centoxin#Digacin#Digocard-G#Digoxina#Eudigox#Lanacordin#Lanacrist#Lanicor#Lanoxicaps#Lenoxin

>  <DrugBank ID>  (1) 
DB00390

>  <ATC Codes>  (1) 
C01AA05

>  <Ligand ID>  (1) 
DGX

>  <Target Name>  (1) 
Sodium/potassium-transporting ATPase subunit alpha-1

>  <UniProt ID>  (1) 
P05023

>  <PDB ID.1>  (1) 
4RET

>  <Seq. Identity>  (1) 
94%

$$$$
