PDB_DB00907_02
     RDKit          3D

 53 55  0  0  0  0  0  0  0  0999 V2000
   -1.0734    3.4275   -2.2502 C   0  0  0  0  0  0  0  0  0  0  0  0
   -0.5104    2.3346   -1.6010 O   0  0  0  0  0  0  0  0  0  0  0  0
   -1.2414    1.8813   -0.5306 C   0  0  0  0  0  0  0  0  0  0  0  0
   -0.6345    2.0260    0.7025 O   0  0  0  0  0  0  0  0  0  0  0  0
   -1.8042    0.5130   -0.7850 C   0  0  2  0  0  0  0  0  0  0  0  0
   -2.6007   -0.0058    0.3861 C   0  0  2  0  0  0  0  0  0  0  0  0
   -2.0831   -1.3184    0.6968 N   0  0  0  0  0  0  0  0  0  0  0  0
   -2.7558   -1.9313    1.8230 C   0  0  0  0  0  0  0  0  0  0  0  0
   -4.0401   -0.3180    0.0489 C   0  0  0  0  0  0  0  0  0  0  0  0
   -3.9257   -1.6403   -0.6693 C   0  0  0  0  0  0  0  0  0  0  0  0
   -2.4625   -2.0696   -0.4866 C   0  0  1  0  0  0  0  0  0  0  0  0
   -1.6571   -1.7128   -1.6900 C   0  0  0  0  0  0  0  0  0  0  0  0
   -0.8323   -0.4809   -1.3506 C   0  0  2  0  0  0  0  0  0  0  0  0
    0.1772   -0.7190   -0.4852 O   0  0  0  0  0  0  0  0  0  0  0  0
    1.4397   -0.4649   -0.8797 C   0  0  0  0  0  0  0  0  0  0  0  0
    2.0936   -1.7279   -0.9381 O   0  0  0  0  0  0  0  0  0  0  0  0
    2.3026    0.3664    0.0290 C   0  0  0  0  0  0  0  0  0  0  0  0
    3.6649    0.4764   -0.6770 C   0  0  0  0  0  0  0  0  0  0  0  0
    4.7234   -0.2596    0.1247 C   0  0  0  0  0  0  0  0  0  0  0  0
    4.8731    0.4741    1.4430 C   0  0  0  0  0  0  0  0  0  0  0  0
    3.5408    0.4894    2.1291 C   0  0  0  0  0  0  0  0  0  0  0  0
    2.4853   -0.2746    1.3868 C   0  0  0  0  0  0  0  0  0  0  0  0
   -2.0839    3.1666   -2.6411 H   0  0  0  0  0  0  0  0  0  0  0  0
   -1.2307    4.2826   -1.5612 H   0  0  0  0  0  0  0  0  0  0  0  0
   -0.3833    3.7600   -3.0380 H   0  0  0  0  0  0  0  0  0  0  0  0
   -2.1492    2.5687   -0.4790 H   0  0  0  0  0  0  0  0  0  0  0  0
   -1.1702    2.4943    1.3738 H   0  0  0  0  0  0  0  0  0  0  0  0
   -2.5777    0.6529   -1.6094 H   0  0  0  0  0  0  0  0  0  0  0  0
   -2.5187    0.6449    1.2808 H   0  0  0  0  0  0  0  0  0  0  0  0
   -1.9768   -2.4466    2.4229 H   0  0  0  0  0  0  0  0  0  0  0  0
   -3.2629   -1.1771    2.4518 H   0  0  0  0  0  0  0  0  0  0  0  0
   -3.4782   -2.7236    1.5076 H   0  0  0  0  0  0  0  0  0  0  0  0
   -4.5104    0.4647   -0.5766 H   0  0  0  0  0  0  0  0  0  0  0  0
   -4.5699   -0.4356    1.0262 H   0  0  0  0  0  0  0  0  0  0  0  0
   -4.5818   -2.4020   -0.2069 H   0  0  0  0  0  0  0  0  0  0  0  0
   -4.1189   -1.4680   -1.7359 H   0  0  0  0  0  0  0  0  0  0  0  0
   -2.3918   -3.1587   -0.3285 H   0  0  0  0  0  0  0  0  0  0  0  0
   -2.3551   -1.4004   -2.4988 H   0  0  0  0  0  0  0  0  0  0  0  0
   -1.0484   -2.5276   -2.0955 H   0  0  0  0  0  0  0  0  0  0  0  0
   -0.3941   -0.0448   -2.2887 H   0  0  0  0  0  0  0  0  0  0  0  0
    1.5590   -0.0572   -1.9031 H   0  0  0  0  0  0  0  0  0  0  0  0
    1.7520   -2.3070   -0.1859 H   0  0  0  0  0  0  0  0  0  0  0  0
    1.9438    1.3972    0.1750 H   0  0  0  0  0  0  0  0  0  0  0  0
    3.9857    1.5285   -0.7705 H   0  0  0  0  0  0  0  0  0  0  0  0
    3.6566    0.0456   -1.6829 H   0  0  0  0  0  0  0  0  0  0  0  0
    4.5079   -1.3260    0.2427 H   0  0  0  0  0  0  0  0  0  0  0  0
    5.6619   -0.1847   -0.4679 H   0  0  0  0  0  0  0  0  0  0  0  0
    5.6741   -0.0160    2.0212 H   0  0  0  0  0  0  0  0  0  0  0  0
    5.2086    1.5100    1.1799 H   0  0  0  0  0  0  0  0  0  0  0  0
    3.2096    1.5644    2.2289 H   0  0  0  0  0  0  0  0  0  0  0  0
    3.6757    0.0141    3.1250 H   0  0  0  0  0  0  0  0  0  0  0  0
    2.7599   -1.3286    1.2944 H   0  0  0  0  0  0  0  0  0  0  0  0
    1.5277   -0.1560    1.9294 H   0  0  0  0  0  0  0  0  0  0  0  0
  1  2  1  0
  2  3  1  0
  3  4  1  0
  3  5  1  0
  5  6  1  0
  6  7  1  0
  7  8  1  0
  6  9  1  0
  9 10  1  0
  7 11  1  0
 10 11  1  0
 11 12  1  0
  5 13  1  0
 12 13  1  0
 13 14  1  0
 14 15  1  0
 15 16  1  0
 15 17  1  0
 17 18  1  0
 18 19  1  0
 19 20  1  0
 20 21  1  0
 17 22  1  0
 21 22  1  0
  1 23  1  0
  1 24  1  0
  1 25  1  0
  3 26  1  0
  4 27  1  0
  5 28  1  6
  6 29  1  1
  8 30  1  0
  8 31  1  0
  8 32  1  0
  9 33  1  0
  9 34  1  0
 10 35  1  0
 10 36  1  0
 11 37  1  1
 12 38  1  0
 12 39  1  0
 13 40  1  6
 15 41  1  0
 16 42  1  0
 17 43  1  0
 18 44  1  0
 18 45  1  0
 19 46  1  0
 19 47  1  0
 20 48  1  0
 20 49  1  0
 21 50  1  0
 21 51  1  0
 22 52  1  0
 22 53  1  0
M  END
>  <PDBID>  (1) 
4XP4

>  <PDB ID>  (1) 
4XP4

>  <Generic Name>  (1) 
Cocaine

>  <Brand Name>  (1) 
Cocaine Hydrochloride#Cocaine Hydrochloride Top Sol 40mg/ml#Cocaine Hydrochloride Topical Sol 10%#PMS-cocaine Hydrochloride  Topical Sol 4%#PMS-cocaine Hydrochloride Topical Sol 10%

>  <DrugBank ID>  (1) 
DB00907

>  <ATC Codes>  (1) 
S01HA01#N01BC01#R02AD03#S02DA02

>  <Ligand ID>  (1) 
COC

>  <Target Name>  (1) 
Sodium-dependent noradrenaline transporter

>  <UniProt ID>  (1) 
P23975

>  <PDB ID.1>  (1) 
4XP4

>  <Seq. Identity>  (1) 
58%

$$$$
