PDB_DB00476_02
     RDKit          3D

 54 56  0  0  0  0  0  0  0  0999 V2000
    2.1516    1.1219    3.8553 C   0  0  0  0  0  0  0  0  0  0  0  0
    3.0706    0.1326    3.3803 N   0  0  0  0  0  0  0  0  0  0  0  0
    3.0977    0.1668    1.8894 C   0  0  0  0  0  0  0  0  0  0  0  0
    1.7607   -0.3474    1.4792 C   0  0  0  0  0  0  0  0  0  0  0  0
    1.4320   -0.3976    0.0319 C   0  0  1  0  0  0  0  0  0  0  0  0
    2.3796   -1.2560   -0.7488 C   0  0  0  0  0  0  0  0  0  0  0  0
    4.1165   -0.7200   -0.6948 S   0  0  0  0  0  0  0  0  0  0  0  0
    4.5792   -1.5328   -2.2882 C   0  0  0  0  0  0  0  0  0  0  0  0
    3.3184   -1.1840   -3.0402 C   0  0  0  0  0  0  0  0  0  0  0  0
    2.1241   -1.3533   -2.2040 C   0  0  0  0  0  0  0  0  0  0  0  0
    0.1831   -1.0278   -0.0935 O   0  0  0  0  0  0  0  0  0  0  0  0
   -0.8089   -0.3820   -0.7168 C   0  0  0  0  0  0  0  0  0  0  0  0
   -2.0440   -0.0452    0.1370 C   0  0  0  0  0  0  0  0  0  0  0  0
   -1.7141    0.4916    1.4820 C   0  0  0  0  0  0  0  0  0  0  0  0
   -2.9058    1.0649    2.2034 C   0  0  0  0  0  0  0  0  0  0  0  0
   -4.1615    0.9645    1.3514 C   0  0  0  0  0  0  0  0  0  0  0  0
   -3.9081    1.6687    0.0333 C   0  0  0  0  0  0  0  0  0  0  0  0
   -2.7615    1.0252   -0.6565 C   0  0  0  0  0  0  0  0  0  0  0  0
   -3.2677    0.4783   -1.9816 C   0  0  0  0  0  0  0  0  0  0  0  0
   -2.0376    0.0583   -2.7699 C   0  0  0  0  0  0  0  0  0  0  0  0
   -1.3956   -1.0529   -1.9490 C   0  0  0  0  0  0  0  0  0  0  0  0
    1.2983    0.6568    4.3654 H   0  0  0  0  0  0  0  0  0  0  0  0
    2.6304    1.8037    4.6214 H   0  0  0  0  0  0  0  0  0  0  0  0
    1.8038    1.8375    3.0658 H   0  0  0  0  0  0  0  0  0  0  0  0
    2.8289   -0.8444    3.6619 H   0  0  0  0  0  0  0  0  0  0  0  0
    3.9545   -0.5073    1.6704 H   0  0  0  0  0  0  0  0  0  0  0  0
    3.2809    1.2279    1.6510 H   0  0  0  0  0  0  0  0  0  0  0  0
    1.7334   -1.4232    1.8465 H   0  0  0  0  0  0  0  0  0  0  0  0
    1.0305    0.2598    2.0788 H   0  0  0  0  0  0  0  0  0  0  0  0
    1.3552    0.6196   -0.4375 H   0  0  0  0  0  0  0  0  0  0  0  0
    2.2953   -2.3005   -0.3317 H   0  0  0  0  0  0  0  0  0  0  0  0
    5.4420   -1.0074   -2.7356 H   0  0  0  0  0  0  0  0  0  0  0  0
    4.7139   -2.5989   -2.1240 H   0  0  0  0  0  0  0  0  0  0  0  0
    3.2301   -1.8418   -3.9330 H   0  0  0  0  0  0  0  0  0  0  0  0
    3.4540   -0.1122   -3.3492 H   0  0  0  0  0  0  0  0  0  0  0  0
    1.5986   -2.3208   -2.4654 H   0  0  0  0  0  0  0  0  0  0  0  0
    1.4331   -0.4903   -2.4668 H   0  0  0  0  0  0  0  0  0  0  0  0
   -0.4319    0.6060   -1.0567 H   0  0  0  0  0  0  0  0  0  0  0  0
   -2.7296   -0.9206    0.1592 H   0  0  0  0  0  0  0  0  0  0  0  0
   -1.2626   -0.2932    2.1274 H   0  0  0  0  0  0  0  0  0  0  0  0
   -0.9871    1.3239    1.3631 H   0  0  0  0  0  0  0  0  0  0  0  0
   -3.0947    0.4502    3.1019 H   0  0  0  0  0  0  0  0  0  0  0  0
   -2.7453    2.1056    2.5480 H   0  0  0  0  0  0  0  0  0  0  0  0
   -4.4249   -0.1013    1.2117 H   0  0  0  0  0  0  0  0  0  0  0  0
   -4.9802    1.4474    1.9109 H   0  0  0  0  0  0  0  0  0  0  0  0
   -3.6507    2.7225    0.2531 H   0  0  0  0  0  0  0  0  0  0  0  0
   -4.8276    1.6857   -0.5843 H   0  0  0  0  0  0  0  0  0  0  0  0
   -2.0127    1.8154   -0.9564 H   0  0  0  0  0  0  0  0  0  0  0  0
   -3.9476   -0.3642   -1.8402 H   0  0  0  0  0  0  0  0  0  0  0  0
   -3.7221    1.3182   -2.5227 H   0  0  0  0  0  0  0  0  0  0  0  0
   -2.2528   -0.2751   -3.7854 H   0  0  0  0  0  0  0  0  0  0  0  0
   -1.3053    0.8859   -2.7993 H   0  0  0  0  0  0  0  0  0  0  0  0
   -0.6606   -1.5337   -2.5603 H   0  0  0  0  0  0  0  0  0  0  0  0
   -2.2559   -1.7053   -1.6612 H   0  0  0  0  0  0  0  0  0  0  0  0
  1  2  1  0
  2  3  1  0
  3  4  1  0
  4  5  1  0
  5  6  1  0
  6  7  1  0
  7  8  1  0
  8  9  1  0
  6 10  1  0
  9 10  1  0
  5 11  1  0
 11 12  1  0
 12 13  1  0
 13 14  1  0
 14 15  1  0
 15 16  1  0
 16 17  1  0
 13 18  1  0
 17 18  1  0
 18 19  1  0
 19 20  1  0
 12 21  1  0
 20 21  1  0
  1 22  1  0
  1 23  1  0
  1 24  1  0
  2 25  1  0
  3 26  1  0
  3 27  1  0
  4 28  1  0
  4 29  1  0
  5 30  1  6
  6 31  1  0
  8 32  1  0
  8 33  1  0
  9 34  1  0
  9 35  1  0
 10 36  1  0
 10 37  1  0
 12 38  1  0
 13 39  1  0
 14 40  1  0
 14 41  1  0
 15 42  1  0
 15 43  1  0
 16 44  1  0
 16 45  1  0
 17 46  1  0
 17 47  1  0
 18 48  1  0
 19 49  1  0
 19 50  1  0
 20 51  1  0
 20 52  1  0
 21 53  1  0
 21 54  1  0
M  END
>  <PDBID>  (1) 
4MM6

>  <PDB ID>  (1) 
4MM6

>  <Generic Name>  (1) 
Duloxetine

>  <Brand Name>  (1) 
Act Duloxetine#Apo-duloxetine#Auro-duloxetine#Cymbalta#Dom-duloxetine#Duloxetine#Duloxetine Delayed-release#Duloxetine Dr#Duloxetine Hydrochloride#Duloxetine Hydrochloride 20 mg#Duloxetine Hydrochloride 30 mg#Duloxetine Hydrochloride 60 mg#Ipg-duloxetine#Irenka#Jamp-duloxetine#Mar-duloxetine#Mint-duloxetine#Mylan-duloxetine#PMS-duloxetine#Ran-duloxetine#Riva-duloxetine#Sandoz Duloxetine#Taro-duloxetine#Teva-duloxetine Dr#Torrent-duloxetine#Ariclaim#Dulane#Duzela#Xeristar#Yentreve

>  <DrugBank ID>  (1) 
DB00476

>  <ATC Codes>  (1) 
N06AX21

>  <Ligand ID>  (1) 
29E

>  <Target Name>  (1) 
Sodium-dependent noradrenaline transporter

>  <UniProt ID>  (1) 
P23975

>  <PDB ID.1>  (1) 
4MM6

>  <Seq. Identity>  (1) 
30%

$$$$
