PDB_DB01222_03
     RDKit          3D

 73 77  0  0  0  0  0  0  0  0999 V2000
    6.2248    1.0824    1.7815 C   0  0  0  0  0  0  0  0  0  0  0  0
    4.8952    1.6826    2.0976 C   0  0  0  0  0  0  0  0  0  0  0  0
    3.7562    0.6960    1.9187 C   0  0  0  0  0  0  0  0  0  0  0  0
    2.5356    1.0117   -1.2136 C   0  0  1  0  0  0  0  0  0  0  0  0
    1.2787    1.6929   -0.7032 C   0  0  0  0  0  0  0  0  0  0  0  0
    0.4858    0.5648   -0.1566 C   0  0  1  0  0  0  0  0  0  0  0  0
   -0.9733    0.7864   -0.0712 C   0  0  2  0  0  0  0  0  0  0  0  0
   -1.2292    1.7411    1.0966 C   0  0  0  0  0  0  0  0  0  0  0  0
   -2.6789    1.9294    1.3870 C   0  0  0  0  0  0  0  0  0  0  0  0
   -3.4978    0.6833    1.3573 C   0  0  0  0  0  0  0  0  0  0  0  0
   -4.8419   -1.4528    1.5448 C   0  0  0  0  0  0  0  0  0  0  0  0
   -4.0529   -1.3938    0.2291 C   0  0  0  0  0  0  0  0  0  0  0  0
   -3.1605   -0.2123    0.1573 C   0  0  2  0  0  0  0  0  0  0  0  0
    0.2477   -1.8044   -0.6095 C   0  0  0  0  0  0  0  0  0  0  0  0
    2.9767   -1.3213   -2.0662 C   0  0  0  0  0  0  0  0  0  0  0  0
    4.4135   -1.1904   -2.3543 C   0  0  0  0  0  0  0  0  0  0  0  0
    0.3744   -0.2218   -2.5346 C   0  0  0  0  0  0  0  0  0  0  0  0
    3.7372    0.2270    0.4736 C   0  0  2  0  0  0  0  0  0  0  0  0
    3.5525    1.3103   -0.3495 O   0  0  0  0  0  0  0  0  0  0  0  0
   -4.9604    1.0159    1.3903 C   0  0  0  0  0  0  0  0  0  0  0  0
   -5.7160   -0.2510    1.7072 C   0  0  0  0  0  0  0  0  0  0  0  0
   -6.7733   -0.3313    0.7819 O   0  0  0  0  0  0  0  0  0  0  0  0
   -1.6963   -0.4950    0.2656 C   0  0  1  0  0  0  0  0  0  0  0  0
   -1.2357   -1.6800   -0.4883 C   0  0  1  0  0  0  0  0  0  0  0  0
    0.8228   -0.5566   -1.1474 C   0  0  1  0  0  0  0  0  0  0  0  0
    2.3493   -0.4644   -1.0581 C   0  0  2  0  0  0  0  0  0  0  0  0
    2.7448   -0.7014    0.2439 O   0  0  0  0  0  0  0  0  0  0  0  0
    2.6905   -2.6592   -1.7987 O   0  0  0  0  0  0  0  0  0  0  0  0
    4.6772   -1.9980   -3.4929 O   0  0  0  0  0  0  0  0  0  0  0  0
   -1.7865   -1.6874   -1.7681 O   0  0  0  0  0  0  0  0  0  0  0  0
   -3.5085    0.6001   -1.0724 C   0  0  0  0  0  0  0  0  0  0  0  0
    6.9995    1.6219    2.3642 H   0  0  0  0  0  0  0  0  0  0  0  0
    6.5203    1.1716    0.7179 H   0  0  0  0  0  0  0  0  0  0  0  0
    6.3021    0.0111    2.1188 H   0  0  0  0  0  0  0  0  0  0  0  0
    4.9143    2.0224    3.1601 H   0  0  0  0  0  0  0  0  0  0  0  0
    4.7336    2.5539    1.4305 H   0  0  0  0  0  0  0  0  0  0  0  0
    2.7909    1.2079    2.1017 H   0  0  0  0  0  0  0  0  0  0  0  0
    3.8570   -0.1401    2.6352 H   0  0  0  0  0  0  0  0  0  0  0  0
    2.6875    1.3510   -2.2432 H   0  0  0  0  0  0  0  0  0  0  0  0
    0.7125    2.1807   -1.5153 H   0  0  0  0  0  0  0  0  0  0  0  0
    1.5154    2.4834    0.0388 H   0  0  0  0  0  0  0  0  0  0  0  0
    0.8733    0.2396    0.8269 H   0  0  0  0  0  0  0  0  0  0  0  0
   -1.4117    1.2568   -0.9626 H   0  0  0  0  0  0  0  0  0  0  0  0
   -0.6414    1.4591    1.9907 H   0  0  0  0  0  0  0  0  0  0  0  0
   -0.8304    2.7324    0.7460 H   0  0  0  0  0  0  0  0  0  0  0  0
   -3.1160    2.7642    0.7692 H   0  0  0  0  0  0  0  0  0  0  0  0
   -2.7449    2.3275    2.4432 H   0  0  0  0  0  0  0  0  0  0  0  0
   -3.2382    0.0933    2.2735 H   0  0  0  0  0  0  0  0  0  0  0  0
   -5.5331   -2.3363    1.4089 H   0  0  0  0  0  0  0  0  0  0  0  0
   -4.2117   -1.6941    2.3986 H   0  0  0  0  0  0  0  0  0  0  0  0
   -3.5879   -2.3676    0.1116 H   0  0  0  0  0  0  0  0  0  0  0  0
   -4.8580   -1.3396   -0.5637 H   0  0  0  0  0  0  0  0  0  0  0  0
    0.4218   -2.6377   -1.3531 H   0  0  0  0  0  0  0  0  0  0  0  0
    0.7458   -2.0640    0.3444 H   0  0  0  0  0  0  0  0  0  0  0  0
    2.4358   -1.1246   -3.0475 H   0  0  0  0  0  0  0  0  0  0  0  0
    4.7893   -0.2012   -2.6024 H   0  0  0  0  0  0  0  0  0  0  0  0
    5.0817   -1.6609   -1.5726 H   0  0  0  0  0  0  0  0  0  0  0  0
    1.0923    0.4111   -3.0995 H   0  0  0  0  0  0  0  0  0  0  0  0
   -0.6191    0.2644   -2.5845 H   0  0  0  0  0  0  0  0  0  0  0  0
    0.3216   -1.1859   -3.1095 H   0  0  0  0  0  0  0  0  0  0  0  0
    4.7154   -0.2776    0.3251 H   0  0  0  0  0  0  0  0  0  0  0  0
   -5.2409    1.4291    0.4006 H   0  0  0  0  0  0  0  0  0  0  0  0
   -5.1286    1.7233    2.2108 H   0  0  0  0  0  0  0  0  0  0  0  0
   -6.1539   -0.2571    2.7039 H   0  0  0  0  0  0  0  0  0  0  0  0
   -7.0978    0.5745    0.5432 H   0  0  0  0  0  0  0  0  0  0  0  0
   -1.4865   -0.6834    1.3596 H   0  0  0  0  0  0  0  0  0  0  0  0
   -1.5655   -2.5948    0.0903 H   0  0  0  0  0  0  0  0  0  0  0  0
    2.9069   -2.8997   -0.8599 H   0  0  0  0  0  0  0  0  0  0  0  0
    4.1363   -2.8341   -3.4604 H   0  0  0  0  0  0  0  0  0  0  0  0
   -1.7668   -2.5807   -2.1850 H   0  0  0  0  0  0  0  0  0  0  0  0
   -2.9358    0.3366   -1.9582 H   0  0  0  0  0  0  0  0  0  0  0  0
   -3.4486    1.6780   -0.9228 H   0  0  0  0  0  0  0  0  0  0  0  0
   -4.5885    0.3829   -1.3231 H   0  0  0  0  0  0  0  0  0  0  0  0
  1  2  1  0
  2  3  1  0
  4  5  1  0
  5  6  1  0
  6  7  1  0
  7  8  1  0
  8  9  1  0
  9 10  1  0
 11 12  1  0
 10 13  1  0
 12 13  1  0
 15 16  1  0
  3 18  1  0
  4 19  1  0
 18 19  1  0
 10 20  1  0
 11 21  1  0
 20 21  1  0
 21 22  1  0
  7 23  1  0
 13 23  1  0
 14 24  1  0
 23 24  1  0
  6 25  1  0
 14 25  1  0
 25 17  1  6
  4 26  1  0
 26 15  1  6
 25 26  1  0
 18 27  1  0
 26 27  1  0
 15 28  1  0
 16 29  1  0
 24 30  1  0
 13 31  1  6
  1 32  1  0
  1 33  1  0
  1 34  1  0
  2 35  1  0
  2 36  1  0
  3 37  1  0
  3 38  1  0
  4 39  1  6
  5 40  1  0
  5 41  1  0
  6 42  1  1
  7 43  1  6
  8 44  1  0
  8 45  1  0
  9 46  1  0
  9 47  1  0
 10 48  1  0
 11 49  1  0
 11 50  1  0
 12 51  1  0
 12 52  1  0
 14 53  1  0
 14 54  1  0
 15 55  1  0
 16 56  1  0
 16 57  1  0
 17 58  1  0
 17 59  1  0
 17 60  1  0
 18 61  1  6
 20 62  1  0
 20 63  1  0
 21 64  1  0
 22 65  1  0
 23 66  1  1
 24 67  1  1
 28 68  1  0
 29 69  1  0
 30 70  1  0
 31 71  1  0
 31 72  1  0
 31 73  1  0
M  END
>  <PDBID>  (1) 
5NFP

>  <PDB ID>  (1) 
5NFP

>  <Generic Name>  (1) 
Budesonide

>  <Brand Name>  (1) 
Budesonide#Budesonide (enteric Coated)#Budesonide Inhalation#Budesonide Nasal#Childrens Rhinocort Allergy#Cortiment#Entocort#Entocort EC#Entocort Enema#Mylan-budesonide AQ#Pulmicort Flexhaler#Pulmicort Nebuamp 0.125 mg/ml#Pulmicort Nebuamp 0.25 mg/ml#Pulmicort Nebuamp 0.5 mg/ml#Pulmicort Respules#Pulmicort Turbuhaler 100 Mcg/dose#Pulmicort Turbuhaler 200 Mcg/dose#Pulmicort Turbuhaler 400 Mcg/dose#Rhinocort Allergy#Rhinocort Aqua#Rhinocort Aqua 100mcg#Rhinocort Turbuhaler 100 Mcg/dose#Symbicort#Symbicort 100 Turbuhaler#Symbicort 200 Turbuhaler#Symbicort Forte Turbuhaler#Uceris#Bidien#Budeson#Budicort#ENTOCORT#Noex#Pulmicort#Rhinocort#Rhinosol#Spirocort

>  <DrugBank ID>  (1) 
DB01222

>  <ATC Codes>  (1) 
R03AK07#A07EA06#R03BA02#D07AC09#R03AK12#R01AD05

>  <Ligand ID>  (1) 
8W5

>  <Target Name>  (1) 
Glucocorticoid receptor

>  <UniProt ID>  (1) 
P04150

>  <PDB ID.1>  (1) 
5NFP

>  <Seq. Identity>  (1) 
98%

$$$$
