PDB_DB00390_07
     RDKit          3D

246260  0  0  0  0  0  0  0  0999 V2000
   -3.4372   -0.2316    1.6073 C   0  0  0  0  0  0  0  0  0  0  0  0
   -2.1507   -0.9241    1.7955 C   0  0  0  0  0  0  0  0  0  0  0  0
   -1.2455   -1.0933    0.6252 C   0  0  2  0  0  0  0  0  0  0  0  0
   -0.2886   -0.0975    0.6033 O   0  0  0  0  0  0  0  0  0  0  0  0
   -1.9698   -1.3461   -0.6192 C   0  0  0  0  0  0  0  0  0  0  0  0
   -3.4344   -1.0941   -0.6669 C   0  0  1  0  0  0  0  0  0  0  0  0
   -4.1257   -2.4096   -0.5419 C   0  0  0  0  0  0  0  0  0  0  0  0
   -5.4730   -2.3546    0.1299 C   0  0  0  0  0  0  0  0  0  0  0  0
   -6.1240   -1.1172   -0.3608 C   0  0  2  0  0  0  0  0  0  0  0  0
   -5.4467    0.0685    0.2628 C   0  0  1  0  0  0  0  0  0  0  0  0
   -3.9471   -0.0164    0.2208 C   0  0  1  0  0  0  0  0  0  0  0  0
   -5.9806    1.2187   -0.5598 C   0  0  0  0  0  0  0  0  0  0  0  0
   -7.4376    1.3868   -0.5640 C   0  0  1  0  0  0  0  0  0  0  0  0
   -7.7476    2.1495   -1.7142 O   0  0  0  0  0  0  0  0  0  0  0  0
   -8.3110    0.1789   -0.4131 C   0  0  1  0  0  0  0  0  0  0  0  0
   -7.5748   -1.0927   -0.1196 C   0  0  1  0  0  0  0  0  0  0  0  0
   -8.1106   -2.1962   -0.8418 O   0  0  0  0  0  0  0  0  0  0  0  0
   -7.9254   -1.4480    1.3352 C   0  0  0  0  0  0  0  0  0  0  0  0
   -9.3897   -1.0606    1.2938 C   0  0  0  0  0  0  0  0  0  0  0  0
   -9.2678    0.3285    0.6869 C   0  0  2  0  0  0  0  0  0  0  0  0
   -8.9167   -0.0405   -1.7992 C   0  0  0  0  0  0  0  0  0  0  0  0
   -3.4602    1.3433   -0.2383 C   0  0  0  0  0  0  0  0  0  0  0  0
    0.9877   -0.4993    0.8226 C   0  0  1  0  0  0  0  0  0  0  0  0
    5.8177    0.6753   -0.0290 C   0  0  2  0  0  0  0  0  0  0  0  0
   10.6905    0.1531   -1.5779 C   0  0  2  0  0  0  0  0  0  0  0  0
  -10.5971    0.9096    0.5824 C   0  0  1  0  0  0  0  0  0  0  0  0
  -10.8067    2.2773    0.1091 C   0  0  0  0  0  0  0  0  0  0  0  0
  -11.5566    2.2876   -1.0656 O   0  0  0  0  0  0  0  0  0  0  0  0
  -11.6495    0.1364   -0.1710 C   0  0  0  0  0  0  0  0  0  0  0  0
  -12.1620    1.0785   -1.2302 C   0  0  0  0  0  0  0  0  0  0  0  0
  -13.5641    1.1597   -1.2441 O   0  0  0  0  0  0  0  0  0  0  0  0
    1.7954   -0.1882   -0.4339 C   0  0  0  0  0  0  0  0  0  0  0  0
    6.8222   -0.2972    0.5476 C   0  0  0  0  0  0  0  0  0  0  0  0
   11.7458    1.1917   -1.3795 C   0  0  0  0  0  0  0  0  0  0  0  0
    2.5047    1.1432   -0.1993 C   0  0  2  0  0  0  0  0  0  0  0  0
    2.9436    1.7254   -1.3658 O   0  0  0  0  0  0  0  0  0  0  0  0
    7.5329   -0.9006   -0.6789 C   0  0  2  0  0  0  0  0  0  0  0  0
    8.3940   -1.8655   -0.1555 O   0  0  0  0  0  0  0  0  0  0  0  0
   12.0472    1.3938    0.1128 C   0  0  2  0  0  0  0  0  0  0  0  0
   13.3097    1.8895    0.3334 O   0  0  0  0  0  0  0  0  0  0  0  0
    3.6587    0.7939    0.7514 C   0  0  2  0  0  0  0  0  0  0  0  0
    4.5798    0.0825   -0.0438 O   0  0  0  0  0  0  0  0  0  0  0  0
    8.3866    0.2223   -1.2180 C   0  0  2  0  0  0  0  0  0  0  0  0
    9.6355    0.2678   -0.6850 O   0  0  0  0  0  0  0  0  0  0  0  0
   11.8779    0.0517    0.7615 C   0  0  2  0  0  0  0  0  0  0  0  0
   12.8638   -0.0456    1.7704 O   0  0  0  0  0  0  0  0  0  0  0  0
    3.0290   -0.1145    1.8143 C   0  0  2  0  0  0  0  0  0  0  0  0
    1.6436    0.1338    1.8819 O   0  0  0  0  0  0  0  0  0  0  0  0
    7.5922    1.5049   -1.0865 C   0  0  2  0  0  0  0  0  0  0  0  0
    6.2433    1.1474   -1.2800 O   0  0  0  0  0  0  0  0  0  0  0  0
   12.1982   -1.0194   -0.2513 C   0  0  2  0  0  0  0  0  0  0  0  0
   11.2817   -1.0984   -1.2696 O   0  0  0  0  0  0  0  0  0  0  0  0
    3.6101    0.3119    3.1604 C   0  0  0  0  0  0  0  0  0  0  0  0
    7.9291    2.4729   -2.1996 C   0  0  0  0  0  0  0  0  0  0  0  0
   12.4077   -2.3701    0.4263 C   0  0  0  0  0  0  0  0  0  0  0  0
   -3.4372   -0.2316    1.6073 C   0  0  0  0  0  0  0  0  0  0  0  0
   -2.1507   -0.9241    1.7955 C   0  0  0  0  0  0  0  0  0  0  0  0
   -1.2455   -1.0933    0.6252 C   0  0  2  0  0  0  0  0  0  0  0  0
   -0.2886   -0.0975    0.6033 O   0  0  0  0  0  0  0  0  0  0  0  0
   -1.9698   -1.3461   -0.6192 C   0  0  0  0  0  0  0  0  0  0  0  0
   -3.4344   -1.0941   -0.6669 C   0  0  1  0  0  0  0  0  0  0  0  0
   -4.1257   -2.4096   -0.5419 C   0  0  0  0  0  0  0  0  0  0  0  0
   -5.4730   -2.3546    0.1299 C   0  0  0  0  0  0  0  0  0  0  0  0
   -6.1240   -1.1172   -0.3608 C   0  0  2  0  0  0  0  0  0  0  0  0
   -5.4467    0.0685    0.2628 C   0  0  1  0  0  0  0  0  0  0  0  0
   -3.9471   -0.0164    0.2208 C   0  0  1  0  0  0  0  0  0  0  0  0
   -5.9806    1.2187   -0.5598 C   0  0  0  0  0  0  0  0  0  0  0  0
   -7.4376    1.3868   -0.5640 C   0  0  1  0  0  0  0  0  0  0  0  0
   -7.7476    2.1495   -1.7142 O   0  0  0  0  0  0  0  0  0  0  0  0
   -8.3110    0.1789   -0.4131 C   0  0  1  0  0  0  0  0  0  0  0  0
   -7.5748   -1.0927   -0.1196 C   0  0  1  0  0  0  0  0  0  0  0  0
   -8.1106   -2.1962   -0.8418 O   0  0  0  0  0  0  0  0  0  0  0  0
   -7.9254   -1.4480    1.3352 C   0  0  0  0  0  0  0  0  0  0  0  0
   -9.3897   -1.0606    1.2938 C   0  0  0  0  0  0  0  0  0  0  0  0
   -9.2678    0.3285    0.6869 C   0  0  2  0  0  0  0  0  0  0  0  0
   -8.9167   -0.0405   -1.7992 C   0  0  0  0  0  0  0  0  0  0  0  0
   -3.4602    1.3433   -0.2383 C   0  0  0  0  0  0  0  0  0  0  0  0
    0.9877   -0.4993    0.8226 C   0  0  1  0  0  0  0  0  0  0  0  0
    5.8177    0.6753   -0.0290 C   0  0  2  0  0  0  0  0  0  0  0  0
   10.6905    0.1531   -1.5779 C   0  0  2  0  0  0  0  0  0  0  0  0
  -10.5971    0.9096    0.5824 C   0  0  1  0  0  0  0  0  0  0  0  0
  -10.8067    2.2773    0.1091 C   0  0  0  0  0  0  0  0  0  0  0  0
  -11.5566    2.2876   -1.0656 O   0  0  0  0  0  0  0  0  0  0  0  0
  -11.6495    0.1364   -0.1710 C   0  0  0  0  0  0  0  0  0  0  0  0
  -12.1620    1.0785   -1.2302 C   0  0  0  0  0  0  0  0  0  0  0  0
  -13.5641    1.1597   -1.2441 O   0  0  0  0  0  0  0  0  0  0  0  0
    1.7954   -0.1882   -0.4339 C   0  0  0  0  0  0  0  0  0  0  0  0
    6.8222   -0.2972    0.5476 C   0  0  0  0  0  0  0  0  0  0  0  0
   11.7458    1.1917   -1.3795 C   0  0  0  0  0  0  0  0  0  0  0  0
    2.5047    1.1432   -0.1993 C   0  0  2  0  0  0  0  0  0  0  0  0
    2.9436    1.7254   -1.3658 O   0  0  0  0  0  0  0  0  0  0  0  0
    7.5329   -0.9006   -0.6789 C   0  0  2  0  0  0  0  0  0  0  0  0
    8.3940   -1.8655   -0.1555 O   0  0  0  0  0  0  0  0  0  0  0  0
   12.0472    1.3938    0.1128 C   0  0  2  0  0  0  0  0  0  0  0  0
   13.3097    1.8895    0.3334 O   0  0  0  0  0  0  0  0  0  0  0  0
    3.6587    0.7939    0.7514 C   0  0  2  0  0  0  0  0  0  0  0  0
    4.5798    0.0825   -0.0438 O   0  0  0  0  0  0  0  0  0  0  0  0
    8.3866    0.2223   -1.2180 C   0  0  2  0  0  0  0  0  0  0  0  0
    9.6355    0.2678   -0.6850 O   0  0  0  0  0  0  0  0  0  0  0  0
   11.8779    0.0517    0.7615 C   0  0  2  0  0  0  0  0  0  0  0  0
   12.8638   -0.0456    1.7704 O   0  0  0  0  0  0  0  0  0  0  0  0
    3.0290   -0.1145    1.8143 C   0  0  2  0  0  0  0  0  0  0  0  0
    1.6436    0.1338    1.8819 O   0  0  0  0  0  0  0  0  0  0  0  0
    7.5922    1.5049   -1.0865 C   0  0  2  0  0  0  0  0  0  0  0  0
    6.2433    1.1474   -1.2800 O   0  0  0  0  0  0  0  0  0  0  0  0
   12.1982   -1.0194   -0.2513 C   0  0  2  0  0  0  0  0  0  0  0  0
   11.2817   -1.0984   -1.2696 O   0  0  0  0  0  0  0  0  0  0  0  0
    3.6101    0.3119    3.1604 C   0  0  0  0  0  0  0  0  0  0  0  0
    7.9291    2.4729   -2.1996 C   0  0  0  0  0  0  0  0  0  0  0  0
   12.4077   -2.3701    0.4263 C   0  0  0  0  0  0  0  0  0  0  0  0
   -4.2316   -0.6689    2.2826 H   0  0  0  0  0  0  0  0  0  0  0  0
   -3.3130    0.8106    2.0621 H   0  0  0  0  0  0  0  0  0  0  0  0
   -1.5810   -0.4322    2.6638 H   0  0  0  0  0  0  0  0  0  0  0  0
   -2.3952   -1.9346    2.2755 H   0  0  0  0  0  0  0  0  0  0  0  0
   -0.6294   -2.0362    0.8560 H   0  0  0  0  0  0  0  0  0  0  0  0
   -1.8100   -2.4340   -0.9165 H   0  0  0  0  0  0  0  0  0  0  0  0
   -1.5124   -0.8207   -1.5156 H   0  0  0  0  0  0  0  0  0  0  0  0
   -3.6882   -0.7434   -1.7278 H   0  0  0  0  0  0  0  0  0  0  0  0
   -3.5233   -3.1708    0.0037 H   0  0  0  0  0  0  0  0  0  0  0  0
   -4.3001   -2.8824   -1.5539 H   0  0  0  0  0  0  0  0  0  0  0  0
   -5.4023   -2.4403    1.2400 H   0  0  0  0  0  0  0  0  0  0  0  0
   -6.0537   -3.2432   -0.2207 H   0  0  0  0  0  0  0  0  0  0  0  0
   -5.9492   -1.0702   -1.4630 H   0  0  0  0  0  0  0  0  0  0  0  0
   -5.8027    0.2078    1.2919 H   0  0  0  0  0  0  0  0  0  0  0  0
   -5.6701    0.9740   -1.6232 H   0  0  0  0  0  0  0  0  0  0  0  0
   -5.5089    2.1940   -0.3174 H   0  0  0  0  0  0  0  0  0  0  0  0
   -7.6944    2.0869    0.2812 H   0  0  0  0  0  0  0  0  0  0  0  0
   -7.0762    2.8762   -1.7481 H   0  0  0  0  0  0  0  0  0  0  0  0
   -8.2121   -2.9924   -0.2885 H   0  0  0  0  0  0  0  0  0  0  0  0
   -7.4225   -0.8250    2.0609 H   0  0  0  0  0  0  0  0  0  0  0  0
   -7.8328   -2.5391    1.5191 H   0  0  0  0  0  0  0  0  0  0  0  0
   -9.8940   -1.7692    0.6201 H   0  0  0  0  0  0  0  0  0  0  0  0
   -9.7547   -1.0454    2.3260 H   0  0  0  0  0  0  0  0  0  0  0  0
   -8.6984    0.8994    1.4936 H   0  0  0  0  0  0  0  0  0  0  0  0
   -8.0153   -0.1115   -2.4917 H   0  0  0  0  0  0  0  0  0  0  0  0
   -9.3968   -1.0213   -1.9093 H   0  0  0  0  0  0  0  0  0  0  0  0
   -9.4615    0.8206   -2.1863 H   0  0  0  0  0  0  0  0  0  0  0  0
   -3.6916    2.1197    0.5498 H   0  0  0  0  0  0  0  0  0  0  0  0
   -2.3364    1.3982   -0.3146 H   0  0  0  0  0  0  0  0  0  0  0  0
   -3.7998    1.6263   -1.2405 H   0  0  0  0  0  0  0  0  0  0  0  0
    1.1146   -1.5867    0.9946 H   0  0  0  0  0  0  0  0  0  0  0  0
    5.7874    1.5777    0.6278 H   0  0  0  0  0  0  0  0  0  0  0  0
   10.4205    0.0808   -2.6283 H   0  0  0  0  0  0  0  0  0  0  0  0
  -11.0007    0.8888    1.6584 H   0  0  0  0  0  0  0  0  0  0  0  0
  -11.4495    2.8747    0.8295 H   0  0  0  0  0  0  0  0  0  0  0  0
   -9.9158    2.9205    0.0234 H   0  0  0  0  0  0  0  0  0  0  0  0
  -12.5594   -0.1102    0.4589 H   0  0  0  0  0  0  0  0  0  0  0  0
  -11.3324   -0.8439   -0.5525 H   0  0  0  0  0  0  0  0  0  0  0  0
  -11.8745    0.6452   -2.2133 H   0  0  0  0  0  0  0  0  0  0  0  0
  -13.9454    0.4784   -0.6721 H   0  0  0  0  0  0  0  0  0  0  0  0
    2.4832   -0.9916   -0.7023 H   0  0  0  0  0  0  0  0  0  0  0  0
    1.1113   -0.0293   -1.2969 H   0  0  0  0  0  0  0  0  0  0  0  0
    6.2994   -1.0853    1.0903 H   0  0  0  0  0  0  0  0  0  0  0  0
    7.5467    0.2922    1.1468 H   0  0  0  0  0  0  0  0  0  0  0  0
   12.6874    0.8359   -1.8445 H   0  0  0  0  0  0  0  0  0  0  0  0
   11.4779    2.1978   -1.7670 H   0  0  0  0  0  0  0  0  0  0  0  0
    1.8295    1.7934    0.4042 H   0  0  0  0  0  0  0  0  0  0  0  0
    3.3266    2.6004   -1.1254 H   0  0  0  0  0  0  0  0  0  0  0  0
    6.8142   -1.2894   -1.3961 H   0  0  0  0  0  0  0  0  0  0  0  0
    8.5679   -2.5222   -0.8721 H   0  0  0  0  0  0  0  0  0  0  0  0
   11.3040    2.0923    0.5752 H   0  0  0  0  0  0  0  0  0  0  0  0
   13.5513    1.7233    1.2828 H   0  0  0  0  0  0  0  0  0  0  0  0
    4.1229    1.6747    1.2043 H   0  0  0  0  0  0  0  0  0  0  0  0
    8.4788    0.0630   -2.3268 H   0  0  0  0  0  0  0  0  0  0  0  0
   10.9040   -0.1010    1.2518 H   0  0  0  0  0  0  0  0  0  0  0  0
   12.4932   -0.4316    2.6074 H   0  0  0  0  0  0  0  0  0  0  0  0
    3.2824   -1.1628    1.6681 H   0  0  0  0  0  0  0  0  0  0  0  0
    7.6457    1.9563   -0.0748 H   0  0  0  0  0  0  0  0  0  0  0  0
   13.1915   -0.7621   -0.6946 H   0  0  0  0  0  0  0  0  0  0  0  0
    3.0715   -0.1524    4.0031 H   0  0  0  0  0  0  0  0  0  0  0  0
    3.6088    1.4098    3.2191 H   0  0  0  0  0  0  0  0  0  0  0  0
    4.6648   -0.0352    3.1842 H   0  0  0  0  0  0  0  0  0  0  0  0
    7.2921    2.2823   -3.0894 H   0  0  0  0  0  0  0  0  0  0  0  0
    9.0107    2.4138   -2.4824 H   0  0  0  0  0  0  0  0  0  0  0  0
    7.7458    3.5245   -1.8996 H   0  0  0  0  0  0  0  0  0  0  0  0
   13.3567   -2.2628    1.0024 H   0  0  0  0  0  0  0  0  0  0  0  0
   11.6285   -2.6006    1.1567 H   0  0  0  0  0  0  0  0  0  0  0  0
   12.4877   -3.1200   -0.3915 H   0  0  0  0  0  0  0  0  0  0  0  0
   -4.2316   -0.6689    2.2826 H   0  0  0  0  0  0  0  0  0  0  0  0
   -3.3130    0.8106    2.0621 H   0  0  0  0  0  0  0  0  0  0  0  0
   -1.5810   -0.4322    2.6638 H   0  0  0  0  0  0  0  0  0  0  0  0
   -2.3952   -1.9346    2.2755 H   0  0  0  0  0  0  0  0  0  0  0  0
   -0.6294   -2.0362    0.8560 H   0  0  0  0  0  0  0  0  0  0  0  0
   -1.8100   -2.4340   -0.9165 H   0  0  0  0  0  0  0  0  0  0  0  0
   -1.5124   -0.8207   -1.5156 H   0  0  0  0  0  0  0  0  0  0  0  0
   -3.6882   -0.7434   -1.7278 H   0  0  0  0  0  0  0  0  0  0  0  0
   -3.5233   -3.1708    0.0037 H   0  0  0  0  0  0  0  0  0  0  0  0
   -4.3001   -2.8824   -1.5539 H   0  0  0  0  0  0  0  0  0  0  0  0
   -5.4023   -2.4403    1.2400 H   0  0  0  0  0  0  0  0  0  0  0  0
   -6.0537   -3.2432   -0.2207 H   0  0  0  0  0  0  0  0  0  0  0  0
   -5.9492   -1.0702   -1.4630 H   0  0  0  0  0  0  0  0  0  0  0  0
   -5.8027    0.2078    1.2919 H   0  0  0  0  0  0  0  0  0  0  0  0
   -5.6701    0.9740   -1.6232 H   0  0  0  0  0  0  0  0  0  0  0  0
   -5.5089    2.1940   -0.3174 H   0  0  0  0  0  0  0  0  0  0  0  0
   -7.6944    2.0869    0.2812 H   0  0  0  0  0  0  0  0  0  0  0  0
   -7.0762    2.8762   -1.7481 H   0  0  0  0  0  0  0  0  0  0  0  0
   -8.2121   -2.9924   -0.2885 H   0  0  0  0  0  0  0  0  0  0  0  0
   -7.4225   -0.8250    2.0609 H   0  0  0  0  0  0  0  0  0  0  0  0
   -7.8328   -2.5391    1.5191 H   0  0  0  0  0  0  0  0  0  0  0  0
   -9.8940   -1.7692    0.6201 H   0  0  0  0  0  0  0  0  0  0  0  0
   -9.7547   -1.0454    2.3260 H   0  0  0  0  0  0  0  0  0  0  0  0
   -8.6984    0.8994    1.4936 H   0  0  0  0  0  0  0  0  0  0  0  0
   -8.0153   -0.1115   -2.4917 H   0  0  0  0  0  0  0  0  0  0  0  0
   -9.3968   -1.0213   -1.9093 H   0  0  0  0  0  0  0  0  0  0  0  0
   -9.4615    0.8206   -2.1863 H   0  0  0  0  0  0  0  0  0  0  0  0
   -3.6916    2.1197    0.5498 H   0  0  0  0  0  0  0  0  0  0  0  0
   -2.3364    1.3982   -0.3146 H   0  0  0  0  0  0  0  0  0  0  0  0
   -3.7998    1.6263   -1.2405 H   0  0  0  0  0  0  0  0  0  0  0  0
    1.1146   -1.5867    0.9946 H   0  0  0  0  0  0  0  0  0  0  0  0
    5.7874    1.5777    0.6278 H   0  0  0  0  0  0  0  0  0  0  0  0
   10.4205    0.0808   -2.6283 H   0  0  0  0  0  0  0  0  0  0  0  0
  -11.0007    0.8888    1.6584 H   0  0  0  0  0  0  0  0  0  0  0  0
  -11.4495    2.8747    0.8295 H   0  0  0  0  0  0  0  0  0  0  0  0
   -9.9158    2.9205    0.0234 H   0  0  0  0  0  0  0  0  0  0  0  0
  -12.5594   -0.1102    0.4589 H   0  0  0  0  0  0  0  0  0  0  0  0
  -11.3324   -0.8439   -0.5525 H   0  0  0  0  0  0  0  0  0  0  0  0
  -11.8745    0.6452   -2.2133 H   0  0  0  0  0  0  0  0  0  0  0  0
  -13.9454    0.4784   -0.6721 H   0  0  0  0  0  0  0  0  0  0  0  0
    2.4832   -0.9916   -0.7023 H   0  0  0  0  0  0  0  0  0  0  0  0
    1.1113   -0.0293   -1.2969 H   0  0  0  0  0  0  0  0  0  0  0  0
    6.2994   -1.0853    1.0903 H   0  0  0  0  0  0  0  0  0  0  0  0
    7.5467    0.2922    1.1468 H   0  0  0  0  0  0  0  0  0  0  0  0
   12.6874    0.8359   -1.8445 H   0  0  0  0  0  0  0  0  0  0  0  0
   11.4779    2.1978   -1.7670 H   0  0  0  0  0  0  0  0  0  0  0  0
    1.8295    1.7934    0.4042 H   0  0  0  0  0  0  0  0  0  0  0  0
    3.3266    2.6004   -1.1254 H   0  0  0  0  0  0  0  0  0  0  0  0
    6.8142   -1.2894   -1.3961 H   0  0  0  0  0  0  0  0  0  0  0  0
    8.5679   -2.5222   -0.8721 H   0  0  0  0  0  0  0  0  0  0  0  0
   11.3040    2.0923    0.5752 H   0  0  0  0  0  0  0  0  0  0  0  0
   13.5513    1.7233    1.2828 H   0  0  0  0  0  0  0  0  0  0  0  0
    4.1229    1.6747    1.2043 H   0  0  0  0  0  0  0  0  0  0  0  0
    8.4788    0.0630   -2.3268 H   0  0  0  0  0  0  0  0  0  0  0  0
   10.9040   -0.1010    1.2518 H   0  0  0  0  0  0  0  0  0  0  0  0
   12.4932   -0.4316    2.6074 H   0  0  0  0  0  0  0  0  0  0  0  0
    3.2824   -1.1628    1.6681 H   0  0  0  0  0  0  0  0  0  0  0  0
    7.6457    1.9563   -0.0748 H   0  0  0  0  0  0  0  0  0  0  0  0
   13.1915   -0.7621   -0.6946 H   0  0  0  0  0  0  0  0  0  0  0  0
    3.0715   -0.1524    4.0031 H   0  0  0  0  0  0  0  0  0  0  0  0
    3.6088    1.4098    3.2191 H   0  0  0  0  0  0  0  0  0  0  0  0
    4.6648   -0.0352    3.1842 H   0  0  0  0  0  0  0  0  0  0  0  0
    7.2921    2.2823   -3.0894 H   0  0  0  0  0  0  0  0  0  0  0  0
    9.0107    2.4138   -2.4824 H   0  0  0  0  0  0  0  0  0  0  0  0
    7.7458    3.5245   -1.8996 H   0  0  0  0  0  0  0  0  0  0  0  0
   13.3567   -2.2628    1.0024 H   0  0  0  0  0  0  0  0  0  0  0  0
   11.6285   -2.6006    1.1567 H   0  0  0  0  0  0  0  0  0  0  0  0
   12.4877   -3.1200   -0.3915 H   0  0  0  0  0  0  0  0  0  0  0  0
  1  2  1  0
  2  3  1  0
  3  4  1  0
  3  5  1  0
  5  6  1  0
  6  7  1  0
  7  8  1  0
  8  9  1  0
  9 10  1  0
  1 11  1  0
  6 11  1  0
 10 11  1  0
 10 12  1  0
 12 13  1  0
 13 14  1  0
 13 15  1  0
  9 16  1  0
 15 16  1  0
 16 17  1  6
 16 18  1  0
 18 19  1  0
 15 20  1  0
 19 20  1  0
 15 21  1  6
 11 22  1  6
  4 23  1  0
 20 26  1  0
 26 27  1  0
 27 28  1  0
 26 29  1  0
 28 30  1  0
 29 30  1  0
 30 31  1  0
 23 32  1  0
 24 33  1  0
 25 34  1  0
 32 35  1  0
 35 36  1  0
 33 37  1  0
 37 38  1  0
 34 39  1  0
 39 40  1  0
 35 41  1  0
 24 42  1  0
 41 42  1  0
 37 43  1  0
 25 44  1  0
 43 44  1  0
 39 45  1  0
 45 46  1  0
 41 47  1  0
 23 48  1  0
 47 48  1  0
 43 49  1  0
 24 50  1  0
 49 50  1  0
 45 51  1  0
 25 52  1  0
 51 52  1  0
 47 53  1  0
 49 54  1  0
 51 55  1  0
 56 57  1  0
 57 58  1  0
 58 59  1  0
 58 60  1  0
 60 61  1  0
 61 62  1  0
 62 63  1  0
 63 64  1  0
 64 65  1  0
 56 66  1  0
 61 66  1  0
 65 66  1  0
 65 67  1  0
 67 68  1  0
 68 69  1  0
 68 70  1  0
 64 71  1  0
 70 71  1  0
 71 72  1  6
 71 73  1  0
 73 74  1  0
 70 75  1  0
 74 75  1  0
 70 76  1  6
 66 77  1  6
 59 78  1  0
 75 81  1  0
 81 82  1  0
 82 83  1  0
 81 84  1  0
 83 85  1  0
 84 85  1  0
 85 86  1  0
 78 87  1  0
 79 88  1  0
 80 89  1  0
 87 90  1  0
 90 91  1  0
 88 92  1  0
 92 93  1  0
 89 94  1  0
 94 95  1  0
 90 96  1  0
 79 97  1  0
 96 97  1  0
 92 98  1  0
 80 99  1  0
 98 99  1  0
 94100  1  0
100101  1  0
 96102  1  0
 78103  1  0
102103  1  0
 98104  1  0
 79105  1  0
104105  1  0
100106  1  0
 80107  1  0
106107  1  0
102108  1  0
104109  1  0
106110  1  0
  1111  1  0
  1112  1  0
  2113  1  0
  2114  1  0
  3115  1  1
  5116  1  0
  5117  1  0
  6118  1  6
  7119  1  0
  7120  1  0
  8121  1  0
  8122  1  0
  9123  1  6
 10124  1  1
 12125  1  0
 12126  1  0
 13127  1  1
 14128  1  0
 17129  1  0
 18130  1  0
 18131  1  0
 19132  1  0
 19133  1  0
 20134  1  1
 21135  1  0
 21136  1  0
 21137  1  0
 22138  1  0
 22139  1  0
 22140  1  0
 23141  1  1
 24142  1  1
 25143  1  6
 26144  1  1
 27145  1  0
 27146  1  0
 29147  1  0
 29148  1  0
 30149  1  0
 31150  1  0
 32151  1  0
 32152  1  0
 33153  1  0
 33154  1  0
 34155  1  0
 34156  1  0
 35157  1  1
 36158  1  0
 37159  1  6
 38160  1  0
 39161  1  1
 40162  1  0
 41163  1  1
 43164  1  6
 45165  1  1
 46166  1  0
 47167  1  6
 49168  1  1
 51169  1  6
 53170  1  0
 53171  1  0
 53172  1  0
 54173  1  0
 54174  1  0
 54175  1  0
 55176  1  0
 55177  1  0
 55178  1  0
 56179  1  0
 56180  1  0
 57181  1  0
 57182  1  0
 58183  1  1
 60184  1  0
 60185  1  0
 61186  1  6
 62187  1  0
 62188  1  0
 63189  1  0
 63190  1  0
 64191  1  6
 65192  1  1
 67193  1  0
 67194  1  0
 68195  1  1
 69196  1  0
 72197  1  0
 73198  1  0
 73199  1  0
 74200  1  0
 74201  1  0
 75202  1  1
 76203  1  0
 76204  1  0
 76205  1  0
 77206  1  0
 77207  1  0
 77208  1  0
 78209  1  1
 79210  1  1
 80211  1  6
 81212  1  1
 82213  1  0
 82214  1  0
 84215  1  0
 84216  1  0
 85217  1  0
 86218  1  0
 87219  1  0
 87220  1  0
 88221  1  0
 88222  1  0
 89223  1  0
 89224  1  0
 90225  1  1
 91226  1  0
 92227  1  6
 93228  1  0
 94229  1  1
 95230  1  0
 96231  1  1
 98232  1  6
100233  1  1
101234  1  0
102235  1  6
104236  1  1
106237  1  6
108238  1  0
108239  1  0
108240  1  0
109241  1  0
109242  1  0
109243  1  0
110244  1  0
110245  1  0
110246  1  0
M  END
>  <PDBID>  (1) 
4RET

>  <PDB ID>  (1) 
4RET

>  <Generic Name>  (1) 
Digoxin

>  <Brand Name>  (1) 
Apo-digoxin#Digitek#Digox#Digoxin#Digoxin Injection C.S.D.#Lanoxin#Lanoxin Elx 0.05mg/ml Pediatric#Lanoxin Inj 0.05mg/ml Pediatric#Lanoxin Inj 0.25mg/ml#Lanoxin Tab 0.0625mg#Lanoxin Tab 0.125mg#Lanoxin Tab 0.25mg#Novo-digoxin Tab 0.25mg#PMS-digoxin#Pediatric Digoxin Injection C.S.D.#Toloxin#Agoxin#Cardiacin#Cardiogoxin#Cardioxin#Cardoxin#Celoxin#Centoxin#Digacin#Digocard-G#Digoxina#Eudigox#Lanacordin#Lanacrist#Lanicor#Lanoxicaps#Lenoxin

>  <DrugBank ID>  (1) 
DB00390

>  <ATC Codes>  (1) 
C01AA05

>  <Ligand ID>  (1) 
DGX

>  <Target Name>  (1) 
Sodium/potassium-transporting ATPase subunit alpha-1

>  <UniProt ID>  (1) 
P05023

>  <PDB ID.1>  (1) 
4RET

>  <Seq. Identity>  (1) 
94%

$$$$
