PDB_DB06605_01
     RDKit          3D

 81 85  0  0  0  0  0  0  0  0999 V2000
    5.2006    1.3190    2.4627 C   0  0  0  0  0  0  0  0  0  0  0  0
    4.7718    2.4058    1.5506 C   0  0  0  0  0  0  0  0  0  0  0  0
    3.4381    2.0595    0.8505 C   0  0  0  0  0  0  0  0  0  0  0  0
    6.4806    1.5339    2.9279 O   0  0  0  0  0  0  0  0  0  0  0  0
    3.4170    0.0407   -2.2043 N   0  0  0  0  0  0  0  0  0  0  0  0
   -1.5038   -0.4835   -0.7353 C   0  0  0  0  0  0  0  0  0  0  0  0
    0.5205    0.8311   -1.2872 C   0  0  0  0  0  0  0  0  0  0  0  0
    3.0422   -1.3452   -2.1348 C   0  0  2  0  0  0  0  0  0  0  0  0
    3.1704   -2.0371   -3.4577 C   0  0  0  0  0  0  0  0  0  0  0  0
    1.7271   -1.3678   -1.4634 C   0  0  0  0  0  0  0  0  0  0  0  0
    1.6192   -0.0190   -0.7735 C   0  0  0  0  0  0  0  0  0  0  0  0
   -2.8084   -0.5552    1.3175 C   0  0  0  0  0  0  0  0  0  0  0  0
    6.4619    1.3756    4.3204 C   0  0  0  0  0  0  0  0  0  0  0  0
   -4.0121   -1.0387    0.6068 C   0  0  0  0  0  0  0  0  0  0  0  0
   -6.2740   -0.8840    1.4639 C   0  0  0  0  0  0  0  0  0  0  0  0
   -5.5102    0.7775   -0.0121 C   0  0  0  0  0  0  0  0  0  0  0  0
   -5.9862    1.9994    0.7833 C   0  0  0  0  0  0  0  0  0  0  0  0
   -2.6709   -1.0341   -1.5350 C   0  0  0  0  0  0  0  0  0  0  0  0
   -0.2899   -0.6991   -2.7818 C   0  0  0  0  0  0  0  0  0  0  0  0
    3.7840    0.8445   -0.0078 C   0  0  0  0  0  0  0  0  0  0  0  0
    3.9214   -0.2718    1.0455 C   0  0  0  0  0  0  0  0  0  0  0  0
    5.2530   -0.0195    1.7090 C   0  0  0  0  0  0  0  0  0  0  0  0
    2.8963    0.5161   -1.0204 N   0  0  0  0  0  0  0  0  0  0  0  0
   -0.6619    0.1407   -1.6731 N   0  0  0  0  0  0  0  0  0  0  0  0
   -1.8921    0.3004    0.4577 C   0  0  0  0  0  0  0  0  0  0  0  0
   -5.1460   -0.2017    0.9400 N   0  0  0  0  0  0  0  0  0  0  0  0
   -3.8979   -1.3458   -0.8267 C   0  0  0  0  0  0  0  0  0  0  0  0
    0.3055    1.9597   -0.5291 O   0  0  0  0  0  0  0  0  0  0  0  0
   -6.9847    1.4894    1.8037 C   0  0  0  0  0  0  0  0  0  0  0  0
   -6.0859   -1.5641    2.6351 O   0  0  0  0  0  0  0  0  0  0  0  0
   -7.4399    0.0882    1.4859 C   0  0  0  0  0  0  0  0  0  0  0  0
    2.4175   -1.5109   -4.4813 O   0  0  0  0  0  0  0  0  0  0  0  0
    4.5847   -1.8427   -3.8433 N   0  0  0  0  0  0  0  0  0  0  0  0
    0.5627   -1.7952   -2.2586 C   0  0  0  0  0  0  0  0  0  0  0  0
    4.4465    1.1339    3.2630 H   0  0  0  0  0  0  0  0  0  0  0  0
    5.5156    2.6167    0.7476 H   0  0  0  0  0  0  0  0  0  0  0  0
    4.6722    3.3677    2.1199 H   0  0  0  0  0  0  0  0  0  0  0  0
    2.6934    1.8502    1.6180 H   0  0  0  0  0  0  0  0  0  0  0  0
    3.1992    2.9501    0.2385 H   0  0  0  0  0  0  0  0  0  0  0  0
    2.9164    0.5174   -3.0053 H   0  0  0  0  0  0  0  0  0  0  0  0
   -0.9679   -1.3922   -0.3182 H   0  0  0  0  0  0  0  0  0  0  0  0
    0.8881    1.2706   -2.2779 H   0  0  0  0  0  0  0  0  0  0  0  0
    3.8595   -1.8257   -1.5016 H   0  0  0  0  0  0  0  0  0  0  0  0
    3.0891   -3.1370   -3.3249 H   0  0  0  0  0  0  0  0  0  0  0  0
    1.8264   -2.1162   -0.6163 H   0  0  0  0  0  0  0  0  0  0  0  0
    1.4814   -0.1390    0.3438 H   0  0  0  0  0  0  0  0  0  0  0  0
   -2.1791   -1.3911    1.6947 H   0  0  0  0  0  0  0  0  0  0  0  0
   -3.0713    0.0414    2.2138 H   0  0  0  0  0  0  0  0  0  0  0  0
    5.7688    2.0628    4.8237 H   0  0  0  0  0  0  0  0  0  0  0  0
    7.4895    1.5895    4.7195 H   0  0  0  0  0  0  0  0  0  0  0  0
    6.2154    0.2928    4.4757 H   0  0  0  0  0  0  0  0  0  0  0  0
   -4.2761   -2.0131    1.1520 H   0  0  0  0  0  0  0  0  0  0  0  0
   -6.5905   -1.6699    0.7009 H   0  0  0  0  0  0  0  0  0  0  0  0
   -6.3773    0.4732   -0.6276 H   0  0  0  0  0  0  0  0  0  0  0  0
   -4.6654    1.1162   -0.6555 H   0  0  0  0  0  0  0  0  0  0  0  0
   -5.1526    2.5399    1.2477 H   0  0  0  0  0  0  0  0  0  0  0  0
   -6.5178    2.6456    0.0668 H   0  0  0  0  0  0  0  0  0  0  0  0
   -2.8699   -0.2876   -2.3626 H   0  0  0  0  0  0  0  0  0  0  0  0
   -2.2811   -1.9225   -2.0798 H   0  0  0  0  0  0  0  0  0  0  0  0
   -1.0897   -1.0489   -3.4183 H   0  0  0  0  0  0  0  0  0  0  0  0
    0.3424   -0.0302   -3.4439 H   0  0  0  0  0  0  0  0  0  0  0  0
    4.8001    1.0130   -0.4035 H   0  0  0  0  0  0  0  0  0  0  0  0
    3.8843   -1.2694    0.6765 H   0  0  0  0  0  0  0  0  0  0  0  0
    3.1454   -0.1053    1.8547 H   0  0  0  0  0  0  0  0  0  0  0  0
    5.5596   -0.8410    2.3754 H   0  0  0  0  0  0  0  0  0  0  0  0
    6.0131    0.0630    0.9078 H   0  0  0  0  0  0  0  0  0  0  0  0
   -2.3256    1.2750    0.2297 H   0  0  0  0  0  0  0  0  0  0  0  0
   -0.9841    0.4012    1.1086 H   0  0  0  0  0  0  0  0  0  0  0  0
   -4.1785   -2.4255   -1.0163 H   0  0  0  0  0  0  0  0  0  0  0  0
   -4.7741   -0.8257   -1.3324 H   0  0  0  0  0  0  0  0  0  0  0  0
    0.6426    1.9114    0.3829 H   0  0  0  0  0  0  0  0  0  0  0  0
   -6.5804    1.5419    2.8391 H   0  0  0  0  0  0  0  0  0  0  0  0
   -7.8887    2.1292    1.7954 H   0  0  0  0  0  0  0  0  0  0  0  0
   -5.4754   -1.1748    3.2756 H   0  0  0  0  0  0  0  0  0  0  0  0
   -8.0041    0.0881    0.5241 H   0  0  0  0  0  0  0  0  0  0  0  0
   -8.1425   -0.2306    2.2621 H   0  0  0  0  0  0  0  0  0  0  0  0
    2.8465   -0.7209   -4.8915 H   0  0  0  0  0  0  0  0  0  0  0  0
    5.1969   -2.2531   -3.0955 H   0  0  0  0  0  0  0  0  0  0  0  0
    4.7277   -0.7879   -3.7639 H   0  0  0  0  0  0  0  0  0  0  0  0
    0.8456   -2.4277   -3.1614 H   0  0  0  0  0  0  0  0  0  0  0  0
   -0.0838   -2.5217   -1.6963 H   0  0  0  0  0  0  0  0  0  0  0  0
  1  2  1  0
  2  3  1  0
  1  4  1  0
  5  8  1  0
  8  9  1  0
  8 10  1  0
  7 11  1  0
 10 11  1  0
  4 13  1  0
 12 14  1  0
 16 17  1  0
  6 18  1  0
  3 20  1  0
 20 21  1  0
  1 22  1  0
 21 22  1  0
  5 23  1  0
 11 23  1  0
 20 23  1  0
  6 24  1  0
  7 24  1  0
 19 24  1  0
  6 25  1  0
 12 25  1  0
 14 26  1  0
 15 26  1  0
 16 26  1  0
 14 27  1  0
 18 27  1  0
  7 28  1  0
 17 29  1  0
 15 30  1  0
 15 31  1  0
 29 31  1  0
  9 32  1  0
  9 33  1  0
 10 34  1  0
 19 34  1  0
  1 35  1  0
  2 36  1  0
  2 37  1  0
  3 38  1  0
  3 39  1  0
  5 40  1  0
  6 41  1  0
  7 42  1  0
  8 43  1  1
  9 44  1  0
 10 45  1  0
 11 46  1  0
 12 47  1  0
 12 48  1  0
 13 49  1  0
 13 50  1  0
 13 51  1  0
 14 52  1  0
 15 53  1  0
 16 54  1  0
 16 55  1  0
 17 56  1  0
 17 57  1  0
 18 58  1  0
 18 59  1  0
 19 60  1  0
 19 61  1  0
 20 62  1  0
 21 63  1  0
 21 64  1  0
 22 65  1  0
 22 66  1  0
 25 67  1  0
 25 68  1  0
 27 69  1  0
 27 70  1  0
 28 71  1  0
 29 72  1  0
 29 73  1  0
 30 74  1  0
 31 75  1  0
 31 76  1  0
 32 77  1  0
 33 78  1  0
 33 79  1  0
 34 80  1  0
 34 81  1  0
M  END
>  <PDBID>  (1) 
2P16

>  <PDB ID>  (1) 
2P16

>  <Generic Name>  (1) 
Apixaban

>  <Brand Name>  (1) 
Eliquis

>  <DrugBank ID>  (1) 
DB06605

>  <ATC Codes>  (1) 
B01AF02

>  <Ligand ID>  (1) 
GG2

>  <Target Name>  (1) 
Coagulation factor X

>  <UniProt ID>  (1) 
P00742

>  <PDB ID.1>  (1) 
2P16

>  <Seq. Identity>  (1) 
100%

$$$$
