PDB_DB01092_06
     RDKit          3D

178188  0  0  0  0  0  0  0  0999 V2000
   -1.0698    0.6560   -1.2923 C   0  0  2  0  0  0  0  0  0  0  0  0
   -2.5399    0.7000   -1.3636 C   0  0  0  0  0  0  0  0  0  0  0  0
   -3.2323   -0.4853   -0.7489 C   0  0  1  0  0  0  0  0  0  0  0  0
   -2.5386   -1.0757    0.4109 C   0  0  0  0  0  0  0  0  0  0  0  0
   -1.0622   -1.0217    0.4631 C   0  0  1  0  0  0  0  0  0  0  0  0
   -0.4843   -2.1577   -0.3594 C   0  0  0  0  0  0  0  0  0  0  0  0
    0.9850   -2.3248   -0.1484 C   0  0  0  0  0  0  0  0  0  0  0  0
    1.6411   -1.0841    0.4086 C   0  0  2  0  0  0  0  0  0  0  0  0
    1.0389    0.1639   -0.1681 C   0  0  1  0  0  0  0  0  0  0  0  0
   -0.4475    0.2852    0.0153 C   0  0  1  0  0  0  0  0  0  0  0  0
    1.8550    1.3118    0.2981 C   0  0  1  0  0  0  0  0  0  0  0  0
    2.9760    0.9909    1.2374 C   0  0  0  0  0  0  0  0  0  0  0  0
    3.9309   -0.0782    0.8079 C   0  0  1  0  0  0  0  0  0  0  0  0
    3.1149   -1.1785    0.1720 C   0  0  2  0  0  0  0  0  0  0  0  0
    3.5399   -1.2549   -1.2673 C   0  0  0  0  0  0  0  0  0  0  0  0
    5.0379   -0.9282   -1.0799 C   0  0  0  0  0  0  0  0  0  0  0  0
    4.8963    0.3150   -0.2219 C   0  0  2  0  0  0  0  0  0  0  0  0
    4.5330   -0.6663    2.0687 C   0  0  0  0  0  0  0  0  0  0  0  0
   -0.8517    1.3476    1.0200 C   0  0  0  0  0  0  0  0  0  0  0  0
    6.1459    0.9909    0.1087 C   0  0  1  0  0  0  0  0  0  0  0  0
    7.1597    0.3746    0.9560 C   0  0  0  0  0  0  0  0  0  0  0  0
    6.9673    1.4487   -1.0712 C   0  0  0  0  0  0  0  0  0  0  0  0
    8.1483    0.5453   -1.0382 C   0  0  0  0  0  0  0  0  0  0  0  0
   -5.5191   -0.7234   -1.0233 C   0  0  2  0  0  0  0  0  0  0  0  0
   -6.4628   -1.4263   -0.0924 C   0  0  1  0  0  0  0  0  0  0  0  0
   -7.2328   -0.4879    0.7832 C   0  0  1  0  0  0  0  0  0  0  0  0
   -7.8082    0.6439   -0.0476 C   0  0  2  0  0  0  0  0  0  0  0  0
   -6.6494    1.2247   -0.8527 C   0  0  2  0  0  0  0  0  0  0  0  0
   -7.1424    2.4492   -1.5512 C   0  0  0  0  0  0  0  0  0  0  0  0
   -0.5864    1.9320   -1.6655 O   0  0  0  0  0  0  0  0  0  0  0  0
   -4.5003   -0.0588   -0.3507 O   0  0  0  0  0  0  0  0  0  0  0  0
   -0.7595   -1.2266    1.8395 O   0  0  0  0  0  0  0  0  0  0  0  0
    2.3100    2.1045   -0.7845 O   0  0  0  0  0  0  0  0  0  0  0  0
    3.4690   -2.4505    0.6933 O   0  0  0  0  0  0  0  0  0  0  0  0
   -0.3362    1.1214    2.2942 O   0  0  0  0  0  0  0  0  0  0  0  0
    8.4110    0.4252    0.3131 O   0  0  0  0  0  0  0  0  0  0  0  0
    9.2315    1.1785   -1.6451 O   0  0  0  0  0  0  0  0  0  0  0  0
   -7.3871   -2.1264   -0.8776 O   0  0  0  0  0  0  0  0  0  0  0  0
   -8.2983   -1.1826    1.3479 O   0  0  0  0  0  0  0  0  0  0  0  0
   -8.2924    1.6631    0.7712 O   0  0  0  0  0  0  0  0  0  0  0  0
   -6.2354    0.2344   -1.7352 O   0  0  0  0  0  0  0  0  0  0  0  0
   -0.7893    0.3650   -1.1529 C   0  0  2  0  0  0  0  0  0  0  0  0
   -2.2568    0.4608   -1.2790 C   0  0  0  0  0  0  0  0  0  0  0  0
   -3.0628   -0.5366   -0.5399 C   0  0  1  0  0  0  0  0  0  0  0  0
   -2.4860   -0.9879    0.7640 C   0  0  0  0  0  0  0  0  0  0  0  0
   -0.9843   -1.1401    0.7373 C   0  0  1  0  0  0  0  0  0  0  0  0
   -0.6659   -2.2225   -0.2640 C   0  0  0  0  0  0  0  0  0  0  0  0
    0.7575   -2.3292   -0.6605 C   0  0  0  0  0  0  0  0  0  0  0  0
    1.6685   -1.4021    0.0667 C   0  0  2  0  0  0  0  0  0  0  0  0
    1.1602   -0.0009    0.2696 C   0  0  1  0  0  0  0  0  0  0  0  0
   -0.3215    0.1430    0.3032 C   0  0  1  0  0  0  0  0  0  0  0  0
    1.8898    0.5183    1.4884 C   0  0  1  0  0  0  0  0  0  0  0  0
    3.2571   -0.0374    1.6549 C   0  0  0  0  0  0  0  0  0  0  0  0
    3.9320   -0.6098    0.4669 C   0  0  1  0  0  0  0  0  0  0  0  0
    3.0641   -1.4039   -0.4691 C   0  0  2  0  0  0  0  0  0  0  0  0
    3.2419   -0.8156   -1.8255 C   0  0  0  0  0  0  0  0  0  0  0  0
    4.6402   -0.2041   -1.7091 C   0  0  0  0  0  0  0  0  0  0  0  0
    4.5411    0.4555   -0.3746 C   0  0  2  0  0  0  0  0  0  0  0  0
    4.9684   -1.6077    1.0085 C   0  0  0  0  0  0  0  0  0  0  0  0
   -0.8356    1.3316    1.0461 C   0  0  0  0  0  0  0  0  0  0  0  0
    5.7819    1.0936    0.1179 C   0  0  0  0  0  0  0  0  0  0  0  0
    6.1941    2.2141   -0.8604 C   0  0  0  0  0  0  0  0  0  0  0  0
    7.0291    0.2831    0.0899 C   0  0  0  0  0  0  0  0  0  0  0  0
    8.0884    1.3723   -0.0365 C   0  0  0  0  0  0  0  0  0  0  0  0
   -5.3600   -0.6615   -0.8013 C   0  0  2  0  0  0  0  0  0  0  0  0
   -6.3904   -1.1395    0.1982 C   0  0  1  0  0  0  0  0  0  0  0  0
   -7.0697   -0.0159    0.9210 C   0  0  1  0  0  0  0  0  0  0  0  0
   -7.6846    0.8940   -0.1484 C   0  0  2  0  0  0  0  0  0  0  0  0
   -6.5300    1.3206   -1.0413 C   0  0  2  0  0  0  0  0  0  0  0  0
   -7.0480    2.2817   -2.0617 C   0  0  0  0  0  0  0  0  0  0  0  0
   -0.2444    1.6060   -1.5628 O   0  0  0  0  0  0  0  0  0  0  0  0
   -4.3231    0.0270   -0.2440 O   0  0  0  0  0  0  0  0  0  0  0  0
   -0.6099   -1.4847    2.0362 O   0  0  0  0  0  0  0  0  0  0  0  0
    1.8727    1.8998    1.5654 O   0  0  0  0  0  0  0  0  0  0  0  0
    3.4707   -2.7453   -0.5917 O   0  0  0  0  0  0  0  0  0  0  0  0
   -0.5698    1.3923    2.3851 O   0  0  0  0  0  0  0  0  0  0  0  0
    7.5095    2.5027   -0.5264 O   0  0  0  0  0  0  0  0  0  0  0  0
    9.1835    0.9286   -0.7700 O   0  0  0  0  0  0  0  0  0  0  0  0
   -7.3806   -1.8077   -0.5549 O   0  0  0  0  0  0  0  0  0  0  0  0
   -8.1411   -0.5495    1.6316 O   0  0  0  0  0  0  0  0  0  0  0  0
   -8.2591    2.0214    0.4284 O   0  0  0  0  0  0  0  0  0  0  0  0
   -6.0229    0.1969   -1.6925 O   0  0  0  0  0  0  0  0  0  0  0  0
   -0.6971   -0.0272   -2.1016 H   0  0  0  0  0  0  0  0  0  0  0  0
   -2.8371    0.7262   -2.4350 H   0  0  0  0  0  0  0  0  0  0  0  0
   -2.9257    1.6683   -0.9453 H   0  0  0  0  0  0  0  0  0  0  0  0
   -3.4003   -1.2712   -1.5258 H   0  0  0  0  0  0  0  0  0  0  0  0
   -2.9934   -0.6646    1.3625 H   0  0  0  0  0  0  0  0  0  0  0  0
   -2.8221   -2.1708    0.4591 H   0  0  0  0  0  0  0  0  0  0  0  0
   -1.0647   -3.0766   -0.0677 H   0  0  0  0  0  0  0  0  0  0  0  0
   -0.7681   -1.9541   -1.4123 H   0  0  0  0  0  0  0  0  0  0  0  0
    1.1249   -3.1576    0.5853 H   0  0  0  0  0  0  0  0  0  0  0  0
    1.5175   -2.6746   -1.0740 H   0  0  0  0  0  0  0  0  0  0  0  0
    1.5241   -1.1435    1.5154 H   0  0  0  0  0  0  0  0  0  0  0  0
    1.2241    0.0966   -1.2878 H   0  0  0  0  0  0  0  0  0  0  0  0
    1.2214    2.0540    0.8750 H   0  0  0  0  0  0  0  0  0  0  0  0
    3.4973    1.9781    1.4166 H   0  0  0  0  0  0  0  0  0  0  0  0
    2.5764    0.7146    2.2425 H   0  0  0  0  0  0  0  0  0  0  0  0
    3.4200   -2.2453   -1.7221 H   0  0  0  0  0  0  0  0  0  0  0  0
    3.1062   -0.5047   -1.9182 H   0  0  0  0  0  0  0  0  0  0  0  0
    5.3962   -0.7315   -2.0859 H   0  0  0  0  0  0  0  0  0  0  0  0
    5.5162   -1.7626   -0.5535 H   0  0  0  0  0  0  0  0  0  0  0  0
    4.3321    0.9992   -0.9215 H   0  0  0  0  0  0  0  0  0  0  0  0
    3.7324   -0.8453    2.8498 H   0  0  0  0  0  0  0  0  0  0  0  0
    5.2056    0.0516    2.5912 H   0  0  0  0  0  0  0  0  0  0  0  0
    4.9652   -1.6689    1.9160 H   0  0  0  0  0  0  0  0  0  0  0  0
   -1.9688    1.2067    1.1610 H   0  0  0  0  0  0  0  0  0  0  0  0
   -0.7507    2.3701    0.6528 H   0  0  0  0  0  0  0  0  0  0  0  0
    5.8592    1.9706    0.6157 H   0  0  0  0  0  0  0  0  0  0  0  0
    7.3503    0.9013    1.9276 H   0  0  0  0  0  0  0  0  0  0  0  0
    7.0299   -0.6785    1.2357 H   0  0  0  0  0  0  0  0  0  0  0  0
    7.3688    2.4981   -0.9445 H   0  0  0  0  0  0  0  0  0  0  0  0
    6.4216    1.4653   -2.0190 H   0  0  0  0  0  0  0  0  0  0  0  0
    8.0047   -0.4204   -1.5369 H   0  0  0  0  0  0  0  0  0  0  0  0
   -5.1130   -1.4570   -1.7390 H   0  0  0  0  0  0  0  0  0  0  0  0
   -5.9376   -2.1677    0.5374 H   0  0  0  0  0  0  0  0  0  0  0  0
   -6.5901   -0.0059    1.5598 H   0  0  0  0  0  0  0  0  0  0  0  0
   -8.5891    0.3248   -0.7364 H   0  0  0  0  0  0  0  0  0  0  0  0
   -5.8459    1.4479   -0.1334 H   0  0  0  0  0  0  0  0  0  0  0  0
   -8.0991    2.8059   -1.0953 H   0  0  0  0  0  0  0  0  0  0  0  0
   -7.3604    2.2730   -2.6270 H   0  0  0  0  0  0  0  0  0  0  0  0
   -6.4242    3.3055   -1.4354 H   0  0  0  0  0  0  0  0  0  0  0  0
   -1.1719    2.2460   -2.3850 H   0  0  0  0  0  0  0  0  0  0  0  0
   -1.1395   -2.0852    2.1229 H   0  0  0  0  0  0  0  0  0  0  0  0
    2.1478    1.6769   -1.6390 H   0  0  0  0  0  0  0  0  0  0  0  0
    2.9390   -2.6445    1.5081 H   0  0  0  0  0  0  0  0  0  0  0  0
   -0.3318    2.0251    2.7448 H   0  0  0  0  0  0  0  0  0  0  0  0
   10.0859    0.7610   -1.3470 H   0  0  0  0  0  0  0  0  0  0  0  0
   -7.4432   -1.7419   -1.8047 H   0  0  0  0  0  0  0  0  0  0  0  0
   -8.5690   -1.9344    0.7839 H   0  0  0  0  0  0  0  0  0  0  0  0
   -8.6794    1.2985    1.6196 H   0  0  0  0  0  0  0  0  0  0  0  0
   -0.3886   -0.3776   -1.8351 H   0  0  0  0  0  0  0  0  0  0  0  0
   -2.4929    0.3264   -2.3789 H   0  0  0  0  0  0  0  0  0  0  0  0
   -2.6586    1.4956   -1.0637 H   0  0  0  0  0  0  0  0  0  0  0  0
   -3.2845   -1.4311   -1.1779 H   0  0  0  0  0  0  0  0  0  0  0  0
   -2.8249   -0.3184    1.5978 H   0  0  0  0  0  0  0  0  0  0  0  0
   -2.9047   -1.9874    1.0089 H   0  0  0  0  0  0  0  0  0  0  0  0
   -1.0949   -3.1701    0.1808 H   0  0  0  0  0  0  0  0  0  0  0  0
   -1.3271   -2.0526   -1.1644 H   0  0  0  0  0  0  0  0  0  0  0  0
    1.0700   -3.3828   -0.3706 H   0  0  0  0  0  0  0  0  0  0  0  0
    0.9427   -2.3440   -1.7682 H   0  0  0  0  0  0  0  0  0  0  0  0
    1.7700   -1.8345    1.1048 H   0  0  0  0  0  0  0  0  0  0  0  0
    1.5051    0.6860   -0.5622 H   0  0  0  0  0  0  0  0  0  0  0  0
    1.3303    0.1564    2.4049 H   0  0  0  0  0  0  0  0  0  0  0  0
    3.9159    0.8207    1.9971 H   0  0  0  0  0  0  0  0  0  0  0  0
    3.3425   -0.7515    2.5308 H   0  0  0  0  0  0  0  0  0  0  0  0
    3.2230   -1.5830   -2.6403 H   0  0  0  0  0  0  0  0  0  0  0  0
    2.5811   -0.0144   -2.1241 H   0  0  0  0  0  0  0  0  0  0  0  0
    4.8320    0.4601   -2.5622 H   0  0  0  0  0  0  0  0  0  0  0  0
    5.3537   -1.0656   -1.6981 H   0  0  0  0  0  0  0  0  0  0  0  0
    3.7829    1.2827   -0.4837 H   0  0  0  0  0  0  0  0  0  0  0  0
    5.6786   -1.9105    0.2477 H   0  0  0  0  0  0  0  0  0  0  0  0
    4.3671   -2.5398    1.2410 H   0  0  0  0  0  0  0  0  0  0  0  0
    5.3542   -1.2972    1.9802 H   0  0  0  0  0  0  0  0  0  0  0  0
   -1.9573    1.4308    0.9447 H   0  0  0  0  0  0  0  0  0  0  0  0
   -0.4702    2.2980    0.5864 H   0  0  0  0  0  0  0  0  0  0  0  0
    5.6995    1.5822    1.0938 H   0  0  0  0  0  0  0  0  0  0  0  0
    6.1269    1.8226   -1.8793 H   0  0  0  0  0  0  0  0  0  0  0  0
    5.4903    3.0344   -0.6863 H   0  0  0  0  0  0  0  0  0  0  0  0
    7.1171   -0.3262   -0.8357 H   0  0  0  0  0  0  0  0  0  0  0  0
    7.2420   -0.2991    1.0126 H   0  0  0  0  0  0  0  0  0  0  0  0
    8.4489    1.6021    1.0049 H   0  0  0  0  0  0  0  0  0  0  0  0
   -5.0584   -1.5472   -1.3940 H   0  0  0  0  0  0  0  0  0  0  0  0
   -5.9616   -1.8453    0.9311 H   0  0  0  0  0  0  0  0  0  0  0  0
   -6.4004    0.5907    1.5360 H   0  0  0  0  0  0  0  0  0  0  0  0
   -8.4640    0.3521   -0.7201 H   0  0  0  0  0  0  0  0  0  0  0  0
   -5.7695    1.7697   -0.3775 H   0  0  0  0  0  0  0  0  0  0  0  0
   -8.0018    2.7224   -1.7045 H   0  0  0  0  0  0  0  0  0  0  0  0
   -7.2769    1.8074   -3.0378 H   0  0  0  0  0  0  0  0  0  0  0  0
   -6.3520    3.1586   -2.2027 H   0  0  0  0  0  0  0  0  0  0  0  0
   -0.1661    1.5879   -2.5499 H   0  0  0  0  0  0  0  0  0  0  0  0
   -1.2436   -1.1779    2.7118 H   0  0  0  0  0  0  0  0  0  0  0  0
    2.0187    2.3658    0.7306 H   0  0  0  0  0  0  0  0  0  0  0  0
    3.0278   -3.3619    0.0038 H   0  0  0  0  0  0  0  0  0  0  0  0
   -0.5924    2.3291    2.7021 H   0  0  0  0  0  0  0  0  0  0  0  0
    9.6734    0.2900   -0.1663 H   0  0  0  0  0  0  0  0  0  0  0  0
   -7.4979   -1.3960   -1.4475 H   0  0  0  0  0  0  0  0  0  0  0  0
   -8.3907   -1.4515    1.3104 H   0  0  0  0  0  0  0  0  0  0  0  0
   -8.5299    1.8875    1.3685 H   0  0  0  0  0  0  0  0  0  0  0  0
  1  2  1  0
  2  3  1  0
  3  4  1  0
  4  5  1  0
  5  6  1  0
  6  7  1  0
  7  8  1  0
  8  9  1  0
  1 10  1  0
  5 10  1  0
  9 10  1  0
  9 11  1  0
 11 12  1  0
 12 13  1  0
  8 14  1  0
 13 14  1  0
 14 15  1  0
 15 16  1  0
 13 17  1  0
 16 17  1  0
 13 18  1  1
 10 19  1  1
 17 20  1  0
 20 21  1  0
 20 22  1  0
 22 23  1  0
 24 25  1  0
 25 26  1  0
 26 27  1  0
 27 28  1  0
 28 29  1  0
  1 30  1  0
  3 31  1  0
 24 31  1  0
  5 32  1  1
 11 33  1  0
 14 34  1  1
 19 35  1  0
 21 36  1  0
 23 36  1  0
 23 37  1  0
 25 38  1  0
 26 39  1  0
 27 40  1  0
 24 41  1  0
 28 41  1  0
 42 43  1  0
 43 44  1  0
 44 45  1  0
 45 46  1  0
 46 47  1  0
 47 48  1  0
 48 49  1  0
 49 50  1  0
 42 51  1  0
 46 51  1  0
 50 51  1  0
 50 52  1  0
 52 53  1  0
 53 54  1  0
 49 55  1  0
 54 55  1  0
 55 56  1  0
 56 57  1  0
 54 58  1  0
 57 58  1  0
 54 59  1  1
 51 60  1  1
 58 61  1  0
 61 62  1  0
 61 63  1  0
 63 64  1  0
 65 66  1  0
 66 67  1  0
 67 68  1  0
 68 69  1  0
 69 70  1  0
 42 71  1  0
 44 72  1  0
 65 72  1  0
 46 73  1  1
 52 74  1  0
 55 75  1  6
 60 76  1  0
 62 77  1  0
 64 77  1  0
 64 78  1  0
 66 79  1  0
 67 80  1  0
 68 81  1  0
 65 82  1  0
 69 82  1  0
  1 83  1  6
  2 84  1  0
  2 85  1  0
  3 86  1  6
  4 87  1  0
  4 88  1  0
  6 89  1  0
  6 90  1  0
  7 91  1  0
  7 92  1  0
  8 93  1  1
  9 94  1  6
 11 95  1  1
 12 96  1  0
 12 97  1  0
 15 98  1  0
 15 99  1  0
 16100  1  0
 16101  1  0
 17102  1  6
 18103  1  0
 18104  1  0
 18105  1  0
 19106  1  0
 19107  1  0
 20108  1  1
 21109  1  0
 21110  1  0
 22111  1  0
 22112  1  0
 23113  1  0
 24114  1  6
 25115  1  1
 26116  1  1
 27117  1  6
 28118  1  1
 29119  1  0
 29120  1  0
 29121  1  0
 30122  1  0
 32123  1  0
 33124  1  0
 34125  1  0
 35126  1  0
 37127  1  0
 38128  1  0
 39129  1  0
 40130  1  0
 42131  1  6
 43132  1  0
 43133  1  0
 44134  1  6
 45135  1  0
 45136  1  0
 47137  1  0
 47138  1  0
 48139  1  0
 48140  1  0
 49141  1  1
 50142  1  6
 52143  1  1
 53144  1  0
 53145  1  0
 56146  1  0
 56147  1  0
 57148  1  0
 57149  1  0
 58150  1  6
 59151  1  0
 59152  1  0
 59153  1  0
 60154  1  0
 60155  1  0
 61156  1  0
 62157  1  0
 62158  1  0
 63159  1  0
 63160  1  0
 64161  1  0
 65162  1  6
 66163  1  1
 67164  1  1
 68165  1  6
 69166  1  1
 70167  1  0
 70168  1  0
 70169  1  0
 71170  1  0
 73171  1  0
 74172  1  0
 75173  1  0
 76174  1  0
 78175  1  0
 79176  1  0
 80177  1  0
 81178  1  0
M  END
>  <PDBID>  (1) 
3N23

>  <PDB ID>  (1) 
3N23

>  <Generic Name>  (1) 
Ouabain

>  <Brand Name>  (1) 
Strodival

>  <DrugBank ID>  (1) 
DB01092

>  <ATC Codes>  (1) 
C01AC01

>  <Ligand ID>  (1) 
OBN

>  <Target Name>  (1) 
Sodium/potassium-transporting ATPase subunit alpha-1

>  <UniProt ID>  (1) 
P05023

>  <PDB ID.1>  (1) 
3N23

>  <Seq. Identity>  (1) 
95%

$$$$
