PDB_DB08915_09
     RDKit          3D

 74 77  0  0  0  0  0  0  0  0999 V2000
   -2.9852   -1.6346   -1.7026 C   0  0  0  0  0  0  0  0  0  0  0  0
   -2.2537   -0.5317   -0.9009 C   0  0  0  0  0  0  0  0  0  0  0  0
   -2.9214   -0.5569    0.3567 O   0  0  0  0  0  0  0  0  0  0  0  0
   -4.0312    0.1992    0.0308 C   0  0  0  0  0  0  0  0  0  0  0  0
   -4.9520    0.4532    1.1809 C   0  0  0  0  0  0  0  0  0  0  0  0
   -5.4301   -0.8787    1.7067 C   0  0  0  0  0  0  0  0  0  0  0  0
   -6.9334   -0.9304    1.8763 C   0  0  0  0  0  0  0  0  0  0  0  0
   -7.5465   -0.7275    0.5081 C   0  0  0  0  0  0  0  0  0  0  0  0
   -7.1420    0.6183   -0.0364 C   0  0  0  0  0  0  0  0  0  0  0  0
   -6.1242    1.3102    0.8332 C   0  0  0  0  0  0  0  0  0  0  0  0
   -3.3891    1.4050   -0.4622 N   0  0  0  0  0  0  0  0  0  0  0  0
   -2.5135    0.7760   -1.4907 C   0  0  0  0  0  0  0  0  0  0  0  0
   -1.4560    1.6769   -1.9328 C   0  0  0  0  0  0  0  0  0  0  0  0
   -0.4422    2.2070   -1.0384 C   0  0  0  0  0  0  0  0  0  0  0  0
    0.4981    1.4874   -0.4101 O   0  0  0  0  0  0  0  0  0  0  0  0
    1.4386    0.8391   -1.1860 C   0  0  0  0  0  0  0  0  0  0  0  0
    2.7609    1.5837   -1.2059 C   0  0  0  0  0  0  0  0  0  0  0  0
    3.7927    1.0776   -0.2600 C   0  0  0  0  0  0  0  0  0  0  0  0
    1.6162   -0.5538   -0.8258 C   0  0  0  0  0  0  0  0  0  0  0  0
    1.3206   -0.8537    0.6137 C   0  0  0  0  0  0  0  0  0  0  0  0
    1.3239   -2.3696    0.7332 C   0  0  0  0  0  0  0  0  0  0  0  0
    2.9895   -1.1322   -1.1129 C   0  0  0  0  0  0  0  0  0  0  0  0
    2.8630   -2.7209   -0.2215 S   0  0  0  0  0  0  0  0  0  0  0  0
    4.1330   -0.3607   -0.5764 C   0  0  0  0  0  0  0  0  0  0  0  0
    4.8360   -1.0799    0.5384 C   0  0  0  0  0  0  0  0  0  0  0  0
    6.1348   -0.4872    0.9578 C   0  0  2  0  0  0  0  0  0  0  0  0
    5.9584    0.7986    1.3895 O   0  0  0  0  0  0  0  0  0  0  0  0
    6.1918    0.9768    2.7487 C   0  0  0  0  0  0  0  0  0  0  0  0
    7.2753   -0.6978   -0.0008 C   0  0  0  0  0  0  0  0  0  0  0  0
    8.5004   -0.3438    0.5756 O   0  0  0  0  0  0  0  0  0  0  0  0
    7.1662   -0.0297   -1.1938 O   0  0  0  0  0  0  0  0  0  0  0  0
   -3.5098   -2.3376   -1.0446 H   0  0  0  0  0  0  0  0  0  0  0  0
   -2.2588   -2.2332   -2.3018 H   0  0  0  0  0  0  0  0  0  0  0  0
   -3.6368   -1.1357   -2.4444 H   0  0  0  0  0  0  0  0  0  0  0  0
   -1.2398   -0.8814   -0.8249 H   0  0  0  0  0  0  0  0  0  0  0  0
   -4.5364   -0.2883   -0.8232 H   0  0  0  0  0  0  0  0  0  0  0  0
   -4.3941    0.9504    1.9993 H   0  0  0  0  0  0  0  0  0  0  0  0
   -5.1688   -1.6729    0.9811 H   0  0  0  0  0  0  0  0  0  0  0  0
   -4.9081   -1.1406    2.6548 H   0  0  0  0  0  0  0  0  0  0  0  0
   -7.2875   -0.1952    2.6042 H   0  0  0  0  0  0  0  0  0  0  0  0
   -7.1954   -1.9429    2.2101 H   0  0  0  0  0  0  0  0  0  0  0  0
   -7.1164   -1.4930   -0.1849 H   0  0  0  0  0  0  0  0  0  0  0  0
   -8.6395   -0.8510    0.5956 H   0  0  0  0  0  0  0  0  0  0  0  0
   -6.7804    0.5699   -1.0670 H   0  0  0  0  0  0  0  0  0  0  0  0
   -8.0532    1.2555   -0.0339 H   0  0  0  0  0  0  0  0  0  0  0  0
   -5.8539    2.2522    0.3316 H   0  0  0  0  0  0  0  0  0  0  0  0
   -6.6442    1.5748    1.7761 H   0  0  0  0  0  0  0  0  0  0  0  0
   -2.7650    1.8361    0.2615 H   0  0  0  0  0  0  0  0  0  0  0  0
   -3.2651    0.6404   -2.3460 H   0  0  0  0  0  0  0  0  0  0  0  0
   -1.9874    2.5831   -2.3938 H   0  0  0  0  0  0  0  0  0  0  0  0
   -1.0148    1.2109   -2.8842 H   0  0  0  0  0  0  0  0  0  0  0  0
   -0.9921    2.7822   -0.2015 H   0  0  0  0  0  0  0  0  0  0  0  0
    0.1200    3.1003   -1.5097 H   0  0  0  0  0  0  0  0  0  0  0  0
    1.0691    0.9577   -2.2471 H   0  0  0  0  0  0  0  0  0  0  0  0
    2.6313    2.6683   -1.0293 H   0  0  0  0  0  0  0  0  0  0  0  0
    3.1792    1.4859   -2.2281 H   0  0  0  0  0  0  0  0  0  0  0  0
    3.6054    1.2155    0.8006 H   0  0  0  0  0  0  0  0  0  0  0  0
    4.7146    1.7113   -0.4815 H   0  0  0  0  0  0  0  0  0  0  0  0
    0.9365   -1.2337   -1.4294 H   0  0  0  0  0  0  0  0  0  0  0  0
    1.9865   -0.3827    1.3451 H   0  0  0  0  0  0  0  0  0  0  0  0
    0.3044   -0.5046    0.8512 H   0  0  0  0  0  0  0  0  0  0  0  0
    1.4315   -2.6943    1.7657 H   0  0  0  0  0  0  0  0  0  0  0  0
    0.4877   -2.8062    0.1862 H   0  0  0  0  0  0  0  0  0  0  0  0
    3.0553   -1.3579   -2.2066 H   0  0  0  0  0  0  0  0  0  0  0  0
    4.8887   -0.3090   -1.4202 H   0  0  0  0  0  0  0  0  0  0  0  0
    4.2198   -1.2102    1.4497 H   0  0  0  0  0  0  0  0  0  0  0  0
    5.0286   -2.1192    0.1754 H   0  0  0  0  0  0  0  0  0  0  0  0
    6.4410   -1.0735    1.8871 H   0  0  0  0  0  0  0  0  0  0  0  0
    7.2406    0.6974    3.0225 H   0  0  0  0  0  0  0  0  0  0  0  0
    5.4303    0.4940    3.3787 H   0  0  0  0  0  0  0  0  0  0  0  0
    6.1246    2.0648    2.9516 H   0  0  0  0  0  0  0  0  0  0  0  0
    7.3240   -1.7854   -0.2101 H   0  0  0  0  0  0  0  0  0  0  0  0
    8.6331   -0.7176    1.4610 H   0  0  0  0  0  0  0  0  0  0  0  0
    7.7163    0.7955   -1.2076 H   0  0  0  0  0  0  0  0  0  0  0  0
  1  2  1  0
  2  3  1  0
  3  4  1  0
  4  5  1  0
  5  6  1  0
  6  7  1  0
  7  8  1  0
  8  9  1  0
  5 10  1  0
  9 10  1  0
  4 11  1  0
  2 12  1  0
 11 12  1  0
 12 13  1  0
 13 14  1  0
 14 15  1  0
 15 16  1  0
 16 17  1  0
 17 18  1  0
 16 19  1  0
 19 20  1  0
 20 21  1  0
 19 22  1  0
 21 23  1  0
 22 23  1  0
 18 24  1  0
 22 24  1  0
 24 25  1  0
 25 26  1  0
 26 27  1  0
 27 28  1  0
 26 29  1  0
 29 30  1  0
 29 31  1  0
  1 32  1  0
  1 33  1  0
  1 34  1  0
  2 35  1  0
  4 36  1  0
  5 37  1  0
  6 38  1  0
  6 39  1  0
  7 40  1  0
  7 41  1  0
  8 42  1  0
  8 43  1  0
  9 44  1  0
  9 45  1  0
 10 46  1  0
 10 47  1  0
 11 48  1  0
 12 49  1  0
 13 50  1  0
 13 51  1  0
 14 52  1  0
 14 53  1  0
 16 54  1  0
 17 55  1  0
 17 56  1  0
 18 57  1  0
 18 58  1  0
 19 59  1  0
 20 60  1  0
 20 61  1  0
 21 62  1  0
 21 63  1  0
 22 64  1  0
 24 65  1  0
 25 66  1  0
 25 67  1  0
 26 68  1  1
 28 69  1  0
 28 70  1  0
 28 71  1  0
 29 72  1  0
 30 73  1  0
 31 74  1  0
M  END
>  <PDBID>  (1) 
3G8I

>  <PDB ID>  (1) 
3G8I

>  <Generic Name>  (1) 
Aleglitazar

>  <Brand Name>  (1) 
nan

>  <DrugBank ID>  (1) 
DB08915

>  <ATC Codes>  (1) 
nan

>  <Ligand ID>  (1) 
RO7

>  <Target Name>  (1) 
Peroxisome proliferator-activated receptor alpha

>  <UniProt ID>  (1) 
Q07869

>  <PDB ID.1>  (1) 
3G8I

>  <Seq. Identity>  (1) 
100%

$$$$
