PDB_DB00530_07
     RDKit          3D

 72 74  0  0  0  0  0  0  0  0999 V2000
   -6.7912    0.5119    2.4541 C   0  0  0  0  0  0  0  0  0  0  0  0
   -7.1159    0.3813    0.9818 C   0  0  0  0  0  0  0  0  0  0  0  0
   -5.9468    0.8285    0.1198 C   0  0  0  0  0  0  0  0  0  0  0  0
   -4.7865   -0.0436    0.4584 C   0  0  0  0  0  0  0  0  0  0  0  0
   -3.5050    0.4043   -0.2472 C   0  0  0  0  0  0  0  0  0  0  0  0
   -2.7546   -0.7755   -0.4852 N   0  0  0  0  0  0  0  0  0  0  0  0
   -1.4172   -0.6347   -0.9353 C   0  0  0  0  0  0  0  0  0  0  0  0
   -0.4901    0.0638    0.0203 C   0  0  0  0  0  0  0  0  0  0  0  0
    0.4652   -0.8642    0.6518 C   0  0  0  0  0  0  0  0  0  0  0  0
    1.8933   -0.5141    0.6820 C   0  0  0  0  0  0  0  0  0  0  0  0
    2.5914   -1.4200   -0.1380 O   0  0  0  0  0  0  0  0  0  0  0  0
    3.4982   -2.1942    0.5849 C   0  0  0  0  0  0  0  0  0  0  0  0
    4.2289   -3.1612   -0.3212 C   0  0  0  0  0  0  0  0  0  0  0  0
    5.1030   -3.8848    0.4775 O   0  0  0  0  0  0  0  0  0  0  0  0
    5.8177   -4.8086   -0.3082 C   0  0  0  0  0  0  0  0  0  0  0  0
    2.3070    0.8485    0.2848 C   0  0  0  0  0  0  0  0  0  0  0  0
    3.3655    1.2769    1.0800 O   0  0  0  0  0  0  0  0  0  0  0  0
    4.5230    1.5536    0.3974 C   0  0  0  0  0  0  0  0  0  0  0  0
    5.5402    2.0023    1.4458 C   0  0  0  0  0  0  0  0  0  0  0  0
    6.7662    2.3171    0.9053 O   0  0  0  0  0  0  0  0  0  0  0  0
    7.5790    2.7016    1.9882 C   0  0  0  0  0  0  0  0  0  0  0  0
    1.1596    1.8017    0.2721 C   0  0  0  0  0  0  0  0  0  0  0  0
    0.1562    1.2137   -0.7263 C   0  0  0  0  0  0  0  0  0  0  0  0
    0.8764    0.8334   -1.8932 N   0  0  0  0  0  0  0  0  0  0  0  0
    0.1086   -0.1610   -2.6144 C   0  0  0  0  0  0  0  0  0  0  0  0
   -1.3031   -0.0937   -2.2818 N   0  0  0  0  0  0  0  0  0  0  0  0
   -3.9464    1.1334   -1.4873 C   0  0  0  0  0  0  0  0  0  0  0  0
   -5.0500    0.3729   -2.1511 C   0  0  0  0  0  0  0  0  0  0  0  0
   -6.3162    0.5926   -1.3133 C   0  0  0  0  0  0  0  0  0  0  0  0
   -6.1960   -0.3267    2.8525 H   0  0  0  0  0  0  0  0  0  0  0  0
   -7.7725    0.4699    2.9930 H   0  0  0  0  0  0  0  0  0  0  0  0
   -6.3586    1.5026    2.6996 H   0  0  0  0  0  0  0  0  0  0  0  0
   -7.3557   -0.6736    0.7965 H   0  0  0  0  0  0  0  0  0  0  0  0
   -8.0078    0.9993    0.7759 H   0  0  0  0  0  0  0  0  0  0  0  0
   -5.7817    1.9007    0.3533 H   0  0  0  0  0  0  0  0  0  0  0  0
   -5.0461   -1.0790    0.2395 H   0  0  0  0  0  0  0  0  0  0  0  0
   -4.6500    0.0156    1.5740 H   0  0  0  0  0  0  0  0  0  0  0  0
   -3.0403    1.1289    0.4545 H   0  0  0  0  0  0  0  0  0  0  0  0
   -2.9267   -1.5271    0.1929 H   0  0  0  0  0  0  0  0  0  0  0  0
   -1.0278   -1.6835   -1.0497 H   0  0  0  0  0  0  0  0  0  0  0  0
   -1.0609    0.5984    0.8346 H   0  0  0  0  0  0  0  0  0  0  0  0
    0.3194   -1.8817    0.1762 H   0  0  0  0  0  0  0  0  0  0  0  0
    0.1200   -1.0662    1.7120 H   0  0  0  0  0  0  0  0  0  0  0  0
    2.3075   -0.7024    1.7203 H   0  0  0  0  0  0  0  0  0  0  0  0
    3.0328   -2.7727    1.3890 H   0  0  0  0  0  0  0  0  0  0  0  0
    4.2989   -1.4928    0.9650 H   0  0  0  0  0  0  0  0  0  0  0  0
    4.8752   -2.5413   -0.9967 H   0  0  0  0  0  0  0  0  0  0  0  0
    3.5410   -3.8055   -0.8930 H   0  0  0  0  0  0  0  0  0  0  0  0
    6.4147   -4.3030   -1.0993 H   0  0  0  0  0  0  0  0  0  0  0  0
    6.5050   -5.4086    0.3090 H   0  0  0  0  0  0  0  0  0  0  0  0
    5.0881   -5.5189   -0.7802 H   0  0  0  0  0  0  0  0  0  0  0  0
    2.7205    0.8479   -0.7661 H   0  0  0  0  0  0  0  0  0  0  0  0
    4.4090    2.4088   -0.3112 H   0  0  0  0  0  0  0  0  0  0  0  0
    4.9669    0.6770   -0.1225 H   0  0  0  0  0  0  0  0  0  0  0  0
    5.6503    1.2327    2.2165 H   0  0  0  0  0  0  0  0  0  0  0  0
    5.1443    2.9538    1.9061 H   0  0  0  0  0  0  0  0  0  0  0  0
    8.5989    2.9801    1.6721 H   0  0  0  0  0  0  0  0  0  0  0  0
    7.1502    3.6294    2.4577 H   0  0  0  0  0  0  0  0  0  0  0  0
    7.6469    1.9119    2.7357 H   0  0  0  0  0  0  0  0  0  0  0  0
    0.6269    1.8124    1.2536 H   0  0  0  0  0  0  0  0  0  0  0  0
    1.4273    2.8213   -0.0433 H   0  0  0  0  0  0  0  0  0  0  0  0
   -0.6007    2.0033   -0.8823 H   0  0  0  0  0  0  0  0  0  0  0  0
    0.9893    1.7100   -2.4770 H   0  0  0  0  0  0  0  0  0  0  0  0
    0.4685   -1.1598   -2.2784 H   0  0  0  0  0  0  0  0  0  0  0  0
    0.3226   -0.0555   -3.6756 H   0  0  0  0  0  0  0  0  0  0  0  0
   -1.9064   -0.5510   -2.9607 H   0  0  0  0  0  0  0  0  0  0  0  0
   -3.1252    1.4260   -2.1448 H   0  0  0  0  0  0  0  0  0  0  0  0
   -4.4032    2.1053   -1.1333 H   0  0  0  0  0  0  0  0  0  0  0  0
   -5.2469    0.7175   -3.1885 H   0  0  0  0  0  0  0  0  0  0  0  0
   -4.8352   -0.7202   -2.2438 H   0  0  0  0  0  0  0  0  0  0  0  0
   -6.8621    1.4381   -1.7571 H   0  0  0  0  0  0  0  0  0  0  0  0
   -6.9770   -0.3036   -1.3776 H   0  0  0  0  0  0  0  0  0  0  0  0
  1  2  1  0
  2  3  1  0
  3  4  1  0
  4  5  1  0
  5  6  1  0
  6  7  1  0
  7  8  1  0
  8  9  1  0
  9 10  1  0
 10 11  1  0
 11 12  1  0
 12 13  1  0
 13 14  1  0
 14 15  1  0
 10 16  1  0
 16 17  1  0
 17 18  1  0
 18 19  1  0
 19 20  1  0
 20 21  1  0
 16 22  1  0
  8 23  1  0
 22 23  1  0
 23 24  1  0
 24 25  1  0
  7 26  1  0
 25 26  1  0
  5 27  1  0
 27 28  1  0
  3 29  1  0
 28 29  1  0
  1 30  1  0
  1 31  1  0
  1 32  1  0
  2 33  1  0
  2 34  1  0
  3 35  1  0
  4 36  1  0
  4 37  1  0
  5 38  1  0
  6 39  1  0
  7 40  1  0
  8 41  1  0
  9 42  1  0
  9 43  1  0
 10 44  1  0
 12 45  1  0
 12 46  1  0
 13 47  1  0
 13 48  1  0
 15 49  1  0
 15 50  1  0
 15 51  1  0
 16 52  1  0
 18 53  1  0
 18 54  1  0
 19 55  1  0
 19 56  1  0
 21 57  1  0
 21 58  1  0
 21 59  1  0
 22 60  1  0
 22 61  1  0
 23 62  1  0
 24 63  1  0
 25 64  1  0
 25 65  1  0
 26 66  1  0
 27 67  1  0
 27 68  1  0
 28 69  1  0
 28 70  1  0
 29 71  1  0
 29 72  1  0
M  END
>  <PDBID>  (1) 
1M17

>  <PDB ID>  (1) 
1M17

>  <Generic Name>  (1) 
Erlotinib

>  <Brand Name>  (1) 
PMS-erlotinib#Tarceva#Teva-erlotinib

>  <DrugBank ID>  (1) 
DB00530

>  <ATC Codes>  (1) 
L01XE03

>  <Ligand ID>  (1) 
AQ4

>  <Target Name>  (1) 
Epidermal growth factor receptor

>  <UniProt ID>  (1) 
P00533

>  <PDB ID.1>  (1) 
1M17

>  <Seq. Identity>  (1) 
96%

$$$$
