PDB_DB00380_02
     RDKit          3D

 43 44  0  0  0  0  0  0  0  0999 V2000
   -3.6378   -1.7462    0.6082 O   0  0  0  0  0  0  0  0  0  0  0  0
   -3.7966   -0.8400   -0.4617 C   0  0  0  0  0  0  0  0  0  0  0  0
   -4.5110    0.2850    0.0822 N   0  0  0  0  0  0  0  0  0  0  0  0
   -3.6574    1.4474    0.2006 C   0  0  0  0  0  0  0  0  0  0  0  0
   -4.3229    2.4094    0.9412 O   0  0  0  0  0  0  0  0  0  0  0  0
   -2.4219    1.0373    0.9868 C   0  0  0  0  0  0  0  0  0  0  0  0
   -2.3584   -0.4382   -0.8366 C   0  0  0  0  0  0  0  0  0  0  0  0
   -1.7238   -0.0444    0.3503 N   0  0  0  0  0  0  0  0  0  0  0  0
   -0.3363    0.0582    0.4457 C   0  0  0  0  0  0  0  0  0  0  0  0
    0.4224   -0.9702   -0.3603 C   0  0  2  0  0  0  0  0  0  0  0  0
    0.0449   -2.3325    0.0959 C   0  0  0  0  0  0  0  0  0  0  0  0
    1.8372   -0.6893   -0.3482 N   0  0  0  0  0  0  0  0  0  0  0  0
    2.4332   -0.7729    0.9675 C   0  0  0  0  0  0  0  0  0  0  0  0
    3.8901   -0.3705    0.8508 C   0  0  0  0  0  0  0  0  0  0  0  0
    4.1426    0.8124    1.5567 O   0  0  0  0  0  0  0  0  0  0  0  0
    4.3486   -0.3102   -0.5252 N   0  0  0  0  0  0  0  0  0  0  0  0
    3.5818    0.6474   -1.2779 C   0  0  0  0  0  0  0  0  0  0  0  0
    2.1181    0.6314   -0.8958 C   0  0  0  0  0  0  0  0  0  0  0  0
    4.1521    1.9020   -1.0900 O   0  0  0  0  0  0  0  0  0  0  0  0
   -3.8398   -1.3442    1.4792 H   0  0  0  0  0  0  0  0  0  0  0  0
   -4.2996   -1.3364   -1.2876 H   0  0  0  0  0  0  0  0  0  0  0  0
   -5.4083    0.4863   -0.3742 H   0  0  0  0  0  0  0  0  0  0  0  0
   -3.4018    1.8883   -0.7847 H   0  0  0  0  0  0  0  0  0  0  0  0
   -4.2965    3.2627    0.4509 H   0  0  0  0  0  0  0  0  0  0  0  0
   -2.7576    0.7313    1.9945 H   0  0  0  0  0  0  0  0  0  0  0  0
   -1.7907    1.9541    1.0654 H   0  0  0  0  0  0  0  0  0  0  0  0
   -1.9381   -1.3452   -1.3209 H   0  0  0  0  0  0  0  0  0  0  0  0
   -2.3802    0.3292   -1.6646 H   0  0  0  0  0  0  0  0  0  0  0  0
   -0.0056    1.0786    0.2657 H   0  0  0  0  0  0  0  0  0  0  0  0
   -0.0461   -0.1591    1.5193 H   0  0  0  0  0  0  0  0  0  0  0  0
    0.0973   -0.8446   -1.4168 H   0  0  0  0  0  0  0  0  0  0  0  0
    0.7546   -2.8475    0.7610 H   0  0  0  0  0  0  0  0  0  0  0  0
   -0.9308   -2.3361    0.6714 H   0  0  0  0  0  0  0  0  0  0  0  0
   -0.0717   -3.0281   -0.7898 H   0  0  0  0  0  0  0  0  0  0  0  0
    2.4146   -1.8330    1.2855 H   0  0  0  0  0  0  0  0  0  0  0  0
    1.9750   -0.0812    1.6984 H   0  0  0  0  0  0  0  0  0  0  0  0
    4.5350   -1.1501    1.3432 H   0  0  0  0  0  0  0  0  0  0  0  0
    5.0498    0.7791    1.9389 H   0  0  0  0  0  0  0  0  0  0  0  0
    5.3592   -0.0730   -0.4862 H   0  0  0  0  0  0  0  0  0  0  0  0
    3.6548    0.3943   -2.3505 H   0  0  0  0  0  0  0  0  0  0  0  0
    1.9695    1.4094   -0.1126 H   0  0  0  0  0  0  0  0  0  0  0  0
    1.5299    0.8536   -1.7807 H   0  0  0  0  0  0  0  0  0  0  0  0
    3.6222    2.4956   -0.5065 H   0  0  0  0  0  0  0  0  0  0  0  0
  1  2  1  0
  2  3  1  0
  3  4  1  0
  4  5  1  0
  4  6  1  0
  2  7  1  0
  6  8  1  0
  7  8  1  0
  8  9  1  0
  9 10  1  0
 10 11  1  0
 10 12  1  0
 12 13  1  0
 13 14  1  0
 14 15  1  0
 14 16  1  0
 16 17  1  0
 12 18  1  0
 17 18  1  0
 17 19  1  0
  1 20  1  0
  2 21  1  0
  3 22  1  0
  4 23  1  0
  5 24  1  0
  6 25  1  0
  6 26  1  0
  7 27  1  0
  7 28  1  0
  9 29  1  0
  9 30  1  0
 10 31  1  6
 11 32  1  0
 11 33  1  0
 11 34  1  0
 13 35  1  0
 13 36  1  0
 14 37  1  0
 15 38  1  0
 16 39  1  0
 17 40  1  0
 18 41  1  0
 18 42  1  0
 19 43  1  0
M  END
>  <PDBID>  (1) 
1QZR

>  <PDB ID>  (1) 
1QZR

>  <Generic Name>  (1) 
Dexrazoxane

>  <Brand Name>  (1) 
Dexrazoxane#Dexrazoxane Hydrochloride#Zinecard#Ao Nuo Xian#Cardioxane#Dexrazoxane#Savene#Totect

>  <DrugBank ID>  (1) 
DB00380

>  <ATC Codes>  (1) 
V03AF02

>  <Ligand ID>  (1) 
CDX

>  <Target Name>  (1) 
DNA topoisomerase 2-alpha

>  <UniProt ID>  (1) 
P11388

>  <PDB ID.1>  (1) 
1QZR

>  <Seq. Identity>  (1) 
51%

$$$$
