PDB_DB00373_04
     RDKit          3D

 49 50  0  0  0  0  0  0  0  0999 V2000
    3.3870   -0.1544    1.6771 C   0  0  0  0  0  0  0  0  0  0  0  0
    4.5413   -1.1004    1.4238 C   0  0  0  0  0  0  0  0  0  0  0  0
    5.4542   -0.6044    0.5239 O   0  0  0  0  0  0  0  0  0  0  0  0
    5.5986    0.7574    0.7107 C   0  0  0  0  0  0  0  0  0  0  0  0
    4.3340    1.4273    0.1888 C   0  0  0  0  0  0  0  0  0  0  0  0
    3.1452    0.6951    0.5109 N   0  0  0  0  0  0  0  0  0  0  0  0
    2.5680   -0.0857   -0.5269 C   0  0  0  0  0  0  0  0  0  0  0  0
    3.5302   -0.8242   -1.3119 N   0  0  0  0  0  0  0  0  0  0  0  0
    3.6672    0.1870   -2.7824 S   0  0  0  0  0  0  0  0  0  0  0  0
    2.3867    1.3159   -2.4477 N   0  0  0  0  0  0  0  0  0  0  0  0
    1.6103    0.6083   -1.4363 C   0  0  0  0  0  0  0  0  0  0  0  0
    0.7325   -0.2584   -1.9911 O   0  0  0  0  0  0  0  0  0  0  0  0
   -0.5944   -0.1119   -1.8602 C   0  0  0  0  0  0  0  0  0  0  0  0
   -1.0674   -0.2323   -0.4360 C   0  0  1  0  0  0  0  0  0  0  0  0
   -0.5476    0.6858    0.4347 O   0  0  0  0  0  0  0  0  0  0  0  0
   -2.5923   -0.1607   -0.4981 C   0  0  0  0  0  0  0  0  0  0  0  0
   -3.1026   -0.4015    0.8170 N   0  0  0  0  0  0  0  0  0  0  0  0
   -4.5319   -0.3374    0.8484 C   0  0  0  0  0  0  0  0  0  0  0  0
   -4.9600   -0.1327    2.2801 C   0  0  0  0  0  0  0  0  0  0  0  0
   -5.1017    0.7667   -0.0230 C   0  0  0  0  0  0  0  0  0  0  0  0
   -5.0829   -1.6506    0.3317 C   0  0  0  0  0  0  0  0  0  0  0  0
    3.5526    0.4809    2.5754 H   0  0  0  0  0  0  0  0  0  0  0  0
    2.4802   -0.7473    1.8435 H   0  0  0  0  0  0  0  0  0  0  0  0
    5.0349   -1.3170    2.4062 H   0  0  0  0  0  0  0  0  0  0  0  0
    4.1872   -2.0952    1.0410 H   0  0  0  0  0  0  0  0  0  0  0  0
    6.4708    1.0852    0.0735 H   0  0  0  0  0  0  0  0  0  0  0  0
    5.7642    1.0606    1.7651 H   0  0  0  0  0  0  0  0  0  0  0  0
    4.5090    1.6395   -0.8577 H   0  0  0  0  0  0  0  0  0  0  0  0
    4.2795    2.4105    0.7372 H   0  0  0  0  0  0  0  0  0  0  0  0
    1.9609   -0.8929   -0.0078 H   0  0  0  0  0  0  0  0  0  0  0  0
    3.1007   -1.7270   -1.6510 H   0  0  0  0  0  0  0  0  0  0  0  0
    2.6491    2.2684   -2.2088 H   0  0  0  0  0  0  0  0  0  0  0  0
    1.0900    1.4025   -0.8749 H   0  0  0  0  0  0  0  0  0  0  0  0
   -0.9954    0.8717   -2.2205 H   0  0  0  0  0  0  0  0  0  0  0  0
   -1.1432   -0.8587   -2.5214 H   0  0  0  0  0  0  0  0  0  0  0  0
   -0.8237   -1.2662   -0.0619 H   0  0  0  0  0  0  0  0  0  0  0  0
   -0.6598    0.2971    1.3621 H   0  0  0  0  0  0  0  0  0  0  0  0
   -2.8523    0.8061   -0.9438 H   0  0  0  0  0  0  0  0  0  0  0  0
   -2.8885   -0.9826   -1.1827 H   0  0  0  0  0  0  0  0  0  0  0  0
   -2.6525    0.1610    1.5561 H   0  0  0  0  0  0  0  0  0  0  0  0
   -5.9848   -0.5099    2.4870 H   0  0  0  0  0  0  0  0  0  0  0  0
   -4.8854    0.9742    2.4786 H   0  0  0  0  0  0  0  0  0  0  0  0
   -4.1921   -0.6185    2.9308 H   0  0  0  0  0  0  0  0  0  0  0  0
   -4.6123    1.7423    0.1356 H   0  0  0  0  0  0  0  0  0  0  0  0
   -6.1995    0.7840    0.1573 H   0  0  0  0  0  0  0  0  0  0  0  0
   -4.9367    0.5227   -1.0992 H   0  0  0  0  0  0  0  0  0  0  0  0
   -4.3415   -2.4397    0.5658 H   0  0  0  0  0  0  0  0  0  0  0  0
   -5.1946   -1.5895   -0.7554 H   0  0  0  0  0  0  0  0  0  0  0  0
   -6.0910   -1.8512    0.7742 H   0  0  0  0  0  0  0  0  0  0  0  0
  1  2  1  0
  2  3  1  0
  3  4  1  0
  4  5  1  0
  1  6  1  0
  5  6  1  0
  6  7  1  0
  7  8  1  0
  8  9  1  0
  9 10  1  0
  7 11  1  0
 10 11  1  0
 11 12  1  0
 12 13  1  0
 13 14  1  0
 14 15  1  0
 14 16  1  0
 16 17  1  0
 18 17  1  0
 18 19  1  0
 18 20  1  0
 18 21  1  0
  1 22  1  0
  1 23  1  0
  2 24  1  0
  2 25  1  0
  4 26  1  0
  4 27  1  0
  5 28  1  0
  5 29  1  0
  7 30  1  0
  8 31  1  0
 10 32  1  0
 11 33  1  0
 13 34  1  0
 13 35  1  0
 14 36  1  1
 15 37  1  0
 16 38  1  0
 16 39  1  0
 17 40  1  0
 19 41  1  0
 19 42  1  0
 19 43  1  0
 20 44  1  0
 20 45  1  0
 20 46  1  0
 21 47  1  0
 21 48  1  0
 21 49  1  0
M  END
>  <PDBID>  (1) 
3D4S

>  <PDB ID>  (1) 
3D4S

>  <Generic Name>  (1) 
Timolol

>  <Brand Name>  (1) 
Act Dorzotimolol#Act Latanoprost/timolol#Apo-brimonidine-timop#Apo-dorzo-timop#Apo-latanoprost-timop#Apo-timol Tablets 10mg#Apo-timol Tablets 20mg#Apo-timol Tablets 5mg#Apo-timop Gel#Apo-timop Liq 0.5%#Apo-timop Oph Soln 0.25%#Apo-travoprost-timop#Azarga#Beta-tim - 0.25% Liq#Beta-tim - 0.5% Liq#Betimol#Blocadren Tab 10mg#Blocadren Tab 20mg#Blocadren Tab 5mg#Combigan#Cosopt#Cosopt PF#Dom-timolol#Dorzolamide HCl /timolol Maleate#Dorzolamide HCl and Timolol Maleate#Dorzolamide Hydrochloride and Timolol Maleate#Dorzolamide Hydrochloride and Timolol Maleate Ophthalmic Solution#Dorzolamide Hydrochloride-timolol Maleate#Dorzolamide Hydrochloride-timolol Maleate Ophthalmic Solution Sterile Ophthalmic Solution#Duotrav Pq#Gd-latanoprost/timolol#Istalol#Jamp-dorzolamide/timolol#Jamp-latanoprost/timolol#Jamp-timolol#Med Timolol Liq Oph 0.25%#Med Timolol Liq Oph 0.5%#Med-dorzolamide-timolol#Med-latanoprost-timolol#Mint-dorzolamide/timolol#Mint-latanoprost/timolol#Mylan-dorzolamide/timolol#Mylan-latanoprost/timolol#Mylan-timolol#Novo-timol Liq 0.25%#Novo-timol Liq 0.5%#Nu-timolol Tab 10mg#Nu-timolol Tab 20mg#Nu-timolol Tab 5mg#Odan-timolol#PMS-dorzolamide-timolol#PMS-latanoprost-timolol#PMS-timolol#Ratio-timolol Maleate 0.25%#Ratio-timolol Maleate 0.5%#Rhoxal-timolol 0.25%#Rhoxal-timolol 0.5%#Riva-dorzolamide/timolol#Riva-latanoprost/timolol#Sandoz Dorzolamide/timolol#Sandoz Latanoprost/timolol#Sandoz Timolol#Sandoz Travoprost / Timolol Pq#T-LO  - Liq Oph 0.25%#T-LO - Liq Oph 0.5%#Teva-dorzotimol#Teva-latanoprost/timolol#Teva-timolol#Timolide Tab#Timolol Gfs#Timolol Maleate#Timolol Maleate-EX#Timolol Solution - 0.25%#Timolol Solution - 0.5%#Timolol-10 Tab 10mg#Timolol-20 Tab 20mg#Timolol-5 Tab 5mg#Timoptic#Timoptic-XE#Timpilo 2#Timpilo 4#Van-dorzolamide-timolol#Xalacom#Blocadren#Proflax#Tenopt#Timacar Depot#Timacor#Timoptol

>  <DrugBank ID>  (1) 
DB00373

>  <ATC Codes>  (1) 
S01ED51#S01ED01#C07DA06#C07BA06#C07AA06

>  <Ligand ID>  (1) 
TIM

>  <Target Name>  (1) 
Beta-1 adrenergic receptor

>  <UniProt ID>  (1) 
P08588

>  <PDB ID.1>  (1) 
3D4S

>  <Seq. Identity>  (1) 
67%

$$$$
