PDB_DB01586_06
     RDKit          3D

140146  0  0  0  0  0  0  0  0999 V2000
   -3.7591   -0.7915    1.3363 C   0  0  0  0  0  0  0  0  0  0  0  0
   -3.0263   -0.2195    0.1423 C   0  0  1  0  0  0  0  0  0  0  0  0
   -0.8984   -1.1394    0.9401 C   0  0  0  0  0  0  0  0  0  0  0  0
    0.6148   -1.0603    0.9720 C   0  0  0  0  0  0  0  0  0  0  0  0
    1.1285   -0.5703   -0.3288 C   0  0  1  0  0  0  0  0  0  0  0  0
    0.5006    0.8226   -0.5461 C   0  0  1  0  0  0  0  0  0  0  0  0
    1.2245    1.2563   -1.7964 C   0  0  0  0  0  0  0  0  0  0  0  0
    2.5605    0.5320   -1.7722 C   0  0  0  0  0  0  0  0  0  0  0  0
    2.5551   -0.1589   -0.3983 C   0  0  2  0  0  0  0  0  0  0  0  0
    0.7259   -1.4748   -1.4810 C   0  0  0  0  0  0  0  0  0  0  0  0
   -3.1254   -1.2452   -0.9668 C   0  0  0  0  0  0  0  0  0  0  0  0
   -1.4120    2.7814   -1.9352 O   0  0  0  0  0  0  0  0  0  0  0  0
   -7.1203    0.2705    0.5147 O   0  0  0  0  0  0  0  0  0  0  0  0
   -5.1764   -1.0746    0.9684 C   0  0  0  0  0  0  0  0  0  0  0  0
    3.5975   -1.1957   -0.2870 C   0  0  2  0  0  0  0  0  0  0  0  0
    3.5912   -1.9398    0.9991 C   0  0  0  0  0  0  0  0  0  0  0  0
    4.9739   -0.7946   -0.6998 C   0  0  0  0  0  0  0  0  0  0  0  0
    5.6582    0.3303   -0.0725 C   0  0  0  0  0  0  0  0  0  0  0  0
    5.9485    0.3567    1.3738 C   0  0  0  0  0  0  0  0  0  0  0  0
   -5.8117   -0.0007    0.1220 C   0  0  2  0  0  0  0  0  0  0  0  0
   -5.0145    1.2605    0.3121 C   0  0  0  0  0  0  0  0  0  0  0  0
    4.8666    0.3289    2.2306 O   0  0  0  0  0  0  0  0  0  0  0  0
    6.6655    1.5309    1.7386 O   0  0  0  0  0  0  0  0  0  0  0  0
   -3.6640    1.0568   -0.3419 C   0  0  1  0  0  0  0  0  0  0  0  0
   -2.8360    2.2683   -0.0649 C   0  0  0  0  0  0  0  0  0  0  0  0
   -1.4681    2.2217   -0.6614 C   0  0  1  0  0  0  0  0  0  0  0  0
   -0.9692    0.7756   -0.6820 C   0  0  2  0  0  0  0  0  0  0  0  0
   -1.5855    0.0876    0.4917 C   0  0  1  0  0  0  0  0  0  0  0  0
   -3.7591   -0.7915    1.3363 C   0  0  0  0  0  0  0  0  0  0  0  0
   -3.0263   -0.2195    0.1423 C   0  0  1  0  0  0  0  0  0  0  0  0
   -0.8984   -1.1394    0.9401 C   0  0  0  0  0  0  0  0  0  0  0  0
    0.6148   -1.0603    0.9720 C   0  0  0  0  0  0  0  0  0  0  0  0
    1.1285   -0.5703   -0.3288 C   0  0  1  0  0  0  0  0  0  0  0  0
    0.5006    0.8226   -0.5461 C   0  0  1  0  0  0  0  0  0  0  0  0
    1.2245    1.2563   -1.7964 C   0  0  0  0  0  0  0  0  0  0  0  0
    2.5605    0.5320   -1.7722 C   0  0  0  0  0  0  0  0  0  0  0  0
    2.5551   -0.1589   -0.3983 C   0  0  2  0  0  0  0  0  0  0  0  0
    0.7259   -1.4748   -1.4810 C   0  0  0  0  0  0  0  0  0  0  0  0
   -3.1254   -1.2452   -0.9668 C   0  0  0  0  0  0  0  0  0  0  0  0
   -1.4120    2.7814   -1.9352 O   0  0  0  0  0  0  0  0  0  0  0  0
   -7.1203    0.2705    0.5147 O   0  0  0  0  0  0  0  0  0  0  0  0
   -5.1764   -1.0746    0.9684 C   0  0  0  0  0  0  0  0  0  0  0  0
    3.5975   -1.1957   -0.2870 C   0  0  2  0  0  0  0  0  0  0  0  0
    3.5912   -1.9398    0.9991 C   0  0  0  0  0  0  0  0  0  0  0  0
    4.9739   -0.7946   -0.6998 C   0  0  0  0  0  0  0  0  0  0  0  0
    5.6582    0.3303   -0.0725 C   0  0  0  0  0  0  0  0  0  0  0  0
    5.9485    0.3567    1.3738 C   0  0  0  0  0  0  0  0  0  0  0  0
   -5.8117   -0.0007    0.1220 C   0  0  2  0  0  0  0  0  0  0  0  0
   -5.0145    1.2605    0.3121 C   0  0  0  0  0  0  0  0  0  0  0  0
    4.8666    0.3289    2.2306 O   0  0  0  0  0  0  0  0  0  0  0  0
    6.6655    1.5309    1.7386 O   0  0  0  0  0  0  0  0  0  0  0  0
   -3.6640    1.0568   -0.3419 C   0  0  1  0  0  0  0  0  0  0  0  0
   -2.8360    2.2683   -0.0649 C   0  0  0  0  0  0  0  0  0  0  0  0
   -1.4681    2.2217   -0.6614 C   0  0  1  0  0  0  0  0  0  0  0  0
   -0.9692    0.7756   -0.6820 C   0  0  2  0  0  0  0  0  0  0  0  0
   -1.5855    0.0876    0.4917 C   0  0  1  0  0  0  0  0  0  0  0  0
   -3.2677   -1.7825    1.5527 H   0  0  0  0  0  0  0  0  0  0  0  0
   -3.6659   -0.1465    2.2197 H   0  0  0  0  0  0  0  0  0  0  0  0
   -1.2124   -2.0644    0.4090 H   0  0  0  0  0  0  0  0  0  0  0  0
   -1.2024   -1.3237    2.0142 H   0  0  0  0  0  0  0  0  0  0  0  0
    0.9299   -2.1365    1.1425 H   0  0  0  0  0  0  0  0  0  0  0  0
    0.9145   -0.3871    1.7815 H   0  0  0  0  0  0  0  0  0  0  0  0
    0.7757    1.4291    0.3151 H   0  0  0  0  0  0  0  0  0  0  0  0
    1.3839    2.3534   -1.7321 H   0  0  0  0  0  0  0  0  0  0  0  0
    0.6508    1.0575   -2.7183 H   0  0  0  0  0  0  0  0  0  0  0  0
    2.5103   -0.2186   -2.5985 H   0  0  0  0  0  0  0  0  0  0  0  0
    3.4055    1.2021   -1.9133 H   0  0  0  0  0  0  0  0  0  0  0  0
    2.7078    0.6736    0.3216 H   0  0  0  0  0  0  0  0  0  0  0  0
    0.0989   -0.9518   -2.2317 H   0  0  0  0  0  0  0  0  0  0  0  0
    0.1000   -2.3424   -1.1225 H   0  0  0  0  0  0  0  0  0  0  0  0
    1.5625   -1.9193   -2.0202 H   0  0  0  0  0  0  0  0  0  0  0  0
   -3.6811   -2.1605   -0.6550 H   0  0  0  0  0  0  0  0  0  0  0  0
   -3.6868   -0.8308   -1.8551 H   0  0  0  0  0  0  0  0  0  0  0  0
   -2.1631   -1.5782   -1.3530 H   0  0  0  0  0  0  0  0  0  0  0  0
   -2.0317    2.2565   -2.5007 H   0  0  0  0  0  0  0  0  0  0  0  0
   -7.3871    1.1910    0.2618 H   0  0  0  0  0  0  0  0  0  0  0  0
   -5.3529   -2.0546    0.5063 H   0  0  0  0  0  0  0  0  0  0  0  0
   -5.7647   -1.0906    1.9328 H   0  0  0  0  0  0  0  0  0  0  0  0
    3.3357   -2.0394   -1.0668 H   0  0  0  0  0  0  0  0  0  0  0  0
    3.0352   -1.4303    1.8061 H   0  0  0  0  0  0  0  0  0  0  0  0
    3.1517   -2.9950    0.8841 H   0  0  0  0  0  0  0  0  0  0  0  0
    4.6416   -2.1989    1.3472 H   0  0  0  0  0  0  0  0  0  0  0  0
    5.0242   -0.7462   -1.8315 H   0  0  0  0  0  0  0  0  0  0  0  0
    5.6224   -1.7239   -0.5036 H   0  0  0  0  0  0  0  0  0  0  0  0
    5.1493    1.3334   -0.2979 H   0  0  0  0  0  0  0  0  0  0  0  0
    6.6861    0.4086   -0.5852 H   0  0  0  0  0  0  0  0  0  0  0  0
    6.6788   -0.4661    1.6794 H   0  0  0  0  0  0  0  0  0  0  0  0
   -5.8303   -0.2390   -0.9544 H   0  0  0  0  0  0  0  0  0  0  0  0
   -5.4865    2.1247   -0.2145 H   0  0  0  0  0  0  0  0  0  0  0  0
   -4.8964    1.5035    1.3951 H   0  0  0  0  0  0  0  0  0  0  0  0
    5.1468    0.6589    3.1135 H   0  0  0  0  0  0  0  0  0  0  0  0
    7.1732    1.8758    0.9710 H   0  0  0  0  0  0  0  0  0  0  0  0
   -3.8461    1.0150   -1.4450 H   0  0  0  0  0  0  0  0  0  0  0  0
   -2.8189    2.4556    1.0314 H   0  0  0  0  0  0  0  0  0  0  0  0
   -3.3657    3.1424   -0.5074 H   0  0  0  0  0  0  0  0  0  0  0  0
   -0.7910    2.7731    0.0229 H   0  0  0  0  0  0  0  0  0  0  0  0
   -1.3449    0.3563   -1.6411 H   0  0  0  0  0  0  0  0  0  0  0  0
   -1.6338    0.8011    1.3619 H   0  0  0  0  0  0  0  0  0  0  0  0
   -3.2677   -1.7825    1.5527 H   0  0  0  0  0  0  0  0  0  0  0  0
   -3.6659   -0.1465    2.2197 H   0  0  0  0  0  0  0  0  0  0  0  0
   -1.2124   -2.0644    0.4090 H   0  0  0  0  0  0  0  0  0  0  0  0
   -1.2024   -1.3237    2.0142 H   0  0  0  0  0  0  0  0  0  0  0  0
    0.9299   -2.1365    1.1425 H   0  0  0  0  0  0  0  0  0  0  0  0
    0.9145   -0.3871    1.7815 H   0  0  0  0  0  0  0  0  0  0  0  0
    0.7757    1.4291    0.3151 H   0  0  0  0  0  0  0  0  0  0  0  0
    1.3839    2.3534   -1.7321 H   0  0  0  0  0  0  0  0  0  0  0  0
    0.6508    1.0575   -2.7183 H   0  0  0  0  0  0  0  0  0  0  0  0
    2.5103   -0.2186   -2.5985 H   0  0  0  0  0  0  0  0  0  0  0  0
    3.4055    1.2021   -1.9133 H   0  0  0  0  0  0  0  0  0  0  0  0
    2.7078    0.6736    0.3216 H   0  0  0  0  0  0  0  0  0  0  0  0
    0.0989   -0.9518   -2.2317 H   0  0  0  0  0  0  0  0  0  0  0  0
    0.1000   -2.3424   -1.1225 H   0  0  0  0  0  0  0  0  0  0  0  0
    1.5625   -1.9193   -2.0202 H   0  0  0  0  0  0  0  0  0  0  0  0
   -3.6811   -2.1605   -0.6550 H   0  0  0  0  0  0  0  0  0  0  0  0
   -3.6868   -0.8308   -1.8551 H   0  0  0  0  0  0  0  0  0  0  0  0
   -2.1631   -1.5782   -1.3530 H   0  0  0  0  0  0  0  0  0  0  0  0
   -2.0317    2.2565   -2.5007 H   0  0  0  0  0  0  0  0  0  0  0  0
   -7.3871    1.1910    0.2618 H   0  0  0  0  0  0  0  0  0  0  0  0
   -5.3529   -2.0546    0.5063 H   0  0  0  0  0  0  0  0  0  0  0  0
   -5.7647   -1.0906    1.9328 H   0  0  0  0  0  0  0  0  0  0  0  0
    3.3357   -2.0394   -1.0668 H   0  0  0  0  0  0  0  0  0  0  0  0
    3.0352   -1.4303    1.8061 H   0  0  0  0  0  0  0  0  0  0  0  0
    3.1517   -2.9950    0.8841 H   0  0  0  0  0  0  0  0  0  0  0  0
    4.6416   -2.1989    1.3472 H   0  0  0  0  0  0  0  0  0  0  0  0
    5.0242   -0.7462   -1.8315 H   0  0  0  0  0  0  0  0  0  0  0  0
    5.6224   -1.7239   -0.5036 H   0  0  0  0  0  0  0  0  0  0  0  0
    5.1493    1.3334   -0.2979 H   0  0  0  0  0  0  0  0  0  0  0  0
    6.6861    0.4086   -0.5852 H   0  0  0  0  0  0  0  0  0  0  0  0
    6.6788   -0.4661    1.6794 H   0  0  0  0  0  0  0  0  0  0  0  0
   -5.8303   -0.2390   -0.9544 H   0  0  0  0  0  0  0  0  0  0  0  0
   -5.4865    2.1247   -0.2145 H   0  0  0  0  0  0  0  0  0  0  0  0
   -4.8964    1.5035    1.3951 H   0  0  0  0  0  0  0  0  0  0  0  0
    5.1468    0.6589    3.1135 H   0  0  0  0  0  0  0  0  0  0  0  0
    7.1732    1.8758    0.9710 H   0  0  0  0  0  0  0  0  0  0  0  0
   -3.8461    1.0150   -1.4450 H   0  0  0  0  0  0  0  0  0  0  0  0
   -2.8189    2.4556    1.0314 H   0  0  0  0  0  0  0  0  0  0  0  0
   -3.3657    3.1424   -0.5074 H   0  0  0  0  0  0  0  0  0  0  0  0
   -0.7910    2.7731    0.0229 H   0  0  0  0  0  0  0  0  0  0  0  0
   -1.3449    0.3563   -1.6411 H   0  0  0  0  0  0  0  0  0  0  0  0
   -1.6338    0.8011    1.3619 H   0  0  0  0  0  0  0  0  0  0  0  0
  1  2  1  0
  3  4  1  0
  4  5  1  0
  5  6  1  0
  6  7  1  0
  7  8  1  0
  5  9  1  0
  8  9  1  0
  5 10  1  6
  2 11  1  6
  1 14  1  0
  9 15  1  0
 15 16  1  0
 15 17  1  0
 17 18  1  0
 18 19  1  0
 13 20  1  0
 14 20  1  0
 20 21  1  0
 19 22  1  0
 19 23  1  0
  2 24  1  0
 21 24  1  0
 24 25  1  0
 12 26  1  0
 25 26  1  0
  6 27  1  0
 26 27  1  0
  2 28  1  0
  3 28  1  0
 27 28  1  0
 29 30  1  0
 31 32  1  0
 32 33  1  0
 33 34  1  0
 34 35  1  0
 35 36  1  0
 33 37  1  0
 36 37  1  0
 33 38  1  6
 30 39  1  6
 29 42  1  0
 37 43  1  0
 43 44  1  0
 43 45  1  0
 45 46  1  0
 46 47  1  0
 41 48  1  0
 42 48  1  0
 48 49  1  0
 47 50  1  0
 47 51  1  0
 30 52  1  0
 49 52  1  0
 52 53  1  0
 40 54  1  0
 53 54  1  0
 34 55  1  0
 54 55  1  0
 30 56  1  0
 31 56  1  0
 55 56  1  0
  1 57  1  0
  1 58  1  0
  3 59  1  0
  3 60  1  0
  4 61  1  0
  4 62  1  0
  6 63  1  1
  7 64  1  0
  7 65  1  0
  8 66  1  0
  8 67  1  0
  9 68  1  1
 10 69  1  0
 10 70  1  0
 10 71  1  0
 11 72  1  0
 11 73  1  0
 11 74  1  0
 12 75  1  0
 13 76  1  0
 14 77  1  0
 14 78  1  0
 15 79  1  6
 16 80  1  0
 16 81  1  0
 16 82  1  0
 17 83  1  0
 17 84  1  0
 18 85  1  0
 18 86  1  0
 19 87  1  0
 20 88  1  6
 21 89  1  0
 21 90  1  0
 22 91  1  0
 23 92  1  0
 24 93  1  6
 25 94  1  0
 25 95  1  0
 26 96  1  1
 27 97  1  6
 28 98  1  1
 29 99  1  0
 29100  1  0
 31101  1  0
 31102  1  0
 32103  1  0
 32104  1  0
 34105  1  1
 35106  1  0
 35107  1  0
 36108  1  0
 36109  1  0
 37110  1  1
 38111  1  0
 38112  1  0
 38113  1  0
 39114  1  0
 39115  1  0
 39116  1  0
 40117  1  0
 41118  1  0
 42119  1  0
 42120  1  0
 43121  1  6
 44122  1  0
 44123  1  0
 44124  1  0
 45125  1  0
 45126  1  0
 46127  1  0
 46128  1  0
 47129  1  0
 48130  1  6
 49131  1  0
 49132  1  0
 50133  1  0
 51134  1  0
 52135  1  6
 53136  1  0
 53137  1  0
 54138  1  1
 55139  1  6
 56140  1  1
M  END
>  <PDBID>  (1) 
1IHI

>  <PDB ID>  (1) 
1IHI

>  <Generic Name>  (1) 
Ursodeoxycholic acid

>  <Brand Name>  (1) 
Actigall#Dom-ursodiol C#Mint-ursodiol#Novo-ursodiol#PHL-ursodiol C#PMS-ursodiol#PMS-ursodiol C#Pendo-ursodiol C#Urso#Urso 250#Urso DS#Urso Forte#Ursodiol#Ursodiol Tablets USP#Ursodiol Tablets, 250 mg#Ursodiol Tablets, 500 mg#Ursofalk#Cholit-ursan#Delursan#Destolit#Deursil#Litursol#Solutrat#Ursacol#Ursochol#Ursolvan

>  <DrugBank ID>  (1) 
DB01586

>  <ATC Codes>  (1) 
A05AA02

>  <Ligand ID>  (1) 
IU5,JN3

>  <Target Name>  (1) 
Aldo-keto reductase family 1 member C2

>  <UniProt ID>  (1) 
P52895

>  <PDB ID.1>  (1) 
1IHI

>  <Seq. Identity>  (1) 
100%

$$$$
