PDB_DB00966_09
     RDKit          3D

 99104  0  0  0  0  0  0  0  0999 V2000
   -1.2130   -2.0191   -0.3260 C   0  0  0  0  0  0  0  0  0  0  0  0
   -0.3204   -2.3904   -1.3447 N   0  0  0  0  0  0  0  0  0  0  0  0
   -2.4402   -2.8606   -0.7562 C   0  0  0  0  0  0  0  0  0  0  0  0
   -1.5992   -0.5731   -0.2769 C   0  0  0  0  0  0  0  0  0  0  0  0
   -0.4494   -3.7625   -1.5831 C   0  0  0  0  0  0  0  0  0  0  0  0
    0.7359   -1.6454   -1.7641 C   0  0  0  0  0  0  0  0  0  0  0  0
   -1.8529   -4.0505   -1.3458 N   0  0  0  0  0  0  0  0  0  0  0  0
   -3.1570   -2.1311   -1.8390 C   0  0  0  0  0  0  0  0  0  0  0  0
   -3.1142   -0.4829   -0.0461 C   0  0  0  0  0  0  0  0  0  0  0  0
   -0.1956   -4.1767   -3.0396 C   0  0  0  0  0  0  0  0  0  0  0  0
    1.9485   -1.4013   -0.9611 C   0  0  0  0  0  0  0  0  0  0  0  0
   -3.7587   -0.8092   -1.3441 C   0  0  0  0  0  0  0  0  0  0  0  0
   -4.2232   -2.9881   -2.4602 C   0  0  0  0  0  0  0  0  0  0  0  0
   -3.4767    0.8124    0.5650 C   0  0  0  0  0  0  0  0  0  0  0  0
   -0.3742   -5.6975   -3.1415 C   0  0  0  0  0  0  0  0  0  0  0  0
    2.9565   -0.5210   -1.7389 C   0  0  0  0  0  0  0  0  0  0  0  0
    1.7266   -0.6455    0.3270 C   0  0  0  0  0  0  0  0  0  0  0  0
   -4.8326    1.0712    0.8679 N   0  0  0  0  0  0  0  0  0  0  0  0
   -3.0822    1.9770   -0.1957 N   0  0  0  0  0  0  0  0  0  0  0  0
    0.6011   -6.4182   -2.2368 C   0  0  0  0  0  0  0  0  0  0  0  0
    4.2637   -0.6268   -0.9879 C   0  0  0  0  0  0  0  0  0  0  0  0
    3.0486   -0.7254    1.1071 C   0  0  0  0  0  0  0  0  0  0  0  0
   -4.7259    2.4137    1.4715 C   0  0  0  0  0  0  0  0  0  0  0  0
   -5.7149    1.2560   -0.2666 C   0  0  0  0  0  0  0  0  0  0  0  0
   -3.6463    3.0352    0.6431 C   0  0  0  0  0  0  0  0  0  0  0  0
    4.1603   -0.0112    0.3921 C   0  0  0  0  0  0  0  0  0  0  0  0
   -4.4436    2.3681    2.9266 C   0  0  0  0  0  0  0  0  0  0  0  0
   -2.5703    3.6874    1.4750 C   0  0  0  0  0  0  0  0  0  0  0  0
    4.0161    1.4901    0.3672 C   0  0  1  0  0  0  0  0  0  0  0  0
   -4.1823    3.7779    3.3996 C   0  0  0  0  0  0  0  0  0  0  0  0
   -3.2073    4.5237    2.5548 C   0  0  0  0  0  0  0  0  0  0  0  0
    3.9254    1.9990    1.7569 C   0  0  0  0  0  0  0  0  0  0  0  0
    5.2493    2.0537   -0.2852 C   0  0  0  0  0  0  0  0  0  0  0  0
    5.1426    1.6663    2.5869 C   0  0  0  0  0  0  0  0  0  0  0  0
    3.5624    3.4547    1.8751 C   0  0  0  0  0  0  0  0  0  0  0  0
    6.5055    1.8520    0.4898 C   0  0  0  0  0  0  0  0  0  0  0  0
    6.4228    2.1320    1.9474 C   0  0  0  0  0  0  0  0  0  0  0  0
    4.4233    4.3371    1.2917 O   0  0  0  0  0  0  0  0  0  0  0  0
    2.2818    3.7120    1.3754 O   0  0  0  0  0  0  0  0  0  0  0  0
   -0.9591   -2.4214    0.6804 H   0  0  0  0  0  0  0  0  0  0  0  0
   -3.0344   -3.1946    0.0896 H   0  0  0  0  0  0  0  0  0  0  0  0
   -1.3454    0.0042   -1.1789 H   0  0  0  0  0  0  0  0  0  0  0  0
   -1.0944   -0.1029    0.5947 H   0  0  0  0  0  0  0  0  0  0  0  0
    0.1134   -4.4323   -0.9013 H   0  0  0  0  0  0  0  0  0  0  0  0
    0.3621   -0.6146   -2.0829 H   0  0  0  0  0  0  0  0  0  0  0  0
    1.1028   -2.0513   -2.7650 H   0  0  0  0  0  0  0  0  0  0  0  0
   -2.0025   -4.9063   -0.7731 H   0  0  0  0  0  0  0  0  0  0  0  0
   -2.3951   -1.9459   -2.6524 H   0  0  0  0  0  0  0  0  0  0  0  0
   -3.3554   -1.2864    0.6766 H   0  0  0  0  0  0  0  0  0  0  0  0
    0.8274   -3.9724   -3.3619 H   0  0  0  0  0  0  0  0  0  0  0  0
   -0.9769   -3.7371   -3.6904 H   0  0  0  0  0  0  0  0  0  0  0  0
    2.5294   -2.3080   -0.6986 H   0  0  0  0  0  0  0  0  0  0  0  0
   -3.5372   -0.0787   -2.1512 H   0  0  0  0  0  0  0  0  0  0  0  0
   -4.8192   -1.0136   -1.1911 H   0  0  0  0  0  0  0  0  0  0  0  0
   -3.7802   -3.9335   -2.7878 H   0  0  0  0  0  0  0  0  0  0  0  0
   -4.5667   -2.4388   -3.3840 H   0  0  0  0  0  0  0  0  0  0  0  0
   -5.0864   -3.1061   -1.7866 H   0  0  0  0  0  0  0  0  0  0  0  0
   -2.9088    0.8854    1.5366 H   0  0  0  0  0  0  0  0  0  0  0  0
   -1.3939   -5.9354   -2.7741 H   0  0  0  0  0  0  0  0  0  0  0  0
   -0.2956   -5.9905   -4.1942 H   0  0  0  0  0  0  0  0  0  0  0  0
    3.0886   -0.8929   -2.7550 H   0  0  0  0  0  0  0  0  0  0  0  0
    2.5688    0.5153   -1.6884 H   0  0  0  0  0  0  0  0  0  0  0  0
    1.0052   -1.1821    0.9367 H   0  0  0  0  0  0  0  0  0  0  0  0
    1.4679    0.4176    0.1367 H   0  0  0  0  0  0  0  0  0  0  0  0
   -2.0368    2.0702   -0.2520 H   0  0  0  0  0  0  0  0  0  0  0  0
    1.5477   -5.8498   -2.1153 H   0  0  0  0  0  0  0  0  0  0  0  0
    0.1424   -6.7043   -1.2682 H   0  0  0  0  0  0  0  0  0  0  0  0
    0.8711   -7.3686   -2.7473 H   0  0  0  0  0  0  0  0  0  0  0  0
    4.3898   -1.7353   -0.7895 H   0  0  0  0  0  0  0  0  0  0  0  0
    5.1462   -0.3431   -1.5544 H   0  0  0  0  0  0  0  0  0  0  0  0
    2.9455   -0.5300    2.1654 H   0  0  0  0  0  0  0  0  0  0  0  0
    3.3197   -1.8225    1.0361 H   0  0  0  0  0  0  0  0  0  0  0  0
   -5.7050    2.9472    1.3327 H   0  0  0  0  0  0  0  0  0  0  0  0
   -6.4893    0.4619   -0.3291 H   0  0  0  0  0  0  0  0  0  0  0  0
   -5.1526    1.3978   -1.1959 H   0  0  0  0  0  0  0  0  0  0  0  0
   -6.3352    2.1984   -0.1661 H   0  0  0  0  0  0  0  0  0  0  0  0
   -4.1107    3.7815   -0.0521 H   0  0  0  0  0  0  0  0  0  0  0  0
    5.1022   -0.2476    0.9232 H   0  0  0  0  0  0  0  0  0  0  0  0
   -3.6607    1.6887    3.2524 H   0  0  0  0  0  0  0  0  0  0  0  0
   -5.3926    2.0446    3.4401 H   0  0  0  0  0  0  0  0  0  0  0  0
   -2.0312    4.4011    0.7909 H   0  0  0  0  0  0  0  0  0  0  0  0
   -1.8949    2.9349    1.8847 H   0  0  0  0  0  0  0  0  0  0  0  0
    3.1340    1.8140   -0.2234 H   0  0  0  0  0  0  0  0  0  0  0  0
   -5.1852    4.2928    3.4038 H   0  0  0  0  0  0  0  0  0  0  0  0
   -3.8767    3.7184    4.4642 H   0  0  0  0  0  0  0  0  0  0  0  0
   -3.7179    5.3904    2.0816 H   0  0  0  0  0  0  0  0  0  0  0  0
   -2.3866    4.9153    3.2025 H   0  0  0  0  0  0  0  0  0  0  0  0
    3.0746    1.4652    2.2962 H   0  0  0  0  0  0  0  0  0  0  0  0
    5.4175    1.6238   -1.3024 H   0  0  0  0  0  0  0  0  0  0  0  0
    5.1495    3.1583   -0.4978 H   0  0  0  0  0  0  0  0  0  0  0  0
    5.0357    2.2076    3.5510 H   0  0  0  0  0  0  0  0  0  0  0  0
    5.1672    0.5855    2.8344 H   0  0  0  0  0  0  0  0  0  0  0  0
    3.4998    3.7495    2.9646 H   0  0  0  0  0  0  0  0  0  0  0  0
    7.2689    2.5661    0.0601 H   0  0  0  0  0  0  0  0  0  0  0  0
    6.9686    0.8384    0.2985 H   0  0  0  0  0  0  0  0  0  0  0  0
    7.2495    1.5452    2.4452 H   0  0  0  0  0  0  0  0  0  0  0  0
    6.6520    3.1933    2.1865 H   0  0  0  0  0  0  0  0  0  0  0  0
    3.9943    5.0793    0.8012 H   0  0  0  0  0  0  0  0  0  0  0  0
    1.9945    4.5710    1.7636 H   0  0  0  0  0  0  0  0  0  0  0  0
  1  2  1  0
  1  3  1  0
  1  4  1  0
  2  5  1  0
  2  6  1  0
  3  7  1  0
  5  7  1  0
  3  8  1  0
  4  9  1  0
  5 10  1  0
  6 11  1  0
  8 12  1  0
  9 12  1  0
  8 13  1  0
  9 14  1  0
 10 15  1  0
 11 16  1  0
 11 17  1  0
 14 18  1  0
 14 19  1  0
 15 20  1  0
 16 21  1  0
 17 22  1  0
 18 23  1  0
 18 24  1  0
 19 25  1  0
 23 25  1  0
 21 26  1  0
 22 26  1  0
 23 27  1  0
 25 28  1  0
 26 29  1  0
 27 30  1  0
 28 31  1  0
 30 31  1  0
 29 32  1  0
 29 33  1  0
 32 34  1  0
 32 35  1  0
 33 36  1  0
 34 37  1  0
 36 37  1  0
 35 38  1  0
 35 39  1  0
  1 40  1  0
  3 41  1  0
  4 42  1  0
  4 43  1  0
  5 44  1  0
  6 45  1  0
  6 46  1  0
  7 47  1  0
  8 48  1  0
  9 49  1  0
 10 50  1  0
 10 51  1  0
 11 52  1  0
 12 53  1  0
 12 54  1  0
 13 55  1  0
 13 56  1  0
 13 57  1  0
 14 58  1  0
 15 59  1  0
 15 60  1  0
 16 61  1  0
 16 62  1  0
 17 63  1  0
 17 64  1  0
 19 65  1  0
 20 66  1  0
 20 67  1  0
 20 68  1  0
 21 69  1  0
 21 70  1  0
 22 71  1  0
 22 72  1  0
 23 73  1  0
 24 74  1  0
 24 75  1  0
 24 76  1  0
 25 77  1  0
 26 78  1  0
 27 79  1  0
 27 80  1  0
 28 81  1  0
 28 82  1  0
 29 83  1  6
 30 84  1  0
 30 85  1  0
 31 86  1  0
 31 87  1  0
 32 88  1  0
 33 89  1  0
 33 90  1  0
 34 91  1  0
 34 92  1  0
 35 93  1  0
 36 94  1  0
 36 95  1  0
 37 96  1  0
 37 97  1  0
 38 98  1  0
 39 99  1  0
M  END
>  <PDBID>  (1) 
3VN2

>  <PDB ID>  (1) 
3VN2

>  <Generic Name>  (1) 
Telmisartan

>  <Brand Name>  (1) 
Ach-telmisartan Hctz#Act Telmisartan#Act Telmisartan/hct#Apo-telmisartan#Apo-telmisartan/hctz#Auro-telmisartan#Auro-telmisartan Hctz#Mar-telmisartan#Micardis#Micardis 40mg Tab#Micardis 80mg Tab#Micardis Hct#Micardis Plus#Mylan-telmisartan#Mylan-telmisartan Hctz#Ntp-telmisartan#Ntp-telmisartan Hctz#PMS-telmisartan#PMS-telmisartan-hctz#Pendo-telmisartan#Pendo-telmisartan-hctz#Ran-telmisartan#Ran-telmisartan Hctz#Sandoz Telmisartan#Sandoz Telmisartan Hct#Septa-telmisartan#Telmisartan#Telmisartan Hctz#Telmisartan Tablets#Telmisartan and Amlodipine#Telmisartan and Hydrochlorothiazide#Telmisartan and Hydrochlorothiazide 40 Mg/12.5 mg#Telmisartan and Hydrochlorothiazide 80 Mg/12.5 mg#Telmisartan and Hydrochlorothiazide 80 Mg/25 mg#Telmisartan and Hydrochlorthiazide#Telmisartan-hctz#Telmisartan/hctz#Teva-telmisartan#Teva-telmisartan Hctz#Torrent-telmisartan#Torrent-telmisartan and Hydrochlorothiazide#Twynsta#Van-telmisartan#Van-telmisartan-hctz#Zinda-telmisartan#Zinda-telmisartan/ Hctz#Pritor

>  <DrugBank ID>  (1) 
DB00966

>  <ATC Codes>  (1) 
C09DB04#C09DA07#C09CA07

>  <Ligand ID>  (1) 
TLS

>  <Target Name>  (1) 
Peroxisome proliferator-activated receptor gamma

>  <UniProt ID>  (1) 
P37231

>  <PDB ID.1>  (1) 
3VN2

>  <Seq. Identity>  (1) 
95%

$$$$
