PDB_DB00380_00
     RDKit          3D

 43 44  0  0  0  0  0  0  0  0999 V2000
    4.5813    1.4554   -1.5773 O   0  0  0  0  0  0  0  0  0  0  0  0
    3.6959    0.4077   -1.2337 C   0  0  0  0  0  0  0  0  0  0  0  0
    4.3690   -0.3791   -0.2440 N   0  0  0  0  0  0  0  0  0  0  0  0
    3.4767   -1.0504    0.6592 C   0  0  0  0  0  0  0  0  0  0  0  0
    3.4115   -0.3862    1.8693 O   0  0  0  0  0  0  0  0  0  0  0  0
    2.1235   -1.1387   -0.0246 C   0  0  0  0  0  0  0  0  0  0  0  0
    2.4442    1.0613   -0.7497 C   0  0  0  0  0  0  0  0  0  0  0  0
    1.4884    0.0872   -0.2152 N   0  0  0  0  0  0  0  0  0  0  0  0
    0.6576    0.6747    0.7460 C   0  0  0  0  0  0  0  0  0  0  0  0
   -0.6627    0.0164    1.0270 C   0  0  2  0  0  0  0  0  0  0  0  0
   -0.5881   -1.3717    1.5921 C   0  0  0  0  0  0  0  0  0  0  0  0
   -1.4822    0.0304   -0.2012 N   0  0  0  0  0  0  0  0  0  0  0  0
   -2.3809   -1.0793   -0.2871 C   0  0  0  0  0  0  0  0  0  0  0  0
   -3.6187   -0.7585   -1.0968 C   0  0  0  0  0  0  0  0  0  0  0  0
   -4.4378   -1.8771   -1.0381 O   0  0  0  0  0  0  0  0  0  0  0  0
   -4.3500    0.3728   -0.5900 N   0  0  0  0  0  0  0  0  0  0  0  0
   -3.5658    1.2412    0.2562 C   0  0  0  0  0  0  0  0  0  0  0  0
   -2.1662    1.2910   -0.3284 C   0  0  0  0  0  0  0  0  0  0  0  0
   -4.0885    2.5139    0.1980 O   0  0  0  0  0  0  0  0  0  0  0  0
    5.2687    1.5952   -0.8765 H   0  0  0  0  0  0  0  0  0  0  0  0
    3.5688   -0.1664   -2.1826 H   0  0  0  0  0  0  0  0  0  0  0  0
    5.1220    0.1495    0.2488 H   0  0  0  0  0  0  0  0  0  0  0  0
    3.7815   -2.1030    0.8674 H   0  0  0  0  0  0  0  0  0  0  0  0
    4.2104    0.1473    2.0576 H   0  0  0  0  0  0  0  0  0  0  0  0
    2.3899   -1.5252   -1.0689 H   0  0  0  0  0  0  0  0  0  0  0  0
    1.5941   -1.9692    0.4238 H   0  0  0  0  0  0  0  0  0  0  0  0
    2.0199    1.6688   -1.5595 H   0  0  0  0  0  0  0  0  0  0  0  0
    2.7062    1.7427    0.0842 H   0  0  0  0  0  0  0  0  0  0  0  0
    0.4217    1.7141    0.3967 H   0  0  0  0  0  0  0  0  0  0  0  0
    1.1330    0.8250    1.7477 H   0  0  0  0  0  0  0  0  0  0  0  0
   -1.1986    0.6486    1.7474 H   0  0  0  0  0  0  0  0  0  0  0  0
   -0.7031   -2.1775    0.8646 H   0  0  0  0  0  0  0  0  0  0  0  0
    0.2724   -1.4268    2.2723 H   0  0  0  0  0  0  0  0  0  0  0  0
   -1.4804   -1.5159    2.2911 H   0  0  0  0  0  0  0  0  0  0  0  0
   -2.7119   -1.4758    0.6827 H   0  0  0  0  0  0  0  0  0  0  0  0
   -1.8461   -1.8897   -0.8340 H   0  0  0  0  0  0  0  0  0  0  0  0
   -3.3778   -0.5730   -2.1623 H   0  0  0  0  0  0  0  0  0  0  0  0
   -4.0725   -2.6170   -0.5003 H   0  0  0  0  0  0  0  0  0  0  0  0
   -5.1911    0.0654   -0.0379 H   0  0  0  0  0  0  0  0  0  0  0  0
   -3.5534    0.8929    1.3178 H   0  0  0  0  0  0  0  0  0  0  0  0
   -2.2885    1.6245   -1.3787 H   0  0  0  0  0  0  0  0  0  0  0  0
   -1.5829    2.0426    0.2385 H   0  0  0  0  0  0  0  0  0  0  0  0
   -3.3896    3.2117    0.0758 H   0  0  0  0  0  0  0  0  0  0  0  0
  1  2  1  0
  2  3  1  0
  3  4  1  0
  4  5  1  0
  4  6  1  0
  2  7  1  0
  6  8  1  0
  7  8  1  0
  8  9  1  0
  9 10  1  0
 10 11  1  0
 10 12  1  0
 12 13  1  0
 13 14  1  0
 14 15  1  0
 14 16  1  0
 16 17  1  0
 12 18  1  0
 17 18  1  0
 17 19  1  0
  1 20  1  0
  2 21  1  0
  3 22  1  0
  4 23  1  0
  5 24  1  0
  6 25  1  0
  6 26  1  0
  7 27  1  0
  7 28  1  0
  9 29  1  0
  9 30  1  0
 10 31  1  1
 11 32  1  0
 11 33  1  0
 11 34  1  0
 13 35  1  0
 13 36  1  0
 14 37  1  0
 15 38  1  0
 16 39  1  0
 17 40  1  0
 18 41  1  0
 18 42  1  0
 19 43  1  0
M  END
>  <PDBID>  (1) 
1QZR

>  <PDB ID>  (1) 
1QZR

>  <Generic Name>  (1) 
Dexrazoxane

>  <Brand Name>  (1) 
Dexrazoxane#Dexrazoxane Hydrochloride#Zinecard#Ao Nuo Xian#Cardioxane#Dexrazoxane#Savene#Totect

>  <DrugBank ID>  (1) 
DB00380

>  <ATC Codes>  (1) 
V03AF02

>  <Ligand ID>  (1) 
CDX

>  <Target Name>  (1) 
DNA topoisomerase 2-alpha

>  <UniProt ID>  (1) 
P11388

>  <PDB ID.1>  (1) 
1QZR

>  <Seq. Identity>  (1) 
51%

$$$$
