PDB_DB00234_07
     RDKit          3D

 58 60  0  0  0  0  0  0  0  0999 V2000
    3.7803    2.8274    1.7349 C   0  0  0  0  0  0  0  0  0  0  0  0
    3.3998    1.9629    0.5269 C   0  0  0  0  0  0  0  0  0  0  0  0
    3.1246    0.7313    0.9784 O   0  0  0  0  0  0  0  0  0  0  0  0
    2.7518   -0.2521    0.1002 C   0  0  0  0  0  0  0  0  0  0  0  0
    3.8004   -1.3466   -0.0210 C   0  0  0  0  0  0  0  0  0  0  0  0
    3.2734   -2.5372   -0.7665 C   0  0  0  0  0  0  0  0  0  0  0  0
    1.9136   -2.9858   -0.2917 C   0  0  0  0  0  0  0  0  0  0  0  0
    1.6141   -2.2306    0.9616 C   0  0  0  0  0  0  0  0  0  0  0  0
    1.4174   -0.7854    0.5698 C   0  0  0  0  0  0  0  0  0  0  0  0
    0.4778   -0.5846   -0.4287 O   0  0  0  0  0  0  0  0  0  0  0  0
   -0.6395    0.1263   -0.0151 C   0  0  2  0  0  0  0  0  0  0  0  0
   -1.8635   -0.6926   -0.3126 C   0  0  0  0  0  0  0  0  0  0  0  0
   -1.8119   -2.0353    0.3825 C   0  0  0  0  0  0  0  0  0  0  0  0
   -3.0597   -2.8479   -0.0124 C   0  0  0  0  0  0  0  0  0  0  0  0
   -4.3274   -2.0875    0.1708 C   0  0  0  0  0  0  0  0  0  0  0  0
   -4.0370   -0.8622    0.9656 C   0  0  0  0  0  0  0  0  0  0  0  0
   -3.0418    0.0582    0.2930 C   0  0  0  0  0  0  0  0  0  0  0  0
   -0.6947    1.4779   -0.7072 C   0  0  2  0  0  0  0  0  0  0  0  0
   -1.7815    2.2157   -0.3436 O   0  0  0  0  0  0  0  0  0  0  0  0
   -2.2147    3.0887   -1.3388 C   0  0  0  0  0  0  0  0  0  0  0  0
   -1.0750    3.7023   -2.0953 C   0  0  0  0  0  0  0  0  0  0  0  0
   -0.2557    2.6964   -2.7006 N   0  0  0  0  0  0  0  0  0  0  0  0
   -0.6564    1.3976   -2.2073 C   0  0  0  0  0  0  0  0  0  0  0  0
    2.8063    3.0997    2.2169 H   0  0  0  0  0  0  0  0  0  0  0  0
    4.3455    3.7160    1.4169 H   0  0  0  0  0  0  0  0  0  0  0  0
    4.3229    2.2359    2.5015 H   0  0  0  0  0  0  0  0  0  0  0  0
    4.1656    2.0393   -0.2665 H   0  0  0  0  0  0  0  0  0  0  0  0
    2.4909    2.4321    0.1054 H   0  0  0  0  0  0  0  0  0  0  0  0
    2.7044    0.1963   -0.9146 H   0  0  0  0  0  0  0  0  0  0  0  0
    4.2872   -1.5997    0.9306 H   0  0  0  0  0  0  0  0  0  0  0  0
    4.6162   -0.9352   -0.6801 H   0  0  0  0  0  0  0  0  0  0  0  0
    3.2662   -2.4005   -1.8721 H   0  0  0  0  0  0  0  0  0  0  0  0
    3.9756   -3.4078   -0.6030 H   0  0  0  0  0  0  0  0  0  0  0  0
    1.1816   -2.6569   -1.0696 H   0  0  0  0  0  0  0  0  0  0  0  0
    1.8353   -4.0867   -0.1718 H   0  0  0  0  0  0  0  0  0  0  0  0
    2.5075   -2.2739    1.6164 H   0  0  0  0  0  0  0  0  0  0  0  0
    0.7880   -2.6515    1.5578 H   0  0  0  0  0  0  0  0  0  0  0  0
    1.0230   -0.2876    1.4766 H   0  0  0  0  0  0  0  0  0  0  0  0
   -0.6164    0.3544    1.0605 H   0  0  0  0  0  0  0  0  0  0  0  0
   -2.0044   -0.8930   -1.3852 H   0  0  0  0  0  0  0  0  0  0  0  0
   -1.7334   -1.9938    1.4648 H   0  0  0  0  0  0  0  0  0  0  0  0
   -0.9735   -2.6677   -0.0491 H   0  0  0  0  0  0  0  0  0  0  0  0
   -3.1005   -3.7593    0.6248 H   0  0  0  0  0  0  0  0  0  0  0  0
   -2.9818   -3.1809   -1.0665 H   0  0  0  0  0  0  0  0  0  0  0  0
   -5.1011   -2.6698    0.7168 H   0  0  0  0  0  0  0  0  0  0  0  0
   -4.7811   -1.7783   -0.7931 H   0  0  0  0  0  0  0  0  0  0  0  0
   -4.9840   -0.2747    1.0779 H   0  0  0  0  0  0  0  0  0  0  0  0
   -3.6958   -1.0873    1.9987 H   0  0  0  0  0  0  0  0  0  0  0  0
   -3.5430    0.6892   -0.4422 H   0  0  0  0  0  0  0  0  0  0  0  0
   -2.6979    0.7384    1.1299 H   0  0  0  0  0  0  0  0  0  0  0  0
    0.2063    2.0321   -0.3780 H   0  0  0  0  0  0  0  0  0  0  0  0
   -2.7520    3.9137   -0.8226 H   0  0  0  0  0  0  0  0  0  0  0  0
   -2.9042    2.6502   -2.0566 H   0  0  0  0  0  0  0  0  0  0  0  0
   -1.4390    4.3608   -2.9163 H   0  0  0  0  0  0  0  0  0  0  0  0
   -0.4898    4.3947   -1.4347 H   0  0  0  0  0  0  0  0  0  0  0  0
    0.7422    2.8979   -2.4004 H   0  0  0  0  0  0  0  0  0  0  0  0
   -1.6477    1.1579   -2.6440 H   0  0  0  0  0  0  0  0  0  0  0  0
    0.0872    0.6590   -2.5914 H   0  0  0  0  0  0  0  0  0  0  0  0
  1  2  1  0
  2  3  1  0
  3  4  1  0
  4  5  1  0
  5  6  1  0
  6  7  1  0
  7  8  1  0
  4  9  1  0
  8  9  1  0
  9 10  1  0
 10 11  1  0
 11 12  1  0
 12 13  1  0
 13 14  1  0
 14 15  1  0
 15 16  1  0
 12 17  1  0
 16 17  1  0
 11 18  1  0
 18 19  1  0
 19 20  1  0
 20 21  1  0
 21 22  1  0
 18 23  1  0
 22 23  1  0
  1 24  1  0
  1 25  1  0
  1 26  1  0
  2 27  1  0
  2 28  1  0
  4 29  1  0
  5 30  1  0
  5 31  1  0
  6 32  1  0
  6 33  1  0
  7 34  1  0
  7 35  1  0
  8 36  1  0
  8 37  1  0
  9 38  1  0
 11 39  1  1
 12 40  1  0
 13 41  1  0
 13 42  1  0
 14 43  1  0
 14 44  1  0
 15 45  1  0
 15 46  1  0
 16 47  1  0
 16 48  1  0
 17 49  1  0
 17 50  1  0
 18 51  1  1
 20 52  1  0
 20 53  1  0
 21 54  1  0
 21 55  1  0
 22 56  1  0
 23 57  1  0
 23 58  1  0
M  END
>  <PDBID>  (1) 
4XNX

>  <PDB ID>  (1) 
4XNX

>  <Generic Name>  (1) 
Reboxetine

>  <Brand Name>  (1) 
Davedax#Edronax#Norebox#Prolift#Solvex#Vestra

>  <DrugBank ID>  (1) 
DB00234

>  <ATC Codes>  (1) 
N06AX18

>  <Ligand ID>  (1) 
41X

>  <Target Name>  (1) 
Sodium-dependent noradrenaline transporter

>  <UniProt ID>  (1) 
P23975

>  <PDB ID.1>  (1) 
4XNX

>  <Seq. Identity>  (1) 
58%

$$$$
