PDB_DB09462_00
     RDKit          3D

 14 13  0  0  0  0  0  0  0  0999 V2000
   -1.3039   -0.4035    0.1807 C   0  0  0  0  0  0  0  0  0  0  0  0
   -1.4485   -0.7190   -1.1830 O   0  0  0  0  0  0  0  0  0  0  0  0
   -0.1552    0.5760    0.2636 C   0  0  0  0  0  0  0  0  0  0  0  0
    0.1159    0.9877    1.5532 O   0  0  0  0  0  0  0  0  0  0  0  0
    1.0469   -0.1140   -0.3731 C   0  0  0  0  0  0  0  0  0  0  0  0
    2.1516    0.7292   -0.4363 O   0  0  0  0  0  0  0  0  0  0  0  0
   -1.0418   -1.3796    0.6822 H   0  0  0  0  0  0  0  0  0  0  0  0
   -2.2468   -0.0101    0.5827 H   0  0  0  0  0  0  0  0  0  0  0  0
   -2.0989   -0.0889   -1.5442 H   0  0  0  0  0  0  0  0  0  0  0  0
   -0.4459    1.4628   -0.3296 H   0  0  0  0  0  0  0  0  0  0  0  0
    0.4893    0.2720    2.0893 H   0  0  0  0  0  0  0  0  0  0  0  0
    1.2770   -1.0335    0.2025 H   0  0  0  0  0  0  0  0  0  0  0  0
    0.7087   -0.4301   -1.3839 H   0  0  0  0  0  0  0  0  0  0  0  0
    2.9517    0.1511   -0.3041 H   0  0  0  0  0  0  0  0  0  0  0  0
  1  2  1  0
  1  3  1  0
  3  4  1  0
  3  5  1  0
  5  6  1  0
  1  7  1  0
  1  8  1  0
  2  9  1  0
  3 10  1  0
  4 11  1  0
  5 12  1  0
  5 13  1  0
  6 14  1  0
M  END
>  <PDBID>  (1) 
3TKM

>  <PDB ID>  (1) 
3TKM

>  <Generic Name>  (1) 
Glycerin

>  <Brand Name>  (1) 
2x First Essence#3 En 1 Cleanser. Deep Cleansing#3ce Liqu Id Eye Liner Black#3ce Liqu Id Eye Liner Brown#3d Lifting#75% Olive Oil Marseille#Ab Duo Whitening A#Ac All#Ac Clear Sheet Mask#Ac Control Daily Mask#Actifirm Recovery Toner Gowoonsesang Expert#Active Resurgence#Active Resurgence Eye#Active Resurgence Serum#Active Resurgence Toner#Adipowin#Adult Glycerin Laxative#Advanced Cell Boosting EX Night#Advanced Cell Boosting EX Toner#Advanced Cell Boosting EX Watery#Advanced Eye Relief Dry Eye Rejuvenation#Africa Bird Homme All In One Moisturizer#Agarol Eml Strawberry#Agarol Plain#Agarol Plain Eml#Agarol Vanilla Laxative Liq#Ala-C Cell Clinic Solution#All In One Dual Mask#All In One Multi Foam Cleanser#Allvit Revital#Allvit Revital Skin#Allvit Skin Lighting Cleansing Foa M#Aloe Bha Skin Toner#Aloe Soothing#Aloe Vera Gel#Always Bright Extra Brightening#Always Bright Lightening Oxy Peel#Always Bright Spot Lumedic#Always Decongest Relief Ample#Always Decongest Soothing Mask#Always Pure First Aid#Always Pure First Aid Toner#An Adc Egf Wrinkle Eye#An Adc Sp Intensive Wrinkle Eye#An12#Anti Wrinkle Effect#Anti Wrinkle Effect Ample#Anti Wrinkle Effect Eye#Anti Wrinkle Hand Essence#Antizom#Anypack Aloe Vera Sheet Mask#Anypack Aloe Vera Tencel Mask#Anypack Crysta L Season Second Skin Hydro Face Mask#Anypack Gold Season Second Skin Hydro Face Mask#Anypack Multi Active Hydroge L Eye#Anypack Pearl Sheet Mask#Anypack Pearl Tencel Mask#Anypack Pomegranate Sheet Mask#Anypack Pomegranate Tencel Mask#Anypack Royal Jel Ly Sheet Mask#Anypack Royal Jel Ly Tencel Mask#Apple Bubble#Aqua Bab Modeling Mask#Aqua Collagen Hyaluronic Acid Hydro Mask#Aqua Collagen Marine Hydro Lip#Aqua Collagen Marine Hydro Mask#Aqua Collagen Marine Hydro Mask 25g#Aqua Collagen Solu Tion Marine Hydroge L Eye Crea M Mask#Aqua Collagen Solution Eye Treatment Mask#Aqua Collagen Solution Marine Hydrogel Eye#Aqua Rush#Aqua Rush Cover Cushion#Aqua Rush Serum#Aqua-ear Dps#Artifical Tears#Artificial Tears#At Alpha#At Alpha Plus#Ato All#Ato Pollen#Atono2 Oxygen Baby Bath And#Atono2 Oxygen Baby Cream#Atono2 Oxygen Baby Soothing Gel#Atono2 Oxygen Bubble Foam#Atono2 Oxygen Pure Bath And#Atopalm Hemorrhoidal Pain Relieving#Atorak Ampoule#Atorak Intensive Moisture#Atorak Intensive Mousture#Atosis Mist#Avedana Glycerin Laxative#B Bind Rejuvenating Neoendorphin Mask Pack#Baborganic Pure Energizing Skin#Baborganic Pure Line Reducing#Baby Head and Body Jelly Wash#Balmers Hanryeoncho Scalp Scooling Mud Pack#Beaubeaute Collagen Hydroge L Essence Beauty Mask#Beaubeaute Placenta Hydroge L Essence Beauty Mask#Bee Venom#Bee Venom Cleansing Foam#Bee Venom Toner#Bee Venom Treatment Spot#Beevenom#Beevenom Emulsion#Beevenom Mask Sheet#Beevenom Sleeping Mask#Beevenom Toner#Benton Fermentation Essence#Benton Fermentation Eye#Better Than Nature Skin Softner#Biellee Pollen Whitening Wrinkle Time Repair Ampoule#Bio Miracle Amethyst Mask#Bio Skin Crystal Bio-cellulose Mask#Bk Cell 5days Of Secret Aqua Moisturizing#Bk Cell 5days Of Secret Mystic Cleansing#Bk Cell 5days Of Secret Purity Wrinkle Lifting#Black Paint Rubar#Blemish Potion#Blemish Serum#Blemish Soothing Moisturizer#Blemish Toner#Blister Balm Protective Lip Treatment#Blooming Shield To Foam Cleanser#Blooming Shield Waterful#Body Scrub#Brtc Animal Horse#Brtc Animal Mask Shark#Brtc Animal Mask Swallow#Brtc Animal Msk Sheep#Brtc Anti Blemish Complex#Brtc Blue Phyto Complex#Brtc Bright Eye Vitalizer#Brtc Jasmine 3d Jelly Foundation#Brtc Make Over Mask Bewitch#Brtc Make Over Mask Empress#Brtc Make Over Mask Purity#Brtc Make Over Mask Temptation#Brtc Overnight Pore Tightener#Brtc Purple Vigor Complex#Brtc Tannin Pore Complex#Brtc Vitalizer Sleeping Pack#Brtc White Phyto Complex#Bubble Refining Cleanser#Burzangmury Gold#Burzangmury Gold Treatment#By Pharmicell Lab Beaucell Dual Hydrogel Mask#By Pharmicell Lab The Prestige#Calming Skin#Camelia Body#Careall Artifical Tears#Carecella Bodyshaper Warming#Carecella Carboxy#Carecella Facial Line-UP Lifting#Carecella Facial Line-UP Tightening Serum#Carecella Vfb Bio Peel Serum#Carecellla Facial Line-UP#Cell Renew Bio Micro Peel Soft#Cellboosting Homme Skin#Cellboosting Whitening Toner#Cellisys EX Egf Intense Mask Egf#Cellisys EX Egf Wrinkle 29 Activator#Cellisys EX Wrinkle Solution#Cellpium Rich Body#Cellpium Shinyline#Centella Scar#Cepacol Dual Relief#Cepacol Sore Throat#Cepacol Ultra Sore Throat#Ceviangs Hydro Effective Moisturizing#Ceviangs Revolutionary Ultra Rejuvenating Ampoule#Ceviangs Revolutionary Ultra Rejuvenating Ampoule Special#Ceviangs Ultra Hydro Effective Sun#Ceviangs Ultra Total B B#Chica Y Chico Killing Star Cleanser#Chloraseptic Sore Throat Max#Clapiel Vita C Serum#Cleanser Balancing#Cleanser Sensitive Skin#Clear Eyes Acr By Murine#Clear Eyes Allergy#Clear Eyes Cooling Itchy Eye Relief#Clear Eyes Cooling Redness Relief#Clear Eyes Extra Strength Redness Relief#Clear Eyes Maximum Itchy Eye Relief#Clear Eyes Maximum Redness Relief#Clear Eyes Pure Relief Multisymptom#Clear Eyes Pure Relief for Dry Eyes#Clear Eyes Redness Relief#Clear Eyes Redness Relief Handy Pocket Pal#Clear Eyes for Dry Eyes#Clear Eyes for Dry Eyes Plus Redness Relief#Clenziderm Normal To Dry Skin Acne Therapeutic System#Clenziderm Therapeutic Moisturizer#Cliv Barrier Power#Cliv Barrier Power Ampoule#Cliv Character Mask Bee#Cliv Character Mask Panda#Cliv Character Mask Penguin#Cliv Character Mask Tiger#Cliv Ginseng Berry Premium#Cliv Ginseng Berry Premium Ampoule#Cliv Ginseng Berry Premium Eye#Cliv Ryeoyun Snow White#Cliv Ryeoyun Snow White Ampoule#Cluederm Body#Cluederm Body 10.5g#Cluederm Body 7.5g#Cluederm Lifting#Co2 Carbonic Body Fit#Co2 Carbonic Pack#Co2 Polymer Mask Pack#Coca-glycerine Control#Collagen Resurgence Laser Ampoule#Collagen Resurgence Mask#Colloidal Iodine#Collyrium Eye Drops#Complete Dermask#Coral S#Correct Combo#Correct Essential Activator#Correway Personal Lubricant#Cotton Armpit#Cp Bebe#Cp Bebe Wash#Cp Medi#Cp Medi Theraphy#Curel Alpha Hydroxy Dry Skin Lotion#Curel Therapeutic Moisturizing Lotion#Cvs Health Maximum Strength Sore Throat Fast Relief#Cvs Hemorrhoidal#Cvs Moisturizing Lubricating Eye#Cvs Moisturizing Lubricating Eye Twin Pack#Cvs Pharmacy Childrens Glycerin Suppositories Laxative#Cvs Pharmacy Glycerin Laxative#Cvs Pharmacy Glycerin Suppositories Laxative#Danchun Jade Oriental Herb Cosmetics#Dcs Blemish Care#Dcs Blemish Care Ampoule#Dcs Blemish Care Foam Cleanser#Dcs Intensive Vital#Dcs Intensive Vital Mask#Dcs Intensive Vital Toner#Dcs Merderm Jeju Lava Seawater Cleansing Foam#Dcs Pore Heating Cleansing#Dcs Pore Refining#Dcs Pore Tightening Serum#Dead Skin Perfect Cleanser#Deer Velvet Ampoule#Derm-apply#Derma Dr.lab Hydromoist Balancing Cream#Derma Dr.lab Hydromoist Day Gel Serum#Derma Dr.lab Hydromoist Essential Toner#Derma Dr.lab Hydromoist Mild Bubble Foam#Derma Dr.lab Hydromoist Water Gel Cream#Dermoessential Post Lnc#Dermoessential Post Lnc Mist#Dermoessential Post Lnc Serum#Dg Health Artifical Tears#Dg Health Maximum Redness Relief#Doobony Mosrepel#Double S Essence Clean#Double S Essence Clean 2g 5ea#Dr Deep Deep Fresh#Dr Deep Multiemulsion#Dr Deep Skintoner#Dr G Dewrinkle Booster Ample By Egf#Dr G Dewrinkle Fortifier By Egf#Dr G Whitening Fortifier By Egf#Dr Vita Clinic Gently Vita Exfoliator#Dr. Althea Foaming Cleanser and Bubble O2 Mask#Dr. Babor Derma Cellular Ultimate Firming Decollete Mask#Dr. Iaso Uv Total Base SPF 46 Pa#Dr. Iaso Vita White#Dr. Serse#Dr.althea Herb Therapy Velvet Mask#Dr.g Actifirm Real Lifting#Dr.g Actifirm Real Lifting Cell Essence#Dr.g Actifirm Real Lifting Emulsion#Dr.g Actifirm Real Lifting Eye#Dr.g Aqua Collagen Mask#Dr.g Aquasis Moisture Ampoule#Dr.g Aquasis Moisture Toner#Dr.g Dewrinkle Booster Ample By Egf#Dr.g Dewrinkle Fortifier By Egf#Dr.g Honey Hand Care#Dr.g Hydra Fresh Ph Mist#Dr.g Hydra Full Of Water#Dr.g Hydra Intensive#Dr.g Hydra Intensive Bubble Foam Cleanser#Dr.g Hydra Intensive Cleansing Water#Dr.g Lavender Hand Care#Dr.g Olive Hand Care#Dr.g Pore Mask Peeling#Dr.g Red-blemish Clear#Dr.g Red-blemish Soothing Ampoule#Dr.g Revital Enhancer#Dr.g Revital Enhancer Cleansing Foam#Dr.g Revital Enhancer Emulsion#Dr.g Revital Enhancer Toner#Dr.g Whitening Booster Ample By Egf#Dr.g Whitening Fortifier By Egf#Dr.g Whitening Reformer By Egf#Dr.g Whitening Vita Mask#Dr.g Wrinkle Snail Mask#Dr.isao Vita White Serum#Dr.jart All That Lift and Firm#Dr.jart Prescriptment All That Lift and Firm#Dry Eye Relief#Dry Eye Tears#Dsc Pore Cleansing#Dynamiclear Oro#Dynarex Hydrogel#Ear Dry Leader#Easydew Daily Double Hydra Crea M Mask#Easydew Daily Double Hydra Toner#Easydew Daily Extra Mild Peeling#Easydew Daily Moist Cleansing Whip Foa M#Egf Crystal 10 Ppm#Elikin Anti Wrinkle Maskpack#Elikin Aqua Maskpack#Elikin Collagen Maskpack#Elikin Whitening Maskpack#Equaline Hemorrhoidal#Equate Hemorrhoidal#Equate Lubricating Eye#Equate Restore Dual Sensitive Lubricant#Eros Aqua#Eros Aqua Based#Eros Aqua Sensations Water Based#Eros Explorer Man#Eros Extended Love 1 Top Level#Eros Extended Love 2 Top Level#Eros Extended Love 3 Top Level#Eros Extended Love Glide 1 Top Level#Eros Extended Love Glide 2 Top Level#Eros Extended Love Glide 3 Top Level#Eros Fisting Gel Slide X#Eros Fisting Gel Ultra X#Eros Relax Woman#Eros Tasty Fruits#Essenherb Tea Tree 70 Sleeping Pack#Essenherb Tea Tree 90 Calming Toner#Essential Body Moisturizing Essence#Essential Body Nutritive Butter#Essential Body Relaxing Essence#Essential Solution Caviar Mask Sheet#Essential Solution Coenzyme Q10 Mask Sheet#Essential Solution Collagen Mask Sheet#Essential Solution Honey Mask Sheet#Essential Solution Hyaluronic Acid Mask Sheet#Essential Solution Pearl Mask Sheet#Essential Solution Red Ginseng Mask Sheet#Essential Solution Vita A Mask Sheet#Essential Solution Vita C Mask Sheet#Eveserum#Eye Dclare II Lubricant Eye Drops#Eye Drops#Eye Drops Lubricating Tears#Eye Drops Redness and Dry Eye Relief#Family Wellness#Fedora Cinderella#Fedora Concentrating Hydro Moisturizer#Fedora Concentrating Hydro Serum#Fedora Concentrating Hydro Toner#Fedora Firming Intensive Eye#Fedora Oriental Spa Ampoule#Fikia Marine Brightening Serum#Fikia Marine Velvet Whitening#Fleet#Flex Power Cream#Flexpower Recovery#Floria Whitening Emulsion#Fluidbase Max#Forever Lasting Precious Essential Water#Forever Lasting Precious Oil Essence#Formula H#Freds Dry Eye Relief#Fresh After Vacance Body Soothing#Fresh Med Solution#Galactomyces Man Booster#Galentic Hydrogel#Genteal Tears (moderate)#Gericare Artificial Tears Lubricant#Gericare Artificial Tears Lubricant Eye#Ginseng Berry Eye Lift#Ginseng Royal Silk Ampoule#Ginseng Royal Silk Eye#Ginseng Royal Silk Fo Am Cleanser#Ginseng Royal Silk Gold Hydro Mask#Ginseng Royal Silk Gold Hydro Mask 10ea#Ginseng Royal Silk Gold Hydro Mask 1ea#Ginseng Royal Silk Watery#Ginseng Stemcell Mask#Ginsenoside Rg1 Rejuvenating Moisturizing#Given By Nature Aloe Mask Sheet#Given By Nature Bamboo Mask Sheet#Given By Nature Cherry Blossom Mask Sheet#Given By Nature Green Tea Mask Sheet#Given By Nature Olive Mask Sheet#Given By Nature Rice Mask Sheet#Given By Nature Rose Hip Mask Sheet#Given By Nature Tea Tree Mask Sheet#Gly-rectal Sup Pour Adultes#Glycerin#Glycerin Adult#Glycerin Laxative#Glycerin Liq#Glycerin Liq 100%#Glycerin Liquid#Glycerin Liquid Laxative Enema(kaisalilu)#Glycerin Suppositories#Glycerin Suppositories (children)#Glycerin Suppositories Infant-children 90%#Glycerin Suppositories for Adults 90%#Glycerin USP#Glycerin USP (liquid)#Glycerin, Phenylephrine Hydrochloride, Pramoxine, White Petrolatum#Glycerinated Phenol Saline#Glycerine Liq 100%#Glycerine Sup Pour Adultes#Glycerol-saline Control#Glycerolyte 57 Solution#Gmdansu Ampoule#Golden Ball Healer#Good Sense Hemorrhoidal Maximum Strength Pain Relief#Goodsense Lubricating Eye Drops#Goodsense Maximum Strength Redness Relief Plus#Grain Timeless Perfection#Greek Yogurt Pack Blue Berry#Greek Yogurt Pack Orange#Green Wheatgrass Facial Cleansing#Greentinol Eye Serum#Haesum Marine Fill#Haesum Marine Fill Serum#Haesum Marine Fill Softner#Hand Therapy Creme#Hand and Nature Anti Wrinkle Hand Almond Oil#Hand and Nature Anti Wrinkle Hand Aragon Oil#Hanskin Hyaluron Skin Essence#Health Mart Redness Relief#Hemorrhoidal#Hemorrhoidal Anesthetic#Hemorrhoidal Maximum Strength Pain Relief#Hemorrhoidal Relief#Honest Cleansing Foa M#Honest Tt Mist#Honey Bomb Beauty#Huitomi#Huitomi Pack#Huitomi Serum#Hum#Hum Body Liner#Hum Cc#Humco Glycerin and Artificial Rose Water#Hwang Geum-san Gold Hair#Hyalucollagen Essence#Hyalucollagen Moisture#Hyalucollagen Moisture Skin#Hyalucollagen Moisture Toner#Hyalucollagen Moisturizer Combination Skin#Hyalucollagen Moisturizer Normal and Dry Skin#Hydra Balancing Rose Mist#Hydra Lifting Firming Fresh Serum 24h#Hydra Lifting Firming Moisturizing Cream#Hydra Lifting Firming Nourishing Cream#Hydra Lifting Firming Plus Serum 24h#Hydra Treatment Toner#Hydraface#I Cellestin#Iaso Intensive Clear Conditioner#Iaso Progressive Age Care#Iaso for Men White EX 2-IN-1 Fluid Supreme#Iaso for Men White EX After Shave Supreme#Iaso for Men White EX Supreme#Illite Whitening#Im Real Rice Smooth Toner#Im Real Tea Tree Sebum and Pore#Im Sorry for My Skin Mask - Brightening#Im Sorry for My Skin Mask - Revitalizing#Inclear#Infant Glycerin Laxative#Inibebe Organic Soapberry Wash#Inner Beauty Cleansing Tissue#Intense Care Galactomyces First Essence#Intense Care Galactomyces Whitening Essence#Intense Care Snail#Intense Care Snail Ampoule#Intense Care Snail Anti Wrinkle Whitening Nutrition#Intense Care Snail Essence#Intense Care Snail Eye#Intense Care Snail Hydro Gel Mask#Intense Care Snail Skin#Intensive Vital Ampoule#J9 Ultra Advanced Intensive Recovery Serum#Jasmine 3d Moist#Jasmine 3d Whipping Essence#Jasmine Eco Mist#Jayjun Baby Pure Shining Mask Step1 Blooming Essence#Jayjun Baby Pure Shining Mask Step2 Baby Pure Shining Mask#Jayjun Baby Pure Shining Mask Step3 Hydro Eye#Jayjun Real Water Brightening Black Mask Step1 Real Water Cleansing Foa M#Jayjun Real Water Brightening Black Mask Step2 Jayjun Vita Snow Essence#Jayjun Real Water Brightening Black Mask Step3 Real Water Brightening Black Mask#Jci Mn Colloidal Iodine Cream#Jejuen Aloe Sleeping Pack#Jejuen Black Bean Ferment Serum#Jejuen Black Bean Ferment Sleeping#Jejuen Calming Aloe Ice Pack#Jejuen Calming Aloe Sheet Mask#Jejuen Calming Broccoli Ice Mask#Jejuen Camellia Nourishing Pack#Jejuen Hyaluron Sleeping Pack#Jejuen Lightening Blueberry Ice Mask#Jejuen Lightening Hanrabong Ice Pack#Jejuen Lightening Hanrabong Sheet Mask#Jejuen Lotus Bubble Foam Cleanser#Jejuen Lotus Placenta Eye#Jejuen No Sebum Lotus Ice Mask#Jejuen Nourishing Beet Ice Mask#Jejuen Nourishing Opuntia Ice Pack#Jejuen Nourishing Opuntia Sheet Mask#Jejuen Pore Tightening Peppermint Ice Pack#Jejuen Pore Tightening Peppermint Sheet Mask#Jejuen Radiance#Jejuen Radiance Ampoule#Jejuen Radiance Eye#Jejuen Radiance Foam Cleanser#Jejuen Radiance Toner#Jejuen Radiance Youth#Jejuen Rapeflower Pack#Jejuen Volcanic Ampoule Sleeping Pack#Jejuen Waterful Applemango Ice Pack#Jejuen Waterful Applemango Sheet Mask#Jejuen Waterful Peanut Ice Mask#Jnh A-clear Propolis Spot Serum#Jnh A-clear Resurface Sulfur#Kaewoon#Korean Cypress Hair#Lavietox B Project Re Set Firming Essence#Leader#Leader Lubricating Eye#Leader Lubricating Eye Drops#Leaders Mediu Brightening Milk Pack#Leaders Mediu Clearing Strawberry Pack#Leaders Mediu Glossy Honey Pack#Leaders Mediu Moisturizing Jasmine Pack#Leaders Mediu Nutrition Grain Pack#Lebody Fit Body Massager#Lemon#Lemon Glycerin#Lemon Glycerine Swabsticks#Li Om Fermentation Form Elastic Care Secret Serum#Lidl Redness Relief#Little Pore Daily Serum#Lubricant Eye Drops#Lubricant Eye Drops/ Artificial Tears#Lubriderm Intense Skin Repair#Luxury Revitalizing Moisturizing Cream#Luxury Revitalizing Nourishing Cream#Luxury Revitalizing Serum#M Eros Liquid Aqua Based#Maccola#Madeca#Madeca Derma Mask#Madeca Derma Mask II#Max Hyaluronic Formula Ampoule#Max Hyaluronic Mask#Max Hyaluronic Stemcell Eye#Max Hyaluronic Stemcell Sleeping Pack#Max Hyaluronic Uv Stemcell Sun Block#Max2originale Coenzyme Q10 Lint Free Ge L#Max2originale Puredroge L Ge L#Max2originale Special Mascara Gold#Max2originale Very Berry Eyeliner#Maximum Redness Relief Eye#Mecell Red Ginseng Collagen 3d Mask Pack#Mecell Rose Coenzyme Q10 Serum Mask Pack#Medactive Oral Relief#Medi Stem Collagen#Medi Stem Collagen Ampoule#Medi Stem Collagen Toner#Medi Stem Eye#Medicell Scalp#Mediclear Dual Spot Day and Night#Medpride Lemon#Mefactory 3step Piggy Nose Pack Step 01 Pore Heating Sheet#Meijer Lubricating Eye#Meijer Lubricating Eye Drops#Melano Out Cream#Melano Out Mask#Mewrinkle#Minica-S#Mint Blue Facial Mask#Miracle Ato#Miracle Ato Moisture Body Wash#Miracle Of The Mose Hair Bar#Miractil#Miru Oriental Whitening Ampoule#Misoli Shining Care Diamond Premium Gold Hydro G El Eye#Mizon Enjoy Vital Up Time Anti Wrinkle Mask#Modlina Peptide Soothing Essential Hydrogel Mask Pack#Moisture Cream#Moisture Drops#Moisture Essence Mist#Moisturizing Body#Mommy To Be Tummy#Monagra#Moran#Multi Action Balancing Toner#Multi Action Power#Multi Perfection Super#My Lovely Butts#Mycellcare#Nano Silver Toothpaste#Natural Cocktail Pack#Natural Olive Scalp Cooling Hair Essence#Natural Olive Scalp Cooling Hair Pack#Naturalth Goat Milk Moisture#Naturalth Goat Milk Moisture Toner#Naturalth Goat Milk Premium Tone Up#Nature and Health Beauty (moisturizing Cream, Whitening Cream)#Nature and Health Beauty (moisturizing Cream, Whitening Cream) (mineral Oil and Glycerin)#Natureplex Hemorrhoidal#Negative Skin Test Control - Glycerin#Neutracett All Purpose#Neutracett Tattoo#Neutracett Ulcer#Niagara S#Noblesse Homme Refresh#Noblesse Homme Refresh Toner#Nots Special Collagen Real Skin Mask#Nourishing Cream#Nwi Artificial Tears Eye#O Sha Mpoo Premium#Oasis Tears#Oasis Tears Multidose#Oasis Tears PF#Oasis Tears Plus#Obagi#Obeo 7way Moisture#Olive 75% Marseille#Oozoo Face In-shot Mask Age Cure Ampoule 1#Oozoo Face In-shot Mask Age Cure Ampoule 2#Oozoo Face In-shot Mask Age Cure Mask#Oozoo Face In-shot Mask Hydro Lift Ampoule 2#Oozoo Face In-shot Mask Hydro Lift Mask#Oozoo Face In-shot Mask Illumination Ampoule 1#Oozoo Face In-shot Mask Illumination Ampoule 2#Oozoo Face In-shot Mask Illumination Mask#Oozoo Face In-shot Mask Intensive White Ampoule 2#Oozoo Face In-shot Mask Intensive White Mask#Oozoo Face In-shot Mask Nutrient Ampoule 2#Oozoo Face In-shot Mask Nutrient Mask#Optic Splash#Orajel Dry Mouth Moistruizing#Oriental Fermented#Origin Horse Sheet Mask#Original Power Energy Ampoule#Original Power Hydro Ampoule#Original Power Lifting Ampoule#Original Power Whitening and Lineless Ampoule#P9 Photo Cleanser#Pandas Dream Magic#Pedia-lax#Pediatric Glycerin#Pediatric Glycerin Laxative#Peptide Easter#Perfect Calming#Perfect Calming Toner#Phyto Therapy Treatment#Pink Sweet Potato Facial Cleansing#Placenta EX Ampoule#Plagentra Baby#Plagentra Mothers Belly#Plant Stemcell Vegf Bfgf Ample#Pleasure Garden Homme Sports Mask#Polynesia Lagoon Water Hydro Emulsion#Polynesia Lagoon Water Hydro Eye#Polynesia Lagoon Water Hydro Skin#Pore Tightening Serum#Pororo Friends Moistful Mask Pack#Pororo Friends Smart Pore Guide Mask Pack#Pororo Friends Tong Tong Firming Mask Pack#Pororo Friends White Snow Mask Pack#Power Ampoule Anti Wrinkle#Preferred Plus Hemorrhoid#Premium Dr. Althea Essential Skin Conditioner Silk Mask#Premium Dr. Althea Squalane Silk Mask#Premium Natural Bl Hydrogel Mask Pack#Preparation H Maximum Strength#Preparation H Rapid Relief#Preparation H Totables Pain Relief#Prestige Caviar Nourishing Daily Cream#Prestige Jeju Snail#Prestige Jeju Snail Essence#Prestige Jeju Snail Toner#Prevention Oncology Mouth Rinse#Pro Radiance Renascent An Infinite Energizer#Pro Radiance Renascent An Infinite Energizer Moisturizer#Prolong 101 Man#Pure Eyes Sterile Eyes#Pure Hydrogel Apple Zone#Pure Hydrogel Mask Pack#Pureheals Propolis 80#Purifying Oxygenating Moisturizing Cream#Purifying Oxygenating Serum#Quality Choice Lubricant Tears Eye#Quality Choice Lubricating Eye Drops#Queen Perfume Hair#Ramosu Kindal Butter Balm#Real Squeeze Aloe Vera#Real Squeeze Aloe Vera Essence#Real Squeeze Aloe Vera Sleeping Pack#Real Squeeze Aloe Vera Toner#Reborncell M-clinic#Recticare#Recticare Advanced#Recticare Complete#Red Eye Relief#Red Ginseng Fermented Toner#Refining Pore Clear Pack#Refresh Optive#Refresh Optive Advanced#Refresh Optive Advanced Sensitive#Refresh Optive Fusion#Refresh Optive Fusion Sensitive#Refresh Optive Gel Drops#Remember Hydrosol Double Effect#Remember Serum#Renk Essential Hydra Ampoule#Renk Essential Hydra Skin Softner#Renk Time Lab Intense Age Renewal Skin Softner#Renk Time Lab Intense Age Renewal Skin Softner 20ml#Renovating Regenerating Moisturizing Cream#Renovating Regenerating Nourishing Cream#Renovating Regenerating Serum#Repiel Perfect Fit Mask Firming#Repiel Perfect Fit Mask Lightening#Repiel Perfect Fit Mask Moisturizing#Repiel Perfect Fit Mask Soothing#Repiel Smart Foot Mask Ultra Rich#Repiel Smart Hand Mask Milky Moisture#Repiel Smart Nail Pack Miracle Butter#Repiel Timeless Aqua Shot Bio Mask#Repiel Timeless Line Shot Bio Mask#Repiel Timeless Mela Shot Bio Mask#Repiel Timeless Redness Shot Bio Mask#Revitalizing C#Revitalizing C I2pl Corrector Ampoule#Revitalizing C I2pl Mask#Revitalizing C Serum#Revitalizing C Toner#Revitalizing Facial Foam#Rexall Maximum Strength Hemorrhoidal#Rexall Sterile Artificial Tears Eye Drops#Rhinedrine Moisturizing Nasal Mist -liq Nas#Richway Amethyst Hydrogel Face Mask#Rubelli Wine Foot Packs#Rubelli Wine Hand Packs#Ruby-cell 4u#Ruby-cell 4u Ampoule#Ruby-cell 4u B B 10 In 1#Ruby-cell 4u Bio Cellulose Mask#Ruby-cell 4u Essential Silky Foaming Cleanser#Ruby-cell 4u Mist#Sallys Box Friendly Collagen Eye Patch#Sayak#Scar Serum#Seaweed Mediclear Healer Ampoule#Seaweed Mediclear Mask#Seaweed Mediclear Stemcell Bb#Select Brand Hemorrhoid#Sella Classic Natural Cleansing Bar#Sella Classic Natural Gold Serum#Sella Natural Baby#Sella Natural Body#Sella Natural Hair#Sella Premium Natural Cleansing Bar#Seniorclean Bio#Shea Butter Steam Fresh#Shea Butter Steam Moist#Shieldlife Ceramide Ion Mask#Shine Control Matte Effect Cream#Shine Control Moisturizing Matte Effect Cream#Shine Control Sebum Regulating Gel#Shopko Dry Eye Relief#Signature Care Hemorrhoidal#Silkriller 3d Gold Pure Rich Gel#Silkriller 3d Silver Pure Rich Gel#Siseundeusi Bless Bathandshampoo#Siseundeusi Luminant Pack Cleanser#Skederm Lifting#Skederm Vitamin C X30 Power Serum#Skin Doctors Photo Age Reverse#Skin Doctors Photo Age Reverse Night Serum#Skin-ion#Skinfood Cacao Hand Balm High Moist Type#Skinfood Honey Melon Hand Balm Moist Type#Skinfood Miracle Food 10 Solu Tion#Skinfood Miracle Food 10 Solu Tion 1ml#Skinfood Real Tea Ge L Mask Chamomile#Skinfood Real Tea Ge L Mask Lavender#Skinfood Real Tea Ge L Mask Rose#Skinovage Nanocell Age Protecting#Snail#Snail Bee High Content#Snail Bee High Content 120ml#Snail Bee High Content Essence#Snail Bee High Content Mask Pack#Snail Bee High Content Skin#Snail Bee High Content Steam#Snail Essential EX Wrinkle#Snail Essential EX Wrinkle Mask Sheet#Snail Essential EX Wrinkle Toner#Snail Green Caviar Hydro Mask#Snail Hydro Mask#Snail Pearl Hydro Mask#Snail Recover Healer#Snail Red Ginseng Hydro Mask#Snail Repair Whitening#Snail Solu Tion Gold#Snail Therapy 1000 Hydrogel Mask Sheet#Snail Therapy 70 Eye#Snaytox Anti Wrinkle Hydro Mask#Snaytox Wrinkle Filler Special Set#Snp Cat Wrinkle Face Art Mask#Solie Essence#Solie Toner#Soothe#Soothe Dry Eyes#Soothing and Moisture Aloe Vera 90 Percent Body#Soothing and Moisture Aloe Vera 90 Percent Toner#Soothing and Moisture Aloe Vera 92 Percent Soothing#Soothing and Moisture Aloe Vera 92percent Soothing 300ml#Soriso Bright Aqua Moisture#Soriso Bright Aqua Pack#Spa Mediterranee for Hands Repair Hand#Srb 3 Lighting White Nutri#Sterile Diluent for Allergenic Extract#Stratuscare Adult Glycerin#Stratuscare Glycerin Laxative Pediatric#Sun Killing Grapefruit#Sunburn Soothing#Sunmark Hemorrhoidal#Sunmark Redness Relief#Super Aqua Ampoule#Super Aqua Cleansing Oil#Super Aqua Day#Super Aqua Eye#Super Aqua Facial Foam#Super Aqua Max Deep Moisture Hydrogel Mask Sheet#Super Aqua Max Fresh Watery#Super Aqua Max Soft Peeling#Super Aqua Max White C Crystal Essence#Super Aqua Max White C Waterful Toner#Super Aqua Night#Super Aqua Toner#Suyan Chungsoo#Suyan Chungsyu#Suyan Jeongbaek#Synovisol Irrigation Solution 2.6%#Tamhada Synergy Anti Wrinkle Face and Neck Mask#Tamhada Synergy Moisturizing Mask#Tamhada Synergy Whitening Mask#Tamnamo Essential Hair#Tamnamo Plus Vital Hair#Tangerin Whitening Hand#Tangerine Hand#Tears Lubricant#Tears Naturale Forte#Ten Ten Cell#Thanks 12 Aqua Water Toner#Thanks 12 Rich Caviar Fo Am Cleanser#Thanks 12 Rich Caviar Mask#The All Medicare V Pla Synergy Anti Wrinkle Face and Neck Mask#The All Medicare V Pla Synergy Moisturizing Mask#The All Medicare V Pla Synergy Whitening Mask#The Bamboo Of Damyang Moisture Toner#The First Ampoule Essence#The First Ampoule Essence Bb#The First Whitening Sleeping Mask#The Prestige#The21 Days Hair Nutrient Serum#Therapeutic Hand Cream#Timeless Egf Power Toner#Timeless Placenta Bound#Tmc-A Anti Hairloss#Tomatox Magic Massage Pack#Tonymoly Bcdation All Master#Tonymoly Bio EX Active Cell-whitening Cream#Tonymoly Bio EX Active-cell Essence#Tonymoly Bio EX Active-cell Eye-face Cream#Tonymoly Bio EX Active-cell Night Cream#Tonymoly Bio EX Active-cell Real Serum#Tonymoly Face Mix Skin Makeup Base 02 Mix Lavendar Spf20#Tonymoly Fitting Foundation 23 Spf30 Natural Beige#Tonymoly Intense Care Gold Syn-ake Wrinkle Cream#Tonymoly Intense Care Gold Syn-ake Wrinkle Perfector#Tonymoly Intense Care Snail#Tonymoly Latte Art Cappuccino Cre Am In Scrub#Tonymoly My Sunny All In One Sun Spf45#Tonymoly My Sunny Body and Family Sun Cream#Tonymoly My Sunny Touch Free Sun Block#Tonymoly My Sunny Watery Sun Gel#Tonymoly Naturalth Goat Milk Premium Eye#Tonymoly Pandas Dream Brightening Eye Base#Tonymoly Pandas Dream White Hand Cream#Tonymoly Placenta Bound Toner#Tonymoly Premium Rx Camel Milk Cream#Tonymoly Premium Rx Horse Yu Hand Cream#Tonymoly Pure Farm Pig Collagen Hydrogel Mask#Tonymoly Timeless Ferment Snail Cream#Tonymoly Timeless Ferment Snail Emulsion#Tonymoly Timeless Ferment Snail Essence#Tonymoly Timeless Ferment Snail Eye Cream#Tonymoly Timeless Ferment Snail Toner#Tonymoly Timeless Gf-factor Cream#Tonymoly Timeless Gf-factor Emulsion#Tonymoly Timeless Gf-factor Toner#Topcare Hemorrhoidal#Truezyme Active Enzyme Scalp and Hair#Truezyme Baby Face and Body#Truezyme Baby Shampooandbody Wash#Truezyme Healing Multi Tonic#Truezyme Healing Scalp Tonic#Truezyme Water Lock Body Wash#Truffle EX Wrinkle Toner#Ultra Hydra#Ultra Hydra Serum#Ultra Hydra Toner#Ultra Hydro Facial Foam#Ultra Nutrition Ampoule#Ultra Nutrition Day#Ultra Nutrition Eye#Ultra Nutrition Night#Ultra Nutrition Toner#Up and Up Hemorrhoidal#V Shaping Ampoule#Visine All Day Comfort Dry Eye Relief#Visine Contact Lens#Visine Dry Eye Relief#Visine Maximum Strength Redness Relief Formula#Visine Tears Dry Eye Relief#Visine Tears Long Lasting Dry Eye Relief#Visine Tired Eye Dry Eye Relief#Visine Tired Eye Relief Lubricant#Visine for Dry Eye Environmental Relief#Visine for Dry Eye Eye Revival#Visine for Dry Eye Tired Eye Relief#Visine for Dry Eye True Tears#Vision Clarity Eye Drop#Vitabrid C12 Atosis#Vitalizer#Vitalizer C10 Ampoule#Vitalizer Laser Aid Bb#Vitalizer White#Vitalizing Energizing Moisturizing Cream#Vitalizing Energizing Nourishing Cream#Vitalizing Energizing Serum#Vitamin A Velvet Mask#Vitamin B5#Vitamin B5 Toner#Vitamin B5 Velvet Mask#Vitamin C Velvet Mask#Vitamin E Velvet Mask#Vitamin F Velvet Mask#Vitamin H Velvet Mask#Volcanic Homme Foam Cleanser#Volcanic Pore Heating#Volcanic Pore Heating Gel#Volcanic Pore Refining Mask#Volcanic Pore Tightening Mask#Walgreens Adult Glycerin Laxative#Walgreens Children Glycerin Laxative#Walgreens Dual Action Lubricant Eye#Walgreens Lubricant Eye#Walgreens Maximum Redness Relief#Walgreens Maximum Strength Hemorrhoidal#Wannabe Bodyliner#Water Balance Sheet Mask#Wellage 4d Gold Essence#Wellage Black Aqua Roll Mask Pack#Wellage Concentrated Illumination Expert#Wellage Deep Layer Moisturizer Sleeping Mask#Wellage Double Lift Mask Pack Moisturizing Hydrogel Mask#Wellage Intensive Repair Serum#Wellage Post Procedure#Wellage Vita Blue Injec-tion Mask#Wellage Vita Red Injec-tion Mask#Wellage Vital Nio Enrich#Wellage Vital Nio Nutritional Rich#Wellage Vital Nio Waterlock Toner#Wellage White Aqua Roll Mask Pack#Wellage Wrinkle Reduced Vials#Wettrust Gold#Wettrust Gold Vaginal Care Essence#Wettrust Inclear#White Flower Cheollasoo Foi L Mask Sheet#White Flower Mung Bean Foi L Mask Sheet#White Flower Pig Collagen Foi L Mask Sheet#Wibi Lotion 23%#Woodward's Glycerin Suppositories for Adults#Wrinkle Repair Sheet Mask#Yeast Ultra Deep Cleansing Whip Foam#Yejimiin Feminine Wash Jeju Herb#Yeo Danbi#Yozum Secret#Znsp Ampoule#Znsp Repair#Zumiskin Honey Boom

>  <DrugBank ID>  (1) 
DB09462

>  <ATC Codes>  (1) 
nan

>  <Ligand ID>  (1) 
GOL

>  <Target Name>  (1) 
Peroxisome proliferator-activated receptor delta

>  <UniProt ID>  (1) 
Q03181

>  <PDB ID.1>  (1) 
3TKM

>  <Seq. Identity>  (1) 
100%

$$$$
