PDB_DB08901_08
     RDKit          3D

184192  0  0  0  0  0  0  0  0999 V2000
   -7.9491    1.3500   -0.2730 N   0  0  0  0  0  0  0  0  0  0  0  0
    6.7352   -0.6521   -0.0518 N   0  0  0  0  0  0  0  0  0  0  0  0
   -4.0411    1.3638    0.4195 C   0  0  0  0  0  0  0  0  0  0  0  0
   -2.8064    1.6546   -0.3952 C   0  0  0  0  0  0  0  0  0  0  0  0
   -1.9108    2.6339    0.3510 C   0  0  0  0  0  0  0  0  0  0  0  0
   -1.0597    1.8894    1.3626 C   0  0  0  0  0  0  0  0  0  0  0  0
   -0.0833    0.9637    0.6600 C   0  0  0  0  0  0  0  0  0  0  0  0
   -2.0487    0.3667   -0.6749 C   0  0  0  0  0  0  0  0  0  0  0  0
    1.6379   -2.0965   -0.6645 C   0  0  0  0  0  0  0  0  0  0  0  0
    3.6253   -1.3814   -2.0807 C   0  0  0  0  0  0  0  0  0  0  0  0
    3.8729   -1.8684    0.2737 C   0  0  0  0  0  0  0  0  0  0  0  0
    5.8413   -1.0101   -1.0932 C   0  0  0  0  0  0  0  0  0  0  0  0
    8.0966   -0.7913   -0.6125 C   0  0  0  0  0  0  0  0  0  0  0  0
    9.1366   -0.5456    0.4331 C   0  0  0  0  0  0  0  0  0  0  0  0
    6.6545    0.7577    0.3127 C   0  0  0  0  0  0  0  0  0  0  0  0
   -9.3745   -0.5249   -0.9453 C   0  0  0  0  0  0  0  0  0  0  0  0
   -9.7864   -1.4830    0.1366 C   0  0  0  0  0  0  0  0  0  0  0  0
   -8.6121   -2.4485    0.3317 C   0  0  0  0  0  0  0  0  0  0  0  0
   -7.5641   -1.6309    0.8968 N   0  0  0  0  0  0  0  0  0  0  0  0
   -7.0587   -0.7993   -0.0873 N   0  0  0  0  0  0  0  0  0  0  0  0
   -7.9839    0.0046   -0.7921 C   0  0  0  0  0  0  0  0  0  0  0  0
   -7.0341    1.3433    0.8424 C   0  0  0  0  0  0  0  0  0  0  0  0
   -6.1873    0.1420    0.5962 C   0  0  0  0  0  0  0  0  0  0  0  0
   -4.9689    0.3997   -0.2675 C   0  0  0  0  0  0  0  0  0  0  0  0
   -0.5687    0.7148   -0.7302 C   0  0  0  0  0  0  0  0  0  0  0  0
   -2.7978    3.5772    1.1283 C   0  0  0  0  0  0  0  0  0  0  0  0
    0.2098   -0.3070   -1.5230 C   0  0  0  0  0  0  0  0  0  0  0  0
   -0.4171   -0.3963   -2.7711 O   0  0  0  0  0  0  0  0  0  0  0  0
    0.3457   -1.5911   -0.9655 N   0  0  0  0  0  0  0  0  0  0  0  0
    2.5017   -2.3029   -1.8889 C   0  0  0  0  0  0  0  0  0  0  0  0
    4.3914   -1.0001   -0.8157 C   0  0  0  0  0  0  0  0  0  0  0  0
    2.3899   -1.4107    0.4426 C   0  0  0  0  0  0  0  0  0  0  0  0
    4.4661   -1.7370    1.6252 C   0  0  0  0  0  0  0  0  0  0  0  0
    3.7668   -2.6676    2.4353 F   0  0  0  0  0  0  0  0  0  0  0  0
    5.7754   -2.1097    1.7553 F   0  0  0  0  0  0  0  0  0  0  0  0
    4.1761   -0.5139    2.1994 F   0  0  0  0  0  0  0  0  0  0  0  0
    7.5905    0.9545    1.4927 C   0  0  0  0  0  0  0  0  0  0  0  0
    9.6397    1.8146    0.5635 C   0  0  0  0  0  0  0  0  0  0  0  0
    8.9605    0.6830    1.1467 N   0  0  0  0  0  0  0  0  0  0  0  0
   -6.5353    2.1445   -1.0557 N   0  0  0  0  0  0  0  0  0  0  0  0
    6.7554    1.1737   -0.8074 N   0  0  0  0  0  0  0  0  0  0  0  0
   -4.1110   -0.7963   -0.5650 C   0  0  0  0  0  0  0  0  0  0  0  0
   -3.2731   -1.2246    0.5803 C   0  0  0  0  0  0  0  0  0  0  0  0
   -3.0827   -0.3006    1.7201 C   0  0  0  0  0  0  0  0  0  0  0  0
   -2.3428    0.9704    1.3395 C   0  0  0  0  0  0  0  0  0  0  0  0
   -0.9844    0.5928    0.7616 C   0  0  0  0  0  0  0  0  0  0  0  0
   -1.8823   -1.5762    0.0468 C   0  0  0  0  0  0  0  0  0  0  0  0
    2.2547   -1.5045   -0.0591 C   0  0  0  0  0  0  0  0  0  0  0  0
    4.0463    0.2659    0.2404 C   0  0  0  0  0  0  0  0  0  0  0  0
    4.3955   -1.7557   -1.2392 C   0  0  0  0  0  0  0  0  0  0  0  0
    6.2468   -0.1531   -0.8330 C   0  0  0  0  0  0  0  0  0  0  0  0
    8.2160    1.1118   -1.1663 C   0  0  0  0  0  0  0  0  0  0  0  0
    8.8734    0.1555   -0.2334 C   0  0  0  0  0  0  0  0  0  0  0  0
    6.8096    1.7925    0.5095 C   0  0  0  0  0  0  0  0  0  0  0  0
   -8.4821    1.9747    0.4552 C   0  0  0  0  0  0  0  0  0  0  0  0
   -9.8103    1.2419    0.5494 C   0  0  0  0  0  0  0  0  0  0  0  0
   -9.5124   -0.2324    0.3766 C   0  0  0  0  0  0  0  0  0  0  0  0
   -8.0810   -0.4840    0.1927 N   0  0  0  0  0  0  0  0  0  0  0  0
   -7.7081    0.1478   -0.9698 N   0  0  0  0  0  0  0  0  0  0  0  0
   -7.8485    1.5710   -0.8384 C   0  0  0  0  0  0  0  0  0  0  0  0
   -5.9521    1.1984   -1.9821 C   0  0  0  0  0  0  0  0  0  0  0  0
   -6.3581   -0.1137   -1.4101 C   0  0  0  0  0  0  0  0  0  0  0  0
   -5.5323   -0.5052   -0.1929 C   0  0  0  0  0  0  0  0  0  0  0  0
   -1.1964   -0.3187   -0.4117 C   0  0  0  0  0  0  0  0  0  0  0  0
   -4.2318   -0.0076    2.5962 C   0  0  0  0  0  0  0  0  0  0  0  0
    0.1701   -0.6805   -1.0393 C   0  0  1  0  0  0  0  0  0  0  0  0
    0.7845    0.4664   -1.4373 O   0  0  0  0  0  0  0  0  0  0  0  0
    0.8258   -1.5835   -0.2011 N   0  0  0  0  0  0  0  0  0  0  0  0
    2.6838   -0.2597    0.5770 C   0  0  0  0  0  0  0  0  0  0  0  0
    4.7597   -0.3214   -0.8956 C   0  0  0  0  0  0  0  0  0  0  0  0
    2.9219   -1.8174   -1.3783 C   0  0  0  0  0  0  0  0  0  0  0  0
    5.0202   -2.7790   -0.3567 C   0  0  0  0  0  0  0  0  0  0  0  0
    4.5575   -4.0238   -0.8186 F   0  0  0  0  0  0  0  0  0  0  0  0
    6.3889   -2.8183   -0.5879 F   0  0  0  0  0  0  0  0  0  0  0  0
    4.7386   -2.6810    0.9664 F   0  0  0  0  0  0  0  0  0  0  0  0
    7.4682    0.9739    1.5636 C   0  0  0  0  0  0  0  0  0  0  0  0
    9.7933    1.2566    1.7158 C   0  0  0  0  0  0  0  0  0  0  0  0
    8.7396    0.4882    1.1435 N   0  0  0  0  0  0  0  0  0  0  0  0
   -8.8628    1.7622   -0.0593 H   0  0  0  0  0  0  0  0  0  0  0  0
   -3.7511    0.8964    1.4083 H   0  0  0  0  0  0  0  0  0  0  0  0
   -4.5277    2.3135    0.6839 H   0  0  0  0  0  0  0  0  0  0  0  0
   -3.0607    2.1147   -1.3621 H   0  0  0  0  0  0  0  0  0  0  0  0
   -1.3415    3.2137   -0.3704 H   0  0  0  0  0  0  0  0  0  0  0  0
   -0.4652    2.6535    1.9028 H   0  0  0  0  0  0  0  0  0  0  0  0
   -1.6923    1.3657    2.1052 H   0  0  0  0  0  0  0  0  0  0  0  0
    0.9201    1.4609    0.5756 H   0  0  0  0  0  0  0  0  0  0  0  0
    0.0651    0.0388    1.2433 H   0  0  0  0  0  0  0  0  0  0  0  0
   -2.3236   -0.0919   -1.6318 H   0  0  0  0  0  0  0  0  0  0  0  0
   -2.2253   -0.3492    0.1255 H   0  0  0  0  0  0  0  0  0  0  0  0
    1.4520   -3.1451   -0.2574 H   0  0  0  0  0  0  0  0  0  0  0  0
    3.3136   -0.4769   -2.6500 H   0  0  0  0  0  0  0  0  0  0  0  0
    4.3644   -1.8852   -2.7639 H   0  0  0  0  0  0  0  0  0  0  0  0
    3.8002   -2.9429    0.0031 H   0  0  0  0  0  0  0  0  0  0  0  0
    6.0403   -0.3118   -1.9484 H   0  0  0  0  0  0  0  0  0  0  0  0
    6.1242   -2.0516   -1.4159 H   0  0  0  0  0  0  0  0  0  0  0  0
    8.2509   -1.7793   -1.0424 H   0  0  0  0  0  0  0  0  0  0  0  0
    8.1684   -0.0531   -1.4274 H   0  0  0  0  0  0  0  0  0  0  0  0
    9.1557   -1.4285    1.1064 H   0  0  0  0  0  0  0  0  0  0  0  0
   10.1229   -0.5025   -0.0849 H   0  0  0  0  0  0  0  0  0  0  0  0
    6.9443    1.4158   -0.5413 H   0  0  0  0  0  0  0  0  0  0  0  0
    5.6583    1.0819    0.6286 H   0  0  0  0  0  0  0  0  0  0  0  0
  -10.0765    0.3507   -0.8960 H   0  0  0  0  0  0  0  0  0  0  0  0
   -9.5680   -1.0149   -1.9262 H   0  0  0  0  0  0  0  0  0  0  0  0
  -10.6763   -2.0412   -0.1720 H   0  0  0  0  0  0  0  0  0  0  0  0
   -9.9521   -0.9660    1.0992 H   0  0  0  0  0  0  0  0  0  0  0  0
   -8.8750   -3.2971    0.9861 H   0  0  0  0  0  0  0  0  0  0  0  0
   -8.3023   -2.7658   -0.6798 H   0  0  0  0  0  0  0  0  0  0  0  0
   -7.9124   -1.1608    1.7462 H   0  0  0  0  0  0  0  0  0  0  0  0
   -7.5875    0.0959   -1.8529 H   0  0  0  0  0  0  0  0  0  0  0  0
   -6.5142    2.3024    0.9088 H   0  0  0  0  0  0  0  0  0  0  0  0
   -7.6352    1.1793    1.7627 H   0  0  0  0  0  0  0  0  0  0  0  0
   -5.7990   -0.3152    1.5330 H   0  0  0  0  0  0  0  0  0  0  0  0
   -5.2666    0.7578   -1.2661 H   0  0  0  0  0  0  0  0  0  0  0  0
   -4.4685   -0.5831   -0.3952 H   0  0  0  0  0  0  0  0  0  0  0  0
   -0.4455    1.6775   -1.2920 H   0  0  0  0  0  0  0  0  0  0  0  0
   -2.1799    4.4146    1.5536 H   0  0  0  0  0  0  0  0  0  0  0  0
   -3.5571    4.0671    0.5072 H   0  0  0  0  0  0  0  0  0  0  0  0
   -3.2606    3.1074    2.0276 H   0  0  0  0  0  0  0  0  0  0  0  0
    1.2171    0.1936   -1.6903 H   0  0  0  0  0  0  0  0  0  0  0  0
    0.0131    0.2268   -3.3775 H   0  0  0  0  0  0  0  0  0  0  0  0
   -0.3183   -1.8576   -0.2262 H   0  0  0  0  0  0  0  0  0  0  0  0
    2.8760   -3.3637   -1.9663 H   0  0  0  0  0  0  0  0  0  0  0  0
    1.8156   -2.2013   -2.7780 H   0  0  0  0  0  0  0  0  0  0  0  0
    4.0291    0.0477   -0.5850 H   0  0  0  0  0  0  0  0  0  0  0  0
    2.0408   -1.6621    1.4551 H   0  0  0  0  0  0  0  0  0  0  0  0
    2.4043   -0.3042    0.3513 H   0  0  0  0  0  0  0  0  0  0  0  0
    7.5446    1.9914    1.8801 H   0  0  0  0  0  0  0  0  0  0  0  0
    7.2828    0.2058    2.2543 H   0  0  0  0  0  0  0  0  0  0  0  0
   10.7294    1.6831    0.7838 H   0  0  0  0  0  0  0  0  0  0  0  0
    9.2362    2.7308    1.0731 H   0  0  0  0  0  0  0  0  0  0  0  0
    9.5149    1.8567   -0.5341 H   0  0  0  0  0  0  0  0  0  0  0  0
   -5.9863    2.1364   -0.1708 H   0  0  0  0  0  0  0  0  0  0  0  0
   -4.1671   -1.6612   -1.2958 H   0  0  0  0  0  0  0  0  0  0  0  0
   -3.6228    0.0752   -1.0542 H   0  0  0  0  0  0  0  0  0  0  0  0
   -3.6696   -2.1935    1.0346 H   0  0  0  0  0  0  0  0  0  0  0  0
   -2.3135   -0.8406    2.3886 H   0  0  0  0  0  0  0  0  0  0  0  0
   -2.1482    1.5271    2.2749 H   0  0  0  0  0  0  0  0  0  0  0  0
   -2.9150    1.6340    0.6696 H   0  0  0  0  0  0  0  0  0  0  0  0
   -0.4237    0.0489    1.5239 H   0  0  0  0  0  0  0  0  0  0  0  0
   -0.4767    1.5365    0.4752 H   0  0  0  0  0  0  0  0  0  0  0  0
   -1.2532   -1.9893    0.8758 H   0  0  0  0  0  0  0  0  0  0  0  0
   -1.9456   -2.3263   -0.7621 H   0  0  0  0  0  0  0  0  0  0  0  0
    2.5109   -2.3955    0.5964 H   0  0  0  0  0  0  0  0  0  0  0  0
    4.7072    0.2280    1.1283 H   0  0  0  0  0  0  0  0  0  0  0  0
    3.9272    1.3740    0.0202 H   0  0  0  0  0  0  0  0  0  0  0  0
    4.8319   -1.9103   -2.2705 H   0  0  0  0  0  0  0  0  0  0  0  0
    6.7193   -0.7898   -1.6208 H   0  0  0  0  0  0  0  0  0  0  0  0
    6.5544   -0.6882    0.1289 H   0  0  0  0  0  0  0  0  0  0  0  0
    8.3174    0.7414   -2.1881 H   0  0  0  0  0  0  0  0  0  0  0  0
    8.5674    2.1511   -1.0145 H   0  0  0  0  0  0  0  0  0  0  0  0
    8.4974   -0.8694   -0.4050 H   0  0  0  0  0  0  0  0  0  0  0  0
    9.9700    0.1229   -0.4536 H   0  0  0  0  0  0  0  0  0  0  0  0
    5.8941    2.2350    0.8693 H   0  0  0  0  0  0  0  0  0  0  0  0
    7.5080    2.6836    0.3466 H   0  0  0  0  0  0  0  0  0  0  0  0
   -8.6240    3.0755    0.4364 H   0  0  0  0  0  0  0  0  0  0  0  0
   -7.9047    1.7006    1.3451 H   0  0  0  0  0  0  0  0  0  0  0  0
  -10.3255    1.4570    1.5048 H   0  0  0  0  0  0  0  0  0  0  0  0
  -10.4193    1.6004   -0.3274 H   0  0  0  0  0  0  0  0  0  0  0  0
   -9.9172   -0.8185    1.2233 H   0  0  0  0  0  0  0  0  0  0  0  0
  -10.0104   -0.6201   -0.5448 H   0  0  0  0  0  0  0  0  0  0  0  0
   -8.0125   -1.5206    0.0532 H   0  0  0  0  0  0  0  0  0  0  0  0
   -8.4914    2.0015   -1.6602 H   0  0  0  0  0  0  0  0  0  0  0  0
   -6.4581    1.3219   -2.9549 H   0  0  0  0  0  0  0  0  0  0  0  0
   -4.8632    1.3267   -2.0991 H   0  0  0  0  0  0  0  0  0  0  0  0
   -6.3634   -0.9345   -2.1642 H   0  0  0  0  0  0  0  0  0  0  0  0
   -5.6047    0.2757    0.5642 H   0  0  0  0  0  0  0  0  0  0  0  0
   -5.9794   -1.4300    0.2134 H   0  0  0  0  0  0  0  0  0  0  0  0
   -1.7086    0.2384   -1.2019 H   0  0  0  0  0  0  0  0  0  0  0  0
   -3.8809   -0.0754    3.6805 H   0  0  0  0  0  0  0  0  0  0  0  0
   -4.6415    1.0230    2.5455 H   0  0  0  0  0  0  0  0  0  0  0  0
   -4.9860   -0.8103    2.5324 H   0  0  0  0  0  0  0  0  0  0  0  0
   -0.0546   -1.2454   -2.0152 H   0  0  0  0  0  0  0  0  0  0  0  0
    0.0743    1.1286   -1.7001 H   0  0  0  0  0  0  0  0  0  0  0  0
    0.5478   -2.5690   -0.4042 H   0  0  0  0  0  0  0  0  0  0  0  0
    2.6961   -0.4497    1.7046 H   0  0  0  0  0  0  0  0  0  0  0  0
    1.9371    0.5538    0.5075 H   0  0  0  0  0  0  0  0  0  0  0  0
    4.4451    0.2534   -1.8313 H   0  0  0  0  0  0  0  0  0  0  0  0
    2.5981   -1.1666   -2.1993 H   0  0  0  0  0  0  0  0  0  0  0  0
    2.6262   -2.8565   -1.6466 H   0  0  0  0  0  0  0  0  0  0  0  0
    7.6535    1.6918    2.4289 H   0  0  0  0  0  0  0  0  0  0  0  0
    6.8346    0.1893    2.0306 H   0  0  0  0  0  0  0  0  0  0  0  0
   10.7451    0.6860    1.5683 H   0  0  0  0  0  0  0  0  0  0  0  0
    9.6251    1.2568    2.8354 H   0  0  0  0  0  0  0  0  0  0  0  0
    9.8539    2.2975    1.3859 H   0  0  0  0  0  0  0  0  0  0  0  0
  3  4  1  0
  4  5  1  0
  5  6  1  0
  6  7  1  0
  4  8  1  0
  2 12  1  0
  2 13  1  0
 13 14  1  0
  2 15  1  0
 16 17  1  0
 17 18  1  0
 18 19  1  0
 19 20  1  0
  1 21  1  0
 16 21  1  0
 20 21  1  0
  1 22  1  0
 20 23  1  0
 22 23  1  0
  3 24  1  0
 23 24  1  0
  7 25  1  0
  8 25  1  0
  5 26  1  0
 25 27  1  0
 27 28  1  0
  9 29  1  0
 27 29  1  0
  9 30  1  0
 10 30  1  0
 10 31  1  0
 11 31  1  0
 12 31  1  0
  9 32  1  0
 11 32  1  0
 11 33  1  0
 33 34  1  0
 33 35  1  0
 33 36  1  0
 15 37  1  0
 14 39  1  0
 37 39  1  0
 38 39  1  0
 42 43  1  0
 43 44  1  0
 44 45  1  0
 45 46  1  0
 43 47  1  0
 41 51  1  0
 41 52  1  0
 52 53  1  0
 41 54  1  0
 55 56  1  0
 56 57  1  0
 57 58  1  0
 58 59  1  0
 40 60  1  0
 55 60  1  0
 59 60  1  0
 40 61  1  0
 59 62  1  0
 61 62  1  0
 42 63  1  0
 62 63  1  0
 46 64  1  0
 47 64  1  0
 44 65  1  0
 64 66  1  0
 66 67  1  0
 48 68  1  0
 66 68  1  0
 48 69  1  0
 49 69  1  0
 49 70  1  0
 50 70  1  0
 51 70  1  0
 48 71  1  0
 50 71  1  0
 50 72  1  0
 72 73  1  0
 72 74  1  0
 72 75  1  0
 54 76  1  0
 53 78  1  0
 76 78  1  0
 77 78  1  0
  1 79  1  0
  3 80  1  0
  3 81  1  0
  4 82  1  0
  5 83  1  0
  6 84  1  0
  6 85  1  0
  7 86  1  0
  7 87  1  0
  8 88  1  0
  8 89  1  0
  9 90  1  0
 10 91  1  0
 10 92  1  0
 11 93  1  0
 12 94  1  0
 12 95  1  0
 13 96  1  0
 13 97  1  0
 14 98  1  0
 14 99  1  0
 15100  1  0
 15101  1  0
 16102  1  0
 16103  1  0
 17104  1  0
 17105  1  0
 18106  1  0
 18107  1  0
 19108  1  0
 21109  1  0
 22110  1  0
 22111  1  0
 23112  1  0
 24113  1  0
 24114  1  0
 25115  1  0
 26116  1  0
 26117  1  0
 26118  1  0
 27119  1  0
 28120  1  0
 29121  1  0
 30122  1  0
 30123  1  0
 31124  1  0
 32125  1  0
 32126  1  0
 37127  1  0
 37128  1  0
 38129  1  0
 38130  1  0
 38131  1  0
 40132  1  0
 42133  1  0
 42134  1  0
 43135  1  0
 44136  1  0
 45137  1  0
 45138  1  0
 46139  1  0
 46140  1  0
 47141  1  0
 47142  1  0
 48143  1  0
 49144  1  0
 49145  1  0
 50146  1  0
 51147  1  0
 51148  1  0
 52149  1  0
 52150  1  0
 53151  1  0
 53152  1  0
 54153  1  0
 54154  1  0
 55155  1  0
 55156  1  0
 56157  1  0
 56158  1  0
 57159  1  0
 57160  1  0
 58161  1  0
 60162  1  0
 61163  1  0
 61164  1  0
 62165  1  0
 63166  1  0
 63167  1  0
 64168  1  0
 65169  1  0
 65170  1  0
 65171  1  0
 66172  1  6
 67173  1  0
 68174  1  0
 69175  1  0
 69176  1  0
 70177  1  0
 71178  1  0
 71179  1  0
 76180  1  0
 76181  1  0
 77182  1  0
 77183  1  0
 77184  1  0
M  END
>  <PDBID>  (1) 
3IK3

>  <PDB ID>  (1) 
3IK3

>  <Generic Name>  (1) 
Ponatinib

>  <Brand Name>  (1) 
Iclusig

>  <DrugBank ID>  (1) 
DB08901

>  <ATC Codes>  (1) 
L01XE24

>  <Ligand ID>  (1) 
0LI

>  <Target Name>  (1) 
Tyrosine-protein kinase ABL1

>  <UniProt ID>  (1) 
P00519

>  <PDB ID.1>  (1) 
3IK3

>  <Seq. Identity>  (1) 
95%

$$$$
