PDB_DB00939_06
     RDKit          3D

 88 90  0  0  0  0  0  0  0  0999 V2000
   -2.1500    2.4390    0.5192 O   0  0  0  0  0  0  0  0  0  0  0  0
   -2.8284    1.2611    0.7716 C   0  0  0  0  0  0  0  0  0  0  0  0
   -3.3300    1.3489    2.0977 O   0  0  0  0  0  0  0  0  0  0  0  0
   -1.8953    0.0519    0.7721 C   0  0  0  0  0  0  0  0  0  0  0  0
   -2.8329   -1.1425    1.0466 C   0  0  0  0  0  0  0  0  0  0  0  0
   -3.8290   -1.3149   -0.0555 C   0  0  0  0  0  0  0  0  0  0  0  0
   -3.2670   -1.1935   -1.4419 C   0  0  0  0  0  0  0  0  0  0  0  0
   -2.3078   -0.0379   -1.6259 C   0  0  0  0  0  0  0  0  0  0  0  0
   -1.2476   -0.1870   -0.5295 C   0  0  0  0  0  0  0  0  0  0  0  0
   -0.0272    0.4020   -0.8456 N   0  0  0  0  0  0  0  0  0  0  0  0
    1.1498    0.0044   -0.1794 C   0  0  0  0  0  0  0  0  0  0  0  0
    2.3697    0.1723   -1.1227 C   0  0  0  0  0  0  0  0  0  0  0  0
    2.7847    1.8621   -1.3622 Cl  0  0  0  0  0  0  0  0  0  0  0  0
    3.4759   -0.6145   -0.4490 C   0  0  0  0  0  0  0  0  0  0  0  0
    4.6594   -0.7743   -1.3765 C   0  0  0  0  0  0  0  0  0  0  0  0
    3.9222    0.2488    0.7180 C   0  0  0  0  0  0  0  0  0  0  0  0
    2.8452    1.0353    1.3574 C   0  0  0  0  0  0  0  0  0  0  0  0
    1.4533    0.4723    1.1795 C   0  0  0  0  0  0  0  0  0  0  0  0
    1.3387   -0.8624    2.3994 Cl  0  0  0  0  0  0  0  0  0  0  0  0
   -3.3952   -0.9523    1.9831 H   0  0  0  0  0  0  0  0  0  0  0  0
   -4.1956   -2.3839    0.0213 H   0  0  0  0  0  0  0  0  0  0  0  0
   -4.0897   -1.0982   -2.1532 H   0  0  0  0  0  0  0  0  0  0  0  0
   -1.7537   -0.2487   -2.5778 H   0  0  0  0  0  0  0  0  0  0  0  0
   -0.0080    1.3253   -1.3077 H   0  0  0  0  0  0  0  0  0  0  0  0
    5.0979    0.2451   -1.4786 H   0  0  0  0  0  0  0  0  0  0  0  0
    5.3850   -1.4158   -0.8235 H   0  0  0  0  0  0  0  0  0  0  0  0
    4.4019   -1.2606   -2.3164 H   0  0  0  0  0  0  0  0  0  0  0  0
    4.4647   -0.4468    1.4016 H   0  0  0  0  0  0  0  0  0  0  0  0
    3.0509    0.9974    2.4753 H   0  0  0  0  0  0  0  0  0  0  0  0
   -2.1500    2.4390    0.5192 O   0  0  0  0  0  0  0  0  0  0  0  0
   -2.8284    1.2611    0.7716 C   0  0  0  0  0  0  0  0  0  0  0  0
   -3.3300    1.3489    2.0977 O   0  0  0  0  0  0  0  0  0  0  0  0
   -1.8953    0.0519    0.7721 C   0  0  0  0  0  0  0  0  0  0  0  0
   -2.8329   -1.1425    1.0466 C   0  0  0  0  0  0  0  0  0  0  0  0
   -3.8290   -1.3149   -0.0555 C   0  0  0  0  0  0  0  0  0  0  0  0
   -3.2670   -1.1935   -1.4419 C   0  0  0  0  0  0  0  0  0  0  0  0
   -2.3078   -0.0379   -1.6259 C   0  0  0  0  0  0  0  0  0  0  0  0
   -1.2476   -0.1870   -0.5295 C   0  0  0  0  0  0  0  0  0  0  0  0
   -0.0272    0.4020   -0.8456 N   0  0  0  0  0  0  0  0  0  0  0  0
    1.1498    0.0044   -0.1794 C   0  0  0  0  0  0  0  0  0  0  0  0
    2.3697    0.1723   -1.1227 C   0  0  0  0  0  0  0  0  0  0  0  0
    2.7847    1.8621   -1.3622 Cl  0  0  0  0  0  0  0  0  0  0  0  0
    3.4759   -0.6145   -0.4490 C   0  0  0  0  0  0  0  0  0  0  0  0
    4.6594   -0.7743   -1.3765 C   0  0  0  0  0  0  0  0  0  0  0  0
    3.9222    0.2488    0.7180 C   0  0  0  0  0  0  0  0  0  0  0  0
    2.8452    1.0353    1.3574 C   0  0  0  0  0  0  0  0  0  0  0  0
    1.4533    0.4723    1.1795 C   0  0  0  0  0  0  0  0  0  0  0  0
    1.3387   -0.8624    2.3994 Cl  0  0  0  0  0  0  0  0  0  0  0  0
   -3.3952   -0.9523    1.9831 H   0  0  0  0  0  0  0  0  0  0  0  0
   -4.1956   -2.3839    0.0213 H   0  0  0  0  0  0  0  0  0  0  0  0
   -4.0897   -1.0982   -2.1532 H   0  0  0  0  0  0  0  0  0  0  0  0
   -1.7537   -0.2487   -2.5778 H   0  0  0  0  0  0  0  0  0  0  0  0
   -0.0080    1.3253   -1.3077 H   0  0  0  0  0  0  0  0  0  0  0  0
    5.0979    0.2451   -1.4786 H   0  0  0  0  0  0  0  0  0  0  0  0
    5.3850   -1.4158   -0.8235 H   0  0  0  0  0  0  0  0  0  0  0  0
    4.4019   -1.2606   -2.3164 H   0  0  0  0  0  0  0  0  0  0  0  0
    4.4647   -0.4468    1.4016 H   0  0  0  0  0  0  0  0  0  0  0  0
    3.0509    0.9974    2.4753 H   0  0  0  0  0  0  0  0  0  0  0  0
   -2.8344    3.1624    0.3696 H   0  0  0  0  0  0  0  0  0  0  0  0
   -3.6965    1.1423    0.1122 H   0  0  0  0  0  0  0  0  0  0  0  0
   -2.5907    1.6049    2.7097 H   0  0  0  0  0  0  0  0  0  0  0  0
   -1.2580    0.1066    1.6512 H   0  0  0  0  0  0  0  0  0  0  0  0
   -2.1625   -2.0128    1.1565 H   0  0  0  0  0  0  0  0  0  0  0  0
   -4.7161   -0.6826    0.0658 H   0  0  0  0  0  0  0  0  0  0  0  0
   -2.6605   -2.1255   -1.6468 H   0  0  0  0  0  0  0  0  0  0  0  0
   -2.7733    0.9506   -1.6481 H   0  0  0  0  0  0  0  0  0  0  0  0
   -1.0703   -1.3380   -0.5536 H   0  0  0  0  0  0  0  0  0  0  0  0
    1.0975   -1.1373   -0.1076 H   0  0  0  0  0  0  0  0  0  0  0  0
    2.0948   -0.3459   -2.0565 H   0  0  0  0  0  0  0  0  0  0  0  0
    3.0722   -1.5810   -0.0908 H   0  0  0  0  0  0  0  0  0  0  0  0
    4.6863    0.9581    0.2999 H   0  0  0  0  0  0  0  0  0  0  0  0
    2.8187    2.1173    1.1365 H   0  0  0  0  0  0  0  0  0  0  0  0
    0.7512    1.2478    1.5044 H   0  0  0  0  0  0  0  0  0  0  0  0
   -2.8344    3.1624    0.3696 H   0  0  0  0  0  0  0  0  0  0  0  0
   -3.6965    1.1423    0.1122 H   0  0  0  0  0  0  0  0  0  0  0  0
   -2.5907    1.6049    2.7097 H   0  0  0  0  0  0  0  0  0  0  0  0
   -1.2580    0.1066    1.6512 H   0  0  0  0  0  0  0  0  0  0  0  0
   -2.1625   -2.0128    1.1565 H   0  0  0  0  0  0  0  0  0  0  0  0
   -4.7161   -0.6826    0.0658 H   0  0  0  0  0  0  0  0  0  0  0  0
   -2.6605   -2.1255   -1.6468 H   0  0  0  0  0  0  0  0  0  0  0  0
   -2.7733    0.9506   -1.6481 H   0  0  0  0  0  0  0  0  0  0  0  0
   -1.0703   -1.3380   -0.5536 H   0  0  0  0  0  0  0  0  0  0  0  0
    1.0975   -1.1373   -0.1076 H   0  0  0  0  0  0  0  0  0  0  0  0
    2.0948   -0.3459   -2.0565 H   0  0  0  0  0  0  0  0  0  0  0  0
    3.0722   -1.5810   -0.0908 H   0  0  0  0  0  0  0  0  0  0  0  0
    4.6863    0.9581    0.2999 H   0  0  0  0  0  0  0  0  0  0  0  0
    2.8187    2.1173    1.1365 H   0  0  0  0  0  0  0  0  0  0  0  0
    0.7512    1.2478    1.5044 H   0  0  0  0  0  0  0  0  0  0  0  0
  1  2  1  0
  2  3  1  0
  2  4  1  0
  4  5  1  0
  5  6  1  0
  6  7  1  0
  7  8  1  0
  4  9  1  0
  8  9  1  0
  9 10  1  0
 10 11  1  0
 11 12  1  0
 12 13  1  0
 12 14  1  0
 14 15  1  0
 14 16  1  0
 16 17  1  0
 11 18  1  0
 17 18  1  0
 18 19  1  0
  5 20  1  0
  6 21  1  0
  7 22  1  0
  8 23  1  0
 10 24  1  0
 15 25  1  0
 15 26  1  0
 15 27  1  0
 16 28  1  0
 17 29  1  0
 30 31  1  0
 31 32  1  0
 31 33  1  0
 33 34  1  0
 34 35  1  0
 35 36  1  0
 36 37  1  0
 33 38  1  0
 37 38  1  0
 38 39  1  0
 39 40  1  0
 40 41  1  0
 41 42  1  0
 41 43  1  0
 43 44  1  0
 43 45  1  0
 45 46  1  0
 40 47  1  0
 46 47  1  0
 47 48  1  0
 34 49  1  0
 35 50  1  0
 36 51  1  0
 37 52  1  0
 39 53  1  0
 44 54  1  0
 44 55  1  0
 44 56  1  0
 45 57  1  0
 46 58  1  0
  1 59  1  0
  2 60  1  0
  3 61  1  0
  4 62  1  0
  5 63  1  0
  6 64  1  0
  7 65  1  0
  8 66  1  0
  9 67  1  0
 11 68  1  0
 12 69  1  0
 14 70  1  0
 16 71  1  0
 17 72  1  0
 18 73  1  0
 30 74  1  0
 31 75  1  0
 32 76  1  0
 33 77  1  0
 34 78  1  0
 35 79  1  0
 36 80  1  0
 37 81  1  0
 38 82  1  0
 40 83  1  0
 41 84  1  0
 43 85  1  0
 45 86  1  0
 46 87  1  0
 47 88  1  0
M  END
>  <PDBID>  (1) 
5IKQ

>  <PDB ID>  (1) 
5IKQ

>  <Generic Name>  (1) 
Meclofenamic acid

>  <Brand Name>  (1) 
Meclofenamate Sodium#Ethos#Eucome#Meclomen

>  <DrugBank ID>  (1) 
DB00939

>  <ATC Codes>  (1) 
M01AG04#M02AA18

>  <Ligand ID>  (1) 
JMS

>  <Target Name>  (1) 
Prostaglandin G/H synthase 1

>  <UniProt ID>  (1) 
P23219

>  <PDB ID.1>  (1) 
5IKQ

>  <Seq. Identity>  (1) 
61%

$$$$
