PDB_DB00284_05
     RDKit          3D

 89 92  0  0  0  0  0  0  0  0999 V2000
    6.0053    0.2144   -0.2335 C   0  0  2  0  0  0  0  0  0  0  0  0
    6.5071   -1.1437   -0.6714 C   0  0  1  0  0  0  0  0  0  0  0  0
    8.0335   -1.1332   -0.4801 C   0  0  2  0  0  0  0  0  0  0  0  0
    8.3493   -0.8209    0.9655 C   0  0  1  0  0  0  0  0  0  0  0  0
    7.7688    0.4797    1.4145 C   0  0  0  0  0  0  0  0  0  0  0  0
    8.1299    0.7191    2.8493 C   0  0  0  0  0  0  0  0  0  0  0  0
    6.2355    0.4540    1.2323 C   0  0  0  0  0  0  0  0  0  0  0  0
    6.0603   -2.1942    0.1194 O   0  0  0  0  0  0  0  0  0  0  0  0
    8.6715   -0.3065   -1.3632 O   0  0  0  0  0  0  0  0  0  0  0  0
    7.8775   -1.8343    1.7715 O   0  0  0  0  0  0  0  0  0  0  0  0
    9.5241    0.7514    2.9226 O   0  0  0  0  0  0  0  0  0  0  0  0
    0.9100    0.4266   -0.2223 C   0  0  2  0  0  0  0  0  0  0  0  0
    1.6915    0.1585    0.9984 C   0  0  1  0  0  0  0  0  0  0  0  0
    3.1332   -0.0730    0.7703 C   0  0  2  0  0  0  0  0  0  0  0  0
    3.5857   -0.0920   -0.6360 C   0  0  1  0  0  0  0  0  0  0  0  0
    2.6494    0.4295   -1.6939 C   0  0  1  0  0  0  0  0  0  0  0  0
    2.0419   -0.7360   -2.4457 C   0  0  0  0  0  0  0  0  0  0  0  0
    4.8139    0.6323   -0.8130 N   0  0  0  0  0  0  0  0  0  0  0  0
    1.4937    1.1770    1.9710 O   0  0  0  0  0  0  0  0  0  0  0  0
    3.4132   -1.3457    1.3839 O   0  0  0  0  0  0  0  0  0  0  0  0
    1.6003    1.1791   -1.1733 O   0  0  0  0  0  0  0  0  0  0  0  0
   -4.2721    0.0275   -0.3430 C   0  0  2  0  0  0  0  0  0  0  0  0
   -3.3957   -0.9387    0.4035 C   0  0  1  0  0  0  0  0  0  0  0  0
   -2.2320   -0.1098    0.9651 C   0  0  2  0  0  0  0  0  0  0  0  0
   -1.4053    0.2985   -0.2485 C   0  0  1  0  0  0  0  0  0  0  0  0
   -2.3538    1.0836   -1.1458 C   0  0  1  0  0  0  0  0  0  0  0  0
   -2.2700    0.5624   -2.5416 C   0  0  0  0  0  0  0  0  0  0  0  0
   -4.0470   -1.6151    1.4334 O   0  0  0  0  0  0  0  0  0  0  0  0
   -1.5030   -0.8077    1.8920 O   0  0  0  0  0  0  0  0  0  0  0  0
   -0.3032    1.0442    0.1125 O   0  0  0  0  0  0  0  0  0  0  0  0
   -3.6126    1.2195   -0.6379 O   0  0  0  0  0  0  0  0  0  0  0  0
   -2.8079   -0.6785   -2.7527 O   0  0  0  0  0  0  0  0  0  0  0  0
   -8.3155    1.3263    1.7015 C   0  0  1  0  0  0  0  0  0  0  0  0
   -8.5648   -0.1121    1.3850 C   0  0  1  0  0  0  0  0  0  0  0  0
   -7.3439   -0.8068    0.8311 C   0  0  2  0  0  0  0  0  0  0  0  0
   -6.5816    0.1018   -0.0489 C   0  0  1  0  0  0  0  0  0  0  0  0
   -7.2624    1.4099   -0.3803 C   0  0  1  0  0  0  0  0  0  0  0  0
   -8.2096    1.3253   -1.5327 C   0  0  0  0  0  0  0  0  0  0  0  0
   -7.5095    1.4500    2.8591 O   0  0  0  0  0  0  0  0  0  0  0  0
   -8.8409   -0.7461    2.6216 O   0  0  0  0  0  0  0  0  0  0  0  0
   -7.7356   -1.9937    0.2113 O   0  0  0  0  0  0  0  0  0  0  0  0
   -5.3363    0.3818    0.4839 O   0  0  0  0  0  0  0  0  0  0  0  0
   -7.8332    2.0654    0.6639 O   0  0  0  0  0  0  0  0  0  0  0  0
   -8.5270    2.6491   -1.9051 O   0  0  0  0  0  0  0  0  0  0  0  0
    6.8011    0.9176   -0.7173 H   0  0  0  0  0  0  0  0  0  0  0  0
    6.2903   -1.2593   -1.7372 H   0  0  0  0  0  0  0  0  0  0  0  0
    8.3596   -2.1767   -0.6692 H   0  0  0  0  0  0  0  0  0  0  0  0
    9.4551   -0.7731    1.0434 H   0  0  0  0  0  0  0  0  0  0  0  0
    8.1806    1.2861    0.7782 H   0  0  0  0  0  0  0  0  0  0  0  0
    7.8239   -0.1791    3.4435 H   0  0  0  0  0  0  0  0  0  0  0  0
    7.7311    1.6640    3.2532 H   0  0  0  0  0  0  0  0  0  0  0  0
    5.8501   -0.3099    1.9037 H   0  0  0  0  0  0  0  0  0  0  0  0
    5.9239    1.4984    1.4626 H   0  0  0  0  0  0  0  0  0  0  0  0
    5.6524   -2.8700   -0.4860 H   0  0  0  0  0  0  0  0  0  0  0  0
    8.2596   -0.2204   -2.2356 H   0  0  0  0  0  0  0  0  0  0  0  0
    8.5510   -2.5213    2.0022 H   0  0  0  0  0  0  0  0  0  0  0  0
    9.9278    1.3616    2.2331 H   0  0  0  0  0  0  0  0  0  0  0  0
    0.6328   -0.5303   -0.7081 H   0  0  0  0  0  0  0  0  0  0  0  0
    1.2064   -0.7500    1.4925 H   0  0  0  0  0  0  0  0  0  0  0  0
    3.7424    0.6682    1.3935 H   0  0  0  0  0  0  0  0  0  0  0  0
    3.7329   -1.1837   -0.8975 H   0  0  0  0  0  0  0  0  0  0  0  0
    3.1961    1.0203   -2.4911 H   0  0  0  0  0  0  0  0  0  0  0  0
    2.6070   -0.9601   -3.3780 H   0  0  0  0  0  0  0  0  0  0  0  0
    1.0201   -0.4497   -2.7581 H   0  0  0  0  0  0  0  0  0  0  0  0
    2.0011   -1.6072   -1.7669 H   0  0  0  0  0  0  0  0  0  0  0  0
    4.6874    1.6497   -0.7069 H   0  0  0  0  0  0  0  0  0  0  0  0
    0.7572    1.7660    1.7397 H   0  0  0  0  0  0  0  0  0  0  0  0
    2.9334   -1.4116    2.2363 H   0  0  0  0  0  0  0  0  0  0  0  0
   -4.7015   -0.4354   -1.2614 H   0  0  0  0  0  0  0  0  0  0  0  0
   -2.9615   -1.7340   -0.2393 H   0  0  0  0  0  0  0  0  0  0  0  0
   -2.7020    0.8208    1.3427 H   0  0  0  0  0  0  0  0  0  0  0  0
   -1.0566   -0.6363   -0.7268 H   0  0  0  0  0  0  0  0  0  0  0  0
   -1.9254    2.1301   -1.1879 H   0  0  0  0  0  0  0  0  0  0  0  0
   -2.6705    1.2882   -3.2965 H   0  0  0  0  0  0  0  0  0  0  0  0
   -1.1771    0.4935   -2.7964 H   0  0  0  0  0  0  0  0  0  0  0  0
   -4.6210   -2.3029    0.9753 H   0  0  0  0  0  0  0  0  0  0  0  0
   -2.0727   -0.9505    2.6882 H   0  0  0  0  0  0  0  0  0  0  0  0
   -2.1993   -1.4307   -2.5499 H   0  0  0  0  0  0  0  0  0  0  0  0
   -9.3032    1.7712    2.0157 H   0  0  0  0  0  0  0  0  0  0  0  0
   -9.4753   -0.2471    0.7929 H   0  0  0  0  0  0  0  0  0  0  0  0
   -6.6957   -1.1249    1.6924 H   0  0  0  0  0  0  0  0  0  0  0  0
   -6.4224   -0.3937   -1.0450 H   0  0  0  0  0  0  0  0  0  0  0  0
   -6.4166    2.0770   -0.7414 H   0  0  0  0  0  0  0  0  0  0  0  0
   -7.7460    0.8706   -2.4399 H   0  0  0  0  0  0  0  0  0  0  0  0
   -9.1748    0.8454   -1.2982 H   0  0  0  0  0  0  0  0  0  0  0  0
   -7.3989    0.5600    3.2300 H   0  0  0  0  0  0  0  0  0  0  0  0
   -8.9493   -1.7183    2.4993 H   0  0  0  0  0  0  0  0  0  0  0  0
   -7.9856   -1.8945   -0.7198 H   0  0  0  0  0  0  0  0  0  0  0  0
   -7.9006    3.3031   -1.5435 H   0  0  0  0  0  0  0  0  0  0  0  0
  1  2  1  0
  2  3  1  0
  3  4  1  0
  4  5  1  0
  5  6  1  0
  1  7  1  0
  5  7  1  0
  2  8  1  0
  3  9  1  0
  4 10  1  0
  6 11  1  0
 12 13  1  0
 13 14  1  0
 14 15  1  0
 15 16  1  0
 16 17  1  0
  1 18  1  0
 15 18  1  0
 13 19  1  0
 14 20  1  0
 12 21  1  0
 16 21  1  0
 22 23  1  0
 23 24  1  0
 24 25  1  0
 25 26  1  0
 26 27  1  0
 23 28  1  0
 24 29  1  0
 12 30  1  0
 25 30  1  0
 22 31  1  0
 26 31  1  0
 27 32  1  0
 33 34  1  0
 34 35  1  0
 35 36  1  0
 36 37  1  0
 37 38  1  0
 33 39  1  0
 34 40  1  0
 35 41  1  0
 22 42  1  0
 36 42  1  0
 33 43  1  0
 37 43  1  0
 38 44  1  0
  1 45  1  6
  2 46  1  6
  3 47  1  6
  4 48  1  6
  5 49  1  0
  6 50  1  0
  6 51  1  0
  7 52  1  0
  7 53  1  0
  8 54  1  0
  9 55  1  0
 10 56  1  0
 11 57  1  0
 12 58  1  6
 13 59  1  1
 14 60  1  1
 15 61  1  6
 16 62  1  6
 17 63  1  0
 17 64  1  0
 17 65  1  0
 18 66  1  0
 19 67  1  0
 20 68  1  0
 22 69  1  6
 23 70  1  6
 24 71  1  1
 25 72  1  6
 26 73  1  6
 27 74  1  0
 27 75  1  0
 28 76  1  0
 29 77  1  0
 32 78  1  0
 33 79  1  1
 34 80  1  6
 35 81  1  1
 36 82  1  6
 37 83  1  6
 38 84  1  0
 38 85  1  0
 39 86  1  0
 40 87  1  0
 41 88  1  0
 44 89  1  0
M  END
>  <PDBID>  (1) 
2QMJ

>  <PDB ID>  (1) 
2QMJ

>  <Generic Name>  (1) 
Acarbose

>  <Brand Name>  (1) 
Acarbose#Glucobay#Precose#Prandase

>  <DrugBank ID>  (1) 
DB00284

>  <ATC Codes>  (1) 
A10BF01#A10BD17

>  <Ligand ID>  (1) 
ACR,QPS

>  <Target Name>  (1) 
Maltase-glucoamylase, intestinal

>  <UniProt ID>  (1) 
O43451

>  <PDB ID.1>  (1) 
2QMJ

>  <Seq. Identity>  (1) 
99%

$$$$
