PDB_DB01128_09
     RDKit          3D

 63 64  0  0  0  0  0  0  0  0999 V2000
   -4.5499    1.7831    0.0623 C   0  0  0  0  0  0  0  0  0  0  0  0
   -5.7345    2.2445   -0.7551 C   0  0  0  0  0  0  0  0  0  0  0  0
   -6.9800    1.4100   -0.5351 C   0  0  0  0  0  0  0  0  0  0  0  0
   -8.0803    2.1415   -0.1945 F   0  0  0  0  0  0  0  0  0  0  0  0
   -6.6205    0.4382    0.5762 C   0  0  0  0  0  0  0  0  0  0  0  0
   -5.5398   -0.4472    0.0312 C   0  0  0  0  0  0  0  0  0  0  0  0
   -4.1742    0.3444   -0.1046 C   0  0  0  0  0  0  0  0  0  0  0  0
   -3.1595   -0.2704    1.0388 S   0  0  0  0  0  0  0  0  0  0  0  0
   -3.5644   -2.0346    0.8897 O   0  0  0  0  0  0  0  0  0  0  0  0
   -3.5808    0.0882    2.5093 O   0  0  0  0  0  0  0  0  0  0  0  0
   -1.5121   -0.2772    0.8109 C   0  0  0  0  0  0  0  0  0  0  0  0
   -0.8530   -1.0704   -0.2195 C   0  0  1  0  0  0  0  0  0  0  0  0
   -1.2050   -2.4606   -0.0026 O   0  0  0  0  0  0  0  0  0  0  0  0
   -1.1170   -0.7800   -1.6262 C   0  0  0  0  0  0  0  0  0  0  0  0
    0.6765   -1.1680    0.0123 C   0  0  1  0  0  0  0  0  0  0  0  0
    1.1086   -2.0921   -0.9358 O   0  0  0  0  0  0  0  0  0  0  0  0
    1.3284    0.0803   -0.1733 N   0  0  0  0  0  0  0  0  0  0  0  0
    2.7159    0.0906    0.1743 C   0  0  2  0  0  0  0  0  0  0  0  0
    3.4934    0.8253   -0.8691 C   0  0  0  0  0  0  0  0  0  0  0  0
    3.2896   -1.2643    0.4662 C   0  0  0  0  0  0  0  0  0  0  0  0
    4.7244   -1.1174    0.9148 C   0  0  0  0  0  0  0  0  0  0  0  0
    5.5620   -0.2023    0.1313 C   0  0  0  0  0  0  0  0  0  0  0  0
    6.3472    0.7025    1.0901 C   0  0  0  0  0  0  0  0  0  0  0  0
    5.4281    1.4420    1.8933 N   0  0  0  0  0  0  0  0  0  0  0  0
    4.9427    0.5663   -0.9547 C   0  0  0  0  0  0  0  0  0  0  0  0
    5.3422   -0.0205   -2.3222 C   0  0  0  0  0  0  0  0  0  0  0  0
    4.9937    0.8520   -3.3318 F   0  0  0  0  0  0  0  0  0  0  0  0
    6.7336   -0.1230   -2.3784 F   0  0  0  0  0  0  0  0  0  0  0  0
    4.7666   -1.2247   -2.5680 F   0  0  0  0  0  0  0  0  0  0  0  0
   -3.6929    2.4227   -0.2566 H   0  0  0  0  0  0  0  0  0  0  0  0
   -4.7684    2.0770    1.1196 H   0  0  0  0  0  0  0  0  0  0  0  0
   -5.5198    2.4267   -1.8130 H   0  0  0  0  0  0  0  0  0  0  0  0
   -6.0018    3.2598   -0.3319 H   0  0  0  0  0  0  0  0  0  0  0  0
   -7.2333    0.7849   -1.4225 H   0  0  0  0  0  0  0  0  0  0  0  0
   -7.4877   -0.2379    0.7757 H   0  0  0  0  0  0  0  0  0  0  0  0
   -6.3936    0.9132    1.5288 H   0  0  0  0  0  0  0  0  0  0  0  0
   -5.8731   -0.7515   -0.9981 H   0  0  0  0  0  0  0  0  0  0  0  0
   -5.4020   -1.2995    0.7119 H   0  0  0  0  0  0  0  0  0  0  0  0
   -3.9107    0.1503   -1.1481 H   0  0  0  0  0  0  0  0  0  0  0  0
   -3.5217   -2.1480   -0.1191 H   0  0  0  0  0  0  0  0  0  0  0  0
   -2.8852    0.4093    3.1153 H   0  0  0  0  0  0  0  0  0  0  0  0
   -1.0044   -0.5511    1.8091 H   0  0  0  0  0  0  0  0  0  0  0  0
   -1.1470    0.8012    0.6756 H   0  0  0  0  0  0  0  0  0  0  0  0
   -1.0344   -2.5864    0.9706 H   0  0  0  0  0  0  0  0  0  0  0  0
   -2.1863   -0.8478   -1.8717 H   0  0  0  0  0  0  0  0  0  0  0  0
   -0.7271    0.1757   -2.0383 H   0  0  0  0  0  0  0  0  0  0  0  0
   -0.5964   -1.6053   -2.2393 H   0  0  0  0  0  0  0  0  0  0  0  0
    0.7851   -1.5011    1.0529 H   0  0  0  0  0  0  0  0  0  0  0  0
    0.9013   -3.0031   -0.5593 H   0  0  0  0  0  0  0  0  0  0  0  0
    1.2561    0.4141   -1.1880 H   0  0  0  0  0  0  0  0  0  0  0  0
    2.8091    0.6631    1.1367 H   0  0  0  0  0  0  0  0  0  0  0  0
    3.2910    1.9280   -0.6654 H   0  0  0  0  0  0  0  0  0  0  0  0
    3.0317    0.6675   -1.8645 H   0  0  0  0  0  0  0  0  0  0  0  0
    3.3275   -1.9366   -0.4279 H   0  0  0  0  0  0  0  0  0  0  0  0
    2.7371   -1.6975    1.3192 H   0  0  0  0  0  0  0  0  0  0  0  0
    4.6637   -0.7693    1.9771 H   0  0  0  0  0  0  0  0  0  0  0  0
    5.1469   -2.1407    0.9960 H   0  0  0  0  0  0  0  0  0  0  0  0
    6.3853   -0.8357   -0.3304 H   0  0  0  0  0  0  0  0  0  0  0  0
    7.1082    1.2802    0.5687 H   0  0  0  0  0  0  0  0  0  0  0  0
    6.8940   -0.0182    1.7712 H   0  0  0  0  0  0  0  0  0  0  0  0
    5.3292    1.0616    2.8576 H   0  0  0  0  0  0  0  0  0  0  0  0
    5.4733    2.4571    1.8419 H   0  0  0  0  0  0  0  0  0  0  0  0
    5.4649    1.5813   -0.9862 H   0  0  0  0  0  0  0  0  0  0  0  0
  1  2  1  0
  2  3  1  0
  3  4  1  0
  3  5  1  0
  5  6  1  0
  1  7  1  0
  6  7  1  0
  7  8  1  0
  8  9  1  0
  8 10  1  0
  8 11  1  0
 11 12  1  0
 12 13  1  1
 12 14  1  0
 12 15  1  0
 15 16  1  0
 15 17  1  0
 17 18  1  0
 18 19  1  0
 18 20  1  0
 20 21  1  0
 21 22  1  0
 22 23  1  0
 23 24  1  0
 19 25  1  0
 22 25  1  0
 25 26  1  0
 26 27  1  0
 26 28  1  0
 26 29  1  0
  1 30  1  0
  1 31  1  0
  2 32  1  0
  2 33  1  0
  3 34  1  0
  5 35  1  0
  5 36  1  0
  6 37  1  0
  6 38  1  0
  7 39  1  0
  9 40  1  0
 10 41  1  0
 11 42  1  0
 11 43  1  0
 13 44  1  0
 14 45  1  0
 14 46  1  0
 14 47  1  0
 15 48  1  1
 16 49  1  0
 17 50  1  0
 18 51  1  1
 19 52  1  0
 19 53  1  0
 20 54  1  0
 20 55  1  0
 21 56  1  0
 21 57  1  0
 22 58  1  0
 23 59  1  0
 23 60  1  0
 24 61  1  0
 24 62  1  0
 25 63  1  0
M  END
>  <PDBID>  (1) 
1Z95

>  <PDB ID>  (1) 
1Z95

>  <Generic Name>  (1) 
Bicalutamide

>  <Brand Name>  (1) 
Accel-bicalutamide Tablets USP#Ach-bicalutamide#Act Bicalutamide#Ag-bicalutamide#Apo-bicalutamide#Ava-bicalutamide#Bicalutamide#Bicalutamide Tablets#Casodex#Dom-bicalutamide#Jamp-bicalutamide#Med-bicalutamide#Mylan-bicalutamide#Ntp-bicalutamide#Nu-bicalutamide#PHL-bicalutamide#PMS-bicalutamide#Pro-bicalutamide - 50#Ran-bicalutamide#Ratio-bicalutamide#Sandoz Bicalutamide#Teva-bicalutamide#Van-bicalutamide

>  <DrugBank ID>  (1) 
DB01128

>  <ATC Codes>  (1) 
L02BB03

>  <Ligand ID>  (1) 
0U9,198

>  <Target Name>  (1) 
Androgen receptor

>  <UniProt ID>  (1) 
P10275

>  <PDB ID.1>  (1) 
1Z95

>  <Seq. Identity>  (1) 
100%

$$$$
