PDB_DB01157_05
     RDKit          3D

264272  0  0  0  0  0  0  0  0999 V2000
    4.2003   -0.4027    2.0556 N   0  0  0  0  0  0  0  0  0  0  0  0
    4.9300   -1.5152    1.5644 C   0  0  1  0  0  0  0  0  0  0  0  0
    4.3432   -1.9821    0.3091 N   0  0  0  0  0  0  0  0  0  0  0  0
    4.6783   -0.9554   -0.6382 C   0  0  2  0  0  0  0  0  0  0  0  0
    3.8347    0.6137    1.1449 C   0  0  0  0  0  0  0  0  0  0  0  0
    3.8847    0.3162   -0.2939 C   0  0  0  0  0  0  0  0  0  0  0  0
    2.6297    0.3976   -1.0621 C   0  0  0  0  0  0  0  0  0  0  0  0
    1.3270    0.1659   -0.3528 C   0  0  0  0  0  0  0  0  0  0  0  0
    1.4828    0.0504    1.1431 C   0  0  0  0  0  0  0  0  0  0  0  0
    2.4550    1.1008    1.5917 C   0  0  0  0  0  0  0  0  0  0  0  0
    0.3987    1.3080   -0.6202 C   0  0  0  0  0  0  0  0  0  0  0  0
   -0.9051    1.1997   -0.0362 N   0  0  0  0  0  0  0  0  0  0  0  0
   -1.7419    0.1810   -0.6077 C   0  0  0  0  0  0  0  0  0  0  0  0
   -2.0792   -0.9598    0.2992 C   0  0  0  0  0  0  0  0  0  0  0  0
   -3.5895   -1.2524    0.1317 C   0  0  0  0  0  0  0  0  0  0  0  0
   -4.3121    0.0182    0.4792 C   0  0  0  0  0  0  0  0  0  0  0  0
   -4.0998    1.0112   -0.6450 C   0  0  0  0  0  0  0  0  0  0  0  0
   -2.8668    0.7091   -1.4393 C   0  0  0  0  0  0  0  0  0  0  0  0
    2.5441    1.6490   -1.9437 C   0  0  0  0  0  0  0  0  0  0  0  0
   -3.9583   -2.3124    0.9165 O   0  0  0  0  0  0  0  0  0  0  0  0
   -3.7903    0.5570    1.6303 O   0  0  0  0  0  0  0  0  0  0  0  0
   -5.1988    0.8976   -1.4933 O   0  0  0  0  0  0  0  0  0  0  0  0
   -4.4215   -3.3207    0.0520 C   0  0  0  0  0  0  0  0  0  0  0  0
   -4.7736    0.7427    2.6181 C   0  0  0  0  0  0  0  0  0  0  0  0
   -5.9408    2.0772   -1.5427 C   0  0  0  0  0  0  0  0  0  0  0  0
    6.3496   -1.3119    1.4347 N   0  0  0  0  0  0  0  0  0  0  0  0
    4.4522   -1.3135   -2.0120 N   0  0  0  0  0  0  0  0  0  0  0  0
    4.7762    0.5353    0.7217 N   0  0  0  0  0  0  0  0  0  0  0  0
    5.8694   -0.3285    0.3716 C   0  0  1  0  0  0  0  0  0  0  0  0
    5.5069   -1.0130   -0.8715 N   0  0  0  0  0  0  0  0  0  0  0  0
    4.3442   -1.8446   -0.6546 C   0  0  0  0  0  0  0  0  0  0  0  0
    3.6424   -0.2634    1.1326 C   0  0  0  0  0  0  0  0  0  0  0  0
    3.1966   -1.0947   -0.0441 C   0  0  0  0  0  0  0  0  0  0  0  0
    2.4705   -0.2181   -0.9899 C   0  0  1  0  0  0  0  0  0  0  0  0
    1.0963    0.0694   -0.3437 C   0  0  0  0  0  0  0  0  0  0  0  0
    1.2244    0.5351    1.0547 C   0  0  0  0  0  0  0  0  0  0  0  0
    2.5499    0.6030    1.6723 C   0  0  0  0  0  0  0  0  0  0  0  0
    0.3492    0.9943   -1.2571 C   0  0  0  0  0  0  0  0  0  0  0  0
   -0.9218    1.4427   -0.9391 N   0  0  0  0  0  0  0  0  0  0  0  0
   -1.9981    0.5297   -0.9681 C   0  0  0  0  0  0  0  0  0  0  0  0
   -2.1048   -0.4934    0.1022 C   0  0  0  0  0  0  0  0  0  0  0  0
   -3.5649   -0.9202    0.2349 C   0  0  0  0  0  0  0  0  0  0  0  0
   -4.3682    0.2641    0.6691 C   0  0  0  0  0  0  0  0  0  0  0  0
   -4.3758    1.2808   -0.4265 C   0  0  0  0  0  0  0  0  0  0  0  0
   -3.2417    1.2397   -1.3749 C   0  0  0  0  0  0  0  0  0  0  0  0
    3.1412    1.0376   -1.4005 C   0  0  0  0  0  0  0  0  0  0  0  0
   -3.6251   -1.9629    1.1730 O   0  0  0  0  0  0  0  0  0  0  0  0
   -3.8108    0.7628    1.8566 O   0  0  0  0  0  0  0  0  0  0  0  0
   -5.5379    0.9828   -1.2073 O   0  0  0  0  0  0  0  0  0  0  0  0
   -4.1013   -3.1286    0.5550 C   0  0  0  0  0  0  0  0  0  0  0  0
   -4.7459    0.6370    2.8857 C   0  0  0  0  0  0  0  0  0  0  0  0
   -6.4354    2.0321   -1.1774 C   0  0  0  0  0  0  0  0  0  0  0  0
    7.0750    0.4355    0.0644 N   0  0  0  0  0  0  0  0  0  0  0  0
    4.7384   -2.9048    0.2495 N   0  0  0  0  0  0  0  0  0  0  0  0
    4.7711   -1.2032   -1.2997 N   0  0  0  0  0  0  0  0  0  0  0  0
    5.4784   -1.7354   -0.1782 C   0  0  0  0  0  0  0  0  0  0  0  0
    4.6711   -1.8940    0.9940 N   0  0  0  0  0  0  0  0  0  0  0  0
    4.0418   -0.6780    1.4588 C   0  0  2  0  0  0  0  0  0  0  0  0
    3.8354   -0.1811   -1.0202 C   0  0  0  0  0  0  0  0  0  0  0  0
    3.8090    0.3271    0.4019 C   0  0  0  0  0  0  0  0  0  0  0  0
    2.6344    1.2226    0.5305 C   0  0  1  0  0  0  0  0  0  0  0  0
    1.2581    0.5288    0.4706 C   0  0  0  0  0  0  0  0  0  0  0  0
    1.4716   -0.7454   -0.3356 C   0  0  0  0  0  0  0  0  0  0  0  0
    2.4645   -0.5548   -1.4718 C   0  0  0  0  0  0  0  0  0  0  0  0
    0.3013    1.4749   -0.1864 C   0  0  0  0  0  0  0  0  0  0  0  0
   -1.0268    1.3339   -0.3707 N   0  0  0  0  0  0  0  0  0  0  0  0
   -1.8381    0.4835   -1.0721 C   0  0  0  0  0  0  0  0  0  0  0  0
   -2.0638   -0.8607   -0.4977 C   0  0  0  0  0  0  0  0  0  0  0  0
   -3.5440   -1.2053   -0.3583 C   0  0  0  0  0  0  0  0  0  0  0  0
   -4.2310   -0.0409    0.2718 C   0  0  0  0  0  0  0  0  0  0  0  0
   -4.2322    1.1229   -0.6815 C   0  0  0  0  0  0  0  0  0  0  0  0
   -3.0977    1.1165   -1.6477 C   0  0  0  0  0  0  0  0  0  0  0  0
    2.7057    2.1948    1.6739 C   0  0  0  0  0  0  0  0  0  0  0  0
   -3.6265   -2.2919    0.5195 O   0  0  0  0  0  0  0  0  0  0  0  0
   -3.6882    0.3312    1.4777 O   0  0  0  0  0  0  0  0  0  0  0  0
   -5.4343    1.1009   -1.3867 O   0  0  0  0  0  0  0  0  0  0  0  0
   -4.2968   -3.3169   -0.1499 C   0  0  0  0  0  0  0  0  0  0  0  0
   -4.6896    0.1802    2.4645 C   0  0  0  0  0  0  0  0  0  0  0  0
   -6.2065    2.2287   -1.1296 C   0  0  0  0  0  0  0  0  0  0  0  0
    6.6993   -0.9868    0.0342 N   0  0  0  0  0  0  0  0  0  0  0  0
    4.9772   -0.1525    2.4832 N   0  0  0  0  0  0  0  0  0  0  0  0
    4.7711   -1.2032   -1.2997 N   0  0  0  0  0  0  0  0  0  0  0  0
    5.4784   -1.7354   -0.1782 C   0  0  0  0  0  0  0  0  0  0  0  0
    4.6711   -1.8940    0.9940 N   0  0  0  0  0  0  0  0  0  0  0  0
    4.0418   -0.6780    1.4588 C   0  0  2  0  0  0  0  0  0  0  0  0
    3.8354   -0.1811   -1.0202 C   0  0  0  0  0  0  0  0  0  0  0  0
    3.8090    0.3271    0.4019 C   0  0  0  0  0  0  0  0  0  0  0  0
    2.6344    1.2226    0.5305 C   0  0  1  0  0  0  0  0  0  0  0  0
    1.2581    0.5288    0.4706 C   0  0  0  0  0  0  0  0  0  0  0  0
    1.4716   -0.7454   -0.3356 C   0  0  0  0  0  0  0  0  0  0  0  0
    2.4645   -0.5548   -1.4718 C   0  0  0  0  0  0  0  0  0  0  0  0
    0.3013    1.4749   -0.1864 C   0  0  0  0  0  0  0  0  0  0  0  0
   -1.0268    1.3339   -0.3707 N   0  0  0  0  0  0  0  0  0  0  0  0
   -1.8381    0.4835   -1.0721 C   0  0  0  0  0  0  0  0  0  0  0  0
   -2.0638   -0.8607   -0.4977 C   0  0  0  0  0  0  0  0  0  0  0  0
   -3.5440   -1.2053   -0.3583 C   0  0  0  0  0  0  0  0  0  0  0  0
   -4.2310   -0.0409    0.2718 C   0  0  0  0  0  0  0  0  0  0  0  0
   -4.2322    1.1229   -0.6815 C   0  0  0  0  0  0  0  0  0  0  0  0
   -3.0977    1.1165   -1.6477 C   0  0  0  0  0  0  0  0  0  0  0  0
    2.7057    2.1948    1.6739 C   0  0  0  0  0  0  0  0  0  0  0  0
   -3.6265   -2.2919    0.5195 O   0  0  0  0  0  0  0  0  0  0  0  0
   -3.6882    0.3312    1.4777 O   0  0  0  0  0  0  0  0  0  0  0  0
   -5.4343    1.1009   -1.3867 O   0  0  0  0  0  0  0  0  0  0  0  0
   -4.2968   -3.3169   -0.1499 C   0  0  0  0  0  0  0  0  0  0  0  0
   -4.6896    0.1802    2.4645 C   0  0  0  0  0  0  0  0  0  0  0  0
   -6.2065    2.2287   -1.1296 C   0  0  0  0  0  0  0  0  0  0  0  0
    6.6993   -0.9868    0.0342 N   0  0  0  0  0  0  0  0  0  0  0  0
    4.9772   -0.1525    2.4832 N   0  0  0  0  0  0  0  0  0  0  0  0
    4.7221   -0.0455    2.8981 H   0  0  0  0  0  0  0  0  0  0  0  0
    4.8001   -2.3600    2.2806 H   0  0  0  0  0  0  0  0  0  0  0  0
    4.7837   -2.8763    0.0299 H   0  0  0  0  0  0  0  0  0  0  0  0
    5.7704   -0.7359   -0.4678 H   0  0  0  0  0  0  0  0  0  0  0  0
    4.4929    1.5047    1.4138 H   0  0  0  0  0  0  0  0  0  0  0  0
    4.5582    1.1131   -0.7670 H   0  0  0  0  0  0  0  0  0  0  0  0
    2.6936   -0.4181   -1.8550 H   0  0  0  0  0  0  0  0  0  0  0  0
    0.8163   -0.7671   -0.6900 H   0  0  0  0  0  0  0  0  0  0  0  0
    0.5155    0.1752    1.6381 H   0  0  0  0  0  0  0  0  0  0  0  0
    1.9614   -0.9355    1.3517 H   0  0  0  0  0  0  0  0  0  0  0  0
    2.4622    1.0769    2.7237 H   0  0  0  0  0  0  0  0  0  0  0  0
    2.2411    2.1213    1.2749 H   0  0  0  0  0  0  0  0  0  0  0  0
    0.8217    2.2754   -0.1727 H   0  0  0  0  0  0  0  0  0  0  0  0
    0.2283    1.4708   -1.7133 H   0  0  0  0  0  0  0  0  0  0  0  0
   -1.4097    2.0715    0.1296 H   0  0  0  0  0  0  0  0  0  0  0  0
   -1.0486   -0.3091   -1.3945 H   0  0  0  0  0  0  0  0  0  0  0  0
   -1.5274   -1.8829    0.1401 H   0  0  0  0  0  0  0  0  0  0  0  0
   -1.9767   -0.6353    1.3575 H   0  0  0  0  0  0  0  0  0  0  0  0
   -3.7592   -1.4741   -0.9601 H   0  0  0  0  0  0  0  0  0  0  0  0
   -5.3965   -0.2053    0.5755 H   0  0  0  0  0  0  0  0  0  0  0  0
   -4.1193    2.0103   -0.2209 H   0  0  0  0  0  0  0  0  0  0  0  0
   -3.0933    0.0084   -2.2638 H   0  0  0  0  0  0  0  0  0  0  0  0
   -2.5184    1.6612   -1.9053 H   0  0  0  0  0  0  0  0  0  0  0  0
    2.3867    2.5732   -1.3728 H   0  0  0  0  0  0  0  0  0  0  0  0
    3.5964    1.7516   -2.3520 H   0  0  0  0  0  0  0  0  0  0  0  0
    1.9190    1.4919   -2.8192 H   0  0  0  0  0  0  0  0  0  0  0  0
   -3.6445   -3.6626   -0.6425 H   0  0  0  0  0  0  0  0  0  0  0  0
   -5.2612   -2.8401   -0.5387 H   0  0  0  0  0  0  0  0  0  0  0  0
   -4.8533   -4.1521    0.6241 H   0  0  0  0  0  0  0  0  0  0  0  0
   -4.2675    1.1544    3.5140 H   0  0  0  0  0  0  0  0  0  0  0  0
   -5.2523   -0.2021    2.8925 H   0  0  0  0  0  0  0  0  0  0  0  0
   -5.5126    1.5085    2.2593 H   0  0  0  0  0  0  0  0  0  0  0  0
   -5.3203    2.9093   -1.9108 H   0  0  0  0  0  0  0  0  0  0  0  0
   -6.7699    1.9068   -2.2672 H   0  0  0  0  0  0  0  0  0  0  0  0
   -6.3589    2.3230   -0.5428 H   0  0  0  0  0  0  0  0  0  0  0  0
    6.9156   -1.8645    2.1153 H   0  0  0  0  0  0  0  0  0  0  0  0
    6.6678   -0.3347    1.4702 H   0  0  0  0  0  0  0  0  0  0  0  0
    4.7788   -2.3121   -2.1233 H   0  0  0  0  0  0  0  0  0  0  0  0
    5.1255   -0.7636   -2.6217 H   0  0  0  0  0  0  0  0  0  0  0  0
    5.0078    1.2543    1.4457 H   0  0  0  0  0  0  0  0  0  0  0  0
    6.0984   -1.0975    1.1218 H   0  0  0  0  0  0  0  0  0  0  0  0
    6.3119   -1.6471   -1.0823 H   0  0  0  0  0  0  0  0  0  0  0  0
    4.0539   -2.2972   -1.6110 H   0  0  0  0  0  0  0  0  0  0  0  0
    4.0340   -0.9833    1.8967 H   0  0  0  0  0  0  0  0  0  0  0  0
    2.4886   -1.8578    0.3424 H   0  0  0  0  0  0  0  0  0  0  0  0
    2.2395   -0.8339   -1.8988 H   0  0  0  0  0  0  0  0  0  0  0  0
    0.6145   -0.9267   -0.3931 H   0  0  0  0  0  0  0  0  0  0  0  0
    0.7703    1.5784    1.0978 H   0  0  0  0  0  0  0  0  0  0  0  0
    0.4993   -0.0673    1.6799 H   0  0  0  0  0  0  0  0  0  0  0  0
    2.4354    0.3275    2.7653 H   0  0  0  0  0  0  0  0  0  0  0  0
    2.9362    1.6426    1.6963 H   0  0  0  0  0  0  0  0  0  0  0  0
    1.0332    1.8728   -1.5498 H   0  0  0  0  0  0  0  0  0  0  0  0
    0.3465    0.4351   -2.2763 H   0  0  0  0  0  0  0  0  0  0  0  0
   -1.1336    2.4413   -0.9561 H   0  0  0  0  0  0  0  0  0  0  0  0
   -1.7907   -0.1704   -1.9184 H   0  0  0  0  0  0  0  0  0  0  0  0
   -1.5498   -1.4504   -0.0880 H   0  0  0  0  0  0  0  0  0  0  0  0
   -1.8015   -0.0876    1.0842 H   0  0  0  0  0  0  0  0  0  0  0  0
   -3.9109   -1.2900   -0.7632 H   0  0  0  0  0  0  0  0  0  0  0  0
   -5.4372   -0.0745    0.8852 H   0  0  0  0  0  0  0  0  0  0  0  0
   -4.5270    2.2987    0.0083 H   0  0  0  0  0  0  0  0  0  0  0  0
   -3.5829    0.8924   -2.3969 H   0  0  0  0  0  0  0  0  0  0  0  0
   -2.9610    2.3252   -1.5709 H   0  0  0  0  0  0  0  0  0  0  0  0
    2.8960    1.9151   -0.7395 H   0  0  0  0  0  0  0  0  0  0  0  0
    4.2275    0.9751   -1.5723 H   0  0  0  0  0  0  0  0  0  0  0  0
    2.7239    1.3209   -2.4086 H   0  0  0  0  0  0  0  0  0  0  0  0
   -3.4168   -3.4011   -0.2596 H   0  0  0  0  0  0  0  0  0  0  0  0
   -5.1291   -2.8995    0.1776 H   0  0  0  0  0  0  0  0  0  0  0  0
   -4.0796   -3.9420    1.2920 H   0  0  0  0  0  0  0  0  0  0  0  0
   -4.3031    1.0406    3.8216 H   0  0  0  0  0  0  0  0  0  0  0  0
   -4.9945   -0.4417    2.9968 H   0  0  0  0  0  0  0  0  0  0  0  0
   -5.6619    1.1708    2.6376 H   0  0  0  0  0  0  0  0  0  0  0  0
   -5.9425    2.9378   -1.5996 H   0  0  0  0  0  0  0  0  0  0  0  0
   -7.2363    1.7580   -1.9224 H   0  0  0  0  0  0  0  0  0  0  0  0
   -6.8283    2.1603   -0.1672 H   0  0  0  0  0  0  0  0  0  0  0  0
    7.3403    0.3468   -0.9517 H   0  0  0  0  0  0  0  0  0  0  0  0
    6.9878    1.4256    0.3571 H   0  0  0  0  0  0  0  0  0  0  0  0
    5.7825   -3.0094    0.3189 H   0  0  0  0  0  0  0  0  0  0  0  0
    4.3105   -2.8518    1.1820 H   0  0  0  0  0  0  0  0  0  0  0  0
    5.4818   -0.9297   -2.0430 H   0  0  0  0  0  0  0  0  0  0  0  0
    5.7996   -2.7735   -0.4673 H   0  0  0  0  0  0  0  0  0  0  0  0
    3.9567   -2.6199    0.7705 H   0  0  0  0  0  0  0  0  0  0  0  0
    3.1190   -0.8809    2.0213 H   0  0  0  0  0  0  0  0  0  0  0  0
    4.1258    0.7154   -1.6502 H   0  0  0  0  0  0  0  0  0  0  0  0
    4.7171    1.0335    0.4567 H   0  0  0  0  0  0  0  0  0  0  0  0
    2.6430    1.8676   -0.4049 H   0  0  0  0  0  0  0  0  0  0  0  0
    0.9556    0.3440    1.5037 H   0  0  0  0  0  0  0  0  0  0  0  0
    1.7022   -1.6108    0.3075 H   0  0  0  0  0  0  0  0  0  0  0  0
    0.5412   -1.0219   -0.8622 H   0  0  0  0  0  0  0  0  0  0  0  0
    2.4882   -1.5148   -2.0108 H   0  0  0  0  0  0  0  0  0  0  0  0
    1.9876    0.1691   -2.1594 H   0  0  0  0  0  0  0  0  0  0  0  0
    0.4537    2.4554    0.4406 H   0  0  0  0  0  0  0  0  0  0  0  0
    0.8297    1.8705   -1.1654 H   0  0  0  0  0  0  0  0  0  0  0  0
   -1.6469    1.9884    0.2371 H   0  0  0  0  0  0  0  0  0  0  0  0
   -1.2590    0.2502   -2.0592 H   0  0  0  0  0  0  0  0  0  0  0  0
   -1.6467   -1.7110   -1.0970 H   0  0  0  0  0  0  0  0  0  0  0  0
   -1.6251   -0.9694    0.5188 H   0  0  0  0  0  0  0  0  0  0  0  0
   -4.0012   -1.4424   -1.3390 H   0  0  0  0  0  0  0  0  0  0  0  0
   -5.2980   -0.3663    0.4378 H   0  0  0  0  0  0  0  0  0  0  0  0
   -4.2276    2.0542   -0.0778 H   0  0  0  0  0  0  0  0  0  0  0  0
   -3.3830    0.6296   -2.5960 H   0  0  0  0  0  0  0  0  0  0  0  0
   -2.8297    2.1640   -1.8871 H   0  0  0  0  0  0  0  0  0  0  0  0
    2.1916    1.8776    2.5840 H   0  0  0  0  0  0  0  0  0  0  0  0
    3.7874    2.3718    1.8799 H   0  0  0  0  0  0  0  0  0  0  0  0
    2.3163    3.2004    1.3642 H   0  0  0  0  0  0  0  0  0  0  0  0
   -3.7390   -3.6074   -1.0585 H   0  0  0  0  0  0  0  0  0  0  0  0
   -5.3145   -2.9168   -0.3983 H   0  0  0  0  0  0  0  0  0  0  0  0
   -4.3804   -4.1899    0.5264 H   0  0  0  0  0  0  0  0  0  0  0  0
   -5.5613    0.8297    2.2173 H   0  0  0  0  0  0  0  0  0  0  0  0
   -4.2956    0.4294    3.4430 H   0  0  0  0  0  0  0  0  0  0  0  0
   -5.0810   -0.8630    2.4987 H   0  0  0  0  0  0  0  0  0  0  0  0
   -5.6153    3.1192   -1.4528 H   0  0  0  0  0  0  0  0  0  0  0  0
   -7.1245    2.1695   -1.7481 H   0  0  0  0  0  0  0  0  0  0  0  0
   -6.4395    2.2630   -0.0527 H   0  0  0  0  0  0  0  0  0  0  0  0
    6.6159   -0.0800   -0.5027 H   0  0  0  0  0  0  0  0  0  0  0  0
    7.5177   -1.4672   -0.4338 H   0  0  0  0  0  0  0  0  0  0  0  0
    5.3347   -0.9832    3.0078 H   0  0  0  0  0  0  0  0  0  0  0  0
    5.7602    0.3467    2.0265 H   0  0  0  0  0  0  0  0  0  0  0  0
    5.4818   -0.9297   -2.0430 H   0  0  0  0  0  0  0  0  0  0  0  0
    5.7996   -2.7735   -0.4673 H   0  0  0  0  0  0  0  0  0  0  0  0
    3.9567   -2.6199    0.7705 H   0  0  0  0  0  0  0  0  0  0  0  0
    3.1190   -0.8809    2.0213 H   0  0  0  0  0  0  0  0  0  0  0  0
    4.1258    0.7154   -1.6502 H   0  0  0  0  0  0  0  0  0  0  0  0
    4.7171    1.0335    0.4567 H   0  0  0  0  0  0  0  0  0  0  0  0
    2.6430    1.8676   -0.4049 H   0  0  0  0  0  0  0  0  0  0  0  0
    0.9556    0.3440    1.5037 H   0  0  0  0  0  0  0  0  0  0  0  0
    1.7022   -1.6108    0.3075 H   0  0  0  0  0  0  0  0  0  0  0  0
    0.5412   -1.0219   -0.8622 H   0  0  0  0  0  0  0  0  0  0  0  0
    2.4882   -1.5148   -2.0108 H   0  0  0  0  0  0  0  0  0  0  0  0
    1.9876    0.1691   -2.1594 H   0  0  0  0  0  0  0  0  0  0  0  0
    0.4537    2.4554    0.4406 H   0  0  0  0  0  0  0  0  0  0  0  0
    0.8297    1.8705   -1.1654 H   0  0  0  0  0  0  0  0  0  0  0  0
   -1.6469    1.9884    0.2371 H   0  0  0  0  0  0  0  0  0  0  0  0
   -1.2590    0.2502   -2.0592 H   0  0  0  0  0  0  0  0  0  0  0  0
   -1.6467   -1.7110   -1.0970 H   0  0  0  0  0  0  0  0  0  0  0  0
   -1.6251   -0.9694    0.5188 H   0  0  0  0  0  0  0  0  0  0  0  0
   -4.0012   -1.4424   -1.3390 H   0  0  0  0  0  0  0  0  0  0  0  0
   -5.2980   -0.3663    0.4378 H   0  0  0  0  0  0  0  0  0  0  0  0
   -4.2276    2.0542   -0.0778 H   0  0  0  0  0  0  0  0  0  0  0  0
   -3.3830    0.6296   -2.5960 H   0  0  0  0  0  0  0  0  0  0  0  0
   -2.8297    2.1640   -1.8871 H   0  0  0  0  0  0  0  0  0  0  0  0
    2.1916    1.8776    2.5840 H   0  0  0  0  0  0  0  0  0  0  0  0
    3.7874    2.3718    1.8799 H   0  0  0  0  0  0  0  0  0  0  0  0
    2.3163    3.2004    1.3642 H   0  0  0  0  0  0  0  0  0  0  0  0
   -3.7390   -3.6074   -1.0585 H   0  0  0  0  0  0  0  0  0  0  0  0
   -5.3145   -2.9168   -0.3983 H   0  0  0  0  0  0  0  0  0  0  0  0
   -4.3804   -4.1899    0.5264 H   0  0  0  0  0  0  0  0  0  0  0  0
   -5.5613    0.8297    2.2173 H   0  0  0  0  0  0  0  0  0  0  0  0
   -4.2956    0.4294    3.4430 H   0  0  0  0  0  0  0  0  0  0  0  0
   -5.0810   -0.8630    2.4987 H   0  0  0  0  0  0  0  0  0  0  0  0
   -5.6153    3.1192   -1.4528 H   0  0  0  0  0  0  0  0  0  0  0  0
   -7.1245    2.1695   -1.7481 H   0  0  0  0  0  0  0  0  0  0  0  0
   -6.4395    2.2630   -0.0527 H   0  0  0  0  0  0  0  0  0  0  0  0
    6.6159   -0.0800   -0.5027 H   0  0  0  0  0  0  0  0  0  0  0  0
    7.5177   -1.4672   -0.4338 H   0  0  0  0  0  0  0  0  0  0  0  0
    5.3347   -0.9832    3.0078 H   0  0  0  0  0  0  0  0  0  0  0  0
    5.7602    0.3467    2.0265 H   0  0  0  0  0  0  0  0  0  0  0  0
  1  2  1  0
  2  3  1  0
  3  4  1  0
  1  5  1  0
  4  6  1  0
  5  6  1  0
  6  7  1  0
  7  8  1  0
  8  9  1  0
  5 10  1  0
  9 10  1  0
  8 11  1  0
 11 12  1  0
 12 13  1  0
 13 14  1  0
 14 15  1  0
 15 16  1  0
 16 17  1  0
 13 18  1  0
 17 18  1  0
  7 19  1  0
 15 20  1  0
 16 21  1  0
 17 22  1  0
 20 23  1  0
 21 24  1  0
 22 25  1  0
  2 26  1  0
  4 27  1  0
 28 29  1  0
 29 30  1  0
 30 31  1  0
 28 32  1  0
 31 33  1  0
 32 33  1  0
 33 34  1  0
 34 35  1  0
 35 36  1  0
 32 37  1  0
 36 37  1  0
 35 38  1  0
 38 39  1  0
 39 40  1  0
 40 41  1  0
 41 42  1  0
 42 43  1  0
 43 44  1  0
 40 45  1  0
 44 45  1  0
 34 46  1  0
 42 47  1  0
 43 48  1  0
 44 49  1  0
 47 50  1  0
 48 51  1  0
 49 52  1  0
 29 53  1  0
 31 54  1  0
 55 56  1  0
 56 57  1  0
 57 58  1  0
 55 59  1  0
 58 60  1  0
 59 60  1  0
 60 61  1  0
 61 62  1  0
 62 63  1  0
 59 64  1  0
 63 64  1  0
 62 65  1  0
 65 66  1  0
 66 67  1  0
 67 68  1  0
 68 69  1  0
 69 70  1  0
 70 71  1  0
 67 72  1  0
 71 72  1  0
 61 73  1  0
 69 74  1  0
 70 75  1  0
 71 76  1  0
 74 77  1  0
 75 78  1  0
 76 79  1  0
 56 80  1  0
 58 81  1  0
 82 83  1  0
 83 84  1  0
 84 85  1  0
 82 86  1  0
 85 87  1  0
 86 87  1  0
 87 88  1  0
 88 89  1  0
 89 90  1  0
 86 91  1  0
 90 91  1  0
 89 92  1  0
 92 93  1  0
 93 94  1  0
 94 95  1  0
 95 96  1  0
 96 97  1  0
 97 98  1  0
 94 99  1  0
 98 99  1  0
 88100  1  0
 96101  1  0
 97102  1  0
 98103  1  0
101104  1  0
102105  1  0
103106  1  0
 83107  1  0
 85108  1  0
  1109  1  0
  2110  1  1
  3111  1  0
  4112  1  6
  5113  1  0
  6114  1  0
  7115  1  0
  8116  1  0
  9117  1  0
  9118  1  0
 10119  1  0
 10120  1  0
 11121  1  0
 11122  1  0
 12123  1  0
 13124  1  0
 14125  1  0
 14126  1  0
 15127  1  0
 16128  1  0
 17129  1  0
 18130  1  0
 18131  1  0
 19132  1  0
 19133  1  0
 19134  1  0
 23135  1  0
 23136  1  0
 23137  1  0
 24138  1  0
 24139  1  0
 24140  1  0
 25141  1  0
 25142  1  0
 25143  1  0
 26144  1  0
 26145  1  0
 27146  1  0
 27147  1  0
 28148  1  0
 29149  1  1
 30150  1  0
 31151  1  0
 32152  1  0
 33153  1  0
 34154  1  6
 35155  1  0
 36156  1  0
 36157  1  0
 37158  1  0
 37159  1  0
 38160  1  0
 38161  1  0
 39162  1  0
 40163  1  0
 41164  1  0
 41165  1  0
 42166  1  0
 43167  1  0
 44168  1  0
 45169  1  0
 45170  1  0
 46171  1  0
 46172  1  0
 46173  1  0
 50174  1  0
 50175  1  0
 50176  1  0
 51177  1  0
 51178  1  0
 51179  1  0
 52180  1  0
 52181  1  0
 52182  1  0
 53183  1  0
 53184  1  0
 54185  1  0
 54186  1  0
 55187  1  0
 56188  1  0
 57189  1  0
 58190  1  1
 59191  1  0
 60192  1  0
 61193  1  6
 62194  1  0
 63195  1  0
 63196  1  0
 64197  1  0
 64198  1  0
 65199  1  0
 65200  1  0
 66201  1  0
 67202  1  0
 68203  1  0
 68204  1  0
 69205  1  0
 70206  1  0
 71207  1  0
 72208  1  0
 72209  1  0
 73210  1  0
 73211  1  0
 73212  1  0
 77213  1  0
 77214  1  0
 77215  1  0
 78216  1  0
 78217  1  0
 78218  1  0
 79219  1  0
 79220  1  0
 79221  1  0
 80222  1  0
 80223  1  0
 81224  1  0
 81225  1  0
 82226  1  0
 83227  1  0
 84228  1  0
 85229  1  1
 86230  1  0
 87231  1  0
 88232  1  6
 89233  1  0
 90234  1  0
 90235  1  0
 91236  1  0
 91237  1  0
 92238  1  0
 92239  1  0
 93240  1  0
 94241  1  0
 95242  1  0
 95243  1  0
 96244  1  0
 97245  1  0
 98246  1  0
 99247  1  0
 99248  1  0
100249  1  0
100250  1  0
100251  1  0
104252  1  0
104253  1  0
104254  1  0
105255  1  0
105256  1  0
105257  1  0
106258  1  0
106259  1  0
106260  1  0
107261  1  0
107262  1  0
108263  1  0
108264  1  0
M  END
>  <PDBID>  (1) 
4M2X

>  <PDB ID>  (1) 
4M2X

>  <Generic Name>  (1) 
Trimetrexate

>  <Brand Name>  (1) 
Neutrexin Pws IV 25mg/vial#Neutrexin

>  <DrugBank ID>  (1) 
DB01157

>  <ATC Codes>  (1) 
P01AX07

>  <Ligand ID>  (1) 
TMQ

>  <Target Name>  (1) 
Dihydrofolate reductase

>  <UniProt ID>  (1) 
P00374

>  <PDB ID.1>  (1) 
4M2X

>  <Seq. Identity>  (1) 
31%

$$$$
