PDB_DB09078_01
     RDKit          3D

 69 72  0  0  0  0  0  0  0  0999 V2000
   -4.8925   -0.9583    3.2604 C   0  0  0  0  0  0  0  0  0  0  0  0
   -4.2618   -0.6943    2.0474 O   0  0  0  0  0  0  0  0  0  0  0  0
   -5.1311   -0.6952    0.9813 C   0  0  0  0  0  0  0  0  0  0  0  0
   -4.7585   -1.8957    0.0888 C   0  0  0  0  0  0  0  0  0  0  0  0
   -3.3392   -1.7894   -0.4001 C   0  0  0  0  0  0  0  0  0  0  0  0
   -3.2319   -2.2740   -1.7635 N   0  0  0  0  0  0  0  0  0  0  0  0
   -3.2461   -1.2050   -2.7329 C   0  0  0  0  0  0  0  0  0  0  0  0
   -2.1105   -0.2472   -2.5651 C   0  0  0  0  0  0  0  0  0  0  0  0
   -1.5279   -0.3779   -1.1735 C   0  0  2  0  0  0  0  0  0  0  0  0
   -2.6784   -0.4770   -0.1592 C   0  0  0  0  0  0  0  0  0  0  0  0
   -3.5450    0.7280   -0.2060 C   0  0  0  0  0  0  0  0  0  0  0  0
   -4.9956    0.4879    0.0561 C   0  0  2  0  0  0  0  0  0  0  0  0
   -5.7386    1.7066    0.5132 C   0  0  2  0  0  0  0  0  0  0  0  0
   -5.5684    2.7657   -0.3994 O   0  0  0  0  0  0  0  0  0  0  0  0
   -5.3998    2.1235    1.8487 N   0  0  0  0  0  0  0  0  0  0  0  0
   -0.6517    0.6270   -0.8667 O   0  0  0  0  0  0  0  0  0  0  0  0
    0.5985    0.1170   -0.6043 C   0  0  1  0  0  0  0  0  0  0  0  0
    1.6688    0.6693   -1.4847 C   0  0  0  0  0  0  0  0  0  0  0  0
    2.8833    1.1699   -0.7001 C   0  0  1  0  0  0  0  0  0  0  0  0
    3.4073    0.0549    0.1192 C   0  0  2  0  0  0  0  0  0  0  0  0
    2.3017   -0.3327    1.1075 C   0  0  0  0  0  0  0  0  0  0  0  0
    1.0128    0.3694    0.8404 C   0  0  0  0  0  0  0  0  0  0  0  0
    4.6163    0.2406    0.8275 N   0  0  0  0  0  0  0  0  0  0  0  0
    5.8188    0.4575    0.1094 C   0  0  0  0  0  0  0  0  0  0  0  0
    6.1169   -0.5646   -0.7959 O   0  0  0  0  0  0  0  0  0  0  0  0
    6.9179    0.4460    1.0900 N   0  0  0  0  0  0  0  0  0  0  0  0
    8.1932    0.6026    0.4668 C   0  0  0  0  0  0  0  0  0  0  0  0
    8.7445   -0.3824   -0.4807 C   0  0  0  0  0  0  0  0  0  0  0  0
    9.2958   -0.2728    0.9565 C   0  0  0  0  0  0  0  0  0  0  0  0
    4.0059    1.7851   -1.9339 Cl  0  0  0  0  0  0  0  0  0  0  0  0
   -5.6501   -0.1671    3.4207 H   0  0  0  0  0  0  0  0  0  0  0  0
   -5.3754   -1.9669    3.1978 H   0  0  0  0  0  0  0  0  0  0  0  0
   -4.1875   -0.9041    4.1146 H   0  0  0  0  0  0  0  0  0  0  0  0
   -6.1864   -0.8907    1.2773 H   0  0  0  0  0  0  0  0  0  0  0  0
   -4.9995   -2.8474    0.5617 H   0  0  0  0  0  0  0  0  0  0  0  0
   -5.4153   -1.7882   -0.8055 H   0  0  0  0  0  0  0  0  0  0  0  0
   -2.7696   -2.5592    0.2029 H   0  0  0  0  0  0  0  0  0  0  0  0
   -4.0418   -2.8946   -1.9808 H   0  0  0  0  0  0  0  0  0  0  0  0
   -3.1124   -1.7070   -3.7313 H   0  0  0  0  0  0  0  0  0  0  0  0
   -4.2422   -0.7100   -2.8055 H   0  0  0  0  0  0  0  0  0  0  0  0
   -1.2619   -0.5051   -3.2655 H   0  0  0  0  0  0  0  0  0  0  0  0
   -2.3759    0.7898   -2.8305 H   0  0  0  0  0  0  0  0  0  0  0  0
   -1.0365   -1.3772   -1.1442 H   0  0  0  0  0  0  0  0  0  0  0  0
   -2.1353   -0.5219    0.8322 H   0  0  0  0  0  0  0  0  0  0  0  0
   -3.1970    1.4349    0.6068 H   0  0  0  0  0  0  0  0  0  0  0  0
   -3.3712    1.3377   -1.1430 H   0  0  0  0  0  0  0  0  0  0  0  0
   -5.4529    0.1810   -0.9312 H   0  0  0  0  0  0  0  0  0  0  0  0
   -6.8229    1.4851    0.4859 H   0  0  0  0  0  0  0  0  0  0  0  0
   -5.6047    2.3606   -1.2964 H   0  0  0  0  0  0  0  0  0  0  0  0
   -6.2158    1.9442    2.4698 H   0  0  0  0  0  0  0  0  0  0  0  0
   -5.3090    3.1852    1.8338 H   0  0  0  0  0  0  0  0  0  0  0  0
    0.5370   -1.0070   -0.7077 H   0  0  0  0  0  0  0  0  0  0  0  0
    1.9950   -0.1338   -2.1895 H   0  0  0  0  0  0  0  0  0  0  0  0
    1.3257    1.5791   -2.0559 H   0  0  0  0  0  0  0  0  0  0  0  0
    2.5564    2.0469   -0.1036 H   0  0  0  0  0  0  0  0  0  0  0  0
    3.5110   -0.8453   -0.5374 H   0  0  0  0  0  0  0  0  0  0  0  0
    2.1452   -1.4132    1.1498 H   0  0  0  0  0  0  0  0  0  0  0  0
    2.6256   -0.0287    2.1493 H   0  0  0  0  0  0  0  0  0  0  0  0
    0.2411   -0.0990    1.4874 H   0  0  0  0  0  0  0  0  0  0  0  0
    1.0160    1.4356    1.0752 H   0  0  0  0  0  0  0  0  0  0  0  0
    4.5339    0.7401    1.7199 H   0  0  0  0  0  0  0  0  0  0  0  0
    5.8805    1.4083   -0.4146 H   0  0  0  0  0  0  0  0  0  0  0  0
    5.3621   -0.8121   -1.3726 H   0  0  0  0  0  0  0  0  0  0  0  0
    6.8894   -0.4118    1.6738 H   0  0  0  0  0  0  0  0  0  0  0  0
    8.4864    1.6735    0.2574 H   0  0  0  0  0  0  0  0  0  0  0  0
    9.4527   -0.0447   -1.2541 H   0  0  0  0  0  0  0  0  0  0  0  0
    8.2959   -1.3596   -0.7048 H   0  0  0  0  0  0  0  0  0  0  0  0
    9.0884   -1.1181    1.6315 H   0  0  0  0  0  0  0  0  0  0  0  0
   10.3164    0.1552    1.0792 H   0  0  0  0  0  0  0  0  0  0  0  0
  1  2  1  0
  2  3  1  0
  3  4  1  0
  4  5  1  0
  5  6  1  0
  6  7  1  0
  7  8  1  0
  8  9  1  0
  5 10  1  0
  9 10  1  0
 10 11  1  0
  3 12  1  0
 11 12  1  0
 12 13  1  0
 13 14  1  0
 13 15  1  0
  9 16  1  0
 16 17  1  0
 17 18  1  0
 18 19  1  0
 19 20  1  0
 20 21  1  0
 17 22  1  0
 21 22  1  0
 20 23  1  0
 23 24  1  0
 24 25  1  0
 24 26  1  0
 26 27  1  0
 27 28  1  0
 27 29  1  0
 28 29  1  0
 19 30  1  0
  1 31  1  0
  1 32  1  0
  1 33  1  0
  3 34  1  0
  4 35  1  0
  4 36  1  0
  5 37  1  0
  6 38  1  0
  7 39  1  0
  7 40  1  0
  8 41  1  0
  8 42  1  0
  9 43  1  6
 10 44  1  0
 11 45  1  0
 11 46  1  0
 12 47  1  6
 13 48  1  1
 14 49  1  0
 15 50  1  0
 15 51  1  0
 17 52  1  1
 18 53  1  0
 18 54  1  0
 19 55  1  1
 20 56  1  6
 21 57  1  0
 21 58  1  0
 22 59  1  0
 22 60  1  0
 23 61  1  0
 24 62  1  0
 25 63  1  0
 26 64  1  0
 27 65  1  0
 28 66  1  0
 28 67  1  0
 29 68  1  0
 29 69  1  0
M  END
>  <PDBID>  (1) 
3WZD

>  <PDB ID>  (1) 
3WZD

>  <Generic Name>  (1) 
Lenvatinib

>  <Brand Name>  (1) 
Lenvima

>  <DrugBank ID>  (1) 
DB09078

>  <ATC Codes>  (1) 
L01XE29

>  <Ligand ID>  (1) 
LEV

>  <Target Name>  (1) 
Vascular endothelial growth factor receptor 3

>  <UniProt ID>  (1) 
P35916

>  <PDB ID.1>  (1) 
3WZD

>  <Seq. Identity>  (1) 
67%

$$$$
