PDB_DB08916_00
     RDKit          3D

158164  0  0  0  0  0  0  0  0999 V2000
   -4.0155   -2.1262   -0.8131 C   0  0  0  0  0  0  0  0  0  0  0  0
   -4.1136   -0.7197   -1.0077 N   0  0  0  0  0  0  0  0  0  0  0  0
   -3.4089   -2.5075    0.4378 N   0  0  0  0  0  0  0  0  0  0  0  0
   -3.0555    0.0609   -0.4436 C   0  0  0  0  0  0  0  0  0  0  0  0
   -2.1017   -1.9432    0.6282 C   0  0  0  0  0  0  0  0  0  0  0  0
   -1.8372   -0.7857   -0.2809 C   0  0  0  0  0  0  0  0  0  0  0  0
    0.3676   -1.0164    0.7566 C   0  0  0  0  0  0  0  0  0  0  0  0
   -0.6150   -0.0259    0.1572 C   0  0  0  0  0  0  0  0  0  0  0  0
    0.3351   -2.3300    0.0727 C   0  0  0  0  0  0  0  0  0  0  0  0
   -1.0453   -2.9850    0.3228 C   0  0  0  0  0  0  0  0  0  0  0  0
   -3.4691    0.6717    0.7798 N   0  0  0  0  0  0  0  0  0  0  0  0
   -5.2623    3.8247   -0.0467 C   0  0  0  0  0  0  0  0  0  0  0  0
   -6.3919    3.3574    0.8081 C   0  0  0  0  0  0  0  0  0  0  0  0
   -4.1800    2.7869   -0.2404 C   0  0  0  0  0  0  0  0  0  0  0  0
   -6.9219    1.9963    0.4527 C   0  0  0  0  0  0  0  0  0  0  0  0
   -4.5342    1.6064    0.6146 C   0  0  0  0  0  0  0  0  0  0  0  0
   -5.8078    1.0175    0.0980 C   0  0  0  0  0  0  0  0  0  0  0  0
   -7.4468    4.2556    0.5944 F   0  0  0  0  0  0  0  0  0  0  0  0
   -4.5424    5.2926    0.6854 Cl  0  0  0  0  0  0  0  0  0  0  0  0
    1.2219   -3.2155    0.7255 O   0  0  0  0  0  0  0  0  0  0  0  0
    2.0032   -3.9293   -0.1556 C   0  0  2  0  0  0  0  0  0  0  0  0
    1.7489   -5.4254   -0.0266 C   0  0  0  0  0  0  0  0  0  0  0  0
    3.0002   -5.9626   -0.2292 O   0  0  0  0  0  0  0  0  0  0  0  0
    3.8251   -5.2060    0.5926 C   0  0  0  0  0  0  0  0  0  0  0  0
    3.4719   -3.7875    0.1551 C   0  0  0  0  0  0  0  0  0  0  0  0
    1.6360   -0.4306    1.0226 N   0  0  0  0  0  0  0  0  0  0  0  0
    2.3386    0.1227   -0.0823 C   0  0  0  0  0  0  0  0  0  0  0  0
    3.5313    0.8951    0.4976 C   0  0  0  0  0  0  0  0  0  0  0  0
    2.8338   -0.8326   -0.9227 O   0  0  0  0  0  0  0  0  0  0  0  0
    4.3486    1.5545   -0.5872 C   0  0  0  0  0  0  0  0  0  0  0  0
    5.4835    2.2896    0.0757 C   0  0  0  0  0  0  0  0  0  0  0  0
    6.3243    2.9627   -0.8903 N   0  0  0  0  0  0  0  0  0  0  0  0
    5.5717    4.0506   -1.4841 C   0  0  0  0  0  0  0  0  0  0  0  0
    7.4913    3.5401   -0.2483 C   0  0  0  0  0  0  0  0  0  0  0  0
   -4.0155   -2.1262   -0.8131 C   0  0  0  0  0  0  0  0  0  0  0  0
   -4.1136   -0.7197   -1.0077 N   0  0  0  0  0  0  0  0  0  0  0  0
   -3.4089   -2.5075    0.4378 N   0  0  0  0  0  0  0  0  0  0  0  0
   -3.0555    0.0609   -0.4436 C   0  0  0  0  0  0  0  0  0  0  0  0
   -2.1017   -1.9432    0.6282 C   0  0  0  0  0  0  0  0  0  0  0  0
   -1.8372   -0.7857   -0.2809 C   0  0  0  0  0  0  0  0  0  0  0  0
    0.3676   -1.0164    0.7566 C   0  0  0  0  0  0  0  0  0  0  0  0
   -0.6150   -0.0259    0.1572 C   0  0  0  0  0  0  0  0  0  0  0  0
    0.3351   -2.3300    0.0727 C   0  0  0  0  0  0  0  0  0  0  0  0
   -1.0453   -2.9850    0.3228 C   0  0  0  0  0  0  0  0  0  0  0  0
   -3.4691    0.6717    0.7798 N   0  0  0  0  0  0  0  0  0  0  0  0
   -5.2623    3.8247   -0.0467 C   0  0  0  0  0  0  0  0  0  0  0  0
   -6.3919    3.3574    0.8081 C   0  0  0  0  0  0  0  0  0  0  0  0
   -4.1800    2.7869   -0.2404 C   0  0  0  0  0  0  0  0  0  0  0  0
   -6.9219    1.9963    0.4527 C   0  0  0  0  0  0  0  0  0  0  0  0
   -4.5342    1.6064    0.6146 C   0  0  0  0  0  0  0  0  0  0  0  0
   -5.8078    1.0175    0.0980 C   0  0  0  0  0  0  0  0  0  0  0  0
   -7.4468    4.2556    0.5944 F   0  0  0  0  0  0  0  0  0  0  0  0
   -4.5424    5.2926    0.6854 Cl  0  0  0  0  0  0  0  0  0  0  0  0
    1.2219   -3.2155    0.7255 O   0  0  0  0  0  0  0  0  0  0  0  0
    2.0032   -3.9293   -0.1556 C   0  0  2  0  0  0  0  0  0  0  0  0
    1.7489   -5.4254   -0.0266 C   0  0  0  0  0  0  0  0  0  0  0  0
    3.0002   -5.9626   -0.2292 O   0  0  0  0  0  0  0  0  0  0  0  0
    3.8251   -5.2060    0.5926 C   0  0  0  0  0  0  0  0  0  0  0  0
    3.4719   -3.7875    0.1551 C   0  0  0  0  0  0  0  0  0  0  0  0
    1.6360   -0.4306    1.0226 N   0  0  0  0  0  0  0  0  0  0  0  0
    2.3386    0.1227   -0.0823 C   0  0  0  0  0  0  0  0  0  0  0  0
    3.5313    0.8951    0.4976 C   0  0  0  0  0  0  0  0  0  0  0  0
    2.8338   -0.8326   -0.9227 O   0  0  0  0  0  0  0  0  0  0  0  0
    4.3486    1.5545   -0.5872 C   0  0  0  0  0  0  0  0  0  0  0  0
    5.4835    2.2896    0.0757 C   0  0  0  0  0  0  0  0  0  0  0  0
    6.3243    2.9627   -0.8903 N   0  0  0  0  0  0  0  0  0  0  0  0
    5.5717    4.0506   -1.4841 C   0  0  0  0  0  0  0  0  0  0  0  0
    7.4913    3.5401   -0.2483 C   0  0  0  0  0  0  0  0  0  0  0  0
   -3.5223   -2.6646   -1.6518 H   0  0  0  0  0  0  0  0  0  0  0  0
   -5.0669   -2.5364   -0.7836 H   0  0  0  0  0  0  0  0  0  0  0  0
   -4.2180   -0.5579   -2.0502 H   0  0  0  0  0  0  0  0  0  0  0  0
   -4.0427   -2.3644    1.2542 H   0  0  0  0  0  0  0  0  0  0  0  0
   -2.8106    0.8604   -1.2011 H   0  0  0  0  0  0  0  0  0  0  0  0
   -2.0579   -1.6346    1.7158 H   0  0  0  0  0  0  0  0  0  0  0  0
   -1.6076   -1.2125   -1.3010 H   0  0  0  0  0  0  0  0  0  0  0  0
   -0.0760   -1.2147    1.7986 H   0  0  0  0  0  0  0  0  0  0  0  0
   -0.2198    0.4709   -0.7563 H   0  0  0  0  0  0  0  0  0  0  0  0
   -0.7830    0.7552    0.8945 H   0  0  0  0  0  0  0  0  0  0  0  0
    0.4774   -2.3373   -1.0099 H   0  0  0  0  0  0  0  0  0  0  0  0
   -1.3798   -3.4847   -0.6296 H   0  0  0  0  0  0  0  0  0  0  0  0
   -0.9996   -3.7705    1.0748 H   0  0  0  0  0  0  0  0  0  0  0  0
   -2.7232    1.1346    1.3237 H   0  0  0  0  0  0  0  0  0  0  0  0
   -5.7066    4.1576   -1.0256 H   0  0  0  0  0  0  0  0  0  0  0  0
   -6.1814    3.4390    1.9110 H   0  0  0  0  0  0  0  0  0  0  0  0
   -4.2393    2.4693   -1.3048 H   0  0  0  0  0  0  0  0  0  0  0  0
   -3.1790    3.1729    0.0473 H   0  0  0  0  0  0  0  0  0  0  0  0
   -7.6531    2.1045   -0.3699 H   0  0  0  0  0  0  0  0  0  0  0  0
   -7.5258    1.6305    1.3298 H   0  0  0  0  0  0  0  0  0  0  0  0
   -4.7424    2.0285    1.6451 H   0  0  0  0  0  0  0  0  0  0  0  0
   -5.7379    1.0258   -1.0162 H   0  0  0  0  0  0  0  0  0  0  0  0
   -6.0138    0.0114    0.4935 H   0  0  0  0  0  0  0  0  0  0  0  0
    1.7335   -3.6034   -1.1804 H   0  0  0  0  0  0  0  0  0  0  0  0
    1.4367   -5.6829    1.0098 H   0  0  0  0  0  0  0  0  0  0  0  0
    1.0423   -5.7520   -0.7876 H   0  0  0  0  0  0  0  0  0  0  0  0
    3.5862   -5.3660    1.6765 H   0  0  0  0  0  0  0  0  0  0  0  0
    4.8945   -5.4233    0.3785 H   0  0  0  0  0  0  0  0  0  0  0  0
    4.0269   -3.5629   -0.7685 H   0  0  0  0  0  0  0  0  0  0  0  0
    3.6769   -3.0595    0.9697 H   0  0  0  0  0  0  0  0  0  0  0  0
    1.5909    0.1631    1.8661 H   0  0  0  0  0  0  0  0  0  0  0  0
    1.7559    0.8760   -0.6544 H   0  0  0  0  0  0  0  0  0  0  0  0
    3.2103    1.6166    1.2695 H   0  0  0  0  0  0  0  0  0  0  0  0
    4.2347    0.1843    1.0228 H   0  0  0  0  0  0  0  0  0  0  0  0
    2.7131   -0.6350   -1.8870 H   0  0  0  0  0  0  0  0  0  0  0  0
    4.7569    0.7862   -1.2566 H   0  0  0  0  0  0  0  0  0  0  0  0
    3.7339    2.2190   -1.2296 H   0  0  0  0  0  0  0  0  0  0  0  0
    6.1160    1.5152    0.5928 H   0  0  0  0  0  0  0  0  0  0  0  0
    5.1385    2.9744    0.8854 H   0  0  0  0  0  0  0  0  0  0  0  0
    5.1920    4.6832   -0.6619 H   0  0  0  0  0  0  0  0  0  0  0  0
    4.7827    3.6935   -2.1664 H   0  0  0  0  0  0  0  0  0  0  0  0
    6.3360    4.6722   -2.0292 H   0  0  0  0  0  0  0  0  0  0  0  0
    7.9352    4.2963   -0.8984 H   0  0  0  0  0  0  0  0  0  0  0  0
    8.2222    2.7662    0.0645 H   0  0  0  0  0  0  0  0  0  0  0  0
    7.1100    4.1000    0.6557 H   0  0  0  0  0  0  0  0  0  0  0  0
   -3.5223   -2.6646   -1.6518 H   0  0  0  0  0  0  0  0  0  0  0  0
   -5.0669   -2.5364   -0.7836 H   0  0  0  0  0  0  0  0  0  0  0  0
   -4.2180   -0.5579   -2.0502 H   0  0  0  0  0  0  0  0  0  0  0  0
   -4.0427   -2.3644    1.2542 H   0  0  0  0  0  0  0  0  0  0  0  0
   -2.8106    0.8604   -1.2011 H   0  0  0  0  0  0  0  0  0  0  0  0
   -2.0579   -1.6346    1.7158 H   0  0  0  0  0  0  0  0  0  0  0  0
   -1.6076   -1.2125   -1.3010 H   0  0  0  0  0  0  0  0  0  0  0  0
   -0.0760   -1.2147    1.7986 H   0  0  0  0  0  0  0  0  0  0  0  0
   -0.2198    0.4709   -0.7563 H   0  0  0  0  0  0  0  0  0  0  0  0
   -0.7830    0.7552    0.8945 H   0  0  0  0  0  0  0  0  0  0  0  0
    0.4774   -2.3373   -1.0099 H   0  0  0  0  0  0  0  0  0  0  0  0
   -1.3798   -3.4847   -0.6296 H   0  0  0  0  0  0  0  0  0  0  0  0
   -0.9996   -3.7705    1.0748 H   0  0  0  0  0  0  0  0  0  0  0  0
   -2.7232    1.1346    1.3237 H   0  0  0  0  0  0  0  0  0  0  0  0
   -5.7066    4.1576   -1.0256 H   0  0  0  0  0  0  0  0  0  0  0  0
   -6.1814    3.4390    1.9110 H   0  0  0  0  0  0  0  0  0  0  0  0
   -4.2393    2.4693   -1.3048 H   0  0  0  0  0  0  0  0  0  0  0  0
   -3.1790    3.1729    0.0473 H   0  0  0  0  0  0  0  0  0  0  0  0
   -7.6531    2.1045   -0.3699 H   0  0  0  0  0  0  0  0  0  0  0  0
   -7.5258    1.6305    1.3298 H   0  0  0  0  0  0  0  0  0  0  0  0
   -4.7424    2.0285    1.6451 H   0  0  0  0  0  0  0  0  0  0  0  0
   -5.7379    1.0258   -1.0162 H   0  0  0  0  0  0  0  0  0  0  0  0
   -6.0138    0.0114    0.4935 H   0  0  0  0  0  0  0  0  0  0  0  0
    1.7335   -3.6034   -1.1804 H   0  0  0  0  0  0  0  0  0  0  0  0
    1.4367   -5.6829    1.0098 H   0  0  0  0  0  0  0  0  0  0  0  0
    1.0423   -5.7520   -0.7876 H   0  0  0  0  0  0  0  0  0  0  0  0
    3.5862   -5.3660    1.6765 H   0  0  0  0  0  0  0  0  0  0  0  0
    4.8945   -5.4233    0.3785 H   0  0  0  0  0  0  0  0  0  0  0  0
    4.0269   -3.5629   -0.7685 H   0  0  0  0  0  0  0  0  0  0  0  0
    3.6769   -3.0595    0.9697 H   0  0  0  0  0  0  0  0  0  0  0  0
    1.5909    0.1631    1.8661 H   0  0  0  0  0  0  0  0  0  0  0  0
    1.7559    0.8760   -0.6544 H   0  0  0  0  0  0  0  0  0  0  0  0
    3.2103    1.6166    1.2695 H   0  0  0  0  0  0  0  0  0  0  0  0
    4.2347    0.1843    1.0228 H   0  0  0  0  0  0  0  0  0  0  0  0
    2.7131   -0.6350   -1.8870 H   0  0  0  0  0  0  0  0  0  0  0  0
    4.7569    0.7862   -1.2566 H   0  0  0  0  0  0  0  0  0  0  0  0
    3.7339    2.2190   -1.2296 H   0  0  0  0  0  0  0  0  0  0  0  0
    6.1160    1.5152    0.5928 H   0  0  0  0  0  0  0  0  0  0  0  0
    5.1385    2.9744    0.8854 H   0  0  0  0  0  0  0  0  0  0  0  0
    5.1920    4.6832   -0.6619 H   0  0  0  0  0  0  0  0  0  0  0  0
    4.7827    3.6935   -2.1664 H   0  0  0  0  0  0  0  0  0  0  0  0
    6.3360    4.6722   -2.0292 H   0  0  0  0  0  0  0  0  0  0  0  0
    7.9352    4.2963   -0.8984 H   0  0  0  0  0  0  0  0  0  0  0  0
    8.2222    2.7662    0.0645 H   0  0  0  0  0  0  0  0  0  0  0  0
    7.1100    4.1000    0.6557 H   0  0  0  0  0  0  0  0  0  0  0  0
  1  2  1  0
  1  3  1  0
  2  4  1  0
  3  5  1  0
  4  6  1  0
  5  6  1  0
  6  8  1  0
  7  8  1  0
  7  9  1  0
  5 10  1  0
  9 10  1  0
  4 11  1  0
 12 13  1  0
 12 14  1  0
 13 15  1  0
 11 16  1  0
 14 16  1  0
 15 17  1  0
 16 17  1  0
 13 18  1  0
 12 19  1  0
  9 20  1  0
 20 21  1  0
 21 22  1  0
 22 23  1  0
 23 24  1  0
 21 25  1  0
 24 25  1  0
  7 26  1  0
 26 27  1  0
 27 28  1  0
 27 29  1  0
 28 30  1  0
 30 31  1  0
 31 32  1  0
 32 33  1  0
 32 34  1  0
 35 36  1  0
 35 37  1  0
 36 38  1  0
 37 39  1  0
 38 40  1  0
 39 40  1  0
 40 42  1  0
 41 42  1  0
 41 43  1  0
 39 44  1  0
 43 44  1  0
 38 45  1  0
 46 47  1  0
 46 48  1  0
 47 49  1  0
 45 50  1  0
 48 50  1  0
 49 51  1  0
 50 51  1  0
 47 52  1  0
 46 53  1  0
 43 54  1  0
 54 55  1  0
 55 56  1  0
 56 57  1  0
 57 58  1  0
 55 59  1  0
 58 59  1  0
 41 60  1  0
 60 61  1  0
 61 62  1  0
 61 63  1  0
 62 64  1  0
 64 65  1  0
 65 66  1  0
 66 67  1  0
 66 68  1  0
  1 69  1  0
  1 70  1  0
  2 71  1  0
  3 72  1  0
  4 73  1  0
  5 74  1  0
  6 75  1  0
  7 76  1  0
  8 77  1  0
  8 78  1  0
  9 79  1  0
 10 80  1  0
 10 81  1  0
 11 82  1  0
 12 83  1  0
 13 84  1  0
 14 85  1  0
 14 86  1  0
 15 87  1  0
 15 88  1  0
 16 89  1  0
 17 90  1  0
 17 91  1  0
 21 92  1  6
 22 93  1  0
 22 94  1  0
 24 95  1  0
 24 96  1  0
 25 97  1  0
 25 98  1  0
 26 99  1  0
 27100  1  0
 28101  1  0
 28102  1  0
 29103  1  0
 30104  1  0
 30105  1  0
 31106  1  0
 31107  1  0
 33108  1  0
 33109  1  0
 33110  1  0
 34111  1  0
 34112  1  0
 34113  1  0
 35114  1  0
 35115  1  0
 36116  1  0
 37117  1  0
 38118  1  0
 39119  1  0
 40120  1  0
 41121  1  0
 42122  1  0
 42123  1  0
 43124  1  0
 44125  1  0
 44126  1  0
 45127  1  0
 46128  1  0
 47129  1  0
 48130  1  0
 48131  1  0
 49132  1  0
 49133  1  0
 50134  1  0
 51135  1  0
 51136  1  0
 55137  1  6
 56138  1  0
 56139  1  0
 58140  1  0
 58141  1  0
 59142  1  0
 59143  1  0
 60144  1  0
 61145  1  0
 62146  1  0
 62147  1  0
 63148  1  0
 64149  1  0
 64150  1  0
 65151  1  0
 65152  1  0
 67153  1  0
 67154  1  0
 67155  1  0
 68156  1  0
 68157  1  0
 68158  1  0
M  END
>  <PDBID>  (1) 
4G5J

>  <PDB ID>  (1) 
4G5J

>  <Generic Name>  (1) 
Afatinib

>  <Brand Name>  (1) 
Gilotrif#Giotrif

>  <DrugBank ID>  (1) 
DB08916

>  <ATC Codes>  (1) 
L01XE13

>  <Ligand ID>  (1) 
0WM

>  <Target Name>  (1) 
Receptor tyrosine-protein kinase erbB-2

>  <UniProt ID>  (1) 
P04626

>  <PDB ID.1>  (1) 
4G5J

>  <Seq. Identity>  (1) 
78%

$$$$
