PDB_DB00421_08
     RDKit          3D

138146  0  0  0  0  0  0  0  0999 V2000
    3.4954    0.7843    0.4080 C   0  0  0  0  0  0  0  0  0  0  0  0
    1.3768   -2.0167    0.8109 C   0  0  0  0  0  0  0  0  0  0  0  0
    1.9782   -0.9514   -0.0505 C   0  0  1  0  0  0  0  0  0  0  0  0
   -2.1993   -1.0430   -0.1065 C   0  0  1  0  0  0  0  0  0  0  0  0
    1.2169    0.3267    0.2893 C   0  0  1  0  0  0  0  0  0  0  0  0
   -2.9303   -2.1976    0.5714 C   0  0  0  0  0  0  0  0  0  0  0  0
   -0.0994   -2.1231    0.6065 C   0  0  0  0  0  0  0  0  0  0  0  0
    2.1658    1.3789   -0.0644 C   0  0  0  0  0  0  0  0  0  0  0  0
    3.4216   -0.6880    0.1810 C   0  0  2  0  0  0  0  0  0  0  0  0
    1.8154   -1.3721   -1.4818 C   0  0  0  0  0  0  0  0  0  0  0  0
   -2.1746   -1.3874   -1.5646 C   0  0  0  0  0  0  0  0  0  0  0  0
   -4.3840   -1.8759    0.8279 C   0  0  0  0  0  0  0  0  0  0  0  0
    4.0615   -1.5230    1.2419 C   0  0  0  0  0  0  0  0  0  0  0  0
    5.4959   -1.6937    0.7571 C   0  0  0  0  0  0  0  0  0  0  0  0
    5.5168   -0.9385   -0.5441 C   0  0  0  0  0  0  0  0  0  0  0  0
   -1.2226    4.2618    0.3860 C   0  0  0  0  0  0  0  0  0  0  0  0
   -0.8260    5.5896   -0.2509 C   0  0  0  0  0  0  0  0  0  0  0  0
   -5.0219   -1.0464   -0.2409 C   0  0  0  0  0  0  0  0  0  0  0  0
   -4.2487    0.1948   -0.5959 C   0  0  0  0  0  0  0  0  0  0  0  0
   -2.9924    0.1872    0.2257 C   0  0  2  0  0  0  0  0  0  0  0  0
   -2.2220    1.4577    0.2012 C   0  0  0  0  0  0  0  0  0  0  0  0
   -0.9255    1.4169   -0.5611 C   0  0  2  0  0  0  0  0  0  0  0  0
   -0.0973    0.2154   -0.3399 C   0  0  2  0  0  0  0  0  0  0  0  0
   -0.8342   -0.8359    0.4904 C   0  0  1  0  0  0  0  0  0  0  0  0
    6.3042   -1.5552   -1.5134 O   0  0  0  0  0  0  0  0  0  0  0  0
    4.1998   -0.9591   -0.9567 O   0  0  0  0  0  0  0  0  0  0  0  0
   -0.9915    4.4112    1.7576 O   0  0  0  0  0  0  0  0  0  0  0  0
   -6.2581   -0.6135    0.2665 O   0  0  0  0  0  0  0  0  0  0  0  0
   -0.1180    2.9966   -0.2351 S   0  0  0  0  0  0  0  0  0  0  0  0
    3.4954    0.7843    0.4080 C   0  0  0  0  0  0  0  0  0  0  0  0
    1.3768   -2.0167    0.8109 C   0  0  0  0  0  0  0  0  0  0  0  0
    1.9782   -0.9514   -0.0505 C   0  0  1  0  0  0  0  0  0  0  0  0
   -2.1993   -1.0430   -0.1065 C   0  0  1  0  0  0  0  0  0  0  0  0
    1.2169    0.3267    0.2893 C   0  0  1  0  0  0  0  0  0  0  0  0
   -2.9303   -2.1976    0.5714 C   0  0  0  0  0  0  0  0  0  0  0  0
   -0.0994   -2.1231    0.6065 C   0  0  0  0  0  0  0  0  0  0  0  0
    2.1658    1.3789   -0.0644 C   0  0  0  0  0  0  0  0  0  0  0  0
    3.4216   -0.6880    0.1810 C   0  0  2  0  0  0  0  0  0  0  0  0
    1.8154   -1.3721   -1.4818 C   0  0  0  0  0  0  0  0  0  0  0  0
   -2.1746   -1.3874   -1.5646 C   0  0  0  0  0  0  0  0  0  0  0  0
   -4.3840   -1.8759    0.8279 C   0  0  0  0  0  0  0  0  0  0  0  0
    4.0615   -1.5230    1.2419 C   0  0  0  0  0  0  0  0  0  0  0  0
    5.4959   -1.6937    0.7571 C   0  0  0  0  0  0  0  0  0  0  0  0
    5.5168   -0.9385   -0.5441 C   0  0  0  0  0  0  0  0  0  0  0  0
   -1.2226    4.2618    0.3860 C   0  0  0  0  0  0  0  0  0  0  0  0
   -0.8260    5.5896   -0.2509 C   0  0  0  0  0  0  0  0  0  0  0  0
   -5.0219   -1.0464   -0.2409 C   0  0  0  0  0  0  0  0  0  0  0  0
   -4.2487    0.1948   -0.5959 C   0  0  0  0  0  0  0  0  0  0  0  0
   -2.9924    0.1872    0.2257 C   0  0  2  0  0  0  0  0  0  0  0  0
   -2.2220    1.4577    0.2012 C   0  0  0  0  0  0  0  0  0  0  0  0
   -0.9255    1.4169   -0.5611 C   0  0  2  0  0  0  0  0  0  0  0  0
   -0.0973    0.2154   -0.3399 C   0  0  2  0  0  0  0  0  0  0  0  0
   -0.8342   -0.8359    0.4904 C   0  0  1  0  0  0  0  0  0  0  0  0
    6.3042   -1.5552   -1.5134 O   0  0  0  0  0  0  0  0  0  0  0  0
    4.1998   -0.9591   -0.9567 O   0  0  0  0  0  0  0  0  0  0  0  0
   -0.9915    4.4112    1.7576 O   0  0  0  0  0  0  0  0  0  0  0  0
   -6.2581   -0.6135    0.2665 O   0  0  0  0  0  0  0  0  0  0  0  0
   -0.1180    2.9966   -0.2351 S   0  0  0  0  0  0  0  0  0  0  0  0
    3.6383    0.9417    1.5069 H   0  0  0  0  0  0  0  0  0  0  0  0
    4.3245    1.2944   -0.1002 H   0  0  0  0  0  0  0  0  0  0  0  0
    1.8163   -2.9913    0.4775 H   0  0  0  0  0  0  0  0  0  0  0  0
    1.6887   -1.8499    1.8525 H   0  0  0  0  0  0  0  0  0  0  0  0
    1.0946    0.3112    1.4020 H   0  0  0  0  0  0  0  0  0  0  0  0
   -2.8550   -3.1336   -0.0379 H   0  0  0  0  0  0  0  0  0  0  0  0
   -2.5016   -2.4128    1.5830 H   0  0  0  0  0  0  0  0  0  0  0  0
   -0.3218   -2.8173   -0.2429 H   0  0  0  0  0  0  0  0  0  0  0  0
   -0.4923   -2.6567    1.5105 H   0  0  0  0  0  0  0  0  0  0  0  0
    2.1254    2.3091    0.5604 H   0  0  0  0  0  0  0  0  0  0  0  0
    2.2455    1.6180   -1.1337 H   0  0  0  0  0  0  0  0  0  0  0  0
    2.7104   -2.0068   -1.7151 H   0  0  0  0  0  0  0  0  0  0  0  0
    0.9540   -2.0684   -1.6417 H   0  0  0  0  0  0  0  0  0  0  0  0
    1.8521   -0.5476   -2.2064 H   0  0  0  0  0  0  0  0  0  0  0  0
   -2.9812   -2.1113   -1.8439 H   0  0  0  0  0  0  0  0  0  0  0  0
   -2.2738   -0.5401   -2.2488 H   0  0  0  0  0  0  0  0  0  0  0  0
   -1.2219   -1.9023   -1.8261 H   0  0  0  0  0  0  0  0  0  0  0  0
   -4.9176   -2.8610    0.8327 H   0  0  0  0  0  0  0  0  0  0  0  0
   -4.5454   -1.4698    1.8587 H   0  0  0  0  0  0  0  0  0  0  0  0
    4.0275   -1.0913    2.2517 H   0  0  0  0  0  0  0  0  0  0  0  0
    3.6265   -2.5317    1.2882 H   0  0  0  0  0  0  0  0  0  0  0  0
    6.1772   -1.2620    1.5070 H   0  0  0  0  0  0  0  0  0  0  0  0
    5.7309   -2.7534    0.5178 H   0  0  0  0  0  0  0  0  0  0  0  0
    5.9275    0.0652   -0.3694 H   0  0  0  0  0  0  0  0  0  0  0  0
   -2.2818    4.1157    0.1445 H   0  0  0  0  0  0  0  0  0  0  0  0
   -0.0576    6.0924    0.3568 H   0  0  0  0  0  0  0  0  0  0  0  0
   -1.7288    6.2418   -0.3643 H   0  0  0  0  0  0  0  0  0  0  0  0
   -0.4731    5.4084   -1.2961 H   0  0  0  0  0  0  0  0  0  0  0  0
   -5.2449   -1.6940   -1.0992 H   0  0  0  0  0  0  0  0  0  0  0  0
   -4.0862    0.1838   -1.6809 H   0  0  0  0  0  0  0  0  0  0  0  0
   -4.7979    1.1338   -0.3679 H   0  0  0  0  0  0  0  0  0  0  0  0
   -3.3320    0.0625    1.2880 H   0  0  0  0  0  0  0  0  0  0  0  0
   -2.8826    2.2230   -0.2805 H   0  0  0  0  0  0  0  0  0  0  0  0
   -1.9797    1.8636    1.2158 H   0  0  0  0  0  0  0  0  0  0  0  0
   -1.2333    1.5124   -1.6372 H   0  0  0  0  0  0  0  0  0  0  0  0
    0.0378   -0.2878   -1.3329 H   0  0  0  0  0  0  0  0  0  0  0  0
   -0.9619   -0.4024    1.4979 H   0  0  0  0  0  0  0  0  0  0  0  0
    6.6959   -0.8762   -2.1311 H   0  0  0  0  0  0  0  0  0  0  0  0
   -0.1165    4.8546    1.8497 H   0  0  0  0  0  0  0  0  0  0  0  0
   -6.8887   -0.3645   -0.4610 H   0  0  0  0  0  0  0  0  0  0  0  0
    3.6383    0.9417    1.5069 H   0  0  0  0  0  0  0  0  0  0  0  0
    4.3245    1.2944   -0.1002 H   0  0  0  0  0  0  0  0  0  0  0  0
    1.8163   -2.9913    0.4775 H   0  0  0  0  0  0  0  0  0  0  0  0
    1.6887   -1.8499    1.8525 H   0  0  0  0  0  0  0  0  0  0  0  0
    1.0946    0.3112    1.4020 H   0  0  0  0  0  0  0  0  0  0  0  0
   -2.8550   -3.1336   -0.0379 H   0  0  0  0  0  0  0  0  0  0  0  0
   -2.5016   -2.4128    1.5830 H   0  0  0  0  0  0  0  0  0  0  0  0
   -0.3218   -2.8173   -0.2429 H   0  0  0  0  0  0  0  0  0  0  0  0
   -0.4923   -2.6567    1.5105 H   0  0  0  0  0  0  0  0  0  0  0  0
    2.1254    2.3091    0.5604 H   0  0  0  0  0  0  0  0  0  0  0  0
    2.2455    1.6180   -1.1337 H   0  0  0  0  0  0  0  0  0  0  0  0
    2.7104   -2.0068   -1.7151 H   0  0  0  0  0  0  0  0  0  0  0  0
    0.9540   -2.0684   -1.6417 H   0  0  0  0  0  0  0  0  0  0  0  0
    1.8521   -0.5476   -2.2064 H   0  0  0  0  0  0  0  0  0  0  0  0
   -2.9812   -2.1113   -1.8439 H   0  0  0  0  0  0  0  0  0  0  0  0
   -2.2738   -0.5401   -2.2488 H   0  0  0  0  0  0  0  0  0  0  0  0
   -1.2219   -1.9023   -1.8261 H   0  0  0  0  0  0  0  0  0  0  0  0
   -4.9176   -2.8610    0.8327 H   0  0  0  0  0  0  0  0  0  0  0  0
   -4.5454   -1.4698    1.8587 H   0  0  0  0  0  0  0  0  0  0  0  0
    4.0275   -1.0913    2.2517 H   0  0  0  0  0  0  0  0  0  0  0  0
    3.6265   -2.5317    1.2882 H   0  0  0  0  0  0  0  0  0  0  0  0
    6.1772   -1.2620    1.5070 H   0  0  0  0  0  0  0  0  0  0  0  0
    5.7309   -2.7534    0.5178 H   0  0  0  0  0  0  0  0  0  0  0  0
    5.9275    0.0652   -0.3694 H   0  0  0  0  0  0  0  0  0  0  0  0
   -2.2818    4.1157    0.1445 H   0  0  0  0  0  0  0  0  0  0  0  0
   -0.0576    6.0924    0.3568 H   0  0  0  0  0  0  0  0  0  0  0  0
   -1.7288    6.2418   -0.3643 H   0  0  0  0  0  0  0  0  0  0  0  0
   -0.4731    5.4084   -1.2961 H   0  0  0  0  0  0  0  0  0  0  0  0
   -5.2449   -1.6940   -1.0992 H   0  0  0  0  0  0  0  0  0  0  0  0
   -4.0862    0.1838   -1.6809 H   0  0  0  0  0  0  0  0  0  0  0  0
   -4.7979    1.1338   -0.3679 H   0  0  0  0  0  0  0  0  0  0  0  0
   -3.3320    0.0625    1.2880 H   0  0  0  0  0  0  0  0  0  0  0  0
   -2.8826    2.2230   -0.2805 H   0  0  0  0  0  0  0  0  0  0  0  0
   -1.9797    1.8636    1.2158 H   0  0  0  0  0  0  0  0  0  0  0  0
   -1.2333    1.5124   -1.6372 H   0  0  0  0  0  0  0  0  0  0  0  0
    0.0378   -0.2878   -1.3329 H   0  0  0  0  0  0  0  0  0  0  0  0
   -0.9619   -0.4024    1.4979 H   0  0  0  0  0  0  0  0  0  0  0  0
    6.6959   -0.8762   -2.1311 H   0  0  0  0  0  0  0  0  0  0  0  0
   -0.1165    4.8546    1.8497 H   0  0  0  0  0  0  0  0  0  0  0  0
   -6.8887   -0.3645   -0.4610 H   0  0  0  0  0  0  0  0  0  0  0  0
  2  3  1  0
  3  5  1  0
  4  6  1  0
  2  7  1  0
  1  8  1  0
  5  8  1  0
  1  9  1  0
  3  9  1  0
  3 10  1  6
  4 11  1  6
  6 12  1  0
  9 13  1  0
 13 14  1  0
 14 15  1  0
 16 17  1  0
 12 18  1  0
 18 19  1  0
  4 20  1  0
 19 20  1  0
 20 21  1  0
 21 22  1  0
  5 23  1  0
 22 23  1  0
  4 24  1  0
  7 24  1  0
 23 24  1  0
 15 25  1  0
  9 26  1  6
 15 26  1  0
 16 27  1  0
 18 28  1  0
 16 29  1  0
 22 29  1  0
 31 32  1  0
 32 34  1  0
 33 35  1  0
 31 36  1  0
 30 37  1  0
 34 37  1  0
 30 38  1  0
 32 38  1  0
 32 39  1  6
 33 40  1  6
 35 41  1  0
 38 42  1  0
 42 43  1  0
 43 44  1  0
 45 46  1  0
 41 47  1  0
 47 48  1  0
 33 49  1  0
 48 49  1  0
 49 50  1  0
 50 51  1  0
 34 52  1  0
 51 52  1  0
 33 53  1  0
 36 53  1  0
 52 53  1  0
 44 54  1  0
 38 55  1  6
 44 55  1  0
 45 56  1  0
 47 57  1  0
 45 58  1  0
 51 58  1  0
  1 59  1  0
  1 60  1  0
  2 61  1  0
  2 62  1  0
  5 63  1  1
  6 64  1  0
  6 65  1  0
  7 66  1  0
  7 67  1  0
  8 68  1  0
  8 69  1  0
 10 70  1  0
 10 71  1  0
 10 72  1  0
 11 73  1  0
 11 74  1  0
 11 75  1  0
 12 76  1  0
 12 77  1  0
 13 78  1  0
 13 79  1  0
 14 80  1  0
 14 81  1  0
 15 82  1  0
 16 83  1  0
 17 84  1  0
 17 85  1  0
 17 86  1  0
 18 87  1  0
 19 88  1  0
 19 89  1  0
 20 90  1  1
 21 91  1  0
 21 92  1  0
 22 93  1  6
 23 94  1  6
 24 95  1  1
 25 96  1  0
 27 97  1  0
 28 98  1  0
 30 99  1  0
 30100  1  0
 31101  1  0
 31102  1  0
 34103  1  1
 35104  1  0
 35105  1  0
 36106  1  0
 36107  1  0
 37108  1  0
 37109  1  0
 39110  1  0
 39111  1  0
 39112  1  0
 40113  1  0
 40114  1  0
 40115  1  0
 41116  1  0
 41117  1  0
 42118  1  0
 42119  1  0
 43120  1  0
 43121  1  0
 44122  1  0
 45123  1  0
 46124  1  0
 46125  1  0
 46126  1  0
 47127  1  0
 48128  1  0
 48129  1  0
 49130  1  1
 50131  1  0
 50132  1  0
 51133  1  6
 52134  1  6
 53135  1  1
 54136  1  0
 56137  1  0
 57138  1  0
M  END
>  <PDBID>  (1) 
2AB2

>  <PDB ID>  (1) 
2AB2

>  <Generic Name>  (1) 
Spironolactone

>  <Brand Name>  (1) 
Aldactazide#Aldactazide 25#Aldactazide 50#Aldactone#Aldactone 100 mg#Aldactone 25 mg#Apo-spirozide Tab#Ntp-spironolactone#Spironolactone#Spironolactone and Hydrochlorothiazide#Teva-spironolactone#Teva-spironolactone/hctz#Osyrol#Spiresis#Spiretic#Spiroctan#Uractone#Verospiron#Xenalon

>  <DrugBank ID>  (1) 
DB00421

>  <ATC Codes>  (1) 
C03DA01

>  <Ligand ID>  (1) 
SNL

>  <Target Name>  (1) 
Mineralocorticoid receptor

>  <UniProt ID>  (1) 
P08235

>  <PDB ID.1>  (1) 
2AB2

>  <Seq. Identity>  (1) 
99%

$$$$
