PDB_DB00685_04
     RDKit          3D

124132  0  0  0  0  0  0  0  0999 V2000
   -2.1325    1.7317   -0.9584 C   0  0  0  0  0  0  0  0  0  0  0  0
   -2.4268    3.1877   -0.6646 C   0  0  0  0  0  0  0  0  0  0  0  0
   -3.5821    3.2921    0.2792 C   0  0  0  0  0  0  0  0  0  0  0  0
   -4.7259    3.5599   -0.4769 F   0  0  0  0  0  0  0  0  0  0  0  0
   -3.8394    2.0724    1.0891 C   0  0  0  0  0  0  0  0  0  0  0  0
   -2.6124    1.3055    1.4672 C   0  0  0  0  0  0  0  0  0  0  0  0
   -2.0199    1.9604    2.5504 F   0  0  0  0  0  0  0  0  0  0  0  0
   -1.6265    1.1212    0.3209 C   0  0  0  0  0  0  0  0  0  0  0  0
   -1.2990   -0.2565    0.2552 N   0  0  0  0  0  0  0  0  0  0  0  0
   -0.1703   -0.6079   -0.6076 C   0  0  0  0  0  0  0  0  0  0  0  0
    1.0575   -0.0554   -0.2337 N   0  0  0  0  0  0  0  0  0  0  0  0
    2.0477   -0.8776    0.3205 C   0  0  0  0  0  0  0  0  0  0  0  0
    3.3356   -0.3415   -0.0456 N   0  0  0  0  0  0  0  0  0  0  0  0
    4.0436    0.2917    1.0237 C   0  0  0  0  0  0  0  0  0  0  0  0
    3.6716    1.7592    0.8282 C   0  0  1  0  0  0  0  0  0  0  0  0
    4.4979    2.5729   -0.0813 C   0  0  0  0  0  0  0  0  0  0  0  0
    5.8228    2.1670   -0.4599 N   0  0  0  0  0  0  0  0  0  0  0  0
    3.2903    1.9422   -0.6096 C   0  0  1  0  0  0  0  0  0  0  0  0
    3.3281    0.5360   -1.1671 C   0  0  0  0  0  0  0  0  0  0  0  0
    2.0213   -2.3306    0.1181 C   0  0  0  0  0  0  0  0  0  0  0  0
    1.0997   -2.7563   -1.0051 C   0  0  0  0  0  0  0  0  0  0  0  0
   -0.2213   -2.0961   -0.7694 C   0  0  0  0  0  0  0  0  0  0  0  0
   -0.9036   -2.7322    0.4428 C   0  0  0  0  0  0  0  0  0  0  0  0
   -2.3735   -2.3658    0.3339 C   0  0  0  0  0  0  0  0  0  0  0  0
   -2.4545   -1.0182   -0.2935 C   0  0  0  0  0  0  0  0  0  0  0  0
   -3.2040   -3.4396   -0.2915 C   0  0  0  0  0  0  0  0  0  0  0  0
   -2.6870   -3.6971   -1.5780 O   0  0  0  0  0  0  0  0  0  0  0  0
   -3.1504   -4.6212    0.4291 O   0  0  0  0  0  0  0  0  0  0  0  0
   -0.4309   -2.1625    1.6266 O   0  0  0  0  0  0  0  0  0  0  0  0
    3.2821   -2.8540   -0.2048 F   0  0  0  0  0  0  0  0  0  0  0  0
   -1.2666    1.7408   -1.6750 H   0  0  0  0  0  0  0  0  0  0  0  0
   -2.5965    3.7757   -1.5872 H   0  0  0  0  0  0  0  0  0  0  0  0
   -4.6411    1.4720    0.6148 H   0  0  0  0  0  0  0  0  0  0  0  0
    5.1258    0.1067    0.9229 H   0  0  0  0  0  0  0  0  0  0  0  0
    3.7014   -0.0522    2.0220 H   0  0  0  0  0  0  0  0  0  0  0  0
    2.9446    2.2223    1.5271 H   0  0  0  0  0  0  0  0  0  0  0  0
    4.4161    3.6885    0.0687 H   0  0  0  0  0  0  0  0  0  0  0  0
    5.9227    1.1577   -0.6156 H   0  0  0  0  0  0  0  0  0  0  0  0
    6.5189    2.4722    0.2709 H   0  0  0  0  0  0  0  0  0  0  0  0
    2.4186    2.5316   -0.8996 H   0  0  0  0  0  0  0  0  0  0  0  0
    4.3061    0.4371   -1.7004 H   0  0  0  0  0  0  0  0  0  0  0  0
    2.4935    0.3362   -1.8641 H   0  0  0  0  0  0  0  0  0  0  0  0
    0.9596   -3.8526   -0.9129 H   0  0  0  0  0  0  0  0  0  0  0  0
   -3.3757   -0.5178   -0.0144 H   0  0  0  0  0  0  0  0  0  0  0  0
   -2.2556    1.7790   -0.9409 C   0  0  0  0  0  0  0  0  0  0  0  0
   -2.5225    3.2424   -0.5591 C   0  0  0  0  0  0  0  0  0  0  0  0
   -3.6490    3.2623    0.4197 C   0  0  0  0  0  0  0  0  0  0  0  0
   -4.8343    3.4113   -0.2791 F   0  0  0  0  0  0  0  0  0  0  0  0
   -3.7820    2.0324    1.2666 C   0  0  0  0  0  0  0  0  0  0  0  0
   -2.4816    1.3475    1.5244 C   0  0  0  0  0  0  0  0  0  0  0  0
   -1.7778    2.0821    2.4926 F   0  0  0  0  0  0  0  0  0  0  0  0
   -1.6667    1.1371    0.2767 C   0  0  0  0  0  0  0  0  0  0  0  0
   -1.3303   -0.2391    0.1791 N   0  0  0  0  0  0  0  0  0  0  0  0
   -0.1455   -0.5292   -0.6481 C   0  0  0  0  0  0  0  0  0  0  0  0
    1.0302   -0.0940    0.0198 N   0  0  0  0  0  0  0  0  0  0  0  0
    2.0695   -0.9601    0.3038 C   0  0  0  0  0  0  0  0  0  0  0  0
    3.3043   -0.4043   -0.2123 N   0  0  0  0  0  0  0  0  0  0  0  0
    4.2031    0.0835    0.7825 C   0  0  0  0  0  0  0  0  0  0  0  0
    3.7290    1.5205    0.9654 C   0  0  1  0  0  0  0  0  0  0  0  0
    4.3567    2.5272    0.0735 C   0  0  0  0  0  0  0  0  0  0  0  0
    5.6300    2.1562   -0.5021 N   0  0  0  0  0  0  0  0  0  0  0  0
    3.0981    1.9300   -0.3785 C   0  0  1  0  0  0  0  0  0  0  0  0
    3.0901    0.6402   -1.1621 C   0  0  0  0  0  0  0  0  0  0  0  0
    1.9966   -2.3957   -0.0531 C   0  0  0  0  0  0  0  0  0  0  0  0
    1.1046   -2.6399   -1.2606 C   0  0  0  0  0  0  0  0  0  0  0  0
   -0.2077   -1.9910   -0.9359 C   0  0  0  0  0  0  0  0  0  0  0  0
   -0.8027   -2.6672    0.3075 C   0  0  0  0  0  0  0  0  0  0  0  0
   -2.3016   -2.4111    0.2146 C   0  0  0  0  0  0  0  0  0  0  0  0
   -2.4535   -1.0247   -0.3506 C   0  0  0  0  0  0  0  0  0  0  0  0
   -2.9673   -3.4611   -0.6216 C   0  0  0  0  0  0  0  0  0  0  0  0
   -4.3206   -3.1980   -0.7269 O   0  0  0  0  0  0  0  0  0  0  0  0
   -2.8757   -4.6593    0.1274 O   0  0  0  0  0  0  0  0  0  0  0  0
   -0.3594   -1.9503    1.4225 O   0  0  0  0  0  0  0  0  0  0  0  0
    3.2544   -2.9041   -0.3503 F   0  0  0  0  0  0  0  0  0  0  0  0
   -1.5231    1.7661   -1.7561 H   0  0  0  0  0  0  0  0  0  0  0  0
   -2.7303    3.8689   -1.4471 H   0  0  0  0  0  0  0  0  0  0  0  0
   -4.5528    1.3490    0.8347 H   0  0  0  0  0  0  0  0  0  0  0  0
    5.2594    0.0518    0.4888 H   0  0  0  0  0  0  0  0  0  0  0  0
    4.0553   -0.4684    1.7375 H   0  0  0  0  0  0  0  0  0  0  0  0
    3.1702    1.8024    1.8689 H   0  0  0  0  0  0  0  0  0  0  0  0
    4.2843    3.5922    0.3948 H   0  0  0  0  0  0  0  0  0  0  0  0
    6.0206    2.9323   -1.0770 H   0  0  0  0  0  0  0  0  0  0  0  0
    6.3339    1.9204    0.2340 H   0  0  0  0  0  0  0  0  0  0  0  0
    2.1591    2.4931   -0.3616 H   0  0  0  0  0  0  0  0  0  0  0  0
    2.1379    0.5042   -1.7156 H   0  0  0  0  0  0  0  0  0  0  0  0
    3.9341    0.6210   -1.8800 H   0  0  0  0  0  0  0  0  0  0  0  0
    0.9397   -3.7322   -1.3257 H   0  0  0  0  0  0  0  0  0  0  0  0
   -3.3749   -0.5862    0.0243 H   0  0  0  0  0  0  0  0  0  0  0  0
   -3.0248    1.2338   -1.3696 H   0  0  0  0  0  0  0  0  0  0  0  0
   -1.5370    3.6511   -0.1647 H   0  0  0  0  0  0  0  0  0  0  0  0
   -3.4545    4.1919    0.9405 H   0  0  0  0  0  0  0  0  0  0  0  0
   -4.2917    2.4127    2.0672 H   0  0  0  0  0  0  0  0  0  0  0  0
   -2.9574    0.3153    1.8883 H   0  0  0  0  0  0  0  0  0  0  0  0
   -0.7399    1.7229    0.5986 H   0  0  0  0  0  0  0  0  0  0  0  0
   -0.4403   -0.1662   -1.6174 H   0  0  0  0  0  0  0  0  0  0  0  0
    1.0384    0.8311    0.3090 H   0  0  0  0  0  0  0  0  0  0  0  0
    2.0061   -0.6981    1.4557 H   0  0  0  0  0  0  0  0  0  0  0  0
    1.7060   -2.8940    1.0126 H   0  0  0  0  0  0  0  0  0  0  0  0
    1.4918   -2.4790   -2.0138 H   0  0  0  0  0  0  0  0  0  0  0  0
   -0.8738   -2.3488   -1.6495 H   0  0  0  0  0  0  0  0  0  0  0  0
   -0.7360   -3.8096    0.4960 H   0  0  0  0  0  0  0  0  0  0  0  0
   -2.7794   -2.2494    1.3855 H   0  0  0  0  0  0  0  0  0  0  0  0
   -2.3949   -1.0101   -1.4066 H   0  0  0  0  0  0  0  0  0  0  0  0
   -4.2817   -3.1618   -0.3662 H   0  0  0  0  0  0  0  0  0  0  0  0
   -2.1174   -4.5136   -1.5569 H   0  0  0  0  0  0  0  0  0  0  0  0
   -1.1784   -1.8340    2.1961 H   0  0  0  0  0  0  0  0  0  0  0  0
   -3.2209    1.2932   -1.2255 H   0  0  0  0  0  0  0  0  0  0  0  0
   -1.6081    3.5882   -0.0379 H   0  0  0  0  0  0  0  0  0  0  0  0
   -3.5853    4.1911    1.0654 H   0  0  0  0  0  0  0  0  0  0  0  0
   -4.1799    2.3454    2.2609 H   0  0  0  0  0  0  0  0  0  0  0  0
   -2.7025    0.3775    2.0390 H   0  0  0  0  0  0  0  0  0  0  0  0
   -0.7103    1.7077    0.4556 H   0  0  0  0  0  0  0  0  0  0  0  0
   -0.3009    0.0252   -1.5875 H   0  0  0  0  0  0  0  0  0  0  0  0
    0.8927    0.5737    0.8127 H   0  0  0  0  0  0  0  0  0  0  0  0
    2.2319   -0.9523    1.4366 H   0  0  0  0  0  0  0  0  0  0  0  0
    1.5987   -3.0289    0.7639 H   0  0  0  0  0  0  0  0  0  0  0  0
    1.5145   -2.1860   -2.1748 H   0  0  0  0  0  0  0  0  0  0  0  0
   -0.8731   -2.1730   -1.8311 H   0  0  0  0  0  0  0  0  0  0  0  0
   -0.5648   -3.7323    0.3450 H   0  0  0  0  0  0  0  0  0  0  0  0
   -2.6990   -2.3801    1.2491 H   0  0  0  0  0  0  0  0  0  0  0  0
   -2.4995   -1.0007   -1.4581 H   0  0  0  0  0  0  0  0  0  0  0  0
   -2.4336   -3.5790   -1.5654 H   0  0  0  0  0  0  0  0  0  0  0  0
   -2.0241   -5.1142    0.0034 H   0  0  0  0  0  0  0  0  0  0  0  0
   -1.0818   -1.6929    2.0337 H   0  0  0  0  0  0  0  0  0  0  0  0
  1  2  1  0
  2  3  1  0
  3  4  1  0
  3  5  1  0
  5  6  1  0
  6  7  1  0
  1  8  1  0
  6  8  1  0
  8  9  1  0
  9 10  1  0
 10 11  1  0
 11 12  1  0
 12 13  1  0
 13 14  1  0
 14 15  1  0
 15 16  1  0
 16 17  1  0
 15 18  1  0
 16 18  1  0
 13 19  1  0
 18 19  1  0
 12 20  1  0
 20 21  1  0
 10 22  1  0
 21 22  1  0
 22 23  1  0
 23 24  1  0
  9 25  1  0
 24 25  1  0
 24 26  1  0
 26 27  1  0
 26 28  1  0
 23 29  1  0
 20 30  1  0
  1 31  1  0
  2 32  1  0
  5 33  1  0
 14 34  1  0
 14 35  1  0
 15 36  1  1
 16 37  1  0
 17 38  1  0
 17 39  1  0
 18 40  1  1
 19 41  1  0
 19 42  1  0
 21 43  1  0
 25 44  1  0
 45 46  1  0
 46 47  1  0
 47 48  1  0
 47 49  1  0
 49 50  1  0
 50 51  1  0
 45 52  1  0
 50 52  1  0
 52 53  1  0
 53 54  1  0
 54 55  1  0
 55 56  1  0
 56 57  1  0
 57 58  1  0
 58 59  1  0
 59 60  1  0
 60 61  1  0
 59 62  1  0
 60 62  1  0
 57 63  1  0
 62 63  1  0
 56 64  1  0
 64 65  1  0
 54 66  1  0
 65 66  1  0
 66 67  1  0
 67 68  1  0
 53 69  1  0
 68 69  1  0
 68 70  1  0
 70 71  1  0
 70 72  1  0
 67 73  1  0
 64 74  1  0
 45 75  1  0
 46 76  1  0
 49 77  1  0
 58 78  1  0
 58 79  1  0
 59 80  1  1
 60 81  1  0
 61 82  1  0
 61 83  1  0
 62 84  1  1
 63 85  1  0
 63 86  1  0
 65 87  1  0
 69 88  1  0
  1 89  1  0
  2 90  1  0
  3 91  1  0
  5 92  1  0
  6 93  1  0
  8 94  1  0
 10 95  1  0
 11 96  1  0
 12 97  1  0
 20 98  1  0
 21 99  1  0
 22100  1  0
 23101  1  0
 24102  1  0
 25103  1  0
 26104  1  0
 27105  1  0
 29106  1  0
 45107  1  0
 46108  1  0
 47109  1  0
 49110  1  0
 50111  1  0
 52112  1  0
 54113  1  0
 55114  1  0
 56115  1  0
 64116  1  0
 65117  1  0
 66118  1  0
 67119  1  0
 68120  1  0
 69121  1  0
 70122  1  0
 72123  1  0
 73124  1  0
M  CHG  2  28  -1  71  -1
M  END
>  <PDBID>  (1) 
4Z2E

>  <PDB ID>  (1) 
4Z2E

>  <Generic Name>  (1) 
Trovafloxacin

>  <Brand Name>  (1) 
Trovan I.V.#Trovan Tablets 100mg#Trovan Tablets 200mg#Trovan

>  <DrugBank ID>  (1) 
DB00685

>  <ATC Codes>  (1) 
J01MA13

>  <Ligand ID>  (1) 
TR6

>  <Target Name>  (1) 
DNA gyrase subunit A

>  <UniProt ID>  (1) 
P43700

>  <PDB ID.1>  (1) 
4Z2E

>  <Seq. Identity>  (1) 
50%

$$$$
