PDB_DB00182_02
     RDKit          3D

 29 29  0  0  0  0  0  0  0  0999 V2000
   -2.4256   -1.1896   -0.5507 N   0  0  0  0  0  0  0  0  0  0  0  0
   -2.1052    0.2211   -0.5780 C   0  0  1  0  0  0  0  0  0  0  0  0
   -3.3686    1.0506   -0.3119 C   0  0  0  0  0  0  0  0  0  0  0  0
   -1.1642    0.4878    0.5789 C   0  0  0  0  0  0  0  0  0  0  0  0
    0.0854   -0.3678    0.3809 C   0  0  0  0  0  0  0  0  0  0  0  0
    1.0388   -0.1197    1.5211 C   0  0  0  0  0  0  0  0  0  0  0  0
    0.7618   -0.0451   -0.9363 C   0  0  0  0  0  0  0  0  0  0  0  0
    2.2866    0.6119    1.0719 C   0  0  0  0  0  0  0  0  0  0  0  0
    2.0669   -0.8343   -0.9502 C   0  0  0  0  0  0  0  0  0  0  0  0
    3.0213   -0.1471   -0.0096 C   0  0  0  0  0  0  0  0  0  0  0  0
   -2.3878   -1.6061    0.3998 H   0  0  0  0  0  0  0  0  0  0  0  0
   -1.9469   -1.7412   -1.2831 H   0  0  0  0  0  0  0  0  0  0  0  0
   -1.6716    0.5109   -1.5522 H   0  0  0  0  0  0  0  0  0  0  0  0
   -3.9721    1.1342   -1.2255 H   0  0  0  0  0  0  0  0  0  0  0  0
   -3.1023    2.0748    0.0173 H   0  0  0  0  0  0  0  0  0  0  0  0
   -3.9912    0.5263    0.4415 H   0  0  0  0  0  0  0  0  0  0  0  0
   -0.9073    1.5367    0.7087 H   0  0  0  0  0  0  0  0  0  0  0  0
   -1.6735    0.0512    1.4869 H   0  0  0  0  0  0  0  0  0  0  0  0
   -0.1682   -1.4446    0.3600 H   0  0  0  0  0  0  0  0  0  0  0  0
    1.3033   -1.0674    2.0383 H   0  0  0  0  0  0  0  0  0  0  0  0
    0.5517    0.5215    2.2875 H   0  0  0  0  0  0  0  0  0  0  0  0
    0.1451   -0.3862   -1.7891 H   0  0  0  0  0  0  0  0  0  0  0  0
    0.9920    1.0411   -0.9829 H   0  0  0  0  0  0  0  0  0  0  0  0
    2.9636    0.6719    1.9489 H   0  0  0  0  0  0  0  0  0  0  0  0
    2.0142    1.6146    0.7174 H   0  0  0  0  0  0  0  0  0  0  0  0
    1.8560   -1.8504   -0.5447 H   0  0  0  0  0  0  0  0  0  0  0  0
    2.4485   -0.9011   -1.9900 H   0  0  0  0  0  0  0  0  0  0  0  0
    3.7098   -0.9078    0.4377 H   0  0  0  0  0  0  0  0  0  0  0  0
    3.6396    0.5539   -0.6027 H   0  0  0  0  0  0  0  0  0  0  0  0
  1  2  1  0
  2  3  1  0
  2  4  1  0
  4  5  1  0
  5  6  1  0
  5  7  1  0
  6  8  1  0
  7  9  1  0
  8 10  1  0
  9 10  1  0
  1 11  1  0
  1 12  1  0
  2 13  1  6
  3 14  1  0
  3 15  1  0
  3 16  1  0
  4 17  1  0
  4 18  1  0
  5 19  1  0
  6 20  1  0
  6 21  1  0
  7 22  1  0
  7 23  1  0
  8 24  1  0
  8 25  1  0
  9 26  1  0
  9 27  1  0
 10 28  1  0
 10 29  1  0
M  END
>  <PDBID>  (1) 
4XP9

>  <PDB ID>  (1) 
4XP9

>  <Generic Name>  (1) 
Amphetamine

>  <Brand Name>  (1) 
Act Amphetamine XR#Adderall#Adderall XR#Adzenys XR-odt#Apo-amphetamine XR#Dextroamphetamine Saccharate and Amphetamine Aspartate and Dextroamphetamine Sulfate and Amphetamine Sulfate#Dextroamphetamine Saccharate, Amphetamine Aspartate (monohydrate), Dextroamphetamine Sulfate, Amphetamine Sulfate#Dextroamphetamine Saccharate, Amphetamine Aspartate Monohydrate, Dextroamphetamine Sulfate and Amphetamine Sulfate#Dextroamphetamine Saccharate, Amphetamine Aspartate Monohydrate, Dextroamphetamine Sulfate, Amphetamine Sulfate#Dextroamphetamine Saccharate, Amphetamine Aspartate, Dextroamphetamine Sulfate and Amphetamine Suflate#Dextroamphetamine Saccharate, Amphetamine Aspartate, Dextroamphetamine Sulfate and Amphetamine Sulfate#Dextroamphetamine Saccharate, Amphetamine Aspartate, Dextroamphetamine Sulfate, and Amphetamine Sulfate#Dyanavel XR#Evekeo#PMS-amphetamines XR#Sandoz Amphetamine XR

>  <DrugBank ID>  (1) 
DB00182

>  <ATC Codes>  (1) 
N06BA01

>  <Ligand ID>  (1) 
1WE,FRD

>  <Target Name>  (1) 
Sodium-dependent dopamine transporter

>  <UniProt ID>  (1) 
Q01959

>  <PDB ID.1>  (1) 
4XP9

>  <Seq. Identity>  (1) 
52%

$$$$
