PDB_DB00615_06
     RDKit          3D

294304  0  0  0  0  0  0  0  0999 V2000
    1.8884    1.6963   -1.7586 C   0  0  0  0  0  0  0  0  0  0  0  0
    2.8242    2.2053   -0.7184 C   0  0  0  0  0  0  0  0  0  0  0  0
    3.3446    1.0610    0.0675 C   0  0  0  0  0  0  0  0  0  0  0  0
    3.2836   -0.2577   -0.7065 C   0  0  2  0  0  0  0  0  0  0  0  0
    1.2905   -1.6834   -0.0893 C   0  0  0  0  0  0  0  0  0  0  0  0
   -0.2037   -1.3921   -0.1529 C   0  0  0  0  0  0  0  0  0  0  0  0
   -0.4522   -0.1638    0.6305 C   0  0  0  0  0  0  0  0  0  0  0  0
    0.2298    0.9596   -0.1540 C   0  0  0  0  0  0  0  0  0  0  0  0
    1.0645    0.5017   -1.2833 C   0  0  0  0  0  0  0  0  0  0  0  0
    1.9177   -0.7183   -1.0348 C   0  0  0  0  0  0  0  0  0  0  0  0
    1.2414   -3.1346   -0.5977 C   0  0  2  0  0  0  0  0  0  0  0  0
   -0.2350   -3.4405   -0.6554 C   0  0  2  0  0  0  0  0  0  0  0  0
   -0.7137   -3.1077   -2.0239 C   0  0  0  0  0  0  0  0  0  0  0  0
    0.0494   -0.2512    2.0378 C   0  0  0  0  0  0  0  0  0  0  0  0
    2.0679    4.5001   -0.5035 C   0  0  0  0  0  0  0  0  0  0  0  0
    0.6890    5.0046   -0.6619 C   0  0  0  0  0  0  0  0  0  0  0  0
   -0.2899    4.7071    0.4135 C   0  0  0  0  0  0  0  0  0  0  0  0
   -1.6912    4.7948   -0.1937 C   0  0  0  0  0  0  0  0  0  0  0  0
   -2.7204    4.0156    0.5721 C   0  0  0  0  0  0  0  0  0  0  0  0
   -3.7559    3.4628   -0.3465 C   0  0  1  0  0  0  0  0  0  0  0  0
   -4.9093    2.7764    0.2891 C   0  0  1  0  0  0  0  0  0  0  0  0
   -4.5768    1.5207    1.0586 C   0  0  2  0  0  0  0  0  0  0  0  0
   -5.2687    0.3402    0.4248 C   0  0  2  0  0  0  0  0  0  0  0  0
   -5.5205   -0.8175    1.3540 C   0  0  2  0  0  0  0  0  0  0  0  0
   -5.3881   -2.1456    0.5765 C   0  0  1  0  0  0  0  0  0  0  0  0
   -4.9407   -3.2584    1.4597 C   0  0  1  0  0  0  0  0  0  0  0  0
   -4.2006   -4.3744    0.7309 C   0  0  2  0  0  0  0  0  0  0  0  0
   -2.7459   -3.9119    0.5687 C   0  0  0  0  0  0  0  0  0  0  0  0
   -1.9454   -4.9088   -0.2426 C   0  0  0  0  0  0  0  0  0  0  0  0
    0.6950    6.5299   -0.8509 C   0  0  0  0  0  0  0  0  0  0  0  0
   -4.3529    4.6464   -1.1268 C   0  0  0  0  0  0  0  0  0  0  0  0
   -5.1396    1.7150    2.4488 C   0  0  0  0  0  0  0  0  0  0  0  0
   -6.8679   -0.7566    2.0323 C   0  0  0  0  0  0  0  0  0  0  0  0
   -4.0421   -2.7651    2.5718 C   0  0  0  0  0  0  0  0  0  0  0  0
   -6.5198   -2.3793   -1.4870 C   0  0  0  0  0  0  0  0  0  0  0  0
   -7.5050   -1.2664   -1.9066 C   0  0  0  0  0  0  0  0  0  0  0  0
   -5.0904   -5.9633   -0.6583 C   0  0  0  0  0  0  0  0  0  0  0  0
    5.2212   -0.2557    0.4061 C   0  0  0  0  0  0  0  0  0  0  0  0
    5.8455   -0.4965    1.7376 C   0  0  0  0  0  0  0  0  0  0  0  0
    6.2396   -0.6485   -0.6602 C   0  0  0  0  0  0  0  0  0  0  0  0
    7.0854    0.3264    1.8696 C   0  0  0  0  0  0  0  0  0  0  0  0
    7.4008    0.3392   -0.4775 C   0  0  0  0  0  0  0  0  0  0  0  0
    8.8357   -0.9783    0.9474 C   0  0  0  0  0  0  0  0  0  0  0  0
    9.8391   -1.1746   -0.1473 C   0  0  0  0  0  0  0  0  0  0  0  0
   10.6035   -2.4531    0.1824 C   0  0  0  0  0  0  0  0  0  0  0  0
   10.8682   -0.0623   -0.1883 C   0  0  0  0  0  0  0  0  0  0  0  0
    2.2608    3.2449    0.1082 N   0  0  0  0  0  0  0  0  0  0  0  0
    4.8069    1.1139    0.2673 N   0  0  0  0  0  0  0  0  0  0  0  0
    4.0479   -1.0984    0.1747 N   0  0  0  0  0  0  0  0  0  0  0  0
    8.0196    0.1849    0.8062 N   0  0  0  0  0  0  0  0  0  0  0  0
    2.5454    1.2974   -2.9425 O   0  0  0  0  0  0  0  0  0  0  0  0
   -0.8257    1.7193   -0.7162 O   0  0  0  0  0  0  0  0  0  0  0  0
   -0.6881   -2.5518    0.3511 O   0  0  0  0  0  0  0  0  0  0  0  0
    1.8902   -3.9643    0.3113 O   0  0  0  0  0  0  0  0  0  0  0  0
   -0.5938   -4.6947   -0.2184 O   0  0  0  0  0  0  0  0  0  0  0  0
   -4.6764   -4.6235   -0.5320 O   0  0  0  0  0  0  0  0  0  0  0  0
   -6.5162   -2.3979   -0.1529 O   0  0  0  0  0  0  0  0  0  0  0  0
   -7.1438   -3.5462   -2.0047 O   0  0  0  0  0  0  0  0  0  0  0  0
   -4.5438   -0.0669   -0.7043 O   0  0  0  0  0  0  0  0  0  0  0  0
   -5.6348    3.6953    1.0587 O   0  0  0  0  0  0  0  0  0  0  0  0
    2.7275    4.5064   -1.7363 O   0  0  0  0  0  0  0  0  0  0  0  0
    1.4963   -0.0132   -1.3932 C   0  0  0  0  0  0  0  0  0  0  0  0
    1.9382    0.9852   -0.4204 C   0  0  0  0  0  0  0  0  0  0  0  0
    2.9708    0.6497    0.5605 C   0  0  1  0  0  0  0  0  0  0  0  0
    3.7343   -0.5752    0.1437 C   0  0  2  0  0  0  0  0  0  0  0  0
    2.1195   -2.4296    0.7561 C   0  0  0  0  0  0  0  0  0  0  0  0
    0.9262   -3.0834    0.0268 C   0  0  0  0  0  0  0  0  0  0  0  0
    1.3138   -3.6230   -1.2532 C   0  0  0  0  0  0  0  0  0  0  0  0
    1.4980   -2.3949   -2.1677 C   0  0  0  0  0  0  0  0  0  0  0  0
    2.2384   -1.2949   -1.5020 C   0  0  0  0  0  0  0  0  0  0  0  0
    2.9302   -1.7442   -0.1967 C   0  0  1  0  0  0  0  0  0  0  0  0
    1.3165   -1.7999    1.8112 C   0  0  0  0  0  0  0  0  0  0  0  0
    0.2279   -2.8783    2.0184 C   0  0  2  0  0  0  0  0  0  0  0  0
    0.2988   -3.4746    3.4028 C   0  0  0  0  0  0  0  0  0  0  0  0
    0.1768   -4.4233   -1.8551 C   0  0  0  0  0  0  0  0  0  0  0  0
    1.9699    3.3873   -0.2095 C   0  0  0  0  0  0  0  0  0  0  0  0
    0.7411    4.0858   -0.6863 C   0  0  0  0  0  0  0  0  0  0  0  0
   -0.3995    4.0151    0.3102 C   0  0  0  0  0  0  0  0  0  0  0  0
   -1.7197    4.2955   -0.3700 C   0  0  0  0  0  0  0  0  0  0  0  0
   -2.6374    3.0738   -0.3152 C   0  0  0  0  0  0  0  0  0  0  0  0
   -3.3806    3.0088   -1.6084 C   0  0  1  0  0  0  0  0  0  0  0  0
   -4.6680    2.2556   -1.5709 C   0  0  1  0  0  0  0  0  0  0  0  0
   -5.1293    1.8723   -0.1877 C   0  0  2  0  0  0  0  0  0  0  0  0
   -6.0910    0.6863   -0.3631 C   0  0  2  0  0  0  0  0  0  0  0  0
   -6.2475   -0.0690    0.9368 C   0  0  2  0  0  0  0  0  0  0  0  0
   -6.2738   -1.5422    0.6324 C   0  0  1  0  0  0  0  0  0  0  0  0
   -5.5645   -2.4232    1.6033 C   0  0  1  0  0  0  0  0  0  0  0  0
   -4.4190   -3.1119    0.9298 C   0  0  2  0  0  0  0  0  0  0  0  0
   -3.2520   -3.3730    1.8552 C   0  0  0  0  0  0  0  0  0  0  0  0
   -1.9083   -3.2258    1.1586 C   0  0  0  0  0  0  0  0  0  0  0  0
    1.0564    5.5769   -0.8514 C   0  0  0  0  0  0  0  0  0  0  0  0
   -3.6946    4.4415   -2.0518 C   0  0  0  0  0  0  0  0  0  0  0  0
   -5.8683    2.9592    0.5201 C   0  0  0  0  0  0  0  0  0  0  0  0
   -7.4587    0.4000    1.6947 C   0  0  0  0  0  0  0  0  0  0  0  0
   -5.1472   -1.6359    2.8199 C   0  0  0  0  0  0  0  0  0  0  0  0
   -7.8712   -2.3722   -0.8723 C   0  0  0  0  0  0  0  0  0  0  0  0
   -9.0116   -1.4844   -1.3946 C   0  0  0  0  0  0  0  0  0  0  0  0
   -4.0953   -3.3020   -1.3588 C   0  0  0  0  0  0  0  0  0  0  0  0
    5.2792    0.7373    0.9366 C   0  0  0  0  0  0  0  0  0  0  0  0
    5.9947    1.2443    2.1281 C   0  0  0  0  0  0  0  0  0  0  0  0
    6.0813    0.6820   -0.3335 C   0  0  0  0  0  0  0  0  0  0  0  0
    7.4583    1.0944    2.1766 C   0  0  0  0  0  0  0  0  0  0  0  0
    7.4173    1.4056   -0.1072 C   0  0  0  0  0  0  0  0  0  0  0  0
    9.5110    0.8477    0.9774 C   0  0  0  0  0  0  0  0  0  0  0  0
   10.1234    0.2873   -0.2772 C   0  0  0  0  0  0  0  0  0  0  0  0
    9.7567   -1.1840   -0.3160 C   0  0  0  0  0  0  0  0  0  0  0  0
   11.6364    0.4629   -0.2801 C   0  0  0  0  0  0  0  0  0  0  0  0
    2.3426    2.2601   -1.0526 N   0  0  0  0  0  0  0  0  0  0  0  0
    4.1060    1.5794    0.6295 N   0  0  0  0  0  0  0  0  0  0  0  0
    4.7292   -0.6209    1.1527 N   0  0  0  0  0  0  0  0  0  0  0  0
    8.0837    0.6674    0.9281 N   0  0  0  0  0  0  0  0  0  0  0  0
    1.5604    0.6022   -2.6785 O   0  0  0  0  0  0  0  0  0  0  0  0
    2.1197   -2.8837   -3.3178 O   0  0  0  0  0  0  0  0  0  0  0  0
    0.4719   -3.8574    1.0336 O   0  0  0  0  0  0  0  0  0  0  0  0
    1.9412   -1.6556    3.0395 O   0  0  0  0  0  0  0  0  0  0  0  0
   -1.0388   -2.3961    1.8183 O   0  0  0  0  0  0  0  0  0  0  0  0
   -3.9997   -2.4986   -0.2482 O   0  0  0  0  0  0  0  0  0  0  0  0
   -7.5854   -1.9787    0.3851 O   0  0  0  0  0  0  0  0  0  0  0  0
   -8.3777   -3.6911   -0.9425 O   0  0  0  0  0  0  0  0  0  0  0  0
   -5.5412   -0.0749   -1.3896 O   0  0  0  0  0  0  0  0  0  0  0  0
   -5.7244    2.9426   -2.1794 O   0  0  0  0  0  0  0  0  0  0  0  0
    3.0742    4.2599   -0.2138 O   0  0  0  0  0  0  0  0  0  0  0  0
    1.1345    2.4447   -2.1005 H   0  0  0  0  0  0  0  0  0  0  0  0
    3.6988    2.6666   -1.2640 H   0  0  0  0  0  0  0  0  0  0  0  0
    2.9375    0.9545    1.0771 H   0  0  0  0  0  0  0  0  0  0  0  0
    3.8790   -0.0873   -1.6275 H   0  0  0  0  0  0  0  0  0  0  0  0
    1.6535   -1.6308    0.9346 H   0  0  0  0  0  0  0  0  0  0  0  0
   -0.5393   -1.2096   -1.1900 H   0  0  0  0  0  0  0  0  0  0  0  0
   -1.5661    0.0212    0.7018 H   0  0  0  0  0  0  0  0  0  0  0  0
    0.6809    1.5888    0.6041 H   0  0  0  0  0  0  0  0  0  0  0  0
    0.3923    0.2973   -2.1579 H   0  0  0  0  0  0  0  0  0  0  0  0
    1.9971   -1.2647   -2.0270 H   0  0  0  0  0  0  0  0  0  0  0  0
    1.7320   -3.2274   -1.5801 H   0  0  0  0  0  0  0  0  0  0  0  0
    0.0444   -2.5264   -2.6300 H   0  0  0  0  0  0  0  0  0  0  0  0
   -1.6803   -2.6177   -2.1074 H   0  0  0  0  0  0  0  0  0  0  0  0
   -0.7785   -4.0877   -2.5863 H   0  0  0  0  0  0  0  0  0  0  0  0
    0.2440   -1.2986    2.3604 H   0  0  0  0  0  0  0  0  0  0  0  0
   -0.7401    0.1115    2.7569 H   0  0  0  0  0  0  0  0  0  0  0  0
    0.8967    0.4176    2.1747 H   0  0  0  0  0  0  0  0  0  0  0  0
    2.6311    5.2604    0.1175 H   0  0  0  0  0  0  0  0  0  0  0  0
    0.2488    4.6178   -1.6281 H   0  0  0  0  0  0  0  0  0  0  0  0
   -0.2300    5.5547    1.1591 H   0  0  0  0  0  0  0  0  0  0  0  0
   -0.1378    3.7979    0.9871 H   0  0  0  0  0  0  0  0  0  0  0  0
   -1.9682    5.8509   -0.3273 H   0  0  0  0  0  0  0  0  0  0  0  0
   -1.5869    4.3582   -1.2296 H   0  0  0  0  0  0  0  0  0  0  0  0
   -2.2173    3.2326    1.1724 H   0  0  0  0  0  0  0  0  0  0  0  0
   -3.1666    4.7279    1.3124 H   0  0  0  0  0  0  0  0  0  0  0  0
   -3.2811    2.8357   -1.1304 H   0  0  0  0  0  0  0  0  0  0  0  0
   -5.6187    2.5135   -0.5537 H   0  0  0  0  0  0  0  0  0  0  0  0
   -3.4729    1.3970    1.0832 H   0  0  0  0  0  0  0  0  0  0  0  0
   -6.2534    0.6909    0.0665 H   0  0  0  0  0  0  0  0  0  0  0  0
   -4.7420   -0.7720    2.1218 H   0  0  0  0  0  0  0  0  0  0  0  0
   -4.5873   -1.9334   -0.1517 H   0  0  0  0  0  0  0  0  0  0  0  0
   -5.8131   -3.7190    2.0268 H   0  0  0  0  0  0  0  0  0  0  0  0
   -4.2524   -5.2922    1.3552 H   0  0  0  0  0  0  0  0  0  0  0  0
   -2.8801   -3.0221   -0.0806 H   0  0  0  0  0  0  0  0  0  0  0  0
   -2.2742   -3.7336    1.5327 H   0  0  0  0  0  0  0  0  0  0  0  0
   -2.1203   -5.9258    0.1916 H   0  0  0  0  0  0  0  0  0  0  0  0
   -2.3960   -4.9331   -1.2504 H   0  0  0  0  0  0  0  0  0  0  0  0
   -0.2870    6.9503   -0.6441 H   0  0  0  0  0  0  0  0  0  0  0  0
    1.4302    6.9991   -0.1444 H   0  0  0  0  0  0  0  0  0  0  0  0
    0.9705    6.7595   -1.8990 H   0  0  0  0  0  0  0  0  0  0  0  0
   -4.5126    5.5238   -0.4702 H   0  0  0  0  0  0  0  0  0  0  0  0
   -3.7111    4.8745   -2.0144 H   0  0  0  0  0  0  0  0  0  0  0  0
   -5.3431    4.3667   -1.5385 H   0  0  0  0  0  0  0  0  0  0  0  0
   -4.8111    2.7336    2.8402 H   0  0  0  0  0  0  0  0  0  0  0  0
   -6.2439    1.7965    2.4423 H   0  0  0  0  0  0  0  0  0  0  0  0
   -4.8246    0.9500    3.1656 H   0  0  0  0  0  0  0  0  0  0  0  0
   -7.3538   -1.7537    2.0737 H   0  0  0  0  0  0  0  0  0  0  0  0
   -7.4884   -0.0029    1.5210 H   0  0  0  0  0  0  0  0  0  0  0  0
   -6.7525   -0.4433    3.0838 H   0  0  0  0  0  0  0  0  0  0  0  0
   -3.2402   -2.1031    2.2782 H   0  0  0  0  0  0  0  0  0  0  0  0
   -3.6126   -3.7008    3.0536 H   0  0  0  0  0  0  0  0  0  0  0  0
   -4.6017   -2.2932    3.4138 H   0  0  0  0  0  0  0  0  0  0  0  0
   -5.6135   -2.1769   -2.0452 H   0  0  0  0  0  0  0  0  0  0  0  0
   -6.8979   -0.3561   -2.0687 H   0  0  0  0  0  0  0  0  0  0  0  0
   -7.9501   -1.5214   -2.9116 H   0  0  0  0  0  0  0  0  0  0  0  0
   -8.2560   -1.0802   -1.1343 H   0  0  0  0  0  0  0  0  0  0  0  0
   -5.9046   -6.0913    0.1108 H   0  0  0  0  0  0  0  0  0  0  0  0
   -5.5691   -6.1364   -1.6322 H   0  0  0  0  0  0  0  0  0  0  0  0
   -4.3117   -6.6854   -0.4127 H   0  0  0  0  0  0  0  0  0  0  0  0
    5.1328   -0.1708    2.5397 H   0  0  0  0  0  0  0  0  0  0  0  0
    6.1001   -1.5694    1.8779 H   0  0  0  0  0  0  0  0  0  0  0  0
    5.8738   -0.5068   -1.6770 H   0  0  0  0  0  0  0  0  0  0  0  0
    6.5491   -1.6730   -0.4553 H   0  0  0  0  0  0  0  0  0  0  0  0
    6.8903    1.3999    2.0367 H   0  0  0  0  0  0  0  0  0  0  0  0
    7.6038   -0.0236    2.8106 H   0  0  0  0  0  0  0  0  0  0  0  0
    8.1061    0.3044   -1.3098 H   0  0  0  0  0  0  0  0  0  0  0  0
    6.9225    1.3454   -0.4976 H   0  0  0  0  0  0  0  0  0  0  0  0
    9.4072   -0.8732    1.8988 H   0  0  0  0  0  0  0  0  0  0  0  0
    8.2119   -1.8895    1.0492 H   0  0  0  0  0  0  0  0  0  0  0  0
    9.3968   -1.3297   -1.1370 H   0  0  0  0  0  0  0  0  0  0  0  0
   11.5101   -2.5432   -0.4678 H   0  0  0  0  0  0  0  0  0  0  0  0
    9.9715   -3.3521    0.1421 H   0  0  0  0  0  0  0  0  0  0  0  0
   11.0055   -2.3881    1.2153 H   0  0  0  0  0  0  0  0  0  0  0  0
   11.2230    0.1482    0.8371 H   0  0  0  0  0  0  0  0  0  0  0  0
   10.5064    0.8353   -0.6942 H   0  0  0  0  0  0  0  0  0  0  0  0
   11.7504   -0.4176   -0.7883 H   0  0  0  0  0  0  0  0  0  0  0  0
    2.6855    3.2541    1.0479 H   0  0  0  0  0  0  0  0  0  0  0  0
    4.9751    1.6941    1.0942 H   0  0  0  0  0  0  0  0  0  0  0  0
    4.3321   -1.9719   -0.3243 H   0  0  0  0  0  0  0  0  0  0  0  0
    3.1244    2.0493   -3.1983 H   0  0  0  0  0  0  0  0  0  0  0  0
   -1.5393    1.1178   -1.0525 H   0  0  0  0  0  0  0  0  0  0  0  0
    1.4118   -4.0078    1.1749 H   0  0  0  0  0  0  0  0  0  0  0  0
   -7.9502   -3.7645   -1.5018 H   0  0  0  0  0  0  0  0  0  0  0  0
   -4.6748    0.5571   -1.4669 H   0  0  0  0  0  0  0  0  0  0  0  0
   -5.1917    4.5478    1.1858 H   0  0  0  0  0  0  0  0  0  0  0  0
    2.5576    5.4033   -2.1356 H   0  0  0  0  0  0  0  0  0  0  0  0
    0.3836   -0.2200   -1.3220 H   0  0  0  0  0  0  0  0  0  0  0  0
    1.0264    1.3044    0.1821 H   0  0  0  0  0  0  0  0  0  0  0  0
    2.6171    0.5995    1.6289 H   0  0  0  0  0  0  0  0  0  0  0  0
    4.2913   -0.2627   -0.7980 H   0  0  0  0  0  0  0  0  0  0  0  0
    2.6414   -3.3160    1.2294 H   0  0  0  0  0  0  0  0  0  0  0  0
    0.1726   -2.2614   -0.1170 H   0  0  0  0  0  0  0  0  0  0  0  0
    2.2496   -4.1982   -1.1879 H   0  0  0  0  0  0  0  0  0  0  0  0
    0.4670   -2.0595   -2.4488 H   0  0  0  0  0  0  0  0  0  0  0  0
    3.1273   -1.0665   -2.1754 H   0  0  0  0  0  0  0  0  0  0  0  0
    3.6818   -2.5147   -0.5863 H   0  0  0  0  0  0  0  0  0  0  0  0
    0.7546   -0.8990    1.4953 H   0  0  0  0  0  0  0  0  0  0  0  0
   -0.3624   -2.9045    4.0883 H   0  0  0  0  0  0  0  0  0  0  0  0
    1.3261   -3.4112    3.8326 H   0  0  0  0  0  0  0  0  0  0  0  0
   -0.0861   -4.4956    3.3490 H   0  0  0  0  0  0  0  0  0  0  0  0
    0.3594   -4.7067   -2.9061 H   0  0  0  0  0  0  0  0  0  0  0  0
   -0.0076   -5.2831   -1.1896 H   0  0  0  0  0  0  0  0  0  0  0  0
   -0.7338   -3.7643   -1.7882 H   0  0  0  0  0  0  0  0  0  0  0  0
    1.7707    2.9773    0.7987 H   0  0  0  0  0  0  0  0  0  0  0  0
    0.3911    3.6848   -1.6690 H   0  0  0  0  0  0  0  0  0  0  0  0
   -0.1762    4.7813    1.1021 H   0  0  0  0  0  0  0  0  0  0  0  0
   -0.4791    3.0584    0.8246 H   0  0  0  0  0  0  0  0  0  0  0  0
   -2.1914    5.1582    0.1576 H   0  0  0  0  0  0  0  0  0  0  0  0
   -1.5084    4.6185   -1.3888 H   0  0  0  0  0  0  0  0  0  0  0  0
   -1.9381    2.1953   -0.1944 H   0  0  0  0  0  0  0  0  0  0  0  0
   -3.2479    3.1872    0.5816 H   0  0  0  0  0  0  0  0  0  0  0  0
   -2.6684    2.6076   -2.3701 H   0  0  0  0  0  0  0  0  0  0  0  0
   -4.5230    1.3392   -2.2168 H   0  0  0  0  0  0  0  0  0  0  0  0
   -4.2847    1.4423    0.4238 H   0  0  0  0  0  0  0  0  0  0  0  0
   -7.0775    1.1149   -0.6568 H   0  0  0  0  0  0  0  0  0  0  0  0
   -5.3497    0.1672    1.5361 H   0  0  0  0  0  0  0  0  0  0  0  0
   -5.7614   -1.6577   -0.3439 H   0  0  0  0  0  0  0  0  0  0  0  0
   -6.2684   -3.2086    2.0420 H   0  0  0  0  0  0  0  0  0  0  0  0
   -4.7634   -4.1413    0.6042 H   0  0  0  0  0  0  0  0  0  0  0  0
   -3.2187   -2.7573    2.7500 H   0  0  0  0  0  0  0  0  0  0  0  0
   -3.2697   -4.4373    2.2369 H   0  0  0  0  0  0  0  0  0  0  0  0
   -1.4688   -4.2219    0.8990 H   0  0  0  0  0  0  0  0  0  0  0  0
   -2.1475   -2.7601    0.1618 H   0  0  0  0  0  0  0  0  0  0  0  0
    0.1487    6.1917   -0.6728 H   0  0  0  0  0  0  0  0  0  0  0  0
    1.7469    5.8299   -0.0007 H   0  0  0  0  0  0  0  0  0  0  0  0
    1.5061    5.7984   -1.8273 H   0  0  0  0  0  0  0  0  0  0  0  0
   -3.7482    5.1011   -1.1650 H   0  0  0  0  0  0  0  0  0  0  0  0
   -2.9528    4.7989   -2.8108 H   0  0  0  0  0  0  0  0  0  0  0  0
   -4.6777    4.5103   -2.5604 H   0  0  0  0  0  0  0  0  0  0  0  0
   -5.4901    3.9820    0.3055 H   0  0  0  0  0  0  0  0  0  0  0  0
   -6.9331    2.9201    0.2107 H   0  0  0  0  0  0  0  0  0  0  0  0
   -5.7743    2.7604    1.6210 H   0  0  0  0  0  0  0  0  0  0  0  0
   -8.0919   -0.4086    2.0968 H   0  0  0  0  0  0  0  0  0  0  0  0
   -8.1175    1.0122    1.0268 H   0  0  0  0  0  0  0  0  0  0  0  0
   -7.1875    1.0575    2.5442 H   0  0  0  0  0  0  0  0  0  0  0  0
   -4.2532   -1.0247    2.6994 H   0  0  0  0  0  0  0  0  0  0  0  0
   -5.0706   -2.3154    3.7271 H   0  0  0  0  0  0  0  0  0  0  0  0
   -5.9912   -0.9719    3.0865 H   0  0  0  0  0  0  0  0  0  0  0  0
   -7.0921   -2.3233   -1.6240 H   0  0  0  0  0  0  0  0  0  0  0  0
   -8.6649   -0.4607   -1.5305 H   0  0  0  0  0  0  0  0  0  0  0  0
   -9.4324   -1.9224   -2.3301 H   0  0  0  0  0  0  0  0  0  0  0  0
   -9.7881   -1.4954   -0.6038 H   0  0  0  0  0  0  0  0  0  0  0  0
   -5.1191   -3.6343   -1.5390 H   0  0  0  0  0  0  0  0  0  0  0  0
   -3.8266   -2.6501   -2.2369 H   0  0  0  0  0  0  0  0  0  0  0  0
   -3.3517   -4.1274   -1.3942 H   0  0  0  0  0  0  0  0  0  0  0  0
    5.6845    2.3181    2.2688 H   0  0  0  0  0  0  0  0  0  0  0  0
    5.5518    0.7201    3.0265 H   0  0  0  0  0  0  0  0  0  0  0  0
    5.6199    1.2259   -1.1825 H   0  0  0  0  0  0  0  0  0  0  0  0
    6.3605   -0.3543   -0.6348 H   0  0  0  0  0  0  0  0  0  0  0  0
    7.9192    2.1011    2.3957 H   0  0  0  0  0  0  0  0  0  0  0  0
    7.7759    0.3991    2.9626 H   0  0  0  0  0  0  0  0  0  0  0  0
    7.9248    1.3730   -1.0788 H   0  0  0  0  0  0  0  0  0  0  0  0
    7.2276    2.4645    0.1692 H   0  0  0  0  0  0  0  0  0  0  0  0
    9.7007    1.9614    0.9427 H   0  0  0  0  0  0  0  0  0  0  0  0
    9.9734    0.4873    1.8915 H   0  0  0  0  0  0  0  0  0  0  0  0
    9.7749    0.7616   -1.2052 H   0  0  0  0  0  0  0  0  0  0  0  0
    8.8136   -1.3547   -0.8716 H   0  0  0  0  0  0  0  0  0  0  0  0
   10.6301   -1.7106   -0.7572 H   0  0  0  0  0  0  0  0  0  0  0  0
    9.5909   -1.5934    0.7141 H   0  0  0  0  0  0  0  0  0  0  0  0
   12.0746    0.3322    0.7316 H   0  0  0  0  0  0  0  0  0  0  0  0
   11.8799    1.4206   -0.7455 H   0  0  0  0  0  0  0  0  0  0  0  0
   12.0568   -0.3460   -0.9158 H   0  0  0  0  0  0  0  0  0  0  0  0
    1.7760    2.3663   -1.9390 H   0  0  0  0  0  0  0  0  0  0  0  0
    4.0141    2.2445    1.4009 H   0  0  0  0  0  0  0  0  0  0  0  0
    4.2759   -0.5638    2.0914 H   0  0  0  0  0  0  0  0  0  0  0  0
    2.4619    0.4390   -3.0365 H   0  0  0  0  0  0  0  0  0  0  0  0
    1.5277   -2.8817   -4.0982 H   0  0  0  0  0  0  0  0  0  0  0  0
    2.7835   -2.1415    3.1233 H   0  0  0  0  0  0  0  0  0  0  0  0
   -9.3266   -3.7279   -1.1545 H   0  0  0  0  0  0  0  0  0  0  0  0
   -6.1529   -0.0318   -2.1728 H   0  0  0  0  0  0  0  0  0  0  0  0
   -6.1687    3.5486   -1.5662 H   0  0  0  0  0  0  0  0  0  0  0  0
    3.1474    4.5744   -1.1587 H   0  0  0  0  0  0  0  0  0  0  0  0
  1  2  1  0
  2  3  1  0
  3  4  1  0
  5  6  1  0
  6  7  1  0
  7  8  1  0
  1  9  1  0
  8  9  1  0
  4 10  1  0
  5 10  1  0
  9 10  1  0
  5 11  1  0
 11 12  1  0
 12 13  1  6
  7 14  1  0
 15 16  1  0
 16 17  1  0
 17 18  1  0
 18 19  1  0
 19 20  1  0
 20 21  1  0
 21 22  1  0
 22 23  1  0
 23 24  1  0
 24 25  1  0
 25 26  1  0
 26 27  1  0
 27 28  1  0
 28 29  1  0
 16 30  1  0
 20 31  1  0
 22 32  1  0
 24 33  1  0
 26 34  1  0
 35 36  1  0
 38 39  1  0
 38 40  1  0
 39 41  1  0
 40 42  1  0
 43 44  1  0
 44 45  1  0
 44 46  1  0
  2 47  1  0
 15 47  1  0
  3 48  1  0
 38 48  1  0
  4 49  1  0
 38 49  1  0
 41 50  1  0
 42 50  1  0
 43 50  1  0
  1 51  1  0
  8 52  1  0
  6 53  1  0
 12 53  1  0
 11 54  1  0
 12 55  1  0
 29 55  1  0
 27 56  1  0
 37 56  1  0
 25 57  1  0
 35 57  1  0
 35 58  1  0
 23 59  1  0
 21 60  1  0
 15 61  1  0
 62 63  1  0
 63 64  1  0
 64 65  1  0
 66 67  1  0
 67 68  1  0
 68 69  1  0
 62 70  1  0
 69 70  1  0
 65 71  1  0
 66 71  1  0
 70 71  1  0
 66 72  1  0
 72 73  1  0
 73 74  1  1
 68 75  1  0
 76 77  1  0
 77 78  1  0
 78 79  1  0
 79 80  1  0
 80 81  1  0
 81 82  1  0
 82 83  1  0
 83 84  1  0
 84 85  1  0
 85 86  1  0
 86 87  1  0
 87 88  1  0
 88 89  1  0
 89 90  1  0
 77 91  1  0
 81 92  1  0
 83 93  1  0
 85 94  1  0
 87 95  1  0
 96 97  1  0
 99100  1  0
 99101  1  0
100102  1  0
101103  1  0
104105  1  0
105106  1  0
105107  1  0
 63108  1  0
 76108  1  0
 64109  1  0
 99109  1  0
 65110  1  0
 99110  1  0
102111  1  0
103111  1  0
104111  1  0
 62112  1  0
 69113  1  0
 67114  1  0
 73114  1  0
 72115  1  0
 73116  1  0
 90116  1  0
 88117  1  0
 98117  1  0
 86118  1  0
 96118  1  0
 96119  1  0
 84120  1  0
 82121  1  0
 76122  1  0
  1123  1  0
  2124  1  0
  3125  1  0
  4126  1  6
  5127  1  0
  6128  1  0
  7129  1  0
  8130  1  0
  9131  1  0
 10132  1  0
 11133  1  6
 13134  1  0
 13135  1  0
 13136  1  0
 14137  1  0
 14138  1  0
 14139  1  0
 15140  1  0
 16141  1  0
 17142  1  0
 17143  1  0
 18144  1  0
 18145  1  0
 19146  1  0
 19147  1  0
 20148  1  6
 21149  1  6
 22150  1  1
 23151  1  6
 24152  1  1
 25153  1  6
 26154  1  1
 27155  1  1
 28156  1  0
 28157  1  0
 29158  1  0
 29159  1  0
 30160  1  0
 30161  1  0
 30162  1  0
 31163  1  0
 31164  1  0
 31165  1  0
 32166  1  0
 32167  1  0
 32168  1  0
 33169  1  0
 33170  1  0
 33171  1  0
 34172  1  0
 34173  1  0
 34174  1  0
 35175  1  0
 36176  1  0
 36177  1  0
 36178  1  0
 37179  1  0
 37180  1  0
 37181  1  0
 39182  1  0
 39183  1  0
 40184  1  0
 40185  1  0
 41186  1  0
 41187  1  0
 42188  1  0
 42189  1  0
 43190  1  0
 43191  1  0
 44192  1  0
 45193  1  0
 45194  1  0
 45195  1  0
 46196  1  0
 46197  1  0
 46198  1  0
 47199  1  0
 48200  1  0
 49201  1  0
 51202  1  0
 52203  1  0
 54204  1  0
 58205  1  0
 59206  1  0
 60207  1  0
 61208  1  0
 62209  1  0
 63210  1  0
 64211  1  1
 65212  1  6
 66213  1  0
 67214  1  0
 68215  1  0
 69216  1  0
 70217  1  0
 71218  1  6
 72219  1  0
 74220  1  0
 74221  1  0
 74222  1  0
 75223  1  0
 75224  1  0
 75225  1  0
 76226  1  0
 77227  1  0
 78228  1  0
 78229  1  0
 79230  1  0
 79231  1  0
 80232  1  0
 80233  1  0
 81234  1  6
 82235  1  6
 83236  1  1
 84237  1  6
 85238  1  1
 86239  1  6
 87240  1  1
 88241  1  6
 89242  1  0
 89243  1  0
 90244  1  0
 90245  1  0
 91246  1  0
 91247  1  0
 91248  1  0
 92249  1  0
 92250  1  0
 92251  1  0
 93252  1  0
 93253  1  0
 93254  1  0
 94255  1  0
 94256  1  0
 94257  1  0
 95258  1  0
 95259  1  0
 95260  1  0
 96261  1  0
 97262  1  0
 97263  1  0
 97264  1  0
 98265  1  0
 98266  1  0
 98267  1  0
100268  1  0
100269  1  0
101270  1  0
101271  1  0
102272  1  0
102273  1  0
103274  1  0
103275  1  0
104276  1  0
104277  1  0
105278  1  0
106279  1  0
106280  1  0
106281  1  0
107282  1  0
107283  1  0
107284  1  0
108285  1  0
109286  1  0
110287  1  0
112288  1  0
113289  1  0
115290  1  0
119291  1  0
120292  1  0
121293  1  0
122294  1  0
M  END
>  <PDBID>  (1) 
2A68

>  <PDB ID>  (1) 
2A68

>  <Generic Name>  (1) 
Rifabutin

>  <Brand Name>  (1) 
Mycobutin#Rifabutin#Ansatipin#Ansatipine#Ributin

>  <DrugBank ID>  (1) 
DB00615

>  <ATC Codes>  (1) 
J04AB04

>  <Ligand ID>  (1) 
RBT

>  <Target Name>  (1) 
DNA-directed RNA polymerase subunit beta

>  <UniProt ID>  (1) 
P0A8V2

>  <PDB ID.1>  (1) 
2A68

>  <Seq. Identity>  (1) 
51%

$$$$
