PDB_DB00212_06
     RDKit          3D

220226  0  0  0  0  0  0  0  0999 V2000
   -3.9921   -2.8968   -0.0798 O   0  0  0  0  0  0  0  0  0  0  0  0
   -4.3165   -1.6945    0.6133 S   0  0  0  0  0  0  0  0  0  0  0  0
   -4.0565   -2.2391    2.4503 O   0  0  0  0  0  0  0  0  0  0  0  0
   -5.9018   -1.1862    0.8718 C   0  0  0  0  0  0  0  0  0  0  0  0
   -6.7484   -0.9097   -0.3199 C   0  0  0  0  0  0  0  0  0  0  0  0
   -6.0625   -0.0614    1.8675 C   0  0  0  0  0  0  0  0  0  0  0  0
   -6.6099   -2.3943    1.5714 C   0  0  0  0  0  0  0  0  0  0  0  0
   -3.1572   -0.4093    0.7412 C   0  0  0  0  0  0  0  0  0  0  0  0
   -2.6398    0.0771   -0.5670 C   0  0  1  0  0  0  0  0  0  0  0  0
   -3.5644    0.6514   -1.5481 C   0  0  0  0  0  0  0  0  0  0  0  0
   -4.3786    1.8379   -1.2560 C   0  0  0  0  0  0  0  0  0  0  0  0
   -3.6547    3.1105   -0.9065 C   0  0  0  0  0  0  0  0  0  0  0  0
   -4.5291    4.3383   -1.2505 C   0  0  0  0  0  0  0  0  0  0  0  0
   -5.9728    3.9926   -1.0961 C   0  0  0  0  0  0  0  0  0  0  0  0
   -6.3083    3.0083   -2.2095 C   0  0  0  0  0  0  0  0  0  0  0  0
   -5.0960    2.1870   -2.5857 C   0  0  0  0  0  0  0  0  0  0  0  0
   -1.3568    0.8359   -0.4982 C   0  0  0  0  0  0  0  0  0  0  0  0
   -1.0019    1.2093   -1.8199 O   0  0  0  0  0  0  0  0  0  0  0  0
   -0.3072    0.3901    0.2713 N   0  0  0  0  0  0  0  0  0  0  0  0
    0.3894   -0.8014    0.1133 C   0  0  1  0  0  0  0  0  0  0  0  0
    1.1334   -1.1188   -1.0896 C   0  0  0  0  0  0  0  0  0  0  0  0
    1.7881   -2.4918   -1.0418 C   0  0  0  0  0  0  0  0  0  0  0  0
    0.7441   -3.5768   -0.8722 C   0  0  0  0  0  0  0  0  0  0  0  0
    1.2878   -4.7198   -1.5682 N   0  0  0  0  0  0  0  0  0  0  0  0
    2.4100   -4.2400   -2.3362 C   0  0  0  0  0  0  0  0  0  0  0  0
    2.3538   -2.8087   -2.3418 N   0  0  0  0  0  0  0  0  0  0  0  0
    1.2085   -0.9725    1.3790 C   0  0  0  0  0  0  0  0  0  0  0  0
    0.2260   -1.0833    2.4304 O   0  0  0  0  0  0  0  0  0  0  0  0
    2.1083    0.0640    1.7168 N   0  0  0  0  0  0  0  0  0  0  0  0
    3.2682    0.3432    0.9348 C   0  0  2  0  0  0  0  0  0  0  0  0
    4.3919    0.5570    1.9601 C   0  0  1  0  0  0  0  0  0  0  0  0
    3.8829    1.6507    2.7340 O   0  0  0  0  0  0  0  0  0  0  0  0
    4.6037   -0.5296    2.9404 C   0  0  2  0  0  0  0  0  0  0  0  0
    5.5593   -1.6117    2.5967 C   0  0  0  0  0  0  0  0  0  0  0  0
    5.4487   -2.5259    1.4634 C   0  0  0  0  0  0  0  0  0  0  0  0
    5.2870   -3.0622    2.8373 C   0  0  0  0  0  0  0  0  0  0  0  0
    3.4205   -0.9673    3.5634 O   0  0  0  0  0  0  0  0  0  0  0  0
    3.1082    1.6164    0.1898 C   0  0  0  0  0  0  0  0  0  0  0  0
    4.1373    2.0984   -0.7382 C   0  0  0  0  0  0  0  0  0  0  0  0
    4.4884    1.1792   -1.8660 C   0  0  0  0  0  0  0  0  0  0  0  0
    5.8391    1.5398   -2.4376 C   0  0  0  0  0  0  0  0  0  0  0  0
    6.8124    1.2489   -1.2813 C   0  0  0  0  0  0  0  0  0  0  0  0
    6.6365    2.4024   -0.3344 C   0  0  0  0  0  0  0  0  0  0  0  0
    5.2501    2.9135   -0.1985 C   0  0  0  0  0  0  0  0  0  0  0  0
   -3.9921   -2.8968   -0.0798 O   0  0  0  0  0  0  0  0  0  0  0  0
   -4.3165   -1.6945    0.6133 S   0  0  0  0  0  0  0  0  0  0  0  0
   -4.0565   -2.2391    2.4503 O   0  0  0  0  0  0  0  0  0  0  0  0
   -5.9018   -1.1862    0.8718 C   0  0  0  0  0  0  0  0  0  0  0  0
   -6.7484   -0.9097   -0.3199 C   0  0  0  0  0  0  0  0  0  0  0  0
   -6.0625   -0.0614    1.8675 C   0  0  0  0  0  0  0  0  0  0  0  0
   -6.6099   -2.3943    1.5714 C   0  0  0  0  0  0  0  0  0  0  0  0
   -3.1572   -0.4093    0.7412 C   0  0  0  0  0  0  0  0  0  0  0  0
   -2.6398    0.0771   -0.5670 C   0  0  1  0  0  0  0  0  0  0  0  0
   -3.5644    0.6514   -1.5481 C   0  0  0  0  0  0  0  0  0  0  0  0
   -4.3786    1.8379   -1.2560 C   0  0  0  0  0  0  0  0  0  0  0  0
   -3.6547    3.1105   -0.9065 C   0  0  0  0  0  0  0  0  0  0  0  0
   -4.5291    4.3383   -1.2505 C   0  0  0  0  0  0  0  0  0  0  0  0
   -5.9728    3.9926   -1.0961 C   0  0  0  0  0  0  0  0  0  0  0  0
   -6.3083    3.0083   -2.2095 C   0  0  0  0  0  0  0  0  0  0  0  0
   -5.0960    2.1870   -2.5857 C   0  0  0  0  0  0  0  0  0  0  0  0
   -1.3568    0.8359   -0.4982 C   0  0  0  0  0  0  0  0  0  0  0  0
   -1.0019    1.2093   -1.8199 O   0  0  0  0  0  0  0  0  0  0  0  0
   -0.3072    0.3901    0.2713 N   0  0  0  0  0  0  0  0  0  0  0  0
    0.3894   -0.8014    0.1133 C   0  0  1  0  0  0  0  0  0  0  0  0
    1.1334   -1.1188   -1.0896 C   0  0  0  0  0  0  0  0  0  0  0  0
    1.7881   -2.4918   -1.0418 C   0  0  0  0  0  0  0  0  0  0  0  0
    0.7441   -3.5768   -0.8722 C   0  0  0  0  0  0  0  0  0  0  0  0
    1.2878   -4.7198   -1.5682 N   0  0  0  0  0  0  0  0  0  0  0  0
    2.4100   -4.2400   -2.3362 C   0  0  0  0  0  0  0  0  0  0  0  0
    2.3538   -2.8087   -2.3418 N   0  0  0  0  0  0  0  0  0  0  0  0
    1.2085   -0.9725    1.3790 C   0  0  0  0  0  0  0  0  0  0  0  0
    0.2260   -1.0833    2.4304 O   0  0  0  0  0  0  0  0  0  0  0  0
    2.1083    0.0640    1.7168 N   0  0  0  0  0  0  0  0  0  0  0  0
    3.2682    0.3432    0.9348 C   0  0  2  0  0  0  0  0  0  0  0  0
    4.3919    0.5570    1.9601 C   0  0  1  0  0  0  0  0  0  0  0  0
    3.8829    1.6507    2.7340 O   0  0  0  0  0  0  0  0  0  0  0  0
    4.6037   -0.5296    2.9404 C   0  0  2  0  0  0  0  0  0  0  0  0
    5.5593   -1.6117    2.5967 C   0  0  0  0  0  0  0  0  0  0  0  0
    5.4487   -2.5259    1.4634 C   0  0  0  0  0  0  0  0  0  0  0  0
    5.2870   -3.0622    2.8373 C   0  0  0  0  0  0  0  0  0  0  0  0
    3.4205   -0.9673    3.5634 O   0  0  0  0  0  0  0  0  0  0  0  0
    3.1082    1.6164    0.1898 C   0  0  0  0  0  0  0  0  0  0  0  0
    4.1373    2.0984   -0.7382 C   0  0  0  0  0  0  0  0  0  0  0  0
    4.4884    1.1792   -1.8660 C   0  0  0  0  0  0  0  0  0  0  0  0
    5.8391    1.5398   -2.4376 C   0  0  0  0  0  0  0  0  0  0  0  0
    6.8124    1.2489   -1.2813 C   0  0  0  0  0  0  0  0  0  0  0  0
    6.6365    2.4024   -0.3344 C   0  0  0  0  0  0  0  0  0  0  0  0
    5.2501    2.9135   -0.1985 C   0  0  0  0  0  0  0  0  0  0  0  0
   -3.1485   -3.3816   -0.0615 H   0  0  0  0  0  0  0  0  0  0  0  0
   -4.5889   -3.0580    2.3481 H   0  0  0  0  0  0  0  0  0  0  0  0
   -7.0694    0.1478   -0.4464 H   0  0  0  0  0  0  0  0  0  0  0  0
   -6.2690   -1.2624   -1.2635 H   0  0  0  0  0  0  0  0  0  0  0  0
   -7.7235   -1.4832   -0.2947 H   0  0  0  0  0  0  0  0  0  0  0  0
   -6.2319    0.8757    1.3464 H   0  0  0  0  0  0  0  0  0  0  0  0
   -5.2409   -0.0395    2.6218 H   0  0  0  0  0  0  0  0  0  0  0  0
   -7.0333   -0.2576    2.4217 H   0  0  0  0  0  0  0  0  0  0  0  0
   -6.4621   -2.3479    2.6501 H   0  0  0  0  0  0  0  0  0  0  0  0
   -7.7022   -2.3282    1.3915 H   0  0  0  0  0  0  0  0  0  0  0  0
   -6.2577   -3.3411    1.1165 H   0  0  0  0  0  0  0  0  0  0  0  0
   -2.2836   -0.7956    1.3066 H   0  0  0  0  0  0  0  0  0  0  0  0
   -3.5461    0.4114    1.3898 H   0  0  0  0  0  0  0  0  0  0  0  0
   -2.3109   -0.9291   -1.0768 H   0  0  0  0  0  0  0  0  0  0  0  0
   -4.2778   -0.1318   -1.9664 H   0  0  0  0  0  0  0  0  0  0  0  0
   -2.9613    0.9075   -2.4812 H   0  0  0  0  0  0  0  0  0  0  0  0
   -5.2420    1.6536   -0.5775 H   0  0  0  0  0  0  0  0  0  0  0  0
   -3.4818    3.2270    0.1830 H   0  0  0  0  0  0  0  0  0  0  0  0
   -2.7813    3.2352   -1.5468 H   0  0  0  0  0  0  0  0  0  0  0  0
   -4.3391    4.6491   -2.3151 H   0  0  0  0  0  0  0  0  0  0  0  0
   -4.2011    5.2100   -0.6483 H   0  0  0  0  0  0  0  0  0  0  0  0
   -6.5594    4.9197   -1.1387 H   0  0  0  0  0  0  0  0  0  0  0  0
   -6.0915    3.5223   -0.0870 H   0  0  0  0  0  0  0  0  0  0  0  0
   -7.0515    2.2876   -1.7621 H   0  0  0  0  0  0  0  0  0  0  0  0
   -6.7448    3.5506   -3.0659 H   0  0  0  0  0  0  0  0  0  0  0  0
   -4.3972    2.8108   -3.1852 H   0  0  0  0  0  0  0  0  0  0  0  0
   -5.4192    1.2632   -3.0813 H   0  0  0  0  0  0  0  0  0  0  0  0
   -1.6444    1.8383   -0.0400 H   0  0  0  0  0  0  0  0  0  0  0  0
   -0.3881    2.0031   -1.7922 H   0  0  0  0  0  0  0  0  0  0  0  0
    0.0733    0.9873    1.0055 H   0  0  0  0  0  0  0  0  0  0  0  0
   -0.4163   -1.6380    0.1939 H   0  0  0  0  0  0  0  0  0  0  0  0
    0.4885   -1.1682   -2.0247 H   0  0  0  0  0  0  0  0  0  0  0  0
    1.9137   -0.3984   -1.3795 H   0  0  0  0  0  0  0  0  0  0  0  0
    2.5016   -2.5949   -0.2401 H   0  0  0  0  0  0  0  0  0  0  0  0
    0.6025   -3.8572    0.2014 H   0  0  0  0  0  0  0  0  0  0  0  0
   -0.1927   -3.2467   -1.3499 H   0  0  0  0  0  0  0  0  0  0  0  0
    1.5582   -5.5122   -0.9682 H   0  0  0  0  0  0  0  0  0  0  0  0
    2.2872   -4.6645   -3.3758 H   0  0  0  0  0  0  0  0  0  0  0  0
    3.3748   -4.6483   -1.9225 H   0  0  0  0  0  0  0  0  0  0  0  0
    1.6526   -2.5319   -3.0606 H   0  0  0  0  0  0  0  0  0  0  0  0
    1.7336   -1.9402    1.4431 H   0  0  0  0  0  0  0  0  0  0  0  0
    0.6995   -1.4737    3.2092 H   0  0  0  0  0  0  0  0  0  0  0  0
    1.6896    0.8763    2.2046 H   0  0  0  0  0  0  0  0  0  0  0  0
    3.4733   -0.5274    0.3100 H   0  0  0  0  0  0  0  0  0  0  0  0
    5.3279    0.8659    1.5571 H   0  0  0  0  0  0  0  0  0  0  0  0
    4.3747    1.7197    3.5784 H   0  0  0  0  0  0  0  0  0  0  0  0
    5.1108    0.0111    3.8321 H   0  0  0  0  0  0  0  0  0  0  0  0
    6.6583   -1.3662    2.8439 H   0  0  0  0  0  0  0  0  0  0  0  0
    6.3873   -2.8834    0.9351 H   0  0  0  0  0  0  0  0  0  0  0  0
    4.6082   -2.5343    0.7482 H   0  0  0  0  0  0  0  0  0  0  0  0
    6.0692   -3.7425    3.2352 H   0  0  0  0  0  0  0  0  0  0  0  0
    4.2944   -3.2690    3.2724 H   0  0  0  0  0  0  0  0  0  0  0  0
    3.0510   -0.2750    4.1579 H   0  0  0  0  0  0  0  0  0  0  0  0
    3.0141    2.4194    1.0002 H   0  0  0  0  0  0  0  0  0  0  0  0
    2.0756    1.6559   -0.2503 H   0  0  0  0  0  0  0  0  0  0  0  0
    3.5361    2.9228   -1.3468 H   0  0  0  0  0  0  0  0  0  0  0  0
    3.7793    1.1947   -2.7192 H   0  0  0  0  0  0  0  0  0  0  0  0
    4.5634    0.1161   -1.5739 H   0  0  0  0  0  0  0  0  0  0  0  0
    5.9066    2.5899   -2.7603 H   0  0  0  0  0  0  0  0  0  0  0  0
    6.1055    0.8110   -3.2245 H   0  0  0  0  0  0  0  0  0  0  0  0
    6.4559    0.3351   -0.7617 H   0  0  0  0  0  0  0  0  0  0  0  0
    7.8383    1.1341   -1.6466 H   0  0  0  0  0  0  0  0  0  0  0  0
    7.2845    3.2274   -0.7474 H   0  0  0  0  0  0  0  0  0  0  0  0
    7.1211    2.1884    0.6621 H   0  0  0  0  0  0  0  0  0  0  0  0
    5.0906    3.1351    0.9017 H   0  0  0  0  0  0  0  0  0  0  0  0
    5.2276    3.9741   -0.6230 H   0  0  0  0  0  0  0  0  0  0  0  0
   -3.1485   -3.3816   -0.0615 H   0  0  0  0  0  0  0  0  0  0  0  0
   -4.5889   -3.0580    2.3481 H   0  0  0  0  0  0  0  0  0  0  0  0
   -7.0694    0.1478   -0.4464 H   0  0  0  0  0  0  0  0  0  0  0  0
   -6.2690   -1.2624   -1.2635 H   0  0  0  0  0  0  0  0  0  0  0  0
   -7.7235   -1.4832   -0.2947 H   0  0  0  0  0  0  0  0  0  0  0  0
   -6.2319    0.8757    1.3464 H   0  0  0  0  0  0  0  0  0  0  0  0
   -5.2409   -0.0395    2.6218 H   0  0  0  0  0  0  0  0  0  0  0  0
   -7.0333   -0.2576    2.4217 H   0  0  0  0  0  0  0  0  0  0  0  0
   -6.4621   -2.3479    2.6501 H   0  0  0  0  0  0  0  0  0  0  0  0
   -7.7022   -2.3282    1.3915 H   0  0  0  0  0  0  0  0  0  0  0  0
   -6.2577   -3.3411    1.1165 H   0  0  0  0  0  0  0  0  0  0  0  0
   -2.2836   -0.7956    1.3066 H   0  0  0  0  0  0  0  0  0  0  0  0
   -3.5461    0.4114    1.3898 H   0  0  0  0  0  0  0  0  0  0  0  0
   -2.3109   -0.9291   -1.0768 H   0  0  0  0  0  0  0  0  0  0  0  0
   -4.2778   -0.1318   -1.9664 H   0  0  0  0  0  0  0  0  0  0  0  0
   -2.9613    0.9075   -2.4812 H   0  0  0  0  0  0  0  0  0  0  0  0
   -5.2420    1.6536   -0.5775 H   0  0  0  0  0  0  0  0  0  0  0  0
   -3.4818    3.2270    0.1830 H   0  0  0  0  0  0  0  0  0  0  0  0
   -2.7813    3.2352   -1.5468 H   0  0  0  0  0  0  0  0  0  0  0  0
   -4.3391    4.6491   -2.3151 H   0  0  0  0  0  0  0  0  0  0  0  0
   -4.2011    5.2100   -0.6483 H   0  0  0  0  0  0  0  0  0  0  0  0
   -6.5594    4.9197   -1.1387 H   0  0  0  0  0  0  0  0  0  0  0  0
   -6.0915    3.5223   -0.0870 H   0  0  0  0  0  0  0  0  0  0  0  0
   -7.0515    2.2876   -1.7621 H   0  0  0  0  0  0  0  0  0  0  0  0
   -6.7448    3.5506   -3.0659 H   0  0  0  0  0  0  0  0  0  0  0  0
   -4.3972    2.8108   -3.1852 H   0  0  0  0  0  0  0  0  0  0  0  0
   -5.4192    1.2632   -3.0813 H   0  0  0  0  0  0  0  0  0  0  0  0
   -1.6444    1.8383   -0.0400 H   0  0  0  0  0  0  0  0  0  0  0  0
   -0.3881    2.0031   -1.7922 H   0  0  0  0  0  0  0  0  0  0  0  0
    0.0733    0.9873    1.0055 H   0  0  0  0  0  0  0  0  0  0  0  0
   -0.4163   -1.6380    0.1939 H   0  0  0  0  0  0  0  0  0  0  0  0
    0.4885   -1.1682   -2.0247 H   0  0  0  0  0  0  0  0  0  0  0  0
    1.9137   -0.3984   -1.3795 H   0  0  0  0  0  0  0  0  0  0  0  0
    2.5016   -2.5949   -0.2401 H   0  0  0  0  0  0  0  0  0  0  0  0
    0.6025   -3.8572    0.2014 H   0  0  0  0  0  0  0  0  0  0  0  0
   -0.1927   -3.2467   -1.3499 H   0  0  0  0  0  0  0  0  0  0  0  0
    1.5582   -5.5122   -0.9682 H   0  0  0  0  0  0  0  0  0  0  0  0
    2.2872   -4.6645   -3.3758 H   0  0  0  0  0  0  0  0  0  0  0  0
    3.3748   -4.6483   -1.9225 H   0  0  0  0  0  0  0  0  0  0  0  0
    1.6526   -2.5319   -3.0606 H   0  0  0  0  0  0  0  0  0  0  0  0
    1.7336   -1.9402    1.4431 H   0  0  0  0  0  0  0  0  0  0  0  0
    0.6995   -1.4737    3.2092 H   0  0  0  0  0  0  0  0  0  0  0  0
    1.6896    0.8763    2.2046 H   0  0  0  0  0  0  0  0  0  0  0  0
    3.4733   -0.5274    0.3100 H   0  0  0  0  0  0  0  0  0  0  0  0
    5.3279    0.8659    1.5571 H   0  0  0  0  0  0  0  0  0  0  0  0
    4.3747    1.7197    3.5784 H   0  0  0  0  0  0  0  0  0  0  0  0
    5.1108    0.0111    3.8321 H   0  0  0  0  0  0  0  0  0  0  0  0
    6.6583   -1.3662    2.8439 H   0  0  0  0  0  0  0  0  0  0  0  0
    6.3873   -2.8834    0.9351 H   0  0  0  0  0  0  0  0  0  0  0  0
    4.6082   -2.5343    0.7482 H   0  0  0  0  0  0  0  0  0  0  0  0
    6.0692   -3.7425    3.2352 H   0  0  0  0  0  0  0  0  0  0  0  0
    4.2944   -3.2690    3.2724 H   0  0  0  0  0  0  0  0  0  0  0  0
    3.0510   -0.2750    4.1579 H   0  0  0  0  0  0  0  0  0  0  0  0
    3.0141    2.4194    1.0002 H   0  0  0  0  0  0  0  0  0  0  0  0
    2.0756    1.6559   -0.2503 H   0  0  0  0  0  0  0  0  0  0  0  0
    3.5361    2.9228   -1.3468 H   0  0  0  0  0  0  0  0  0  0  0  0
    3.7793    1.1947   -2.7192 H   0  0  0  0  0  0  0  0  0  0  0  0
    4.5634    0.1161   -1.5739 H   0  0  0  0  0  0  0  0  0  0  0  0
    5.9066    2.5899   -2.7603 H   0  0  0  0  0  0  0  0  0  0  0  0
    6.1055    0.8110   -3.2245 H   0  0  0  0  0  0  0  0  0  0  0  0
    6.4559    0.3351   -0.7617 H   0  0  0  0  0  0  0  0  0  0  0  0
    7.8383    1.1341   -1.6466 H   0  0  0  0  0  0  0  0  0  0  0  0
    7.2845    3.2274   -0.7474 H   0  0  0  0  0  0  0  0  0  0  0  0
    7.1211    2.1884    0.6621 H   0  0  0  0  0  0  0  0  0  0  0  0
    5.0906    3.1351    0.9017 H   0  0  0  0  0  0  0  0  0  0  0  0
    5.2276    3.9741   -0.6230 H   0  0  0  0  0  0  0  0  0  0  0  0
  2  1  1  0
  2  3  1  0
  2  4  1  0
  4  5  1  0
  4  6  1  0
  4  7  1  0
  2  8  1  0
  8  9  1  0
  9 10  1  0
 10 11  1  0
 11 12  1  0
 12 13  1  0
 13 14  1  0
 14 15  1  0
 11 16  1  0
 15 16  1  0
  9 17  1  0
 17 18  1  0
 17 19  1  0
 19 20  1  0
 20 21  1  0
 21 22  1  0
 22 23  1  0
 23 24  1  0
 24 25  1  0
 22 26  1  0
 25 26  1  0
 20 27  1  0
 27 28  1  0
 27 29  1  0
 29 30  1  0
 30 31  1  0
 31 32  1  0
 31 33  1  0
 33 34  1  0
 34 35  1  0
 34 36  1  0
 35 36  1  0
 33 37  1  0
 30 38  1  0
 38 39  1  0
 39 40  1  0
 40 41  1  0
 41 42  1  0
 42 43  1  0
 39 44  1  0
 43 44  1  0
 46 45  1  0
 46 47  1  0
 46 48  1  0
 48 49  1  0
 48 50  1  0
 48 51  1  0
 46 52  1  0
 52 53  1  0
 53 54  1  0
 54 55  1  0
 55 56  1  0
 56 57  1  0
 57 58  1  0
 58 59  1  0
 55 60  1  0
 59 60  1  0
 53 61  1  0
 61 62  1  0
 61 63  1  0
 63 64  1  0
 64 65  1  0
 65 66  1  0
 66 67  1  0
 67 68  1  0
 68 69  1  0
 66 70  1  0
 69 70  1  0
 64 71  1  0
 71 72  1  0
 71 73  1  0
 73 74  1  0
 74 75  1  0
 75 76  1  0
 75 77  1  0
 77 78  1  0
 78 79  1  0
 78 80  1  0
 79 80  1  0
 77 81  1  0
 74 82  1  0
 82 83  1  0
 83 84  1  0
 84 85  1  0
 85 86  1  0
 86 87  1  0
 83 88  1  0
 87 88  1  0
  1 89  1  0
  3 90  1  0
  5 91  1  0
  5 92  1  0
  5 93  1  0
  6 94  1  0
  6 95  1  0
  6 96  1  0
  7 97  1  0
  7 98  1  0
  7 99  1  0
  8100  1  0
  8101  1  0
  9102  1  6
 10103  1  0
 10104  1  0
 11105  1  0
 12106  1  0
 12107  1  0
 13108  1  0
 13109  1  0
 14110  1  0
 14111  1  0
 15112  1  0
 15113  1  0
 16114  1  0
 16115  1  0
 17116  1  0
 18117  1  0
 19118  1  0
 20119  1  1
 21120  1  0
 21121  1  0
 22122  1  0
 23123  1  0
 23124  1  0
 24125  1  0
 25126  1  0
 25127  1  0
 26128  1  0
 27129  1  0
 28130  1  0
 29131  1  0
 30132  1  6
 31133  1  6
 32134  1  0
 33135  1  1
 34136  1  0
 35137  1  0
 35138  1  0
 36139  1  0
 36140  1  0
 37141  1  0
 38142  1  0
 38143  1  0
 39144  1  0
 40145  1  0
 40146  1  0
 41147  1  0
 41148  1  0
 42149  1  0
 42150  1  0
 43151  1  0
 43152  1  0
 44153  1  0
 44154  1  0
 45155  1  0
 47156  1  0
 49157  1  0
 49158  1  0
 49159  1  0
 50160  1  0
 50161  1  0
 50162  1  0
 51163  1  0
 51164  1  0
 51165  1  0
 52166  1  0
 52167  1  0
 53168  1  6
 54169  1  0
 54170  1  0
 55171  1  0
 56172  1  0
 56173  1  0
 57174  1  0
 57175  1  0
 58176  1  0
 58177  1  0
 59178  1  0
 59179  1  0
 60180  1  0
 60181  1  0
 61182  1  0
 62183  1  0
 63184  1  0
 64185  1  1
 65186  1  0
 65187  1  0
 66188  1  0
 67189  1  0
 67190  1  0
 68191  1  0
 69192  1  0
 69193  1  0
 70194  1  0
 71195  1  0
 72196  1  0
 73197  1  0
 74198  1  6
 75199  1  6
 76200  1  0
 77201  1  1
 78202  1  0
 79203  1  0
 79204  1  0
 80205  1  0
 80206  1  0
 81207  1  0
 82208  1  0
 82209  1  0
 83210  1  0
 84211  1  0
 84212  1  0
 85213  1  0
 85214  1  0
 86215  1  0
 86216  1  0
 87217  1  0
 87218  1  0
 88219  1  0
 88220  1  0
M  END
>  <PDBID>  (1) 
3D91

>  <PDB ID>  (1) 
3D91

>  <Generic Name>  (1) 
Remikiren

>  <Brand Name>  (1) 
nan

>  <DrugBank ID>  (1) 
DB00212

>  <ATC Codes>  (1) 
C09XA01

>  <Ligand ID>  (1) 
REM

>  <Target Name>  (1) 
Renin

>  <UniProt ID>  (1) 
P00797

>  <PDB ID.1>  (1) 
3D91

>  <Seq. Identity>  (1) 
100%

$$$$
