PDB_DB09063_02
     RDKit          3D

 94 97  0  0  0  0  0  0  0  0999 V2000
   -3.0860   -3.5901    0.5553 C   0  0  0  0  0  0  0  0  0  0  0  0
   -3.4239   -2.4752   -0.3777 C   0  0  0  0  0  0  0  0  0  0  0  0
   -4.6042   -2.8800   -1.2583 C   0  0  0  0  0  0  0  0  0  0  0  0
   -3.5811   -1.2495    0.2001 O   0  0  0  0  0  0  0  0  0  0  0  0
   -2.6927   -0.2655   -0.2266 C   0  0  0  0  0  0  0  0  0  0  0  0
   -3.5447    0.6897   -1.0677 C   0  0  0  0  0  0  0  0  0  0  0  0
   -4.4739    1.5091   -0.2659 C   0  0  1  0  0  0  0  0  0  0  0  0
   -5.6333    0.8067    0.3521 C   0  0  0  0  0  0  0  0  0  0  0  0
   -6.4237    1.8773    1.1240 C   0  0  0  0  0  0  0  0  0  0  0  0
   -7.8960    1.5155    1.1387 C   0  0  0  0  0  0  0  0  0  0  0  0
   -8.0805    0.0691    1.2100 N   0  0  0  0  0  0  0  0  0  0  0  0
   -7.6433   -0.5789   -0.0099 C   0  0  0  0  0  0  0  0  0  0  0  0
   -6.5778    0.2701   -0.6726 C   0  0  0  0  0  0  0  0  0  0  0  0
   -3.6568    2.3033    0.7178 C   0  0  0  0  0  0  0  0  0  0  0  0
   -2.9310    3.3992   -0.0338 C   0  0  0  0  0  0  0  0  0  0  0  0
   -2.8006    1.4903    1.5981 C   0  0  0  0  0  0  0  0  0  0  0  0
   -2.0378    0.3652    0.9349 C   0  0  0  0  0  0  0  0  0  0  0  0
   -0.6339    0.6254    0.8739 N   0  0  0  0  0  0  0  0  0  0  0  0
    0.2648   -0.5022    0.8810 C   0  0  0  0  0  0  0  0  0  0  0  0
   -0.0097   -1.3488   -0.2011 N   0  0  0  0  0  0  0  0  0  0  0  0
    1.1375   -2.0615   -0.7704 C   0  0  0  0  0  0  0  0  0  0  0  0
    2.0823   -2.1923    0.4110 C   0  0  1  0  0  0  0  0  0  0  0  0
    3.1046   -3.5831    0.3799 Cl  0  0  0  0  0  0  0  0  0  0  0  0
    2.6889   -0.8460    0.5866 C   0  0  0  0  0  0  0  0  0  0  0  0
    3.2965   -0.1435   -0.3996 N   0  0  0  0  0  0  0  0  0  0  0  0
    4.4012   -0.2676   -1.1729 C   0  0  2  0  0  0  0  0  0  0  0  0
    4.4153   -1.3905   -2.1517 C   0  0  0  0  0  0  0  0  0  0  0  0
    5.7982   -1.9660   -2.3952 C   0  0  0  0  0  0  0  0  0  0  0  0
    6.3146   -2.5546   -1.1309 C   0  0  0  0  0  0  0  0  0  0  0  0
    6.2900   -1.4991   -0.0498 C   0  0  0  0  0  0  0  0  0  0  0  0
    5.7659   -0.1724   -0.5189 C   0  0  2  0  0  0  0  0  0  0  0  0
    5.8459    1.0221    0.6852 S   0  0  0  0  0  0  0  0  0  0  0  0
    7.8114    0.7828    0.9840 O   0  0  0  0  0  0  0  0  0  0  0  0
    5.4083    0.9567    1.9826 O   0  0  0  0  0  0  0  0  0  0  0  0
    5.9991    2.5733   -0.0435 C   0  0  0  0  0  0  0  0  0  0  0  0
    6.0559    3.6090    1.0857 C   0  0  0  0  0  0  0  0  0  0  0  0
    7.2300    2.7445   -0.8687 C   0  0  0  0  0  0  0  0  0  0  0  0
    1.5823    0.0039    1.0796 N   0  0  0  0  0  0  0  0  0  0  0  0
   -3.8935   -4.3490    0.5101 H   0  0  0  0  0  0  0  0  0  0  0  0
   -3.0500   -3.2730    1.6380 H   0  0  0  0  0  0  0  0  0  0  0  0
   -2.1548   -4.1214    0.2703 H   0  0  0  0  0  0  0  0  0  0  0  0
   -2.5673   -2.3867   -1.1117 H   0  0  0  0  0  0  0  0  0  0  0  0
   -4.3503   -3.8580   -1.7403 H   0  0  0  0  0  0  0  0  0  0  0  0
   -4.7317   -2.1793   -2.1104 H   0  0  0  0  0  0  0  0  0  0  0  0
   -5.5497   -2.9020   -0.7044 H   0  0  0  0  0  0  0  0  0  0  0  0
   -1.9726   -0.6536   -0.9749 H   0  0  0  0  0  0  0  0  0  0  0  0
   -2.8209    1.3813   -1.5619 H   0  0  0  0  0  0  0  0  0  0  0  0
   -4.0093    0.0942   -1.8700 H   0  0  0  0  0  0  0  0  0  0  0  0
   -4.9124    2.2803   -0.9680 H   0  0  0  0  0  0  0  0  0  0  0  0
   -5.3463    0.0570    1.1152 H   0  0  0  0  0  0  0  0  0  0  0  0
   -6.3398    2.8348    0.5817 H   0  0  0  0  0  0  0  0  0  0  0  0
   -6.1019    1.9352    2.1742 H   0  0  0  0  0  0  0  0  0  0  0  0
   -8.4332    1.9432    0.2664 H   0  0  0  0  0  0  0  0  0  0  0  0
   -8.4123    1.9275    2.0493 H   0  0  0  0  0  0  0  0  0  0  0  0
   -9.0961   -0.1003    1.3181 H   0  0  0  0  0  0  0  0  0  0  0  0
   -8.4920   -0.6831   -0.7374 H   0  0  0  0  0  0  0  0  0  0  0  0
   -7.3239   -1.5931    0.2335 H   0  0  0  0  0  0  0  0  0  0  0  0
   -7.0807    1.1087   -1.1888 H   0  0  0  0  0  0  0  0  0  0  0  0
   -6.1109   -0.3444   -1.4504 H   0  0  0  0  0  0  0  0  0  0  0  0
   -4.4062    2.8376    1.3720 H   0  0  0  0  0  0  0  0  0  0  0  0
   -2.0781    3.0305   -0.6226 H   0  0  0  0  0  0  0  0  0  0  0  0
   -2.5505    4.1579    0.7121 H   0  0  0  0  0  0  0  0  0  0  0  0
   -3.6783    3.9430   -0.6347 H   0  0  0  0  0  0  0  0  0  0  0  0
   -3.4298    1.1251    2.4528 H   0  0  0  0  0  0  0  0  0  0  0  0
   -2.0468    2.1450    2.0838 H   0  0  0  0  0  0  0  0  0  0  0  0
   -2.0926   -0.4557    1.7601 H   0  0  0  0  0  0  0  0  0  0  0  0
   -0.3069    1.4474    1.3837 H   0  0  0  0  0  0  0  0  0  0  0  0
   -0.0075   -1.0281    1.8687 H   0  0  0  0  0  0  0  0  0  0  0  0
   -0.5922   -2.1666    0.1844 H   0  0  0  0  0  0  0  0  0  0  0  0
    1.6182   -1.4705   -1.5514 H   0  0  0  0  0  0  0  0  0  0  0  0
    0.8779   -3.0528   -1.1420 H   0  0  0  0  0  0  0  0  0  0  0  0
    1.4165   -2.3550    1.3618 H   0  0  0  0  0  0  0  0  0  0  0  0
    3.3034   -0.9577    1.5471 H   0  0  0  0  0  0  0  0  0  0  0  0
    2.6952    0.7066   -0.7069 H   0  0  0  0  0  0  0  0  0  0  0  0
    4.4158    0.6759   -1.8420 H   0  0  0  0  0  0  0  0  0  0  0  0
    3.7638   -2.2431   -1.9547 H   0  0  0  0  0  0  0  0  0  0  0  0
    4.0928   -1.0526   -3.1869 H   0  0  0  0  0  0  0  0  0  0  0  0
    6.5015   -1.2556   -2.8239 H   0  0  0  0  0  0  0  0  0  0  0  0
    5.6111   -2.8352   -3.0980 H   0  0  0  0  0  0  0  0  0  0  0  0
    7.3837   -2.8694   -1.3555 H   0  0  0  0  0  0  0  0  0  0  0  0
    5.8118   -3.4996   -0.8336 H   0  0  0  0  0  0  0  0  0  0  0  0
    7.3470   -1.3883    0.2965 H   0  0  0  0  0  0  0  0  0  0  0  0
    5.7504   -1.8751    0.8562 H   0  0  0  0  0  0  0  0  0  0  0  0
    6.4349    0.1125   -1.3591 H   0  0  0  0  0  0  0  0  0  0  0  0
    7.6744    0.0710    1.6400 H   0  0  0  0  0  0  0  0  0  0  0  0
    5.8151    0.7862    2.8652 H   0  0  0  0  0  0  0  0  0  0  0  0
    5.1119    2.7374   -0.6847 H   0  0  0  0  0  0  0  0  0  0  0  0
    6.3827    4.5542    0.6476 H   0  0  0  0  0  0  0  0  0  0  0  0
    5.0595    3.6288    1.5630 H   0  0  0  0  0  0  0  0  0  0  0  0
    6.7538    3.1791    1.8379 H   0  0  0  0  0  0  0  0  0  0  0  0
    7.6871    1.7173   -0.9801 H   0  0  0  0  0  0  0  0  0  0  0  0
    6.9692    3.0611   -1.8801 H   0  0  0  0  0  0  0  0  0  0  0  0
    7.9719    3.4317   -0.3911 H   0  0  0  0  0  0  0  0  0  0  0  0
    1.7275    0.9924    0.8522 H   0  0  0  0  0  0  0  0  0  0  0  0
  1  2  1  0
  2  3  1  0
  2  4  1  0
  4  5  1  0
  5  6  1  0
  6  7  1  0
  7  8  1  0
  8  9  1  0
  9 10  1  0
 10 11  1  0
 11 12  1  0
  8 13  1  0
 12 13  1  0
  7 14  1  0
 14 15  1  0
 14 16  1  0
  5 17  1  0
 16 17  1  0
 17 18  1  0
 18 19  1  0
 19 20  1  0
 20 21  1  0
 21 22  1  0
 22 23  1  0
 22 24  1  0
 24 25  1  0
 25 26  1  0
 26 27  1  0
 27 28  1  0
 28 29  1  0
 29 30  1  0
 26 31  1  0
 30 31  1  0
 31 32  1  0
 32 33  1  0
 32 34  1  0
 32 35  1  0
 35 36  1  0
 35 37  1  0
 19 38  1  0
 24 38  1  0
  1 39  1  0
  1 40  1  0
  1 41  1  0
  2 42  1  0
  3 43  1  0
  3 44  1  0
  3 45  1  0
  5 46  1  0
  6 47  1  0
  6 48  1  0
  7 49  1  6
  8 50  1  0
  9 51  1  0
  9 52  1  0
 10 53  1  0
 10 54  1  0
 11 55  1  0
 12 56  1  0
 12 57  1  0
 13 58  1  0
 13 59  1  0
 14 60  1  0
 15 61  1  0
 15 62  1  0
 15 63  1  0
 16 64  1  0
 16 65  1  0
 17 66  1  0
 18 67  1  0
 19 68  1  0
 20 69  1  0
 21 70  1  0
 21 71  1  0
 22 72  1  1
 24 73  1  0
 25 74  1  0
 26 75  1  6
 27 76  1  0
 27 77  1  0
 28 78  1  0
 28 79  1  0
 29 80  1  0
 29 81  1  0
 30 82  1  0
 30 83  1  0
 31 84  1  6
 33 85  1  0
 34 86  1  0
 35 87  1  0
 36 88  1  0
 36 89  1  0
 36 90  1  0
 37 91  1  0
 37 92  1  0
 37 93  1  0
 38 94  1  0
M  END
>  <PDBID>  (1) 
4MKC

>  <PDB ID>  (1) 
4MKC

>  <Generic Name>  (1) 
Ceritinib

>  <Brand Name>  (1) 
Zykadia

>  <DrugBank ID>  (1) 
DB09063

>  <ATC Codes>  (1) 
L01XE28

>  <Ligand ID>  (1) 
4MK

>  <Target Name>  (1) 
ALK tyrosine kinase receptor

>  <UniProt ID>  (1) 
Q9UM73

>  <PDB ID.1>  (1) 
4MKC

>  <Seq. Identity>  (1) 
99%

$$$$
