PDB_DB09034_06
     RDKit          3D

 75 79  0  0  0  0  0  0  0  0999 V2000
    3.2672    1.1289    0.3985 C   0  0  0  0  0  0  0  0  0  0  0  0
    2.2413    0.1410    0.1710 N   0  0  0  0  0  0  0  0  0  0  0  0
    3.9042    1.5148   -0.7737 O   0  0  0  0  0  0  0  0  0  0  0  0
    8.4854    0.2219    1.0180 Cl  0  0  0  0  0  0  0  0  0  0  0  0
    4.2374    0.6018    1.3023 N   0  0  0  0  0  0  0  0  0  0  0  0
   -1.6419   -3.0970   -0.3293 O   0  0  0  0  0  0  0  0  0  0  0  0
    5.5428    0.7424    0.6987 C   0  0  0  0  0  0  0  0  0  0  0  0
   -0.4848   -1.1988   -0.4627 N   0  0  0  0  0  0  0  0  0  0  0  0
    6.3795    1.7935    1.4011 C   0  0  0  0  0  0  0  0  0  0  0  0
   -3.5307    1.1496   -0.8475 N   0  0  0  0  0  0  0  0  0  0  0  0
    7.7326    1.8114    0.6880 C   0  0  0  0  0  0  0  0  0  0  0  0
   -4.5442    0.8651   -1.7034 N   0  0  0  0  0  0  0  0  0  0  0  0
    7.5149    1.9254   -0.8040 C   0  0  0  0  0  0  0  0  0  0  0  0
   -3.5458    2.4589   -0.4703 N   0  0  0  0  0  0  0  0  0  0  0  0
    6.0820    2.3275   -1.0998 C   0  0  0  0  0  0  0  0  0  0  0  0
    5.2175    1.1204   -0.7145 C   0  0  0  0  0  0  0  0  0  0  0  0
    1.2033    0.5784   -0.6936 C   0  0  0  0  0  0  0  0  0  0  0  0
   -0.1634    0.1288   -0.1996 C   0  0  0  0  0  0  0  0  0  0  0  0
    0.5392   -2.1925   -0.3806 C   0  0  1  0  0  0  0  0  0  0  0  0
    1.8326   -1.8947   -1.0358 C   0  0  0  0  0  0  0  0  0  0  0  0
    2.7398   -1.1650   -0.0758 C   0  0  0  0  0  0  0  0  0  0  0  0
   -1.6411   -1.7187    0.1546 C   0  0  0  0  0  0  0  0  0  0  0  0
   -2.9909   -1.1563   -0.1839 C   0  0  0  0  0  0  0  0  0  0  0  0
   -3.3073    0.2182    0.2346 C   0  0  0  0  0  0  0  0  0  0  0  0
   -4.5265    0.2793    1.1719 C   0  0  0  0  0  0  0  0  0  0  0  0
   -5.7199   -0.4275    0.6353 C   0  0  0  0  0  0  0  0  0  0  0  0
   -5.3793   -1.8295    0.2347 C   0  0  0  0  0  0  0  0  0  0  0  0
   -3.9546   -2.1008    0.5686 C   0  0  0  0  0  0  0  0  0  0  0  0
   -5.2291    2.0942   -2.0395 C   0  0  0  0  0  0  0  0  0  0  0  0
   -4.7138    3.0902   -1.0290 C   0  0  0  0  0  0  0  0  0  0  0  0
   -6.2222   -2.7670    1.0763 C   0  0  0  0  0  0  0  0  0  0  0  0
    0.8001   -2.6711    1.0307 C   0  0  0  0  0  0  0  0  0  0  0  0
    2.7958    2.0125    0.8410 H   0  0  0  0  0  0  0  0  0  0  0  0
    4.2793    1.1238    2.2166 H   0  0  0  0  0  0  0  0  0  0  0  0
   -1.9641   -3.0684   -1.2798 H   0  0  0  0  0  0  0  0  0  0  0  0
    6.1361   -0.2131    0.7696 H   0  0  0  0  0  0  0  0  0  0  0  0
    5.9063    2.7831    1.4235 H   0  0  0  0  0  0  0  0  0  0  0  0
    6.5628    1.4084    2.4325 H   0  0  0  0  0  0  0  0  0  0  0  0
    8.3944    2.5951    1.0931 H   0  0  0  0  0  0  0  0  0  0  0  0
   -4.1206    0.5229   -2.6195 H   0  0  0  0  0  0  0  0  0  0  0  0
    7.6466    0.9230   -1.2997 H   0  0  0  0  0  0  0  0  0  0  0  0
    8.2484    2.6290   -1.2512 H   0  0  0  0  0  0  0  0  0  0  0  0
   -3.3655    2.6688    0.5151 H   0  0  0  0  0  0  0  0  0  0  0  0
    5.9858    2.4352   -2.1998 H   0  0  0  0  0  0  0  0  0  0  0  0
    5.7665    3.2309   -0.5628 H   0  0  0  0  0  0  0  0  0  0  0  0
    5.4743    0.3211   -1.4545 H   0  0  0  0  0  0  0  0  0  0  0  0
    1.1850    1.7086   -0.5634 H   0  0  0  0  0  0  0  0  0  0  0  0
    1.3518    0.4541   -1.7684 H   0  0  0  0  0  0  0  0  0  0  0  0
   -0.8562    0.7905   -0.7620 H   0  0  0  0  0  0  0  0  0  0  0  0
   -0.2047    0.4361    0.8662 H   0  0  0  0  0  0  0  0  0  0  0  0
    0.1330   -3.1107   -0.9126 H   0  0  0  0  0  0  0  0  0  0  0  0
    2.3448   -2.9038   -1.1833 H   0  0  0  0  0  0  0  0  0  0  0  0
    1.7981   -1.4756   -2.0377 H   0  0  0  0  0  0  0  0  0  0  0  0
    3.7609   -1.1350   -0.5105 H   0  0  0  0  0  0  0  0  0  0  0  0
    2.8291   -1.6952    0.8811 H   0  0  0  0  0  0  0  0  0  0  0  0
   -1.5954   -1.8294    1.2562 H   0  0  0  0  0  0  0  0  0  0  0  0
   -3.2118   -1.3332   -1.2811 H   0  0  0  0  0  0  0  0  0  0  0  0
   -2.5020    0.6286    0.8628 H   0  0  0  0  0  0  0  0  0  0  0  0
   -4.7844    1.3789    1.2061 H   0  0  0  0  0  0  0  0  0  0  0  0
   -4.2560    0.0099    2.1887 H   0  0  0  0  0  0  0  0  0  0  0  0
   -6.2059    0.0745   -0.2065 H   0  0  0  0  0  0  0  0  0  0  0  0
   -6.4855   -0.4015    1.4681 H   0  0  0  0  0  0  0  0  0  0  0  0
   -5.6346   -2.0564   -0.8191 H   0  0  0  0  0  0  0  0  0  0  0  0
   -3.7931   -1.8839    1.6416 H   0  0  0  0  0  0  0  0  0  0  0  0
   -3.6942   -3.1486    0.4072 H   0  0  0  0  0  0  0  0  0  0  0  0
   -6.3122    1.9139   -1.8298 H   0  0  0  0  0  0  0  0  0  0  0  0
   -5.1050    2.4126   -3.0742 H   0  0  0  0  0  0  0  0  0  0  0  0
   -5.4419    3.2525   -0.2100 H   0  0  0  0  0  0  0  0  0  0  0  0
   -4.4656    4.0279   -1.5826 H   0  0  0  0  0  0  0  0  0  0  0  0
   -6.1105   -2.4842    2.1418 H   0  0  0  0  0  0  0  0  0  0  0  0
   -7.2930   -2.5996    0.8147 H   0  0  0  0  0  0  0  0  0  0  0  0
   -5.9317   -3.8306    0.9477 H   0  0  0  0  0  0  0  0  0  0  0  0
    1.6703   -3.3593    1.0300 H   0  0  0  0  0  0  0  0  0  0  0  0
    0.9921   -1.8763    1.7481 H   0  0  0  0  0  0  0  0  0  0  0  0
   -0.0519   -3.3098    1.4116 H   0  0  0  0  0  0  0  0  0  0  0  0
  1  2  1  0
  1  3  1  0
  1  5  1  0
  5  7  1  0
  7  9  1  0
  4 11  1  0
  9 11  1  0
 10 12  1  0
 11 13  1  0
 10 14  1  0
 13 15  1  0
  3 16  1  0
  7 16  1  0
 15 16  1  0
  2 17  1  0
  8 18  1  0
 17 18  1  0
  8 19  1  0
 19 20  1  0
  2 21  1  0
 20 21  1  0
  6 22  1  0
  8 22  1  0
 22 23  1  0
 10 24  1  0
 23 24  1  0
 24 25  1  0
 25 26  1  0
 26 27  1  0
 23 28  1  0
 27 28  1  0
 12 29  1  0
 14 30  1  0
 29 30  1  0
 27 31  1  0
 19 32  1  0
  1 33  1  0
  5 34  1  0
  6 35  1  0
  7 36  1  0
  9 37  1  0
  9 38  1  0
 11 39  1  0
 12 40  1  0
 13 41  1  0
 13 42  1  0
 14 43  1  0
 15 44  1  0
 15 45  1  0
 16 46  1  0
 17 47  1  0
 17 48  1  0
 18 49  1  0
 18 50  1  0
 19 51  1  6
 20 52  1  0
 20 53  1  0
 21 54  1  0
 21 55  1  0
 22 56  1  0
 23 57  1  0
 24 58  1  0
 25 59  1  0
 25 60  1  0
 26 61  1  0
 26 62  1  0
 27 63  1  0
 28 64  1  0
 28 65  1  0
 29 66  1  0
 29 67  1  0
 30 68  1  0
 30 69  1  0
 31 70  1  0
 31 71  1  0
 31 72  1  0
 32 73  1  0
 32 74  1  0
 32 75  1  0
M  END
>  <PDBID>  (1) 
4ZJ8

>  <PDB ID>  (1) 
4ZJ8

>  <Generic Name>  (1) 
Suvorexant

>  <Brand Name>  (1) 
Belsomra

>  <DrugBank ID>  (1) 
DB09034

>  <ATC Codes>  (1) 
nan

>  <Ligand ID>  (1) 
SUV

>  <Target Name>  (1) 
Orexin receptor type 1

>  <UniProt ID>  (1) 
O43613

>  <PDB ID.1>  (1) 
4ZJ8

>  <Seq. Identity>  (1) 
85%

$$$$
