PDB_DB00224_04
     RDKit          3D

114118  0  0  0  0  0  0  0  0999 V2000
    4.2478   -1.7778    0.7802 N   0  0  0  0  0  0  0  0  0  0  0  0
    4.2275   -0.5130    1.3034 C   0  0  0  0  0  0  0  0  0  0  0  0
    3.6266    0.6062    0.5065 C   0  0  1  0  0  0  0  0  0  0  0  0
    4.6531    1.5108   -0.0826 C   0  0  0  0  0  0  0  0  0  0  0  0
    5.3191    0.8505   -1.1472 O   0  0  0  0  0  0  0  0  0  0  0  0
    4.2096    2.7375   -0.5689 N   0  0  0  0  0  0  0  0  0  0  0  0
    3.6675    3.7501    0.2234 C   0  0  0  0  0  0  0  0  0  0  0  0
    4.6074    4.2517    1.3137 C   0  0  0  0  0  0  0  0  0  0  0  0
    2.2841    3.5915    0.7249 C   0  0  0  0  0  0  0  0  0  0  0  0
    3.5968    5.0035   -0.7347 C   0  0  0  0  0  0  0  0  0  0  0  0
    2.5835    0.1483   -0.3776 N   0  0  0  0  0  0  0  0  0  0  0  0
    2.9827   -0.9737   -1.1620 C   0  0  0  0  0  0  0  0  0  0  0  0
    3.5028   -2.1144   -0.3169 C   0  0  0  0  0  0  0  0  0  0  0  0
    1.3256    0.0548    0.2860 C   0  0  0  0  0  0  0  0  0  0  0  0
    0.1120   -0.2627   -0.5005 C   0  0  1  0  0  0  0  0  0  0  0  0
    0.2632   -1.5443   -1.0368 O   0  0  0  0  0  0  0  0  0  0  0  0
   -1.0934   -0.2671    0.3811 C   0  0  0  0  0  0  0  0  0  0  0  0
   -2.4171   -0.5152   -0.2345 C   0  0  1  0  0  0  0  0  0  0  0  0
   -2.8704    0.4466   -1.2793 C   0  0  0  0  0  0  0  0  0  0  0  0
   -3.1006    1.8501   -0.9476 C   0  0  0  0  0  0  0  0  0  0  0  0
   -2.0435    2.7160   -0.4078 C   0  0  0  0  0  0  0  0  0  0  0  0
   -2.4070    4.1644   -0.7624 C   0  0  0  0  0  0  0  0  0  0  0  0
   -3.8745    4.3243   -0.9649 C   0  0  0  0  0  0  0  0  0  0  0  0
   -4.7014    3.4692   -0.0537 C   0  0  0  0  0  0  0  0  0  0  0  0
   -4.4125    1.9896   -0.1720 C   0  0  0  0  0  0  0  0  0  0  0  0
   -2.7537   -1.9392   -0.5756 C   0  0  2  0  0  0  0  0  0  0  0  0
   -1.9275   -2.5447   -1.5038 O   0  0  0  0  0  0  0  0  0  0  0  0
   -4.0955   -2.1494   -0.9802 N   0  0  0  0  0  0  0  0  0  0  0  0
   -5.0443   -1.8738    0.0469 C   0  0  2  0  0  0  0  0  0  0  0  0
   -4.8391   -2.7650    1.2627 C   0  0  2  0  0  0  0  0  0  0  0  0
   -4.7111   -4.1004    0.9365 O   0  0  0  0  0  0  0  0  0  0  0  0
   -6.1715   -2.5691    1.9864 C   0  0  0  0  0  0  0  0  0  0  0  0
   -7.1099   -2.8341    0.7965 C   0  0  0  0  0  0  0  0  0  0  0  0
   -8.4982   -2.4690    1.1192 C   0  0  0  0  0  0  0  0  0  0  0  0
   -9.0494   -1.2806    0.3911 C   0  0  0  0  0  0  0  0  0  0  0  0
   -7.9658   -0.3651   -0.1300 C   0  0  0  0  0  0  0  0  0  0  0  0
   -7.1228   -1.1356   -1.0823 C   0  0  0  0  0  0  0  0  0  0  0  0
   -6.4580   -2.2677   -0.3867 C   0  0  0  0  0  0  0  0  0  0  0  0
    5.2708   -2.6605    1.1536 C   0  0  0  0  0  0  0  0  0  0  0  0
    6.6519   -2.4397    0.6611 C   0  0  0  0  0  0  0  0  0  0  0  0
    6.7879   -2.4811   -0.8472 C   0  0  0  0  0  0  0  0  0  0  0  0
    8.1697   -2.2809   -1.2523 N   0  0  0  0  0  0  0  0  0  0  0  0
    9.0743   -2.5623   -0.1843 C   0  0  0  0  0  0  0  0  0  0  0  0
    8.8921   -1.5690    0.9429 C   0  0  0  0  0  0  0  0  0  0  0  0
    7.3948   -1.2576    1.1612 C   0  0  0  0  0  0  0  0  0  0  0  0
    3.5838   -0.5598    2.2679 H   0  0  0  0  0  0  0  0  0  0  0  0
    5.2046   -0.1507    1.7487 H   0  0  0  0  0  0  0  0  0  0  0  0
    3.0749    1.2490    1.2687 H   0  0  0  0  0  0  0  0  0  0  0  0
    5.5133    1.6405    0.6716 H   0  0  0  0  0  0  0  0  0  0  0  0
    5.5247    1.4867   -1.8772 H   0  0  0  0  0  0  0  0  0  0  0  0
    4.2485    2.8913   -1.5975 H   0  0  0  0  0  0  0  0  0  0  0  0
    5.5916    4.4974    0.9062 H   0  0  0  0  0  0  0  0  0  0  0  0
    4.6245    3.5920    2.1939 H   0  0  0  0  0  0  0  0  0  0  0  0
    4.1747    5.2218    1.6707 H   0  0  0  0  0  0  0  0  0  0  0  0
    1.7588    4.6130    0.7041 H   0  0  0  0  0  0  0  0  0  0  0  0
    2.2492    3.3135    1.7821 H   0  0  0  0  0  0  0  0  0  0  0  0
    1.7353    2.9154    0.0471 H   0  0  0  0  0  0  0  0  0  0  0  0
    4.5328    5.0481   -1.3244 H   0  0  0  0  0  0  0  0  0  0  0  0
    3.3980    5.8962   -0.1379 H   0  0  0  0  0  0  0  0  0  0  0  0
    2.7652    4.8518   -1.4506 H   0  0  0  0  0  0  0  0  0  0  0  0
    2.2470   -1.3511   -1.8487 H   0  0  0  0  0  0  0  0  0  0  0  0
    3.8473   -0.6588   -1.8015 H   0  0  0  0  0  0  0  0  0  0  0  0
    2.6803   -2.8129   -0.0202 H   0  0  0  0  0  0  0  0  0  0  0  0
    4.1148   -2.7532   -1.0293 H   0  0  0  0  0  0  0  0  0  0  0  0
    1.4542   -0.8484    0.9937 H   0  0  0  0  0  0  0  0  0  0  0  0
    1.2120    0.8860    0.9955 H   0  0  0  0  0  0  0  0  0  0  0  0
   -0.0193    0.4918   -1.2859 H   0  0  0  0  0  0  0  0  0  0  0  0
    0.4309   -2.1517   -0.2414 H   0  0  0  0  0  0  0  0  0  0  0  0
   -0.9892   -1.1020    1.1727 H   0  0  0  0  0  0  0  0  0  0  0  0
   -1.1062    0.6440    0.9948 H   0  0  0  0  0  0  0  0  0  0  0  0
   -3.1465   -0.2929    0.6483 H   0  0  0  0  0  0  0  0  0  0  0  0
   -2.2309    0.3986   -2.2036 H   0  0  0  0  0  0  0  0  0  0  0  0
   -3.8620    0.0347   -1.6660 H   0  0  0  0  0  0  0  0  0  0  0  0
   -3.3889    2.3432   -1.9627 H   0  0  0  0  0  0  0  0  0  0  0  0
   -1.0661    2.4797   -0.8286 H   0  0  0  0  0  0  0  0  0  0  0  0
   -1.9645    2.7358    0.7008 H   0  0  0  0  0  0  0  0  0  0  0  0
   -1.8702    4.3956   -1.6981 H   0  0  0  0  0  0  0  0  0  0  0  0
   -2.0701    4.8587    0.0299 H   0  0  0  0  0  0  0  0  0  0  0  0
   -4.1288    5.3913   -0.6968 H   0  0  0  0  0  0  0  0  0  0  0  0
   -4.1441    4.2232   -2.0377 H   0  0  0  0  0  0  0  0  0  0  0  0
   -4.5376    3.7657    0.9924 H   0  0  0  0  0  0  0  0  0  0  0  0
   -5.7779    3.6830   -0.3393 H   0  0  0  0  0  0  0  0  0  0  0  0
   -5.1935    1.5531   -0.8260 H   0  0  0  0  0  0  0  0  0  0  0  0
   -4.3933    1.4541    0.7758 H   0  0  0  0  0  0  0  0  0  0  0  0
   -2.5678   -2.5707    0.3743 H   0  0  0  0  0  0  0  0  0  0  0  0
   -2.3416   -2.6001   -2.4037 H   0  0  0  0  0  0  0  0  0  0  0  0
   -4.3523   -1.9228   -1.9394 H   0  0  0  0  0  0  0  0  0  0  0  0
   -4.9911   -0.8420    0.3622 H   0  0  0  0  0  0  0  0  0  0  0  0
   -3.9867   -2.4292    1.8932 H   0  0  0  0  0  0  0  0  0  0  0  0
   -4.5589   -4.2569   -0.0229 H   0  0  0  0  0  0  0  0  0  0  0  0
   -6.2957   -1.5553    2.3837 H   0  0  0  0  0  0  0  0  0  0  0  0
   -6.2746   -3.3670    2.7560 H   0  0  0  0  0  0  0  0  0  0  0  0
   -7.0767   -3.9642    0.7047 H   0  0  0  0  0  0  0  0  0  0  0  0
   -8.5435   -2.2134    2.2201 H   0  0  0  0  0  0  0  0  0  0  0  0
   -9.2071   -3.3131    1.0034 H   0  0  0  0  0  0  0  0  0  0  0  0
   -9.6585   -1.5856   -0.4898 H   0  0  0  0  0  0  0  0  0  0  0  0
   -9.7144   -0.6586    1.0249 H   0  0  0  0  0  0  0  0  0  0  0  0
   -8.4926    0.4334   -0.7206 H   0  0  0  0  0  0  0  0  0  0  0  0
   -7.4342    0.1549    0.6661 H   0  0  0  0  0  0  0  0  0  0  0  0
   -6.3395   -0.4967   -1.5463 H   0  0  0  0  0  0  0  0  0  0  0  0
   -7.7774   -1.5202   -1.8887 H   0  0  0  0  0  0  0  0  0  0  0  0
   -6.2834   -3.0543   -1.1880 H   0  0  0  0  0  0  0  0  0  0  0  0
    5.0274   -3.7463    0.8588 H   0  0  0  0  0  0  0  0  0  0  0  0
    5.3157   -2.7894    2.2985 H   0  0  0  0  0  0  0  0  0  0  0  0
    7.2513   -3.3472    1.0121 H   0  0  0  0  0  0  0  0  0  0  0  0
    6.4031   -3.4462   -1.2387 H   0  0  0  0  0  0  0  0  0  0  0  0
    6.2055   -1.6879   -1.3339 H   0  0  0  0  0  0  0  0  0  0  0  0
    8.3611   -2.9489   -2.0281 H   0  0  0  0  0  0  0  0  0  0  0  0
    9.0863   -3.6114    0.1623 H   0  0  0  0  0  0  0  0  0  0  0  0
   10.1161   -2.3620   -0.5781 H   0  0  0  0  0  0  0  0  0  0  0  0
    9.2528   -2.0780    1.8610 H   0  0  0  0  0  0  0  0  0  0  0  0
    9.4763   -0.6496    0.8166 H   0  0  0  0  0  0  0  0  0  0  0  0
    7.3103   -1.0599    2.2431 H   0  0  0  0  0  0  0  0  0  0  0  0
    7.2292   -0.3366    0.5600 H   0  0  0  0  0  0  0  0  0  0  0  0
  1  2  1  0
  2  3  1  0
  3  4  1  0
  4  5  1  0
  4  6  1  0
  7  6  1  0
  7  8  1  0
  7  9  1  0
  7 10  1  0
  3 11  1  0
 11 12  1  0
  1 13  1  0
 12 13  1  0
 11 14  1  0
 14 15  1  0
 15 16  1  0
 15 17  1  0
 17 18  1  0
 18 19  1  0
 19 20  1  0
 20 21  1  0
 21 22  1  0
 22 23  1  0
 23 24  1  0
 20 25  1  0
 24 25  1  0
 18 26  1  0
 26 27  1  0
 26 28  1  0
 28 29  1  0
 29 30  1  0
 30 31  1  0
 30 32  1  0
 32 33  1  0
 33 34  1  0
 34 35  1  0
 35 36  1  0
 36 37  1  0
 29 38  1  0
 33 38  1  0
 37 38  1  0
  1 39  1  0
 39 40  1  0
 40 41  1  0
 41 42  1  0
 42 43  1  0
 43 44  1  0
 40 45  1  0
 44 45  1  0
  2 46  1  0
  2 47  1  0
  3 48  1  1
  4 49  1  0
  5 50  1  0
  6 51  1  0
  8 52  1  0
  8 53  1  0
  8 54  1  0
  9 55  1  0
  9 56  1  0
  9 57  1  0
 10 58  1  0
 10 59  1  0
 10 60  1  0
 12 61  1  0
 12 62  1  0
 13 63  1  0
 13 64  1  0
 14 65  1  0
 14 66  1  0
 15 67  1  6
 16 68  1  0
 17 69  1  0
 17 70  1  0
 18 71  1  1
 19 72  1  0
 19 73  1  0
 20 74  1  0
 21 75  1  0
 21 76  1  0
 22 77  1  0
 22 78  1  0
 23 79  1  0
 23 80  1  0
 24 81  1  0
 24 82  1  0
 25 83  1  0
 25 84  1  0
 26 85  1  1
 27 86  1  0
 28 87  1  0
 29 88  1  1
 30 89  1  1
 31 90  1  0
 32 91  1  0
 32 92  1  0
 33 93  1  0
 34 94  1  0
 34 95  1  0
 35 96  1  0
 35 97  1  0
 36 98  1  0
 36 99  1  0
 37100  1  0
 37101  1  0
 38102  1  0
 39103  1  0
 39104  1  0
 40105  1  0
 41106  1  0
 41107  1  0
 42108  1  0
 43109  1  0
 43110  1  0
 44111  1  0
 44112  1  0
 45113  1  0
 45114  1  0
M  END
>  <PDBID>  (1) 
1HSG

>  <PDB ID>  (1) 
1HSG

>  <Generic Name>  (1) 
Indinavir

>  <Brand Name>  (1) 
Crixivan

>  <DrugBank ID>  (1) 
DB00224

>  <ATC Codes>  (1) 
J05AE02

>  <Ligand ID>  (1) 
MK1

>  <Target Name>  (1) 
Pol polyprotein

>  <UniProt ID>  (1) 
Q72874

>  <PDB ID.1>  (1) 
1HSG

>  <Seq. Identity>  (1) 
99%

$$$$
