PDB_DB01409_04
     RDKit          3D

116124  0  0  0  0  0  0  0  0999 V2000
    0.6887    0.4107   -1.4444 C   0  0  2  0  0  0  0  0  0  0  0  0
    0.9480    1.4552   -2.3779 O   0  0  0  0  0  0  0  0  0  0  0  0
    2.2635    1.6532   -0.0892 C   0  0  0  0  0  0  0  0  0  0  0  0
    2.0225   -0.7856    0.2777 C   0  0  0  0  0  0  0  0  0  0  0  0
    3.4580    1.9709    0.6985 C   0  0  0  0  0  0  0  0  0  0  0  0
    4.6337    2.0477   -0.2494 C   0  0  0  0  0  0  0  0  0  0  0  0
    4.3074    3.1296   -1.2528 C   0  0  0  0  0  0  0  0  0  0  0  0
    3.1868   -1.1290    1.0793 C   0  0  0  0  0  0  0  0  0  0  0  0
    3.4444   -2.5899    1.1522 C   0  0  0  0  0  0  0  0  0  0  0  0
    2.2398   -3.3940    0.8749 C   0  0  0  0  0  0  0  0  0  0  0  0
   -4.8204    1.2003    1.6812 O   0  0  0  0  0  0  0  0  0  0  0  0
   -0.3197    0.8737   -0.6632 O   0  0  0  0  0  0  0  0  0  0  0  0
    2.9829    0.0321   -1.6645 O   0  0  0  0  0  0  0  0  0  0  0  0
    2.4925    2.9205   -1.4440 S   0  0  0  0  0  0  0  0  0  0  0  0
    1.5098   -2.3691   -0.4694 S   0  0  0  0  0  0  0  0  0  0  0  0
   -5.3278   -0.9837    0.6564 C   0  0  0  0  0  0  0  0  0  0  0  0
   -3.9468    0.5236   -0.5265 C   0  0  2  0  0  0  0  0  0  0  0  0
   -2.6549    0.7538   -1.2429 C   0  0  0  0  0  0  0  0  0  0  0  0
   -1.4684    0.0800   -0.6155 C   0  0  2  0  0  0  0  0  0  0  0  0
   -1.6675   -0.3743    0.7780 C   0  0  0  0  0  0  0  0  0  0  0  0
   -3.0708   -0.5356    1.2281 C   0  0  1  0  0  0  0  0  0  0  0  0
   -3.5234    0.7845    1.8405 C   0  0  1  0  0  0  0  0  0  0  0  0
   -4.0089    1.5315    0.6212 C   0  0  2  0  0  0  0  0  0  0  0  0
   -3.6254   -1.8624   -0.6745 C   0  0  0  0  0  0  0  0  0  0  0  0
    2.0580    0.3228   -0.6869 C   0  0  0  0  0  0  0  0  0  0  0  0
   -4.0024   -0.7507    0.1403 N   0  0  0  0  0  0  0  0  0  0  0  0
    0.6523   -0.5814    1.1154 C   0  0  1  0  0  0  0  0  0  0  0  0
    0.9911   -0.5335    2.4655 O   0  0  0  0  0  0  0  0  0  0  0  0
    2.4678    0.9472    0.8852 C   0  0  0  0  0  0  0  0  0  0  0  0
    2.8596   -1.4965    0.6551 C   0  0  0  0  0  0  0  0  0  0  0  0
    3.7244    1.5306    0.3925 C   0  0  0  0  0  0  0  0  0  0  0  0
    3.4996    1.9780   -1.0345 C   0  0  0  0  0  0  0  0  0  0  0  0
    2.3603    2.9776   -1.0042 C   0  0  0  0  0  0  0  0  0  0  0  0
    4.1853   -1.5960    0.0456 C   0  0  0  0  0  0  0  0  0  0  0  0
    4.4375   -2.9250   -0.5911 C   0  0  0  0  0  0  0  0  0  0  0  0
    3.6584   -4.0071    0.0609 C   0  0  0  0  0  0  0  0  0  0  0  0
   -4.7197    2.5947   -0.2988 O   0  0  0  0  0  0  0  0  0  0  0  0
   -0.2394    0.4345    0.8587 O   0  0  0  0  0  0  0  0  0  0  0  0
    1.6635   -0.3695   -0.9921 O   0  0  0  0  0  0  0  0  0  0  0  0
    1.3020    2.2793    0.3267 S   0  0  0  0  0  0  0  0  0  0  0  0
    2.0606   -3.1113    0.2875 S   0  0  0  0  0  0  0  0  0  0  0  0
   -5.4503    0.2943   -0.8075 C   0  0  0  0  0  0  0  0  0  0  0  0
   -3.1865    0.8360   -1.2218 C   0  0  2  0  0  0  0  0  0  0  0  0
   -1.7373    0.5358   -0.9405 C   0  0  0  0  0  0  0  0  0  0  0  0
   -1.4742   -0.0446    0.3987 C   0  0  2  0  0  0  0  0  0  0  0  0
   -2.5021    0.2607    1.4405 C   0  0  0  0  0  0  0  0  0  0  0  0
   -3.8634    0.5621    0.8989 C   0  0  1  0  0  0  0  0  0  0  0  0
   -3.9679    2.0559    0.7107 C   0  0  1  0  0  0  0  0  0  0  0  0
   -3.4571    2.2358   -0.7028 C   0  0  2  0  0  0  0  0  0  0  0  0
   -3.8548   -1.3775   -0.5349 C   0  0  0  0  0  0  0  0  0  0  0  0
    1.9876   -0.3433    0.3379 C   0  0  0  0  0  0  0  0  0  0  0  0
   -4.0815    0.0410   -0.4349 N   0  0  0  0  0  0  0  0  0  0  0  0
    0.5559   -0.5386   -1.9470 H   0  0  0  0  0  0  0  0  0  0  0  0
    1.3415    1.1069   -3.2009 H   0  0  0  0  0  0  0  0  0  0  0  0
    1.3625    2.0335    0.4570 H   0  0  0  0  0  0  0  0  0  0  0  0
    1.1690   -0.5507    1.0035 H   0  0  0  0  0  0  0  0  0  0  0  0
    3.7034    1.3802    1.5482 H   0  0  0  0  0  0  0  0  0  0  0  0
    3.3533    3.0383    1.0833 H   0  0  0  0  0  0  0  0  0  0  0  0
    5.5011    2.4038    0.3432 H   0  0  0  0  0  0  0  0  0  0  0  0
    4.9089    1.1097   -0.7234 H   0  0  0  0  0  0  0  0  0  0  0  0
    4.5606    4.1257   -0.8850 H   0  0  0  0  0  0  0  0  0  0  0  0
    4.7966    2.8483   -2.2027 H   0  0  0  0  0  0  0  0  0  0  0  0
    3.1035   -0.7420    2.1372 H   0  0  0  0  0  0  0  0  0  0  0  0
    4.1035   -0.6752    0.6511 H   0  0  0  0  0  0  0  0  0  0  0  0
    4.2352   -2.8978    0.4102 H   0  0  0  0  0  0  0  0  0  0  0  0
    3.8712   -2.8504    2.1418 H   0  0  0  0  0  0  0  0  0  0  0  0
    1.5428   -3.3521    1.7310 H   0  0  0  0  0  0  0  0  0  0  0  0
    2.4679   -4.3967    0.5225 H   0  0  0  0  0  0  0  0  0  0  0  0
    2.7228   -0.6996   -2.2590 H   0  0  0  0  0  0  0  0  0  0  0  0
   -5.7413   -1.9704    0.2938 H   0  0  0  0  0  0  0  0  0  0  0  0
   -6.0528   -0.2247    0.2964 H   0  0  0  0  0  0  0  0  0  0  0  0
   -5.3352   -1.0780    1.7716 H   0  0  0  0  0  0  0  0  0  0  0  0
   -4.7995    0.6916   -1.2031 H   0  0  0  0  0  0  0  0  0  0  0  0
   -2.8047    0.4523   -2.3018 H   0  0  0  0  0  0  0  0  0  0  0  0
   -2.5225    1.8750   -1.2856 H   0  0  0  0  0  0  0  0  0  0  0  0
   -1.2550   -0.8035   -1.2540 H   0  0  0  0  0  0  0  0  0  0  0  0
   -1.1642    0.3312    1.5048 H   0  0  0  0  0  0  0  0  0  0  0  0
   -1.1411   -1.3563    0.9736 H   0  0  0  0  0  0  0  0  0  0  0  0
   -3.2144   -1.3381    1.9699 H   0  0  0  0  0  0  0  0  0  0  0  0
   -2.8324    1.2789    2.5419 H   0  0  0  0  0  0  0  0  0  0  0  0
   -3.6013    2.5310    0.4872 H   0  0  0  0  0  0  0  0  0  0  0  0
   -2.7407   -2.3898   -0.2373 H   0  0  0  0  0  0  0  0  0  0  0  0
   -3.4630   -1.6048   -1.7437 H   0  0  0  0  0  0  0  0  0  0  0  0
   -4.4311   -2.6535   -0.6948 H   0  0  0  0  0  0  0  0  0  0  0  0
    0.2673   -1.5945    0.9119 H   0  0  0  0  0  0  0  0  0  0  0  0
    0.7066    0.3144    2.8898 H   0  0  0  0  0  0  0  0  0  0  0  0
    2.4544    0.8920    1.9880 H   0  0  0  0  0  0  0  0  0  0  0  0
    3.0077   -1.5386    1.7822 H   0  0  0  0  0  0  0  0  0  0  0  0
    4.6491    1.0027    0.4834 H   0  0  0  0  0  0  0  0  0  0  0  0
    3.8702    2.5075    0.9626 H   0  0  0  0  0  0  0  0  0  0  0  0
    4.4219    2.5103   -1.3502 H   0  0  0  0  0  0  0  0  0  0  0  0
    3.3241    1.1641   -1.7369 H   0  0  0  0  0  0  0  0  0  0  0  0
    2.7444    3.9397   -0.6685 H   0  0  0  0  0  0  0  0  0  0  0  0
    1.8140    2.9894   -1.9520 H   0  0  0  0  0  0  0  0  0  0  0  0
    5.0244   -1.3051    0.7171 H   0  0  0  0  0  0  0  0  0  0  0  0
    4.2242   -0.8585   -0.8157 H   0  0  0  0  0  0  0  0  0  0  0  0
    4.3121   -2.9275   -1.6936 H   0  0  0  0  0  0  0  0  0  0  0  0
    5.5311   -3.1633   -0.4356 H   0  0  0  0  0  0  0  0  0  0  0  0
    4.0447   -4.3204    1.0339 H   0  0  0  0  0  0  0  0  0  0  0  0
    3.5050   -4.8242   -0.6641 H   0  0  0  0  0  0  0  0  0  0  0  0
    0.8749   -0.9425   -1.1968 H   0  0  0  0  0  0  0  0  0  0  0  0
   -6.0549    0.7062    0.0295 H   0  0  0  0  0  0  0  0  0  0  0  0
   -5.5300    0.9373   -1.7317 H   0  0  0  0  0  0  0  0  0  0  0  0
   -5.9916   -0.6523   -1.1038 H   0  0  0  0  0  0  0  0  0  0  0  0
   -3.3429    0.7652   -2.3082 H   0  0  0  0  0  0  0  0  0  0  0  0
   -1.3821   -0.2177   -1.7044 H   0  0  0  0  0  0  0  0  0  0  0  0
   -1.1480    1.4489   -1.1590 H   0  0  0  0  0  0  0  0  0  0  0  0
   -1.3695   -1.1686    0.3749 H   0  0  0  0  0  0  0  0  0  0  0  0
   -2.1533    1.1344    2.0582 H   0  0  0  0  0  0  0  0  0  0  0  0
   -2.6192   -0.5847    2.1737 H   0  0  0  0  0  0  0  0  0  0  0  0
   -4.6881    0.2116    1.5507 H   0  0  0  0  0  0  0  0  0  0  0  0
   -3.5727    2.7194    1.5101 H   0  0  0  0  0  0  0  0  0  0  0  0
   -2.7615    3.0413   -0.9375 H   0  0  0  0  0  0  0  0  0  0  0  0
   -3.6780   -1.8117    0.4544 H   0  0  0  0  0  0  0  0  0  0  0  0
   -3.0437   -1.6304   -1.2783 H   0  0  0  0  0  0  0  0  0  0  0  0
   -4.7567   -1.9222   -0.9438 H   0  0  0  0  0  0  0  0  0  0  0  0
  1  2  1  0
  3  5  1  0
  5  6  1  0
  6  7  1  0
  4  8  1  0
  8  9  1  0
  9 10  1  0
  1 12  1  0
  3 14  1  0
  7 14  1  0
  4 15  1  0
 10 15  1  0
 17 18  1  0
 12 19  1  0
 18 19  1  0
 19 20  1  0
 20 21  1  0
 11 22  1  0
 21 22  1  0
 11 23  1  0
 17 23  1  0
 22 23  1  0
  1 25  1  0
  3 25  1  0
  4 25  1  0
 25 13  1  0
 26 16  1  0
 17 26  1  0
 21 26  1  0
 24 26  1  0
 27 28  1  0
 29 31  1  0
 31 32  1  0
 32 33  1  0
 30 34  1  0
 34 35  1  0
 35 36  1  0
 27 38  1  0
 29 40  1  0
 33 40  1  0
 30 41  1  0
 36 41  1  0
 43 44  1  0
 38 45  1  0
 44 45  1  0
 45 46  1  0
 46 47  1  0
 37 48  1  0
 47 48  1  0
 37 49  1  0
 43 49  1  0
 48 49  1  0
 27 51  1  0
 29 51  1  0
 30 51  1  0
 51 39  1  0
 52 42  1  0
 43 52  1  0
 47 52  1  0
 50 52  1  0
  1 53  1  6
  2 54  1  0
  3 55  1  0
  4 56  1  0
  5 57  1  0
  5 58  1  0
  6 59  1  0
  6 60  1  0
  7 61  1  0
  7 62  1  0
  8 63  1  0
  8 64  1  0
  9 65  1  0
  9 66  1  0
 10 67  1  0
 10 68  1  0
 13 69  1  0
 16 70  1  0
 16 71  1  0
 16 72  1  0
 17 73  1  6
 18 74  1  0
 18 75  1  0
 19 76  1  6
 20 77  1  0
 20 78  1  0
 21 79  1  1
 22 80  1  1
 23 81  1  6
 24 82  1  0
 24 83  1  0
 24 84  1  0
 27 85  1  6
 28 86  1  0
 29 87  1  0
 30 88  1  0
 31 89  1  0
 31 90  1  0
 32 91  1  0
 32 92  1  0
 33 93  1  0
 33 94  1  0
 34 95  1  0
 34 96  1  0
 35 97  1  0
 35 98  1  0
 36 99  1  0
 36100  1  0
 39101  1  0
 42102  1  0
 42103  1  0
 42104  1  0
 43105  1  6
 44106  1  0
 44107  1  0
 45108  1  6
 46109  1  0
 46110  1  0
 47111  1  1
 48112  1  1
 49113  1  1
 50114  1  0
 50115  1  0
 50116  1  0
M  CHG  2  26   1  52   1
M  END
>  <PDBID>  (1) 
4U15

>  <PDB ID>  (1) 
4U15

>  <Generic Name>  (1) 
Tiotropium

>  <Brand Name>  (1) 
Inspiolto Respimat#Spiriva#Spiriva Respimat#Stiolto Respimat

>  <DrugBank ID>  (1) 
DB01409

>  <ATC Codes>  (1) 
R03AL06#R03BB54#R03BB04

>  <Ligand ID>  (1) 
0HK

>  <Target Name>  (1) 
Muscarinic acetylcholine receptor M3

>  <UniProt ID>  (1) 
P20309

>  <PDB ID.1>  (1) 
4U15

>  <Seq. Identity>  (1) 
98%

$$$$
