PDB_DB01045_05
     RDKit          3D

141145  0  0  0  0  0  0  0  0999 V2000
    2.4837    0.3278   -2.7648 C   0  0  0  0  0  0  0  0  0  0  0  0
    3.1923    1.1555   -1.7054 C   0  0  2  0  0  0  0  0  0  0  0  0
    4.0263    0.1691   -0.8948 C   0  0  0  0  0  0  0  0  0  0  0  0
    3.1076   -0.6934   -0.1137 C   0  0  0  0  0  0  0  0  0  0  0  0
    1.2845   -2.2745   -0.3172 C   0  0  0  0  0  0  0  0  0  0  0  0
    0.2239   -2.7819   -1.3009 C   0  0  0  0  0  0  0  0  0  0  0  0
    0.9471   -3.1532   -2.5538 C   0  0  0  0  0  0  0  0  0  0  0  0
    1.9456   -2.0641   -2.8989 C   0  0  0  0  0  0  0  0  0  0  0  0
    1.6583   -0.7664   -2.1766 C   0  0  0  0  0  0  0  0  0  0  0  0
    1.7506   -0.8930   -0.6922 C   0  0  0  0  0  0  0  0  0  0  0  0
    0.4706   -2.3063    0.9465 C   0  0  0  0  0  0  0  0  0  0  0  0
   -0.2743   -3.6240    0.7116 C   0  0  2  0  0  0  0  0  0  0  0  0
    0.6696   -4.7081    1.2511 C   0  0  0  0  0  0  0  0  0  0  0  0
    1.7420   -4.4406   -2.3035 C   0  0  0  0  0  0  0  0  0  0  0  0
    2.4448    3.3314   -0.9931 C   0  0  0  0  0  0  0  0  0  0  0  0
    1.3059    4.0173   -1.6680 C   0  0  1  0  0  0  0  0  0  0  0  0
   -0.0409    3.3677   -1.4183 C   0  0  0  0  0  0  0  0  0  0  0  0
   -0.4254    3.2849    0.0059 C   0  0  0  0  0  0  0  0  0  0  0  0
   -1.7824    3.7906    0.3748 C   0  0  0  0  0  0  0  0  0  0  0  0
   -2.7857    3.7723   -0.7216 C   0  0  1  0  0  0  0  0  0  0  0  0
   -4.2011    3.5942   -0.3108 C   0  0  1  0  0  0  0  0  0  0  0  0
   -4.5081    2.4636    0.6105 C   0  0  2  0  0  0  0  0  0  0  0  0
   -4.0332    1.1277    0.1193 C   0  0  2  0  0  0  0  0  0  0  0  0
   -5.0718    0.2051   -0.3913 C   0  0  2  0  0  0  0  0  0  0  0  0
   -5.5710   -0.8624    0.5137 C   0  0  1  0  0  0  0  0  0  0  0  0
   -5.8181   -2.1822   -0.1797 C   0  0  1  0  0  0  0  0  0  0  0  0
   -4.9076   -3.3032    0.1896 C   0  0  2  0  0  0  0  0  0  0  0  0
   -3.6454   -2.9459    0.8876 C   0  0  0  0  0  0  0  0  0  0  0  0
   -2.5680   -4.0331    0.6982 C   0  0  0  0  0  0  0  0  0  0  0  0
    1.2948    5.4924   -1.3602 C   0  0  0  0  0  0  0  0  0  0  0  0
   -2.7150    5.1523   -1.4004 C   0  0  0  0  0  0  0  0  0  0  0  0
   -6.0264    2.5250    0.8152 C   0  0  0  0  0  0  0  0  0  0  0  0
   -4.5800   -0.3675   -1.7345 C   0  0  0  0  0  0  0  0  0  0  0  0
   -7.2563   -2.6760    0.0752 C   0  0  0  0  0  0  0  0  0  0  0  0
   -5.5409   -0.6361    2.8205 C   0  0  2  0  0  0  0  0  0  0  0  0
   -5.6478   -1.7330    3.8296 C   0  0  0  0  0  0  0  0  0  0  0  0
   -4.9685   -5.2821   -1.0475 C   0  0  0  0  0  0  0  0  0  0  0  0
   10.1348    0.7763    2.9581 C   0  0  0  0  0  0  0  0  0  0  0  0
    8.6013    2.1717    1.7449 C   0  0  0  0  0  0  0  0  0  0  0  0
    7.8879    1.1955    0.8359 C   0  0  0  0  0  0  0  0  0  0  0  0
    7.1801   -0.0864    2.6599 C   0  0  0  0  0  0  0  0  0  0  0  0
    7.8339    0.8908    3.6290 C   0  0  0  0  0  0  0  0  0  0  0  0
    5.0193    0.9402   -0.0564 C   0  0  0  0  0  0  0  0  0  0  0  0
    2.2922    1.9095   -0.8864 N   0  0  0  0  0  0  0  0  0  0  0  0
    5.8269    0.0291    0.7265 N   0  0  0  0  0  0  0  0  0  0  0  0
    6.7544    0.6608    1.5170 N   0  0  0  0  0  0  0  0  0  0  0  0
    8.9421    1.5927    3.0212 N   0  0  0  0  0  0  0  0  0  0  0  0
    3.4770   -0.1992   -3.6035 O   0  0  0  0  0  0  0  0  0  0  0  0
    1.8084   -1.8090   -4.2666 O   0  0  0  0  0  0  0  0  0  0  0  0
   -0.3749   -3.8110   -0.6361 O   0  0  0  0  0  0  0  0  0  0  0  0
   -0.4109   -1.2523    1.0504 O   0  0  0  0  0  0  0  0  0  0  0  0
   -1.4288   -3.7035    1.4303 O   0  0  0  0  0  0  0  0  0  0  0  0
   -4.5413   -3.9877   -0.9754 O   0  0  0  0  0  0  0  0  0  0  0  0
   -4.8717   -0.9229    1.6705 O   0  0  0  0  0  0  0  0  0  0  0  0
   -5.0186    0.4813    3.4496 O   0  0  0  0  0  0  0  0  0  0  0  0
   -3.1531    0.6020    1.0512 O   0  0  0  0  0  0  0  0  0  0  0  0
   -4.7421    4.7683    0.2122 O   0  0  0  0  0  0  0  0  0  0  0  0
    3.6181    3.6363   -1.7030 O   0  0  0  0  0  0  0  0  0  0  0  0
    3.7233   -1.9574    0.0409 O   0  0  0  0  0  0  0  0  0  0  0  0
    1.8931    1.0363   -3.3922 H   0  0  0  0  0  0  0  0  0  0  0  0
    3.9292    1.8074   -2.2326 H   0  0  0  0  0  0  0  0  0  0  0  0
    4.5464   -0.4613   -1.6441 H   0  0  0  0  0  0  0  0  0  0  0  0
    2.9602   -0.3312    0.9464 H   0  0  0  0  0  0  0  0  0  0  0  0
    2.0810   -3.0123   -0.2453 H   0  0  0  0  0  0  0  0  0  0  0  0
   -0.5167   -2.0087   -1.5492 H   0  0  0  0  0  0  0  0  0  0  0  0
    0.2425   -3.3689   -3.3650 H   0  0  0  0  0  0  0  0  0  0  0  0
    2.9853   -2.4041   -2.7446 H   0  0  0  0  0  0  0  0  0  0  0  0
    0.5815   -0.5240   -2.4237 H   0  0  0  0  0  0  0  0  0  0  0  0
    1.0378   -0.1701   -0.2463 H   0  0  0  0  0  0  0  0  0  0  0  0
    1.0711   -2.3468    1.8674 H   0  0  0  0  0  0  0  0  0  0  0  0
    0.1134   -5.6559    1.3689 H   0  0  0  0  0  0  0  0  0  0  0  0
    0.9830   -4.3888    2.2846 H   0  0  0  0  0  0  0  0  0  0  0  0
    1.5635   -4.7824    0.6306 H   0  0  0  0  0  0  0  0  0  0  0  0
    2.7088   -4.1910   -1.7863 H   0  0  0  0  0  0  0  0  0  0  0  0
    2.0559   -4.8370   -3.3117 H   0  0  0  0  0  0  0  0  0  0  0  0
    1.1818   -5.1654   -1.7113 H   0  0  0  0  0  0  0  0  0  0  0  0
    2.5816    3.8342    0.0074 H   0  0  0  0  0  0  0  0  0  0  0  0
    1.4765    3.9262   -2.7793 H   0  0  0  0  0  0  0  0  0  0  0  0
    0.0689    2.3106   -1.8042 H   0  0  0  0  0  0  0  0  0  0  0  0
   -0.7465    3.8503   -2.0990 H   0  0  0  0  0  0  0  0  0  0  0  0
   -0.2935    2.2416    0.4181 H   0  0  0  0  0  0  0  0  0  0  0  0
    0.3176    3.8924    0.6031 H   0  0  0  0  0  0  0  0  0  0  0  0
   -2.1713    3.1878    1.2216 H   0  0  0  0  0  0  0  0  0  0  0  0
   -1.7449    4.8419    0.7872 H   0  0  0  0  0  0  0  0  0  0  0  0
   -2.5285    3.0606   -1.5317 H   0  0  0  0  0  0  0  0  0  0  0  0
   -4.7901    3.4050   -1.2562 H   0  0  0  0  0  0  0  0  0  0  0  0
   -4.0911    2.6706    1.6306 H   0  0  0  0  0  0  0  0  0  0  0  0
   -3.3604    1.3888   -0.7637 H   0  0  0  0  0  0  0  0  0  0  0  0
   -5.9216    0.8838   -0.7418 H   0  0  0  0  0  0  0  0  0  0  0  0
   -6.6300   -0.5338    0.8043 H   0  0  0  0  0  0  0  0  0  0  0  0
   -5.7937   -2.0748   -1.2879 H   0  0  0  0  0  0  0  0  0  0  0  0
   -5.4805   -4.0810    0.7846 H   0  0  0  0  0  0  0  0  0  0  0  0
   -3.1946   -2.0394    0.4958 H   0  0  0  0  0  0  0  0  0  0  0  0
   -3.8263   -2.9627    1.9858 H   0  0  0  0  0  0  0  0  0  0  0  0
   -2.9044   -5.0052    1.0958 H   0  0  0  0  0  0  0  0  0  0  0  0
   -2.2772   -4.1585   -0.3432 H   0  0  0  0  0  0  0  0  0  0  0  0
    1.0486    5.7100   -0.3132 H   0  0  0  0  0  0  0  0  0  0  0  0
    2.3327    5.8585   -1.5351 H   0  0  0  0  0  0  0  0  0  0  0  0
    0.6344    6.0566   -2.0553 H   0  0  0  0  0  0  0  0  0  0  0  0
   -1.8270    5.7248   -1.0703 H   0  0  0  0  0  0  0  0  0  0  0  0
   -2.8062    5.0692   -2.5019 H   0  0  0  0  0  0  0  0  0  0  0  0
   -3.5914    5.7924   -1.0901 H   0  0  0  0  0  0  0  0  0  0  0  0
   -6.4175    1.7486    1.4584 H   0  0  0  0  0  0  0  0  0  0  0  0
   -6.1738    3.4905    1.3904 H   0  0  0  0  0  0  0  0  0  0  0  0
   -6.5689    2.7024   -0.1315 H   0  0  0  0  0  0  0  0  0  0  0  0
   -5.4100   -0.4663   -2.4623 H   0  0  0  0  0  0  0  0  0  0  0  0
   -3.9294    0.4275   -2.1600 H   0  0  0  0  0  0  0  0  0  0  0  0
   -3.9617   -1.2541   -1.6188 H   0  0  0  0  0  0  0  0  0  0  0  0
   -7.9599   -2.1608   -0.6222 H   0  0  0  0  0  0  0  0  0  0  0  0
   -7.4674   -2.4419    1.1421 H   0  0  0  0  0  0  0  0  0  0  0  0
   -7.2479   -3.7646   -0.0324 H   0  0  0  0  0  0  0  0  0  0  0  0
   -6.6017   -0.3844    2.5389 H   0  0  0  0  0  0  0  0  0  0  0  0
   -4.6529   -1.8286    4.3159 H   0  0  0  0  0  0  0  0  0  0  0  0
   -6.3622   -1.5075    4.6457 H   0  0  0  0  0  0  0  0  0  0  0  0
   -5.8413   -2.7316    3.3642 H   0  0  0  0  0  0  0  0  0  0  0  0
   -4.6187   -5.9565   -0.2419 H   0  0  0  0  0  0  0  0  0  0  0  0
   -4.4866   -5.7130   -1.9803 H   0  0  0  0  0  0  0  0  0  0  0  0
   -6.0504   -5.4312   -1.2283 H   0  0  0  0  0  0  0  0  0  0  0  0
   10.6959    0.9412    3.9007 H   0  0  0  0  0  0  0  0  0  0  0  0
   10.7890    1.0509    2.1240 H   0  0  0  0  0  0  0  0  0  0  0  0
    9.8700   -0.3178    2.9434 H   0  0  0  0  0  0  0  0  0  0  0  0
    7.9949    3.0871    1.8501 H   0  0  0  0  0  0  0  0  0  0  0  0
    9.5461    2.4585    1.2398 H   0  0  0  0  0  0  0  0  0  0  0  0
    8.6266    0.4546    0.5095 H   0  0  0  0  0  0  0  0  0  0  0  0
    7.5092    1.8069   -0.0282 H   0  0  0  0  0  0  0  0  0  0  0  0
    7.8919   -0.8527    2.3290 H   0  0  0  0  0  0  0  0  0  0  0  0
    6.2875   -0.4969    3.1735 H   0  0  0  0  0  0  0  0  0  0  0  0
    8.2243    0.3391    4.4973 H   0  0  0  0  0  0  0  0  0  0  0  0
    7.0503    1.6051    3.9341 H   0  0  0  0  0  0  0  0  0  0  0  0
    5.6164    1.5626   -0.7498 H   0  0  0  0  0  0  0  0  0  0  0  0
    4.4875    1.6018    0.6562 H   0  0  0  0  0  0  0  0  0  0  0  0
    2.5239    1.6687    0.1247 H   0  0  0  0  0  0  0  0  0  0  0  0
    5.1655   -0.4872    1.3546 H   0  0  0  0  0  0  0  0  0  0  0  0
    4.0296    0.5020   -3.9996 H   0  0  0  0  0  0  0  0  0  0  0  0
    2.4443   -2.3728   -4.7858 H   0  0  0  0  0  0  0  0  0  0  0  0
   -0.9227   -1.0817    0.2207 H   0  0  0  0  0  0  0  0  0  0  0  0
   -4.0695    0.2512    3.7010 H   0  0  0  0  0  0  0  0  0  0  0  0
   -2.2170    0.8161    0.8993 H   0  0  0  0  0  0  0  0  0  0  0  0
   -4.3735    5.0327    1.0699 H   0  0  0  0  0  0  0  0  0  0  0  0
    3.4512    3.7522   -2.6671 H   0  0  0  0  0  0  0  0  0  0  0  0
    4.4916   -2.0702   -0.5546 H   0  0  0  0  0  0  0  0  0  0  0  0
  1  2  1  0
  2  3  1  0
  3  4  1  0
  5  6  1  0
  6  7  1  0
  7  8  1  0
  1  9  1  0
  8  9  1  0
  4 10  1  0
  5 10  1  0
  9 10  1  0
  5 11  1  0
 11 12  1  0
 12 13  1  1
  7 14  1  0
 15 16  1  0
 16 17  1  0
 17 18  1  0
 18 19  1  0
 19 20  1  0
 20 21  1  0
 21 22  1  0
 22 23  1  0
 23 24  1  0
 24 25  1  0
 25 26  1  0
 26 27  1  0
 27 28  1  0
 28 29  1  0
 16 30  1  0
 20 31  1  0
 22 32  1  0
 24 33  1  0
 26 34  1  0
 35 36  1  0
 39 40  1  0
 41 42  1  0
  3 43  1  0
  2 44  1  0
 15 44  1  0
 43 45  1  0
 40 46  1  0
 41 46  1  0
 45 46  1  0
 38 47  1  0
 39 47  1  0
 42 47  1  0
  1 48  1  0
  8 49  1  0
  6 50  1  0
 12 50  1  0
 11 51  1  0
 12 52  1  0
 29 52  1  0
 27 53  1  0
 37 53  1  0
 25 54  1  0
 35 54  1  0
 35 55  1  0
 23 56  1  0
 21 57  1  0
 15 58  1  0
  4 59  1  0
  1 60  1  0
  2 61  1  6
  3 62  1  0
  4 63  1  0
  5 64  1  0
  6 65  1  0
  7 66  1  0
  8 67  1  0
  9 68  1  0
 10 69  1  0
 11 70  1  0
 13 71  1  0
 13 72  1  0
 13 73  1  0
 14 74  1  0
 14 75  1  0
 14 76  1  0
 15 77  1  0
 16 78  1  6
 17 79  1  0
 17 80  1  0
 18 81  1  0
 18 82  1  0
 19 83  1  0
 19 84  1  0
 20 85  1  6
 21 86  1  6
 22 87  1  1
 23 88  1  6
 24 89  1  6
 25 90  1  1
 26 91  1  6
 27 92  1  1
 28 93  1  0
 28 94  1  0
 29 95  1  0
 29 96  1  0
 30 97  1  0
 30 98  1  0
 30 99  1  0
 31100  1  0
 31101  1  0
 31102  1  0
 32103  1  0
 32104  1  0
 32105  1  0
 33106  1  0
 33107  1  0
 33108  1  0
 34109  1  0
 34110  1  0
 34111  1  0
 35112  1  6
 36113  1  0
 36114  1  0
 36115  1  0
 37116  1  0
 37117  1  0
 37118  1  0
 38119  1  0
 38120  1  0
 38121  1  0
 39122  1  0
 39123  1  0
 40124  1  0
 40125  1  0
 41126  1  0
 41127  1  0
 42128  1  0
 42129  1  0
 43130  1  0
 43131  1  0
 44132  1  0
 45133  1  0
 48134  1  0
 49135  1  0
 51136  1  0
 55137  1  0
 56138  1  0
 57139  1  0
 58140  1  0
 59141  1  0
M  END
>  <PDBID>  (1) 
5UAC

>  <PDB ID>  (1) 
5UAC

>  <Generic Name>  (1) 
Rifampicin

>  <Brand Name>  (1) 
Isonarif#Rifadin#Rifadin Cap 300mg#Rifadin IV#Rifadin IV Novaplus#Rifamate#Rifampin#Rifater#Rofact 150mg#Rofact 300mg#Rifadine#Rifaldin#Rifoldin#Rimactan#Rimactane#Rofact#Tubocin

>  <DrugBank ID>  (1) 
DB01045

>  <ATC Codes>  (1) 
J04AM02#J04AB02#J04AM06#J04AM05

>  <Ligand ID>  (1) 
RFP

>  <Target Name>  (1) 
DNA-directed RNA polymerase subunit beta

>  <UniProt ID>  (1) 
P0A8V2

>  <PDB ID.1>  (1) 
5UAC

>  <Seq. Identity>  (1) 
100%

$$$$
