PDB_DB01606_06
     RDKit          3D

 42 44  0  0  0  0  0  0  0  0999 V2000
   -0.2785    1.5373   -0.4796 S   0  0  0  0  0  0  0  0  0  0  0  0
    0.0925   -0.2439   -0.5240 C   0  0  1  0  0  0  0  0  0  0  0  0
   -1.3115   -0.6507   -0.0218 C   0  0  2  0  0  0  0  0  0  0  0  0
   -1.9800    1.3012   -1.1124 C   0  0  2  0  0  0  0  0  0  0  0  0
   -3.0317    1.5930   -0.1143 C   0  0  0  0  0  0  0  0  0  0  0  0
   -3.5225    0.1898   -0.5069 C   0  0  2  0  0  0  0  0  0  0  0  0
   -1.4111   -2.1313   -0.0334 C   0  0  0  0  0  0  0  0  0  0  0  0
   -2.1842   -0.1196   -1.0457 N   0  0  0  0  0  0  0  0  0  0  0  0
    0.1877   -0.6780   -1.9596 C   0  0  0  0  0  0  0  0  0  0  0  0
    1.1601   -0.6627    0.3541 C   0  0  0  0  0  0  0  0  0  0  0  0
    4.3083    0.9787    0.9823 C   0  0  0  0  0  0  0  0  0  0  0  0
    2.8052    1.1408    0.6113 C   0  0  0  0  0  0  0  0  0  0  0  0
    2.4781   -0.1690    0.2517 N   0  0  0  0  0  0  0  0  0  0  0  0
    3.3612   -1.0749    0.8597 N   0  0  0  0  0  0  0  0  0  0  0  0
    4.2507   -0.3186    1.6256 N   0  0  0  0  0  0  0  0  0  0  0  0
    0.6968    2.5399   -1.5381 O   0  0  0  0  0  0  0  0  0  0  0  0
   -0.2692    2.0868    1.2158 O   0  0  0  0  0  0  0  0  0  0  0  0
   -4.5198    0.2318   -1.4510 O   0  0  0  0  0  0  0  0  0  0  0  0
   -0.6377   -2.7656    0.9269 O   0  0  0  0  0  0  0  0  0  0  0  0
   -2.7448   -2.5363    0.1697 O   0  0  0  0  0  0  0  0  0  0  0  0
   -1.5524   -0.1808    0.9339 H   0  0  0  0  0  0  0  0  0  0  0  0
   -2.0958    1.6939   -2.1195 H   0  0  0  0  0  0  0  0  0  0  0  0
   -3.7254    2.3979   -0.4653 H   0  0  0  0  0  0  0  0  0  0  0  0
   -2.7392    1.6760    0.9339 H   0  0  0  0  0  0  0  0  0  0  0  0
   -3.7924   -0.4377    0.3523 H   0  0  0  0  0  0  0  0  0  0  0  0
   -1.0730   -2.5557   -1.0255 H   0  0  0  0  0  0  0  0  0  0  0  0
    0.7140    0.0526   -2.6069 H   0  0  0  0  0  0  0  0  0  0  0  0
    0.6471   -1.6851   -1.9697 H   0  0  0  0  0  0  0  0  0  0  0  0
   -0.8312   -0.7887   -2.3861 H   0  0  0  0  0  0  0  0  0  0  0  0
    0.7866   -0.6436    1.4404 H   0  0  0  0  0  0  0  0  0  0  0  0
    1.2726   -1.7982    0.2090 H   0  0  0  0  0  0  0  0  0  0  0  0
    4.6531    1.7939    1.6123 H   0  0  0  0  0  0  0  0  0  0  0  0
    4.8777    0.8684    0.0169 H   0  0  0  0  0  0  0  0  0  0  0  0
    2.8320    1.9205   -0.1475 H   0  0  0  0  0  0  0  0  0  0  0  0
    2.3419    1.5065    1.5535 H   0  0  0  0  0  0  0  0  0  0  0  0
    3.9171   -1.5246    0.1003 H   0  0  0  0  0  0  0  0  0  0  0  0
    4.0213   -0.2749    2.6276 H   0  0  0  0  0  0  0  0  0  0  0  0
    0.5332    2.1252   -2.4022 H   0  0  0  0  0  0  0  0  0  0  0  0
    0.3552    2.8199    1.2815 H   0  0  0  0  0  0  0  0  0  0  0  0
   -4.6350   -0.6870   -1.8357 H   0  0  0  0  0  0  0  0  0  0  0  0
   -1.0955   -3.5972    1.2000 H   0  0  0  0  0  0  0  0  0  0  0  0
   -2.8616   -2.9299    1.0616 H   0  0  0  0  0  0  0  0  0  0  0  0
  1  2  1  0
  2  3  1  0
  1  4  1  0
  4  5  1  0
  5  6  1  0
  3  7  1  0
  3  8  1  0
  4  8  1  0
  6  8  1  0
  2  9  1  6
  2 10  1  0
 11 12  1  0
 10 13  1  0
 12 13  1  0
 13 14  1  0
 11 15  1  0
 14 15  1  0
  1 16  1  0
  1 17  1  0
  6 18  1  0
  7 19  1  0
  7 20  1  0
  3 21  1  1
  4 22  1  6
  5 23  1  0
  5 24  1  0
  6 25  1  1
  7 26  1  0
  9 27  1  0
  9 28  1  0
  9 29  1  0
 10 30  1  0
 10 31  1  0
 11 32  1  0
 11 33  1  0
 12 34  1  0
 12 35  1  0
 14 36  1  0
 15 37  1  0
 16 38  1  0
 17 39  1  0
 18 40  1  0
 19 41  1  0
 20 42  1  0
M  END
>  <PDBID>  (1) 
1VM1

>  <PDB ID>  (1) 
1VM1

>  <Generic Name>  (1) 
Tazobactam

>  <Brand Name>  (1) 
Jamp-pip/taz#Mylan-piperacillin and Tazobactam for Injection#Piperacillin / Tazobactam Powder for Injection#Piperacillin Sodium/tazobactam Sodium Powder for Injection#Piperacillin and Tazobactam#Piperacillin and Tazobactam for Injection#Piperacillin, Tazobactam#Piperacillin/tazobactam for Injection#Tazocin#Tazocin Pws IV 2g Piperacillin-.25g Tazobac.#Tazocin Pws IV 3g Piperacillin-.375g Tazobac#Tazocin Pws IV 4g Piperacillin-.5g Tazobac.#Vpi-piperacillin and Tazobactam for Injection#Zerbaxa#Zosyn#Zosyn In Galaxy Containers#Zosyn Pharmacy Bulk Package

>  <DrugBank ID>  (1) 
DB01606

>  <ATC Codes>  (1) 
J01CG02

>  <Ligand ID>  (1) 
TAZ

>  <Target Name>  (1) 
Beta-lactamase TEM

>  <UniProt ID>  (1) 
P62594

>  <PDB ID.1>  (1) 
1VM1

>  <Seq. Identity>  (1) 
66%

$$$$
