PDB_DB00820_04
     RDKit          3D

132142  0  0  0  0  0  0  0  0999 V2000
   -3.5364   -3.8865   -0.1177 C   0  0  0  0  0  0  0  0  0  0  0  0
   -4.4849   -2.7534    0.0471 C   0  0  0  0  0  0  0  0  0  0  0  0
   -3.8561   -1.4970    0.6063 C   0  0  0  0  0  0  0  0  0  0  0  0
   -2.6141   -1.1655   -0.1414 C   0  0  0  0  0  0  0  0  0  0  0  0
   -1.7425   -0.1350    0.4302 C   0  0  0  0  0  0  0  0  0  0  0  0
   -0.4392   -0.4223   -0.3493 C   0  0  0  0  0  0  0  0  0  0  0  0
   -0.4090   -1.8306   -0.4080 N   0  0  0  0  0  0  0  0  0  0  0  0
   -1.6673   -2.3678    0.0537 C   0  0  0  0  0  0  0  0  0  0  0  0
   -2.2126   -3.4816   -0.7529 C   0  0  0  0  0  0  0  0  0  0  0  0
    0.6134    0.3148    0.3722 C   0  0  2  0  0  0  0  0  0  0  0  0
    0.3838    1.7166    0.2453 N   0  0  0  0  0  0  0  0  0  0  0  0
    0.7596    2.3723   -0.9352 C   0  0  0  0  0  0  0  0  0  0  0  0
    2.0303    2.9583   -0.6963 O   0  0  0  0  0  0  0  0  0  0  0  0
   -0.1275    3.6039   -1.1907 C   0  0  0  0  0  0  0  0  0  0  0  0
   -0.3661    4.3459    0.0102 N   0  0  0  0  0  0  0  0  0  0  0  0
   -1.1721    3.5301    0.8885 C   0  0  0  0  0  0  0  0  0  0  0  0
   -1.0518    4.0511    2.1898 O   0  0  0  0  0  0  0  0  0  0  0  0
   -0.8933    2.0750    0.8134 C   0  0  1  0  0  0  0  0  0  0  0  0
   -2.0496    1.2807    0.2014 C   0  0  0  0  0  0  0  0  0  0  0  0
   -1.1051    5.5399   -0.3575 C   0  0  0  0  0  0  0  0  0  0  0  0
    2.0085   -0.1704    0.2973 C   0  0  0  0  0  0  0  0  0  0  0  0
    2.1265   -1.5345    0.9725 C   0  0  0  0  0  0  0  0  0  0  0  0
    2.7368   -2.5841    0.1051 C   0  0  0  0  0  0  0  0  0  0  0  0
    4.1218   -2.2037   -0.3780 C   0  0  0  0  0  0  0  0  0  0  0  0
    4.9535   -2.2401    0.7557 O   0  0  0  0  0  0  0  0  0  0  0  0
    5.5621   -0.9723    0.7932 C   0  0  0  0  0  0  0  0  0  0  0  0
    4.6016   -0.0982    0.2811 O   0  0  0  0  0  0  0  0  0  0  0  0
    4.0726   -0.7780   -0.8175 C   0  0  0  0  0  0  0  0  0  0  0  0
    2.6115   -0.3512   -1.0577 C   0  0  0  0  0  0  0  0  0  0  0  0
   -3.5364   -3.8865   -0.1177 C   0  0  0  0  0  0  0  0  0  0  0  0
   -4.4849   -2.7534    0.0471 C   0  0  0  0  0  0  0  0  0  0  0  0
   -3.8561   -1.4970    0.6063 C   0  0  0  0  0  0  0  0  0  0  0  0
   -2.6141   -1.1655   -0.1414 C   0  0  0  0  0  0  0  0  0  0  0  0
   -1.7425   -0.1350    0.4302 C   0  0  0  0  0  0  0  0  0  0  0  0
   -0.4392   -0.4223   -0.3493 C   0  0  0  0  0  0  0  0  0  0  0  0
   -0.4090   -1.8306   -0.4080 N   0  0  0  0  0  0  0  0  0  0  0  0
   -1.6673   -2.3678    0.0537 C   0  0  0  0  0  0  0  0  0  0  0  0
   -2.2126   -3.4816   -0.7529 C   0  0  0  0  0  0  0  0  0  0  0  0
    0.6134    0.3148    0.3722 C   0  0  2  0  0  0  0  0  0  0  0  0
    0.3838    1.7166    0.2453 N   0  0  0  0  0  0  0  0  0  0  0  0
    0.7596    2.3723   -0.9352 C   0  0  0  0  0  0  0  0  0  0  0  0
    2.0303    2.9583   -0.6963 O   0  0  0  0  0  0  0  0  0  0  0  0
   -0.1275    3.6039   -1.1907 C   0  0  0  0  0  0  0  0  0  0  0  0
   -0.3661    4.3459    0.0102 N   0  0  0  0  0  0  0  0  0  0  0  0
   -1.1721    3.5301    0.8885 C   0  0  0  0  0  0  0  0  0  0  0  0
   -1.0518    4.0511    2.1898 O   0  0  0  0  0  0  0  0  0  0  0  0
   -0.8933    2.0750    0.8134 C   0  0  1  0  0  0  0  0  0  0  0  0
   -2.0496    1.2807    0.2014 C   0  0  0  0  0  0  0  0  0  0  0  0
   -1.1051    5.5399   -0.3575 C   0  0  0  0  0  0  0  0  0  0  0  0
    2.0085   -0.1704    0.2973 C   0  0  0  0  0  0  0  0  0  0  0  0
    2.1265   -1.5345    0.9725 C   0  0  0  0  0  0  0  0  0  0  0  0
    2.7368   -2.5841    0.1051 C   0  0  0  0  0  0  0  0  0  0  0  0
    4.1218   -2.2037   -0.3780 C   0  0  0  0  0  0  0  0  0  0  0  0
    4.9535   -2.2401    0.7557 O   0  0  0  0  0  0  0  0  0  0  0  0
    5.5621   -0.9723    0.7932 C   0  0  0  0  0  0  0  0  0  0  0  0
    4.6016   -0.0982    0.2811 O   0  0  0  0  0  0  0  0  0  0  0  0
    4.0726   -0.7780   -0.8175 C   0  0  0  0  0  0  0  0  0  0  0  0
    2.6115   -0.3512   -1.0577 C   0  0  0  0  0  0  0  0  0  0  0  0
   -4.0107   -4.6598   -0.7359 H   0  0  0  0  0  0  0  0  0  0  0  0
   -3.2645   -4.3884    0.8503 H   0  0  0  0  0  0  0  0  0  0  0  0
   -5.0164   -2.5829   -0.9080 H   0  0  0  0  0  0  0  0  0  0  0  0
   -5.2648   -3.0647    0.7794 H   0  0  0  0  0  0  0  0  0  0  0  0
   -3.6026   -1.6705    1.6585 H   0  0  0  0  0  0  0  0  0  0  0  0
   -4.6229   -0.6890    0.5041 H   0  0  0  0  0  0  0  0  0  0  0  0
   -2.7715   -1.0615   -1.2395 H   0  0  0  0  0  0  0  0  0  0  0  0
   -1.5008   -0.3882    1.4796 H   0  0  0  0  0  0  0  0  0  0  0  0
   -0.6767    0.0258   -1.3653 H   0  0  0  0  0  0  0  0  0  0  0  0
   -0.3339   -2.1232   -1.4194 H   0  0  0  0  0  0  0  0  0  0  0  0
   -1.6474   -2.6615    1.1146 H   0  0  0  0  0  0  0  0  0  0  0  0
   -1.5522   -4.3750   -0.6656 H   0  0  0  0  0  0  0  0  0  0  0  0
   -2.3157   -3.2632   -1.8264 H   0  0  0  0  0  0  0  0  0  0  0  0
    0.3625    0.1433    1.4925 H   0  0  0  0  0  0  0  0  0  0  0  0
    0.7099    1.8162   -1.8688 H   0  0  0  0  0  0  0  0  0  0  0  0
    1.9283    3.3666    0.2203 H   0  0  0  0  0  0  0  0  0  0  0  0
    0.4646    4.2780   -1.8736 H   0  0  0  0  0  0  0  0  0  0  0  0
   -1.0425    3.3685   -1.7278 H   0  0  0  0  0  0  0  0  0  0  0  0
   -2.2367    3.7134    0.5984 H   0  0  0  0  0  0  0  0  0  0  0  0
   -0.2928    3.6680    2.6801 H   0  0  0  0  0  0  0  0  0  0  0  0
   -0.8518    1.7015    1.8825 H   0  0  0  0  0  0  0  0  0  0  0  0
   -2.9595    1.6458    0.7541 H   0  0  0  0  0  0  0  0  0  0  0  0
   -2.2071    1.4768   -0.8553 H   0  0  0  0  0  0  0  0  0  0  0  0
   -2.1170    5.3196   -0.7384 H   0  0  0  0  0  0  0  0  0  0  0  0
   -0.5687    6.1371   -1.1083 H   0  0  0  0  0  0  0  0  0  0  0  0
   -1.2344    6.2115    0.5327 H   0  0  0  0  0  0  0  0  0  0  0  0
    2.6571    0.5227    0.8616 H   0  0  0  0  0  0  0  0  0  0  0  0
    2.7369   -1.4503    1.9076 H   0  0  0  0  0  0  0  0  0  0  0  0
    1.1391   -1.8911    1.3220 H   0  0  0  0  0  0  0  0  0  0  0  0
    2.1011   -2.9687   -0.7067 H   0  0  0  0  0  0  0  0  0  0  0  0
    2.9033   -3.4731    0.7837 H   0  0  0  0  0  0  0  0  0  0  0  0
    4.4251   -2.9090   -1.1534 H   0  0  0  0  0  0  0  0  0  0  0  0
    5.8112   -0.7619    1.8509 H   0  0  0  0  0  0  0  0  0  0  0  0
    6.4575   -1.0451    0.1414 H   0  0  0  0  0  0  0  0  0  0  0  0
    4.6795   -0.6360   -1.7365 H   0  0  0  0  0  0  0  0  0  0  0  0
    2.1696   -1.1680   -1.6530 H   0  0  0  0  0  0  0  0  0  0  0  0
    2.6906    0.5196   -1.6935 H   0  0  0  0  0  0  0  0  0  0  0  0
   -4.0107   -4.6598   -0.7359 H   0  0  0  0  0  0  0  0  0  0  0  0
   -3.2645   -4.3884    0.8503 H   0  0  0  0  0  0  0  0  0  0  0  0
   -5.0164   -2.5829   -0.9080 H   0  0  0  0  0  0  0  0  0  0  0  0
   -5.2648   -3.0647    0.7794 H   0  0  0  0  0  0  0  0  0  0  0  0
   -3.6026   -1.6705    1.6585 H   0  0  0  0  0  0  0  0  0  0  0  0
   -4.6229   -0.6890    0.5041 H   0  0  0  0  0  0  0  0  0  0  0  0
   -2.7715   -1.0615   -1.2395 H   0  0  0  0  0  0  0  0  0  0  0  0
   -1.5008   -0.3882    1.4796 H   0  0  0  0  0  0  0  0  0  0  0  0
   -0.6767    0.0258   -1.3653 H   0  0  0  0  0  0  0  0  0  0  0  0
   -0.3339   -2.1232   -1.4194 H   0  0  0  0  0  0  0  0  0  0  0  0
   -1.6474   -2.6615    1.1146 H   0  0  0  0  0  0  0  0  0  0  0  0
   -1.5522   -4.3750   -0.6656 H   0  0  0  0  0  0  0  0  0  0  0  0
   -2.3157   -3.2632   -1.8264 H   0  0  0  0  0  0  0  0  0  0  0  0
    0.3625    0.1433    1.4925 H   0  0  0  0  0  0  0  0  0  0  0  0
    0.7099    1.8162   -1.8688 H   0  0  0  0  0  0  0  0  0  0  0  0
    1.9283    3.3666    0.2203 H   0  0  0  0  0  0  0  0  0  0  0  0
    0.4646    4.2780   -1.8736 H   0  0  0  0  0  0  0  0  0  0  0  0
   -1.0425    3.3685   -1.7278 H   0  0  0  0  0  0  0  0  0  0  0  0
   -2.2367    3.7134    0.5984 H   0  0  0  0  0  0  0  0  0  0  0  0
   -0.2928    3.6680    2.6801 H   0  0  0  0  0  0  0  0  0  0  0  0
   -0.8518    1.7015    1.8825 H   0  0  0  0  0  0  0  0  0  0  0  0
   -2.9595    1.6458    0.7541 H   0  0  0  0  0  0  0  0  0  0  0  0
   -2.2071    1.4768   -0.8553 H   0  0  0  0  0  0  0  0  0  0  0  0
   -2.1170    5.3196   -0.7384 H   0  0  0  0  0  0  0  0  0  0  0  0
   -0.5687    6.1371   -1.1083 H   0  0  0  0  0  0  0  0  0  0  0  0
   -1.2344    6.2115    0.5327 H   0  0  0  0  0  0  0  0  0  0  0  0
    2.6571    0.5227    0.8616 H   0  0  0  0  0  0  0  0  0  0  0  0
    2.7369   -1.4503    1.9076 H   0  0  0  0  0  0  0  0  0  0  0  0
    1.1391   -1.8911    1.3220 H   0  0  0  0  0  0  0  0  0  0  0  0
    2.1011   -2.9687   -0.7067 H   0  0  0  0  0  0  0  0  0  0  0  0
    2.9033   -3.4731    0.7837 H   0  0  0  0  0  0  0  0  0  0  0  0
    4.4251   -2.9090   -1.1534 H   0  0  0  0  0  0  0  0  0  0  0  0
    5.8112   -0.7619    1.8509 H   0  0  0  0  0  0  0  0  0  0  0  0
    6.4575   -1.0451    0.1414 H   0  0  0  0  0  0  0  0  0  0  0  0
    4.6795   -0.6360   -1.7365 H   0  0  0  0  0  0  0  0  0  0  0  0
    2.1696   -1.1680   -1.6530 H   0  0  0  0  0  0  0  0  0  0  0  0
    2.6906    0.5196   -1.6935 H   0  0  0  0  0  0  0  0  0  0  0  0
  1  2  1  0
  2  3  1  0
  3  4  1  0
  4  5  1  0
  5  6  1  0
  6  7  1  0
  4  8  1  0
  7  8  1  0
  1  9  1  0
  8  9  1  0
  6 10  1  0
 10 11  1  0
 11 12  1  0
 12 13  1  0
 12 14  1  0
 14 15  1  0
 15 16  1  0
 16 17  1  0
 11 18  1  0
 16 18  1  0
  5 19  1  0
 18 19  1  0
 15 20  1  0
 10 21  1  0
 21 22  1  0
 22 23  1  0
 23 24  1  0
 24 25  1  0
 25 26  1  0
 26 27  1  0
 24 28  1  0
 27 28  1  0
 21 29  1  0
 28 29  1  0
 30 31  1  0
 31 32  1  0
 32 33  1  0
 33 34  1  0
 34 35  1  0
 35 36  1  0
 33 37  1  0
 36 37  1  0
 30 38  1  0
 37 38  1  0
 35 39  1  0
 39 40  1  0
 40 41  1  0
 41 42  1  0
 41 43  1  0
 43 44  1  0
 44 45  1  0
 45 46  1  0
 40 47  1  0
 45 47  1  0
 34 48  1  0
 47 48  1  0
 44 49  1  0
 39 50  1  0
 50 51  1  0
 51 52  1  0
 52 53  1  0
 53 54  1  0
 54 55  1  0
 55 56  1  0
 53 57  1  0
 56 57  1  0
 50 58  1  0
 57 58  1  0
  1 59  1  0
  1 60  1  0
  2 61  1  0
  2 62  1  0
  3 63  1  0
  3 64  1  0
  4 65  1  0
  5 66  1  0
  6 67  1  0
  7 68  1  0
  8 69  1  0
  9 70  1  0
  9 71  1  0
 10 72  1  1
 12 73  1  0
 13 74  1  0
 14 75  1  0
 14 76  1  0
 16 77  1  0
 17 78  1  0
 18 79  1  1
 19 80  1  0
 19 81  1  0
 20 82  1  0
 20 83  1  0
 20 84  1  0
 21 85  1  0
 22 86  1  0
 22 87  1  0
 23 88  1  0
 23 89  1  0
 24 90  1  0
 26 91  1  0
 26 92  1  0
 28 93  1  0
 29 94  1  0
 29 95  1  0
 30 96  1  0
 30 97  1  0
 31 98  1  0
 31 99  1  0
 32100  1  0
 32101  1  0
 33102  1  0
 34103  1  0
 35104  1  0
 36105  1  0
 37106  1  0
 38107  1  0
 38108  1  0
 39109  1  1
 41110  1  0
 42111  1  0
 43112  1  0
 43113  1  0
 45114  1  0
 46115  1  0
 47116  1  1
 48117  1  0
 48118  1  0
 49119  1  0
 49120  1  0
 49121  1  0
 50122  1  0
 51123  1  0
 51124  1  0
 52125  1  0
 52126  1  0
 53127  1  0
 55128  1  0
 55129  1  0
 57130  1  0
 58131  1  0
 58132  1  0
M  END
>  <PDBID>  (1) 
1UDU

>  <PDB ID>  (1) 
1UDU

>  <Generic Name>  (1) 
Tadalafil

>  <Brand Name>  (1) 
Act Tadalafil#Adcirca#Apo-tadalafil#Apo-tadalafil Pah#Auro-tadalafil#Cialis#Dom-tadalafil#Ipg-tadalafil#Jamp-tadalafil#Mar-tadalafil#Mint-tadalafil#Mylan-tadalafil#PMS-tadalafil#Priva-tadalafil#Ran-tadalafil#Riva-tadalafil#Tadalafil#Teva-tadalafil

>  <DrugBank ID>  (1) 
DB00820

>  <ATC Codes>  (1) 
G04BE08

>  <Ligand ID>  (1) 
CIA

>  <Target Name>  (1) 
cGMP-specific 3',5'-cyclic phosphodiesterase

>  <UniProt ID>  (1) 
O76074

>  <PDB ID.1>  (1) 
1UDU

>  <Seq. Identity>  (1) 
94%

$$$$
