PDB_DB00410_06
     RDKit          3D

 85 86  0  0  0  0  0  0  0  0999 V2000
    1.5362    0.9789   -0.2419 C   0  0  0  0  0  0  0  0  0  0  0  0
    0.4682    1.9131    0.2970 C   0  0  0  0  0  0  0  0  0  0  0  0
   -0.7725    1.7116   -0.5316 C   0  0  0  0  0  0  0  0  0  0  0  0
   -1.9287    2.5866   -0.1160 C   0  0  0  0  0  0  0  0  0  0  0  0
   -2.2780    2.2785    1.3066 C   0  0  1  0  0  0  0  0  0  0  0  0
   -3.4421    3.1205    1.8022 C   0  0  1  0  0  0  0  0  0  0  0  0
   -4.3374    2.2137    2.6017 C   0  0  1  0  0  0  0  0  0  0  0  0
   -4.8483    1.1185    1.7097 C   0  0  1  0  0  0  0  0  0  0  0  0
   -5.6816    1.6884    0.5958 C   0  0  0  0  0  0  0  0  0  0  0  0
   -6.1445    0.4695   -0.2270 C   0  0  1  0  0  0  0  0  0  0  0  0
   -6.9261   -0.4969    0.4834 C   0  0  2  0  0  0  0  0  0  0  0  0
   -6.9610   -1.9437    0.0678 C   0  0  2  0  0  0  0  0  0  0  0  0
   -7.4822   -2.1024   -1.3217 C   0  0  2  0  0  0  0  0  0  0  0  0
   -7.5224   -3.5605   -1.7477 C   0  0  0  0  0  0  0  0  0  0  0  0
   -0.4992    1.9247   -2.0120 C   0  0  0  0  0  0  0  0  0  0  0  0
   -3.6518    0.4421    1.0674 C   0  0  0  0  0  0  0  0  0  0  0  0
    8.2297   -3.4899   -0.0684 C   0  0  0  0  0  0  0  0  0  0  0  0
    7.4936   -3.2149   -1.1615 O   0  0  0  0  0  0  0  0  0  0  0  0
    8.8628   -4.7564   -0.2874 O   0  0  0  0  0  0  0  0  0  0  0  0
    9.1826   -2.5190    0.4802 C   0  0  0  0  0  0  0  0  0  0  0  0
    8.6979   -1.2243    0.9588 C   0  0  0  0  0  0  0  0  0  0  0  0
    8.1558   -0.1515    0.1519 C   0  0  0  0  0  0  0  0  0  0  0  0
    6.9613   -0.2905   -0.7054 C   0  0  0  0  0  0  0  0  0  0  0  0
    6.6003    1.0992   -1.2985 C   0  0  0  0  0  0  0  0  0  0  0  0
    5.3955    1.0032   -2.1669 C   0  0  0  0  0  0  0  0  0  0  0  0
    4.1711    0.5121   -1.4275 C   0  0  0  0  0  0  0  0  0  0  0  0
    3.8191    1.4506   -0.2798 C   0  0  0  0  0  0  0  0  0  0  0  0
    2.7195    1.0715    0.4345 O   0  0  0  0  0  0  0  0  0  0  0  0
    1.0913   -0.3396   -0.1671 O   0  0  0  0  0  0  0  0  0  0  0  0
   -2.4542    0.9448    1.5657 O   0  0  0  0  0  0  0  0  0  0  0  0
   -3.4990    1.5829    3.5485 O   0  0  0  0  0  0  0  0  0  0  0  0
   -2.9791    4.1942    2.5782 O   0  0  0  0  0  0  0  0  0  0  0  0
   -7.5123    0.4254   -0.4781 O   0  0  0  0  0  0  0  0  0  0  0  0
   -7.7860   -2.7045    1.0823 C   0  0  0  0  0  0  0  0  0  0  0  0
   -6.6650   -1.4049   -2.2062 O   0  0  0  0  0  0  0  0  0  0  0  0
    1.6097    1.2273   -1.3346 H   0  0  0  0  0  0  0  0  0  0  0  0
    0.2352    1.5784    1.3385 H   0  0  0  0  0  0  0  0  0  0  0  0
    0.7910    2.9514    0.2251 H   0  0  0  0  0  0  0  0  0  0  0  0
   -1.1052    0.6341   -0.4515 H   0  0  0  0  0  0  0  0  0  0  0  0
   -1.5567    3.6424   -0.1439 H   0  0  0  0  0  0  0  0  0  0  0  0
   -2.7691    2.5422   -0.8069 H   0  0  0  0  0  0  0  0  0  0  0  0
   -1.3945    2.6042    1.9318 H   0  0  0  0  0  0  0  0  0  0  0  0
   -4.0174    3.5820    0.9782 H   0  0  0  0  0  0  0  0  0  0  0  0
   -5.1546    2.7643    3.1128 H   0  0  0  0  0  0  0  0  0  0  0  0
   -5.4296    0.4012    2.3334 H   0  0  0  0  0  0  0  0  0  0  0  0
   -5.0985    2.3074   -0.1061 H   0  0  0  0  0  0  0  0  0  0  0  0
   -6.5494    2.2344    0.9953 H   0  0  0  0  0  0  0  0  0  0  0  0
   -5.4544    0.1656   -1.0176 H   0  0  0  0  0  0  0  0  0  0  0  0
   -7.2390   -0.2684    1.5448 H   0  0  0  0  0  0  0  0  0  0  0  0
   -5.9119   -2.3356    0.1333 H   0  0  0  0  0  0  0  0  0  0  0  0
   -8.4899   -1.6565   -1.3764 H   0  0  0  0  0  0  0  0  0  0  0  0
   -6.5260   -3.8857   -2.0911 H   0  0  0  0  0  0  0  0  0  0  0  0
   -7.9233   -4.2214   -0.9584 H   0  0  0  0  0  0  0  0  0  0  0  0
   -8.2258   -3.6265   -2.6089 H   0  0  0  0  0  0  0  0  0  0  0  0
    0.3387    2.6339   -2.1619 H   0  0  0  0  0  0  0  0  0  0  0  0
   -1.3992    2.3876   -2.4678 H   0  0  0  0  0  0  0  0  0  0  0  0
   -0.3349    0.9660   -2.5503 H   0  0  0  0  0  0  0  0  0  0  0  0
   -3.6962   -0.6291    1.3460 H   0  0  0  0  0  0  0  0  0  0  0  0
   -3.6893    0.4761   -0.0444 H   0  0  0  0  0  0  0  0  0  0  0  0
    7.5238   -3.7516    0.8119 H   0  0  0  0  0  0  0  0  0  0  0  0
    8.0461   -3.2003   -1.9686 H   0  0  0  0  0  0  0  0  0  0  0  0
    9.8057   -4.6906    0.0524 H   0  0  0  0  0  0  0  0  0  0  0  0
   10.0534   -2.3592   -0.2770 H   0  0  0  0  0  0  0  0  0  0  0  0
    9.7961   -3.0353    1.3187 H   0  0  0  0  0  0  0  0  0  0  0  0
    9.5391   -0.7960    1.6634 H   0  0  0  0  0  0  0  0  0  0  0  0
    7.9079   -1.4168    1.8059 H   0  0  0  0  0  0  0  0  0  0  0  0
    9.0079    0.2722   -0.5278 H   0  0  0  0  0  0  0  0  0  0  0  0
    8.0391    0.7775    0.8389 H   0  0  0  0  0  0  0  0  0  0  0  0
    6.0902   -0.6251   -0.1523 H   0  0  0  0  0  0  0  0  0  0  0  0
    7.2451   -0.9170   -1.5939 H   0  0  0  0  0  0  0  0  0  0  0  0
    7.4742    1.3928   -1.9058 H   0  0  0  0  0  0  0  0  0  0  0  0
    6.4584    1.8384   -0.4980 H   0  0  0  0  0  0  0  0  0  0  0  0
    5.5334    0.3704   -3.0518 H   0  0  0  0  0  0  0  0  0  0  0  0
    5.1598    2.0214   -2.5270 H   0  0  0  0  0  0  0  0  0  0  0  0
    4.2663   -0.5304   -1.0813 H   0  0  0  0  0  0  0  0  0  0  0  0
    3.3357    0.5506   -2.1518 H   0  0  0  0  0  0  0  0  0  0  0  0
    3.8130    2.4926   -0.6221 H   0  0  0  0  0  0  0  0  0  0  0  0
    4.6981    1.3731    0.4264 H   0  0  0  0  0  0  0  0  0  0  0  0
    1.4614   -0.7608    0.6487 H   0  0  0  0  0  0  0  0  0  0  0  0
   -3.1347    2.2656    4.1909 H   0  0  0  0  0  0  0  0  0  0  0  0
   -2.0959    3.9249    2.9769 H   0  0  0  0  0  0  0  0  0  0  0  0
   -8.8524   -2.3902    1.0308 H   0  0  0  0  0  0  0  0  0  0  0  0
   -7.4190   -2.4130    2.1081 H   0  0  0  0  0  0  0  0  0  0  0  0
   -7.6439   -3.7986    1.0230 H   0  0  0  0  0  0  0  0  0  0  0  0
   -7.1321   -0.6622   -2.6451 H   0  0  0  0  0  0  0  0  0  0  0  0
  1  2  1  0
  2  3  1  0
  3  4  1  0
  4  5  1  0
  5  6  1  0
  6  7  1  0
  7  8  1  0
  8  9  1  0
  9 10  1  0
 10 11  1  0
 11 12  1  0
 12 13  1  0
 13 14  1  0
  3 15  1  0
  8 16  1  0
 17 18  1  0
 17 19  1  0
 17 20  1  0
 20 21  1  0
 21 22  1  0
 22 23  1  0
 23 24  1  0
 24 25  1  0
 25 26  1  0
 26 27  1  0
  1 28  1  0
 27 28  1  0
  1 29  1  0
  5 30  1  0
 16 30  1  0
  7 31  1  0
  6 32  1  0
 10 33  1  0
 11 33  1  0
 12 34  1  0
 13 35  1  0
  1 36  1  0
  2 37  1  0
  2 38  1  0
  3 39  1  0
  4 40  1  0
  4 41  1  0
  5 42  1  1
  6 43  1  6
  7 44  1  1
  8 45  1  1
  9 46  1  0
  9 47  1  0
 10 48  1  6
 11 49  1  1
 12 50  1  6
 13 51  1  1
 14 52  1  0
 14 53  1  0
 14 54  1  0
 15 55  1  0
 15 56  1  0
 15 57  1  0
 16 58  1  0
 16 59  1  0
 17 60  1  0
 18 61  1  0
 19 62  1  0
 20 63  1  0
 20 64  1  0
 21 65  1  0
 21 66  1  0
 22 67  1  0
 22 68  1  0
 23 69  1  0
 23 70  1  0
 24 71  1  0
 24 72  1  0
 25 73  1  0
 25 74  1  0
 26 75  1  0
 26 76  1  0
 27 77  1  0
 27 78  1  0
 29 79  1  0
 31 80  1  0
 32 81  1  0
 34 82  1  0
 34 83  1  0
 34 84  1  0
 35 85  1  0
M  END
>  <PDBID>  (1) 
1FFY

>  <PDB ID>  (1) 
1FFY

>  <Generic Name>  (1) 
Mupirocin

>  <Brand Name>  (1) 
Bactroban#Bactroban Cream#Bactroban Nasal Ointment#Centany#Centany At#Mupirocin#Mupirocin 2%#Mupirocin Calcium#Taro-mupirocin#Bactroban Nasal#Plasimine#Spectroderm#T-Bact#Turixin

>  <DrugBank ID>  (1) 
DB00410

>  <ATC Codes>  (1) 
R01AX06#D06AX09

>  <Ligand ID>  (1) 
MRC

>  <Target Name>  (1) 
Isoleucine--tRNA ligase

>  <UniProt ID>  (1) 
P41972

>  <PDB ID.1>  (1) 
1FFY

>  <Seq. Identity>  (1) 
95%

$$$$
