PDB_DB11363_03
     RDKit          3D

 90 95  0  0  0  0  0  0  0  0999 V2000
   -6.0213   -0.9559    1.0559 C   0  0  0  0  0  0  0  0  0  0  0  0
   -7.1537    0.2046   -0.8873 C   0  0  0  0  0  0  0  0  0  0  0  0
   -7.1959   -0.9115    0.1066 C   0  0  0  0  0  0  0  0  0  0  0  0
   -3.5014   -0.9897    0.7728 C   0  0  0  0  0  0  0  0  0  0  0  0
   -3.0278   -1.6304   -0.4992 C   0  0  0  0  0  0  0  0  0  0  0  0
    1.3855    0.2323    0.3690 C   0  0  0  0  0  0  0  0  0  0  0  0
   -0.6300    1.4548    0.9737 C   0  0  0  0  0  0  0  0  0  0  0  0
   -1.1943    0.0496    0.9597 C   0  0  0  0  0  0  0  0  0  0  0  0
   -1.5728   -1.8244   -0.6101 C   0  0  0  0  0  0  0  0  0  0  0  0
   -1.2737   -2.2977   -2.0326 C   0  0  0  0  0  0  0  0  0  0  0  0
   -1.1724   -2.9700    0.2994 C   0  0  0  0  0  0  0  0  0  0  0  0
    0.6267    3.9839    0.2757 C   0  0  0  0  0  0  0  0  0  0  0  0
    5.4730    0.5742    0.1433 C   0  0  0  0  0  0  0  0  0  0  0  0
    4.7855    0.1283    1.4045 C   0  0  0  0  0  0  0  0  0  0  0  0
   -8.9338    1.4193    0.2253 N   0  0  0  0  0  0  0  0  0  0  0  0
   -7.5586    1.5265   -0.2849 C   0  0  0  0  0  0  0  0  0  0  0  0
   -5.8616    0.2862   -1.6721 C   0  0  0  0  0  0  0  0  0  0  0  0
   -4.9677   -0.7620   -1.1160 C   0  0  0  0  0  0  0  0  0  0  0  0
   -4.8302   -0.4059    0.3750 C   0  0  0  0  0  0  0  0  0  0  0  0
   -3.5987   -0.7345   -1.5195 N   0  0  0  0  0  0  0  0  0  0  0  0
   -0.8047   -0.5792   -0.3463 C   0  0  0  0  0  0  0  0  0  0  0  0
   -2.6379    0.1301    1.2451 C   0  0  0  0  0  0  0  0  0  0  0  0
   -2.8005    0.2037    2.6495 O   0  0  0  0  0  0  0  0  0  0  0  0
    0.6635   -0.8818   -0.3489 C   0  0  0  0  0  0  0  0  0  0  0  0
    0.6571    1.5222    0.1254 C   0  0  0  0  0  0  0  0  0  0  0  0
    1.4430    2.7475    0.5653 C   0  0  0  0  0  0  0  0  0  0  0  0
    2.7756    0.2426    0.1797 N   0  0  0  0  0  0  0  0  0  0  0  0
    3.3139    0.3786   -1.1130 C   0  0  0  0  0  0  0  0  0  0  0  0
    4.8117    0.1151   -1.1196 C   0  0  0  0  0  0  0  0  0  0  0  0
    3.5493   -0.6744    0.9660 C   0  0  0  0  0  0  0  0  0  0  0  0
    6.8684    0.2876    0.1239 N   0  0  0  0  0  0  0  0  0  0  0  0
    7.2097   -1.1001    0.1862 C   0  0  0  0  0  0  0  0  0  0  0  0
    8.7046   -1.2363   -0.0750 C   0  0  0  0  0  0  0  0  0  0  0  0
    9.3071    0.0047   -0.2758 O   0  0  0  0  0  0  0  0  0  0  0  0
    9.1050    0.8429    0.8157 C   0  0  0  0  0  0  0  0  0  0  0  0
    7.6295    1.0031    1.1159 C   0  0  0  0  0  0  0  0  0  0  0  0
   -6.2875   -0.4430    2.0115 H   0  0  0  0  0  0  0  0  0  0  0  0
   -5.8363   -2.0318    1.2710 H   0  0  0  0  0  0  0  0  0  0  0  0
   -7.9415   -0.0337   -1.6465 H   0  0  0  0  0  0  0  0  0  0  0  0
   -8.1074   -0.7641    0.7221 H   0  0  0  0  0  0  0  0  0  0  0  0
   -7.3490   -1.8705   -0.4300 H   0  0  0  0  0  0  0  0  0  0  0  0
   -3.6885   -1.7620    1.5491 H   0  0  0  0  0  0  0  0  0  0  0  0
   -3.5720   -2.5959   -0.6218 H   0  0  0  0  0  0  0  0  0  0  0  0
    1.2249   -0.0181    1.4767 H   0  0  0  0  0  0  0  0  0  0  0  0
   -1.3499    2.1202    0.4500 H   0  0  0  0  0  0  0  0  0  0  0  0
   -0.3836    1.7905    1.9968 H   0  0  0  0  0  0  0  0  0  0  0  0
   -0.7173   -0.5181    1.8111 H   0  0  0  0  0  0  0  0  0  0  0  0
   -1.1314   -1.4268   -2.7019 H   0  0  0  0  0  0  0  0  0  0  0  0
   -2.1468   -2.8670   -2.4063 H   0  0  0  0  0  0  0  0  0  0  0  0
   -0.4087   -2.9788   -2.0398 H   0  0  0  0  0  0  0  0  0  0  0  0
   -0.2959   -3.5225   -0.0943 H   0  0  0  0  0  0  0  0  0  0  0  0
   -2.0187   -3.6953    0.2705 H   0  0  0  0  0  0  0  0  0  0  0  0
   -1.0371   -2.6719    1.3382 H   0  0  0  0  0  0  0  0  0  0  0  0
    0.2265    4.4646    1.1781 H   0  0  0  0  0  0  0  0  0  0  0  0
    1.2356    4.7612   -0.2633 H   0  0  0  0  0  0  0  0  0  0  0  0
   -0.2114    3.7298   -0.4056 H   0  0  0  0  0  0  0  0  0  0  0  0
    5.3892    1.7030    0.1378 H   0  0  0  0  0  0  0  0  0  0  0  0
    4.3826    0.9655    2.0102 H   0  0  0  0  0  0  0  0  0  0  0  0
    5.3878   -0.5554    2.0188 H   0  0  0  0  0  0  0  0  0  0  0  0
   -9.5108    0.9832   -0.5280 H   0  0  0  0  0  0  0  0  0  0  0  0
   -9.2898    2.3352    0.5399 H   0  0  0  0  0  0  0  0  0  0  0  0
   -6.9571    1.8177    0.5996 H   0  0  0  0  0  0  0  0  0  0  0  0
   -7.5469    2.3503   -0.9963 H   0  0  0  0  0  0  0  0  0  0  0  0
   -5.4071    1.2826   -1.3903 H   0  0  0  0  0  0  0  0  0  0  0  0
   -6.0013    0.2494   -2.7585 H   0  0  0  0  0  0  0  0  0  0  0  0
   -5.3712   -1.7860   -1.1865 H   0  0  0  0  0  0  0  0  0  0  0  0
   -4.8491    0.7037    0.4785 H   0  0  0  0  0  0  0  0  0  0  0  0
   -3.4075   -1.1497   -2.4515 H   0  0  0  0  0  0  0  0  0  0  0  0
   -1.0422    0.1436   -1.1586 H   0  0  0  0  0  0  0  0  0  0  0  0
   -3.0267    1.1240    0.8765 H   0  0  0  0  0  0  0  0  0  0  0  0
   -1.9459    0.1759    3.1156 H   0  0  0  0  0  0  0  0  0  0  0  0
    0.9257   -1.8492    0.1020 H   0  0  0  0  0  0  0  0  0  0  0  0
    0.9818   -0.9293   -1.4144 H   0  0  0  0  0  0  0  0  0  0  0  0
    0.4062    1.5745   -0.9541 H   0  0  0  0  0  0  0  0  0  0  0  0
    2.4536    2.8040    0.1959 H   0  0  0  0  0  0  0  0  0  0  0  0
    1.5067    2.6637    1.6777 H   0  0  0  0  0  0  0  0  0  0  0  0
    3.0957    1.3753   -1.5325 H   0  0  0  0  0  0  0  0  0  0  0  0
    2.8993   -0.3789   -1.8514 H   0  0  0  0  0  0  0  0  0  0  0  0
    4.9727   -0.9813   -1.2508 H   0  0  0  0  0  0  0  0  0  0  0  0
    5.2313    0.7060   -1.9601 H   0  0  0  0  0  0  0  0  0  0  0  0
    3.8751   -1.5681    0.3872 H   0  0  0  0  0  0  0  0  0  0  0  0
    2.9969   -0.9454    1.8886 H   0  0  0  0  0  0  0  0  0  0  0  0
    6.7057   -1.7579   -0.5229 H   0  0  0  0  0  0  0  0  0  0  0  0
    7.0591   -1.4352    1.2408 H   0  0  0  0  0  0  0  0  0  0  0  0
    9.2355   -1.7408    0.7571 H   0  0  0  0  0  0  0  0  0  0  0  0
    8.9086   -1.8355   -0.9771 H   0  0  0  0  0  0  0  0  0  0  0  0
    9.6744    0.4266    1.6642 H   0  0  0  0  0  0  0  0  0  0  0  0
    9.5948    1.8150    0.5602 H   0  0  0  0  0  0  0  0  0  0  0  0
    7.4223    2.0985    1.1170 H   0  0  0  0  0  0  0  0  0  0  0  0
    7.4746    0.5643    2.1419 H   0  0  0  0  0  0  0  0  0  0  0  0
  1  3  1  0
  2  3  1  0
  4  5  1  0
  7  8  1  0
  5  9  1  0
  9 10  1  0
  9 11  1  0
 13 14  1  0
  2 16  1  0
 15 16  1  0
  2 17  1  0
 17 18  1  0
  1 19  1  0
  4 19  1  0
 18 19  1  0
  5 20  1  0
 18 20  1  0
  8 21  1  0
  9 21  1  0
  4 22  1  0
  8 22  1  0
 22 23  1  0
  6 24  1  0
 21 24  1  0
  6 25  1  0
  7 25  1  0
 12 26  1  0
 25 26  1  0
  6 27  1  0
 27 28  1  0
 13 29  1  0
 28 29  1  0
 14 30  1  0
 27 30  1  0
 13 31  1  0
 31 32  1  0
 32 33  1  0
 33 34  1  0
 34 35  1  0
 31 36  1  0
 35 36  1  0
  1 37  1  0
  1 38  1  0
  2 39  1  0
  3 40  1  0
  3 41  1  0
  4 42  1  0
  5 43  1  0
  6 44  1  0
  7 45  1  0
  7 46  1  0
  8 47  1  0
 10 48  1  0
 10 49  1  0
 10 50  1  0
 11 51  1  0
 11 52  1  0
 11 53  1  0
 12 54  1  0
 12 55  1  0
 12 56  1  0
 13 57  1  0
 14 58  1  0
 14 59  1  0
 15 60  1  0
 15 61  1  0
 16 62  1  0
 16 63  1  0
 17 64  1  0
 17 65  1  0
 18 66  1  0
 19 67  1  0
 20 68  1  0
 21 69  1  0
 22 70  1  0
 23 71  1  0
 24 72  1  0
 24 73  1  0
 25 74  1  0
 26 75  1  0
 26 76  1  0
 28 77  1  0
 28 78  1  0
 29 79  1  0
 29 80  1  0
 30 81  1  0
 30 82  1  0
 32 83  1  0
 32 84  1  0
 33 85  1  0
 33 86  1  0
 35 87  1  0
 35 88  1  0
 36 89  1  0
 36 90  1  0
M  END
>  <PDBID>  (1) 
3AOX

>  <PDB ID>  (1) 
3AOX

>  <Generic Name>  (1) 
Alectinib

>  <Brand Name>  (1) 
Alecensa#Alecensaro

>  <DrugBank ID>  (1) 
DB11363

>  <ATC Codes>  (1) 
nan

>  <Ligand ID>  (1) 
EMH

>  <Target Name>  (1) 
ALK tyrosine kinase receptor

>  <UniProt ID>  (1) 
Q9UM73

>  <PDB ID.1>  (1) 
3AOX

>  <Seq. Identity>  (1) 
100%

$$$$
