PDB_DB00559_05
     RDKit          3D

 94 97  0  0  0  0  0  0  0  0999 V2000
    4.0510   -1.2916   -2.2878 C   0  0  0  0  0  0  0  0  0  0  0  0
   -0.7798    0.9666   -0.5685 C   0  0  0  0  0  0  0  0  0  0  0  0
   -2.8582    1.0246    0.6906 C   0  0  0  0  0  0  0  0  0  0  0  0
   -1.8645    4.1712    0.9514 C   0  0  0  0  0  0  0  0  0  0  0  0
   -3.5327    6.3389    1.7176 C   0  0  0  0  0  0  0  0  0  0  0  0
   -5.1325    0.7956    0.6812 C   0  0  0  0  0  0  0  0  0  0  0  0
    5.9317   -3.5129   -1.6636 C   0  0  0  0  0  0  0  0  0  0  0  0
    6.3272   -2.0672   -1.6567 C   0  0  0  0  0  0  0  0  0  0  0  0
    6.9006   -1.7436   -3.0179 C   0  0  0  0  0  0  0  0  0  0  0  0
    7.4598   -1.9163   -0.6556 C   0  0  0  0  0  0  0  0  0  0  0  0
    5.1790   -1.1470   -1.3025 C   0  0  0  0  0  0  0  0  0  0  0  0
    4.7435   -1.3016    0.1158 C   0  0  0  0  0  0  0  0  0  0  0  0
    3.4703   -0.5631    0.4223 C   0  0  0  0  0  0  0  0  0  0  0  0
    3.1255    0.3917   -0.6675 C   0  0  0  0  0  0  0  0  0  0  0  0
    2.9094   -0.3813   -1.9481 C   0  0  0  0  0  0  0  0  0  0  0  0
    1.7823    1.4059   -0.3067 S   0  0  0  0  0  0  0  0  0  0  0  0
    1.6429    2.3641   -1.7085 O   0  0  0  0  0  0  0  0  0  0  0  0
    2.2723    2.4876    0.8213 O   0  0  0  0  0  0  0  0  0  0  0  0
    0.4693    0.6976    0.0596 N   0  0  0  0  0  0  0  0  0  0  0  0
   -1.9340    0.1125   -0.0655 C   0  0  0  0  0  0  0  0  0  0  0  0
   -2.1247    1.8191    1.6202 N   0  0  0  0  0  0  0  0  0  0  0  0
   -1.3167    2.7679    0.9183 C   0  0  0  0  0  0  0  0  0  0  0  0
   -1.0503    2.3894   -0.4455 N   0  0  0  0  0  0  0  0  0  0  0  0
   -1.9707    4.6404    2.3425 N   0  0  0  0  0  0  0  0  0  0  0  0
   -2.1355    6.0950    2.2996 C   0  0  0  0  0  0  0  0  0  0  0  0
   -3.5357    5.7157    0.3598 C   0  0  0  0  0  0  0  0  0  0  0  0
   -3.1736    4.3090    0.3613 N   0  0  0  0  0  0  0  0  0  0  0  0
   -3.9477    0.3848    1.2312 O   0  0  0  0  0  0  0  0  0  0  0  0
   -6.2884    0.0338    1.3390 C   0  0  0  0  0  0  0  0  0  0  0  0
   -7.5075    0.4264    0.8043 O   0  0  0  0  0  0  0  0  0  0  0  0
   -1.4011   -0.9257    0.6754 O   0  0  0  0  0  0  0  0  0  0  0  0
   -1.6869   -2.1722    0.1887 C   0  0  0  0  0  0  0  0  0  0  0  0
   -0.4595   -2.8396   -0.4367 C   0  0  0  0  0  0  0  0  0  0  0  0
   -1.0188   -3.8870   -1.3983 C   0  0  0  0  0  0  0  0  0  0  0  0
   -1.8206   -4.8640   -0.6244 C   0  0  0  0  0  0  0  0  0  0  0  0
   -2.0252   -4.5704    0.8204 C   0  0  0  0  0  0  0  0  0  0  0  0
   -2.3531   -3.1250    1.1167 C   0  0  0  0  0  0  0  0  0  0  0  0
   -3.7121   -2.9244    1.2995 O   0  0  0  0  0  0  0  0  0  0  0  0
   -4.0456   -2.6329    2.6122 C   0  0  0  0  0  0  0  0  0  0  0  0
    3.7415   -2.3701   -2.3651 H   0  0  0  0  0  0  0  0  0  0  0  0
    4.4520   -0.9586   -3.2890 H   0  0  0  0  0  0  0  0  0  0  0  0
   -0.6682    0.7814   -1.6698 H   0  0  0  0  0  0  0  0  0  0  0  0
   -3.2769    1.7312   -0.0893 H   0  0  0  0  0  0  0  0  0  0  0  0
   -1.1234    4.8437    0.4626 H   0  0  0  0  0  0  0  0  0  0  0  0
   -3.7180    7.4220    1.5880 H   0  0  0  0  0  0  0  0  0  0  0  0
   -4.2882    5.8854    2.3865 H   0  0  0  0  0  0  0  0  0  0  0  0
   -5.3617    1.8797    0.8970 H   0  0  0  0  0  0  0  0  0  0  0  0
   -5.2211    0.6688   -0.4016 H   0  0  0  0  0  0  0  0  0  0  0  0
    5.2382   -3.7656   -2.4933 H   0  0  0  0  0  0  0  0  0  0  0  0
    5.5489   -3.8094   -0.6825 H   0  0  0  0  0  0  0  0  0  0  0  0
    6.8617   -4.0994   -1.8580 H   0  0  0  0  0  0  0  0  0  0  0  0
    7.7742   -2.4367   -3.1458 H   0  0  0  0  0  0  0  0  0  0  0  0
    6.2104   -1.9879   -3.8428 H   0  0  0  0  0  0  0  0  0  0  0  0
    7.2587   -0.6952   -3.0511 H   0  0  0  0  0  0  0  0  0  0  0  0
    7.6459   -0.8226   -0.5332 H   0  0  0  0  0  0  0  0  0  0  0  0
    8.3842   -2.3659   -1.0225 H   0  0  0  0  0  0  0  0  0  0  0  0
    7.1496   -2.2871    0.3461 H   0  0  0  0  0  0  0  0  0  0  0  0
    5.5830   -0.1046   -1.4330 H   0  0  0  0  0  0  0  0  0  0  0  0
    4.6390   -2.3696    0.4298 H   0  0  0  0  0  0  0  0  0  0  0  0
    5.5589   -0.9032    0.7795 H   0  0  0  0  0  0  0  0  0  0  0  0
    2.6320   -1.3135    0.4775 H   0  0  0  0  0  0  0  0  0  0  0  0
    3.5718   -0.0451    1.4095 H   0  0  0  0  0  0  0  0  0  0  0  0
    4.0198    1.0627   -0.8312 H   0  0  0  0  0  0  0  0  0  0  0  0
    2.6400    0.2886   -2.7936 H   0  0  0  0  0  0  0  0  0  0  0  0
    2.0226   -1.0275   -1.7839 H   0  0  0  0  0  0  0  0  0  0  0  0
    1.1085    3.1483   -1.4125 H   0  0  0  0  0  0  0  0  0  0  0  0
    3.2365    2.7121    0.6443 H   0  0  0  0  0  0  0  0  0  0  0  0
    0.4898   -0.2652    0.4416 H   0  0  0  0  0  0  0  0  0  0  0  0
   -2.4639   -0.3705   -0.9229 H   0  0  0  0  0  0  0  0  0  0  0  0
   -2.6743    2.2985    2.3407 H   0  0  0  0  0  0  0  0  0  0  0  0
   -0.3437    2.8165    1.4787 H   0  0  0  0  0  0  0  0  0  0  0  0
   -1.6913    2.7545   -1.1501 H   0  0  0  0  0  0  0  0  0  0  0  0
   -2.8816    4.2848    2.7559 H   0  0  0  0  0  0  0  0  0  0  0  0
   -1.4236    6.5659    1.6007 H   0  0  0  0  0  0  0  0  0  0  0  0
   -2.1291    6.5451    3.2905 H   0  0  0  0  0  0  0  0  0  0  0  0
   -4.5990    5.7513   -0.0057 H   0  0  0  0  0  0  0  0  0  0  0  0
   -2.9587    6.3179   -0.3496 H   0  0  0  0  0  0  0  0  0  0  0  0
   -3.1790    4.0328   -0.6540 H   0  0  0  0  0  0  0  0  0  0  0  0
   -6.1430   -1.0420    1.1437 H   0  0  0  0  0  0  0  0  0  0  0  0
   -6.3016    0.2828    2.4262 H   0  0  0  0  0  0  0  0  0  0  0  0
   -7.6399    0.1499   -0.1255 H   0  0  0  0  0  0  0  0  0  0  0  0
   -2.3669   -2.0245   -0.7027 H   0  0  0  0  0  0  0  0  0  0  0  0
    0.0204   -2.0886   -1.0614 H   0  0  0  0  0  0  0  0  0  0  0  0
    0.1626   -3.3549    0.2892 H   0  0  0  0  0  0  0  0  0  0  0  0
   -0.1640   -4.3252   -1.9455 H   0  0  0  0  0  0  0  0  0  0  0  0
   -1.6737   -3.3149   -2.1000 H   0  0  0  0  0  0  0  0  0  0  0  0
   -1.2993   -5.8639   -0.6932 H   0  0  0  0  0  0  0  0  0  0  0  0
   -2.7893   -5.0383   -1.1755 H   0  0  0  0  0  0  0  0  0  0  0  0
   -2.8857   -5.1760    1.1832 H   0  0  0  0  0  0  0  0  0  0  0  0
   -1.1418   -4.9066    1.4015 H   0  0  0  0  0  0  0  0  0  0  0  0
   -1.8950   -2.9533    2.1394 H   0  0  0  0  0  0  0  0  0  0  0  0
   -5.1084   -2.4636    2.7710 H   0  0  0  0  0  0  0  0  0  0  0  0
   -3.6342   -3.4269    3.3066 H   0  0  0  0  0  0  0  0  0  0  0  0
   -3.4954   -1.7187    2.9001 H   0  0  0  0  0  0  0  0  0  0  0  0
  8  7  1  0
  8  9  1  0
  8 10  1  0
  1 11  1  0
  8 11  1  0
 11 12  1  0
 12 13  1  0
 13 14  1  0
  1 15  1  0
 14 15  1  0
 14 16  1  0
 16 17  1  0
 16 18  1  0
  2 19  1  0
 16 19  1  0
  2 20  1  0
  3 20  1  0
  3 21  1  0
  4 22  1  0
 21 22  1  0
  2 23  1  0
 22 23  1  0
  4 24  1  0
  5 25  1  0
 24 25  1  0
  5 26  1  0
  4 27  1  0
 26 27  1  0
  3 28  1  0
  6 28  1  0
  6 29  1  0
 29 30  1  0
 20 31  1  0
 31 32  1  0
 32 33  1  0
 33 34  1  0
 34 35  1  0
 35 36  1  0
 32 37  1  0
 36 37  1  0
 37 38  1  0
 38 39  1  0
  1 40  1  0
  1 41  1  0
  2 42  1  0
  3 43  1  0
  4 44  1  0
  5 45  1  0
  5 46  1  0
  6 47  1  0
  6 48  1  0
  7 49  1  0
  7 50  1  0
  7 51  1  0
  9 52  1  0
  9 53  1  0
  9 54  1  0
 10 55  1  0
 10 56  1  0
 10 57  1  0
 11 58  1  0
 12 59  1  0
 12 60  1  0
 13 61  1  0
 13 62  1  0
 14 63  1  0
 15 64  1  0
 15 65  1  0
 17 66  1  0
 18 67  1  0
 19 68  1  0
 20 69  1  0
 21 70  1  0
 22 71  1  0
 23 72  1  0
 24 73  1  0
 25 74  1  0
 25 75  1  0
 26 76  1  0
 26 77  1  0
 27 78  1  0
 29 79  1  0
 29 80  1  0
 30 81  1  0
 32 82  1  0
 33 83  1  0
 33 84  1  0
 34 85  1  0
 34 86  1  0
 35 87  1  0
 35 88  1  0
 36 89  1  0
 36 90  1  0
 37 91  1  0
 39 92  1  0
 39 93  1  0
 39 94  1  0
M  END
>  <PDBID>  (1) 
5XPR

>  <PDB ID>  (1) 
5XPR

>  <Generic Name>  (1) 
Bosentan

>  <Brand Name>  (1) 
Accel-bosentan#Act Bosentan#Apo-bosentan#Bosentan Tablets#Ipg-bosentan#Mar-bosentan#Mylan-bosentan#PMS-bosentan#Sandoz Bosentan#Teva-bosentan#Tracleer

>  <DrugBank ID>  (1) 
DB00559

>  <ATC Codes>  (1) 
C02KX01

>  <Ligand ID>  (1) 
K86

>  <Target Name>  (1) 
Endothelin B receptor

>  <UniProt ID>  (1) 
P24530

>  <PDB ID.1>  (1) 
5XPR

>  <Seq. Identity>  (1) 
85%

$$$$
