PDB_DB00730_04
     RDKit          3D

 33 35  0  0  0  0  0  0  0  0999 V2000
   -1.0402    0.2772   -0.8163 C   0  0  0  0  0  0  0  0  0  0  0  0
    0.3704    0.4731   -0.9083 N   0  0  0  0  0  0  0  0  0  0  0  0
    0.9999   -0.1922    0.1999 C   0  0  0  0  0  0  0  0  0  0  0  0
    2.3166   -0.8312   -0.1373 C   0  0  0  0  0  0  0  0  0  0  0  0
    2.8725   -1.4826    1.0670 C   0  0  0  0  0  0  0  0  0  0  0  0
    4.4415   -0.6083    1.3385 S   0  0  0  0  0  0  0  0  0  0  0  0
    4.1213    0.6723    0.0635 C   0  0  0  0  0  0  0  0  0  0  0  0
    3.1705    0.0633   -0.7511 N   0  0  0  0  0  0  0  0  0  0  0  0
   -0.0033   -1.1749    0.5892 N   0  0  0  0  0  0  0  0  0  0  0  0
   -1.1431   -0.3340    0.5931 C   0  0  0  0  0  0  0  0  0  0  0  0
   -2.4656   -0.9543    0.7160 C   0  0  0  0  0  0  0  0  0  0  0  0
   -3.4832    0.1835    0.6694 C   0  0  0  0  0  0  0  0  0  0  0  0
   -3.3135    1.0719   -0.5104 C   0  0  0  0  0  0  0  0  0  0  0  0
   -1.8713    1.5064   -0.7425 C   0  0  0  0  0  0  0  0  0  0  0  0
   -1.4074   -0.4493   -1.5758 H   0  0  0  0  0  0  0  0  0  0  0  0
    0.6659    1.4549   -1.0331 H   0  0  0  0  0  0  0  0  0  0  0  0
    1.0809    0.5210    1.0559 H   0  0  0  0  0  0  0  0  0  0  0  0
    2.0629   -1.6573   -0.8696 H   0  0  0  0  0  0  0  0  0  0  0  0
    3.0121   -2.5775    0.9934 H   0  0  0  0  0  0  0  0  0  0  0  0
    2.2625   -1.3149    1.9902 H   0  0  0  0  0  0  0  0  0  0  0  0
    3.7856    1.5992    0.5825 H   0  0  0  0  0  0  0  0  0  0  0  0
    5.0624    0.8546   -0.4883 H   0  0  0  0  0  0  0  0  0  0  0  0
    3.4329   -0.1504   -1.7318 H   0  0  0  0  0  0  0  0  0  0  0  0
    0.2083   -1.5919    1.5090 H   0  0  0  0  0  0  0  0  0  0  0  0
   -1.0504    0.5003    1.3120 H   0  0  0  0  0  0  0  0  0  0  0  0
   -2.6883   -1.7161   -0.0487 H   0  0  0  0  0  0  0  0  0  0  0  0
   -2.5614   -1.3789    1.7582 H   0  0  0  0  0  0  0  0  0  0  0  0
   -4.4854   -0.2434    0.6553 H   0  0  0  0  0  0  0  0  0  0  0  0
   -3.3037    0.7752    1.5982 H   0  0  0  0  0  0  0  0  0  0  0  0
   -3.9469    1.9612   -0.3692 H   0  0  0  0  0  0  0  0  0  0  0  0
   -3.6672    0.5418   -1.4319 H   0  0  0  0  0  0  0  0  0  0  0  0
   -1.5702    2.0647    0.1857 H   0  0  0  0  0  0  0  0  0  0  0  0
   -1.8651    2.1364   -1.6329 H   0  0  0  0  0  0  0  0  0  0  0  0
  1  2  1  0
  2  3  1  0
  3  4  1  0
  4  5  1  0
  5  6  1  0
  6  7  1  0
  4  8  1  0
  7  8  1  0
  3  9  1  0
  1 10  1  0
  9 10  1  0
 10 11  1  0
 11 12  1  0
 12 13  1  0
  1 14  1  0
 13 14  1  0
  1 15  1  0
  2 16  1  0
  3 17  1  0
  4 18  1  0
  5 19  1  0
  5 20  1  0
  7 21  1  0
  7 22  1  0
  8 23  1  0
  9 24  1  0
 10 25  1  0
 11 26  1  0
 11 27  1  0
 12 28  1  0
 12 29  1  0
 13 30  1  0
 13 31  1  0
 14 32  1  0
 14 33  1  0
M  END
>  <PDBID>  (1) 
3SFE

>  <PDB ID>  (1) 
3SFE

>  <Generic Name>  (1) 
Thiabendazole

>  <Brand Name>  (1) 
Mintezol Chewable Tab 500mg#Mintezol

>  <DrugBank ID>  (1) 
DB00730

>  <ATC Codes>  (1) 
D01AC06#P02CA02

>  <Ligand ID>  (1) 
TMG

>  <Target Name>  (1) 
Fumarate reductase flavoprotein subunit

>  <UniProt ID>  (1) 
P00363

>  <PDB ID.1>  (1) 
3SFE

>  <Seq. Identity>  (1) 
38%

$$$$
