PDB_DB08865_00
     RDKit          3D

 68 71  0  0  0  0  0  0  0  0999 V2000
   -3.6679    1.2248   -2.1812 Cl  0  0  0  0  0  0  0  0  0  0  0  0
   -4.2003    1.5938   -0.5005 C   0  0  0  0  0  0  0  0  0  0  0  0
   -5.6058    2.0738   -0.5670 C   0  0  0  0  0  0  0  0  0  0  0  0
   -6.3134    2.0614    0.7753 C   0  0  0  0  0  0  0  0  0  0  0  0
   -6.2951    0.6214    1.2395 C   0  0  0  0  0  0  0  0  0  0  0  0
   -7.0145   -0.1928    0.4262 F   0  0  0  0  0  0  0  0  0  0  0  0
   -3.9228    0.4465    0.3899 C   0  0  0  0  0  0  0  0  0  0  0  0
   -4.8968    0.2212    1.4953 C   0  0  0  0  0  0  0  0  0  0  0  0
   -4.8834   -1.5293    1.8918 Cl  0  0  0  0  0  0  0  0  0  0  0  0
   -3.5770   -0.8476   -0.3607 C   0  0  1  0  0  0  0  0  0  0  0  0
   -4.6342   -1.3394   -1.2661 C   0  0  0  0  0  0  0  0  0  0  0  0
   -2.3847   -0.6695   -1.0518 O   0  0  0  0  0  0  0  0  0  0  0  0
   -1.3464   -1.4507   -0.5461 C   0  0  0  0  0  0  0  0  0  0  0  0
   -0.2798   -0.4728   -0.0712 C   0  0  0  0  0  0  0  0  0  0  0  0
   -0.7580   -2.2482   -1.6621 C   0  0  0  0  0  0  0  0  0  0  0  0
   -1.6917   -3.1340   -2.3113 N   0  0  0  0  0  0  0  0  0  0  0  0
    0.3870   -3.0322   -1.2719 N   0  0  0  0  0  0  0  0  0  0  0  0
    1.0109   -2.5978   -0.0703 C   0  0  0  0  0  0  0  0  0  0  0  0
    1.0655   -1.1001    0.0809 C   0  0  0  0  0  0  0  0  0  0  0  0
    2.0171   -0.4467   -0.8713 C   0  0  0  0  0  0  0  0  0  0  0  0
    3.4178   -1.0079   -0.8021 C   0  0  0  0  0  0  0  0  0  0  0  0
    2.2507    0.9770   -0.3617 C   0  0  0  0  0  0  0  0  0  0  0  0
    3.5925    1.2723   -0.7276 N   0  0  0  0  0  0  0  0  0  0  0  0
    4.2140    0.1391   -1.1848 N   0  0  0  0  0  0  0  0  0  0  0  0
    4.3399    2.0131    0.2473 C   0  0  0  0  0  0  0  0  0  0  0  0
    5.7179    2.2558   -0.2717 C   0  0  0  0  0  0  0  0  0  0  0  0
    6.6328    1.0808   -0.1918 C   0  0  0  0  0  0  0  0  0  0  0  0
    6.5159    0.3224    1.0250 N   0  0  0  0  0  0  0  0  0  0  0  0
    5.7827    1.0275    2.0538 C   0  0  0  0  0  0  0  0  0  0  0  0
    4.3752    1.3724    1.6042 C   0  0  0  0  0  0  0  0  0  0  0  0
   -3.5742    2.4971   -0.2233 H   0  0  0  0  0  0  0  0  0  0  0  0
   -5.6163    3.1591   -0.8864 H   0  0  0  0  0  0  0  0  0  0  0  0
   -6.2606    1.5654   -1.2781 H   0  0  0  0  0  0  0  0  0  0  0  0
   -5.8175    2.6992    1.5167 H   0  0  0  0  0  0  0  0  0  0  0  0
   -7.3428    2.3853    0.6253 H   0  0  0  0  0  0  0  0  0  0  0  0
   -6.8260    0.6269    2.2372 H   0  0  0  0  0  0  0  0  0  0  0  0
   -2.9375    0.6756    0.9105 H   0  0  0  0  0  0  0  0  0  0  0  0
   -4.5745    0.7272    2.4544 H   0  0  0  0  0  0  0  0  0  0  0  0
   -3.3753   -1.5982    0.4418 H   0  0  0  0  0  0  0  0  0  0  0  0
   -5.3462   -0.6117   -1.6514 H   0  0  0  0  0  0  0  0  0  0  0  0
   -5.1512   -2.2402   -0.8162 H   0  0  0  0  0  0  0  0  0  0  0  0
   -4.1328   -1.7765   -2.1815 H   0  0  0  0  0  0  0  0  0  0  0  0
   -1.6859   -2.0628    0.3123 H   0  0  0  0  0  0  0  0  0  0  0  0
   -0.5976    0.0263    0.8784 H   0  0  0  0  0  0  0  0  0  0  0  0
   -0.2655    0.3534   -0.8313 H   0  0  0  0  0  0  0  0  0  0  0  0
   -0.4054   -1.5295   -2.4359 H   0  0  0  0  0  0  0  0  0  0  0  0
   -2.2737   -3.6757   -1.6349 H   0  0  0  0  0  0  0  0  0  0  0  0
   -1.1714   -3.7243   -2.9762 H   0  0  0  0  0  0  0  0  0  0  0  0
    1.0370   -3.2323   -2.0527 H   0  0  0  0  0  0  0  0  0  0  0  0
    0.5659   -3.0646    0.8274 H   0  0  0  0  0  0  0  0  0  0  0  0
    2.0771   -2.9571   -0.0970 H   0  0  0  0  0  0  0  0  0  0  0  0
    1.4438   -0.9000    1.1132 H   0  0  0  0  0  0  0  0  0  0  0  0
    1.6758   -0.4372   -1.9096 H   0  0  0  0  0  0  0  0  0  0  0  0
    3.6782   -1.4173    0.1773 H   0  0  0  0  0  0  0  0  0  0  0  0
    3.4805   -1.8318   -1.5424 H   0  0  0  0  0  0  0  0  0  0  0  0
    1.5461    1.6223   -0.9506 H   0  0  0  0  0  0  0  0  0  0  0  0
    2.0106    1.0743    0.7013 H   0  0  0  0  0  0  0  0  0  0  0  0
    4.1864    0.1713   -2.2475 H   0  0  0  0  0  0  0  0  0  0  0  0
    3.8418    3.0217    0.3317 H   0  0  0  0  0  0  0  0  0  0  0  0
    6.1533    3.1764    0.2024 H   0  0  0  0  0  0  0  0  0  0  0  0
    5.6195    2.5288   -1.3583 H   0  0  0  0  0  0  0  0  0  0  0  0
    7.6869    1.4869   -0.2063 H   0  0  0  0  0  0  0  0  0  0  0  0
    6.5722    0.4486   -1.1109 H   0  0  0  0  0  0  0  0  0  0  0  0
    6.2261   -0.6512    0.9035 H   0  0  0  0  0  0  0  0  0  0  0  0
    6.3324    1.9177    2.3946 H   0  0  0  0  0  0  0  0  0  0  0  0
    5.6818    0.3346    2.9167 H   0  0  0  0  0  0  0  0  0  0  0  0
    3.9829    2.0898    2.3800 H   0  0  0  0  0  0  0  0  0  0  0  0
    3.7082    0.4883    1.6684 H   0  0  0  0  0  0  0  0  0  0  0  0
  1  2  1  0
  2  3  1  0
  3  4  1  0
  4  5  1  0
  5  6  1  0
  2  7  1  0
  5  8  1  0
  7  8  1  0
  8  9  1  0
  7 10  1  0
 10 11  1  0
 10 12  1  0
 12 13  1  0
 13 14  1  0
 13 15  1  0
 15 16  1  0
 15 17  1  0
 17 18  1  0
 14 19  1  0
 18 19  1  0
 19 20  1  0
 20 21  1  0
 20 22  1  0
 22 23  1  0
 21 24  1  0
 23 24  1  0
 23 25  1  0
 25 26  1  0
 26 27  1  0
 27 28  1  0
 28 29  1  0
 25 30  1  0
 29 30  1  0
  2 31  1  0
  3 32  1  0
  3 33  1  0
  4 34  1  0
  4 35  1  0
  5 36  1  0
  7 37  1  0
  8 38  1  0
 10 39  1  1
 11 40  1  0
 11 41  1  0
 11 42  1  0
 13 43  1  0
 14 44  1  0
 14 45  1  0
 15 46  1  0
 16 47  1  0
 16 48  1  0
 17 49  1  0
 18 50  1  0
 18 51  1  0
 19 52  1  0
 20 53  1  0
 21 54  1  0
 21 55  1  0
 22 56  1  0
 22 57  1  0
 24 58  1  0
 25 59  1  0
 26 60  1  0
 26 61  1  0
 27 62  1  0
 27 63  1  0
 28 64  1  0
 29 65  1  0
 29 66  1  0
 30 67  1  0
 30 68  1  0
M  END
>  <PDBID>  (1) 
4ANQ

>  <PDB ID>  (1) 
4ANQ

>  <Generic Name>  (1) 
Crizotinib

>  <Brand Name>  (1) 
Xalkori

>  <DrugBank ID>  (1) 
DB08865

>  <ATC Codes>  (1) 
L01XE16

>  <Ligand ID>  (1) 
VGH

>  <Target Name>  (1) 
ALK tyrosine kinase receptor

>  <UniProt ID>  (1) 
Q9UM73

>  <PDB ID.1>  (1) 
4ANQ

>  <Seq. Identity>  (1) 
100%

$$$$
