PDB_DB08873_07
     RDKit          3D

 91 93  0  0  0  0  0  0  0  0999 V2000
    3.6629    0.2997    2.3231 C   0  0  0  0  0  0  0  0  0  0  0  0
    4.7718   -0.0676    3.1812 O   0  0  0  0  0  0  0  0  0  0  0  0
    3.7085    1.5807    1.8397 N   0  0  0  0  0  0  0  0  0  0  0  0
    4.7454    2.2403    1.2242 C   0  0  0  0  0  0  0  0  0  0  0  0
    5.2606    1.7828   -0.1002 C   0  0  0  0  0  0  0  0  0  0  0  0
    5.9843    2.4543    2.1003 C   0  0  0  0  0  0  0  0  0  0  0  0
    4.2640    3.6944    0.9747 C   0  0  0  0  0  0  0  0  0  0  0  0
    3.2679   -0.8445    1.6861 N   0  0  0  0  0  0  0  0  0  0  0  0
    2.5145   -0.8392    0.4286 C   0  0  1  0  0  0  0  0  0  0  0  0
    3.3144   -1.8679   -0.3868 C   0  0  0  0  0  0  0  0  0  0  0  0
    3.2939   -3.2387    0.2321 C   0  0  0  0  0  0  0  0  0  0  0  0
    3.0030   -1.9190   -1.8346 C   0  0  0  0  0  0  0  0  0  0  0  0
    4.8250   -1.5007   -0.3085 C   0  0  0  0  0  0  0  0  0  0  0  0
    1.1638   -1.2597    0.7675 C   0  0  1  0  0  0  0  0  0  0  0  0
    0.6035   -0.3922    1.7188 O   0  0  0  0  0  0  0  0  0  0  0  0
    0.1458   -1.5795   -0.1079 N   0  0  0  0  0  0  0  0  0  0  0  0
   -0.8505   -2.4304    0.5508 C   0  0  0  0  0  0  0  0  0  0  0  0
   -0.5623   -0.7852   -0.9896 C   0  0  1  0  0  0  0  0  0  0  0  0
   -1.5355   -1.7130   -1.6490 C   0  0  2  0  0  0  0  0  0  0  0  0
   -1.8527   -2.6835   -0.5167 C   0  0  1  0  0  0  0  0  0  0  0  0
   -1.3047   -3.1851   -1.7908 C   0  0  0  0  0  0  0  0  0  0  0  0
    0.0552   -3.7603   -1.9746 C   0  0  0  0  0  0  0  0  0  0  0  0
   -2.3598   -3.9000   -2.6493 C   0  0  0  0  0  0  0  0  0  0  0  0
   -1.2008    0.3948   -0.3721 C   0  0  0  0  0  0  0  0  0  0  0  0
   -0.2129    1.3340    0.0017 O   0  0  0  0  0  0  0  0  0  0  0  0
   -2.3346    1.0108   -0.8101 N   0  0  0  0  0  0  0  0  0  0  0  0
   -3.6340    0.5225   -0.7281 C   0  0  1  0  0  0  0  0  0  0  0  0
   -4.1027    0.3287    0.7299 C   0  0  0  0  0  0  0  0  0  0  0  0
   -4.0455    1.5315    1.5642 C   0  0  0  0  0  0  0  0  0  0  0  0
   -4.8482    2.7173    1.1166 C   0  0  0  0  0  0  0  0  0  0  0  0
   -5.0178    1.4501    2.7458 C   0  0  0  0  0  0  0  0  0  0  0  0
   -5.2667    2.9543    2.5777 C   0  0  0  0  0  0  0  0  0  0  0  0
   -5.9535    0.7212   -1.3489 O   0  0  0  0  0  0  0  0  0  0  0  0
   -4.7151    1.2787   -1.4145 C   0  0  0  0  0  0  0  0  0  0  0  0
   -4.6325    1.3061   -3.8282 O   0  0  0  0  0  0  0  0  0  0  0  0
   -5.3777    3.1466   -2.7459 N   0  0  0  0  0  0  0  0  0  0  0  0
   -4.4041    2.0326   -2.6320 C   0  0  0  0  0  0  0  0  0  0  0  0
    2.9070    0.4330    3.2644 H   0  0  0  0  0  0  0  0  0  0  0  0
    4.7458   -1.0233    3.3720 H   0  0  0  0  0  0  0  0  0  0  0  0
    2.7924    2.1323    1.9141 H   0  0  0  0  0  0  0  0  0  0  0  0
    6.1002    1.0522    0.0209 H   0  0  0  0  0  0  0  0  0  0  0  0
    4.5097    1.4081   -0.7934 H   0  0  0  0  0  0  0  0  0  0  0  0
    5.7582    2.6352   -0.6658 H   0  0  0  0  0  0  0  0  0  0  0  0
    6.5181    1.4935    2.2631 H   0  0  0  0  0  0  0  0  0  0  0  0
    6.6680    3.0843    1.4931 H   0  0  0  0  0  0  0  0  0  0  0  0
    5.7580    3.0088    3.0143 H   0  0  0  0  0  0  0  0  0  0  0  0
    4.3167    4.2846    1.9111 H   0  0  0  0  0  0  0  0  0  0  0  0
    3.2351    3.7261    0.6103 H   0  0  0  0  0  0  0  0  0  0  0  0
    4.9421    4.1887    0.2426 H   0  0  0  0  0  0  0  0  0  0  0  0
    3.0057   -1.6021    2.3210 H   0  0  0  0  0  0  0  0  0  0  0  0
    2.6300    0.1523   -0.0253 H   0  0  0  0  0  0  0  0  0  0  0  0
    3.9891   -3.3235    1.1165 H   0  0  0  0  0  0  0  0  0  0  0  0
    2.3460   -3.6503    0.5135 H   0  0  0  0  0  0  0  0  0  0  0  0
    3.7360   -3.9591   -0.5178 H   0  0  0  0  0  0  0  0  0  0  0  0
    2.1742   -1.2653   -2.0889 H   0  0  0  0  0  0  0  0  0  0  0  0
    2.8650   -2.9718   -2.2093 H   0  0  0  0  0  0  0  0  0  0  0  0
    3.8702   -1.5313   -2.4727 H   0  0  0  0  0  0  0  0  0  0  0  0
    5.0151   -1.0023    0.6400 H   0  0  0  0  0  0  0  0  0  0  0  0
    5.0267   -0.8648   -1.1881 H   0  0  0  0  0  0  0  0  0  0  0  0
    5.3974   -2.4271   -0.3454 H   0  0  0  0  0  0  0  0  0  0  0  0
    1.2997   -2.2183    1.4084 H   0  0  0  0  0  0  0  0  0  0  0  0
    1.2375    0.3253    1.8724 H   0  0  0  0  0  0  0  0  0  0  0  0
   -1.2029   -1.8854    1.4232 H   0  0  0  0  0  0  0  0  0  0  0  0
   -0.3167   -3.3721    0.7908 H   0  0  0  0  0  0  0  0  0  0  0  0
    0.0771   -0.4084   -1.8636 H   0  0  0  0  0  0  0  0  0  0  0  0
   -2.2517   -1.3147   -2.3633 H   0  0  0  0  0  0  0  0  0  0  0  0
   -2.9174   -2.8074   -0.2464 H   0  0  0  0  0  0  0  0  0  0  0  0
    0.0268   -4.7608   -2.5094 H   0  0  0  0  0  0  0  0  0  0  0  0
    0.6271   -3.9520   -1.0666 H   0  0  0  0  0  0  0  0  0  0  0  0
    0.5721   -3.1037   -2.7306 H   0  0  0  0  0  0  0  0  0  0  0  0
   -2.0580   -4.9588   -2.8331 H   0  0  0  0  0  0  0  0  0  0  0  0
   -2.4654   -3.4385   -3.6304 H   0  0  0  0  0  0  0  0  0  0  0  0
   -3.3407   -3.9538   -2.1476 H   0  0  0  0  0  0  0  0  0  0  0  0
   -1.4299   -0.0061    0.7504 H   0  0  0  0  0  0  0  0  0  0  0  0
   -0.5047    2.2617   -0.2270 H   0  0  0  0  0  0  0  0  0  0  0  0
   -2.2400    2.0306   -1.0539 H   0  0  0  0  0  0  0  0  0  0  0  0
   -3.6978   -0.5209   -1.1089 H   0  0  0  0  0  0  0  0  0  0  0  0
   -3.6318   -0.5748    1.1644 H   0  0  0  0  0  0  0  0  0  0  0  0
   -5.1892    0.0420    0.6086 H   0  0  0  0  0  0  0  0  0  0  0  0
   -3.0356    1.8926    1.8758 H   0  0  0  0  0  0  0  0  0  0  0  0
   -4.2543    3.5838    0.7549 H   0  0  0  0  0  0  0  0  0  0  0  0
   -5.7546    2.5359    0.5358 H   0  0  0  0  0  0  0  0  0  0  0  0
   -5.9256    0.9121    2.4809 H   0  0  0  0  0  0  0  0  0  0  0  0
   -4.5479    1.1973    3.6903 H   0  0  0  0  0  0  0  0  0  0  0  0
   -6.2960    3.2840    2.6812 H   0  0  0  0  0  0  0  0  0  0  0  0
   -4.5650    3.6122    3.1002 H   0  0  0  0  0  0  0  0  0  0  0  0
   -6.3301    0.3858   -2.1842 H   0  0  0  0  0  0  0  0  0  0  0  0
   -5.6326    1.2431   -3.9154 H   0  0  0  0  0  0  0  0  0  0  0  0
   -6.3542    2.7692   -2.5557 H   0  0  0  0  0  0  0  0  0  0  0  0
   -5.1522    3.8822   -2.0365 H   0  0  0  0  0  0  0  0  0  0  0  0
   -3.4258    2.5247   -2.6303 H   0  0  0  0  0  0  0  0  0  0  0  0
  1  2  1  0
  1  3  1  0
  4  3  1  0
  4  5  1  0
  4  6  1  0
  4  7  1  0
  1  8  1  0
  8  9  1  0
  9 10  1  0
 10 11  1  0
 10 12  1  0
 10 13  1  0
  9 14  1  0
 14 15  1  0
 14 16  1  0
 16 17  1  0
 16 18  1  0
 18 19  1  0
 17 20  1  0
 19 20  1  0
 19 21  1  0
 20 21  1  0
 21 22  1  0
 21 23  1  0
 18 24  1  0
 24 25  1  0
 24 26  1  0
 26 27  1  0
 27 28  1  0
 28 29  1  0
 29 30  1  0
 29 31  1  0
 30 32  1  0
 31 32  1  0
 27 34  1  0
 34 33  1  0
 34 37  1  0
 35 37  1  0
 36 37  1  0
  1 38  1  0
  2 39  1  0
  3 40  1  0
  5 41  1  0
  5 42  1  0
  5 43  1  0
  6 44  1  0
  6 45  1  0
  6 46  1  0
  7 47  1  0
  7 48  1  0
  7 49  1  0
  8 50  1  0
  9 51  1  6
 11 52  1  0
 11 53  1  0
 11 54  1  0
 12 55  1  0
 12 56  1  0
 12 57  1  0
 13 58  1  0
 13 59  1  0
 13 60  1  0
 14 61  1  1
 15 62  1  0
 17 63  1  0
 17 64  1  0
 18 65  1  6
 19 66  1  6
 20 67  1  1
 22 68  1  0
 22 69  1  0
 22 70  1  0
 23 71  1  0
 23 72  1  0
 23 73  1  0
 24 74  1  0
 25 75  1  0
 26 76  1  0
 27 77  1  6
 28 78  1  0
 28 79  1  0
 29 80  1  0
 30 81  1  0
 30 82  1  0
 31 83  1  0
 31 84  1  0
 32 85  1  0
 32 86  1  0
 33 87  1  0
 35 88  1  0
 36 89  1  0
 36 90  1  0
 37 91  1  0
M  END
>  <PDBID>  (1) 
2OC8

>  <PDB ID>  (1) 
2OC8

>  <Generic Name>  (1) 
Boceprevir

>  <Brand Name>  (1) 
Victrelis#Victrelis Triple

>  <DrugBank ID>  (1) 
DB08873

>  <ATC Codes>  (1) 
J05AE12

>  <Ligand ID>  (1) 
HU5

>  <Target Name>  (1) 
Genome polyprotein

>  <UniProt ID>  (1) 
B0B3C9

>  <PDB ID.1>  (1) 
2OC8

>  <Seq. Identity>  (1) 
69%

$$$$
