PDB_DB01117_06
     RDKit          3D

 63 66  0  0  0  0  0  0  0  0999 V2000
   -2.9398   -1.7082    2.4323 O   0  0  0  0  0  0  0  0  0  0  0  0
   -3.3936    2.5484    1.2386 O   0  0  0  0  0  0  0  0  0  0  0  0
   -2.3490   -1.4033    1.2022 C   0  0  0  0  0  0  0  0  0  0  0  0
   -1.2024   -0.4332    1.3384 C   0  0  0  0  0  0  0  0  0  0  0  0
   -1.6470    1.0070    1.2946 C   0  0  0  0  0  0  0  0  0  0  0  0
   -3.1138    1.2060    1.5191 C   0  0  0  0  0  0  0  0  0  0  0  0
   -4.5693    1.0618   -0.5364 C   0  0  0  0  0  0  0  0  0  0  0  0
   -5.3495    0.0224   -1.3252 C   0  0  0  0  0  0  0  0  0  0  0  0
   -5.6740   -1.1970   -0.4916 C   0  0  0  0  0  0  0  0  0  0  0  0
   -4.4371   -1.9237   -0.0195 C   0  0  0  0  0  0  0  0  0  0  0  0
   -3.3560   -0.9130    0.1963 C   0  0  0  0  0  0  0  0  0  0  0  0
   -3.9999    0.3661    0.6674 C   0  0  0  0  0  0  0  0  0  0  0  0
   -1.2428    1.6659    0.1329 O   0  0  0  0  0  0  0  0  0  0  0  0
    0.9125    0.3828    0.4595 C   0  0  0  0  0  0  0  0  0  0  0  0
    2.2224   -0.2520    0.8413 C   0  0  0  0  0  0  0  0  0  0  0  0
    2.6898   -1.3441   -0.0428 C   0  0  0  0  0  0  0  0  0  0  0  0
    1.5430   -1.8730   -0.8693 C   0  0  0  0  0  0  0  0  0  0  0  0
    0.3590   -1.9953    0.1066 C   0  0  0  0  0  0  0  0  0  0  0  0
   -0.1980   -0.6090    0.2180 C   0  0  0  0  0  0  0  0  0  0  0  0
    6.6113    2.0339    0.2341 Cl  0  0  0  0  0  0  0  0  0  0  0  0
    3.9084   -1.0306   -0.8620 C   0  0  0  0  0  0  0  0  0  0  0  0
    3.7899    0.1050   -1.7942 C   0  0  0  0  0  0  0  0  0  0  0  0
    4.6086    1.3146   -1.4341 C   0  0  0  0  0  0  0  0  0  0  0  0
    6.0349    0.9865   -1.0946 C   0  0  0  0  0  0  0  0  0  0  0  0
    6.2602   -0.4335   -0.6933 C   0  0  0  0  0  0  0  0  0  0  0  0
    5.0734   -0.8851    0.1197 C   0  0  0  0  0  0  0  0  0  0  0  0
   -2.2851   -1.6741    3.1673 H   0  0  0  0  0  0  0  0  0  0  0  0
   -2.6890    3.1427    1.6168 H   0  0  0  0  0  0  0  0  0  0  0  0
   -1.9293   -2.3561    0.8195 H   0  0  0  0  0  0  0  0  0  0  0  0
   -0.6722   -0.6946    2.2786 H   0  0  0  0  0  0  0  0  0  0  0  0
   -1.1258    1.5309    2.1250 H   0  0  0  0  0  0  0  0  0  0  0  0
   -3.3326    1.0791    2.6111 H   0  0  0  0  0  0  0  0  0  0  0  0
   -3.7967    1.4550   -1.2205 H   0  0  0  0  0  0  0  0  0  0  0  0
   -5.2084    1.9304   -0.2586 H   0  0  0  0  0  0  0  0  0  0  0  0
   -6.3261    0.4873   -1.5876 H   0  0  0  0  0  0  0  0  0  0  0  0
   -4.8576   -0.2726   -2.2563 H   0  0  0  0  0  0  0  0  0  0  0  0
   -6.3652   -0.9287    0.3152 H   0  0  0  0  0  0  0  0  0  0  0  0
   -6.2164   -1.8961   -1.1614 H   0  0  0  0  0  0  0  0  0  0  0  0
   -4.7000   -2.3824    0.9754 H   0  0  0  0  0  0  0  0  0  0  0  0
   -4.1437   -2.7601   -0.6664 H   0  0  0  0  0  0  0  0  0  0  0  0
   -2.8314   -0.7256   -0.7421 H   0  0  0  0  0  0  0  0  0  0  0  0
   -4.8767    0.0596    1.2994 H   0  0  0  0  0  0  0  0  0  0  0  0
   -1.8557    2.3798   -0.1383 H   0  0  0  0  0  0  0  0  0  0  0  0
    0.9748    1.0372   -0.4281 H   0  0  0  0  0  0  0  0  0  0  0  0
    0.6756    1.0857    1.3124 H   0  0  0  0  0  0  0  0  0  0  0  0
    2.0766   -0.6184    1.9029 H   0  0  0  0  0  0  0  0  0  0  0  0
    2.9478    0.5859    0.9511 H   0  0  0  0  0  0  0  0  0  0  0  0
    2.9950   -2.2157    0.6145 H   0  0  0  0  0  0  0  0  0  0  0  0
    1.2546   -1.1439   -1.6410 H   0  0  0  0  0  0  0  0  0  0  0  0
    1.7626   -2.8657   -1.3085 H   0  0  0  0  0  0  0  0  0  0  0  0
   -0.3446   -2.6932   -0.4107 H   0  0  0  0  0  0  0  0  0  0  0  0
    0.7729   -2.3997    1.0379 H   0  0  0  0  0  0  0  0  0  0  0  0
   -0.7260   -0.4044   -0.7425 H   0  0  0  0  0  0  0  0  0  0  0  0
    4.1428   -1.9609   -1.4446 H   0  0  0  0  0  0  0  0  0  0  0  0
    2.7471    0.4360   -1.9227 H   0  0  0  0  0  0  0  0  0  0  0  0
    4.1260   -0.1894   -2.8341 H   0  0  0  0  0  0  0  0  0  0  0  0
    4.1610    1.9296   -0.6307 H   0  0  0  0  0  0  0  0  0  0  0  0
    4.6368    1.9804   -2.3367 H   0  0  0  0  0  0  0  0  0  0  0  0
    6.7195    1.1972   -1.9583 H   0  0  0  0  0  0  0  0  0  0  0  0
    7.1683   -0.4661   -0.0399 H   0  0  0  0  0  0  0  0  0  0  0  0
    6.4564   -1.1219   -1.5412 H   0  0  0  0  0  0  0  0  0  0  0  0
    5.2759   -1.9092    0.5117 H   0  0  0  0  0  0  0  0  0  0  0  0
    4.8475   -0.1527    0.8931 H   0  0  0  0  0  0  0  0  0  0  0  0
  1  3  1  0
  3  4  1  0
  4  5  1  0
  2  6  1  0
  5  6  1  0
  7  8  1  0
  8  9  1  0
  9 10  1  0
  3 11  1  0
 10 11  1  0
  6 12  1  0
  7 12  1  0
 11 12  1  0
  5 13  1  0
 14 15  1  0
 15 16  1  0
 16 17  1  0
 17 18  1  0
  4 19  1  0
 14 19  1  0
 18 19  1  0
 16 21  1  0
 21 22  1  0
 22 23  1  0
 20 24  1  0
 23 24  1  0
 24 25  1  0
 21 26  1  0
 25 26  1  0
  1 27  1  0
  2 28  1  0
  3 29  1  0
  4 30  1  0
  5 31  1  0
  6 32  1  0
  7 33  1  0
  7 34  1  0
  8 35  1  0
  8 36  1  0
  9 37  1  0
  9 38  1  0
 10 39  1  0
 10 40  1  0
 11 41  1  0
 12 42  1  0
 13 43  1  0
 14 44  1  0
 14 45  1  0
 15 46  1  0
 15 47  1  0
 16 48  1  0
 17 49  1  0
 17 50  1  0
 18 51  1  0
 18 52  1  0
 19 53  1  0
 21 54  1  0
 22 55  1  0
 22 56  1  0
 23 57  1  0
 23 58  1  0
 24 59  1  0
 25 60  1  0
 25 61  1  0
 26 62  1  0
 26 63  1  0
M  END
>  <PDBID>  (1) 
4PD4

>  <PDB ID>  (1) 
4PD4

>  <Generic Name>  (1) 
Atovaquone

>  <Brand Name>  (1) 
Atovaquone#Atovaquone Proguanil#Atovaquone and Proguanil HCl#Atovaquone and Proguanil Hydrochloride#Atovaquone and Proguanil Hydrochloride Pediatric#Malarone#Malarone Pediatric#Mepron#Mepron Tab 250mg#Mylan-atovaquone/proguanil#Teva-atovaquone Proguanil

>  <DrugBank ID>  (1) 
DB01117

>  <ATC Codes>  (1) 
P01AX06

>  <Ligand ID>  (1) 
AOQ

>  <Target Name>  (1) 
Cytochrome b

>  <UniProt ID>  (1) 
Q02768

>  <PDB ID.1>  (1) 
4PD4

>  <Seq. Identity>  (1) 
42%

$$$$
