PDB_DB01092_00
     RDKit          3D

178188  0  0  0  0  0  0  0  0999 V2000
    0.9353    1.6071    0.8050 C   0  0  2  0  0  0  0  0  0  0  0  0
    2.4182    1.7433    0.7754 C   0  0  0  0  0  0  0  0  0  0  0  0
    3.1903    0.4540    0.8079 C   0  0  1  0  0  0  0  0  0  0  0  0
    2.3086   -0.6949    1.1172 C   0  0  0  0  0  0  0  0  0  0  0  0
    1.1241   -0.8255    0.1534 C   0  0  1  0  0  0  0  0  0  0  0  0
    0.3141   -1.9293    0.7687 C   0  0  0  0  0  0  0  0  0  0  0  0
   -1.0075   -2.2079    0.1496 C   0  0  0  0  0  0  0  0  0  0  0  0
   -1.5470   -0.9275   -0.5218 C   0  0  2  0  0  0  0  0  0  0  0  0
   -1.0430    0.1916    0.2954 C   0  0  1  0  0  0  0  0  0  0  0  0
    0.3925    0.4682   -0.0453 C   0  0  1  0  0  0  0  0  0  0  0  0
   -1.9428    1.3772    0.4100 C   0  0  1  0  0  0  0  0  0  0  0  0
   -3.3140    0.8264    0.7936 C   0  0  0  0  0  0  0  0  0  0  0  0
   -3.9083    0.0132   -0.3005 C   0  0  1  0  0  0  0  0  0  0  0  0
   -2.9706   -1.0099   -0.8832 C   0  0  2  0  0  0  0  0  0  0  0  0
   -3.6387   -2.3367   -0.5925 C   0  0  0  0  0  0  0  0  0  0  0  0
   -4.5031   -2.0776    0.5890 C   0  0  0  0  0  0  0  0  0  0  0  0
   -5.0741   -0.7309    0.2898 C   0  0  2  0  0  0  0  0  0  0  0  0
   -4.3713    1.0053   -1.3563 C   0  0  0  0  0  0  0  0  0  0  0  0
    0.6201    0.9204   -1.4712 C   0  0  0  0  0  0  0  0  0  0  0  0
   -6.3356   -0.7157   -0.4865 C   0  0  1  0  0  0  0  0  0  0  0  0
   -7.4185   -1.5850    0.1340 C   0  0  0  0  0  0  0  0  0  0  0  0
   -7.0110    0.6551   -0.3235 C   0  0  0  0  0  0  0  0  0  0  0  0
   -8.4099    0.2891    0.1263 C   0  0  0  0  0  0  0  0  0  0  0  0
    5.3710    0.3416   -0.0152 C   0  0  2  0  0  0  0  0  0  0  0  0
    5.9370   -0.9963   -0.3980 C   0  0  1  0  0  0  0  0  0  0  0  0
    7.4473   -1.0215   -0.3187 C   0  0  1  0  0  0  0  0  0  0  0  0
    7.9865    0.3431    0.0704 C   0  0  2  0  0  0  0  0  0  0  0  0
    7.3191    1.3273   -0.8687 C   0  0  2  0  0  0  0  0  0  0  0  0
    7.9830    2.6876   -0.7785 C   0  0  0  0  0  0  0  0  0  0  0  0
    0.4552    2.7852    0.1773 O   0  0  0  0  0  0  0  0  0  0  0  0
    3.9999    0.3224   -0.2962 O   0  0  0  0  0  0  0  0  0  0  0  0
    1.6668   -1.3193   -1.0386 O   0  0  0  0  0  0  0  0  0  0  0  0
   -1.6164    2.1278    1.5718 O   0  0  0  0  0  0  0  0  0  0  0  0
   -3.1229   -0.8619   -2.2937 O   0  0  0  0  0  0  0  0  0  0  0  0
   -0.0286    2.0907   -1.8097 O   0  0  0  0  0  0  0  0  0  0  0  0
   -8.5648   -0.9731   -0.4351 O   0  0  0  0  0  0  0  0  0  0  0  0
   -9.3695    1.1900   -0.3037 O   0  0  0  0  0  0  0  0  0  0  0  0
    5.4920   -1.9361    0.5298 O   0  0  0  0  0  0  0  0  0  0  0  0
    7.9449   -1.9864    0.5399 O   0  0  0  0  0  0  0  0  0  0  0  0
    9.3573    0.3899    0.0522 O   0  0  0  0  0  0  0  0  0  0  0  0
    6.0037    1.4314   -0.5334 O   0  0  0  0  0  0  0  0  0  0  0  0
    0.8975    1.9000    0.3050 C   0  0  2  0  0  0  0  0  0  0  0  0
    2.3904    1.9880    0.0592 C   0  0  0  0  0  0  0  0  0  0  0  0
    3.0997    0.7462    0.5755 C   0  0  1  0  0  0  0  0  0  0  0  0
    2.0687   -0.3335    0.6241 C   0  0  0  0  0  0  0  0  0  0  0  0
    1.2045   -0.3297   -0.6512 C   0  0  1  0  0  0  0  0  0  0  0  0
    0.6933   -1.6846   -0.8255 C   0  0  0  0  0  0  0  0  0  0  0  0
   -0.7463   -1.9464   -0.5293 C   0  0  0  0  0  0  0  0  0  0  0  0
   -1.6088   -0.7066   -0.8618 C   0  0  2  0  0  0  0  0  0  0  0  0
   -1.0443    0.3631   -0.0021 C   0  0  1  0  0  0  0  0  0  0  0  0
    0.2519    0.8146   -0.5885 C   0  0  1  0  0  0  0  0  0  0  0  0
   -1.9890    1.4498    0.3850 C   0  0  1  0  0  0  0  0  0  0  0  0
   -3.2218    0.7896    0.9593 C   0  0  0  0  0  0  0  0  0  0  0  0
   -3.9292    0.0360   -0.1268 C   0  0  1  0  0  0  0  0  0  0  0  0
   -3.0529   -0.9980   -0.7963 C   0  0  2  0  0  0  0  0  0  0  0  0
   -3.4766   -2.2766   -0.1656 C   0  0  0  0  0  0  0  0  0  0  0  0
   -4.3097   -1.9507    1.0600 C   0  0  0  0  0  0  0  0  0  0  0  0
   -5.0364   -0.7125    0.5620 C   0  0  2  0  0  0  0  0  0  0  0  0
   -4.4916    1.0209   -1.1053 C   0  0  0  0  0  0  0  0  0  0  0  0
    0.1536    1.4759   -1.9385 C   0  0  0  0  0  0  0  0  0  0  0  0
   -6.2443   -1.0141   -0.2341 C   0  0  0  0  0  0  0  0  0  0  0  0
   -7.1693   -1.9075    0.6295 C   0  0  0  0  0  0  0  0  0  0  0  0
   -7.1514    0.2079   -0.3126 C   0  0  0  0  0  0  0  0  0  0  0  0
   -8.5381   -0.4108   -0.0884 C   0  0  0  0  0  0  0  0  0  0  0  0
    5.3651    0.2976    0.3569 C   0  0  2  0  0  0  0  0  0  0  0  0
    5.8319   -1.1210    0.2706 C   0  0  1  0  0  0  0  0  0  0  0  0
    7.3160   -1.2810    0.4637 C   0  0  1  0  0  0  0  0  0  0  0  0
    7.9988    0.0538    0.6853 C   0  0  2  0  0  0  0  0  0  0  0  0
    7.4758    0.9583   -0.4115 C   0  0  2  0  0  0  0  0  0  0  0  0
    8.2734    2.2488   -0.4783 C   0  0  0  0  0  0  0  0  0  0  0  0
    0.3930    3.1561   -0.0218 O   0  0  0  0  0  0  0  0  0  0  0  0
    4.1110    0.3713   -0.2777 O   0  0  0  0  0  0  0  0  0  0  0  0
    2.1451   -0.0174   -1.6685 O   0  0  0  0  0  0  0  0  0  0  0  0
   -1.4470    2.1229    1.5131 O   0  0  0  0  0  0  0  0  0  0  0  0
   -3.5772   -1.0489   -2.1217 O   0  0  0  0  0  0  0  0  0  0  0  0
   -0.6122    2.6218   -1.9634 O   0  0  0  0  0  0  0  0  0  0  0  0
   -8.3426   -1.7857   -0.1527 O   0  0  0  0  0  0  0  0  0  0  0  0
   -9.0202   -0.1363    1.1850 O   0  0  0  0  0  0  0  0  0  0  0  0
    5.2125   -1.8295    1.3065 O   0  0  0  0  0  0  0  0  0  0  0  0
    7.6435   -2.1192    1.5253 O   0  0  0  0  0  0  0  0  0  0  0  0
    9.3685   -0.0911    0.6410 O   0  0  0  0  0  0  0  0  0  0  0  0
    6.1798    1.2602   -0.1315 O   0  0  0  0  0  0  0  0  0  0  0  0
    0.6217    1.5442    1.8603 H   0  0  0  0  0  0  0  0  0  0  0  0
    2.7799    2.3280   -0.1217 H   0  0  0  0  0  0  0  0  0  0  0  0
    2.6817    2.4259    1.6385 H   0  0  0  0  0  0  0  0  0  0  0  0
    3.8885    0.5446    1.6949 H   0  0  0  0  0  0  0  0  0  0  0  0
    2.8360   -1.6609    1.0635 H   0  0  0  0  0  0  0  0  0  0  0  0
    1.8639   -0.5148    2.1267 H   0  0  0  0  0  0  0  0  0  0  0  0
    0.2458   -1.7257    1.8720 H   0  0  0  0  0  0  0  0  0  0  0  0
    0.9306   -2.8562    0.6841 H   0  0  0  0  0  0  0  0  0  0  0  0
   -0.9277   -3.0196   -0.6018 H   0  0  0  0  0  0  0  0  0  0  0  0
   -1.6773   -2.5397    0.9699 H   0  0  0  0  0  0  0  0  0  0  0  0
   -0.9586   -0.9649   -1.4888 H   0  0  0  0  0  0  0  0  0  0  0  0
   -0.9835   -0.1646    1.3783 H   0  0  0  0  0  0  0  0  0  0  0  0
   -1.9562    2.0655   -0.4192 H   0  0  0  0  0  0  0  0  0  0  0  0
   -3.9992    1.6760    1.0041 H   0  0  0  0  0  0  0  0  0  0  0  0
   -3.1945    0.2679    1.7401 H   0  0  0  0  0  0  0  0  0  0  0  0
   -4.3391   -2.6592   -1.4213 H   0  0  0  0  0  0  0  0  0  0  0  0
   -2.9431   -3.1772   -0.4865 H   0  0  0  0  0  0  0  0  0  0  0  0
   -3.9443   -2.0067    1.5486 H   0  0  0  0  0  0  0  0  0  0  0  0
   -5.2536   -2.8747    0.7341 H   0  0  0  0  0  0  0  0  0  0  0  0
   -5.3490   -0.2947    1.3113 H   0  0  0  0  0  0  0  0  0  0  0  0
   -5.0296    0.5170   -2.1173 H   0  0  0  0  0  0  0  0  0  0  0  0
   -3.4751    1.3167   -1.9925 H   0  0  0  0  0  0  0  0  0  0  0  0
   -4.7390    1.9459   -0.9555 H   0  0  0  0  0  0  0  0  0  0  0  0
    0.4684    0.1462   -2.2382 H   0  0  0  0  0  0  0  0  0  0  0  0
    1.7234    1.1825   -1.5904 H   0  0  0  0  0  0  0  0  0  0  0  0
   -6.2861   -0.9543   -1.5437 H   0  0  0  0  0  0  0  0  0  0  0  0
   -7.4133   -2.6124   -0.2168 H   0  0  0  0  0  0  0  0  0  0  0  0
   -7.5270   -1.4370    1.2162 H   0  0  0  0  0  0  0  0  0  0  0  0
   -7.1410    1.1794   -1.2872 H   0  0  0  0  0  0  0  0  0  0  0  0
   -6.4865    1.2502    0.4560 H   0  0  0  0  0  0  0  0  0  0  0  0
   -8.3971    0.1842    1.2377 H   0  0  0  0  0  0  0  0  0  0  0  0
    5.4436    0.4460    1.1090 H   0  0  0  0  0  0  0  0  0  0  0  0
    5.5708   -1.3200   -1.3915 H   0  0  0  0  0  0  0  0  0  0  0  0
    7.8283   -1.2379   -1.3351 H   0  0  0  0  0  0  0  0  0  0  0  0
    7.5727    0.5547    1.0966 H   0  0  0  0  0  0  0  0  0  0  0  0
    7.4291    0.8967   -1.8861 H   0  0  0  0  0  0  0  0  0  0  0  0
    7.3159    3.4357   -1.2531 H   0  0  0  0  0  0  0  0  0  0  0  0
    8.9612    2.6966   -1.3196 H   0  0  0  0  0  0  0  0  0  0  0  0
    8.1043    2.9889    0.2900 H   0  0  0  0  0  0  0  0  0  0  0  0
    1.1542    3.3239   -0.2184 H   0  0  0  0  0  0  0  0  0  0  0  0
    1.8590   -2.2781   -0.8832 H   0  0  0  0  0  0  0  0  0  0  0  0
   -1.7352    1.4653    2.3172 H   0  0  0  0  0  0  0  0  0  0  0  0
   -2.3313   -0.3109   -2.5864 H   0  0  0  0  0  0  0  0  0  0  0  0
   -0.5918    2.0251   -2.6212 H   0  0  0  0  0  0  0  0  0  0  0  0
   -9.9460    1.3962    0.4814 H   0  0  0  0  0  0  0  0  0  0  0  0
    6.0309   -1.8126    1.3510 H   0  0  0  0  0  0  0  0  0  0  0  0
    8.5464   -2.6475    0.0644 H   0  0  0  0  0  0  0  0  0  0  0  0
    9.6990    0.8138    0.8957 H   0  0  0  0  0  0  0  0  0  0  0  0
    0.8054    1.6413    1.3790 H   0  0  0  0  0  0  0  0  0  0  0  0
    2.6837    2.1890   -0.9650 H   0  0  0  0  0  0  0  0  0  0  0  0
    2.7306    2.8719    0.6620 H   0  0  0  0  0  0  0  0  0  0  0  0
    3.4308    0.9344    1.6166 H   0  0  0  0  0  0  0  0  0  0  0  0
    2.5983   -1.3118    0.6140 H   0  0  0  0  0  0  0  0  0  0  0  0
    1.4353   -0.3221    1.5252 H   0  0  0  0  0  0  0  0  0  0  0  0
    1.2897   -2.4470   -0.2417 H   0  0  0  0  0  0  0  0  0  0  0  0
    0.8754   -2.0048   -1.8913 H   0  0  0  0  0  0  0  0  0  0  0  0
   -1.1387   -2.7542   -1.1769 H   0  0  0  0  0  0  0  0  0  0  0  0
   -0.9005   -2.1071    0.5548 H   0  0  0  0  0  0  0  0  0  0  0  0
   -1.3291   -0.5612   -1.9414 H   0  0  0  0  0  0  0  0  0  0  0  0
   -0.7370   -0.0847    1.0028 H   0  0  0  0  0  0  0  0  0  0  0  0
   -2.1960    2.2270   -0.3302 H   0  0  0  0  0  0  0  0  0  0  0  0
   -3.9372    1.5439    1.3482 H   0  0  0  0  0  0  0  0  0  0  0  0
   -2.8946    0.1515    1.7806 H   0  0  0  0  0  0  0  0  0  0  0  0
   -4.1660   -2.9005   -0.8126 H   0  0  0  0  0  0  0  0  0  0  0  0
   -2.6784   -2.9800    0.1137 H   0  0  0  0  0  0  0  0  0  0  0  0
   -3.6759   -1.7188    1.9408 H   0  0  0  0  0  0  0  0  0  0  0  0
   -5.0018   -2.7706    1.2714 H   0  0  0  0  0  0  0  0  0  0  0  0
   -5.3841   -0.1485    1.4836 H   0  0  0  0  0  0  0  0  0  0  0  0
   -4.9504    0.5163   -1.9984 H   0  0  0  0  0  0  0  0  0  0  0  0
   -3.6870    1.6516   -1.5738 H   0  0  0  0  0  0  0  0  0  0  0  0
   -5.1437    1.7301   -0.5946 H   0  0  0  0  0  0  0  0  0  0  0  0
   -0.1463    0.7887   -2.7491 H   0  0  0  0  0  0  0  0  0  0  0  0
    1.1783    1.8348   -2.2752 H   0  0  0  0  0  0  0  0  0  0  0  0
   -6.1196   -1.5323   -1.1755 H   0  0  0  0  0  0  0  0  0  0  0  0
   -6.8916   -2.9626    0.5706 H   0  0  0  0  0  0  0  0  0  0  0  0
   -7.2829   -1.5062    1.6347 H   0  0  0  0  0  0  0  0  0  0  0  0
   -7.1817    0.6869   -1.2858 H   0  0  0  0  0  0  0  0  0  0  0  0
   -7.0035    0.8710    0.5576 H   0  0  0  0  0  0  0  0  0  0  0  0
   -9.2515   -0.0544   -0.8558 H   0  0  0  0  0  0  0  0  0  0  0  0
    5.1557    0.5703    1.4367 H   0  0  0  0  0  0  0  0  0  0  0  0
    5.5048   -1.5948   -0.6750 H   0  0  0  0  0  0  0  0  0  0  0  0
    7.7631   -1.7180   -0.4519 H   0  0  0  0  0  0  0  0  0  0  0  0
    7.6212    0.4597    1.6489 H   0  0  0  0  0  0  0  0  0  0  0  0
    7.6006    0.4879   -1.4223 H   0  0  0  0  0  0  0  0  0  0  0  0
    9.2611    2.0578   -0.9461 H   0  0  0  0  0  0  0  0  0  0  0  0
    7.7407    2.9831   -1.1024 H   0  0  0  0  0  0  0  0  0  0  0  0
    8.4422    2.6643    0.5508 H   0  0  0  0  0  0  0  0  0  0  0  0
    0.9954    3.6754   -0.5932 H   0  0  0  0  0  0  0  0  0  0  0  0
    2.6232   -0.8758   -1.8474 H   0  0  0  0  0  0  0  0  0  0  0  0
   -1.4258    1.4850    2.2566 H   0  0  0  0  0  0  0  0  0  0  0  0
   -2.8494   -0.8980   -2.7674 H   0  0  0  0  0  0  0  0  0  0  0  0
   -1.0275    2.8062   -2.8281 H   0  0  0  0  0  0  0  0  0  0  0  0
   -9.5576    0.6940    1.2336 H   0  0  0  0  0  0  0  0  0  0  0  0
    5.7624   -1.6874    2.1412 H   0  0  0  0  0  0  0  0  0  0  0  0
    8.1957   -2.8961    1.2525 H   0  0  0  0  0  0  0  0  0  0  0  0
    9.7990    0.1334    1.5237 H   0  0  0  0  0  0  0  0  0  0  0  0
  1  2  1  0
  2  3  1  0
  3  4  1  0
  4  5  1  0
  5  6  1  0
  6  7  1  0
  7  8  1  0
  8  9  1  0
  1 10  1  0
  5 10  1  0
  9 10  1  0
  9 11  1  0
 11 12  1  0
 12 13  1  0
  8 14  1  0
 13 14  1  0
 14 15  1  0
 15 16  1  0
 13 17  1  0
 16 17  1  0
 13 18  1  6
 10 19  1  6
 17 20  1  0
 20 21  1  0
 20 22  1  0
 22 23  1  0
 24 25  1  0
 25 26  1  0
 26 27  1  0
 27 28  1  0
 28 29  1  0
  1 30  1  0
  3 31  1  0
 24 31  1  0
  5 32  1  6
 11 33  1  0
 14 34  1  6
 19 35  1  0
 21 36  1  0
 23 36  1  0
 23 37  1  0
 25 38  1  0
 26 39  1  0
 27 40  1  0
 24 41  1  0
 28 41  1  0
 42 43  1  0
 43 44  1  0
 44 45  1  0
 45 46  1  0
 46 47  1  0
 47 48  1  0
 48 49  1  0
 49 50  1  0
 42 51  1  0
 46 51  1  0
 50 51  1  0
 50 52  1  0
 52 53  1  0
 53 54  1  0
 49 55  1  0
 54 55  1  0
 55 56  1  0
 56 57  1  0
 54 58  1  0
 57 58  1  0
 54 59  1  6
 51 60  1  6
 58 61  1  0
 61 62  1  0
 61 63  1  0
 63 64  1  0
 65 66  1  0
 66 67  1  0
 67 68  1  0
 68 69  1  0
 69 70  1  0
 42 71  1  0
 44 72  1  0
 65 72  1  0
 46 73  1  6
 52 74  1  0
 55 75  1  6
 60 76  1  0
 62 77  1  0
 64 77  1  0
 64 78  1  0
 66 79  1  0
 67 80  1  0
 68 81  1  0
 65 82  1  0
 69 82  1  0
  1 83  1  1
  2 84  1  0
  2 85  1  0
  3 86  1  1
  4 87  1  0
  4 88  1  0
  6 89  1  0
  6 90  1  0
  7 91  1  0
  7 92  1  0
  8 93  1  6
  9 94  1  1
 11 95  1  6
 12 96  1  0
 12 97  1  0
 15 98  1  0
 15 99  1  0
 16100  1  0
 16101  1  0
 17102  1  1
 18103  1  0
 18104  1  0
 18105  1  0
 19106  1  0
 19107  1  0
 20108  1  6
 21109  1  0
 21110  1  0
 22111  1  0
 22112  1  0
 23113  1  0
 24114  1  1
 25115  1  6
 26116  1  6
 27117  1  1
 28118  1  6
 29119  1  0
 29120  1  0
 29121  1  0
 30122  1  0
 32123  1  0
 33124  1  0
 34125  1  0
 35126  1  0
 37127  1  0
 38128  1  0
 39129  1  0
 40130  1  0
 42131  1  1
 43132  1  0
 43133  1  0
 44134  1  1
 45135  1  0
 45136  1  0
 47137  1  0
 47138  1  0
 48139  1  0
 48140  1  0
 49141  1  6
 50142  1  1
 52143  1  6
 53144  1  0
 53145  1  0
 56146  1  0
 56147  1  0
 57148  1  0
 57149  1  0
 58150  1  1
 59151  1  0
 59152  1  0
 59153  1  0
 60154  1  0
 60155  1  0
 61156  1  0
 62157  1  0
 62158  1  0
 63159  1  0
 63160  1  0
 64161  1  0
 65162  1  1
 66163  1  6
 67164  1  6
 68165  1  1
 69166  1  6
 70167  1  0
 70168  1  0
 70169  1  0
 71170  1  0
 73171  1  0
 74172  1  0
 75173  1  0
 76174  1  0
 78175  1  0
 79176  1  0
 80177  1  0
 81178  1  0
M  END
>  <PDBID>  (1) 
3N23

>  <PDB ID>  (1) 
3N23

>  <Generic Name>  (1) 
Ouabain

>  <Brand Name>  (1) 
Strodival

>  <DrugBank ID>  (1) 
DB01092

>  <ATC Codes>  (1) 
C01AC01

>  <Ligand ID>  (1) 
OBN

>  <Target Name>  (1) 
Sodium/potassium-transporting ATPase subunit alpha-1

>  <UniProt ID>  (1) 
P05023

>  <PDB ID.1>  (1) 
3N23

>  <Seq. Identity>  (1) 
95%

$$$$
