PDB_DB00668_05
     RDKit          3D

 32 32  0  0  0  0  0  0  0  0999 V2000
   -0.0134    0.1410    0.3894 C   0  0  0  0  0  0  0  0  0  0  0  0
   -1.1343    0.6532    1.2506 C   0  0  0  0  0  0  0  0  0  0  0  0
   -2.4900    0.5218    0.5716 C   0  0  0  0  0  0  0  0  0  0  0  0
   -2.6384   -0.9441    0.2041 C   0  0  0  0  0  0  0  0  0  0  0  0
   -1.5942   -1.3574   -0.7799 C   0  0  0  0  0  0  0  0  0  0  0  0
   -0.4634   -0.3996   -0.9306 C   0  0  0  0  0  0  0  0  0  0  0  0
   -2.5885    1.3497   -0.5357 O   0  0  0  0  0  0  0  0  0  0  0  0
   -3.9310   -1.2493   -0.1868 O   0  0  0  0  0  0  0  0  0  0  0  0
    1.4258    1.6121    1.4963 O   0  0  0  0  0  0  0  0  0  0  0  0
    3.9480   -0.7568   -0.7081 C   0  0  0  0  0  0  0  0  0  0  0  0
    2.8059   -0.2931    0.0154 N   0  0  0  0  0  0  0  0  0  0  0  0
    2.1746    0.8410   -0.6036 C   0  0  0  0  0  0  0  0  0  0  0  0
    0.9802    1.2699    0.2179 C   0  0  1  0  0  0  0  0  0  0  0  0
    0.5555   -0.6901    0.8999 H   0  0  0  0  0  0  0  0  0  0  0  0
   -1.1957   -0.0119    2.1569 H   0  0  0  0  0  0  0  0  0  0  0  0
   -0.9672    1.6699    1.6406 H   0  0  0  0  0  0  0  0  0  0  0  0
   -3.2611    0.7360    1.3388 H   0  0  0  0  0  0  0  0  0  0  0  0
   -2.4333   -1.5128    1.1554 H   0  0  0  0  0  0  0  0  0  0  0  0
   -2.0955   -1.4809   -1.7682 H   0  0  0  0  0  0  0  0  0  0  0  0
   -1.1851   -2.3603   -0.5274 H   0  0  0  0  0  0  0  0  0  0  0  0
    0.4066   -0.9803   -1.3539 H   0  0  0  0  0  0  0  0  0  0  0  0
   -0.6770    0.3843   -1.6782 H   0  0  0  0  0  0  0  0  0  0  0  0
   -3.5418    1.3381   -0.8164 H   0  0  0  0  0  0  0  0  0  0  0  0
   -4.5167   -1.0409    0.5982 H   0  0  0  0  0  0  0  0  0  0  0  0
    1.4617    0.7697    2.0164 H   0  0  0  0  0  0  0  0  0  0  0  0
    4.8041   -0.8231    0.0118 H   0  0  0  0  0  0  0  0  0  0  0  0
    4.2203   -0.0244   -1.4887 H   0  0  0  0  0  0  0  0  0  0  0  0
    3.7216   -1.7562   -1.1326 H   0  0  0  0  0  0  0  0  0  0  0  0
    3.0356   -0.0545    1.0130 H   0  0  0  0  0  0  0  0  0  0  0  0
    1.8162    0.5604   -1.6123 H   0  0  0  0  0  0  0  0  0  0  0  0
    2.8629    1.7099   -0.6533 H   0  0  0  0  0  0  0  0  0  0  0  0
    0.5080    2.1788   -0.2007 H   0  0  0  0  0  0  0  0  0  0  0  0
  1  2  1  0
  2  3  1  0
  3  4  1  0
  4  5  1  0
  1  6  1  0
  5  6  1  0
  3  7  1  0
  4  8  1  0
 10 11  1  0
 11 12  1  0
  1 13  1  0
  9 13  1  0
 12 13  1  0
  1 14  1  0
  2 15  1  0
  2 16  1  0
  3 17  1  0
  4 18  1  0
  5 19  1  0
  5 20  1  0
  6 21  1  0
  6 22  1  0
  7 23  1  0
  8 24  1  0
  9 25  1  0
 10 26  1  0
 10 27  1  0
 10 28  1  0
 11 29  1  0
 12 30  1  0
 12 31  1  0
 13 32  1  6
M  END
>  <PDBID>  (1) 
4LDO

>  <PDB ID>  (1) 
4LDO

>  <Generic Name>  (1) 
Epinephrine

>  <Brand Name>  (1) 
2% Lidocaine and Epinephrine 1:100,000 Injection USP#4% Astracaine Dental With Epinephrine 1:200,000 (0.005mg/ml)#4% Astracaine Dental With Epinephrine Forte 1:100,000 (0.01mg/ml)#4% Citanest Forte Dental With Epinephrine 1:200,000#Adrenaclick#Adrenaclick 0.15mg Auto-injector#Adrenaclick 0.30mg Auto-injector#Adrenalin#Adrenalin Chloride Sol 1:1000#Adrenalin Chloride Sol 1:1000 Amp#Adyphren Amp II Kit#Adyphren Amp Kit#Adyphren II Kit#Allerject#Ana-kit#Ana-kit (2mg/tab Orl, 1mg/ml Liq Sc Im)#Anakit Insect Sting Treatment Kit#Anapen#Anapen Junior#Articadent#Articaine#Articaine HCl and Epinephrine#Articaine Hydrochloride and Epinephrine#Auvi-Q#Bronkaid Mistometer Aem 0.5%#Bupivacaine HCl 0.5% and Epinephrine 1:200,000 Injection#Bupivacaine Hydrochloride and Epinephrine#Citanest Forte#Dentsply 2% Lidocaine With Epinephrine 1:100,000#Dentsply 2% Lidocaine With Epinephrine 1:50,000#Dentsply 4% Prilocaine and Epinephrine Injection 1:200,000#Dysne Inhal#E-pilo 1 Ophthalmic Solution#E-pilo 2 Ophthalmic Solution#E-pilo 4 Ophthalmic Solution#E-pilo 6 Ophthalmic Solution#E-pilo-1 Oph Soln#E-pilo-2 Oph Soln#E-pilo-4 Oph Soln#E-pilo-6 Oph Soln#Ephinephrine#Epi E-Z Pen  -  Liquid - 0.3mg/0.3ml#Epinephrine#Epinephrine 1:1000 Inj 1mg/ml USP#Epinephrine Inj 0.1mg/ml USP#Epinephrine Inj 1mg/ml USP#Epinephrine Injection#Epinephrine Injection USP#Epinephrine Injection USP 1 mg/ml#Epipen#Epipen Jr#Episnap Epinephrine Convenience Kit#Gingi Pak Cord No 1#Karticaine#Karticaine Forte#Lidocaine#Lidocaine 2% and Epinephrine 1:100 000#Lidocaine 2% and Epinephrine 1:100,000#Lidocaine 2% and Epinephrine 1:100,000 Injection#Lidocaine 2% and Epinephrine 1:50 000#Lidocaine 2% and Epinephrine 1:50,000#Lidocaine HCl#Lidocaine Hydrochloride 0.5% and Epinephrine 1:200000 Injection USP#Lidocaine Hydrochloride 1% and Epinephrine 1:100 000 Injection USP#Lidocaine Hydrochloride 1.5% and Epinephrine 1:200000 Injection USP#Lidocaine Hydrochloride 1.5% and Epinephrine 1:200000 Injection USP Test Dose#Lidocaine Hydrochloride 2% and Epinephrine 1:100 000 Injection USP#Lidocaine Hydrochloride 2% and Epinephrine 1:200000 Injection USP#Lidocaine Hydrochloride and Epinephrine#Lidocaine Hydrochloride and Epinephrine Bitartrate#Lidocaine and Epinephrine Inj.usp 2% 1:100000#Lignospan Forte#Lignospan Speciale Inj#Lignospan Standard#Marcaine#Marcaine 0.5% and Epinephrine 1:200,000 Liq#Marcaine E 0.25% Liq Prt#Marcaine E 2.5 mg/ml#Marcaine E 5.0 mg/ml#Marcaine E Liq Prt 0.50%#Marcaine With Epinephrine#Numbing Hemorrhoidal Label#Numquick Analgesic#Numquick Topical Analgesic#Octocaine 100#Octocaine 100 Needleject Inj#Octocaine 50#Octocaine HCl 2% Epinephrine 1:100000#Octocaine HCl 2% Epinephrine 1:50000#Orabloc#Orabloc 1:100,000#Orabloc 1:200,000#Posicaine N#Posicaine Sp#Prilocaine HCl 4% Epineph 1:200000inj#Prilocaine Hydrochloride With Epinephrine#Prime Asthma Relief#Scandonest 2% Special Inj#Sensorcaine#Sensorcaine 0.25% With Epinephrine#Sensorcaine 0.5% With Epinephrine#Sensorcaine Forte#Sensorcaine Mpf#Septanest N#Septanest Sp#Septocaine and Epinephrine#Taro-epinephrine Auto-injector#Twinject 0.15mg Auto-injector#Twinject 0.3mg Auto-injector#Ultracaine D-S Forte Injection#Ultracaine D-S Injection#Ultracaine DS Forte Inj#Ultracaine DS Inj#Vivacaine#Xylocaine#Xylocaine 0.5% W Epinephrine 1:100000#Xylocaine 0.5% W Epinephrine 1:200000#Xylocaine 1% W Epinephrine 1:100000#Xylocaine 1% W Epinephrine 1:200000#Xylocaine 1.5% W Epinephrine 1:200000#Xylocaine 1.5% W Epinephrine 1:200000 Test Dose#Xylocaine 2% W Epinephrine 1:100000#Xylocaine 2% W Epinephrine 1:200000#Xylocaine Dental Lidocaine HCl 2% and Epinephrine 1:100,000#Xylocaine Dental Lidocaine Hydrochloride 2% and Epinephrine 1:50,000#Xylocaine Mpf#Xylocaine Mpf 1.5% With Epinephrine#Zorcaine#Epi EZ Pen JR#Medihaler-Epi#Twinject

>  <DrugBank ID>  (1) 
DB00668

>  <ATC Codes>  (1) 
R03AK01#R01AA14#S01EA51#C01CA24#R03AA01#S01EA01#A01AD01#B02BC09

>  <Ligand ID>  (1) 
ALE

>  <Target Name>  (1) 
Beta-1 adrenergic receptor

>  <UniProt ID>  (1) 
P08588

>  <PDB ID.1>  (1) 
4LDO

>  <Seq. Identity>  (1) 
54%

$$$$
