PDB_DB13139_04
     RDKit          3D

 88 88  0  0  0  0  0  0  0  0999 V2000
   -5.1486    1.2035    1.3719 O   0  0  0  0  0  0  0  0  0  0  0  0
   -3.8727    1.3887    0.8761 C   0  0  0  0  0  0  0  0  0  0  0  0
   -3.1418    0.1299    0.5397 C   0  0  0  0  0  0  0  0  0  0  0  0
   -3.7783   -0.7359   -0.4880 C   0  0  0  0  0  0  0  0  0  0  0  0
   -4.3348    0.0892   -1.4708 O   0  0  0  0  0  0  0  0  0  0  0  0
   -2.8931   -1.7731   -1.0718 C   0  0  0  0  0  0  0  0  0  0  0  0
   -1.4533   -1.7124   -0.8349 C   0  0  0  0  0  0  0  0  0  0  0  0
   -1.7954    0.5642   -0.0605 C   0  0  0  0  0  0  0  0  0  0  0  0
   -0.9268   -0.6618    0.1044 C   0  0  0  0  0  0  0  0  0  0  0  0
    0.5191   -0.3585   -0.3183 C   0  0  1  0  0  0  0  0  0  0  0  0
    0.4089    0.0964   -1.6343 O   0  0  0  0  0  0  0  0  0  0  0  0
    1.1601    0.6303    0.5750 C   0  0  0  0  0  0  0  0  0  0  0  0
    2.4477    1.0418    0.2076 N   0  0  0  0  0  0  0  0  0  0  0  0
    3.5766    0.2461    0.2924 C   0  0  0  0  0  0  0  0  0  0  0  0
    3.5462   -0.9635   -0.6018 C   0  0  0  0  0  0  0  0  0  0  0  0
    3.8960   -0.1991    1.7350 C   0  0  0  0  0  0  0  0  0  0  0  0
    4.7910    1.0989   -0.1733 C   0  0  0  0  0  0  0  0  0  0  0  0
   -5.1486    1.2035    1.3719 O   0  0  0  0  0  0  0  0  0  0  0  0
   -3.8727    1.3887    0.8761 C   0  0  0  0  0  0  0  0  0  0  0  0
   -3.1418    0.1299    0.5397 C   0  0  0  0  0  0  0  0  0  0  0  0
   -3.7783   -0.7359   -0.4880 C   0  0  0  0  0  0  0  0  0  0  0  0
   -4.3348    0.0892   -1.4708 O   0  0  0  0  0  0  0  0  0  0  0  0
   -2.8931   -1.7731   -1.0718 C   0  0  0  0  0  0  0  0  0  0  0  0
   -1.4533   -1.7124   -0.8349 C   0  0  0  0  0  0  0  0  0  0  0  0
   -1.7954    0.5642   -0.0605 C   0  0  0  0  0  0  0  0  0  0  0  0
   -0.9268   -0.6618    0.1044 C   0  0  0  0  0  0  0  0  0  0  0  0
    0.5191   -0.3585   -0.3183 C   0  0  1  0  0  0  0  0  0  0  0  0
    0.4089    0.0964   -1.6343 O   0  0  0  0  0  0  0  0  0  0  0  0
    1.1601    0.6303    0.5750 C   0  0  0  0  0  0  0  0  0  0  0  0
    2.4477    1.0418    0.2076 N   0  0  0  0  0  0  0  0  0  0  0  0
    3.5766    0.2461    0.2924 C   0  0  0  0  0  0  0  0  0  0  0  0
    3.5462   -0.9635   -0.6018 C   0  0  0  0  0  0  0  0  0  0  0  0
    3.8960   -0.1991    1.7350 C   0  0  0  0  0  0  0  0  0  0  0  0
    4.7910    1.0989   -0.1733 C   0  0  0  0  0  0  0  0  0  0  0  0
   -5.7463    1.9412    1.0379 H   0  0  0  0  0  0  0  0  0  0  0  0
   -3.8682    2.1297    0.0526 H   0  0  0  0  0  0  0  0  0  0  0  0
   -3.2556    1.8865    1.6868 H   0  0  0  0  0  0  0  0  0  0  0  0
   -2.9330   -0.4875    1.4346 H   0  0  0  0  0  0  0  0  0  0  0  0
   -4.6689   -1.2220    0.0053 H   0  0  0  0  0  0  0  0  0  0  0  0
   -3.8589    0.9309   -1.5897 H   0  0  0  0  0  0  0  0  0  0  0  0
   -3.2730   -2.7908   -0.7519 H   0  0  0  0  0  0  0  0  0  0  0  0
   -3.0879   -1.7853   -2.1856 H   0  0  0  0  0  0  0  0  0  0  0  0
   -0.8886   -1.5708   -1.8092 H   0  0  0  0  0  0  0  0  0  0  0  0
   -1.0435   -2.6966   -0.4499 H   0  0  0  0  0  0  0  0  0  0  0  0
   -1.4577    1.4470    0.4728 H   0  0  0  0  0  0  0  0  0  0  0  0
   -1.8791    0.7272   -1.1641 H   0  0  0  0  0  0  0  0  0  0  0  0
   -0.9596   -1.0885    1.1235 H   0  0  0  0  0  0  0  0  0  0  0  0
    1.0241   -1.3165   -0.3038 H   0  0  0  0  0  0  0  0  0  0  0  0
    0.6801    1.0327   -1.6972 H   0  0  0  0  0  0  0  0  0  0  0  0
    1.1232    0.2036    1.6367 H   0  0  0  0  0  0  0  0  0  0  0  0
    0.5403    1.5635    0.6979 H   0  0  0  0  0  0  0  0  0  0  0  0
    2.6098    2.0319   -0.0076 H   0  0  0  0  0  0  0  0  0  0  0  0
    4.6118   -1.1682   -0.9558 H   0  0  0  0  0  0  0  0  0  0  0  0
    3.2309   -1.8879   -0.0634 H   0  0  0  0  0  0  0  0  0  0  0  0
    2.9446   -0.8631   -1.5073 H   0  0  0  0  0  0  0  0  0  0  0  0
    4.9777   -0.0393    1.8898 H   0  0  0  0  0  0  0  0  0  0  0  0
    3.3331    0.4088    2.4563 H   0  0  0  0  0  0  0  0  0  0  0  0
    3.7311   -1.2896    1.8606 H   0  0  0  0  0  0  0  0  0  0  0  0
    4.4903    1.5401   -1.1471 H   0  0  0  0  0  0  0  0  0  0  0  0
    5.6220    0.3824   -0.3203 H   0  0  0  0  0  0  0  0  0  0  0  0
    5.0004    1.8957    0.5497 H   0  0  0  0  0  0  0  0  0  0  0  0
   -5.7463    1.9412    1.0379 H   0  0  0  0  0  0  0  0  0  0  0  0
   -3.8682    2.1297    0.0526 H   0  0  0  0  0  0  0  0  0  0  0  0
   -3.2556    1.8865    1.6868 H   0  0  0  0  0  0  0  0  0  0  0  0
   -2.9330   -0.4875    1.4346 H   0  0  0  0  0  0  0  0  0  0  0  0
   -4.6689   -1.2220    0.0053 H   0  0  0  0  0  0  0  0  0  0  0  0
   -3.8589    0.9309   -1.5897 H   0  0  0  0  0  0  0  0  0  0  0  0
   -3.2730   -2.7908   -0.7519 H   0  0  0  0  0  0  0  0  0  0  0  0
   -3.0879   -1.7853   -2.1856 H   0  0  0  0  0  0  0  0  0  0  0  0
   -0.8886   -1.5708   -1.8092 H   0  0  0  0  0  0  0  0  0  0  0  0
   -1.0435   -2.6966   -0.4499 H   0  0  0  0  0  0  0  0  0  0  0  0
   -1.4577    1.4470    0.4728 H   0  0  0  0  0  0  0  0  0  0  0  0
   -1.8791    0.7272   -1.1641 H   0  0  0  0  0  0  0  0  0  0  0  0
   -0.9596   -1.0885    1.1235 H   0  0  0  0  0  0  0  0  0  0  0  0
    1.0241   -1.3165   -0.3038 H   0  0  0  0  0  0  0  0  0  0  0  0
    0.6801    1.0327   -1.6972 H   0  0  0  0  0  0  0  0  0  0  0  0
    1.1232    0.2036    1.6367 H   0  0  0  0  0  0  0  0  0  0  0  0
    0.5403    1.5635    0.6979 H   0  0  0  0  0  0  0  0  0  0  0  0
    2.6098    2.0319   -0.0076 H   0  0  0  0  0  0  0  0  0  0  0  0
    4.6118   -1.1682   -0.9558 H   0  0  0  0  0  0  0  0  0  0  0  0
    3.2309   -1.8879   -0.0634 H   0  0  0  0  0  0  0  0  0  0  0  0
    2.9446   -0.8631   -1.5073 H   0  0  0  0  0  0  0  0  0  0  0  0
    4.9777   -0.0393    1.8898 H   0  0  0  0  0  0  0  0  0  0  0  0
    3.3331    0.4088    2.4563 H   0  0  0  0  0  0  0  0  0  0  0  0
    3.7311   -1.2896    1.8606 H   0  0  0  0  0  0  0  0  0  0  0  0
    4.4903    1.5401   -1.1471 H   0  0  0  0  0  0  0  0  0  0  0  0
    5.6220    0.3824   -0.3203 H   0  0  0  0  0  0  0  0  0  0  0  0
    5.0004    1.8957    0.5497 H   0  0  0  0  0  0  0  0  0  0  0  0
  1  2  1  0
  2  3  1  0
  3  4  1  0
  4  5  1  0
  4  6  1  0
  6  7  1  0
  3  8  1  0
  7  9  1  0
  8  9  1  0
  9 10  1  0
 10 11  1  0
 10 12  1  0
 12 13  1  0
 14 13  1  0
 14 15  1  0
 14 16  1  0
 14 17  1  0
 18 19  1  0
 19 20  1  0
 20 21  1  0
 21 22  1  0
 21 23  1  0
 23 24  1  0
 20 25  1  0
 24 26  1  0
 25 26  1  0
 26 27  1  0
 27 28  1  0
 27 29  1  0
 29 30  1  0
 31 30  1  0
 31 32  1  0
 31 33  1  0
 31 34  1  0
  1 35  1  0
  2 36  1  0
  2 37  1  0
  3 38  1  0
  4 39  1  0
  5 40  1  0
  6 41  1  0
  6 42  1  0
  7 43  1  0
  7 44  1  0
  8 45  1  0
  8 46  1  0
  9 47  1  0
 10 48  1  6
 11 49  1  0
 12 50  1  0
 12 51  1  0
 13 52  1  0
 15 53  1  0
 15 54  1  0
 15 55  1  0
 16 56  1  0
 16 57  1  0
 16 58  1  0
 17 59  1  0
 17 60  1  0
 17 61  1  0
 18 62  1  0
 19 63  1  0
 19 64  1  0
 20 65  1  0
 21 66  1  0
 22 67  1  0
 23 68  1  0
 23 69  1  0
 24 70  1  0
 24 71  1  0
 25 72  1  0
 25 73  1  0
 26 74  1  0
 27 75  1  6
 28 76  1  0
 29 77  1  0
 29 78  1  0
 30 79  1  0
 32 80  1  0
 32 81  1  0
 32 82  1  0
 33 83  1  0
 33 84  1  0
 33 85  1  0
 34 86  1  0
 34 87  1  0
 34 88  1  0
M  END
>  <PDBID>  (1) 
2Y04

>  <PDB ID>  (1) 
2Y04

>  <Generic Name>  (1) 
Levosalbutamol

>  <Brand Name>  (1) 
Levalbuterol#Levalbuterol Hydrochloride#Xopenex

>  <DrugBank ID>  (1) 
DB13139

>  <ATC Codes>  (1) 
nan

>  <Ligand ID>  (1) 
68H

>  <Target Name>  (1) 
Beta-2 adrenergic receptor

>  <UniProt ID>  (1) 
P07550

>  <PDB ID.1>  (1) 
2Y04

>  <Seq. Identity>  (1) 
58%

$$$$
