PDB_DB09330_01
     RDKit          3D

 94 97  0  0  0  0  0  0  0  0999 V2000
   -5.4573   -0.3962   -4.0361 C   0  0  0  0  0  0  0  0  0  0  0  0
   -5.6022    0.3188   -2.7532 N   0  0  0  0  0  0  0  0  0  0  0  0
   -5.7730   -0.6845   -1.7591 C   0  0  0  0  0  0  0  0  0  0  0  0
   -4.4726    1.1813   -2.6278 C   0  0  0  0  0  0  0  0  0  0  0  0
   -4.4524    2.0383   -1.4186 C   0  0  0  0  0  0  0  0  0  0  0  0
   -4.4345    1.2860   -0.2030 N   0  0  0  0  0  0  0  0  0  0  0  0
   -4.6518    2.2603    0.8606 C   0  0  0  0  0  0  0  0  0  0  0  0
   -1.9986    1.3126    0.1838 C   0  0  0  0  0  0  0  0  0  0  0  0
   -0.7706    0.4430    0.5069 C   0  0  0  0  0  0  0  0  0  0  0  0
   -0.4348    0.8336    1.8001 O   0  0  0  0  0  0  0  0  0  0  0  0
    0.6501    1.6352    1.9410 C   0  0  0  0  0  0  0  0  0  0  0  0
   -3.2274    0.5201    0.0221 C   0  0  0  0  0  0  0  0  0  0  0  0
   -3.4071   -0.4525    1.1382 C   0  0  2  0  0  0  0  0  0  0  0  0
   -3.7596    0.1698    2.3734 N   0  0  0  0  0  0  0  0  0  0  0  0
   -4.2435   -0.7973    3.3266 C   0  0  0  0  0  0  0  0  0  0  0  0
   -4.5315   -0.1044    4.5335 O   0  0  0  0  0  0  0  0  0  0  0  0
   -5.4928   -1.4885    2.8949 C   0  0  0  0  0  0  0  0  0  0  0  0
   -6.5768   -0.4461    2.6868 C   0  0  0  0  0  0  0  0  0  0  0  0
   -2.2511   -1.4027    1.2763 C   0  0  0  0  0  0  0  0  0  0  0  0
   -1.0726   -0.9875    0.4071 C   0  0  0  0  0  0  0  0  0  0  0  0
   -0.0330   -1.8759    0.6272 N   0  0  0  0  0  0  0  0  0  0  0  0
    1.0935   -2.0470   -0.1377 C   0  0  0  0  0  0  0  0  0  0  0  0
    1.9568   -0.8685   -0.1109 N   0  0  0  0  0  0  0  0  0  0  0  0
    0.9451   -2.5017   -1.5126 N   0  0  0  0  0  0  0  0  0  0  0  0
    2.1409   -2.2146   -2.2830 C   0  0  0  0  0  0  0  0  0  0  0  0
    3.3730   -2.2496   -1.4084 C   0  0  0  0  0  0  0  0  0  0  0  0
    3.3578   -1.3276   -0.2589 C   0  0  0  0  0  0  0  0  0  0  0  0
    4.2253   -0.1568   -0.2469 C   0  0  0  0  0  0  0  0  0  0  0  0
    5.7138   -0.4291   -0.4017 C   0  0  0  0  0  0  0  0  0  0  0  0
    6.3224   -1.1813    0.7209 C   0  0  0  0  0  0  0  0  0  0  0  0
    7.7500   -0.7932    0.8997 C   0  0  0  0  0  0  0  0  0  0  0  0
    8.3584   -0.0472   -0.2405 C   0  0  0  0  0  0  0  0  0  0  0  0
    7.6269    1.1941   -0.6298 C   0  0  0  0  0  0  0  0  0  0  0  0
    6.1866    1.0186   -0.3334 C   0  0  0  0  0  0  0  0  0  0  0  0
    5.3041    1.6590   -1.2850 N   0  0  0  0  0  0  0  0  0  0  0  0
    5.0649    3.0428   -1.0141 C   0  0  0  0  0  0  0  0  0  0  0  0
    4.0390    0.9020   -1.2679 C   0  0  0  0  0  0  0  0  0  0  0  0
   -5.7069    0.2914   -4.8777 H   0  0  0  0  0  0  0  0  0  0  0  0
   -4.4122   -0.7580   -4.0829 H   0  0  0  0  0  0  0  0  0  0  0  0
   -6.1115   -1.2961   -4.0245 H   0  0  0  0  0  0  0  0  0  0  0  0
   -4.9091   -1.3890   -1.7552 H   0  0  0  0  0  0  0  0  0  0  0  0
   -6.0009   -0.3556   -0.7479 H   0  0  0  0  0  0  0  0  0  0  0  0
   -6.6439   -1.3464   -2.0532 H   0  0  0  0  0  0  0  0  0  0  0  0
   -3.5413    0.5932   -2.6919 H   0  0  0  0  0  0  0  0  0  0  0  0
   -4.5244    1.8924   -3.5117 H   0  0  0  0  0  0  0  0  0  0  0  0
   -3.6535    2.8120   -1.4376 H   0  0  0  0  0  0  0  0  0  0  0  0
   -5.4312    2.6100   -1.4162 H   0  0  0  0  0  0  0  0  0  0  0  0
   -3.8642    2.3708    1.5792 H   0  0  0  0  0  0  0  0  0  0  0  0
   -4.9577    3.2658    0.4516 H   0  0  0  0  0  0  0  0  0  0  0  0
   -5.5730    1.9099    1.4041 H   0  0  0  0  0  0  0  0  0  0  0  0
   -1.8129    1.8164   -0.8216 H   0  0  0  0  0  0  0  0  0  0  0  0
   -2.0482    2.1264    0.8912 H   0  0  0  0  0  0  0  0  0  0  0  0
   -0.0011    0.8096   -0.1681 H   0  0  0  0  0  0  0  0  0  0  0  0
    0.8401    1.9267    3.0036 H   0  0  0  0  0  0  0  0  0  0  0  0
    1.5675    1.1181    1.6229 H   0  0  0  0  0  0  0  0  0  0  0  0
    0.5730    2.5703    1.3245 H   0  0  0  0  0  0  0  0  0  0  0  0
   -3.1026   -0.0996   -0.9215 H   0  0  0  0  0  0  0  0  0  0  0  0
   -4.3385   -1.0500    0.8435 H   0  0  0  0  0  0  0  0  0  0  0  0
   -2.9027    0.6147    2.8076 H   0  0  0  0  0  0  0  0  0  0  0  0
   -3.4566   -1.5357    3.5945 H   0  0  0  0  0  0  0  0  0  0  0  0
   -3.6318    0.0396    4.9631 H   0  0  0  0  0  0  0  0  0  0  0  0
   -5.8155   -2.1338    3.7744 H   0  0  0  0  0  0  0  0  0  0  0  0
   -5.3967   -2.1975    2.0699 H   0  0  0  0  0  0  0  0  0  0  0  0
   -7.5411   -0.8577    3.0650 H   0  0  0  0  0  0  0  0  0  0  0  0
   -6.3577    0.4940    3.2200 H   0  0  0  0  0  0  0  0  0  0  0  0
   -6.6108   -0.2621    1.5885 H   0  0  0  0  0  0  0  0  0  0  0  0
   -2.5802   -2.4071    0.9961 H   0  0  0  0  0  0  0  0  0  0  0  0
   -1.9331   -1.4210    2.3277 H   0  0  0  0  0  0  0  0  0  0  0  0
   -1.4477   -1.1837   -0.6620 H   0  0  0  0  0  0  0  0  0  0  0  0
   -0.1846   -2.5920    1.3811 H   0  0  0  0  0  0  0  0  0  0  0  0
    1.7122   -2.8911    0.3389 H   0  0  0  0  0  0  0  0  0  0  0  0
    1.7860   -0.3846   -1.0475 H   0  0  0  0  0  0  0  0  0  0  0  0
    0.8193   -3.5358   -1.5363 H   0  0  0  0  0  0  0  0  0  0  0  0
    2.0064   -1.2684   -2.8368 H   0  0  0  0  0  0  0  0  0  0  0  0
    2.3120   -3.0566   -3.0316 H   0  0  0  0  0  0  0  0  0  0  0  0
    3.3881   -3.3117   -1.0043 H   0  0  0  0  0  0  0  0  0  0  0  0
    4.3067   -2.2112   -2.0163 H   0  0  0  0  0  0  0  0  0  0  0  0
    3.5691   -1.9096    0.6953 H   0  0  0  0  0  0  0  0  0  0  0  0
    4.1519    0.3566    0.7649 H   0  0  0  0  0  0  0  0  0  0  0  0
    5.9453   -0.8261   -1.4050 H   0  0  0  0  0  0  0  0  0  0  0  0
    6.1818   -2.2876    0.6413 H   0  0  0  0  0  0  0  0  0  0  0  0
    5.7703   -0.8844    1.6524 H   0  0  0  0  0  0  0  0  0  0  0  0
    7.9205   -0.2426    1.8436 H   0  0  0  0  0  0  0  0  0  0  0  0
    8.3416   -1.7499    0.9949 H   0  0  0  0  0  0  0  0  0  0  0  0
    8.5617   -0.6911   -1.1274 H   0  0  0  0  0  0  0  0  0  0  0  0
    9.3927    0.2623    0.0996 H   0  0  0  0  0  0  0  0  0  0  0  0
    7.8725    1.4344   -1.6758 H   0  0  0  0  0  0  0  0  0  0  0  0
    8.0061    2.0362    0.0252 H   0  0  0  0  0  0  0  0  0  0  0  0
    5.9179    1.3587    0.6971 H   0  0  0  0  0  0  0  0  0  0  0  0
    4.2834    3.1625   -0.2278 H   0  0  0  0  0  0  0  0  0  0  0  0
    4.7048    3.5186   -1.9582 H   0  0  0  0  0  0  0  0  0  0  0  0
    6.0021    3.5153   -0.6645 H   0  0  0  0  0  0  0  0  0  0  0  0
    3.2118    1.5639   -0.9348 H   0  0  0  0  0  0  0  0  0  0  0  0
    3.8811    0.5670   -2.2937 H   0  0  0  0  0  0  0  0  0  0  0  0
  1  2  1  0
  2  3  1  0
  2  4  1  0
  4  5  1  0
  5  6  1  0
  6  7  1  0
  8  9  1  0
  9 10  1  0
 10 11  1  0
  6 12  1  0
  8 12  1  0
 12 13  1  0
 13 14  1  0
 14 15  1  0
 15 16  1  0
 15 17  1  0
 17 18  1  0
 13 19  1  0
  9 20  1  0
 19 20  1  0
 20 21  1  0
 21 22  1  0
 22 23  1  0
 22 24  1  0
 24 25  1  0
 25 26  1  0
 23 27  1  0
 26 27  1  0
 27 28  1  0
 28 29  1  0
 29 30  1  0
 30 31  1  0
 31 32  1  0
 32 33  1  0
 29 34  1  0
 33 34  1  0
 34 35  1  0
 35 36  1  0
 28 37  1  0
 35 37  1  0
  1 38  1  0
  1 39  1  0
  1 40  1  0
  3 41  1  0
  3 42  1  0
  3 43  1  0
  4 44  1  0
  4 45  1  0
  5 46  1  0
  5 47  1  0
  7 48  1  0
  7 49  1  0
  7 50  1  0
  8 51  1  0
  8 52  1  0
  9 53  1  0
 11 54  1  0
 11 55  1  0
 11 56  1  0
 12 57  1  0
 13 58  1  6
 14 59  1  0
 15 60  1  0
 16 61  1  0
 17 62  1  0
 17 63  1  0
 18 64  1  0
 18 65  1  0
 18 66  1  0
 19 67  1  0
 19 68  1  0
 20 69  1  0
 21 70  1  0
 22 71  1  0
 23 72  1  0
 24 73  1  0
 25 74  1  0
 25 75  1  0
 26 76  1  0
 26 77  1  0
 27 78  1  0
 28 79  1  0
 29 80  1  0
 30 81  1  0
 30 82  1  0
 31 83  1  0
 31 84  1  0
 32 85  1  0
 32 86  1  0
 33 87  1  0
 33 88  1  0
 34 89  1  0
 36 90  1  0
 36 91  1  0
 36 92  1  0
 37 93  1  0
 37 94  1  0
M  END
>  <PDBID>  (1) 
4ZAU

>  <PDB ID>  (1) 
4ZAU

>  <Generic Name>  (1) 
Osimertinib

>  <Brand Name>  (1) 
Tagrisso

>  <DrugBank ID>  (1) 
DB09330

>  <ATC Codes>  (1) 
nan

>  <Ligand ID>  (1) 
YY3

>  <Target Name>  (1) 
Epidermal growth factor receptor

>  <UniProt ID>  (1) 
P00533

>  <PDB ID.1>  (1) 
4ZAU

>  <Seq. Identity>  (1) 
96%

$$$$
