PDB_DB04854_01
     RDKit          3D

108110  0  0  0  0  0  0  0  0999 V2000
    3.2362   -0.3771   -1.2573 S   0  0  0  0  0  0  0  0  0  0  0  0
    2.0950   -0.8593    0.1018 C   0  0  0  0  0  0  0  0  0  0  0  0
    2.8143   -0.3299    1.2254 N   0  0  0  0  0  0  0  0  0  0  0  0
    4.2018   -0.6625    1.1038 C   0  0  0  0  0  0  0  0  0  0  0  0
    4.7189   -0.1303   -0.1971 C   0  0  0  0  0  0  0  0  0  0  0  0
    0.7666   -0.1477   -0.0423 C   0  0  0  0  0  0  0  0  0  0  0  0
    0.1167   -0.5028   -1.3601 C   0  0  0  0  0  0  0  0  0  0  0  0
   -1.1886    0.1890   -1.4500 C   0  0  0  0  0  0  0  0  0  0  0  0
   -2.1712   -0.1717   -0.3343 C   0  0  0  0  0  0  0  0  0  0  0  0
   -1.5078   -0.1260    1.0118 C   0  0  0  0  0  0  0  0  0  0  0  0
   -0.1342   -0.7183    1.0374 C   0  0  0  0  0  0  0  0  0  0  0  0
   -1.0014    1.6822   -1.5542 C   0  0  0  0  0  0  0  0  0  0  0  0
   -0.2192    1.9642   -2.7558 N   0  0  0  0  0  0  0  0  0  0  0  0
   -3.1417    0.7575   -0.3707 O   0  0  0  0  0  0  0  0  0  0  0  0
   -4.4086    0.5665   -0.6946 C   0  0  0  0  0  0  0  0  0  0  0  0
   -5.1964   -0.3245    0.1782 C   0  0  0  0  0  0  0  0  0  0  0  0
   -4.7733   -1.7402    0.2986 C   0  0  0  0  0  0  0  0  0  0  0  0
   -5.1072    0.2646    1.6062 C   0  0  0  0  0  0  0  0  0  0  0  0
    4.4631   -2.1440    1.2599 C   0  0  0  0  0  0  0  0  0  0  0  0
    5.0832    1.3326   -0.1387 C   0  0  0  0  0  0  0  0  0  0  0  0
    5.3602    1.7916   -1.4230 O   0  0  0  0  0  0  0  0  0  0  0  0
    6.2480    1.4943    0.6075 O   0  0  0  0  0  0  0  0  0  0  0  0
    3.2362   -0.3771   -1.2573 S   0  0  0  0  0  0  0  0  0  0  0  0
    2.0950   -0.8593    0.1018 C   0  0  0  0  0  0  0  0  0  0  0  0
    2.8143   -0.3299    1.2254 N   0  0  0  0  0  0  0  0  0  0  0  0
    4.2018   -0.6625    1.1038 C   0  0  0  0  0  0  0  0  0  0  0  0
    4.7189   -0.1303   -0.1971 C   0  0  0  0  0  0  0  0  0  0  0  0
    0.7666   -0.1477   -0.0423 C   0  0  0  0  0  0  0  0  0  0  0  0
    0.1167   -0.5028   -1.3601 C   0  0  0  0  0  0  0  0  0  0  0  0
   -1.1886    0.1890   -1.4500 C   0  0  0  0  0  0  0  0  0  0  0  0
   -2.1712   -0.1717   -0.3343 C   0  0  0  0  0  0  0  0  0  0  0  0
   -1.5078   -0.1260    1.0118 C   0  0  0  0  0  0  0  0  0  0  0  0
   -0.1342   -0.7183    1.0374 C   0  0  0  0  0  0  0  0  0  0  0  0
   -1.0014    1.6822   -1.5542 C   0  0  0  0  0  0  0  0  0  0  0  0
   -0.2192    1.9642   -2.7558 N   0  0  0  0  0  0  0  0  0  0  0  0
   -3.1417    0.7575   -0.3707 O   0  0  0  0  0  0  0  0  0  0  0  0
   -4.4086    0.5665   -0.6946 C   0  0  0  0  0  0  0  0  0  0  0  0
   -5.1964   -0.3245    0.1782 C   0  0  0  0  0  0  0  0  0  0  0  0
   -4.7733   -1.7402    0.2986 C   0  0  0  0  0  0  0  0  0  0  0  0
   -5.1072    0.2646    1.6062 C   0  0  0  0  0  0  0  0  0  0  0  0
    4.4631   -2.1440    1.2599 C   0  0  0  0  0  0  0  0  0  0  0  0
    5.0832    1.3326   -0.1387 C   0  0  0  0  0  0  0  0  0  0  0  0
    5.3602    1.7916   -1.4230 O   0  0  0  0  0  0  0  0  0  0  0  0
    6.2480    1.4943    0.6075 O   0  0  0  0  0  0  0  0  0  0  0  0
    1.9114   -1.9291    0.1224 H   0  0  0  0  0  0  0  0  0  0  0  0
    2.4831   -0.6319    2.1445 H   0  0  0  0  0  0  0  0  0  0  0  0
    4.7405   -0.1511    1.9173 H   0  0  0  0  0  0  0  0  0  0  0  0
    5.5174   -0.7674   -0.5627 H   0  0  0  0  0  0  0  0  0  0  0  0
    0.8986    0.9299    0.1122 H   0  0  0  0  0  0  0  0  0  0  0  0
   -0.0447   -1.6075   -1.3627 H   0  0  0  0  0  0  0  0  0  0  0  0
    0.7274   -0.2244   -2.2274 H   0  0  0  0  0  0  0  0  0  0  0  0
   -1.6883   -0.1290   -2.4102 H   0  0  0  0  0  0  0  0  0  0  0  0
   -2.5483   -1.1712   -0.5928 H   0  0  0  0  0  0  0  0  0  0  0  0
   -2.1360   -0.6634    1.7364 H   0  0  0  0  0  0  0  0  0  0  0  0
   -1.4285    0.9191    1.3784 H   0  0  0  0  0  0  0  0  0  0  0  0
    0.3304   -0.4749    2.0051 H   0  0  0  0  0  0  0  0  0  0  0  0
   -0.1604   -1.8164    0.8930 H   0  0  0  0  0  0  0  0  0  0  0  0
   -1.9945    2.1858   -1.7559 H   0  0  0  0  0  0  0  0  0  0  0  0
   -0.5727    2.0972   -0.6449 H   0  0  0  0  0  0  0  0  0  0  0  0
    0.2091    2.9139   -2.6233 H   0  0  0  0  0  0  0  0  0  0  0  0
   -0.8108    1.9454   -3.6027 H   0  0  0  0  0  0  0  0  0  0  0  0
   -4.5696    0.3209   -1.7982 H   0  0  0  0  0  0  0  0  0  0  0  0
   -4.9431    1.5880   -0.6439 H   0  0  0  0  0  0  0  0  0  0  0  0
   -6.2674   -0.2554   -0.1649 H   0  0  0  0  0  0  0  0  0  0  0  0
   -5.6861   -2.2905    0.7244 H   0  0  0  0  0  0  0  0  0  0  0  0
   -4.0087   -1.8876    1.0716 H   0  0  0  0  0  0  0  0  0  0  0  0
   -4.5622   -2.2680   -0.6549 H   0  0  0  0  0  0  0  0  0  0  0  0
   -4.7186    1.3025    1.5844 H   0  0  0  0  0  0  0  0  0  0  0  0
   -6.1503    0.3448    2.0042 H   0  0  0  0  0  0  0  0  0  0  0  0
   -4.4563   -0.3297    2.2460 H   0  0  0  0  0  0  0  0  0  0  0  0
    4.4120   -2.4479    2.3234 H   0  0  0  0  0  0  0  0  0  0  0  0
    3.7524   -2.7725    0.7077 H   0  0  0  0  0  0  0  0  0  0  0  0
    5.4891   -2.3275    0.8378 H   0  0  0  0  0  0  0  0  0  0  0  0
    4.2922    1.9252    0.3171 H   0  0  0  0  0  0  0  0  0  0  0  0
    5.6886    2.7108   -1.4319 H   0  0  0  0  0  0  0  0  0  0  0  0
    6.0399    1.9116    1.4980 H   0  0  0  0  0  0  0  0  0  0  0  0
    1.9114   -1.9291    0.1224 H   0  0  0  0  0  0  0  0  0  0  0  0
    2.4831   -0.6319    2.1445 H   0  0  0  0  0  0  0  0  0  0  0  0
    4.7405   -0.1511    1.9173 H   0  0  0  0  0  0  0  0  0  0  0  0
    5.5174   -0.7674   -0.5627 H   0  0  0  0  0  0  0  0  0  0  0  0
    0.8986    0.9299    0.1122 H   0  0  0  0  0  0  0  0  0  0  0  0
   -0.0447   -1.6075   -1.3627 H   0  0  0  0  0  0  0  0  0  0  0  0
    0.7274   -0.2244   -2.2274 H   0  0  0  0  0  0  0  0  0  0  0  0
   -1.6883   -0.1290   -2.4102 H   0  0  0  0  0  0  0  0  0  0  0  0
   -2.5483   -1.1712   -0.5928 H   0  0  0  0  0  0  0  0  0  0  0  0
   -2.1360   -0.6634    1.7364 H   0  0  0  0  0  0  0  0  0  0  0  0
   -1.4285    0.9191    1.3784 H   0  0  0  0  0  0  0  0  0  0  0  0
    0.3304   -0.4749    2.0051 H   0  0  0  0  0  0  0  0  0  0  0  0
   -0.1604   -1.8164    0.8930 H   0  0  0  0  0  0  0  0  0  0  0  0
   -1.9945    2.1858   -1.7559 H   0  0  0  0  0  0  0  0  0  0  0  0
   -0.5727    2.0972   -0.6449 H   0  0  0  0  0  0  0  0  0  0  0  0
    0.2091    2.9139   -2.6233 H   0  0  0  0  0  0  0  0  0  0  0  0
   -0.8108    1.9454   -3.6027 H   0  0  0  0  0  0  0  0  0  0  0  0
   -4.5696    0.3209   -1.7982 H   0  0  0  0  0  0  0  0  0  0  0  0
   -4.9431    1.5880   -0.6439 H   0  0  0  0  0  0  0  0  0  0  0  0
   -6.2674   -0.2554   -0.1649 H   0  0  0  0  0  0  0  0  0  0  0  0
   -5.6861   -2.2905    0.7244 H   0  0  0  0  0  0  0  0  0  0  0  0
   -4.0087   -1.8876    1.0716 H   0  0  0  0  0  0  0  0  0  0  0  0
   -4.5622   -2.2680   -0.6549 H   0  0  0  0  0  0  0  0  0  0  0  0
   -4.7186    1.3025    1.5844 H   0  0  0  0  0  0  0  0  0  0  0  0
   -6.1503    0.3448    2.0042 H   0  0  0  0  0  0  0  0  0  0  0  0
   -4.4563   -0.3297    2.2460 H   0  0  0  0  0  0  0  0  0  0  0  0
    4.4120   -2.4479    2.3234 H   0  0  0  0  0  0  0  0  0  0  0  0
    3.7524   -2.7725    0.7077 H   0  0  0  0  0  0  0  0  0  0  0  0
    5.4891   -2.3275    0.8378 H   0  0  0  0  0  0  0  0  0  0  0  0
    4.2922    1.9252    0.3171 H   0  0  0  0  0  0  0  0  0  0  0  0
    5.6886    2.7108   -1.4319 H   0  0  0  0  0  0  0  0  0  0  0  0
    6.0399    1.9116    1.4980 H   0  0  0  0  0  0  0  0  0  0  0  0
  1  2  1  0
  2  3  1  0
  3  4  1  0
  1  5  1  0
  4  5  1  0
  2  6  1  0
  6  7  1  0
  7  8  1  0
  8  9  1  0
  9 10  1  0
  6 11  1  0
 10 11  1  0
  8 12  1  0
 12 13  1  0
  9 14  1  0
 14 15  1  0
 15 16  1  0
 16 17  1  0
 16 18  1  0
  4 19  1  0
  5 20  1  0
 20 21  1  0
 20 22  1  0
 23 24  1  0
 24 25  1  0
 25 26  1  0
 23 27  1  0
 26 27  1  0
 24 28  1  0
 28 29  1  0
 29 30  1  0
 30 31  1  0
 31 32  1  0
 28 33  1  0
 32 33  1  0
 30 34  1  0
 34 35  1  0
 31 36  1  0
 36 37  1  0
 37 38  1  0
 38 39  1  0
 38 40  1  0
 26 41  1  0
 27 42  1  0
 42 43  1  0
 42 44  1  0
  2 45  1  0
  3 46  1  0
  4 47  1  0
  5 48  1  0
  6 49  1  0
  7 50  1  0
  7 51  1  0
  8 52  1  0
  9 53  1  0
 10 54  1  0
 10 55  1  0
 11 56  1  0
 11 57  1  0
 12 58  1  0
 12 59  1  0
 13 60  1  0
 13 61  1  0
 15 62  1  0
 15 63  1  0
 16 64  1  0
 17 65  1  0
 17 66  1  0
 17 67  1  0
 18 68  1  0
 18 69  1  0
 18 70  1  0
 19 71  1  0
 19 72  1  0
 19 73  1  0
 20 74  1  0
 21 75  1  0
 22 76  1  0
 24 77  1  0
 25 78  1  0
 26 79  1  0
 27 80  1  0
 28 81  1  0
 29 82  1  0
 29 83  1  0
 30 84  1  0
 31 85  1  0
 32 86  1  0
 32 87  1  0
 33 88  1  0
 33 89  1  0
 34 90  1  0
 34 91  1  0
 35 92  1  0
 35 93  1  0
 37 94  1  0
 37 95  1  0
 38 96  1  0
 39 97  1  0
 39 98  1  0
 39 99  1  0
 40100  1  0
 40101  1  0
 40102  1  0
 41103  1  0
 41104  1  0
 41105  1  0
 42106  1  0
 43107  1  0
 44108  1  0
M  END
>  <PDBID>  (1) 
1N5X

>  <PDB ID>  (1) 
1N5X

>  <Generic Name>  (1) 
Febuxostat

>  <Brand Name>  (1) 
Febuxostat#Uloric#Adenuric#Atenurix#Barif#Feburic

>  <DrugBank ID>  (1) 
DB04854

>  <ATC Codes>  (1) 
M04AA03

>  <Ligand ID>  (1) 
TEI

>  <Target Name>  (1) 
Xanthine dehydrogenase/oxidase

>  <UniProt ID>  (1) 
P47989

>  <PDB ID.1>  (1) 
1N5X

>  <Seq. Identity>  (1) 
85%

$$$$
