PDB_DB08910_03
     RDKit          3D

180188  0  0  0  0  0  0  0  0999 V2000
   -4.1874   -0.2465    0.3113 C   0  0  0  0  0  0  0  0  0  0  0  0
   -4.0717    0.2384   -1.1122 C   0  0  0  0  0  0  0  0  0  0  0  0
   -2.6898    0.2814   -1.6389 C   0  0  0  0  0  0  0  0  0  0  0  0
   -1.7446   -0.7166   -1.0758 C   0  0  0  0  0  0  0  0  0  0  0  0
   -1.8525   -0.9040    0.4153 C   0  0  0  0  0  0  0  0  0  0  0  0
   -2.8476    0.0648    0.9772 C   0  0  0  0  0  0  0  0  0  0  0  0
   -0.2963   -0.2565   -1.3141 C   0  0  0  0  0  0  0  0  0  0  0  0
    0.3488   -0.7160   -0.1615 N   0  0  0  0  0  0  0  0  0  0  0  0
   -0.4901   -0.5331    0.9798 C   0  0  0  0  0  0  0  0  0  0  0  0
   -2.9172    0.0208    2.4047 N   0  0  0  0  0  0  0  0  0  0  0  0
   -0.0951   -1.4100    1.9690 O   0  0  0  0  0  0  0  0  0  0  0  0
    1.6982   -0.4817    0.0704 C   0  0  1  0  0  0  0  0  0  0  0  0
   -0.3479    1.1037   -1.4909 O   0  0  0  0  0  0  0  0  0  0  0  0
    2.6460   -1.0953   -0.9327 C   0  0  0  0  0  0  0  0  0  0  0  0
    2.1172    0.9435    0.2695 C   0  0  0  0  0  0  0  0  0  0  0  0
    3.3479    0.9221    1.0545 N   0  0  0  0  0  0  0  0  0  0  0  0
    4.3335    0.0394    0.5586 C   0  0  0  0  0  0  0  0  0  0  0  0
    4.0553   -0.6573   -0.7126 C   0  0  0  0  0  0  0  0  0  0  0  0
    2.3938    1.6381   -0.8736 O   0  0  0  0  0  0  0  0  0  0  0  0
    5.5205    0.7929    0.3826 O   0  0  0  0  0  0  0  0  0  0  0  0
   -4.1874   -0.2465    0.3113 C   0  0  0  0  0  0  0  0  0  0  0  0
   -4.0717    0.2384   -1.1122 C   0  0  0  0  0  0  0  0  0  0  0  0
   -2.6898    0.2814   -1.6389 C   0  0  0  0  0  0  0  0  0  0  0  0
   -1.7446   -0.7166   -1.0758 C   0  0  0  0  0  0  0  0  0  0  0  0
   -1.8525   -0.9040    0.4153 C   0  0  0  0  0  0  0  0  0  0  0  0
   -2.8476    0.0648    0.9772 C   0  0  0  0  0  0  0  0  0  0  0  0
   -0.2963   -0.2565   -1.3141 C   0  0  0  0  0  0  0  0  0  0  0  0
    0.3488   -0.7160   -0.1615 N   0  0  0  0  0  0  0  0  0  0  0  0
   -0.4901   -0.5331    0.9798 C   0  0  0  0  0  0  0  0  0  0  0  0
   -2.9172    0.0208    2.4047 N   0  0  0  0  0  0  0  0  0  0  0  0
   -0.0951   -1.4100    1.9690 O   0  0  0  0  0  0  0  0  0  0  0  0
    1.6982   -0.4817    0.0704 C   0  0  1  0  0  0  0  0  0  0  0  0
   -0.3479    1.1037   -1.4909 O   0  0  0  0  0  0  0  0  0  0  0  0
    2.6460   -1.0953   -0.9327 C   0  0  0  0  0  0  0  0  0  0  0  0
    2.1172    0.9435    0.2695 C   0  0  0  0  0  0  0  0  0  0  0  0
    3.3479    0.9221    1.0545 N   0  0  0  0  0  0  0  0  0  0  0  0
    4.3335    0.0394    0.5586 C   0  0  0  0  0  0  0  0  0  0  0  0
    4.0553   -0.6573   -0.7126 C   0  0  0  0  0  0  0  0  0  0  0  0
    2.3938    1.6381   -0.8736 O   0  0  0  0  0  0  0  0  0  0  0  0
    5.5205    0.7929    0.3826 O   0  0  0  0  0  0  0  0  0  0  0  0
   -4.1874   -0.2465    0.3113 C   0  0  0  0  0  0  0  0  0  0  0  0
   -4.0717    0.2384   -1.1122 C   0  0  0  0  0  0  0  0  0  0  0  0
   -2.6898    0.2814   -1.6389 C   0  0  0  0  0  0  0  0  0  0  0  0
   -1.7446   -0.7166   -1.0758 C   0  0  0  0  0  0  0  0  0  0  0  0
   -1.8525   -0.9040    0.4153 C   0  0  0  0  0  0  0  0  0  0  0  0
   -2.8476    0.0648    0.9772 C   0  0  0  0  0  0  0  0  0  0  0  0
   -0.2963   -0.2565   -1.3141 C   0  0  0  0  0  0  0  0  0  0  0  0
    0.3488   -0.7160   -0.1615 N   0  0  0  0  0  0  0  0  0  0  0  0
   -0.4901   -0.5331    0.9798 C   0  0  0  0  0  0  0  0  0  0  0  0
   -2.9172    0.0208    2.4047 N   0  0  0  0  0  0  0  0  0  0  0  0
   -0.0951   -1.4100    1.9690 O   0  0  0  0  0  0  0  0  0  0  0  0
    1.6982   -0.4817    0.0704 C   0  0  1  0  0  0  0  0  0  0  0  0
   -0.3479    1.1037   -1.4909 O   0  0  0  0  0  0  0  0  0  0  0  0
    2.6460   -1.0953   -0.9327 C   0  0  0  0  0  0  0  0  0  0  0  0
    2.1172    0.9435    0.2695 C   0  0  0  0  0  0  0  0  0  0  0  0
    3.3479    0.9221    1.0545 N   0  0  0  0  0  0  0  0  0  0  0  0
    4.3335    0.0394    0.5586 C   0  0  0  0  0  0  0  0  0  0  0  0
    4.0553   -0.6573   -0.7126 C   0  0  0  0  0  0  0  0  0  0  0  0
    2.3938    1.6381   -0.8736 O   0  0  0  0  0  0  0  0  0  0  0  0
    5.5205    0.7929    0.3826 O   0  0  0  0  0  0  0  0  0  0  0  0
   -4.1874   -0.2465    0.3113 C   0  0  0  0  0  0  0  0  0  0  0  0
   -4.0717    0.2384   -1.1122 C   0  0  0  0  0  0  0  0  0  0  0  0
   -2.6898    0.2814   -1.6389 C   0  0  0  0  0  0  0  0  0  0  0  0
   -1.7446   -0.7166   -1.0758 C   0  0  0  0  0  0  0  0  0  0  0  0
   -1.8525   -0.9040    0.4153 C   0  0  0  0  0  0  0  0  0  0  0  0
   -2.8476    0.0648    0.9772 C   0  0  0  0  0  0  0  0  0  0  0  0
   -0.2963   -0.2565   -1.3141 C   0  0  0  0  0  0  0  0  0  0  0  0
    0.3488   -0.7160   -0.1615 N   0  0  0  0  0  0  0  0  0  0  0  0
   -0.4901   -0.5331    0.9798 C   0  0  0  0  0  0  0  0  0  0  0  0
   -2.9172    0.0208    2.4047 N   0  0  0  0  0  0  0  0  0  0  0  0
   -0.0951   -1.4100    1.9690 O   0  0  0  0  0  0  0  0  0  0  0  0
    1.6982   -0.4817    0.0704 C   0  0  1  0  0  0  0  0  0  0  0  0
   -0.3479    1.1037   -1.4909 O   0  0  0  0  0  0  0  0  0  0  0  0
    2.6460   -1.0953   -0.9327 C   0  0  0  0  0  0  0  0  0  0  0  0
    2.1172    0.9435    0.2695 C   0  0  0  0  0  0  0  0  0  0  0  0
    3.3479    0.9221    1.0545 N   0  0  0  0  0  0  0  0  0  0  0  0
    4.3335    0.0394    0.5586 C   0  0  0  0  0  0  0  0  0  0  0  0
    4.0553   -0.6573   -0.7126 C   0  0  0  0  0  0  0  0  0  0  0  0
    2.3938    1.6381   -0.8736 O   0  0  0  0  0  0  0  0  0  0  0  0
    5.5205    0.7929    0.3826 O   0  0  0  0  0  0  0  0  0  0  0  0
   -4.2439   -1.3707    0.2583 H   0  0  0  0  0  0  0  0  0  0  0  0
   -5.0351    0.1885    0.8574 H   0  0  0  0  0  0  0  0  0  0  0  0
   -4.5073    1.2815   -1.1152 H   0  0  0  0  0  0  0  0  0  0  0  0
   -4.7692   -0.3449   -1.7794 H   0  0  0  0  0  0  0  0  0  0  0  0
   -2.2859    1.3091   -1.5367 H   0  0  0  0  0  0  0  0  0  0  0  0
   -2.7420    0.1024   -2.7504 H   0  0  0  0  0  0  0  0  0  0  0  0
   -1.9166   -1.6872   -1.5819 H   0  0  0  0  0  0  0  0  0  0  0  0
   -2.1176   -1.9580    0.6974 H   0  0  0  0  0  0  0  0  0  0  0  0
   -2.5459    1.0833    0.6306 H   0  0  0  0  0  0  0  0  0  0  0  0
    0.0283   -0.7486   -2.2489 H   0  0  0  0  0  0  0  0  0  0  0  0
   -0.5004    0.5312    1.3349 H   0  0  0  0  0  0  0  0  0  0  0  0
   -2.4604    0.8942    2.7915 H   0  0  0  0  0  0  0  0  0  0  0  0
   -3.9315    0.1181    2.6981 H   0  0  0  0  0  0  0  0  0  0  0  0
   -0.3257   -1.0091    2.8492 H   0  0  0  0  0  0  0  0  0  0  0  0
    1.9470   -1.0112    1.0436 H   0  0  0  0  0  0  0  0  0  0  0  0
   -0.4659    1.6146   -0.6732 H   0  0  0  0  0  0  0  0  0  0  0  0
    2.5368   -2.2137   -0.8033 H   0  0  0  0  0  0  0  0  0  0  0  0
    2.3007   -0.9100   -1.9772 H   0  0  0  0  0  0  0  0  0  0  0  0
    1.3797    1.5373    0.8660 H   0  0  0  0  0  0  0  0  0  0  0  0
    3.0390    0.6147    2.0250 H   0  0  0  0  0  0  0  0  0  0  0  0
    4.6122   -0.7242    1.3440 H   0  0  0  0  0  0  0  0  0  0  0  0
    4.4693   -0.0491   -1.5709 H   0  0  0  0  0  0  0  0  0  0  0  0
    4.6994   -1.5880   -0.7400 H   0  0  0  0  0  0  0  0  0  0  0  0
    2.3922    1.1424   -1.6995 H   0  0  0  0  0  0  0  0  0  0  0  0
    5.5218    1.5752    1.0000 H   0  0  0  0  0  0  0  0  0  0  0  0
   -4.2439   -1.3707    0.2583 H   0  0  0  0  0  0  0  0  0  0  0  0
   -5.0351    0.1885    0.8574 H   0  0  0  0  0  0  0  0  0  0  0  0
   -4.5073    1.2815   -1.1152 H   0  0  0  0  0  0  0  0  0  0  0  0
   -4.7692   -0.3449   -1.7794 H   0  0  0  0  0  0  0  0  0  0  0  0
   -2.2859    1.3091   -1.5367 H   0  0  0  0  0  0  0  0  0  0  0  0
   -2.7420    0.1024   -2.7504 H   0  0  0  0  0  0  0  0  0  0  0  0
   -1.9166   -1.6872   -1.5819 H   0  0  0  0  0  0  0  0  0  0  0  0
   -2.1176   -1.9580    0.6974 H   0  0  0  0  0  0  0  0  0  0  0  0
   -2.5459    1.0833    0.6306 H   0  0  0  0  0  0  0  0  0  0  0  0
    0.0283   -0.7486   -2.2489 H   0  0  0  0  0  0  0  0  0  0  0  0
   -0.5004    0.5312    1.3349 H   0  0  0  0  0  0  0  0  0  0  0  0
   -2.4604    0.8942    2.7915 H   0  0  0  0  0  0  0  0  0  0  0  0
   -3.9315    0.1181    2.6981 H   0  0  0  0  0  0  0  0  0  0  0  0
   -0.3257   -1.0091    2.8492 H   0  0  0  0  0  0  0  0  0  0  0  0
    1.9470   -1.0112    1.0436 H   0  0  0  0  0  0  0  0  0  0  0  0
   -0.4659    1.6146   -0.6732 H   0  0  0  0  0  0  0  0  0  0  0  0
    2.5368   -2.2137   -0.8033 H   0  0  0  0  0  0  0  0  0  0  0  0
    2.3007   -0.9100   -1.9772 H   0  0  0  0  0  0  0  0  0  0  0  0
    1.3797    1.5373    0.8660 H   0  0  0  0  0  0  0  0  0  0  0  0
    3.0390    0.6147    2.0250 H   0  0  0  0  0  0  0  0  0  0  0  0
    4.6122   -0.7242    1.3440 H   0  0  0  0  0  0  0  0  0  0  0  0
    4.4693   -0.0491   -1.5709 H   0  0  0  0  0  0  0  0  0  0  0  0
    4.6994   -1.5880   -0.7400 H   0  0  0  0  0  0  0  0  0  0  0  0
    2.3922    1.1424   -1.6995 H   0  0  0  0  0  0  0  0  0  0  0  0
    5.5218    1.5752    1.0000 H   0  0  0  0  0  0  0  0  0  0  0  0
   -4.2439   -1.3707    0.2583 H   0  0  0  0  0  0  0  0  0  0  0  0
   -5.0351    0.1885    0.8574 H   0  0  0  0  0  0  0  0  0  0  0  0
   -4.5073    1.2815   -1.1152 H   0  0  0  0  0  0  0  0  0  0  0  0
   -4.7692   -0.3449   -1.7794 H   0  0  0  0  0  0  0  0  0  0  0  0
   -2.2859    1.3091   -1.5367 H   0  0  0  0  0  0  0  0  0  0  0  0
   -2.7420    0.1024   -2.7504 H   0  0  0  0  0  0  0  0  0  0  0  0
   -1.9166   -1.6872   -1.5819 H   0  0  0  0  0  0  0  0  0  0  0  0
   -2.1176   -1.9580    0.6974 H   0  0  0  0  0  0  0  0  0  0  0  0
   -2.5459    1.0833    0.6306 H   0  0  0  0  0  0  0  0  0  0  0  0
    0.0283   -0.7486   -2.2489 H   0  0  0  0  0  0  0  0  0  0  0  0
   -0.5004    0.5312    1.3349 H   0  0  0  0  0  0  0  0  0  0  0  0
   -2.4604    0.8942    2.7915 H   0  0  0  0  0  0  0  0  0  0  0  0
   -3.9315    0.1181    2.6981 H   0  0  0  0  0  0  0  0  0  0  0  0
   -0.3257   -1.0091    2.8492 H   0  0  0  0  0  0  0  0  0  0  0  0
    1.9470   -1.0112    1.0436 H   0  0  0  0  0  0  0  0  0  0  0  0
   -0.4659    1.6146   -0.6732 H   0  0  0  0  0  0  0  0  0  0  0  0
    2.5368   -2.2137   -0.8033 H   0  0  0  0  0  0  0  0  0  0  0  0
    2.3007   -0.9100   -1.9772 H   0  0  0  0  0  0  0  0  0  0  0  0
    1.3797    1.5373    0.8660 H   0  0  0  0  0  0  0  0  0  0  0  0
    3.0390    0.6147    2.0250 H   0  0  0  0  0  0  0  0  0  0  0  0
    4.6122   -0.7242    1.3440 H   0  0  0  0  0  0  0  0  0  0  0  0
    4.4693   -0.0491   -1.5709 H   0  0  0  0  0  0  0  0  0  0  0  0
    4.6994   -1.5880   -0.7400 H   0  0  0  0  0  0  0  0  0  0  0  0
    2.3922    1.1424   -1.6995 H   0  0  0  0  0  0  0  0  0  0  0  0
    5.5218    1.5752    1.0000 H   0  0  0  0  0  0  0  0  0  0  0  0
   -4.2439   -1.3707    0.2583 H   0  0  0  0  0  0  0  0  0  0  0  0
   -5.0351    0.1885    0.8574 H   0  0  0  0  0  0  0  0  0  0  0  0
   -4.5073    1.2815   -1.1152 H   0  0  0  0  0  0  0  0  0  0  0  0
   -4.7692   -0.3449   -1.7794 H   0  0  0  0  0  0  0  0  0  0  0  0
   -2.2859    1.3091   -1.5367 H   0  0  0  0  0  0  0  0  0  0  0  0
   -2.7420    0.1024   -2.7504 H   0  0  0  0  0  0  0  0  0  0  0  0
   -1.9166   -1.6872   -1.5819 H   0  0  0  0  0  0  0  0  0  0  0  0
   -2.1176   -1.9580    0.6974 H   0  0  0  0  0  0  0  0  0  0  0  0
   -2.5459    1.0833    0.6306 H   0  0  0  0  0  0  0  0  0  0  0  0
    0.0283   -0.7486   -2.2489 H   0  0  0  0  0  0  0  0  0  0  0  0
   -0.5004    0.5312    1.3349 H   0  0  0  0  0  0  0  0  0  0  0  0
   -2.4604    0.8942    2.7915 H   0  0  0  0  0  0  0  0  0  0  0  0
   -3.9315    0.1181    2.6981 H   0  0  0  0  0  0  0  0  0  0  0  0
   -0.3257   -1.0091    2.8492 H   0  0  0  0  0  0  0  0  0  0  0  0
    1.9470   -1.0112    1.0436 H   0  0  0  0  0  0  0  0  0  0  0  0
   -0.4659    1.6146   -0.6732 H   0  0  0  0  0  0  0  0  0  0  0  0
    2.5368   -2.2137   -0.8033 H   0  0  0  0  0  0  0  0  0  0  0  0
    2.3007   -0.9100   -1.9772 H   0  0  0  0  0  0  0  0  0  0  0  0
    1.3797    1.5373    0.8660 H   0  0  0  0  0  0  0  0  0  0  0  0
    3.0390    0.6147    2.0250 H   0  0  0  0  0  0  0  0  0  0  0  0
    4.6122   -0.7242    1.3440 H   0  0  0  0  0  0  0  0  0  0  0  0
    4.4693   -0.0491   -1.5709 H   0  0  0  0  0  0  0  0  0  0  0  0
    4.6994   -1.5880   -0.7400 H   0  0  0  0  0  0  0  0  0  0  0  0
    2.3922    1.1424   -1.6995 H   0  0  0  0  0  0  0  0  0  0  0  0
    5.5218    1.5752    1.0000 H   0  0  0  0  0  0  0  0  0  0  0  0
  1  2  1  0
  2  3  1  0
  3  4  1  0
  4  5  1  0
  1  6  1  0
  5  6  1  0
  4  7  1  0
  7  8  1  0
  5  9  1  0
  8  9  1  0
  6 10  1  0
  9 11  1  0
  8 12  1  0
  7 13  1  0
 12 14  1  0
 12 15  1  0
 15 16  1  0
 16 17  1  0
 14 18  1  0
 17 18  1  0
 15 19  1  0
 17 20  1  0
 21 22  1  0
 22 23  1  0
 23 24  1  0
 24 25  1  0
 21 26  1  0
 25 26  1  0
 24 27  1  0
 27 28  1  0
 25 29  1  0
 28 29  1  0
 26 30  1  0
 29 31  1  0
 28 32  1  0
 27 33  1  0
 32 34  1  0
 32 35  1  0
 35 36  1  0
 36 37  1  0
 34 38  1  0
 37 38  1  0
 35 39  1  0
 37 40  1  0
 41 42  1  0
 42 43  1  0
 43 44  1  0
 44 45  1  0
 41 46  1  0
 45 46  1  0
 44 47  1  0
 47 48  1  0
 45 49  1  0
 48 49  1  0
 46 50  1  0
 49 51  1  0
 48 52  1  0
 47 53  1  0
 52 54  1  0
 52 55  1  0
 55 56  1  0
 56 57  1  0
 54 58  1  0
 57 58  1  0
 55 59  1  0
 57 60  1  0
 61 62  1  0
 62 63  1  0
 63 64  1  0
 64 65  1  0
 61 66  1  0
 65 66  1  0
 64 67  1  0
 67 68  1  0
 65 69  1  0
 68 69  1  0
 66 70  1  0
 69 71  1  0
 68 72  1  0
 67 73  1  0
 72 74  1  0
 72 75  1  0
 75 76  1  0
 76 77  1  0
 74 78  1  0
 77 78  1  0
 75 79  1  0
 77 80  1  0
  1 81  1  0
  1 82  1  0
  2 83  1  0
  2 84  1  0
  3 85  1  0
  3 86  1  0
  4 87  1  0
  5 88  1  0
  6 89  1  0
  7 90  1  0
  9 91  1  0
 10 92  1  0
 10 93  1  0
 11 94  1  0
 12 95  1  1
 13 96  1  0
 14 97  1  0
 14 98  1  0
 15 99  1  0
 16100  1  0
 17101  1  0
 18102  1  0
 18103  1  0
 19104  1  0
 20105  1  0
 21106  1  0
 21107  1  0
 22108  1  0
 22109  1  0
 23110  1  0
 23111  1  0
 24112  1  0
 25113  1  0
 26114  1  0
 27115  1  0
 29116  1  0
 30117  1  0
 30118  1  0
 31119  1  0
 32120  1  1
 33121  1  0
 34122  1  0
 34123  1  0
 35124  1  0
 36125  1  0
 37126  1  0
 38127  1  0
 38128  1  0
 39129  1  0
 40130  1  0
 41131  1  0
 41132  1  0
 42133  1  0
 42134  1  0
 43135  1  0
 43136  1  0
 44137  1  0
 45138  1  0
 46139  1  0
 47140  1  0
 49141  1  0
 50142  1  0
 50143  1  0
 51144  1  0
 52145  1  1
 53146  1  0
 54147  1  0
 54148  1  0
 55149  1  0
 56150  1  0
 57151  1  0
 58152  1  0
 58153  1  0
 59154  1  0
 60155  1  0
 61156  1  0
 61157  1  0
 62158  1  0
 62159  1  0
 63160  1  0
 63161  1  0
 64162  1  0
 65163  1  0
 66164  1  0
 67165  1  0
 69166  1  0
 70167  1  0
 70168  1  0
 71169  1  0
 72170  1  1
 73171  1  0
 74172  1  0
 74173  1  0
 75174  1  0
 76175  1  0
 77176  1  0
 78177  1  0
 78178  1  0
 79179  1  0
 80180  1  0
M  END
>  <PDBID>  (1) 
4TZU

>  <PDB ID>  (1) 
4TZU

>  <Generic Name>  (1) 
Pomalidomide

>  <Brand Name>  (1) 
Pomalyst#Imnovid

>  <DrugBank ID>  (1) 
DB08910

>  <ATC Codes>  (1) 
L04AX06

>  <Ligand ID>  (1) 
Y70

>  <Target Name>  (1) 
Protein cereblon

>  <UniProt ID>  (1) 
Q96SW2

>  <PDB ID.1>  (1) 
4TZU

>  <Seq. Identity>  (1) 
97%

$$$$
