PDB_DB11730_07
     RDKit          3D

 78 82  0  0  0  0  0  0  0  0999 V2000
    0.2023   -0.2998    0.7396 C   0  0  2  0  0  0  0  0  0  0  0  0
   -1.0126   -1.5016   -1.0121 C   0  0  0  0  0  0  0  0  0  0  0  0
   -1.9945   -0.4293   -0.7040 C   0  0  0  0  0  0  0  0  0  0  0  0
   -2.1032   -0.4966    0.8473 C   0  0  0  0  0  0  0  0  0  0  0  0
    4.2198   -1.0714   -0.3551 C   0  0  0  0  0  0  0  0  0  0  0  0
    2.8915   -0.9141    0.1890 N   0  0  0  0  0  0  0  0  0  0  0  0
   -3.4097   -0.7030   -1.1718 C   0  0  0  0  0  0  0  0  0  0  0  0
    4.5205    1.2929   -0.9228 C   0  0  0  0  0  0  0  0  0  0  0  0
    5.1139    0.1262   -0.1689 C   0  0  0  0  0  0  0  0  0  0  0  0
   -4.1098   -0.8506    0.1398 C   0  0  0  0  0  0  0  0  0  0  0  0
    2.4384    0.4405    0.1379 C   0  0  0  0  0  0  0  0  0  0  0  0
   -5.4935   -1.2249    0.2618 C   0  0  2  0  0  0  0  0  0  0  0  0
   -4.9297    3.1017    1.8483 C   0  0  0  0  0  0  0  0  0  0  0  0
   -4.2781    3.5828    0.5688 C   0  0  0  0  0  0  0  0  0  0  0  0
   -3.9012    2.0464    2.2842 C   0  0  0  0  0  0  0  0  0  0  0  0
   -4.0110    2.2415   -0.1230 C   0  0  0  0  0  0  0  0  0  0  0  0
    7.3614    0.8126   -0.7527 C   0  0  0  0  0  0  0  0  0  0  0  0
    6.8595   -1.4415   -0.0334 C   0  0  0  0  0  0  0  0  0  0  0  0
    8.2930    0.9096    0.4110 C   0  0  0  0  0  0  0  0  0  0  0  0
    8.3790   -1.4685    0.0913 C   0  0  0  0  0  0  0  0  0  0  0  0
   -3.4658    1.4076    0.9587 C   0  0  0  0  0  0  0  0  0  0  0  0
   -6.0970   -1.3381   -2.0781 C   0  0  0  0  0  0  0  0  0  0  0  0
   -7.0594   -2.8947   -0.5578 C   0  0  0  0  0  0  0  0  0  0  0  0
    3.0206    1.1429   -1.0881 C   0  0  0  0  0  0  0  0  0  0  0  0
    0.0232   -1.4614   -0.0373 N   0  0  0  0  0  0  0  0  0  0  0  0
   -1.0343    0.2761    1.3109 N   0  0  0  0  0  0  0  0  0  0  0  0
   -3.4567    0.0560    0.9893 N   0  0  0  0  0  0  0  0  0  0  0  0
    6.4130   -0.2441   -0.7073 N   0  0  0  0  0  0  0  0  0  0  0  0
    1.0673    0.7064    0.2457 N   0  0  0  0  0  0  0  0  0  0  0  0
   -5.9749   -2.0595   -0.8504 N   0  0  0  0  0  0  0  0  0  0  0  0
    8.7640   -0.3504    0.9072 N   0  0  0  0  0  0  0  0  0  0  0  0
   -6.4034   -0.1280    0.2300 O   0  0  0  0  0  0  0  0  0  0  0  0
   -1.5831   -2.4779   -0.9186 H   0  0  0  0  0  0  0  0  0  0  0  0
    4.6535   -1.9928    0.0638 H   0  0  0  0  0  0  0  0  0  0  0  0
   -3.7841    0.0853   -1.8249 H   0  0  0  0  0  0  0  0  0  0  0  0
    4.7991    2.2158   -0.3688 H   0  0  0  0  0  0  0  0  0  0  0  0
   -5.8259    2.5230    1.5359 H   0  0  0  0  0  0  0  0  0  0  0  0
   -5.1042    3.8785    2.5833 H   0  0  0  0  0  0  0  0  0  0  0  0
   -3.3195    4.0919    0.7588 H   0  0  0  0  0  0  0  0  0  0  0  0
   -4.9490    4.2130   -0.0096 H   0  0  0  0  0  0  0  0  0  0  0  0
   -4.3356    1.3279    2.9755 H   0  0  0  0  0  0  0  0  0  0  0  0
   -3.1131    2.6026    2.8064 H   0  0  0  0  0  0  0  0  0  0  0  0
   -4.9289    1.9534   -0.6145 H   0  0  0  0  0  0  0  0  0  0  0  0
   -3.2774    2.5104   -0.9458 H   0  0  0  0  0  0  0  0  0  0  0  0
    6.8419    1.7918   -0.8634 H   0  0  0  0  0  0  0  0  0  0  0  0
    7.9886    0.7078   -1.6825 H   0  0  0  0  0  0  0  0  0  0  0  0
    6.5790   -2.3719   -0.5682 H   0  0  0  0  0  0  0  0  0  0  0  0
    6.4575   -1.4945    0.9972 H   0  0  0  0  0  0  0  0  0  0  0  0
    7.8730    1.5528    1.2372 H   0  0  0  0  0  0  0  0  0  0  0  0
    9.2052    1.4700    0.0540 H   0  0  0  0  0  0  0  0  0  0  0  0
    8.6161   -2.3888    0.6610 H   0  0  0  0  0  0  0  0  0  0  0  0
    8.8645   -1.5069   -0.8927 H   0  0  0  0  0  0  0  0  0  0  0  0
   -2.3404    1.7245    0.9339 H   0  0  0  0  0  0  0  0  0  0  0  0
   -6.0666   -0.2139   -1.8634 H   0  0  0  0  0  0  0  0  0  0  0  0
   -5.4393   -1.6095   -2.8958 H   0  0  0  0  0  0  0  0  0  0  0  0
   -7.1791   -1.4460   -2.4232 H   0  0  0  0  0  0  0  0  0  0  0  0
   -7.7711   -2.3684    0.1236 H   0  0  0  0  0  0  0  0  0  0  0  0
   -6.6952   -3.8297   -0.0572 H   0  0  0  0  0  0  0  0  0  0  0  0
   -7.5405   -3.2337   -1.4977 H   0  0  0  0  0  0  0  0  0  0  0  0
    2.5876    2.1581   -1.1049 H   0  0  0  0  0  0  0  0  0  0  0  0
    0.7075    1.1477   -0.6257 H   0  0  0  0  0  0  0  0  0  0  0  0
    8.4571   -0.5297    1.8741 H   0  0  0  0  0  0  0  0  0  0  0  0
    0.7229   -0.6784    1.6988 H   0  0  0  0  0  0  0  0  0  0  0  0
   -0.6678   -1.4610   -2.0766 H   0  0  0  0  0  0  0  0  0  0  0  0
   -1.5953    0.5319   -1.0102 H   0  0  0  0  0  0  0  0  0  0  0  0
   -2.0795   -1.5666    1.1542 H   0  0  0  0  0  0  0  0  0  0  0  0
    4.1979   -1.2482   -1.4710 H   0  0  0  0  0  0  0  0  0  0  0  0
    2.3020   -1.6104   -0.2840 H   0  0  0  0  0  0  0  0  0  0  0  0
   -3.3790   -1.6527   -1.7593 H   0  0  0  0  0  0  0  0  0  0  0  0
    4.9612    1.3236   -1.9343 H   0  0  0  0  0  0  0  0  0  0  0  0
    5.2331    0.3313    0.9072 H   0  0  0  0  0  0  0  0  0  0  0  0
   -3.5740   -1.8590    0.5128 H   0  0  0  0  0  0  0  0  0  0  0  0
    2.9535    0.9630    1.0019 H   0  0  0  0  0  0  0  0  0  0  0  0
   -5.7992   -1.7735    1.1718 H   0  0  0  0  0  0  0  0  0  0  0  0
    2.7590    0.6294   -2.0260 H   0  0  0  0  0  0  0  0  0  0  0  0
    0.1733   -2.3604    0.4737 H   0  0  0  0  0  0  0  0  0  0  0  0
   -0.9654    0.4791    2.3080 H   0  0  0  0  0  0  0  0  0  0  0  0
   -6.4530    0.1956    1.1547 H   0  0  0  0  0  0  0  0  0  0  0  0
  2  3  1  0
  3  4  1  0
  5  6  1  0
  3  7  1  0
  5  9  1  0
  8  9  1  0
  7 10  1  0
  6 11  1  0
 10 12  1  0
 13 14  1  0
 13 15  1  0
 14 16  1  0
 17 19  1  0
 18 20  1  0
 15 21  1  0
 16 21  1  0
  8 24  1  0
 11 24  1  0
  1 25  1  0
  2 25  1  0
  1 26  1  0
  4 26  1  0
  4 27  1  0
 10 27  1  0
 21 27  1  0
  9 28  1  0
 17 28  1  0
 18 28  1  0
  1 29  1  0
 11 29  1  0
 12 30  1  0
 22 30  1  0
 23 30  1  0
 19 31  1  0
 20 31  1  0
 12 32  1  0
  2 33  1  0
  5 34  1  0
  7 35  1  0
  8 36  1  0
 13 37  1  0
 13 38  1  0
 14 39  1  0
 14 40  1  0
 15 41  1  0
 15 42  1  0
 16 43  1  0
 16 44  1  0
 17 45  1  0
 17 46  1  0
 18 47  1  0
 18 48  1  0
 19 49  1  0
 19 50  1  0
 20 51  1  0
 20 52  1  0
 21 53  1  0
 22 54  1  0
 22 55  1  0
 22 56  1  0
 23 57  1  0
 23 58  1  0
 23 59  1  0
 24 60  1  0
 29 61  1  0
 31 62  1  0
  1 63  1  1
  2 64  1  0
  3 65  1  0
  4 66  1  0
  5 67  1  0
  6 68  1  0
  7 69  1  0
  8 70  1  0
  9 71  1  0
 10 72  1  0
 11 73  1  0
 12 74  1  1
 24 75  1  0
 25 76  1  0
 26 77  1  0
 32 78  1  0
M  END
>  <PDBID>  (1) 
5L2T

>  <PDB ID>  (1) 
5L2T

>  <Generic Name>  (1) 
Ribociclib

>  <Brand Name>  (1) 
Kisqali

>  <DrugBank ID>  (1) 
DB11730

>  <ATC Codes>  (1) 
nan

>  <Ligand ID>  (1) 
6ZZ

>  <Target Name>  (1) 
Cyclin-dependent kinase 6

>  <UniProt ID>  (1) 
Q00534

>  <PDB ID.1>  (1) 
5L2T

>  <Seq. Identity>  (1) 
100%

$$$$
