PDB_DB00668_01
     RDKit          3D

 32 32  0  0  0  0  0  0  0  0999 V2000
   -0.2461   -0.6602    0.2048 C   0  0  0  0  0  0  0  0  0  0  0  0
   -0.7179    0.0268   -1.0048 C   0  0  0  0  0  0  0  0  0  0  0  0
   -2.0192    0.7407   -0.9332 C   0  0  0  0  0  0  0  0  0  0  0  0
   -2.8957    0.2858    0.2126 C   0  0  0  0  0  0  0  0  0  0  0  0
   -2.0598    0.5797    1.4593 C   0  0  0  0  0  0  0  0  0  0  0  0
   -0.9937   -0.4780    1.4689 C   0  0  0  0  0  0  0  0  0  0  0  0
   -2.7785    0.6291   -2.0962 O   0  0  0  0  0  0  0  0  0  0  0  0
   -4.0794    0.9718    0.1803 O   0  0  0  0  0  0  0  0  0  0  0  0
    1.6585   -1.0297    1.6369 O   0  0  0  0  0  0  0  0  0  0  0  0
    3.8768    0.7696   -0.5996 C   0  0  0  0  0  0  0  0  0  0  0  0
    3.4447   -0.5814   -0.5674 N   0  0  0  0  0  0  0  0  0  0  0  0
    2.0565   -0.8285   -0.6885 C   0  0  0  0  0  0  0  0  0  0  0  0
    1.2382   -0.3731    0.4842 C   0  0  1  0  0  0  0  0  0  0  0  0
   -0.2630   -1.7731   -0.0212 H   0  0  0  0  0  0  0  0  0  0  0  0
   -0.7784   -0.6575   -1.9033 H   0  0  0  0  0  0  0  0  0  0  0  0
    0.0509    0.7928   -1.3101 H   0  0  0  0  0  0  0  0  0  0  0  0
   -1.8667    1.8408   -0.7759 H   0  0  0  0  0  0  0  0  0  0  0  0
   -3.0022   -0.8142    0.1384 H   0  0  0  0  0  0  0  0  0  0  0  0
   -1.6361    1.5991    1.4159 H   0  0  0  0  0  0  0  0  0  0  0  0
   -2.6786    0.4480    2.3561 H   0  0  0  0  0  0  0  0  0  0  0  0
   -0.3245   -0.2515    2.3526 H   0  0  0  0  0  0  0  0  0  0  0  0
   -1.5259   -1.4208    1.8001 H   0  0  0  0  0  0  0  0  0  0  0  0
   -2.7132   -0.3040   -2.4151 H   0  0  0  0  0  0  0  0  0  0  0  0
   -4.7664    0.3989   -0.2333 H   0  0  0  0  0  0  0  0  0  0  0  0
    2.0236   -0.3895    2.3117 H   0  0  0  0  0  0  0  0  0  0  0  0
    3.1096    1.5066   -0.8472 H   0  0  0  0  0  0  0  0  0  0  0  0
    4.6755    0.8518   -1.3920 H   0  0  0  0  0  0  0  0  0  0  0  0
    4.4028    1.0378    0.3481 H   0  0  0  0  0  0  0  0  0  0  0  0
    3.9588   -1.1987    0.0725 H   0  0  0  0  0  0  0  0  0  0  0  0
    1.5993   -0.4785   -1.6201 H   0  0  0  0  0  0  0  0  0  0  0  0
    1.9314   -1.9533   -0.7128 H   0  0  0  0  0  0  0  0  0  0  0  0
    1.3188    0.7131    0.6782 H   0  0  0  0  0  0  0  0  0  0  0  0
  1  2  1  0
  2  3  1  0
  3  4  1  0
  4  5  1  0
  1  6  1  0
  5  6  1  0
  3  7  1  0
  4  8  1  0
 10 11  1  0
 11 12  1  0
  1 13  1  0
  9 13  1  0
 12 13  1  0
  1 14  1  0
  2 15  1  0
  2 16  1  0
  3 17  1  0
  4 18  1  0
  5 19  1  0
  5 20  1  0
  6 21  1  0
  6 22  1  0
  7 23  1  0
  8 24  1  0
  9 25  1  0
 10 26  1  0
 10 27  1  0
 10 28  1  0
 11 29  1  0
 12 30  1  0
 12 31  1  0
 13 32  1  1
M  END
>  <PDBID>  (1) 
4LDO

>  <PDB ID>  (1) 
4LDO

>  <Generic Name>  (1) 
Epinephrine

>  <Brand Name>  (1) 
2% Lidocaine and Epinephrine 1:100,000 Injection USP#4% Astracaine Dental With Epinephrine 1:200,000 (0.005mg/ml)#4% Astracaine Dental With Epinephrine Forte 1:100,000 (0.01mg/ml)#4% Citanest Forte Dental With Epinephrine 1:200,000#Adrenaclick#Adrenaclick 0.15mg Auto-injector#Adrenaclick 0.30mg Auto-injector#Adrenalin#Adrenalin Chloride Sol 1:1000#Adrenalin Chloride Sol 1:1000 Amp#Adyphren Amp II Kit#Adyphren Amp Kit#Adyphren II Kit#Allerject#Ana-kit#Ana-kit (2mg/tab Orl, 1mg/ml Liq Sc Im)#Anakit Insect Sting Treatment Kit#Anapen#Anapen Junior#Articadent#Articaine#Articaine HCl and Epinephrine#Articaine Hydrochloride and Epinephrine#Auvi-Q#Bronkaid Mistometer Aem 0.5%#Bupivacaine HCl 0.5% and Epinephrine 1:200,000 Injection#Bupivacaine Hydrochloride and Epinephrine#Citanest Forte#Dentsply 2% Lidocaine With Epinephrine 1:100,000#Dentsply 2% Lidocaine With Epinephrine 1:50,000#Dentsply 4% Prilocaine and Epinephrine Injection 1:200,000#Dysne Inhal#E-pilo 1 Ophthalmic Solution#E-pilo 2 Ophthalmic Solution#E-pilo 4 Ophthalmic Solution#E-pilo 6 Ophthalmic Solution#E-pilo-1 Oph Soln#E-pilo-2 Oph Soln#E-pilo-4 Oph Soln#E-pilo-6 Oph Soln#Ephinephrine#Epi E-Z Pen  -  Liquid - 0.3mg/0.3ml#Epinephrine#Epinephrine 1:1000 Inj 1mg/ml USP#Epinephrine Inj 0.1mg/ml USP#Epinephrine Inj 1mg/ml USP#Epinephrine Injection#Epinephrine Injection USP#Epinephrine Injection USP 1 mg/ml#Epipen#Epipen Jr#Episnap Epinephrine Convenience Kit#Gingi Pak Cord No 1#Karticaine#Karticaine Forte#Lidocaine#Lidocaine 2% and Epinephrine 1:100 000#Lidocaine 2% and Epinephrine 1:100,000#Lidocaine 2% and Epinephrine 1:100,000 Injection#Lidocaine 2% and Epinephrine 1:50 000#Lidocaine 2% and Epinephrine 1:50,000#Lidocaine HCl#Lidocaine Hydrochloride 0.5% and Epinephrine 1:200000 Injection USP#Lidocaine Hydrochloride 1% and Epinephrine 1:100 000 Injection USP#Lidocaine Hydrochloride 1.5% and Epinephrine 1:200000 Injection USP#Lidocaine Hydrochloride 1.5% and Epinephrine 1:200000 Injection USP Test Dose#Lidocaine Hydrochloride 2% and Epinephrine 1:100 000 Injection USP#Lidocaine Hydrochloride 2% and Epinephrine 1:200000 Injection USP#Lidocaine Hydrochloride and Epinephrine#Lidocaine Hydrochloride and Epinephrine Bitartrate#Lidocaine and Epinephrine Inj.usp 2% 1:100000#Lignospan Forte#Lignospan Speciale Inj#Lignospan Standard#Marcaine#Marcaine 0.5% and Epinephrine 1:200,000 Liq#Marcaine E 0.25% Liq Prt#Marcaine E 2.5 mg/ml#Marcaine E 5.0 mg/ml#Marcaine E Liq Prt 0.50%#Marcaine With Epinephrine#Numbing Hemorrhoidal Label#Numquick Analgesic#Numquick Topical Analgesic#Octocaine 100#Octocaine 100 Needleject Inj#Octocaine 50#Octocaine HCl 2% Epinephrine 1:100000#Octocaine HCl 2% Epinephrine 1:50000#Orabloc#Orabloc 1:100,000#Orabloc 1:200,000#Posicaine N#Posicaine Sp#Prilocaine HCl 4% Epineph 1:200000inj#Prilocaine Hydrochloride With Epinephrine#Prime Asthma Relief#Scandonest 2% Special Inj#Sensorcaine#Sensorcaine 0.25% With Epinephrine#Sensorcaine 0.5% With Epinephrine#Sensorcaine Forte#Sensorcaine Mpf#Septanest N#Septanest Sp#Septocaine and Epinephrine#Taro-epinephrine Auto-injector#Twinject 0.15mg Auto-injector#Twinject 0.3mg Auto-injector#Ultracaine D-S Forte Injection#Ultracaine D-S Injection#Ultracaine DS Forte Inj#Ultracaine DS Inj#Vivacaine#Xylocaine#Xylocaine 0.5% W Epinephrine 1:100000#Xylocaine 0.5% W Epinephrine 1:200000#Xylocaine 1% W Epinephrine 1:100000#Xylocaine 1% W Epinephrine 1:200000#Xylocaine 1.5% W Epinephrine 1:200000#Xylocaine 1.5% W Epinephrine 1:200000 Test Dose#Xylocaine 2% W Epinephrine 1:100000#Xylocaine 2% W Epinephrine 1:200000#Xylocaine Dental Lidocaine HCl 2% and Epinephrine 1:100,000#Xylocaine Dental Lidocaine Hydrochloride 2% and Epinephrine 1:50,000#Xylocaine Mpf#Xylocaine Mpf 1.5% With Epinephrine#Zorcaine#Epi EZ Pen JR#Medihaler-Epi#Twinject

>  <DrugBank ID>  (1) 
DB00668

>  <ATC Codes>  (1) 
R03AK01#R01AA14#S01EA51#C01CA24#R03AA01#S01EA01#A01AD01#B02BC09

>  <Ligand ID>  (1) 
ALE

>  <Target Name>  (1) 
Beta-1 adrenergic receptor

>  <UniProt ID>  (1) 
P08588

>  <PDB ID.1>  (1) 
4LDO

>  <Seq. Identity>  (1) 
54%

$$$$
