PDB_DB01361_05
     RDKit          3D

134137  0  0  0  0  0  0  0  0999 V2000
    3.5867   -5.7184    1.9973 C   0  0  0  0  0  0  0  0  0  0  0  0
    4.1896   -4.6044    1.3655 O   0  0  0  0  0  0  0  0  0  0  0  0
    3.2113   -3.9720    0.6710 C   0  0  1  0  0  0  0  0  0  0  0  0
    3.0624   -2.5118    1.0890 C   0  0  0  0  0  0  0  0  0  0  0  0
    1.8512   -1.8577    0.4601 C   0  0  1  0  0  0  0  0  0  0  0  0
    1.3056   -2.8721   -0.3842 O   0  0  0  0  0  0  0  0  0  0  0  0
    2.2628   -3.1311   -1.3695 C   0  0  1  0  0  0  0  0  0  0  0  0
    2.6999   -1.9411   -2.1465 C   0  0  0  0  0  0  0  0  0  0  0  0
    3.4724   -3.8774   -0.8397 C   0  0  2  0  0  0  0  0  0  0  0  0
    3.6778   -5.0969   -1.4292 O   0  0  0  0  0  0  0  0  0  0  0  0
    4.9903   -5.1933   -1.8989 C   0  0  1  0  0  0  0  0  0  0  0  0
    5.6184   -6.2843   -1.3088 O   0  0  0  0  0  0  0  0  0  0  0  0
    5.0887   -5.3221   -3.3919 C   0  0  0  0  0  0  0  0  0  0  0  0
    1.0510   -1.4244    1.4401 O   0  0  0  0  0  0  0  0  0  0  0  0
    0.5286   -0.1494    1.4153 C   0  0  2  0  0  0  0  0  0  0  0  0
    1.3609    0.6557    2.4019 C   0  0  2  0  0  0  0  0  0  0  0  0
    0.7922    2.0630    2.6520 C   0  0  0  0  0  0  0  0  0  0  0  0
    0.2489    2.0874    3.9017 O   0  0  0  0  0  0  0  0  0  0  0  0
    1.6386    3.0594    2.3026 O   0  0  0  0  0  0  0  0  0  0  0  0
    1.9177    4.1051    3.0763 C   0  0  2  0  0  0  0  0  0  0  0  0
    2.4483    3.8682    4.4529 C   0  0  0  0  0  0  0  0  0  0  0  0
    0.8760    5.2396    3.0570 C   0  0  2  0  0  0  0  0  0  0  0  0
   -0.0734    5.1343    4.1977 C   0  0  0  0  0  0  0  0  0  0  0  0
    0.2575    5.4258    1.7032 C   0  0  1  0  0  0  0  0  0  0  0  0
    1.1031    4.8427    0.7605 O   0  0  0  0  0  0  0  0  0  0  0  0
    1.6515    5.7338   -0.1285 C   0  0  2  0  0  0  0  0  0  0  0  0
    1.3743    5.5061   -1.4551 O   0  0  0  0  0  0  0  0  0  0  0  0
    3.1678    5.8351   -0.0162 C   0  0  0  0  0  0  0  0  0  0  0  0
   -1.1710    5.0135    1.5898 C   0  0  2  0  0  0  0  0  0  0  0  0
   -1.6571    4.7884    0.1817 C   0  0  2  0  0  0  0  0  0  0  0  0
   -3.0524    5.0506    0.2251 O   0  0  0  0  0  0  0  0  0  0  0  0
   -1.5398    3.3607   -0.3042 C   0  0  2  0  0  0  0  0  0  0  0  0
   -0.3307    2.8633   -0.6989 O   0  0  0  0  0  0  0  0  0  0  0  0
   -1.0499    3.3214   -1.7684 C   0  0  0  0  0  0  0  0  0  0  0  0
   -2.7662    2.5370   -0.1120 C   0  0  0  0  0  0  0  0  0  0  0  0
   -2.7239    1.5210    0.9844 C   0  0  1  0  0  0  0  0  0  0  0  0
   -4.1048    1.0362    1.3262 C   0  0  0  0  0  0  0  0  0  0  0  0
   -1.8026    0.3588    0.5195 C   0  0  2  0  0  0  0  0  0  0  0  0
   -2.6991   -0.5840    0.0411 O   0  0  0  0  0  0  0  0  0  0  0  0
   -2.7355   -0.8514   -1.2594 C   0  0  2  0  0  0  0  0  0  0  0  0
   -3.9010   -0.4140   -1.9271 O   0  0  0  0  0  0  0  0  0  0  0  0
   -3.6348   -0.4185   -3.2656 C   0  0  2  0  0  0  0  0  0  0  0  0
   -4.9628   -0.1190   -3.9818 C   0  0  0  0  0  0  0  0  0  0  0  0
   -3.0922   -1.6614   -3.8320 C   0  0  0  0  0  0  0  0  0  0  0  0
   -2.0939   -2.4004   -2.9340 C   0  0  2  0  0  0  0  0  0  0  0  0
   -2.0371   -3.7764   -3.4088 N   0  0  0  0  0  0  0  0  0  0  0  0
   -1.6301   -3.7445   -4.8437 C   0  0  0  0  0  0  0  0  0  0  0  0
   -0.9515   -4.5258   -2.7913 C   0  0  0  0  0  0  0  0  0  0  0  0
   -2.7175   -2.3324   -1.5740 C   0  0  1  0  0  0  0  0  0  0  0  0
   -2.2641   -3.1475   -0.5958 O   0  0  0  0  0  0  0  0  0  0  0  0
   -3.2044   -4.0446   -0.1167 C   0  0  2  0  0  0  0  0  0  0  0  0
   -3.4775   -3.8531    1.2501 O   0  0  0  0  0  0  0  0  0  0  0  0
   -2.8887   -5.4873   -0.2974 C   0  0  0  0  0  0  0  0  0  0  0  0
   -0.9316   -0.0798    1.6597 C   0  0  1  0  0  0  0  0  0  0  0  0
   -1.4997   -1.4175    2.1776 C   0  0  0  0  0  0  0  0  0  0  0  0
   -2.0132    6.1779    2.1520 C   0  0  0  0  0  0  0  0  0  0  0  0
    2.6859    0.9680    1.7357 C   0  0  0  0  0  0  0  0  0  0  0  0
    3.1457   -6.3908    1.2039 H   0  0  0  0  0  0  0  0  0  0  0  0
    2.7623   -5.4433    2.6569 H   0  0  0  0  0  0  0  0  0  0  0  0
    4.3442   -6.3675    2.4921 H   0  0  0  0  0  0  0  0  0  0  0  0
    2.1988   -4.4280    0.7476 H   0  0  0  0  0  0  0  0  0  0  0  0
    4.0035   -2.0020    0.7717 H   0  0  0  0  0  0  0  0  0  0  0  0
    3.0670   -2.4868    2.1832 H   0  0  0  0  0  0  0  0  0  0  0  0
    2.1422   -1.0932   -0.2974 H   0  0  0  0  0  0  0  0  0  0  0  0
    1.7489   -3.8185   -2.0982 H   0  0  0  0  0  0  0  0  0  0  0  0
    1.8887   -1.2002   -2.3141 H   0  0  0  0  0  0  0  0  0  0  0  0
    2.9575   -2.2879   -3.1931 H   0  0  0  0  0  0  0  0  0  0  0  0
    3.6056   -1.4331   -1.7980 H   0  0  0  0  0  0  0  0  0  0  0  0
    4.4110   -3.2737   -0.9243 H   0  0  0  0  0  0  0  0  0  0  0  0
    5.5508   -4.2467   -1.6448 H   0  0  0  0  0  0  0  0  0  0  0  0
    6.5949   -6.2736   -1.4403 H   0  0  0  0  0  0  0  0  0  0  0  0
    4.1265   -5.1514   -3.9248 H   0  0  0  0  0  0  0  0  0  0  0  0
    5.8594   -4.6204   -3.8226 H   0  0  0  0  0  0  0  0  0  0  0  0
    5.4684   -6.3352   -3.6668 H   0  0  0  0  0  0  0  0  0  0  0  0
    0.7760    0.3003    0.4443 H   0  0  0  0  0  0  0  0  0  0  0  0
    1.4518    0.1643    3.3566 H   0  0  0  0  0  0  0  0  0  0  0  0
   -0.0311    2.1316    1.8777 H   0  0  0  0  0  0  0  0  0  0  0  0
    0.5433    1.3187    4.4766 H   0  0  0  0  0  0  0  0  0  0  0  0
    2.8103    4.5946    2.5501 H   0  0  0  0  0  0  0  0  0  0  0  0
    3.5090    3.5389    4.3863 H   0  0  0  0  0  0  0  0  0  0  0  0
    1.8451    3.2630    5.1212 H   0  0  0  0  0  0  0  0  0  0  0  0
    2.5317    4.8867    4.9413 H   0  0  0  0  0  0  0  0  0  0  0  0
    1.4415    6.2096    3.2534 H   0  0  0  0  0  0  0  0  0  0  0  0
   -0.3685    6.1795    4.5068 H   0  0  0  0  0  0  0  0  0  0  0  0
    0.5024    4.7652    5.0750 H   0  0  0  0  0  0  0  0  0  0  0  0
   -0.9924    4.5871    4.0527 H   0  0  0  0  0  0  0  0  0  0  0  0
    0.2581    6.5322    1.4270 H   0  0  0  0  0  0  0  0  0  0  0  0
    1.2700    6.7513    0.1110 H   0  0  0  0  0  0  0  0  0  0  0  0
    2.1014    4.9921   -1.9111 H   0  0  0  0  0  0  0  0  0  0  0  0
    3.4940    6.3505    0.8890 H   0  0  0  0  0  0  0  0  0  0  0  0
    3.5295    6.4355   -0.8903 H   0  0  0  0  0  0  0  0  0  0  0  0
    3.6182    4.8259   -0.1378 H   0  0  0  0  0  0  0  0  0  0  0  0
   -1.4428    4.1257    2.1539 H   0  0  0  0  0  0  0  0  0  0  0  0
   -1.2562    5.5354   -0.5182 H   0  0  0  0  0  0  0  0  0  0  0  0
   -3.4052    4.8566    1.1534 H   0  0  0  0  0  0  0  0  0  0  0  0
   -0.8713    4.2534   -2.2971 H   0  0  0  0  0  0  0  0  0  0  0  0
   -1.5250    2.5514   -2.4450 H   0  0  0  0  0  0  0  0  0  0  0  0
   -3.0258    1.9645   -1.0512 H   0  0  0  0  0  0  0  0  0  0  0  0
   -3.6297    3.2283    0.0086 H   0  0  0  0  0  0  0  0  0  0  0  0
   -2.3088    1.9518    1.9410 H   0  0  0  0  0  0  0  0  0  0  0  0
   -4.5551    0.5444    0.4682 H   0  0  0  0  0  0  0  0  0  0  0  0
   -4.7343    1.9185    1.5835 H   0  0  0  0  0  0  0  0  0  0  0  0
   -4.0992    0.3947    2.2434 H   0  0  0  0  0  0  0  0  0  0  0  0
   -1.2107    0.7087   -0.3560 H   0  0  0  0  0  0  0  0  0  0  0  0
   -1.9260   -0.2785   -1.7874 H   0  0  0  0  0  0  0  0  0  0  0  0
   -2.9877    0.4709   -3.5055 H   0  0  0  0  0  0  0  0  0  0  0  0
   -5.7712   -0.6127   -3.4149 H   0  0  0  0  0  0  0  0  0  0  0  0
   -4.9550   -0.5453   -5.0065 H   0  0  0  0  0  0  0  0  0  0  0  0
   -5.1112    0.9748   -4.0840 H   0  0  0  0  0  0  0  0  0  0  0  0
   -2.5025   -1.4003   -4.7387 H   0  0  0  0  0  0  0  0  0  0  0  0
   -3.8528   -2.3974   -4.1504 H   0  0  0  0  0  0  0  0  0  0  0  0
   -1.1029   -1.9638   -2.9803 H   0  0  0  0  0  0  0  0  0  0  0  0
   -2.4480   -3.3210   -5.4379 H   0  0  0  0  0  0  0  0  0  0  0  0
   -1.4885   -4.7954   -5.1506 H   0  0  0  0  0  0  0  0  0  0  0  0
   -0.6719   -3.2028   -4.9132 H   0  0  0  0  0  0  0  0  0  0  0  0
   -1.2666   -5.5907   -2.7523 H   0  0  0  0  0  0  0  0  0  0  0  0
   -0.6568   -4.1949   -1.8067 H   0  0  0  0  0  0  0  0  0  0  0  0
   -0.0378   -4.5361   -3.4485 H   0  0  0  0  0  0  0  0  0  0  0  0
   -3.8083   -2.6701   -1.7682 H   0  0  0  0  0  0  0  0  0  0  0  0
   -4.1576   -3.8578   -0.6934 H   0  0  0  0  0  0  0  0  0  0  0  0
   -4.3931   -3.5226    1.3340 H   0  0  0  0  0  0  0  0  0  0  0  0
   -3.3595   -6.1355    0.4913 H   0  0  0  0  0  0  0  0  0  0  0  0
   -1.7939   -5.6279   -0.1807 H   0  0  0  0  0  0  0  0  0  0  0  0
   -3.1524   -5.8844   -1.3018 H   0  0  0  0  0  0  0  0  0  0  0  0
   -1.1824    0.6124    2.5218 H   0  0  0  0  0  0  0  0  0  0  0  0
   -2.5966   -1.4445    2.0261 H   0  0  0  0  0  0  0  0  0  0  0  0
   -1.0633   -2.2788    1.6767 H   0  0  0  0  0  0  0  0  0  0  0  0
   -1.3856   -1.4789    3.3038 H   0  0  0  0  0  0  0  0  0  0  0  0
   -1.3475    6.9984    2.5176 H   0  0  0  0  0  0  0  0  0  0  0  0
   -2.7406    5.8434    2.8960 H   0  0  0  0  0  0  0  0  0  0  0  0
   -2.5940    6.6803    1.3226 H   0  0  0  0  0  0  0  0  0  0  0  0
    3.3988    0.1503    1.7167 H   0  0  0  0  0  0  0  0  0  0  0  0
    2.5745    1.5411    0.8097 H   0  0  0  0  0  0  0  0  0  0  0  0
    3.1659    1.7208    2.4518 H   0  0  0  0  0  0  0  0  0  0  0  0
  1  2  1  0
  2  3  1  0
  3  4  1  0
  4  5  1  0
  5  6  1  0
  6  7  1  0
  7  8  1  0
  3  9  1  0
  7  9  1  0
  9 10  1  0
 10 11  1  0
 11 12  1  0
 11 13  1  0
  5 14  1  0
 14 15  1  0
 15 16  1  0
 16 17  1  0
 17 18  1  0
 17 19  1  0
 19 20  1  0
 20 21  1  0
 20 22  1  0
 22 23  1  0
 22 24  1  0
 24 25  1  0
 25 26  1  0
 26 27  1  0
 26 28  1  0
 24 29  1  0
 29 30  1  0
 30 31  1  0
 30 32  1  0
 32 33  1  1
 32 34  1  0
 33 34  1  0
 32 35  1  0
 35 36  1  0
 36 37  1  0
 36 38  1  0
 38 39  1  0
 39 40  1  0
 40 41  1  0
 41 42  1  0
 42 43  1  0
 42 44  1  0
 44 45  1  0
 45 46  1  0
 46 47  1  0
 46 48  1  0
 40 49  1  0
 45 49  1  0
 49 50  1  0
 50 51  1  0
 51 52  1  0
 51 53  1  0
 15 54  1  0
 38 54  1  0
 54 55  1  0
 29 56  1  0
 16 57  1  0
  1 58  1  0
  1 59  1  0
  1 60  1  0
  3 61  1  6
  4 62  1  0
  4 63  1  0
  5 64  1  6
  7 65  1  6
  8 66  1  0
  8 67  1  0
  8 68  1  0
  9 69  1  1
 11 70  1  1
 12 71  1  0
 13 72  1  0
 13 73  1  0
 13 74  1  0
 15 75  1  6
 16 76  1  1
 17 77  1  0
 18 78  1  0
 20 79  1  6
 21 80  1  0
 21 81  1  0
 21 82  1  0
 22 83  1  1
 23 84  1  0
 23 85  1  0
 23 86  1  0
 24 87  1  6
 26 88  1  1
 27 89  1  0
 28 90  1  0
 28 91  1  0
 28 92  1  0
 29 93  1  1
 30 94  1  6
 31 95  1  0
 34 96  1  0
 34 97  1  0
 35 98  1  0
 35 99  1  0
 36100  1  1
 37101  1  0
 37102  1  0
 37103  1  0
 38104  1  6
 40105  1  6
 42106  1  1
 43107  1  0
 43108  1  0
 43109  1  0
 44110  1  0
 44111  1  0
 45112  1  1
 47113  1  0
 47114  1  0
 47115  1  0
 48116  1  0
 48117  1  0
 48118  1  0
 49119  1  6
 51120  1  6
 52121  1  0
 53122  1  0
 53123  1  0
 53124  1  0
 54125  1  1
 55126  1  0
 55127  1  0
 55128  1  0
 56129  1  0
 56130  1  0
 56131  1  0
 57132  1  0
 57133  1  0
 57134  1  0
M  END
>  <PDBID>  (1) 
1OND

>  <PDB ID>  (1) 
1OND

>  <Generic Name>  (1) 
Troleandomycin

>  <Brand Name>  (1) 
Tao#Triocetin

>  <DrugBank ID>  (1) 
DB01361

>  <ATC Codes>  (1) 
J01FA08

>  <Ligand ID>  (1) 
TAO

>  <Target Name>  (1) 
50S ribosomal protein L32

>  <UniProt ID>  (1) 
P49228

>  <PDB ID.1>  (1) 
1OND

>  <Seq. Identity>  (1) 
100%

$$$$
