PDB_DB08906_09
     RDKit          3D

160168  0  0  0  0  0  0  0  0999 V2000
   -1.8411    2.5729   -1.4431 C   0  0  0  0  0  0  0  0  0  0  0  0
   -1.6812    2.4226    0.0235 C   0  0  2  0  0  0  0  0  0  0  0  0
   -0.1814    2.6795    0.2899 C   0  0  0  0  0  0  0  0  0  0  0  0
    0.3132    1.3326   -0.0654 C   0  0  1  0  0  0  0  0  0  0  0  0
    1.7786    1.1154    0.0241 C   0  0  2  0  0  0  0  0  0  0  0  0
    2.3574    1.8265   -1.2197 C   0  0  0  0  0  0  0  0  0  0  0  0
    3.7340    1.3219   -1.5341 C   0  0  2  0  0  0  0  0  0  0  0  0
    3.8097    0.6298   -2.7188 F   0  0  0  0  0  0  0  0  0  0  0  0
    4.2962    0.5780   -0.3711 C   0  0  0  0  0  0  0  0  0  0  0  0
    5.7444    0.2906   -0.6215 C   0  0  0  0  0  0  0  0  0  0  0  0
    6.0219   -0.9808   -1.3399 C   0  0  0  0  0  0  0  0  0  0  0  0
    7.3906   -1.2298   -1.2758 O   0  0  0  0  0  0  0  0  0  0  0  0
    5.3194   -2.1210   -0.6298 C   0  0  0  0  0  0  0  0  0  0  0  0
    3.8509   -1.8690   -0.7267 C   0  0  0  0  0  0  0  0  0  0  0  0
    3.4905   -0.6172    0.0535 C   0  0  1  0  0  0  0  0  0  0  0  0
    3.8312   -0.8926    1.4998 C   0  0  0  0  0  0  0  0  0  0  0  0
    2.0474   -0.3447   -0.2048 C   0  0  2  0  0  0  0  0  0  0  0  0
    1.8615   -0.5615   -1.5849 F   0  0  0  0  0  0  0  0  0  0  0  0
    1.1171   -1.2882    0.4688 C   0  0  1  0  0  0  0  0  0  0  0  0
    1.4849   -1.6401    1.7637 O   0  0  0  0  0  0  0  0  0  0  0  0
   -0.3191   -0.9088    0.4562 C   0  0  0  0  0  0  0  0  0  0  0  0
   -0.5136    0.5034    0.9242 C   0  0  1  0  0  0  0  0  0  0  0  0
   -0.0245    0.6396    2.3064 C   0  0  0  0  0  0  0  0  0  0  0  0
   -1.9067    1.0623    0.6286 C   0  0  2  0  0  0  0  0  0  0  0  0
   -2.4555    0.2091   -0.2378 O   0  0  0  0  0  0  0  0  0  0  0  0
   -3.6008    0.3315   -0.8789 C   0  0  0  0  0  0  0  0  0  0  0  0
   -3.5614    0.2916   -2.2940 O   0  0  0  0  0  0  0  0  0  0  0  0
   -4.5222   -0.8270   -0.5587 C   0  0  0  0  0  0  0  0  0  0  0  0
   -5.8655   -0.6410   -1.2703 C   0  0  0  0  0  0  0  0  0  0  0  0
   -6.6973   -1.6963   -0.5465 C   0  0  0  0  0  0  0  0  0  0  0  0
   -5.8533   -1.9618    0.6904 C   0  0  0  0  0  0  0  0  0  0  0  0
   -4.8970   -0.9511    0.7381 O   0  0  0  0  0  0  0  0  0  0  0  0
   -2.6208    1.3128    1.9380 C   0  0  0  0  0  0  0  0  0  0  0  0
   -3.9178    1.7638    1.7830 O   0  0  0  0  0  0  0  0  0  0  0  0
   -2.4381    0.2157    3.2644 S   0  0  0  0  0  0  0  0  0  0  0  0
   -3.0564   -1.4154    3.2402 C   0  0  0  0  0  0  0  0  0  0  0  0
   -2.6981   -2.0867    4.4221 F   0  0  0  0  0  0  0  0  0  0  0  0
   -1.8411    2.5729   -1.4431 C   0  0  0  0  0  0  0  0  0  0  0  0
   -1.6812    2.4226    0.0235 C   0  0  2  0  0  0  0  0  0  0  0  0
   -0.1814    2.6795    0.2899 C   0  0  0  0  0  0  0  0  0  0  0  0
    0.3132    1.3326   -0.0654 C   0  0  1  0  0  0  0  0  0  0  0  0
    1.7786    1.1154    0.0241 C   0  0  2  0  0  0  0  0  0  0  0  0
    2.3574    1.8265   -1.2197 C   0  0  0  0  0  0  0  0  0  0  0  0
    3.7340    1.3219   -1.5341 C   0  0  2  0  0  0  0  0  0  0  0  0
    3.8097    0.6298   -2.7188 F   0  0  0  0  0  0  0  0  0  0  0  0
    4.2962    0.5780   -0.3711 C   0  0  0  0  0  0  0  0  0  0  0  0
    5.7444    0.2906   -0.6215 C   0  0  0  0  0  0  0  0  0  0  0  0
    6.0219   -0.9808   -1.3399 C   0  0  0  0  0  0  0  0  0  0  0  0
    7.3906   -1.2298   -1.2758 O   0  0  0  0  0  0  0  0  0  0  0  0
    5.3194   -2.1210   -0.6298 C   0  0  0  0  0  0  0  0  0  0  0  0
    3.8509   -1.8690   -0.7267 C   0  0  0  0  0  0  0  0  0  0  0  0
    3.4905   -0.6172    0.0535 C   0  0  1  0  0  0  0  0  0  0  0  0
    3.8312   -0.8926    1.4998 C   0  0  0  0  0  0  0  0  0  0  0  0
    2.0474   -0.3447   -0.2048 C   0  0  2  0  0  0  0  0  0  0  0  0
    1.8615   -0.5615   -1.5849 F   0  0  0  0  0  0  0  0  0  0  0  0
    1.1171   -1.2882    0.4688 C   0  0  1  0  0  0  0  0  0  0  0  0
    1.4849   -1.6401    1.7637 O   0  0  0  0  0  0  0  0  0  0  0  0
   -0.3191   -0.9088    0.4562 C   0  0  0  0  0  0  0  0  0  0  0  0
   -0.5136    0.5034    0.9242 C   0  0  1  0  0  0  0  0  0  0  0  0
   -0.0245    0.6396    2.3064 C   0  0  0  0  0  0  0  0  0  0  0  0
   -1.9067    1.0623    0.6286 C   0  0  2  0  0  0  0  0  0  0  0  0
   -2.4555    0.2091   -0.2378 O   0  0  0  0  0  0  0  0  0  0  0  0
   -3.6008    0.3315   -0.8789 C   0  0  0  0  0  0  0  0  0  0  0  0
   -3.5614    0.2916   -2.2940 O   0  0  0  0  0  0  0  0  0  0  0  0
   -4.5222   -0.8270   -0.5587 C   0  0  0  0  0  0  0  0  0  0  0  0
   -5.8655   -0.6410   -1.2703 C   0  0  0  0  0  0  0  0  0  0  0  0
   -6.6973   -1.6963   -0.5465 C   0  0  0  0  0  0  0  0  0  0  0  0
   -5.8533   -1.9618    0.6904 C   0  0  0  0  0  0  0  0  0  0  0  0
   -4.8970   -0.9511    0.7381 O   0  0  0  0  0  0  0  0  0  0  0  0
   -2.6208    1.3128    1.9380 C   0  0  0  0  0  0  0  0  0  0  0  0
   -3.9178    1.7638    1.7830 O   0  0  0  0  0  0  0  0  0  0  0  0
   -2.4381    0.2157    3.2644 S   0  0  0  0  0  0  0  0  0  0  0  0
   -3.0564   -1.4154    3.2402 C   0  0  0  0  0  0  0  0  0  0  0  0
   -2.6981   -2.0867    4.4221 F   0  0  0  0  0  0  0  0  0  0  0  0
   -1.4113    1.7842   -2.0781 H   0  0  0  0  0  0  0  0  0  0  0  0
   -1.2723    3.5037   -1.8146 H   0  0  0  0  0  0  0  0  0  0  0  0
   -2.8892    2.8732   -1.7533 H   0  0  0  0  0  0  0  0  0  0  0  0
   -2.2653    3.2179    0.5565 H   0  0  0  0  0  0  0  0  0  0  0  0
   -0.0093    2.8996    1.3439 H   0  0  0  0  0  0  0  0  0  0  0  0
    0.2026    3.4347   -0.4119 H   0  0  0  0  0  0  0  0  0  0  0  0
   -0.0014    0.9647   -1.0572 H   0  0  0  0  0  0  0  0  0  0  0  0
    2.3073    1.5765    0.8520 H   0  0  0  0  0  0  0  0  0  0  0  0
    2.3160    2.9132   -0.9997 H   0  0  0  0  0  0  0  0  0  0  0  0
    1.6848    1.5677   -2.0772 H   0  0  0  0  0  0  0  0  0  0  0  0
    4.3821    2.2315   -1.6730 H   0  0  0  0  0  0  0  0  0  0  0  0
    4.2840    1.2910    0.5052 H   0  0  0  0  0  0  0  0  0  0  0  0
    6.1568    1.1292   -1.2211 H   0  0  0  0  0  0  0  0  0  0  0  0
    6.3450    0.2965    0.3350 H   0  0  0  0  0  0  0  0  0  0  0  0
    5.6930   -0.9724   -2.3901 H   0  0  0  0  0  0  0  0  0  0  0  0
    7.6226   -2.1736   -1.1908 H   0  0  0  0  0  0  0  0  0  0  0  0
    5.6214   -2.1383    0.4504 H   0  0  0  0  0  0  0  0  0  0  0  0
    5.6042   -3.0874   -1.0597 H   0  0  0  0  0  0  0  0  0  0  0  0
    3.5706   -1.7375   -1.7931 H   0  0  0  0  0  0  0  0  0  0  0  0
    3.2534   -2.6980   -0.2716 H   0  0  0  0  0  0  0  0  0  0  0  0
    3.7922   -1.9748    1.7512 H   0  0  0  0  0  0  0  0  0  0  0  0
    4.9237   -0.6248    1.6289 H   0  0  0  0  0  0  0  0  0  0  0  0
    3.3000   -0.2444    2.2106 H   0  0  0  0  0  0  0  0  0  0  0  0
    1.1874   -2.2643   -0.1059 H   0  0  0  0  0  0  0  0  0  0  0  0
    0.9341   -2.3963    2.0438 H   0  0  0  0  0  0  0  0  0  0  0  0
   -0.8425   -1.5819    1.1649 H   0  0  0  0  0  0  0  0  0  0  0  0
   -0.8127   -1.0933   -0.5345 H   0  0  0  0  0  0  0  0  0  0  0  0
   -0.3309    1.5115    2.8819 H   0  0  0  0  0  0  0  0  0  0  0  0
    1.1061    0.7798    2.2245 H   0  0  0  0  0  0  0  0  0  0  0  0
   -0.0500   -0.3192    2.9099 H   0  0  0  0  0  0  0  0  0  0  0  0
   -4.2112    1.2425   -0.6712 H   0  0  0  0  0  0  0  0  0  0  0  0
   -4.3413    0.7083   -2.6950 H   0  0  0  0  0  0  0  0  0  0  0  0
   -4.0446   -1.7752   -0.9355 H   0  0  0  0  0  0  0  0  0  0  0  0
   -6.2081    0.3778   -1.0261 H   0  0  0  0  0  0  0  0  0  0  0  0
   -5.7992   -0.8496   -2.3380 H   0  0  0  0  0  0  0  0  0  0  0  0
   -6.7623   -2.6024   -1.1849 H   0  0  0  0  0  0  0  0  0  0  0  0
   -7.6641   -1.2454   -0.3065 H   0  0  0  0  0  0  0  0  0  0  0  0
   -6.4932   -1.9614    1.5841 H   0  0  0  0  0  0  0  0  0  0  0  0
   -5.3387   -2.9502    0.5316 H   0  0  0  0  0  0  0  0  0  0  0  0
   -2.1048    2.3004    2.2892 H   0  0  0  0  0  0  0  0  0  0  0  0
   -4.1897    2.4586    2.4280 H   0  0  0  0  0  0  0  0  0  0  0  0
   -4.1942   -1.4107    3.3070 H   0  0  0  0  0  0  0  0  0  0  0  0
   -2.8479   -2.0286    2.3489 H   0  0  0  0  0  0  0  0  0  0  0  0
   -1.4113    1.7842   -2.0781 H   0  0  0  0  0  0  0  0  0  0  0  0
   -1.2723    3.5037   -1.8146 H   0  0  0  0  0  0  0  0  0  0  0  0
   -2.8892    2.8732   -1.7533 H   0  0  0  0  0  0  0  0  0  0  0  0
   -2.2653    3.2179    0.5565 H   0  0  0  0  0  0  0  0  0  0  0  0
   -0.0093    2.8996    1.3439 H   0  0  0  0  0  0  0  0  0  0  0  0
    0.2026    3.4347   -0.4119 H   0  0  0  0  0  0  0  0  0  0  0  0
   -0.0014    0.9647   -1.0572 H   0  0  0  0  0  0  0  0  0  0  0  0
    2.3073    1.5765    0.8520 H   0  0  0  0  0  0  0  0  0  0  0  0
    2.3160    2.9132   -0.9997 H   0  0  0  0  0  0  0  0  0  0  0  0
    1.6848    1.5677   -2.0772 H   0  0  0  0  0  0  0  0  0  0  0  0
    4.3821    2.2315   -1.6730 H   0  0  0  0  0  0  0  0  0  0  0  0
    4.2840    1.2910    0.5052 H   0  0  0  0  0  0  0  0  0  0  0  0
    6.1568    1.1292   -1.2211 H   0  0  0  0  0  0  0  0  0  0  0  0
    6.3450    0.2965    0.3350 H   0  0  0  0  0  0  0  0  0  0  0  0
    5.6930   -0.9724   -2.3901 H   0  0  0  0  0  0  0  0  0  0  0  0
    7.6226   -2.1736   -1.1908 H   0  0  0  0  0  0  0  0  0  0  0  0
    5.6214   -2.1383    0.4504 H   0  0  0  0  0  0  0  0  0  0  0  0
    5.6042   -3.0874   -1.0597 H   0  0  0  0  0  0  0  0  0  0  0  0
    3.5706   -1.7375   -1.7931 H   0  0  0  0  0  0  0  0  0  0  0  0
    3.2534   -2.6980   -0.2716 H   0  0  0  0  0  0  0  0  0  0  0  0
    3.7922   -1.9748    1.7512 H   0  0  0  0  0  0  0  0  0  0  0  0
    4.9237   -0.6248    1.6289 H   0  0  0  0  0  0  0  0  0  0  0  0
    3.3000   -0.2444    2.2106 H   0  0  0  0  0  0  0  0  0  0  0  0
    1.1874   -2.2643   -0.1059 H   0  0  0  0  0  0  0  0  0  0  0  0
    0.9341   -2.3963    2.0438 H   0  0  0  0  0  0  0  0  0  0  0  0
   -0.8425   -1.5819    1.1649 H   0  0  0  0  0  0  0  0  0  0  0  0
   -0.8127   -1.0933   -0.5345 H   0  0  0  0  0  0  0  0  0  0  0  0
   -0.3309    1.5115    2.8819 H   0  0  0  0  0  0  0  0  0  0  0  0
    1.1061    0.7798    2.2245 H   0  0  0  0  0  0  0  0  0  0  0  0
   -0.0500   -0.3192    2.9099 H   0  0  0  0  0  0  0  0  0  0  0  0
   -4.2112    1.2425   -0.6712 H   0  0  0  0  0  0  0  0  0  0  0  0
   -4.3413    0.7083   -2.6950 H   0  0  0  0  0  0  0  0  0  0  0  0
   -4.0446   -1.7752   -0.9355 H   0  0  0  0  0  0  0  0  0  0  0  0
   -6.2081    0.3778   -1.0261 H   0  0  0  0  0  0  0  0  0  0  0  0
   -5.7992   -0.8496   -2.3380 H   0  0  0  0  0  0  0  0  0  0  0  0
   -6.7623   -2.6024   -1.1849 H   0  0  0  0  0  0  0  0  0  0  0  0
   -7.6641   -1.2454   -0.3065 H   0  0  0  0  0  0  0  0  0  0  0  0
   -6.4932   -1.9614    1.5841 H   0  0  0  0  0  0  0  0  0  0  0  0
   -5.3387   -2.9502    0.5316 H   0  0  0  0  0  0  0  0  0  0  0  0
   -2.1048    2.3004    2.2892 H   0  0  0  0  0  0  0  0  0  0  0  0
   -4.1897    2.4586    2.4280 H   0  0  0  0  0  0  0  0  0  0  0  0
   -4.1942   -1.4107    3.3070 H   0  0  0  0  0  0  0  0  0  0  0  0
   -2.8479   -2.0286    2.3489 H   0  0  0  0  0  0  0  0  0  0  0  0
  1  2  1  0
  2  3  1  0
  3  4  1  0
  4  5  1  0
  5  6  1  0
  6  7  1  0
  7  8  1  0
  7  9  1  0
  9 10  1  0
 10 11  1  0
 11 12  1  0
 11 13  1  0
 13 14  1  0
  9 15  1  0
 14 15  1  0
 15 16  1  1
  5 17  1  0
 15 17  1  0
 17 18  1  6
 17 19  1  0
 19 20  1  0
 19 21  1  0
  4 22  1  0
 21 22  1  0
 22 23  1  1
  2 24  1  0
 22 24  1  0
 24 25  1  6
 25 26  1  0
 26 27  1  0
 26 28  1  0
 28 29  1  0
 29 30  1  0
 30 31  1  0
 28 32  1  0
 31 32  1  0
 24 33  1  0
 33 34  1  0
 33 35  1  0
 35 36  1  0
 36 37  1  0
 38 39  1  0
 39 40  1  0
 40 41  1  0
 41 42  1  0
 42 43  1  0
 43 44  1  0
 44 45  1  0
 44 46  1  0
 46 47  1  0
 47 48  1  0
 48 49  1  0
 48 50  1  0
 50 51  1  0
 46 52  1  0
 51 52  1  0
 52 53  1  1
 42 54  1  0
 52 54  1  0
 54 55  1  6
 54 56  1  0
 56 57  1  0
 56 58  1  0
 41 59  1  0
 58 59  1  0
 59 60  1  1
 39 61  1  0
 59 61  1  0
 61 62  1  6
 62 63  1  0
 63 64  1  0
 63 65  1  0
 65 66  1  0
 66 67  1  0
 67 68  1  0
 65 69  1  0
 68 69  1  0
 61 70  1  0
 70 71  1  0
 70 72  1  0
 72 73  1  0
 73 74  1  0
  1 75  1  0
  1 76  1  0
  1 77  1  0
  2 78  1  1
  3 79  1  0
  3 80  1  0
  4 81  1  6
  5 82  1  1
  6 83  1  0
  6 84  1  0
  7 85  1  6
  9 86  1  0
 10 87  1  0
 10 88  1  0
 11 89  1  0
 12 90  1  0
 13 91  1  0
 13 92  1  0
 14 93  1  0
 14 94  1  0
 16 95  1  0
 16 96  1  0
 16 97  1  0
 19 98  1  6
 20 99  1  0
 21100  1  0
 21101  1  0
 23102  1  0
 23103  1  0
 23104  1  0
 26105  1  0
 27106  1  0
 28107  1  0
 29108  1  0
 29109  1  0
 30110  1  0
 30111  1  0
 31112  1  0
 31113  1  0
 33114  1  0
 34115  1  0
 36116  1  0
 36117  1  0
 38118  1  0
 38119  1  0
 38120  1  0
 39121  1  1
 40122  1  0
 40123  1  0
 41124  1  6
 42125  1  1
 43126  1  0
 43127  1  0
 44128  1  6
 46129  1  0
 47130  1  0
 47131  1  0
 48132  1  0
 49133  1  0
 50134  1  0
 50135  1  0
 51136  1  0
 51137  1  0
 53138  1  0
 53139  1  0
 53140  1  0
 56141  1  6
 57142  1  0
 58143  1  0
 58144  1  0
 60145  1  0
 60146  1  0
 60147  1  0
 63148  1  0
 64149  1  0
 65150  1  0
 66151  1  0
 66152  1  0
 67153  1  0
 67154  1  0
 68155  1  0
 68156  1  0
 70157  1  0
 71158  1  0
 73159  1  0
 73160  1  0
M  END
>  <PDBID>  (1) 
3CLD

>  <PDB ID>  (1) 
3CLD

>  <Generic Name>  (1) 
Fluticasone furoate

>  <Brand Name>  (1) 
Arnuity Ellipta#Avamys#Breo Ellipta#Flonase Sensimist Allergy Relief#Veramyst

>  <DrugBank ID>  (1) 
DB08906

>  <ATC Codes>  (1) 
R03AK10#R01AD12#R03BA09

>  <Ligand ID>  (1) 
GW6

>  <Target Name>  (1) 
Glucocorticoid receptor

>  <UniProt ID>  (1) 
P04150

>  <PDB ID.1>  (1) 
3CLD

>  <Seq. Identity>  (1) 
99%

$$$$
