PDB_DB08912_03
     RDKit          3D

316328  0  0  0  0  0  0  0  0999 V2000
   -5.6495    2.4122    0.2383 C   0  0  0  0  0  0  0  0  0  0  0  0
   -3.7140    0.9632    0.5471 C   0  0  2  0  0  0  0  0  0  0  0  0
   -4.6584    1.6308   -0.4040 N   0  0  0  0  0  0  0  0  0  0  0  0
   -3.8154    1.7820    1.7765 C   0  0  0  0  0  0  0  0  0  0  0  0
   -5.1142    3.5786    0.9227 N   0  0  0  0  0  0  0  0  0  0  0  0
   -3.7697    3.2587    1.3733 C   0  0  0  0  0  0  0  0  0  0  0  0
   -6.4719    2.9705   -0.8554 N   0  0  0  0  0  0  0  0  0  0  0  0
   -2.4370    0.9806   -0.2144 C   0  0  0  0  0  0  0  0  0  0  0  0
   -3.0177    0.2031   -1.8448 S   0  0  0  0  0  0  0  0  0  0  0  0
   -2.4435   -1.4867   -1.4328 C   0  0  1  0  0  0  0  0  0  0  0  0
   -2.0310   -1.3438   -0.0614 N   0  0  0  0  0  0  0  0  0  0  0  0
   -1.4005   -0.0306   -0.0040 C   0  0  0  0  0  0  0  0  0  0  0  0
   -3.4849   -2.5205   -1.6829 C   0  0  0  0  0  0  0  0  0  0  0  0
   -3.8701   -2.4956   -3.1543 C   0  0  0  0  0  0  0  0  0  0  0  0
   -4.7113   -2.4100   -0.8412 C   0  0  0  0  0  0  0  0  0  0  0  0
   -2.8597   -3.8919   -1.4530 C   0  0  0  0  0  0  0  0  0  0  0  0
   -0.3280    0.1196    0.9782 C   0  0  2  0  0  0  0  0  0  0  0  0
    1.9086   -0.8157    1.6320 C   0  0  2  0  0  0  0  0  0  0  0  0
    0.6440   -1.0937    0.8899 C   0  0  0  0  0  0  0  0  0  0  0  0
    1.7193    0.1543    2.7936 C   0  0  0  0  0  0  0  0  0  0  0  0
   -0.6750    0.3800    2.3972 C   0  0  0  0  0  0  0  0  0  0  0  0
    0.3513   -0.1576    3.3738 C   0  0  0  0  0  0  0  0  0  0  0  0
    0.8728   -1.4644   -0.3945 F   0  0  0  0  0  0  0  0  0  0  0  0
    2.8415   -0.1789    0.7299 N   0  0  0  0  0  0  0  0  0  0  0  0
    4.1692    0.2286    1.1518 S   0  0  0  0  0  0  0  0  0  0  0  0
    5.4501   -0.0793    0.0792 C   0  0  0  0  0  0  0  0  0  0  0  0
    6.2823    0.0989   -2.2057 C   0  0  0  0  0  0  0  0  0  0  0  0
    5.2793    0.6659   -1.2173 C   0  0  0  0  0  0  0  0  0  0  0  0
    7.5504   -0.3400   -1.5259 C   0  0  0  0  0  0  0  0  0  0  0  0
    6.7764    0.3387    0.7073 C   0  0  0  0  0  0  0  0  0  0  0  0
    7.8246    0.5788   -0.3609 C   0  0  0  0  0  0  0  0  0  0  0  0
    7.2356   -0.7187    1.4964 F   0  0  0  0  0  0  0  0  0  0  0  0
    5.4691    2.0228   -1.0321 F   0  0  0  0  0  0  0  0  0  0  0  0
    4.7120   -0.9184    2.5012 O   0  0  0  0  0  0  0  0  0  0  0  0
    4.4143    1.6336    1.9480 O   0  0  0  0  0  0  0  0  0  0  0  0
   -5.3284    2.8677    0.2777 C   0  0  0  0  0  0  0  0  0  0  0  0
   -3.9812    0.8823    0.7093 C   0  0  0  0  0  0  0  0  0  0  0  0
   -5.1404    1.4934   -0.0134 N   0  0  0  0  0  0  0  0  0  0  0  0
   -3.8714    1.7433    1.9401 C   0  0  0  0  0  0  0  0  0  0  0  0
   -4.1658    3.6403    0.5642 N   0  0  0  0  0  0  0  0  0  0  0  0
   -3.3316    3.1017    1.6222 C   0  0  0  0  0  0  0  0  0  0  0  0
   -5.9331    3.4798   -0.9230 N   0  0  0  0  0  0  0  0  0  0  0  0
   -2.8670    0.9269   -0.2501 C   0  0  0  0  0  0  0  0  0  0  0  0
   -3.5954    0.0803   -1.7736 S   0  0  0  0  0  0  0  0  0  0  0  0
   -2.7599   -1.5145   -1.5261 C   0  0  1  0  0  0  0  0  0  0  0  0
   -2.2335   -1.3516   -0.1757 N   0  0  0  0  0  0  0  0  0  0  0  0
   -1.7224    0.0175   -0.1739 C   0  0  2  0  0  0  0  0  0  0  0  0
   -3.6705   -2.6869   -1.5475 C   0  0  0  0  0  0  0  0  0  0  0  0
   -4.4152   -2.8297   -2.8632 C   0  0  0  0  0  0  0  0  0  0  0  0
   -4.6502   -2.7661   -0.4251 C   0  0  0  0  0  0  0  0  0  0  0  0
   -2.7794   -3.9327   -1.4472 C   0  0  0  0  0  0  0  0  0  0  0  0
   -0.5867    0.2330    0.7240 C   0  0  2  0  0  0  0  0  0  0  0  0
    1.7293   -0.6300    1.1928 C   0  0  0  0  0  0  0  0  0  0  0  0
    0.4733   -0.8553    0.4525 C   0  0  0  0  0  0  0  0  0  0  0  0
    1.5431    0.3206    2.3601 C   0  0  0  0  0  0  0  0  0  0  0  0
   -0.8556    0.3113    2.1899 C   0  0  0  0  0  0  0  0  0  0  0  0
    0.2890   -0.1623    3.0604 C   0  0  0  0  0  0  0  0  0  0  0  0
    0.6980   -0.9897   -0.8999 F   0  0  0  0  0  0  0  0  0  0  0  0
    2.7550   -0.1378    0.2983 N   0  0  0  0  0  0  0  0  0  0  0  0
    4.0681    0.1615    0.7485 S   0  0  0  0  0  0  0  0  0  0  0  0
    5.4991   -0.0751   -0.0237 C   0  0  0  0  0  0  0  0  0  0  0  0
    6.8831    0.1934   -2.0085 C   0  0  0  0  0  0  0  0  0  0  0  0
    5.6300    0.7040   -1.2867 C   0  0  0  0  0  0  0  0  0  0  0  0
    8.1152    0.3521   -1.1576 C   0  0  0  0  0  0  0  0  0  0  0  0
    6.6858    0.3061    0.8747 C   0  0  0  0  0  0  0  0  0  0  0  0
    7.9549   -0.1578    0.2378 C   0  0  0  0  0  0  0  0  0  0  0  0
    6.5103   -0.3857    2.0694 F   0  0  0  0  0  0  0  0  0  0  0  0
    5.8757    2.0525   -1.0117 F   0  0  0  0  0  0  0  0  0  0  0  0
    4.4511   -1.0981    2.1905 O   0  0  0  0  0  0  0  0  0  0  0  0
    4.2606    1.5002    1.7503 O   0  0  0  0  0  0  0  0  0  0  0  0
   -4.8401    3.1859   -1.2675 C   0  0  0  0  0  0  0  0  0  0  0  0
   -4.1309    1.6228    0.3097 C   0  0  2  0  0  0  0  0  0  0  0  0
   -4.0951    1.9522   -1.0882 N   0  0  0  0  0  0  0  0  0  0  0  0
   -3.6484    2.7927    1.1065 C   0  0  0  0  0  0  0  0  0  0  0  0
   -4.1342    4.3030   -0.6672 N   0  0  0  0  0  0  0  0  0  0  0  0
   -3.0283    3.7901    0.1186 C   0  0  0  0  0  0  0  0  0  0  0  0
   -6.1388    3.1080   -0.6184 N   0  0  0  0  0  0  0  0  0  0  0  0
   -3.5044    0.3115    0.6550 C   0  0  1  0  0  0  0  0  0  0  0  0
   -4.4655   -0.9618   -0.2789 S   0  0  0  0  0  0  0  0  0  0  0  0
   -3.0127   -1.8104   -1.0257 C   0  0  0  0  0  0  0  0  0  0  0  0
   -1.9874   -1.3689   -0.1059 N   0  0  0  0  0  0  0  0  0  0  0  0
   -2.1690    0.0533    0.0993 C   0  0  0  0  0  0  0  0  0  0  0  0
   -3.1835   -3.3038   -0.8490 C   0  0  0  0  0  0  0  0  0  0  0  0
   -4.4650   -3.7812   -1.5419 C   0  0  0  0  0  0  0  0  0  0  0  0
   -3.3511   -3.5846    0.6162 C   0  0  0  0  0  0  0  0  0  0  0  0
   -2.0533   -4.0850   -1.4325 C   0  0  0  0  0  0  0  0  0  0  0  0
   -0.9870    0.5924    0.8686 C   0  0  2  0  0  0  0  0  0  0  0  0
    1.4532   -0.0875    0.9135 C   0  0  2  0  0  0  0  0  0  0  0  0
    0.2466    0.2099    0.1198 C   0  0  0  0  0  0  0  0  0  0  0  0
    1.3889    0.3984    2.3425 C   0  0  0  0  0  0  0  0  0  0  0  0
   -1.0302    0.3144    2.3168 C   0  0  0  0  0  0  0  0  0  0  0  0
    0.1695   -0.3316    2.9176 C   0  0  0  0  0  0  0  0  0  0  0  0
    0.6095    1.1985   -0.8129 F   0  0  0  0  0  0  0  0  0  0  0  0
    2.6679    0.4604    0.3253 N   0  0  0  0  0  0  0  0  0  0  0  0
    3.9762    0.2118    1.0612 S   0  0  0  0  0  0  0  0  0  0  0  0
    5.3339   -0.0715    0.0157 C   0  0  0  0  0  0  0  0  0  0  0  0
    6.6784    0.5875   -1.9039 C   0  0  0  0  0  0  0  0  0  0  0  0
    5.6023    1.0517   -0.9238 C   0  0  0  0  0  0  0  0  0  0  0  0
    7.7004   -0.2926   -1.2545 C   0  0  0  0  0  0  0  0  0  0  0  0
    6.5236   -0.4307    0.8749 C   0  0  0  0  0  0  0  0  0  0  0  0
    7.8265   -0.0326    0.2423 C   0  0  0  0  0  0  0  0  0  0  0  0
    6.5570   -1.8205    1.0485 F   0  0  0  0  0  0  0  0  0  0  0  0
    6.0772    2.1240   -0.1837 F   0  0  0  0  0  0  0  0  0  0  0  0
    3.8653   -1.5651    1.6660 O   0  0  0  0  0  0  0  0  0  0  0  0
    4.3990    0.9272    2.3211 O   0  0  0  0  0  0  0  0  0  0  0  0
   -2.7771    2.7989   -1.1266 C   0  0  0  0  0  0  0  0  0  0  0  0
   -3.7460    1.7873    0.8608 C   0  0  2  0  0  0  0  0  0  0  0  0
   -3.8977    2.1689   -0.5242 N   0  0  0  0  0  0  0  0  0  0  0  0
   -3.0276    2.8170    1.6113 C   0  0  0  0  0  0  0  0  0  0  0  0
   -2.6074    4.0858   -0.4568 N   0  0  0  0  0  0  0  0  0  0  0  0
   -2.0910    3.7143    0.8712 C   0  0  0  0  0  0  0  0  0  0  0  0
   -3.1019    3.0822   -2.5036 N   0  0  0  0  0  0  0  0  0  0  0  0
   -3.3736    0.3646    1.0485 C   0  0  1  0  0  0  0  0  0  0  0  0
   -4.7718   -0.6016    0.2872 S   0  0  0  0  0  0  0  0  0  0  0  0
   -3.6970   -1.9150   -0.4261 C   0  0  1  0  0  0  0  0  0  0  0  0
   -2.5352   -1.6944    0.4518 N   0  0  0  0  0  0  0  0  0  0  0  0
   -2.2539   -0.2438    0.3669 C   0  0  2  0  0  0  0  0  0  0  0  0
   -4.2453   -3.2753   -0.1302 C   0  0  0  0  0  0  0  0  0  0  0  0
   -3.2971   -4.2833   -0.7547 C   0  0  0  0  0  0  0  0  0  0  0  0
   -5.6439   -3.4720   -0.6729 C   0  0  0  0  0  0  0  0  0  0  0  0
   -4.2887   -3.5697    1.3533 C   0  0  0  0  0  0  0  0  0  0  0  0
   -0.8787   -0.0740    0.9370 C   0  0  2  0  0  0  0  0  0  0  0  0
    1.4806   -0.8488    0.4934 C   0  0  2  0  0  0  0  0  0  0  0  0
    0.0774   -0.8282    0.0074 C   0  0  0  0  0  0  0  0  0  0  0  0
    1.6272   -0.8250    1.9830 C   0  0  0  0  0  0  0  0  0  0  0  0
   -0.7238   -0.4505    2.3580 C   0  0  0  0  0  0  0  0  0  0  0  0
    0.3709   -1.4954    2.5571 C   0  0  0  0  0  0  0  0  0  0  0  0
    0.0447   -0.1434   -1.2094 F   0  0  0  0  0  0  0  0  0  0  0  0
    2.3082    0.1977   -0.0762 N   0  0  0  0  0  0  0  0  0  0  0  0
    3.8814   -0.0551    0.6299 S   0  0  0  0  0  0  0  0  0  0  0  0
    5.0289    0.4662   -0.5038 C   0  0  0  0  0  0  0  0  0  0  0  0
    5.8261    2.1295   -2.1335 C   0  0  0  0  0  0  0  0  0  0  0  0
    4.9478    1.9038   -0.9149 C   0  0  0  0  0  0  0  0  0  0  0  0
    7.0636    1.2957   -2.1257 C   0  0  0  0  0  0  0  0  0  0  0  0
    6.4119    0.1909    0.0166 C   0  0  2  0  0  0  0  0  0  0  0  0
    7.4625    1.0185   -0.6940 C   0  0  0  0  0  0  0  0  0  0  0  0
    6.7244   -1.1663   -0.1091 F   0  0  0  0  0  0  0  0  0  0  0  0
    5.2380    2.7730    0.1008 F   0  0  0  0  0  0  0  0  0  0  0  0
    4.0755   -1.7290    0.6769 O   0  0  0  0  0  0  0  0  0  0  0  0
    3.9905    0.5119    2.0392 O   0  0  0  0  0  0  0  0  0  0  0  0
   -6.3629    1.8264    0.8336 H   0  0  0  0  0  0  0  0  0  0  0  0
   -4.1106   -0.0327    0.6832 H   0  0  0  0  0  0  0  0  0  0  0  0
   -5.0829    0.9597   -1.0488 H   0  0  0  0  0  0  0  0  0  0  0  0
   -4.8756    1.6048    2.1594 H   0  0  0  0  0  0  0  0  0  0  0  0
   -3.2020    1.5639    2.6283 H   0  0  0  0  0  0  0  0  0  0  0  0
   -5.1714    4.4459    0.3637 H   0  0  0  0  0  0  0  0  0  0  0  0
   -3.5438    3.8306    2.2883 H   0  0  0  0  0  0  0  0  0  0  0  0
   -3.0274    3.4525    0.5872 H   0  0  0  0  0  0  0  0  0  0  0  0
   -5.9032    3.7054   -1.3333 H   0  0  0  0  0  0  0  0  0  0  0  0
   -7.2797    3.4423   -0.4226 H   0  0  0  0  0  0  0  0  0  0  0  0
   -2.0430    1.9657   -0.4263 H   0  0  0  0  0  0  0  0  0  0  0  0
   -1.5663   -1.7234   -2.0802 H   0  0  0  0  0  0  0  0  0  0  0  0
   -2.7290   -1.5267    0.6521 H   0  0  0  0  0  0  0  0  0  0  0  0
   -0.8250   -0.0379   -1.0177 H   0  0  0  0  0  0  0  0  0  0  0  0
   -4.5617   -3.3476   -3.3219 H   0  0  0  0  0  0  0  0  0  0  0  0
   -2.9630   -2.7339   -3.7720 H   0  0  0  0  0  0  0  0  0  0  0  0
   -4.3377   -1.5395   -3.4309 H   0  0  0  0  0  0  0  0  0  0  0  0
   -5.4061   -3.2215   -1.1432 H   0  0  0  0  0  0  0  0  0  0  0  0
   -5.2068   -1.4330   -1.0729 H   0  0  0  0  0  0  0  0  0  0  0  0
   -4.4653   -2.5021    0.2352 H   0  0  0  0  0  0  0  0  0  0  0  0
   -2.3734   -3.9542   -0.4762 H   0  0  0  0  0  0  0  0  0  0  0  0
   -3.6809   -4.6667   -1.4753 H   0  0  0  0  0  0  0  0  0  0  0  0
   -2.1972   -4.1730   -2.3002 H   0  0  0  0  0  0  0  0  0  0  0  0
    0.3443    0.9639    0.6405 H   0  0  0  0  0  0  0  0  0  0  0  0
    2.3908   -1.7175    2.0404 H   0  0  0  0  0  0  0  0  0  0  0  0
    0.1116   -1.9154    1.4052 H   0  0  0  0  0  0  0  0  0  0  0  0
    1.7133    1.2024    2.4100 H   0  0  0  0  0  0  0  0  0  0  0  0
    2.5160   -0.0315    3.5142 H   0  0  0  0  0  0  0  0  0  0  0  0
   -0.8423    1.4443    2.6242 H   0  0  0  0  0  0  0  0  0  0  0  0
   -1.6111   -0.1669    2.6234 H   0  0  0  0  0  0  0  0  0  0  0  0
    0.2295    0.3926    4.3171 H   0  0  0  0  0  0  0  0  0  0  0  0
    0.2246   -1.2441    3.5174 H   0  0  0  0  0  0  0  0  0  0  0  0
    2.5119   -0.2818   -0.2421 H   0  0  0  0  0  0  0  0  0  0  0  0
    5.5327   -1.1659   -0.1193 H   0  0  0  0  0  0  0  0  0  0  0  0
    6.5009    0.7769   -3.0342 H   0  0  0  0  0  0  0  0  0  0  0  0
    5.8062   -0.8130   -2.6463 H   0  0  0  0  0  0  0  0  0  0  0  0
    4.2665    0.4965   -1.6230 H   0  0  0  0  0  0  0  0  0  0  0  0
    7.3799   -1.3729   -1.1012 H   0  0  0  0  0  0  0  0  0  0  0  0
    8.4168   -0.3424   -2.2126 H   0  0  0  0  0  0  0  0  0  0  0  0
    6.5874    1.2523    1.3101 H   0  0  0  0  0  0  0  0  0  0  0  0
    7.8629    1.6314   -0.6961 H   0  0  0  0  0  0  0  0  0  0  0  0
    8.8159    0.3530    0.1116 H   0  0  0  0  0  0  0  0  0  0  0  0
    4.5335   -1.7749    2.0360 H   0  0  0  0  0  0  0  0  0  0  0  0
    4.5745    2.3528    1.2852 H   0  0  0  0  0  0  0  0  0  0  0  0
   -6.0993    3.0573    1.0719 H   0  0  0  0  0  0  0  0  0  0  0  0
   -4.3113   -0.1140    0.9688 H   0  0  0  0  0  0  0  0  0  0  0  0
   -5.0741    1.3471   -1.0211 H   0  0  0  0  0  0  0  0  0  0  0  0
   -4.9507    1.9145    2.2777 H   0  0  0  0  0  0  0  0  0  0  0  0
   -3.4038    1.3162    2.8089 H   0  0  0  0  0  0  0  0  0  0  0  0
   -3.6631    4.0309   -0.2346 H   0  0  0  0  0  0  0  0  0  0  0  0
   -2.2851    3.0113    1.3206 H   0  0  0  0  0  0  0  0  0  0  0  0
   -3.3976    3.7156    2.5508 H   0  0  0  0  0  0  0  0  0  0  0  0
   -5.6617    4.4928   -0.9919 H   0  0  0  0  0  0  0  0  0  0  0  0
   -6.9730    3.4276   -0.8852 H   0  0  0  0  0  0  0  0  0  0  0  0
   -2.5551    1.9322   -0.5465 H   0  0  0  0  0  0  0  0  0  0  0  0
   -1.9354   -1.6565   -2.2556 H   0  0  0  0  0  0  0  0  0  0  0  0
   -2.9062   -1.5314    0.5644 H   0  0  0  0  0  0  0  0  0  0  0  0
   -1.2618    0.0656   -1.2332 H   0  0  0  0  0  0  0  0  0  0  0  0
   -5.1419   -3.6611   -2.7153 H   0  0  0  0  0  0  0  0  0  0  0  0
   -3.7178   -3.1470   -3.6470 H   0  0  0  0  0  0  0  0  0  0  0  0
   -4.9950   -1.9254   -3.1155 H   0  0  0  0  0  0  0  0  0  0  0  0
   -5.3548   -3.6106   -0.6903 H   0  0  0  0  0  0  0  0  0  0  0  0
   -5.2860   -1.8671   -0.3213 H   0  0  0  0  0  0  0  0  0  0  0  0
   -4.2028   -3.0837    0.5340 H   0  0  0  0  0  0  0  0  0  0  0  0
   -2.2047   -3.9089   -0.4943 H   0  0  0  0  0  0  0  0  0  0  0  0
   -3.3764   -4.8474   -1.5798 H   0  0  0  0  0  0  0  0  0  0  0  0
   -2.0091   -3.9348   -2.2627 H   0  0  0  0  0  0  0  0  0  0  0  0
   -0.0668    1.1738    0.4321 H   0  0  0  0  0  0  0  0  0  0  0  0
    2.1078   -1.6013    1.6071 H   0  0  0  0  0  0  0  0  0  0  0  0
    0.0097   -1.8014    0.8034 H   0  0  0  0  0  0  0  0  0  0  0  0
    1.3256    1.3319    1.9685 H   0  0  0  0  0  0  0  0  0  0  0  0
    2.3639    0.2699    3.0642 H   0  0  0  0  0  0  0  0  0  0  0  0
   -1.0480    1.3556    2.4866 H   0  0  0  0  0  0  0  0  0  0  0  0
   -1.7215   -0.3115    2.4681 H   0  0  0  0  0  0  0  0  0  0  0  0
    0.1673    0.2962    4.0600 H   0  0  0  0  0  0  0  0  0  0  0  0
    0.3284   -1.2601    3.0808 H   0  0  0  0  0  0  0  0  0  0  0  0
    2.4765   -0.4443   -0.6791 H   0  0  0  0  0  0  0  0  0  0  0  0
    5.6896   -1.1571   -0.2753 H   0  0  0  0  0  0  0  0  0  0  0  0
    7.0496    0.6983   -2.9642 H   0  0  0  0  0  0  0  0  0  0  0  0
    6.7582   -0.8998   -2.2079 H   0  0  0  0  0  0  0  0  0  0  0  0
    4.7999    0.5867   -1.9862 H   0  0  0  0  0  0  0  0  0  0  0  0
    8.9200   -0.2344   -1.6405 H   0  0  0  0  0  0  0  0  0  0  0  0
    8.4663    1.4127   -1.1129 H   0  0  0  0  0  0  0  0  0  0  0  0
    6.7075    1.3743    1.0933 H   0  0  0  0  0  0  0  0  0  0  0  0
    8.8007    0.2529    0.8465 H   0  0  0  0  0  0  0  0  0  0  0  0
    8.0282   -1.2667    0.3230 H   0  0  0  0  0  0  0  0  0  0  0  0
    4.1529   -1.8599    1.6317 H   0  0  0  0  0  0  0  0  0  0  0  0
    3.9170    2.2665    1.2638 H   0  0  0  0  0  0  0  0  0  0  0  0
   -5.0532    3.3751   -2.3522 H   0  0  0  0  0  0  0  0  0  0  0  0
   -5.2294    1.5071    0.5600 H   0  0  0  0  0  0  0  0  0  0  0  0
   -4.5934    1.2353   -1.6886 H   0  0  0  0  0  0  0  0  0  0  0  0
   -4.4964    3.3766    1.5744 H   0  0  0  0  0  0  0  0  0  0  0  0
   -2.9787    2.5539    1.9376 H   0  0  0  0  0  0  0  0  0  0  0  0
   -3.8517    5.0262   -1.3429 H   0  0  0  0  0  0  0  0  0  0  0  0
   -2.4721    4.5779    0.6269 H   0  0  0  0  0  0  0  0  0  0  0  0
   -2.4115    3.1840   -0.5908 H   0  0  0  0  0  0  0  0  0  0  0  0
   -6.9179    2.9888   -1.3077 H   0  0  0  0  0  0  0  0  0  0  0  0
   -6.3168    3.8789    0.0361 H   0  0  0  0  0  0  0  0  0  0  0  0
   -3.6738    0.0984    1.6999 H   0  0  0  0  0  0  0  0  0  0  0  0
   -2.8463   -1.4993   -2.0547 H   0  0  0  0  0  0  0  0  0  0  0  0
   -2.0868   -1.8299    0.8008 H   0  0  0  0  0  0  0  0  0  0  0  0
   -2.1126    0.5197   -0.9201 H   0  0  0  0  0  0  0  0  0  0  0  0
   -4.8974   -4.6111   -0.9427 H   0  0  0  0  0  0  0  0  0  0  0  0
   -4.2036   -4.2339   -2.5371 H   0  0  0  0  0  0  0  0  0  0  0  0
   -5.2093   -2.9813   -1.6272 H   0  0  0  0  0  0  0  0  0  0  0  0
   -4.0058   -4.4926    0.7246 H   0  0  0  0  0  0  0  0  0  0  0  0
   -3.8603   -2.7759    1.1471 H   0  0  0  0  0  0  0  0  0  0  0  0
   -2.3490   -3.8396    1.0320 H   0  0  0  0  0  0  0  0  0  0  0  0
   -1.0945   -3.9594   -0.9096 H   0  0  0  0  0  0  0  0  0  0  0  0
   -2.3138   -5.1575   -1.3814 H   0  0  0  0  0  0  0  0  0  0  0  0
   -1.8986   -3.8095   -2.4933 H   0  0  0  0  0  0  0  0  0  0  0  0
   -1.0778    1.7144    0.7515 H   0  0  0  0  0  0  0  0  0  0  0  0
    1.6355   -1.1995    0.9715 H   0  0  0  0  0  0  0  0  0  0  0  0
    0.0446   -0.6926   -0.5276 H   0  0  0  0  0  0  0  0  0  0  0  0
    1.2181    1.4730    2.4225 H   0  0  0  0  0  0  0  0  0  0  0  0
    2.2583    0.0194    2.8881 H   0  0  0  0  0  0  0  0  0  0  0  0
   -1.2420    1.2388    2.9367 H   0  0  0  0  0  0  0  0  0  0  0  0
   -1.9011   -0.3565    2.5927 H   0  0  0  0  0  0  0  0  0  0  0  0
    0.1812   -0.1271    4.0049 H   0  0  0  0  0  0  0  0  0  0  0  0
    0.2441   -1.4172    2.7041 H   0  0  0  0  0  0  0  0  0  0  0  0
    2.6009    0.2996   -0.7081 H   0  0  0  0  0  0  0  0  0  0  0  0
    5.0878   -0.9807   -0.5954 H   0  0  0  0  0  0  0  0  0  0  0  0
    7.1551    1.4732   -2.4052 H   0  0  0  0  0  0  0  0  0  0  0  0
    6.1951    0.0099   -2.7279 H   0  0  0  0  0  0  0  0  0  0  0  0
    4.6767    1.2859   -1.4657 H   0  0  0  0  0  0  0  0  0  0  0  0
    7.4695   -1.3799   -1.3626 H   0  0  0  0  0  0  0  0  0  0  0  0
    8.7021   -0.1635   -1.7574 H   0  0  0  0  0  0  0  0  0  0  0  0
    6.4612    0.0041    1.8942 H   0  0  0  0  0  0  0  0  0  0  0  0
    8.1041    1.0048    0.4262 H   0  0  0  0  0  0  0  0  0  0  0  0
    8.6083   -0.7220    0.6246 H   0  0  0  0  0  0  0  0  0  0  0  0
    3.6363   -1.9966    0.7918 H   0  0  0  0  0  0  0  0  0  0  0  0
    3.9643    1.7132    2.6868 H   0  0  0  0  0  0  0  0  0  0  0  0
   -1.8155    2.2677   -1.0577 H   0  0  0  0  0  0  0  0  0  0  0  0
   -4.8358    1.8043    1.2167 H   0  0  0  0  0  0  0  0  0  0  0  0
   -4.1920    1.3304   -1.0822 H   0  0  0  0  0  0  0  0  0  0  0  0
   -3.7879    3.5163    2.0868 H   0  0  0  0  0  0  0  0  0  0  0  0
   -2.4668    2.4562    2.5036 H   0  0  0  0  0  0  0  0  0  0  0  0
   -1.8655    4.6600   -0.9102 H   0  0  0  0  0  0  0  0  0  0  0  0
   -2.0020    4.6740    1.4249 H   0  0  0  0  0  0  0  0  0  0  0  0
   -1.0537    3.3345    0.7924 H   0  0  0  0  0  0  0  0  0  0  0  0
   -2.8263    4.0633   -2.7843 H   0  0  0  0  0  0  0  0  0  0  0  0
   -4.1230    3.0034   -2.6969 H   0  0  0  0  0  0  0  0  0  0  0  0
   -3.4273    0.0217    2.1028 H   0  0  0  0  0  0  0  0  0  0  0  0
   -3.4759   -1.7435   -1.4760 H   0  0  0  0  0  0  0  0  0  0  0  0
   -2.8711   -1.8411    1.4215 H   0  0  0  0  0  0  0  0  0  0  0  0
   -2.2329   -0.0551   -0.7254 H   0  0  0  0  0  0  0  0  0  0  0  0
   -3.7419   -5.2985   -0.7764 H   0  0  0  0  0  0  0  0  0  0  0  0
   -2.3951   -4.3512   -0.1048 H   0  0  0  0  0  0  0  0  0  0  0  0
   -2.9385   -3.9466   -1.7538 H   0  0  0  0  0  0  0  0  0  0  0  0
   -5.6819   -4.5047   -1.0895 H   0  0  0  0  0  0  0  0  0  0  0  0
   -5.8874   -2.7386   -1.4777 H   0  0  0  0  0  0  0  0  0  0  0  0
   -6.3756   -3.4197    0.1410 H   0  0  0  0  0  0  0  0  0  0  0  0
   -4.6621   -2.6769    1.9311 H   0  0  0  0  0  0  0  0  0  0  0  0
   -5.0461   -4.3700    1.5806 H   0  0  0  0  0  0  0  0  0  0  0  0
   -3.2939   -3.8965    1.6875 H   0  0  0  0  0  0  0  0  0  0  0  0
   -0.5909    0.9903    0.8023 H   0  0  0  0  0  0  0  0  0  0  0  0
    1.9427   -1.8164    0.1413 H   0  0  0  0  0  0  0  0  0  0  0  0
   -0.2901   -1.8518   -0.1995 H   0  0  0  0  0  0  0  0  0  0  0  0
    1.5983    0.2348    2.3354 H   0  0  0  0  0  0  0  0  0  0  0  0
    2.5381   -1.2831    2.3710 H   0  0  0  0  0  0  0  0  0  0  0  0
   -0.3863    0.4321    2.9771 H   0  0  0  0  0  0  0  0  0  0  0  0
   -1.6294   -0.8210    2.8603 H   0  0  0  0  0  0  0  0  0  0  0  0
    0.5561   -1.6444    3.6232 H   0  0  0  0  0  0  0  0  0  0  0  0
    0.1494   -2.4210    1.9980 H   0  0  0  0  0  0  0  0  0  0  0  0
    2.4097    0.0447   -1.0950 H   0  0  0  0  0  0  0  0  0  0  0  0
    4.9131   -0.1392   -1.4505 H   0  0  0  0  0  0  0  0  0  0  0  0
    6.0035    3.2132   -2.2068 H   0  0  0  0  0  0  0  0  0  0  0  0
    5.2383    1.8437   -3.0407 H   0  0  0  0  0  0  0  0  0  0  0  0
    3.8949    2.1354   -1.2513 H   0  0  0  0  0  0  0  0  0  0  0  0
    6.9318    0.3125   -2.6355 H   0  0  0  0  0  0  0  0  0  0  0  0
    7.9334    1.7764   -2.6124 H   0  0  0  0  0  0  0  0  0  0  0  0
    6.5087    0.4192    1.0984 H   0  0  0  0  0  0  0  0  0  0  0  0
    8.3907    0.4119   -0.6901 H   0  0  0  0  0  0  0  0  0  0  0  0
    7.6647    1.9419   -0.1387 H   0  0  0  0  0  0  0  0  0  0  0  0
    3.9421   -2.1320   -0.2142 H   0  0  0  0  0  0  0  0  0  0  0  0
    3.6775    1.4283    2.2070 H   0  0  0  0  0  0  0  0  0  0  0  0
  1  3  1  0
  2  3  1  0
  2  4  1  0
  1  5  1  0
  4  6  1  0
  5  6  1  0
  1  7  1  0
  2  8  1  0
  8  9  1  0
  9 10  1  0
 10 11  1  0
  8 12  1  0
 11 12  1  0
 10 13  1  0
 13 14  1  0
 13 15  1  0
 13 16  1  0
 12 17  1  0
 17 19  1  0
 18 19  1  0
 18 20  1  0
 17 21  1  0
 20 22  1  0
 21 22  1  0
 19 23  1  0
 18 24  1  0
 24 25  1  0
 25 26  1  0
 26 28  1  0
 27 28  1  0
 27 29  1  0
 26 30  1  0
 29 31  1  0
 30 31  1  0
 30 32  1  0
 28 33  1  0
 25 34  1  0
 25 35  1  0
 36 38  1  0
 37 38  1  0
 37 39  1  0
 36 40  1  0
 39 41  1  0
 40 41  1  0
 36 42  1  0
 37 43  1  0
 43 44  1  0
 44 45  1  0
 45 46  1  0
 43 47  1  0
 46 47  1  0
 45 48  1  0
 48 49  1  0
 48 50  1  0
 48 51  1  0
 47 52  1  0
 52 54  1  0
 53 54  1  0
 53 55  1  0
 52 56  1  0
 55 57  1  0
 56 57  1  0
 54 58  1  0
 53 59  1  0
 59 60  1  0
 60 61  1  0
 61 63  1  0
 62 63  1  0
 62 64  1  0
 61 65  1  0
 64 66  1  0
 65 66  1  0
 65 67  1  0
 63 68  1  0
 60 69  1  0
 60 70  1  0
 71 73  1  0
 72 73  1  0
 72 74  1  0
 71 75  1  0
 74 76  1  0
 75 76  1  0
 71 77  1  0
 72 78  1  0
 78 79  1  0
 79 80  1  0
 80 81  1  0
 78 82  1  0
 81 82  1  0
 80 83  1  0
 83 84  1  0
 83 85  1  0
 83 86  1  0
 82 87  1  0
 87 89  1  0
 88 89  1  0
 88 90  1  0
 87 91  1  0
 90 92  1  0
 91 92  1  0
 89 93  1  0
 88 94  1  0
 94 95  1  0
 95 96  1  0
 96 98  1  0
 97 98  1  0
 97 99  1  0
 96100  1  0
 99101  1  0
100101  1  0
100102  1  0
 98103  1  0
 95104  1  0
 95105  1  0
106108  1  0
107108  1  0
107109  1  0
106110  1  0
109111  1  0
110111  1  0
106112  1  0
107113  1  0
113114  1  0
114115  1  0
115116  1  0
113117  1  0
116117  1  0
115118  1  0
118119  1  0
118120  1  0
118121  1  0
117122  1  0
122124  1  0
123124  1  0
123125  1  0
122126  1  0
125127  1  0
126127  1  0
124128  1  0
123129  1  0
129130  1  0
130131  1  0
131133  1  0
132133  1  0
132134  1  0
131135  1  0
134136  1  0
135136  1  0
135137  1  0
133138  1  0
130139  1  0
130140  1  0
  1141  1  0
  2142  1  1
  3143  1  0
  4144  1  0
  4145  1  0
  5146  1  0
  6147  1  0
  6148  1  0
  7149  1  0
  7150  1  0
  8151  1  0
 10152  1  6
 11153  1  0
 12154  1  0
 14155  1  0
 14156  1  0
 14157  1  0
 15158  1  0
 15159  1  0
 15160  1  0
 16161  1  0
 16162  1  0
 16163  1  0
 17164  1  6
 18165  1  1
 19166  1  0
 20167  1  0
 20168  1  0
 21169  1  0
 21170  1  0
 22171  1  0
 22172  1  0
 24173  1  0
 26174  1  0
 27175  1  0
 27176  1  0
 28177  1  0
 29178  1  0
 29179  1  0
 30180  1  0
 31181  1  0
 31182  1  0
 34183  1  0
 35184  1  0
 36185  1  0
 37186  1  0
 38187  1  0
 39188  1  0
 39189  1  0
 40190  1  0
 41191  1  0
 41192  1  0
 42193  1  0
 42194  1  0
 43195  1  0
 45196  1  6
 46197  1  0
 47198  1  6
 49199  1  0
 49200  1  0
 49201  1  0
 50202  1  0
 50203  1  0
 50204  1  0
 51205  1  0
 51206  1  0
 51207  1  0
 52208  1  6
 53209  1  0
 54210  1  0
 55211  1  0
 55212  1  0
 56213  1  0
 56214  1  0
 57215  1  0
 57216  1  0
 59217  1  0
 61218  1  0
 62219  1  0
 62220  1  0
 63221  1  0
 64222  1  0
 64223  1  0
 65224  1  0
 66225  1  0
 66226  1  0
 69227  1  0
 70228  1  0
 71229  1  0
 72230  1  1
 73231  1  0
 74232  1  0
 74233  1  0
 75234  1  0
 76235  1  0
 76236  1  0
 77237  1  0
 77238  1  0
 78239  1  1
 80240  1  0
 81241  1  0
 82242  1  0
 84243  1  0
 84244  1  0
 84245  1  0
 85246  1  0
 85247  1  0
 85248  1  0
 86249  1  0
 86250  1  0
 86251  1  0
 87252  1  1
 88253  1  1
 89254  1  0
 90255  1  0
 90256  1  0
 91257  1  0
 91258  1  0
 92259  1  0
 92260  1  0
 94261  1  0
 96262  1  0
 97263  1  0
 97264  1  0
 98265  1  0
 99266  1  0
 99267  1  0
100268  1  0
101269  1  0
101270  1  0
104271  1  0
105272  1  0
106273  1  0
107274  1  1
108275  1  0
109276  1  0
109277  1  0
110278  1  0
111279  1  0
111280  1  0
112281  1  0
112282  1  0
113283  1  1
115284  1  6
116285  1  0
117286  1  6
119287  1  0
119288  1  0
119289  1  0
120290  1  0
120291  1  0
120292  1  0
121293  1  0
121294  1  0
121295  1  0
122296  1  1
123297  1  6
124298  1  0
125299  1  0
125300  1  0
126301  1  0
126302  1  0
127303  1  0
127304  1  0
129305  1  0
131306  1  0
132307  1  0
132308  1  0
133309  1  0
134310  1  0
134311  1  0
135312  1  1
136313  1  0
136314  1  0
139315  1  0
140316  1  0
M  END
>  <PDBID>  (1) 
5HIE

>  <PDB ID>  (1) 
5HIE

>  <Generic Name>  (1) 
Dabrafenib

>  <Brand Name>  (1) 
Tafinlar

>  <DrugBank ID>  (1) 
DB08912

>  <ATC Codes>  (1) 
L01XE23

>  <Ligand ID>  (1) 
P06

>  <Target Name>  (1) 
RAF proto-oncogene serine/threonine-protein kinase

>  <UniProt ID>  (1) 
P04049

>  <PDB ID.1>  (1) 
5HIE

>  <Seq. Identity>  (1) 
77%

$$$$
