PDB_DB01051_00
     RDKit          3D

408420  0  0  0  0  0  0  0  0999 V2000
   -8.9607   -0.9304   -0.0796 C   0  0  0  0  0  0  0  0  0  0  0  0
   -7.6592   -1.0525    0.3905 O   0  0  0  0  0  0  0  0  0  0  0  0
   -6.7906   -4.0514   -1.1754 N   0  0  0  0  0  0  0  0  0  0  0  0
   -5.7473   -3.1310   -1.5976 C   0  0  0  0  0  0  0  0  0  0  0  0
   -5.1400   -3.7054   -2.7117 O   0  0  0  0  0  0  0  0  0  0  0  0
   -6.2634   -1.8794   -1.8959 O   0  0  0  0  0  0  0  0  0  0  0  0
   -6.8562   -0.1735   -0.2915 C   0  0  2  0  0  0  0  0  0  0  0  0
   -5.7610   -0.8883   -1.0710 C   0  0  2  0  0  0  0  0  0  0  0  0
   -5.0025    0.1833   -1.8276 C   0  0  1  0  0  0  0  0  0  0  0  0
   -5.8520    0.9046   -2.6599 O   0  0  0  0  0  0  0  0  0  0  0  0
   -4.3439    1.0699   -0.7758 C   0  0  1  0  0  0  0  0  0  0  0  0
   -4.7633    0.7470    0.5108 O   0  0  0  0  0  0  0  0  0  0  0  0
   -6.1272    0.7874    0.6544 C   0  0  0  0  0  0  0  0  0  0  0  0
   -6.7059    2.1686    0.5179 C   0  0  0  0  0  0  0  0  0  0  0  0
   -6.4340    0.3072    2.0730 C   0  0  0  0  0  0  0  0  0  0  0  0
   -2.9940    0.9298   -0.8950 O   0  0  0  0  0  0  0  0  0  0  0  0
   -2.2659    2.0066   -1.2874 C   0  0  0  0  0  0  0  0  0  0  0  0
   -1.2798    2.3820   -0.1672 C   0  0  1  0  0  0  0  0  0  0  0  0
   -2.0301    2.7477    1.0914 C   0  0  0  0  0  0  0  0  0  0  0  0
   -0.2271    1.3451    0.0353 C   0  0  0  0  0  0  0  0  0  0  0  0
   -0.4566    0.0804   -0.7837 C   0  0  0  0  0  0  0  0  0  0  0  0
   -0.5781    0.4340   -2.2256 C   0  0  0  0  0  0  0  0  0  0  0  0
   -1.4168    1.6575   -2.4890 C   0  0  0  0  0  0  0  0  0  0  0  0
    0.0592    1.0692    1.3696 O   0  0  0  0  0  0  0  0  0  0  0  0
   -0.2033   -0.2324    1.7236 C   0  0  0  0  0  0  0  0  0  0  0  0
    0.0228   -0.3927    3.0767 O   0  0  0  0  0  0  0  0  0  0  0  0
    0.5928   -1.2408    0.9274 C   0  0  1  0  0  0  0  0  0  0  0  0
    0.7968   -0.7781   -0.5032 C   0  0  0  0  0  0  0  0  0  0  0  0
    0.7348   -1.8560   -1.3940 O   0  0  0  0  0  0  0  0  0  0  0  0
    1.5933   -1.9424    1.5561 N   0  0  0  0  0  0  0  0  0  0  0  0
    2.7268   -1.4585    2.1722 C   0  0  0  0  0  0  0  0  0  0  0  0
    2.5472   -0.7845    3.3911 O   0  0  0  0  0  0  0  0  0  0  0  0
    3.7033   -0.7061    1.2900 C   0  0  1  0  0  0  0  0  0  0  0  0
    4.8989   -0.2698    2.1239 C   0  0  0  0  0  0  0  0  0  0  0  0
    6.1577   -0.0957    1.2774 C   0  0  0  0  0  0  0  0  0  0  0  0
    6.5083   -1.3907    0.5831 C   0  0  1  0  0  0  0  0  0  0  0  0
    7.5025   -2.0818    1.3310 O   0  0  0  0  0  0  0  0  0  0  0  0
    5.3307   -2.3382    0.5849 C   0  0  0  0  0  0  0  0  0  0  0  0
    4.1125   -1.5791    0.1414 C   0  0  0  0  0  0  0  0  0  0  0  0
    5.9460    1.0679    0.3975 C   0  0  0  0  0  0  0  0  0  0  0  0
    6.9897    1.5073   -0.5366 C   0  0  0  0  0  0  0  0  0  0  0  0
    8.2841    2.0097   -0.0178 C   0  0  0  0  0  0  0  0  0  0  0  0
    9.1207    1.0842    0.8032 C   0  0  0  0  0  0  0  0  0  0  0  0
    9.1657    2.4329   -1.2177 C   0  0  0  0  0  0  0  0  0  0  0  0
  -10.4381   -1.1633   -0.2770 C   0  0  0  0  0  0  0  0  0  0  0  0
   -9.5352   -0.1439    0.0476 O   0  0  0  0  0  0  0  0  0  0  0  0
   -8.8219    0.0433    3.4331 N   0  0  0  0  0  0  0  0  0  0  0  0
   -7.5506   -0.4612    2.9230 C   0  0  0  0  0  0  0  0  0  0  0  0
   -6.8546   -1.1225    3.8965 O   0  0  0  0  0  0  0  0  0  0  0  0
   -7.7184   -1.2942    1.8115 O   0  0  0  0  0  0  0  0  0  0  0  0
   -8.3044   -0.5166   -0.4164 C   0  0  2  0  0  0  0  0  0  0  0  0
   -7.2748   -0.6597    0.6939 C   0  0  2  0  0  0  0  0  0  0  0  0
   -6.0671   -1.3116    0.0004 C   0  0  1  0  0  0  0  0  0  0  0  0
   -6.5024   -2.3395   -0.8041 O   0  0  0  0  0  0  0  0  0  0  0  0
   -5.5035   -0.1744   -0.8589 C   0  0  1  0  0  0  0  0  0  0  0  0
   -6.4221    0.8749   -0.9946 O   0  0  0  0  0  0  0  0  0  0  0  0
   -7.6812    0.4728   -1.4013 C   0  0  0  0  0  0  0  0  0  0  0  0
   -7.7371   -0.0423   -2.8039 C   0  0  0  0  0  0  0  0  0  0  0  0
   -8.5741    1.7132   -1.3110 C   0  0  0  0  0  0  0  0  0  0  0  0
   -4.4587    0.3568   -0.1052 O   0  0  0  0  0  0  0  0  0  0  0  0
   -3.2413    0.3738   -0.7369 C   0  0  0  0  0  0  0  0  0  0  0  0
   -2.3086   -0.5191    0.0859 C   0  0  0  0  0  0  0  0  0  0  0  0
   -2.1083   -1.8541   -0.6198 C   0  0  0  0  0  0  0  0  0  0  0  0
   -0.9584    0.1476    0.2282 C   0  0  0  0  0  0  0  0  0  0  0  0
   -0.5168    0.7867   -1.0653 C   0  0  0  0  0  0  0  0  0  0  0  0
   -1.4071    1.9802   -1.3600 C   0  0  0  0  0  0  0  0  0  0  0  0
   -2.7598    1.8039   -0.7545 C   0  0  0  0  0  0  0  0  0  0  0  0
   -0.0756   -0.8084    0.6529 O   0  0  0  0  0  0  0  0  0  0  0  0
    1.0109   -1.0314   -0.2075 C   0  0  0  0  0  0  0  0  0  0  0  0
    1.7687   -2.0184    0.4058 O   0  0  0  0  0  0  0  0  0  0  0  0
    1.8043    0.2302   -0.3234 C   0  0  1  0  0  0  0  0  0  0  0  0
    0.8696    1.3350   -0.8708 C   0  0  0  0  0  0  0  0  0  0  0  0
    0.8702    2.3529    0.0743 O   0  0  0  0  0  0  0  0  0  0  0  0
    2.3573    0.6049    0.9207 N   0  0  0  0  0  0  0  0  0  0  0  0
    3.6936    0.8574    1.1134 C   0  0  0  0  0  0  0  0  0  0  0  0
    3.8222    1.3644    2.4649 O   0  0  0  0  0  0  0  0  0  0  0  0
    4.7807   -0.1613    1.0180 C   0  0  0  0  0  0  0  0  0  0  0  0
    6.0563    0.6280    1.3158 C   0  0  0  0  0  0  0  0  0  0  0  0
    7.3329    0.0377    0.8985 C   0  0  0  0  0  0  0  0  0  0  0  0
    7.3166   -1.3997    0.5251 C   0  0  0  0  0  0  0  0  0  0  0  0
    7.5955   -2.1898    1.6716 O   0  0  0  0  0  0  0  0  0  0  0  0
    6.0532   -1.9057   -0.0431 C   0  0  0  0  0  0  0  0  0  0  0  0
    4.9881   -0.8331   -0.2934 C   0  0  0  0  0  0  0  0  0  0  0  0
    7.9777    0.9672   -0.0881 C   0  0  0  0  0  0  0  0  0  0  0  0
    9.2887    0.5594   -0.6504 C   0  0  0  0  0  0  0  0  0  0  0  0
   10.3734    0.3715    0.3909 C   0  0  0  0  0  0  0  0  0  0  0  0
   11.6306   -0.0255   -0.3805 C   0  0  0  0  0  0  0  0  0  0  0  0
   10.6853    1.6959    1.0789 C   0  0  0  0  0  0  0  0  0  0  0  0
  -10.3549   -0.2321   -0.1859 C   0  0  0  0  0  0  0  0  0  0  0  0
   -9.2831    0.5737    0.1906 O   0  0  0  0  0  0  0  0  0  0  0  0
   -9.5103   -0.2073    3.6225 N   0  0  0  0  0  0  0  0  0  0  0  0
   -8.1161   -0.3243    3.2342 C   0  0  0  0  0  0  0  0  0  0  0  0
   -7.5013   -1.0891    4.2554 O   0  0  0  0  0  0  0  0  0  0  0  0
   -7.9493   -1.0219    2.0633 O   0  0  0  0  0  0  0  0  0  0  0  0
   -8.0851   -0.0795   -0.1095 C   0  0  2  0  0  0  0  0  0  0  0  0
   -7.2380   -0.2657    1.1295 C   0  0  2  0  0  0  0  0  0  0  0  0
   -5.9669   -0.9704    0.7071 C   0  0  1  0  0  0  0  0  0  0  0  0
   -6.2983   -2.2087    0.1620 O   0  0  0  0  0  0  0  0  0  0  0  0
   -5.2566   -0.0906   -0.2950 C   0  0  1  0  0  0  0  0  0  0  0  0
   -6.0005    0.9989   -0.6772 O   0  0  0  0  0  0  0  0  0  0  0  0
   -7.2654    0.6920   -1.1191 C   0  0  0  0  0  0  0  0  0  0  0  0
   -7.2555   -0.0039   -2.4719 C   0  0  0  0  0  0  0  0  0  0  0  0
   -7.9864    2.0237   -1.3433 C   0  0  0  0  0  0  0  0  0  0  0  0
   -4.0990    0.4144    0.3442 O   0  0  0  0  0  0  0  0  0  0  0  0
   -2.9550    0.0581   -0.3370 C   0  0  0  0  0  0  0  0  0  0  0  0
   -1.9878   -0.5855    0.6422 C   0  0  0  0  0  0  0  0  0  0  0  0
   -2.1854   -2.0752    0.7062 C   0  0  0  0  0  0  0  0  0  0  0  0
   -0.6075   -0.1486    0.2927 C   0  0  0  0  0  0  0  0  0  0  0  0
   -0.3704   -0.0882   -1.2017 C   0  0  0  0  0  0  0  0  0  0  0  0
   -1.1520    1.0611   -1.7525 C   0  0  0  0  0  0  0  0  0  0  0  0
   -2.3475    1.3588   -0.8848 C   0  0  0  0  0  0  0  0  0  0  0  0
    0.4187   -0.8370    0.8799 O   0  0  0  0  0  0  0  0  0  0  0  0
    0.9793   -1.8216    0.0361 C   0  0  0  0  0  0  0  0  0  0  0  0
    1.7587   -2.6329    0.8509 O   0  0  0  0  0  0  0  0  0  0  0  0
    1.7470   -1.2199   -1.1159 C   0  0  1  0  0  0  0  0  0  0  0  0
    1.1490    0.1295   -1.3723 C   0  0  0  0  0  0  0  0  0  0  0  0
    1.3054    0.5339   -2.6974 O   0  0  0  0  0  0  0  0  0  0  0  0
    3.0781   -1.4215   -1.0346 N   0  0  0  0  0  0  0  0  0  0  0  0
    4.0416   -1.0306   -0.1560 C   0  0  0  0  0  0  0  0  0  0  0  0
    4.0830   -1.6349    1.1196 O   0  0  0  0  0  0  0  0  0  0  0  0
    4.3070    0.4746   -0.0107 C   0  0  1  0  0  0  0  0  0  0  0  0
    5.4287    0.6993    0.9958 C   0  0  0  0  0  0  0  0  0  0  0  0
    6.7004    1.1904    0.3957 C   0  0  2  0  0  0  0  0  0  0  0  0
    7.0546    0.6365   -0.9416 C   0  0  0  0  0  0  0  0  0  0  0  0
    7.6846   -0.6168   -0.8127 O   0  0  0  0  0  0  0  0  0  0  0  0
    5.9252    0.5322   -1.9171 C   0  0  0  0  0  0  0  0  0  0  0  0
    4.6977    1.1127   -1.2979 C   0  0  0  0  0  0  0  0  0  0  0  0
    7.8196    0.7876    1.3660 C   0  0  0  0  0  0  0  0  0  0  0  0
    9.1121    1.2660    0.8000 C   0  0  0  0  0  0  0  0  0  0  0  0
   10.2990    0.9242    1.6780 C   0  0  0  0  0  0  0  0  0  0  0  0
   10.4505   -0.5636    1.8815 C   0  0  0  0  0  0  0  0  0  0  0  0
   11.5347    1.3747    0.8987 C   0  0  0  0  0  0  0  0  0  0  0  0
   -8.9962   -0.6443    0.6055 C   0  0  0  0  0  0  0  0  0  0  0  0
   -7.6768   -0.8060    1.0016 O   0  0  0  0  0  0  0  0  0  0  0  0
   -7.2869   -4.0341   -0.4206 N   0  0  0  0  0  0  0  0  0  0  0  0
   -6.1674   -3.2651   -0.9595 C   0  0  0  0  0  0  0  0  0  0  0  0
   -5.6671   -3.9962   -2.0306 O   0  0  0  0  0  0  0  0  0  0  0  0
   -6.5555   -1.9846   -1.3112 O   0  0  0  0  0  0  0  0  0  0  0  0
   -6.8715   -0.0896    0.1368 C   0  0  2  0  0  0  0  0  0  0  0  0
   -5.8905   -0.9905   -0.6165 C   0  0  2  0  0  0  0  0  0  0  0  0
   -5.1097   -0.0665   -1.5435 C   0  0  1  0  0  0  0  0  0  0  0  0
   -5.9926    0.5571   -2.3991 O   0  0  0  0  0  0  0  0  0  0  0  0
   -4.3364    0.8906   -0.6648 C   0  0  1  0  0  0  0  0  0  0  0  0
   -4.6876    0.7625    0.6767 O   0  0  0  0  0  0  0  0  0  0  0  0
   -6.0331    0.9455    0.8638 C   0  0  0  0  0  0  0  0  0  0  0  0
   -6.5161    2.3252    0.5090 C   0  0  0  0  0  0  0  0  0  0  0  0
   -6.3010    0.7583    2.3536 C   0  0  0  0  0  0  0  0  0  0  0  0
   -3.0000    0.6644   -0.8614 O   0  0  0  0  0  0  0  0  0  0  0  0
   -2.2743    1.6803   -1.4139 C   0  0  0  0  0  0  0  0  0  0  0  0
   -1.1632    2.1915   -0.4838 C   0  0  1  0  0  0  0  0  0  0  0  0
   -1.7285    2.8266    0.7655 C   0  0  0  0  0  0  0  0  0  0  0  0
   -0.1445    1.1349   -0.2246 C   0  0  0  0  0  0  0  0  0  0  0  0
   -0.3197   -0.0699   -1.1470 C   0  0  0  0  0  0  0  0  0  0  0  0
   -0.4498    0.3656   -2.5637 C   0  0  0  0  0  0  0  0  0  0  0  0
   -1.5919    1.3295   -2.7166 C   0  0  0  0  0  0  0  0  0  0  0  0
   -0.0098    0.7442    1.0959 O   0  0  0  0  0  0  0  0  0  0  0  0
   -0.1979   -0.5982    1.3053 C   0  0  0  0  0  0  0  0  0  0  0  0
   -0.0084   -0.8860    2.6457 O   0  0  0  0  0  0  0  0  0  0  0  0
    0.7089   -1.4908    0.4902 C   0  0  1  0  0  0  0  0  0  0  0  0
    0.9445   -0.9158   -0.8895 C   0  0  0  0  0  0  0  0  0  0  0  0
    0.9469   -1.9203   -1.8631 O   0  0  0  0  0  0  0  0  0  0  0  0
    1.7354   -2.1484    1.1313 N   0  0  0  0  0  0  0  0  0  0  0  0
    2.7966   -1.6096    1.8244 C   0  0  2  0  0  0  0  0  0  0  0  0
    2.5177   -0.9880    3.0523 O   0  0  0  0  0  0  0  0  0  0  0  0
    3.7408   -0.7568    1.0017 C   0  0  1  0  0  0  0  0  0  0  0  0
    4.8349   -0.2810    1.9458 C   0  0  0  0  0  0  0  0  0  0  0  0
    6.1504   -0.0075    1.2160 C   0  0  0  0  0  0  0  0  0  0  0  0
    6.6164   -1.2559    0.5050 C   0  0  0  0  0  0  0  0  0  0  0  0
    7.5301   -1.9538    1.3360 O   0  0  0  0  0  0  0  0  0  0  0  0
    5.5093   -2.2549    0.2524 C   0  0  0  0  0  0  0  0  0  0  0  0
    4.2526   -1.5590   -0.1419 C   0  0  0  0  0  0  0  0  0  0  0  0
    5.9362    1.1692    0.3613 C   0  0  0  0  0  0  0  0  0  0  0  0
    7.0127    1.7171   -0.4721 C   0  0  0  0  0  0  0  0  0  0  0  0
    8.2272    2.2817    0.1743 C   0  0  0  0  0  0  0  0  0  0  0  0
    9.0640    1.3982    1.0167 C   0  0  0  0  0  0  0  0  0  0  0  0
    9.1812    2.8707   -0.8929 C   0  0  0  0  0  0  0  0  0  0  0  0
   -9.0301   -1.1572   -1.1769 H   0  0  0  0  0  0  0  0  0  0  0  0
   -9.5468   -1.7497    0.4100 H   0  0  0  0  0  0  0  0  0  0  0  0
   -9.3929    0.0603    0.1013 H   0  0  0  0  0  0  0  0  0  0  0  0
   -6.4231   -4.9742   -0.9232 H   0  0  0  0  0  0  0  0  0  0  0  0
   -7.4748   -3.6321   -0.5369 H   0  0  0  0  0  0  0  0  0  0  0  0
   -5.0214   -3.0887   -0.7459 H   0  0  0  0  0  0  0  0  0  0  0  0
   -4.1825   -3.9247   -2.5486 H   0  0  0  0  0  0  0  0  0  0  0  0
   -7.4468    0.4068   -1.0433 H   0  0  0  0  0  0  0  0  0  0  0  0
   -5.0299   -1.3112   -0.3253 H   0  0  0  0  0  0  0  0  0  0  0  0
   -4.2319   -0.2870   -2.4922 H   0  0  0  0  0  0  0  0  0  0  0  0
   -5.3581    1.2070   -3.4546 H   0  0  0  0  0  0  0  0  0  0  0  0
   -4.6123    2.1203   -1.0467 H   0  0  0  0  0  0  0  0  0  0  0  0
   -7.0507    2.2947   -0.5491 H   0  0  0  0  0  0  0  0  0  0  0  0
   -7.6002    2.3354    1.1537 H   0  0  0  0  0  0  0  0  0  0  0  0
   -5.9821    2.9659    0.7643 H   0  0  0  0  0  0  0  0  0  0  0  0
   -7.4902   -0.0552    2.0438 H   0  0  0  0  0  0  0  0  0  0  0  0
   -6.3761    1.1184    2.8024 H   0  0  0  0  0  0  0  0  0  0  0  0
   -5.7889   -0.5477    2.3724 H   0  0  0  0  0  0  0  0  0  0  0  0
   -2.8617    2.9191   -1.4811 H   0  0  0  0  0  0  0  0  0  0  0  0
   -0.8364    3.3537   -0.5456 H   0  0  0  0  0  0  0  0  0  0  0  0
   -2.2045    1.9005    1.7639 H   0  0  0  0  0  0  0  0  0  0  0  0
   -3.0355    3.1265    0.7484 H   0  0  0  0  0  0  0  0  0  0  0  0
   -1.5434    3.6064    1.5686 H   0  0  0  0  0  0  0  0  0  0  0  0
    0.7370    1.7639   -0.3843 H   0  0  0  0  0  0  0  0  0  0  0  0
   -1.2885   -0.5439   -0.4056 H   0  0  0  0  0  0  0  0  0  0  0  0
    0.4229    0.6066   -2.6905 H   0  0  0  0  0  0  0  0  0  0  0  0
   -1.0784   -0.4031   -2.7972 H   0  0  0  0  0  0  0  0  0  0  0  0
   -0.7318    2.5367   -2.6624 H   0  0  0  0  0  0  0  0  0  0  0  0
   -2.0763    1.5401   -3.3705 H   0  0  0  0  0  0  0  0  0  0  0  0
   -1.3197   -0.3582    1.6011 H   0  0  0  0  0  0  0  0  0  0  0  0
   -0.3332   -1.2583    3.3745 H   0  0  0  0  0  0  0  0  0  0  0  0
   -0.2374   -2.0615    0.7418 H   0  0  0  0  0  0  0  0  0  0  0  0
    1.6973   -0.2352   -0.7164 H   0  0  0  0  0  0  0  0  0  0  0  0
    0.5961   -2.7103   -0.9124 H   0  0  0  0  0  0  0  0  0  0  0  0
    1.6710   -2.9229    1.1459 H   0  0  0  0  0  0  0  0  0  0  0  0
    3.3301   -2.3817    2.5114 H   0  0  0  0  0  0  0  0  0  0  0  0
    2.8237    0.1721    3.2542 H   0  0  0  0  0  0  0  0  0  0  0  0
    3.1686    0.2264    0.9532 H   0  0  0  0  0  0  0  0  0  0  0  0
    5.0420   -0.9729    2.9636 H   0  0  0  0  0  0  0  0  0  0  0  0
    4.6712    0.7230    2.5535 H   0  0  0  0  0  0  0  0  0  0  0  0
    6.9544    0.1175    2.0048 H   0  0  0  0  0  0  0  0  0  0  0  0
    6.8554   -1.2811   -0.4420 H   0  0  0  0  0  0  0  0  0  0  0  0
    7.5629   -3.0184    1.0308 H   0  0  0  0  0  0  0  0  0  0  0  0
    5.1900   -2.6748    1.6389 H   0  0  0  0  0  0  0  0  0  0  0  0
    5.5269   -3.2314   -0.0402 H   0  0  0  0  0  0  0  0  0  0  0  0
    3.3262   -2.3790   -0.0561 H   0  0  0  0  0  0  0  0  0  0  0  0
    4.2314   -1.0807   -0.8219 H   0  0  0  0  0  0  0  0  0  0  0  0
    4.9637    1.0540   -0.1426 H   0  0  0  0  0  0  0  0  0  0  0  0
    5.7855    1.9545    1.1136 H   0  0  0  0  0  0  0  0  0  0  0  0
    7.1998    0.7619   -1.3563 H   0  0  0  0  0  0  0  0  0  0  0  0
    6.5305    2.3683   -1.1327 H   0  0  0  0  0  0  0  0  0  0  0  0
    8.1283    2.9880    0.5467 H   0  0  0  0  0  0  0  0  0  0  0  0
   10.2097    1.3040    0.5897 H   0  0  0  0  0  0  0  0  0  0  0  0
    8.9831    1.2306    1.9141 H   0  0  0  0  0  0  0  0  0  0  0  0
    8.9433    0.0489    0.5008 H   0  0  0  0  0  0  0  0  0  0  0  0
    9.1302    1.5722   -1.9155 H   0  0  0  0  0  0  0  0  0  0  0  0
    8.7841    3.3809   -1.6653 H   0  0  0  0  0  0  0  0  0  0  0  0
   10.1855    2.5125   -0.8241 H   0  0  0  0  0  0  0  0  0  0  0  0
  -10.4238   -1.2551   -1.3855 H   0  0  0  0  0  0  0  0  0  0  0  0
  -10.1767   -2.1260    0.2147 H   0  0  0  0  0  0  0  0  0  0  0  0
  -11.4469   -0.8402    0.0412 H   0  0  0  0  0  0  0  0  0  0  0  0
   -8.8723   -0.0694    4.4664 H   0  0  0  0  0  0  0  0  0  0  0  0
   -8.8950    1.0945    3.2791 H   0  0  0  0  0  0  0  0  0  0  0  0
   -6.9815    0.4535    2.6083 H   0  0  0  0  0  0  0  0  0  0  0  0
   -7.4892   -1.4700    4.5794 H   0  0  0  0  0  0  0  0  0  0  0  0
   -8.3077   -1.5074   -0.9370 H   0  0  0  0  0  0  0  0  0  0  0  0
   -6.9448    0.4018    0.9430 H   0  0  0  0  0  0  0  0  0  0  0  0
   -5.3811   -1.6541    0.7732 H   0  0  0  0  0  0  0  0  0  0  0  0
   -5.8936   -2.5837   -1.5469 H   0  0  0  0  0  0  0  0  0  0  0  0
   -5.1473   -0.5449   -1.8067 H   0  0  0  0  0  0  0  0  0  0  0  0
   -8.6007   -0.7593   -2.8776 H   0  0  0  0  0  0  0  0  0  0  0  0
   -7.9818    0.7757   -3.5072 H   0  0  0  0  0  0  0  0  0  0  0  0
   -6.8380   -0.6239   -3.0987 H   0  0  0  0  0  0  0  0  0  0  0  0
   -9.5749    1.5414   -1.7169 H   0  0  0  0  0  0  0  0  0  0  0  0
   -8.0824    2.6193   -1.7014 H   0  0  0  0  0  0  0  0  0  0  0  0
   -8.7247    1.8831   -0.2038 H   0  0  0  0  0  0  0  0  0  0  0  0
   -3.2764    0.0076   -1.7909 H   0  0  0  0  0  0  0  0  0  0  0  0
   -2.7008   -0.7371    1.0929 H   0  0  0  0  0  0  0  0  0  0  0  0
   -1.8528   -1.6728   -1.6888 H   0  0  0  0  0  0  0  0  0  0  0  0
   -3.0522   -2.4310   -0.5507 H   0  0  0  0  0  0  0  0  0  0  0  0
   -1.3050   -2.3935   -0.0673 H   0  0  0  0  0  0  0  0  0  0  0  0
   -1.0579    0.9466    0.9760 H   0  0  0  0  0  0  0  0  0  0  0  0
   -0.5600    0.1277   -1.9362 H   0  0  0  0  0  0  0  0  0  0  0  0
   -1.5132    2.1720   -2.4438 H   0  0  0  0  0  0  0  0  0  0  0  0
   -0.9702    2.9246   -0.9247 H   0  0  0  0  0  0  0  0  0  0  0  0
   -2.7350    2.2318    0.2891 H   0  0  0  0  0  0  0  0  0  0  0  0
   -3.5200    2.3832   -1.3187 H   0  0  0  0  0  0  0  0  0  0  0  0
    0.6797   -1.4326   -1.1937 H   0  0  0  0  0  0  0  0  0  0  0  0
    1.7255   -2.8632   -0.0809 H   0  0  0  0  0  0  0  0  0  0  0  0
    2.5285    0.0886   -1.1593 H   0  0  0  0  0  0  0  0  0  0  0  0
    1.2595    1.7599   -1.8201 H   0  0  0  0  0  0  0  0  0  0  0  0
    1.2421    3.2066   -0.2866 H   0  0  0  0  0  0  0  0  0  0  0  0
    1.8376    0.1880    1.7476 H   0  0  0  0  0  0  0  0  0  0  0  0
    4.0042    1.7690    0.4883 H   0  0  0  0  0  0  0  0  0  0  0  0
    3.2314    0.7345    2.9917 H   0  0  0  0  0  0  0  0  0  0  0  0
    4.6255   -0.9411    1.8102 H   0  0  0  0  0  0  0  0  0  0  0  0
    5.9998    0.8602    2.4167 H   0  0  0  0  0  0  0  0  0  0  0  0
    5.8850    1.6376    0.8295 H   0  0  0  0  0  0  0  0  0  0  0  0
    8.0157    0.0971    1.8097 H   0  0  0  0  0  0  0  0  0  0  0  0
    8.1434   -1.6131   -0.1746 H   0  0  0  0  0  0  0  0  0  0  0  0
    7.9453   -3.0459    1.3399 H   0  0  0  0  0  0  0  0  0  0  0  0
    5.5699   -2.6644    0.6249 H   0  0  0  0  0  0  0  0  0  0  0  0
    6.2033   -2.4255   -1.0180 H   0  0  0  0  0  0  0  0  0  0  0  0
    5.3967   -0.1733   -1.0831 H   0  0  0  0  0  0  0  0  0  0  0  0
    4.1191   -1.4242   -0.6709 H   0  0  0  0  0  0  0  0  0  0  0  0
    7.2943    1.1536   -0.9184 H   0  0  0  0  0  0  0  0  0  0  0  0
    8.1248    1.9645    0.4088 H   0  0  0  0  0  0  0  0  0  0  0  0
    9.2444   -0.3056   -1.3538 H   0  0  0  0  0  0  0  0  0  0  0  0
    9.6371    1.4176   -1.2919 H   0  0  0  0  0  0  0  0  0  0  0  0
   10.1106   -0.3431    1.1707 H   0  0  0  0  0  0  0  0  0  0  0  0
   12.1452    0.9030   -0.7623 H   0  0  0  0  0  0  0  0  0  0  0  0
   12.3238   -0.6234    0.2499 H   0  0  0  0  0  0  0  0  0  0  0  0
   11.3989   -0.5947   -1.3018 H   0  0  0  0  0  0  0  0  0  0  0  0
   10.4250    2.4979    0.3262 H   0  0  0  0  0  0  0  0  0  0  0  0
   11.7422    1.8039    1.3085 H   0  0  0  0  0  0  0  0  0  0  0  0
    9.9918    1.8912    1.9286 H   0  0  0  0  0  0  0  0  0  0  0  0
  -10.3281   -0.4449   -1.2723 H   0  0  0  0  0  0  0  0  0  0  0  0
  -10.4463   -1.1344    0.4351 H   0  0  0  0  0  0  0  0  0  0  0  0
  -11.2717    0.3883   -0.0275 H   0  0  0  0  0  0  0  0  0  0  0  0
  -10.1675   -0.2531    2.8274 H   0  0  0  0  0  0  0  0  0  0  0  0
   -9.6880    0.6130    4.2265 H   0  0  0  0  0  0  0  0  0  0  0  0
   -7.6558    0.6594    3.1497 H   0  0  0  0  0  0  0  0  0  0  0  0
   -7.6994   -2.0487    4.0118 H   0  0  0  0  0  0  0  0  0  0  0  0
   -8.2975   -1.0772   -0.5721 H   0  0  0  0  0  0  0  0  0  0  0  0
   -6.9517    0.7245    1.4981 H   0  0  0  0  0  0  0  0  0  0  0  0
   -5.3409   -1.1837    1.5970 H   0  0  0  0  0  0  0  0  0  0  0  0
   -6.0199   -2.3126   -0.7699 H   0  0  0  0  0  0  0  0  0  0  0  0
   -4.9730   -0.6577   -1.2084 H   0  0  0  0  0  0  0  0  0  0  0  0
   -8.2959   -0.4225   -2.5941 H   0  0  0  0  0  0  0  0  0  0  0  0
   -7.1600    0.7925   -3.2529 H   0  0  0  0  0  0  0  0  0  0  0  0
   -6.4972   -0.7817   -2.5556 H   0  0  0  0  0  0  0  0  0  0  0  0
   -8.9803    1.8542   -1.8236 H   0  0  0  0  0  0  0  0  0  0  0  0
   -7.3667    2.7278   -1.9166 H   0  0  0  0  0  0  0  0  0  0  0  0
   -8.2083    2.4214   -0.3287 H   0  0  0  0  0  0  0  0  0  0  0  0
   -3.1619   -0.5565   -1.2259 H   0  0  0  0  0  0  0  0  0  0  0  0
   -2.2105   -0.1916    1.6778 H   0  0  0  0  0  0  0  0  0  0  0  0
   -2.2196   -2.5472   -0.2969 H   0  0  0  0  0  0  0  0  0  0  0  0
   -3.2077   -2.2454    1.1351 H   0  0  0  0  0  0  0  0  0  0  0  0
   -1.4770   -2.5081    1.4114 H   0  0  0  0  0  0  0  0  0  0  0  0
   -0.5146    0.9224    0.6445 H   0  0  0  0  0  0  0  0  0  0  0  0
   -0.6820   -1.0122   -1.7156 H   0  0  0  0  0  0  0  0  0  0  0  0
   -1.4578    0.9189   -2.8191 H   0  0  0  0  0  0  0  0  0  0  0  0
   -0.5134    1.9921   -1.7299 H   0  0  0  0  0  0  0  0  0  0  0  0
   -2.1421    2.0830   -0.0809 H   0  0  0  0  0  0  0  0  0  0  0  0
   -3.1598    1.7952   -1.5166 H   0  0  0  0  0  0  0  0  0  0  0  0
    0.1656   -2.4997   -0.3352 H   0  0  0  0  0  0  0  0  0  0  0  0
    1.6221   -3.5946    0.7045 H   0  0  0  0  0  0  0  0  0  0  0  0
    1.3697   -1.8252   -2.0259 H   0  0  0  0  0  0  0  0  0  0  0  0
    1.3903    0.9270   -0.6910 H   0  0  0  0  0  0  0  0  0  0  0  0
    1.5892    1.4728   -2.7783 H   0  0  0  0  0  0  0  0  0  0  0  0
    3.4431   -2.0397   -1.8112 H   0  0  0  0  0  0  0  0  0  0  0  0
    5.0477   -1.3873   -0.5803 H   0  0  0  0  0  0  0  0  0  0  0  0
    3.7257   -0.9383    1.7527 H   0  0  0  0  0  0  0  0  0  0  0  0
    3.4295    1.0117    0.4047 H   0  0  0  0  0  0  0  0  0  0  0  0
    5.1421    1.4046    1.8012 H   0  0  0  0  0  0  0  0  0  0  0  0
    5.6346   -0.2685    1.4963 H   0  0  0  0  0  0  0  0  0  0  0  0
    6.6992    2.3007    0.4191 H   0  0  0  0  0  0  0  0  0  0  0  0
    7.7778    1.3741   -1.4046 H   0  0  0  0  0  0  0  0  0  0  0  0
    7.3395   -1.2655   -1.4567 H   0  0  0  0  0  0  0  0  0  0  0  0
    5.8172   -0.5199   -2.2498 H   0  0  0  0  0  0  0  0  0  0  0  0
    6.1004    1.1053   -2.8665 H   0  0  0  0  0  0  0  0  0  0  0  0
    3.9054    1.1684   -2.0520 H   0  0  0  0  0  0  0  0  0  0  0  0
    4.9474    2.1825   -1.0537 H   0  0  0  0  0  0  0  0  0  0  0  0
    7.8178   -0.3394    1.3898 H   0  0  0  0  0  0  0  0  0  0  0  0
    7.6118    1.1354    2.3772 H   0  0  0  0  0  0  0  0  0  0  0  0
    9.3305    0.9122   -0.2066 H   0  0  0  0  0  0  0  0  0  0  0  0
    9.0747    2.3885    0.7641 H   0  0  0  0  0  0  0  0  0  0  0  0
   10.2798    1.4468    2.6347 H   0  0  0  0  0  0  0  0  0  0  0  0
   11.5407   -0.7538    2.0508 H   0  0  0  0  0  0  0  0  0  0  0  0
    9.8562   -0.9537    2.7199 H   0  0  0  0  0  0  0  0  0  0  0  0
   10.2066   -1.0769    0.9151 H   0  0  0  0  0  0  0  0  0  0  0  0
   11.4831    0.9762   -0.1342 H   0  0  0  0  0  0  0  0  0  0  0  0
   11.4832    2.4742    0.8174 H   0  0  0  0  0  0  0  0  0  0  0  0
   12.4609    0.9943    1.3534 H   0  0  0  0  0  0  0  0  0  0  0  0
   -9.1807   -1.0056   -0.4235 H   0  0  0  0  0  0  0  0  0  0  0  0
   -9.6730   -1.2325    1.2828 H   0  0  0  0  0  0  0  0  0  0  0  0
   -9.3062    0.4324    0.6218 H   0  0  0  0  0  0  0  0  0  0  0  0
   -7.1365   -5.0708   -0.5921 H   0  0  0  0  0  0  0  0  0  0  0  0
   -7.3213   -3.9437    0.6290 H   0  0  0  0  0  0  0  0  0  0  0  0
   -5.3652   -3.2660   -0.1668 H   0  0  0  0  0  0  0  0  0  0  0  0
   -5.3549   -4.8623   -1.6632 H   0  0  0  0  0  0  0  0  0  0  0  0
   -7.4713    0.4257   -0.6459 H   0  0  0  0  0  0  0  0  0  0  0  0
   -5.1543   -1.3739    0.1122 H   0  0  0  0  0  0  0  0  0  0  0  0
   -4.4180   -0.6719   -2.1943 H   0  0  0  0  0  0  0  0  0  0  0  0
   -6.1186    0.0181   -3.2207 H   0  0  0  0  0  0  0  0  0  0  0  0
   -4.5733    1.9212   -1.0210 H   0  0  0  0  0  0  0  0  0  0  0  0
   -6.9972    2.3028   -0.5124 H   0  0  0  0  0  0  0  0  0  0  0  0
   -7.3165    2.6904    1.1967 H   0  0  0  0  0  0  0  0  0  0  0  0
   -5.7290    3.0829    0.5261 H   0  0  0  0  0  0  0  0  0  0  0  0
   -7.3851    0.5604    2.4594 H   0  0  0  0  0  0  0  0  0  0  0  0
   -6.1275    1.7555    2.8431 H   0  0  0  0  0  0  0  0  0  0  0  0
   -5.6763   -0.0400    2.7824 H   0  0  0  0  0  0  0  0  0  0  0  0
   -2.9122    2.5828   -1.6324 H   0  0  0  0  0  0  0  0  0  0  0  0
   -0.7189    3.0500   -1.0732 H   0  0  0  0  0  0  0  0  0  0  0  0
   -2.1570    2.1165    1.4700 H   0  0  0  0  0  0  0  0  0  0  0  0
   -2.4904    3.5704    0.4210 H   0  0  0  0  0  0  0  0  0  0  0  0
   -0.8929    3.4393    1.1992 H   0  0  0  0  0  0  0  0  0  0  0  0
    0.8632    1.5583   -0.5155 H   0  0  0  0  0  0  0  0  0  0  0  0
   -1.1461   -0.7217   -0.8801 H   0  0  0  0  0  0  0  0  0  0  0  0
    0.4938    0.7219   -3.0222 H   0  0  0  0  0  0  0  0  0  0  0  0
   -0.7291   -0.5512   -3.1626 H   0  0  0  0  0  0  0  0  0  0  0  0
   -2.3177    1.0292   -3.5066 H   0  0  0  0  0  0  0  0  0  0  0  0
   -1.1473    2.2969   -3.0958 H   0  0  0  0  0  0  0  0  0  0  0  0
   -1.2934   -0.8159    1.1230 H   0  0  0  0  0  0  0  0  0  0  0  0
   -0.2893   -1.8489    2.7659 H   0  0  0  0  0  0  0  0  0  0  0  0
   -0.0433   -2.3636    0.2159 H   0  0  0  0  0  0  0  0  0  0  0  0
    1.8349   -0.3306   -1.0316 H   0  0  0  0  0  0  0  0  0  0  0  0
    1.2635   -1.4806   -2.7075 H   0  0  0  0  0  0  0  0  0  0  0  0
    1.8479   -3.1347    0.7863 H   0  0  0  0  0  0  0  0  0  0  0  0
    3.4469   -2.5034    2.1628 H   0  0  0  0  0  0  0  0  0  0  0  0
    2.6868   -0.0182    2.9142 H   0  0  0  0  0  0  0  0  0  0  0  0
    3.1960    0.1707    0.7158 H   0  0  0  0  0  0  0  0  0  0  0  0
    5.0485   -1.0810    2.6801 H   0  0  0  0  0  0  0  0  0  0  0  0
    4.5761    0.6284    2.4973 H   0  0  0  0  0  0  0  0  0  0  0  0
    6.8670    0.2182    2.0143 H   0  0  0  0  0  0  0  0  0  0  0  0
    7.1301   -1.0740   -0.4366 H   0  0  0  0  0  0  0  0  0  0  0  0
    7.0280   -2.4543    2.0320 H   0  0  0  0  0  0  0  0  0  0  0  0
    5.3490   -2.8448    1.1785 H   0  0  0  0  0  0  0  0  0  0  0  0
    5.8714   -2.9454   -0.5666 H   0  0  0  0  0  0  0  0  0  0  0  0
    3.5048   -2.3796   -0.3825 H   0  0  0  0  0  0  0  0  0  0  0  0
    4.3593   -1.0240   -1.1005 H   0  0  0  0  0  0  0  0  0  0  0  0
    5.0155    1.1035   -0.2788 H   0  0  0  0  0  0  0  0  0  0  0  0
    5.6414    2.0156    1.0787 H   0  0  0  0  0  0  0  0  0  0  0  0
    7.2850    1.0380   -1.3415 H   0  0  0  0  0  0  0  0  0  0  0  0
    6.5469    2.5970   -1.0362 H   0  0  0  0  0  0  0  0  0  0  0  0
    7.8652    3.1916    0.7575 H   0  0  0  0  0  0  0  0  0  0  0  0
   10.1608    1.6588    0.9537 H   0  0  0  0  0  0  0  0  0  0  0  0
    8.7773    1.5426    2.0963 H   0  0  0  0  0  0  0  0  0  0  0  0
    8.9097    0.3349    0.7851 H   0  0  0  0  0  0  0  0  0  0  0  0
    9.2764    2.0772   -1.6613 H   0  0  0  0  0  0  0  0  0  0  0  0
   10.1229    3.0831   -0.3553 H   0  0  0  0  0  0  0  0  0  0  0  0
    8.7449    3.7839   -1.3440 H   0  0  0  0  0  0  0  0  0  0  0  0
  1  2  1  0
  3  4  1  0
  4  5  1  0
  4  6  1  0
  2  7  1  0
  6  8  1  0
  7  8  1  0
  8  9  1  0
  9 10  1  0
  9 11  1  0
 11 12  1  0
  7 13  1  0
 12 13  1  0
 13 14  1  0
 13 15  1  0
 11 16  1  0
 16 17  1  0
 17 18  1  0
 18 19  1  0
 18 20  1  0
 20 21  1  0
 21 22  1  0
 17 23  1  0
 22 23  1  0
 20 24  1  0
 24 25  1  0
 25 26  1  0
 25 27  1  0
 21 28  1  0
 27 28  1  0
 28 29  1  0
 27 30  1  0
 30 31  1  0
 31 32  1  0
 31 33  1  0
 33 34  1  0
 34 35  1  0
 35 36  1  0
 36 37  1  0
 36 38  1  0
 33 39  1  0
 38 39  1  0
 35 40  1  0
 40 41  1  0
 41 42  1  0
 42 43  1  0
 42 44  1  0
 45 46  1  0
 47 48  1  0
 48 49  1  0
 48 50  1  0
 46 51  1  0
 50 52  1  0
 51 52  1  0
 52 53  1  0
 53 54  1  0
 53 55  1  0
 55 56  1  0
 51 57  1  0
 56 57  1  0
 57 58  1  0
 57 59  1  0
 55 60  1  0
 60 61  1  0
 61 62  1  0
 62 63  1  0
 62 64  1  0
 64 65  1  0
 65 66  1  0
 61 67  1  0
 66 67  1  0
 64 68  1  0
 68 69  1  0
 69 70  1  0
 69 71  1  0
 65 72  1  0
 71 72  1  0
 72 73  1  0
 71 74  1  0
 74 75  1  0
 75 76  1  0
 75 77  1  0
 77 78  1  0
 78 79  1  0
 79 80  1  0
 80 81  1  0
 80 82  1  0
 77 83  1  0
 82 83  1  0
 79 84  1  0
 84 85  1  0
 85 86  1  0
 86 87  1  0
 86 88  1  0
 89 90  1  0
 91 92  1  0
 92 93  1  0
 92 94  1  0
 90 95  1  0
 94 96  1  0
 95 96  1  0
 96 97  1  0
 97 98  1  0
 97 99  1  0
 99100  1  0
 95101  1  0
100101  1  0
101102  1  0
101103  1  0
 99104  1  0
104105  1  0
105106  1  0
106107  1  0
106108  1  0
108109  1  0
109110  1  0
105111  1  0
110111  1  0
108112  1  0
112113  1  0
113114  1  0
113115  1  0
109116  1  0
115116  1  0
116117  1  0
115118  1  0
118119  1  0
119120  1  0
119121  1  0
121122  1  0
122123  1  0
123124  1  0
124125  1  0
124126  1  0
121127  1  0
126127  1  0
123128  1  0
128129  1  0
129130  1  0
130131  1  0
130132  1  0
133134  1  0
135136  1  0
136137  1  0
136138  1  0
134139  1  0
138140  1  0
139140  1  0
140141  1  0
141142  1  0
141143  1  0
143144  1  0
139145  1  0
144145  1  0
145146  1  0
145147  1  0
143148  1  0
148149  1  0
149150  1  0
150151  1  0
150152  1  0
152153  1  0
153154  1  0
149155  1  0
154155  1  0
152156  1  0
156157  1  0
157158  1  0
157159  1  0
153160  1  0
159160  1  0
160161  1  0
159162  1  0
162163  1  0
163164  1  0
163165  1  0
165166  1  0
166167  1  0
167168  1  0
168169  1  0
168170  1  0
165171  1  0
170171  1  0
167172  1  0
172173  1  0
173174  1  0
174175  1  0
174176  1  0
  1177  1  0
  1178  1  0
  1179  1  0
  3180  1  0
  3181  1  0
  4182  1  0
  5183  1  0
  7184  1  6
  8185  1  1
  9186  1  6
 10187  1  0
 11188  1  6
 14189  1  0
 14190  1  0
 14191  1  0
 15192  1  0
 15193  1  0
 15194  1  0
 17195  1  0
 18196  1  6
 19197  1  0
 19198  1  0
 19199  1  0
 20200  1  0
 21201  1  0
 22202  1  0
 22203  1  0
 23204  1  0
 23205  1  0
 25206  1  0
 26207  1  0
 27208  1  6
 28209  1  0
 29210  1  0
 30211  1  0
 31212  1  0
 32213  1  0
 33214  1  6
 34215  1  0
 34216  1  0
 35217  1  0
 36218  1  6
 37219  1  0
 38220  1  0
 38221  1  0
 39222  1  0
 39223  1  0
 40224  1  0
 40225  1  0
 41226  1  0
 41227  1  0
 42228  1  0
 43229  1  0
 43230  1  0
 43231  1  0
 44232  1  0
 44233  1  0
 44234  1  0
 45235  1  0
 45236  1  0
 45237  1  0
 47238  1  0
 47239  1  0
 48240  1  0
 49241  1  0
 51242  1  6
 52243  1  1
 53244  1  1
 54245  1  0
 55246  1  6
 58247  1  0
 58248  1  0
 58249  1  0
 59250  1  0
 59251  1  0
 59252  1  0
 61253  1  0
 62254  1  0
 63255  1  0
 63256  1  0
 63257  1  0
 64258  1  0
 65259  1  0
 66260  1  0
 66261  1  0
 67262  1  0
 67263  1  0
 69264  1  0
 70265  1  0
 71266  1  6
 72267  1  0
 73268  1  0
 74269  1  0
 75270  1  0
 76271  1  0
 77272  1  0
 78273  1  0
 78274  1  0
 79275  1  0
 80276  1  0
 81277  1  0
 82278  1  0
 82279  1  0
 83280  1  0
 83281  1  0
 84282  1  0
 84283  1  0
 85284  1  0
 85285  1  0
 86286  1  0
 87287  1  0
 87288  1  0
 87289  1  0
 88290  1  0
 88291  1  0
 88292  1  0
 89293  1  0
 89294  1  0
 89295  1  0
 91296  1  0
 91297  1  0
 92298  1  0
 93299  1  0
 95300  1  6
 96301  1  1
 97302  1  1
 98303  1  0
 99304  1  6
102305  1  0
102306  1  0
102307  1  0
103308  1  0
103309  1  0
103310  1  0
105311  1  0
106312  1  0
107313  1  0
107314  1  0
107315  1  0
108316  1  0
109317  1  0
110318  1  0
110319  1  0
111320  1  0
111321  1  0
113322  1  0
114323  1  0
115324  1  6
116325  1  0
117326  1  0
118327  1  0
119328  1  0
120329  1  0
121330  1  1
122331  1  0
122332  1  0
123333  1  6
124334  1  0
125335  1  0
126336  1  0
126337  1  0
127338  1  0
127339  1  0
128340  1  0
128341  1  0
129342  1  0
129343  1  0
130344  1  0
131345  1  0
131346  1  0
131347  1  0
132348  1  0
132349  1  0
132350  1  0
133351  1  0
133352  1  0
133353  1  0
135354  1  0
135355  1  0
136356  1  0
137357  1  0
139358  1  6
140359  1  1
141360  1  6
142361  1  0
143362  1  6
146363  1  0
146364  1  0
146365  1  0
147366  1  0
147367  1  0
147368  1  0
149369  1  0
150370  1  6
151371  1  0
151372  1  0
151373  1  0
152374  1  0
153375  1  0
154376  1  0
154377  1  0
155378  1  0
155379  1  0
157380  1  0
158381  1  0
159382  1  6
160383  1  0
161384  1  0
162385  1  0
163386  1  1
164387  1  0
165388  1  6
166389  1  0
166390  1  0
167391  1  0
168392  1  0
169393  1  0
170394  1  0
170395  1  0
171396  1  0
171397  1  0
172398  1  0
172399  1  0
173400  1  0
173401  1  0
174402  1  0
175403  1  0
175404  1  0
175405  1  0
176406  1  0
176407  1  0
176408  1  0
M  END
>  <PDBID>  (1) 
4URO

>  <PDB ID>  (1) 
4URO

>  <Generic Name>  (1) 
Novobiocin

>  <Brand Name>  (1) 
Albamycin

>  <DrugBank ID>  (1) 
DB01051

>  <ATC Codes>  (1) 
nan

>  <Ligand ID>  (1) 
NOV

>  <Target Name>  (1) 
DNA gyrase subunit B

>  <UniProt ID>  (1) 
P0A0K8

>  <PDB ID.1>  (1) 
4URO

>  <Seq. Identity>  (1) 
84%

$$$$
