PDB_DB00396_04
     RDKit          3D

118124  0  0  0  0  0  0  0  0999 V2000
   -2.7755    1.0504   -1.4928 C   0  0  0  0  0  0  0  0  0  0  0  0
   -4.2130    1.4267   -1.3141 C   0  0  0  0  0  0  0  0  0  0  0  0
   -5.0282    0.4787   -0.5270 C   0  0  0  0  0  0  0  0  0  0  0  0
   -5.6773   -0.4652   -1.3568 O   0  0  0  0  0  0  0  0  0  0  0  0
   -4.3415   -0.2476    0.5625 C   0  0  0  0  0  0  0  0  0  0  0  0
   -2.9681   -0.6827    0.1649 C   0  0  2  0  0  0  0  0  0  0  0  0
   -2.3099   -1.5657    1.1933 C   0  0  0  0  0  0  0  0  0  0  0  0
   -0.9852   -2.0195    0.5630 C   0  0  0  0  0  0  0  0  0  0  0  0
   -0.1216   -0.7741    0.5150 C   0  0  2  0  0  0  0  0  0  0  0  0
   -0.7277    0.2558   -0.4509 C   0  0  1  0  0  0  0  0  0  0  0  0
   -2.1607    0.5225   -0.1869 C   0  0  1  0  0  0  0  0  0  0  0  0
    0.0934    1.5185   -0.2660 C   0  0  0  0  0  0  0  0  0  0  0  0
    1.5561    1.3020   -0.5392 C   0  0  0  0  0  0  0  0  0  0  0  0
    2.1440    0.1557    0.1907 C   0  0  1  0  0  0  0  0  0  0  0  0
    1.2336   -1.0439    0.0068 C   0  0  1  0  0  0  0  0  0  0  0  0
    2.0278   -2.1118    0.6708 C   0  0  0  0  0  0  0  0  0  0  0  0
    3.4579   -1.7692    0.2231 C   0  0  0  0  0  0  0  0  0  0  0  0
    3.3844   -0.4098   -0.4332 C   0  0  2  0  0  0  0  0  0  0  0  0
    2.4180    0.4359    1.6504 C   0  0  0  0  0  0  0  0  0  0  0  0
   -2.3613    1.6681    0.8156 C   0  0  0  0  0  0  0  0  0  0  0  0
    4.6096    0.4234   -0.2188 C   0  0  0  0  0  0  0  0  0  0  0  0
    4.9375    0.5997    1.1051 O   0  0  0  0  0  0  0  0  0  0  0  0
    5.7697   -0.0440   -1.0710 C   0  0  0  0  0  0  0  0  0  0  0  0
   -2.7755    1.0504   -1.4928 C   0  0  0  0  0  0  0  0  0  0  0  0
   -4.2130    1.4267   -1.3141 C   0  0  0  0  0  0  0  0  0  0  0  0
   -5.0282    0.4787   -0.5270 C   0  0  0  0  0  0  0  0  0  0  0  0
   -5.6773   -0.4652   -1.3568 O   0  0  0  0  0  0  0  0  0  0  0  0
   -4.3415   -0.2476    0.5625 C   0  0  0  0  0  0  0  0  0  0  0  0
   -2.9681   -0.6827    0.1649 C   0  0  2  0  0  0  0  0  0  0  0  0
   -2.3099   -1.5657    1.1933 C   0  0  0  0  0  0  0  0  0  0  0  0
   -0.9852   -2.0195    0.5630 C   0  0  0  0  0  0  0  0  0  0  0  0
   -0.1216   -0.7741    0.5150 C   0  0  2  0  0  0  0  0  0  0  0  0
   -0.7277    0.2558   -0.4509 C   0  0  1  0  0  0  0  0  0  0  0  0
   -2.1607    0.5225   -0.1869 C   0  0  1  0  0  0  0  0  0  0  0  0
    0.0934    1.5185   -0.2660 C   0  0  0  0  0  0  0  0  0  0  0  0
    1.5561    1.3020   -0.5392 C   0  0  0  0  0  0  0  0  0  0  0  0
    2.1440    0.1557    0.1907 C   0  0  1  0  0  0  0  0  0  0  0  0
    1.2336   -1.0439    0.0068 C   0  0  1  0  0  0  0  0  0  0  0  0
    2.0278   -2.1118    0.6708 C   0  0  0  0  0  0  0  0  0  0  0  0
    3.4579   -1.7692    0.2231 C   0  0  0  0  0  0  0  0  0  0  0  0
    3.3844   -0.4098   -0.4332 C   0  0  2  0  0  0  0  0  0  0  0  0
    2.4180    0.4359    1.6504 C   0  0  0  0  0  0  0  0  0  0  0  0
   -2.3613    1.6681    0.8156 C   0  0  0  0  0  0  0  0  0  0  0  0
    4.6096    0.4234   -0.2188 C   0  0  0  0  0  0  0  0  0  0  0  0
    4.9375    0.5997    1.1051 O   0  0  0  0  0  0  0  0  0  0  0  0
    5.7697   -0.0440   -1.0710 C   0  0  0  0  0  0  0  0  0  0  0  0
   -2.5796    0.3685   -2.3285 H   0  0  0  0  0  0  0  0  0  0  0  0
   -2.2045    1.9936   -1.7093 H   0  0  0  0  0  0  0  0  0  0  0  0
   -4.6576    1.4776   -2.3529 H   0  0  0  0  0  0  0  0  0  0  0  0
   -4.3081    2.4897   -0.9418 H   0  0  0  0  0  0  0  0  0  0  0  0
   -5.8793    1.0615   -0.0642 H   0  0  0  0  0  0  0  0  0  0  0  0
   -6.0232   -1.2024   -0.7896 H   0  0  0  0  0  0  0  0  0  0  0  0
   -4.3451    0.2838    1.5504 H   0  0  0  0  0  0  0  0  0  0  0  0
   -4.9299   -1.1915    0.7656 H   0  0  0  0  0  0  0  0  0  0  0  0
   -3.0730   -1.2962   -0.7635 H   0  0  0  0  0  0  0  0  0  0  0  0
   -2.0790   -0.9357    2.0731 H   0  0  0  0  0  0  0  0  0  0  0  0
   -2.9739   -2.4078    1.4031 H   0  0  0  0  0  0  0  0  0  0  0  0
   -1.1712   -2.4296   -0.4469 H   0  0  0  0  0  0  0  0  0  0  0  0
   -0.4901   -2.7320    1.2331 H   0  0  0  0  0  0  0  0  0  0  0  0
   -0.1964   -0.3123    1.5112 H   0  0  0  0  0  0  0  0  0  0  0  0
   -0.5434   -0.1301   -1.4625 H   0  0  0  0  0  0  0  0  0  0  0  0
   -0.2707    2.3013   -0.9601 H   0  0  0  0  0  0  0  0  0  0  0  0
    0.0221    1.8489    0.8086 H   0  0  0  0  0  0  0  0  0  0  0  0
    2.0878    2.2217   -0.2580 H   0  0  0  0  0  0  0  0  0  0  0  0
    1.6834    1.1172   -1.6393 H   0  0  0  0  0  0  0  0  0  0  0  0
    1.1854   -1.2398   -1.0863 H   0  0  0  0  0  0  0  0  0  0  0  0
    1.9428   -2.1138    1.7629 H   0  0  0  0  0  0  0  0  0  0  0  0
    1.7841   -3.0883    0.2076 H   0  0  0  0  0  0  0  0  0  0  0  0
    3.8537   -2.5277   -0.4804 H   0  0  0  0  0  0  0  0  0  0  0  0
    4.0900   -1.7971    1.1155 H   0  0  0  0  0  0  0  0  0  0  0  0
    3.1873   -0.5887   -1.5091 H   0  0  0  0  0  0  0  0  0  0  0  0
    2.8671    1.4619    1.7486 H   0  0  0  0  0  0  0  0  0  0  0  0
    1.5035    0.4802    2.2773 H   0  0  0  0  0  0  0  0  0  0  0  0
    3.0567   -0.3468    2.1088 H   0  0  0  0  0  0  0  0  0  0  0  0
   -3.4334    1.9556    0.8216 H   0  0  0  0  0  0  0  0  0  0  0  0
   -1.8355    2.5485    0.3415 H   0  0  0  0  0  0  0  0  0  0  0  0
   -1.9637    1.4223    1.8029 H   0  0  0  0  0  0  0  0  0  0  0  0
    4.3513    1.4523   -0.6139 H   0  0  0  0  0  0  0  0  0  0  0  0
    5.2493    1.5318    1.2831 H   0  0  0  0  0  0  0  0  0  0  0  0
    6.3735   -0.8305   -0.5867 H   0  0  0  0  0  0  0  0  0  0  0  0
    5.3322   -0.3799   -2.0423 H   0  0  0  0  0  0  0  0  0  0  0  0
    6.4257    0.8294   -1.2573 H   0  0  0  0  0  0  0  0  0  0  0  0
   -2.5796    0.3685   -2.3285 H   0  0  0  0  0  0  0  0  0  0  0  0
   -2.2045    1.9936   -1.7093 H   0  0  0  0  0  0  0  0  0  0  0  0
   -4.6576    1.4776   -2.3529 H   0  0  0  0  0  0  0  0  0  0  0  0
   -4.3081    2.4897   -0.9418 H   0  0  0  0  0  0  0  0  0  0  0  0
   -5.8793    1.0615   -0.0642 H   0  0  0  0  0  0  0  0  0  0  0  0
   -6.0232   -1.2024   -0.7896 H   0  0  0  0  0  0  0  0  0  0  0  0
   -4.3451    0.2838    1.5504 H   0  0  0  0  0  0  0  0  0  0  0  0
   -4.9299   -1.1915    0.7656 H   0  0  0  0  0  0  0  0  0  0  0  0
   -3.0730   -1.2962   -0.7635 H   0  0  0  0  0  0  0  0  0  0  0  0
   -2.0790   -0.9357    2.0731 H   0  0  0  0  0  0  0  0  0  0  0  0
   -2.9739   -2.4078    1.4031 H   0  0  0  0  0  0  0  0  0  0  0  0
   -1.1712   -2.4296   -0.4469 H   0  0  0  0  0  0  0  0  0  0  0  0
   -0.4901   -2.7320    1.2331 H   0  0  0  0  0  0  0  0  0  0  0  0
   -0.1964   -0.3123    1.5112 H   0  0  0  0  0  0  0  0  0  0  0  0
   -0.5434   -0.1301   -1.4625 H   0  0  0  0  0  0  0  0  0  0  0  0
   -0.2707    2.3013   -0.9601 H   0  0  0  0  0  0  0  0  0  0  0  0
    0.0221    1.8489    0.8086 H   0  0  0  0  0  0  0  0  0  0  0  0
    2.0878    2.2217   -0.2580 H   0  0  0  0  0  0  0  0  0  0  0  0
    1.6834    1.1172   -1.6393 H   0  0  0  0  0  0  0  0  0  0  0  0
    1.1854   -1.2398   -1.0863 H   0  0  0  0  0  0  0  0  0  0  0  0
    1.9428   -2.1138    1.7629 H   0  0  0  0  0  0  0  0  0  0  0  0
    1.7841   -3.0883    0.2076 H   0  0  0  0  0  0  0  0  0  0  0  0
    3.8537   -2.5277   -0.4804 H   0  0  0  0  0  0  0  0  0  0  0  0
    4.0900   -1.7971    1.1155 H   0  0  0  0  0  0  0  0  0  0  0  0
    3.1873   -0.5887   -1.5091 H   0  0  0  0  0  0  0  0  0  0  0  0
    2.8671    1.4619    1.7486 H   0  0  0  0  0  0  0  0  0  0  0  0
    1.5035    0.4802    2.2773 H   0  0  0  0  0  0  0  0  0  0  0  0
    3.0567   -0.3468    2.1088 H   0  0  0  0  0  0  0  0  0  0  0  0
   -3.4334    1.9556    0.8216 H   0  0  0  0  0  0  0  0  0  0  0  0
   -1.8355    2.5485    0.3415 H   0  0  0  0  0  0  0  0  0  0  0  0
   -1.9637    1.4223    1.8029 H   0  0  0  0  0  0  0  0  0  0  0  0
    4.3513    1.4523   -0.6139 H   0  0  0  0  0  0  0  0  0  0  0  0
    5.2493    1.5318    1.2831 H   0  0  0  0  0  0  0  0  0  0  0  0
    6.3735   -0.8305   -0.5867 H   0  0  0  0  0  0  0  0  0  0  0  0
    5.3322   -0.3799   -2.0423 H   0  0  0  0  0  0  0  0  0  0  0  0
    6.4257    0.8294   -1.2573 H   0  0  0  0  0  0  0  0  0  0  0  0
  1  2  1  0
  2  3  1  0
  3  4  1  0
  3  5  1  0
  5  6  1  0
  6  7  1  0
  7  8  1  0
  8  9  1  0
  9 10  1  0
  1 11  1  0
  6 11  1  0
 10 11  1  0
 10 12  1  0
 12 13  1  0
 13 14  1  0
  9 15  1  0
 14 15  1  0
 15 16  1  0
 16 17  1  0
 14 18  1  0
 17 18  1  0
 14 19  1  1
 11 20  1  1
 18 21  1  0
 21 22  1  0
 21 23  1  0
 24 25  1  0
 25 26  1  0
 26 27  1  0
 26 28  1  0
 28 29  1  0
 29 30  1  0
 30 31  1  0
 31 32  1  0
 32 33  1  0
 24 34  1  0
 29 34  1  0
 33 34  1  0
 33 35  1  0
 35 36  1  0
 36 37  1  0
 32 38  1  0
 37 38  1  0
 38 39  1  0
 39 40  1  0
 37 41  1  0
 40 41  1  0
 37 42  1  1
 34 43  1  1
 41 44  1  0
 44 45  1  0
 44 46  1  0
  1 47  1  0
  1 48  1  0
  2 49  1  0
  2 50  1  0
  3 51  1  0
  4 52  1  0
  5 53  1  0
  5 54  1  0
  6 55  1  6
  7 56  1  0
  7 57  1  0
  8 58  1  0
  8 59  1  0
  9 60  1  1
 10 61  1  6
 12 62  1  0
 12 63  1  0
 13 64  1  0
 13 65  1  0
 15 66  1  6
 16 67  1  0
 16 68  1  0
 17 69  1  0
 17 70  1  0
 18 71  1  6
 19 72  1  0
 19 73  1  0
 19 74  1  0
 20 75  1  0
 20 76  1  0
 20 77  1  0
 21 78  1  0
 22 79  1  0
 23 80  1  0
 23 81  1  0
 23 82  1  0
 24 83  1  0
 24 84  1  0
 25 85  1  0
 25 86  1  0
 26 87  1  0
 27 88  1  0
 28 89  1  0
 28 90  1  0
 29 91  1  6
 30 92  1  0
 30 93  1  0
 31 94  1  0
 31 95  1  0
 32 96  1  1
 33 97  1  6
 35 98  1  0
 35 99  1  0
 36100  1  0
 36101  1  0
 38102  1  6
 39103  1  0
 39104  1  0
 40105  1  0
 40106  1  0
 41107  1  6
 42108  1  0
 42109  1  0
 42110  1  0
 43111  1  0
 43112  1  0
 43113  1  0
 44114  1  0
 45115  1  0
 46116  1  0
 46117  1  0
 46118  1  0
M  END
>  <PDBID>  (1) 
4FN9

>  <PDB ID>  (1) 
4FN9

>  <Generic Name>  (1) 
Progesterone

>  <Brand Name>  (1) 
Act Progesterone Injection#Crinone#Endometrin#Estrogel Propak#Gesterol In Oil-liq Im 50mg/ml#PMS-progesterone Inj 50mg/ml USP#Prochieve#Progesterone#Progesterone Inj 50mg/ml USP#Progesterone Injection USP#Prometrium#Teva-progesterone#Agolutin#Cyclogest#Gesterol#Gestone#Progestasert#Progestogel#Qi Ning#Relantan#Susten#Utrogestan#Utrogestran#Utrovin#Vasclor

>  <DrugBank ID>  (1) 
DB00396

>  <ATC Codes>  (1) 
G03DA04#G03FA04

>  <Ligand ID>  (1) 
STR

>  <Target Name>  (1) 
Estrogen receptor

>  <UniProt ID>  (1) 
P03372

>  <PDB ID.1>  (1) 
4FN9

>  <Seq. Identity>  (1) 
32%

$$$$
