PDB_DB00220_08
     RDKit          3D

101104  0  0  0  0  0  0  0  0999 V2000
    3.9187    1.0922    1.8653 C   0  0  2  0  0  0  0  0  0  0  0  0
    4.5698   -0.2357    2.0996 C   0  0  1  0  0  0  0  0  0  0  0  0
    4.5921   -0.6164    3.5614 C   0  0  0  0  0  0  0  0  0  0  0  0
    3.3506   -0.2449    4.3036 C   0  0  0  0  0  0  0  0  0  0  0  0
    3.0511    1.2265    4.2107 C   0  0  0  0  0  0  0  0  0  0  0  0
    3.8603    1.9141    3.1362 C   0  0  0  0  0  0  0  0  0  0  0  0
    2.3935    0.2489    0.1063 N   0  0  0  0  0  0  0  0  0  0  0  0
    3.5377   -0.5864   -0.0694 C   0  0  1  0  0  0  0  0  0  0  0  0
    3.8293   -1.2664    1.2675 C   0  0  0  0  0  0  0  0  0  0  0  0
    2.4977    0.9612    1.3564 C   0  0  0  0  0  0  0  0  0  0  0  0
    3.4788   -1.5583   -1.1933 C   0  0  1  0  0  0  0  0  0  0  0  0
    3.2066   -1.0110   -2.4520 N   0  0  0  0  0  0  0  0  0  0  0  0
    4.0533   -0.1281   -3.1063 C   0  0  0  0  0  0  0  0  0  0  0  0
    4.3535    1.2057   -2.5490 C   0  0  0  0  0  0  0  0  0  0  0  0
    3.4440    0.1002   -4.5090 C   0  0  0  0  0  0  0  0  0  0  0  0
    5.4168   -0.7804   -3.4351 C   0  0  0  0  0  0  0  0  0  0  0  0
    4.6426   -2.3439   -1.2653 O   0  0  0  0  0  0  0  0  0  0  0  0
    1.1174   -0.4823    0.0548 C   0  0  0  0  0  0  0  0  0  0  0  0
    0.0509    0.5218    0.2554 C   0  0  2  0  0  0  0  0  0  0  0  0
   -1.3625    0.0853    0.3736 C   0  0  1  0  0  0  0  0  0  0  0  0
    0.1444    1.5708   -0.7178 O   0  0  0  0  0  0  0  0  0  0  0  0
   -1.7179   -1.0006    1.1910 N   0  0  0  0  0  0  0  0  0  0  0  0
   -2.2432    1.2728    0.8617 C   0  0  0  0  0  0  0  0  0  0  0  0
   -1.4257   -2.3240    0.8336 C   0  0  0  0  0  0  0  0  0  0  0  0
   -1.9370   -3.1874    1.8269 O   0  0  0  0  0  0  0  0  0  0  0  0
   -2.1898   -2.7251   -0.4470 C   0  0  0  0  0  0  0  0  0  0  0  0
   -1.8792   -4.1504   -0.8186 C   0  0  0  0  0  0  0  0  0  0  0  0
   -2.9888   -4.6854   -1.6709 C   0  0  0  0  0  0  0  0  0  0  0  0
   -4.2208   -4.8697   -0.8123 C   0  0  0  0  0  0  0  0  0  0  0  0
   -4.3684   -3.7818    0.2165 C   0  0  1  0  0  0  0  0  0  0  0  0
   -3.6727   -2.5102   -0.2343 C   0  0  2  0  0  0  0  0  0  0  0  0
   -5.7283   -3.4884    0.3363 O   0  0  0  0  0  0  0  0  0  0  0  0
   -4.3881   -2.0105   -1.4652 C   0  0  0  0  0  0  0  0  0  0  0  0
   -2.1892    2.6543   -0.2757 S   0  0  0  0  0  0  0  0  0  0  0  0
   -3.2673    3.9620    0.4283 C   0  0  0  0  0  0  0  0  0  0  0  0
   -4.7129    3.4840    0.4440 C   0  0  0  0  0  0  0  0  0  0  0  0
   -5.6035    4.7275    0.4681 C   0  0  0  0  0  0  0  0  0  0  0  0
   -5.5421    5.4289   -0.8808 C   0  0  0  0  0  0  0  0  0  0  0  0
   -4.1605    5.2717   -1.4506 C   0  0  0  0  0  0  0  0  0  0  0  0
   -3.1301    5.2503   -0.3284 C   0  0  0  0  0  0  0  0  0  0  0  0
    2.2671   -1.1924   -2.8521 H   0  0  0  0  0  0  0  0  0  0  0  0
    1.1037    1.7051   -0.9139 H   0  0  0  0  0  0  0  0  0  0  0  0
   -1.6519   -0.7789    2.2095 H   0  0  0  0  0  0  0  0  0  0  0  0
   -6.0895   -3.6609    1.2432 H   0  0  0  0  0  0  0  0  0  0  0  0
    4.4927    1.6522    1.1212 H   0  0  0  0  0  0  0  0  0  0  0  0
    5.6376   -0.2760    1.7495 H   0  0  0  0  0  0  0  0  0  0  0  0
    5.5068   -0.1598    3.9931 H   0  0  0  0  0  0  0  0  0  0  0  0
    4.7278   -1.7149    3.6033 H   0  0  0  0  0  0  0  0  0  0  0  0
    3.5204   -0.5238    5.3723 H   0  0  0  0  0  0  0  0  0  0  0  0
    2.5361   -0.9035    3.9641 H   0  0  0  0  0  0  0  0  0  0  0  0
    1.9657    1.3864    4.0851 H   0  0  0  0  0  0  0  0  0  0  0  0
    3.3223    1.7000    5.1764 H   0  0  0  0  0  0  0  0  0  0  0  0
    4.9021    2.0385    3.4901 H   0  0  0  0  0  0  0  0  0  0  0  0
    3.4098    2.8801    2.8974 H   0  0  0  0  0  0  0  0  0  0  0  0
    4.3944    0.1264   -0.2833 H   0  0  0  0  0  0  0  0  0  0  0  0
    4.4299   -2.1860    1.1244 H   0  0  0  0  0  0  0  0  0  0  0  0
    2.9158   -1.5208    1.8257 H   0  0  0  0  0  0  0  0  0  0  0  0
    2.0814    1.9860    1.3258 H   0  0  0  0  0  0  0  0  0  0  0  0
    1.8668    0.3943    2.0963 H   0  0  0  0  0  0  0  0  0  0  0  0
    2.6774   -2.2960   -0.9515 H   0  0  0  0  0  0  0  0  0  0  0  0
    3.5418    1.6745   -1.9595 H   0  0  0  0  0  0  0  0  0  0  0  0
    5.3504    1.2903   -2.0562 H   0  0  0  0  0  0  0  0  0  0  0  0
    4.4720    1.9248   -3.4279 H   0  0  0  0  0  0  0  0  0  0  0  0
    4.2640    0.4965   -5.1590 H   0  0  0  0  0  0  0  0  0  0  0  0
    2.7380    0.9454   -4.3829 H   0  0  0  0  0  0  0  0  0  0  0  0
    3.0067   -0.8232   -4.8895 H   0  0  0  0  0  0  0  0  0  0  0  0
    5.2668   -1.7775   -3.8915 H   0  0  0  0  0  0  0  0  0  0  0  0
    6.0608   -0.8151   -2.5395 H   0  0  0  0  0  0  0  0  0  0  0  0
    5.8923   -0.1467   -4.2090 H   0  0  0  0  0  0  0  0  0  0  0  0
    4.5752   -3.1327   -0.6722 H   0  0  0  0  0  0  0  0  0  0  0  0
    1.1465   -1.1145    0.9863 H   0  0  0  0  0  0  0  0  0  0  0  0
    1.0215   -1.1206   -0.8066 H   0  0  0  0  0  0  0  0  0  0  0  0
    0.2387    1.1273    1.2192 H   0  0  0  0  0  0  0  0  0  0  0  0
   -1.8108   -0.0923   -0.6706 H   0  0  0  0  0  0  0  0  0  0  0  0
   -1.9872    1.5204    1.9027 H   0  0  0  0  0  0  0  0  0  0  0  0
   -3.2685    0.8535    0.8720 H   0  0  0  0  0  0  0  0  0  0  0  0
   -0.3918   -2.5659    0.6938 H   0  0  0  0  0  0  0  0  0  0  0  0
   -1.2511   -3.8669    2.0918 H   0  0  0  0  0  0  0  0  0  0  0  0
   -1.8543   -2.0741   -1.2685 H   0  0  0  0  0  0  0  0  0  0  0  0
   -0.8793   -4.2091   -1.2960 H   0  0  0  0  0  0  0  0  0  0  0  0
   -1.9086   -4.7355    0.1417 H   0  0  0  0  0  0  0  0  0  0  0  0
   -3.2029   -4.0537   -2.5454 H   0  0  0  0  0  0  0  0  0  0  0  0
   -2.6877   -5.6802   -2.0889 H   0  0  0  0  0  0  0  0  0  0  0  0
   -4.1007   -5.8265   -0.2727 H   0  0  0  0  0  0  0  0  0  0  0  0
   -5.1380   -4.9791   -1.4286 H   0  0  0  0  0  0  0  0  0  0  0  0
   -4.0000   -4.0933    1.2244 H   0  0  0  0  0  0  0  0  0  0  0  0
   -3.8266   -1.7705    0.6048 H   0  0  0  0  0  0  0  0  0  0  0  0
   -5.0991   -2.7761   -1.8489 H   0  0  0  0  0  0  0  0  0  0  0  0
   -5.0278   -1.1377   -1.1685 H   0  0  0  0  0  0  0  0  0  0  0  0
   -3.7084   -1.7284   -2.2909 H   0  0  0  0  0  0  0  0  0  0  0  0
   -2.9671    4.1271    1.4776 H   0  0  0  0  0  0  0  0  0  0  0  0
   -4.9622    2.9108    1.3570 H   0  0  0  0  0  0  0  0  0  0  0  0
   -4.9483    2.9080   -0.4750 H   0  0  0  0  0  0  0  0  0  0  0  0
   -5.2936    5.4084    1.2718 H   0  0  0  0  0  0  0  0  0  0  0  0
   -6.6509    4.4330    0.6355 H   0  0  0  0  0  0  0  0  0  0  0  0
   -6.2501    4.9209   -1.5946 H   0  0  0  0  0  0  0  0  0  0  0  0
   -5.7956    6.4943   -0.7634 H   0  0  0  0  0  0  0  0  0  0  0  0
   -3.9051    6.0872   -2.1701 H   0  0  0  0  0  0  0  0  0  0  0  0
   -4.0875    4.2738   -1.9524 H   0  0  0  0  0  0  0  0  0  0  0  0
   -3.2407    6.1448    0.3324 H   0  0  0  0  0  0  0  0  0  0  0  0
   -2.1282    5.3315   -0.7760 H   0  0  0  0  0  0  0  0  0  0  0  0
  1  2  1  0
  2  3  1  0
  3  4  1  0
  4  5  1  0
  1  6  1  0
  5  6  1  0
  7  8  1  0
  2  9  1  0
  8  9  1  0
  1 10  1  0
  7 10  1  0
  8 11  1  0
 11 12  1  0
 13 12  1  0
 13 14  1  0
 13 15  1  0
 13 16  1  0
 11 17  1  0
  7 18  1  0
 18 19  1  0
 19 20  1  0
 19 21  1  0
 20 22  1  0
 20 23  1  0
 22 24  1  0
 24 25  1  0
 24 26  1  0
 26 27  1  0
 27 28  1  0
 28 29  1  0
 29 30  1  0
 26 31  1  0
 30 31  1  0
 30 32  1  0
 31 33  1  0
 23 34  1  0
 34 35  1  0
 35 36  1  0
 36 37  1  0
 37 38  1  0
 38 39  1  0
 35 40  1  0
 39 40  1  0
 12 41  1  0
 21 42  1  0
 22 43  1  0
 32 44  1  0
  1 45  1  6
  2 46  1  6
  3 47  1  0
  3 48  1  0
  4 49  1  0
  4 50  1  0
  5 51  1  0
  5 52  1  0
  6 53  1  0
  6 54  1  0
  8 55  1  6
  9 56  1  0
  9 57  1  0
 10 58  1  0
 10 59  1  0
 11 60  1  1
 14 61  1  0
 14 62  1  0
 14 63  1  0
 15 64  1  0
 15 65  1  0
 15 66  1  0
 16 67  1  0
 16 68  1  0
 16 69  1  0
 17 70  1  0
 18 71  1  0
 18 72  1  0
 19 73  1  1
 20 74  1  6
 23 75  1  0
 23 76  1  0
 24 77  1  0
 25 78  1  0
 26 79  1  0
 27 80  1  0
 27 81  1  0
 28 82  1  0
 28 83  1  0
 29 84  1  0
 29 85  1  0
 30 86  1  1
 31 87  1  1
 33 88  1  0
 33 89  1  0
 33 90  1  0
 35 91  1  0
 36 92  1  0
 36 93  1  0
 37 94  1  0
 37 95  1  0
 38 96  1  0
 38 97  1  0
 39 98  1  0
 39 99  1  0
 40100  1  0
 40101  1  0
M  END
>  <PDBID>  (1) 
1OHR

>  <PDB ID>  (1) 
1OHR

>  <Generic Name>  (1) 
Nelfinavir

>  <Brand Name>  (1) 
Viracept#Viracept -250mg#Viracept -50mg

>  <DrugBank ID>  (1) 
DB00220

>  <ATC Codes>  (1) 
J05AE04

>  <Ligand ID>  (1) 
1UN

>  <Target Name>  (1) 
HIV-1 protease

>  <UniProt ID>  (1) 
O90777

>  <PDB ID.1>  (1) 
1OHR

>  <Seq. Identity>  (1) 
93%

$$$$
