PDB_DB09330_00
     RDKit          3D

 94 97  0  0  0  0  0  0  0  0999 V2000
   -8.0822    1.3137    1.8693 C   0  0  0  0  0  0  0  0  0  0  0  0
   -7.1850    2.3103    1.3300 N   0  0  0  0  0  0  0  0  0  0  0  0
   -7.8007    3.5438    0.9856 C   0  0  0  0  0  0  0  0  0  0  0  0
   -5.8953    2.3545    1.8964 C   0  0  0  0  0  0  0  0  0  0  0  0
   -4.9399    1.2456    1.6293 C   0  0  0  0  0  0  0  0  0  0  0  0
   -4.5788    1.1874    0.2269 N   0  0  0  0  0  0  0  0  0  0  0  0
   -5.7410    0.7474   -0.4955 C   0  0  0  0  0  0  0  0  0  0  0  0
   -2.3777    0.6979    0.9558 C   0  0  0  0  0  0  0  0  0  0  0  0
   -0.9425    0.2896    0.4832 C   0  0  0  0  0  0  0  0  0  0  0  0
   -0.8201   -1.0632    0.5959 O   0  0  0  0  0  0  0  0  0  0  0  0
   -0.2769   -1.5930    1.7159 C   0  0  0  0  0  0  0  0  0  0  0  0
   -3.4627    0.2190    0.0508 C   0  0  0  0  0  0  0  0  0  0  0  0
   -3.0609    0.2828   -1.4011 C   0  0  2  0  0  0  0  0  0  0  0  0
   -2.6992   -0.9258   -2.0250 N   0  0  0  0  0  0  0  0  0  0  0  0
   -3.6171   -1.9707   -2.1848 C   0  0  0  0  0  0  0  0  0  0  0  0
   -4.5904   -1.6015   -3.1678 O   0  0  0  0  0  0  0  0  0  0  0  0
   -2.9937   -3.2487   -2.7218 C   0  0  0  0  0  0  0  0  0  0  0  0
   -1.9106   -3.7954   -1.8350 C   0  0  0  0  0  0  0  0  0  0  0  0
   -1.9114    1.2633   -1.6071 C   0  0  0  0  0  0  0  0  0  0  0  0
   -0.6658    0.9073   -0.8194 C   0  0  0  0  0  0  0  0  0  0  0  0
    0.3363    0.3010   -1.6037 N   0  0  0  0  0  0  0  0  0  0  0  0
    1.7004    0.3933   -1.2227 C   0  0  0  0  0  0  0  0  0  0  0  0
    2.1040   -0.0603    0.0453 N   0  0  0  0  0  0  0  0  0  0  0  0
    2.5451   -0.1614   -2.3002 N   0  0  0  0  0  0  0  0  0  0  0  0
    2.5091   -1.5916   -2.2779 C   0  0  0  0  0  0  0  0  0  0  0  0
    2.8209   -2.1084   -0.9113 C   0  0  0  0  0  0  0  0  0  0  0  0
    3.1985   -0.9961    0.0740 C   0  0  0  0  0  0  0  0  0  0  0  0
    4.5290   -0.4190   -0.2235 C   0  0  0  0  0  0  0  0  0  0  0  0
    5.0036    0.6618    0.7208 C   0  0  0  0  0  0  0  0  0  0  0  0
    5.0000    0.2011    2.1368 C   0  0  0  0  0  0  0  0  0  0  0  0
    6.3089    0.4169    2.8539 C   0  0  0  0  0  0  0  0  0  0  0  0
    6.8767    1.7605    2.4607 C   0  0  0  0  0  0  0  0  0  0  0  0
    7.3119    1.6524    1.0124 C   0  0  0  0  0  0  0  0  0  0  0  0
    6.4578    0.7335    0.2229 C   0  0  0  0  0  0  0  0  0  0  0  0
    6.8316   -0.6437    0.2782 N   0  0  0  0  0  0  0  0  0  0  0  0
    7.9846   -0.9747   -0.5275 C   0  0  0  0  0  0  0  0  0  0  0  0
    5.6607   -1.4142   -0.0864 C   0  0  0  0  0  0  0  0  0  0  0  0
   -8.4154    0.5813    1.1351 H   0  0  0  0  0  0  0  0  0  0  0  0
   -8.9850    1.8742    2.2124 H   0  0  0  0  0  0  0  0  0  0  0  0
   -7.6214    0.8971    2.7833 H   0  0  0  0  0  0  0  0  0  0  0  0
   -7.1889    4.4006    1.3422 H   0  0  0  0  0  0  0  0  0  0  0  0
   -7.9575    3.6847   -0.1015 H   0  0  0  0  0  0  0  0  0  0  0  0
   -8.7915    3.5890    1.5166 H   0  0  0  0  0  0  0  0  0  0  0  0
   -6.0230    2.5401    3.0097 H   0  0  0  0  0  0  0  0  0  0  0  0
   -5.4405    3.3561    1.5650 H   0  0  0  0  0  0  0  0  0  0  0  0
   -4.0592    1.4238    2.2878 H   0  0  0  0  0  0  0  0  0  0  0  0
   -5.3284    0.2489    1.9023 H   0  0  0  0  0  0  0  0  0  0  0  0
   -5.5380    0.1859   -1.4285 H   0  0  0  0  0  0  0  0  0  0  0  0
   -6.4050    1.6082   -0.6706 H   0  0  0  0  0  0  0  0  0  0  0  0
   -6.3394    0.0005    0.1132 H   0  0  0  0  0  0  0  0  0  0  0  0
   -2.3904    1.7876    1.0114 H   0  0  0  0  0  0  0  0  0  0  0  0
   -2.4437    0.2775    1.9693 H   0  0  0  0  0  0  0  0  0  0  0  0
   -0.3617    0.7475    1.2981 H   0  0  0  0  0  0  0  0  0  0  0  0
   -0.8746   -1.3757    2.6454 H   0  0  0  0  0  0  0  0  0  0  0  0
   -0.0431   -2.6663    1.5909 H   0  0  0  0  0  0  0  0  0  0  0  0
    0.6937   -1.1139    1.9321 H   0  0  0  0  0  0  0  0  0  0  0  0
   -3.8833   -0.7584    0.2980 H   0  0  0  0  0  0  0  0  0  0  0  0
   -3.8758    0.7376   -2.0396 H   0  0  0  0  0  0  0  0  0  0  0  0
   -1.7092   -1.1532   -1.9828 H   0  0  0  0  0  0  0  0  0  0  0  0
   -4.2089   -2.2576   -1.2941 H   0  0  0  0  0  0  0  0  0  0  0  0
   -4.3012   -0.7565   -3.5825 H   0  0  0  0  0  0  0  0  0  0  0  0
   -2.7187   -3.1529   -3.7791 H   0  0  0  0  0  0  0  0  0  0  0  0
   -3.8368   -4.0009   -2.7014 H   0  0  0  0  0  0  0  0  0  0  0  0
   -2.3142   -4.6115   -1.1993 H   0  0  0  0  0  0  0  0  0  0  0  0
   -1.4145   -3.0215   -1.2279 H   0  0  0  0  0  0  0  0  0  0  0  0
   -1.1903   -4.3226   -2.5277 H   0  0  0  0  0  0  0  0  0  0  0  0
   -1.6561    1.2116   -2.6813 H   0  0  0  0  0  0  0  0  0  0  0  0
   -2.2900    2.2761   -1.4051 H   0  0  0  0  0  0  0  0  0  0  0  0
   -0.2262    1.9861   -0.6469 H   0  0  0  0  0  0  0  0  0  0  0  0
    0.2570    0.4698   -2.6284 H   0  0  0  0  0  0  0  0  0  0  0  0
    1.9881    1.5017   -1.2600 H   0  0  0  0  0  0  0  0  0  0  0  0
    2.1773    0.6453    0.8016 H   0  0  0  0  0  0  0  0  0  0  0  0
    2.1791    0.2559   -3.1764 H   0  0  0  0  0  0  0  0  0  0  0  0
    1.4762   -1.9048   -2.6243 H   0  0  0  0  0  0  0  0  0  0  0  0
    3.1869   -1.9867   -3.0652 H   0  0  0  0  0  0  0  0  0  0  0  0
    1.8881   -2.5452   -0.4841 H   0  0  0  0  0  0  0  0  0  0  0  0
    3.5654   -2.9324   -0.8843 H   0  0  0  0  0  0  0  0  0  0  0  0
    3.1884   -1.4802    1.0746 H   0  0  0  0  0  0  0  0  0  0  0  0
    4.6248    0.0105   -1.2422 H   0  0  0  0  0  0  0  0  0  0  0  0
    4.4943    1.6331    0.5576 H   0  0  0  0  0  0  0  0  0  0  0  0
    4.2155    0.6711    2.7635 H   0  0  0  0  0  0  0  0  0  0  0  0
    4.8012   -0.8908    2.1745 H   0  0  0  0  0  0  0  0  0  0  0  0
    6.1935    0.4335    3.9597 H   0  0  0  0  0  0  0  0  0  0  0  0
    7.0801   -0.3458    2.6236 H   0  0  0  0  0  0  0  0  0  0  0  0
    7.8007    2.0041    3.0305 H   0  0  0  0  0  0  0  0  0  0  0  0
    6.1786    2.5844    2.6212 H   0  0  0  0  0  0  0  0  0  0  0  0
    8.3890    1.3711    0.9341 H   0  0  0  0  0  0  0  0  0  0  0  0
    7.2347    2.6683    0.5853 H   0  0  0  0  0  0  0  0  0  0  0  0
    6.3569    1.0164   -0.8583 H   0  0  0  0  0  0  0  0  0  0  0  0
    8.7279   -0.1627   -0.4459 H   0  0  0  0  0  0  0  0  0  0  0  0
    7.6901   -1.2403   -1.5442 H   0  0  0  0  0  0  0  0  0  0  0  0
    8.4473   -1.8742   -0.0437 H   0  0  0  0  0  0  0  0  0  0  0  0
    5.4893   -2.1480    0.7219 H   0  0  0  0  0  0  0  0  0  0  0  0
    5.8804   -1.8922   -1.0692 H   0  0  0  0  0  0  0  0  0  0  0  0
  1  2  1  0
  2  3  1  0
  2  4  1  0
  4  5  1  0
  5  6  1  0
  6  7  1  0
  8  9  1  0
  9 10  1  0
 10 11  1  0
  6 12  1  0
  8 12  1  0
 12 13  1  0
 13 14  1  0
 14 15  1  0
 15 16  1  0
 15 17  1  0
 17 18  1  0
 13 19  1  0
  9 20  1  0
 19 20  1  0
 20 21  1  0
 21 22  1  0
 22 23  1  0
 22 24  1  0
 24 25  1  0
 25 26  1  0
 23 27  1  0
 26 27  1  0
 27 28  1  0
 28 29  1  0
 29 30  1  0
 30 31  1  0
 31 32  1  0
 32 33  1  0
 29 34  1  0
 33 34  1  0
 34 35  1  0
 35 36  1  0
 28 37  1  0
 35 37  1  0
  1 38  1  0
  1 39  1  0
  1 40  1  0
  3 41  1  0
  3 42  1  0
  3 43  1  0
  4 44  1  0
  4 45  1  0
  5 46  1  0
  5 47  1  0
  7 48  1  0
  7 49  1  0
  7 50  1  0
  8 51  1  0
  8 52  1  0
  9 53  1  0
 11 54  1  0
 11 55  1  0
 11 56  1  0
 12 57  1  0
 13 58  1  6
 14 59  1  0
 15 60  1  0
 16 61  1  0
 17 62  1  0
 17 63  1  0
 18 64  1  0
 18 65  1  0
 18 66  1  0
 19 67  1  0
 19 68  1  0
 20 69  1  0
 21 70  1  0
 22 71  1  0
 23 72  1  0
 24 73  1  0
 25 74  1  0
 25 75  1  0
 26 76  1  0
 26 77  1  0
 27 78  1  0
 28 79  1  0
 29 80  1  0
 30 81  1  0
 30 82  1  0
 31 83  1  0
 31 84  1  0
 32 85  1  0
 32 86  1  0
 33 87  1  0
 33 88  1  0
 34 89  1  0
 36 90  1  0
 36 91  1  0
 36 92  1  0
 37 93  1  0
 37 94  1  0
M  END
>  <PDBID>  (1) 
4ZAU

>  <PDB ID>  (1) 
4ZAU

>  <Generic Name>  (1) 
Osimertinib

>  <Brand Name>  (1) 
Tagrisso

>  <DrugBank ID>  (1) 
DB09330

>  <ATC Codes>  (1) 
nan

>  <Ligand ID>  (1) 
YY3

>  <Target Name>  (1) 
Epidermal growth factor receptor

>  <UniProt ID>  (1) 
P00533

>  <PDB ID.1>  (1) 
4ZAU

>  <Seq. Identity>  (1) 
96%

$$$$
