PDB_DB00834_08
     RDKit          3D

 83 87  0  0  0  0  0  0  0  0999 V2000
   -0.2380    6.2548   -1.6899 O   0  0  0  0  0  0  0  0  0  0  0  0
   -0.7956    5.0263   -1.3210 C   0  0  0  0  0  0  0  0  0  0  0  0
    0.0194    3.9452   -1.9875 C   0  0  0  0  0  0  0  0  0  0  0  0
   -0.7537    4.9322    0.1740 C   0  0  0  0  0  0  0  0  0  0  0  0
   -1.1882    3.5792    0.6622 C   0  0  0  0  0  0  0  0  0  0  0  0
   -2.6432    3.3893    0.5270 C   0  0  0  0  0  0  0  0  0  0  0  0
   -0.3495    2.5338   -0.0512 C   0  0  2  0  0  0  0  0  0  0  0  0
   -0.5324    2.5916   -1.5108 C   0  0  0  0  0  0  0  0  0  0  0  0
   -0.6140    1.2250    0.6169 C   0  0  0  0  0  0  0  0  0  0  0  0
    0.1094    0.0728   -0.0147 C   0  0  1  0  0  0  0  0  0  0  0  0
    1.5896    0.1718   -0.0421 C   0  0  0  0  0  0  0  0  0  0  0  0
    2.3111    0.2843    1.2433 C   0  0  0  0  0  0  0  0  0  0  0  0
    3.6177   -0.4919    1.2854 C   0  0  0  0  0  0  0  0  0  0  0  0
    4.3988   -0.1304    0.0655 C   0  0  0  0  0  0  0  0  0  0  0  0
    5.7712   -0.5640    0.1704 N   0  0  0  0  0  0  0  0  0  0  0  0
    5.8843   -2.0045    0.2754 C   0  0  0  0  0  0  0  0  0  0  0  0
    6.5780   -0.0315   -0.9053 C   0  0  0  0  0  0  0  0  0  0  0  0
    3.6831   -0.6488   -1.1318 C   0  0  0  0  0  0  0  0  0  0  0  0
    2.2251   -0.9558   -0.8386 C   0  0  0  0  0  0  0  0  0  0  0  0
   -0.2730   -1.2667    0.5465 C   0  0  0  0  0  0  0  0  0  0  0  0
   -1.6982   -1.4167    0.9210 C   0  0  2  0  0  0  0  0  0  0  0  0
   -1.8533   -1.2635    2.4206 C   0  0  0  0  0  0  0  0  0  0  0  0
   -2.4103   -2.6410    0.4986 C   0  0  1  0  0  0  0  0  0  0  0  0
   -1.8004   -3.4448   -0.5887 C   0  0  0  0  0  0  0  0  0  0  0  0
   -2.6954   -4.6481   -0.8630 C   0  0  0  0  0  0  0  0  0  0  0  0
   -2.8759   -5.5431    0.3151 C   0  0  0  0  0  0  0  0  0  0  0  0
   -2.6663   -3.4630    1.6218 O   0  0  0  0  0  0  0  0  0  0  0  0
   -3.8003   -2.2091    0.0103 C   0  0  0  0  0  0  0  0  0  0  0  0
   -3.8706   -0.7194    0.3845 C   0  0  0  0  0  0  0  0  0  0  0  0
   -2.4522   -0.3321    0.1889 C   0  0  1  0  0  0  0  0  0  0  0  0
   -2.0538    0.9622    0.8733 C   0  0  2  0  0  0  0  0  0  0  0  0
   -3.0306    1.9681    0.3861 C   0  0  0  0  0  0  0  0  0  0  0  0
   -0.5049    6.9011   -0.9752 H   0  0  0  0  0  0  0  0  0  0  0  0
   -1.8242    4.9866   -1.7289 H   0  0  0  0  0  0  0  0  0  0  0  0
   -0.2152    3.9894   -3.0784 H   0  0  0  0  0  0  0  0  0  0  0  0
    1.0875    3.9961   -1.7873 H   0  0  0  0  0  0  0  0  0  0  0  0
   -1.4194    5.7096    0.5799 H   0  0  0  0  0  0  0  0  0  0  0  0
    0.2800    5.0965    0.4994 H   0  0  0  0  0  0  0  0  0  0  0  0
   -0.9218    3.4946    1.7459 H   0  0  0  0  0  0  0  0  0  0  0  0
   -3.1419    3.9020    1.4020 H   0  0  0  0  0  0  0  0  0  0  0  0
   -3.0570    3.9436   -0.3661 H   0  0  0  0  0  0  0  0  0  0  0  0
    0.7002    2.9038    0.1609 H   0  0  0  0  0  0  0  0  0  0  0  0
    0.0844    1.8420   -2.0311 H   0  0  0  0  0  0  0  0  0  0  0  0
   -1.5381    2.5296   -1.9042 H   0  0  0  0  0  0  0  0  0  0  0  0
   -0.1343    1.3280    1.6417 H   0  0  0  0  0  0  0  0  0  0  0  0
   -0.2337    0.0707   -1.0843 H   0  0  0  0  0  0  0  0  0  0  0  0
    1.8892    1.0756   -0.6549 H   0  0  0  0  0  0  0  0  0  0  0  0
    1.7556   -0.0467    2.1353 H   0  0  0  0  0  0  0  0  0  0  0  0
    2.6787    1.3395    1.4382 H   0  0  0  0  0  0  0  0  0  0  0  0
    4.2027   -0.1409    2.1773 H   0  0  0  0  0  0  0  0  0  0  0  0
    3.4662   -1.5688    1.4337 H   0  0  0  0  0  0  0  0  0  0  0  0
    4.4211    0.9832    0.0022 H   0  0  0  0  0  0  0  0  0  0  0  0
    6.4423   -2.2343    1.2302 H   0  0  0  0  0  0  0  0  0  0  0  0
    4.8880   -2.4799    0.2913 H   0  0  0  0  0  0  0  0  0  0  0  0
    6.5119   -2.3487   -0.5673 H   0  0  0  0  0  0  0  0  0  0  0  0
    6.5524   -0.6656   -1.8125 H   0  0  0  0  0  0  0  0  0  0  0  0
    7.6328    0.0045   -0.5523 H   0  0  0  0  0  0  0  0  0  0  0  0
    6.2706    1.0118   -1.1048 H   0  0  0  0  0  0  0  0  0  0  0  0
    4.1512   -1.6348   -1.4130 H   0  0  0  0  0  0  0  0  0  0  0  0
    3.7676    0.0378   -2.0207 H   0  0  0  0  0  0  0  0  0  0  0  0
    2.2044   -1.9194   -0.3113 H   0  0  0  0  0  0  0  0  0  0  0  0
    1.7616   -1.0320   -1.8644 H   0  0  0  0  0  0  0  0  0  0  0  0
   -0.0858   -2.0225   -0.2728 H   0  0  0  0  0  0  0  0  0  0  0  0
    0.3366   -1.5346    1.4499 H   0  0  0  0  0  0  0  0  0  0  0  0
   -1.0895   -0.6132    2.8720 H   0  0  0  0  0  0  0  0  0  0  0  0
   -2.8604   -1.0131    2.7445 H   0  0  0  0  0  0  0  0  0  0  0  0
   -1.6447   -2.2929    2.8415 H   0  0  0  0  0  0  0  0  0  0  0  0
   -0.8199   -3.9093   -0.3010 H   0  0  0  0  0  0  0  0  0  0  0  0
   -1.7519   -2.8744   -1.5196 H   0  0  0  0  0  0  0  0  0  0  0  0
   -2.2324   -5.2206   -1.7152 H   0  0  0  0  0  0  0  0  0  0  0  0
   -3.6929   -4.3364   -1.2273 H   0  0  0  0  0  0  0  0  0  0  0  0
   -2.0229   -5.6152    0.9917 H   0  0  0  0  0  0  0  0  0  0  0  0
   -3.8432   -5.3076    0.8101 H   0  0  0  0  0  0  0  0  0  0  0  0
   -3.0302   -6.5856   -0.0950 H   0  0  0  0  0  0  0  0  0  0  0  0
   -3.5115   -3.1731    2.0590 H   0  0  0  0  0  0  0  0  0  0  0  0
   -3.8471   -2.2192   -1.1079 H   0  0  0  0  0  0  0  0  0  0  0  0
   -4.6063   -2.7832    0.4600 H   0  0  0  0  0  0  0  0  0  0  0  0
   -4.4807   -0.1667   -0.3802 H   0  0  0  0  0  0  0  0  0  0  0  0
   -4.2911   -0.5538    1.3691 H   0  0  0  0  0  0  0  0  0  0  0  0
   -2.2175   -0.3552   -0.8748 H   0  0  0  0  0  0  0  0  0  0  0  0
   -2.2746    0.7770    1.9691 H   0  0  0  0  0  0  0  0  0  0  0  0
   -3.4072    1.7212   -0.6535 H   0  0  0  0  0  0  0  0  0  0  0  0
   -3.9776    1.8412    0.9983 H   0  0  0  0  0  0  0  0  0  0  0  0
  1  2  1  0
  2  3  1  0
  2  4  1  0
  4  5  1  0
  5  6  1  0
  5  7  1  0
  3  8  1  0
  7  8  1  0
  7  9  1  0
  9 10  1  0
 10 11  1  0
 11 12  1  0
 12 13  1  0
 13 14  1  0
 14 15  1  0
 15 16  1  0
 15 17  1  0
 14 18  1  0
 11 19  1  0
 18 19  1  0
 10 20  1  0
 20 21  1  0
 21 22  1  1
 21 23  1  0
 23 24  1  0
 24 25  1  0
 25 26  1  0
 23 27  1  1
 23 28  1  0
 28 29  1  0
 21 30  1  0
 29 30  1  0
  9 31  1  0
 30 31  1  0
  6 32  1  0
 31 32  1  0
  1 33  1  0
  2 34  1  0
  3 35  1  0
  3 36  1  0
  4 37  1  0
  4 38  1  0
  5 39  1  0
  6 40  1  0
  6 41  1  0
  7 42  1  6
  8 43  1  0
  8 44  1  0
  9 45  1  0
 10 46  1  6
 11 47  1  0
 12 48  1  0
 12 49  1  0
 13 50  1  0
 13 51  1  0
 14 52  1  0
 16 53  1  0
 16 54  1  0
 16 55  1  0
 17 56  1  0
 17 57  1  0
 17 58  1  0
 18 59  1  0
 18 60  1  0
 19 61  1  0
 19 62  1  0
 20 63  1  0
 20 64  1  0
 22 65  1  0
 22 66  1  0
 22 67  1  0
 24 68  1  0
 24 69  1  0
 25 70  1  0
 25 71  1  0
 26 72  1  0
 26 73  1  0
 26 74  1  0
 27 75  1  0
 28 76  1  0
 28 77  1  0
 29 78  1  0
 29 79  1  0
 30 80  1  6
 31 81  1  1
 32 82  1  0
 32 83  1  0
M  END
>  <PDBID>  (1) 
2W8Y

>  <PDB ID>  (1) 
2W8Y

>  <Generic Name>  (1) 
Mifepristone

>  <Brand Name>  (1) 
Korlym#Mifegymiso#Corlux#Mefipil#Mifegyne#Mifeprex

>  <DrugBank ID>  (1) 
DB00834

>  <ATC Codes>  (1) 
G03XB01#G03XB51

>  <Ligand ID>  (1) 
486

>  <Target Name>  (1) 
Progesterone receptor

>  <UniProt ID>  (1) 
P06401

>  <PDB ID.1>  (1) 
2W8Y

>  <Seq. Identity>  (1) 
96%

$$$$
