PDB_DB00491_07
     RDKit          3D

 31 31  0  0  0  0  0  0  0  0999 V2000
    3.7852   -0.6529    1.1203 O   0  0  0  0  0  0  0  0  0  0  0  0
    0.6226    3.2771    0.1015 O   0  0  0  0  0  0  0  0  0  0  0  0
   -0.9208   -2.9099   -1.0096 O   0  0  0  0  0  0  0  0  0  0  0  0
   -3.0907   -1.4483    0.0921 O   0  0  0  0  0  0  0  0  0  0  0  0
   -2.7098    1.2847    0.4715 O   0  0  0  0  0  0  0  0  0  0  0  0
    2.9362   -0.3829    0.0342 C   0  0  0  0  0  0  0  0  0  0  0  0
   -0.2493    2.3496    0.6220 C   0  0  0  0  0  0  0  0  0  0  0  0
    1.5850    0.0452    0.5470 C   0  0  0  0  0  0  0  0  0  0  0  0
    0.2771   -0.8384   -1.2408 C   0  0  0  0  0  0  0  0  0  0  0  0
   -0.7566   -1.6642   -0.4808 C   0  0  1  0  0  0  0  0  0  0  0  0
   -2.0246   -0.8166   -0.4923 C   0  0  2  0  0  0  0  0  0  0  0  0
   -1.6480    0.3967    0.3709 C   0  0  1  0  0  0  0  0  0  0  0  0
   -0.4511    1.1293   -0.2176 C   0  0  2  0  0  0  0  0  0  0  0  0
    0.6609    0.3336   -0.4989 N   0  0  0  0  0  0  0  0  0  0  0  0
    4.1399   -1.5832    1.0631 H   0  0  0  0  0  0  0  0  0  0  0  0
    1.2701    2.9416   -0.5389 H   0  0  0  0  0  0  0  0  0  0  0  0
   -1.7232   -3.0165   -1.5676 H   0  0  0  0  0  0  0  0  0  0  0  0
   -2.9211   -1.5480    1.0602 H   0  0  0  0  0  0  0  0  0  0  0  0
   -2.9190    1.4324    1.4348 H   0  0  0  0  0  0  0  0  0  0  0  0
    3.4454    0.4652   -0.5138 H   0  0  0  0  0  0  0  0  0  0  0  0
    2.9346   -1.2393   -0.6348 H   0  0  0  0  0  0  0  0  0  0  0  0
   -1.2514    2.8562    0.6830 H   0  0  0  0  0  0  0  0  0  0  0  0
   -0.0156    2.0988    1.6902 H   0  0  0  0  0  0  0  0  0  0  0  0
    1.7626    0.9414    1.1698 H   0  0  0  0  0  0  0  0  0  0  0  0
    1.1900   -0.7443    1.1852 H   0  0  0  0  0  0  0  0  0  0  0  0
    1.1013   -1.5212   -1.4651 H   0  0  0  0  0  0  0  0  0  0  0  0
   -0.1620   -0.5179   -2.2122 H   0  0  0  0  0  0  0  0  0  0  0  0
   -0.4704   -1.7445    0.5896 H   0  0  0  0  0  0  0  0  0  0  0  0
   -2.2344   -0.4366   -1.5051 H   0  0  0  0  0  0  0  0  0  0  0  0
   -1.3194   -0.0079    1.3500 H   0  0  0  0  0  0  0  0  0  0  0  0
   -0.8434    1.5206   -1.2079 H   0  0  0  0  0  0  0  0  0  0  0  0
  1  6  1  0
  2  7  1  0
  6  8  1  0
  3 10  1  0
  9 10  1  0
  4 11  1  0
 10 11  1  0
  5 12  1  0
 11 12  1  0
  7 13  1  0
 12 13  1  0
  8 14  1  0
  9 14  1  0
 13 14  1  0
  1 15  1  0
  2 16  1  0
  3 17  1  0
  4 18  1  0
  5 19  1  0
  6 20  1  0
  6 21  1  0
  7 22  1  0
  7 23  1  0
  8 24  1  0
  8 25  1  0
  9 26  1  0
  9 27  1  0
 10 28  1  1
 11 29  1  6
 12 30  1  1
 13 31  1  6
M  END
>  <PDBID>  (1) 
3L4W

>  <PDB ID>  (1) 
3L4W

>  <Generic Name>  (1) 
Miglitol

>  <Brand Name>  (1) 
Glyset#Miglitol#Diaban#Diamig#Diaset#Diastabol#Elitox#Euglitol#Glycet#Laiping#Migbose#Miglit#Mignar#Migtor#Misobit#Plumarol#Seibule

>  <DrugBank ID>  (1) 
DB00491

>  <ATC Codes>  (1) 
A10BF02

>  <Ligand ID>  (1) 
MIG

>  <Target Name>  (1) 
Maltase-glucoamylase, intestinal

>  <UniProt ID>  (1) 
O43451

>  <PDB ID.1>  (1) 
3L4W

>  <Seq. Identity>  (1) 
99%

$$$$
