PDB_DB00147_02
     RDKit          3D

 58 58  0  0  0  0  0  0  0  0999 V2000
    3.1547   -1.3410   -0.4306 O   0  0  0  0  0  0  0  0  0  0  0  0
    2.1992   -0.3420   -0.5707 C   0  0  0  0  0  0  0  0  0  0  0  0
    1.1286   -0.4304    0.4968 C   0  0  0  0  0  0  0  0  0  0  0  0
    0.4633   -1.7771    0.3634 C   0  0  0  0  0  0  0  0  0  0  0  0
   -0.7084   -1.7293   -0.4852 N   0  0  0  0  0  0  0  0  0  0  0  0
   -1.7434   -0.9177    0.0823 C   0  0  0  0  0  0  0  0  0  0  0  0
   -1.2445    0.3623    0.6540 C   0  0  0  0  0  0  0  0  0  0  0  0
    0.1695    0.6992    0.2924 C   0  0  0  0  0  0  0  0  0  0  0  0
    0.5884    1.8934    1.1163 C   0  0  0  0  0  0  0  0  0  0  0  0
    1.8621    2.3314    0.7563 O   0  0  0  0  0  0  0  0  0  0  0  0
   -2.0541    1.4108    0.1982 O   0  0  0  0  0  0  0  0  0  0  0  0
   -2.7787   -0.6396   -1.0106 C   0  0  0  0  0  0  0  0  0  0  0  0
    3.1547   -1.3410   -0.4306 O   0  0  0  0  0  0  0  0  0  0  0  0
    2.1992   -0.3420   -0.5707 C   0  0  0  0  0  0  0  0  0  0  0  0
    1.1286   -0.4304    0.4968 C   0  0  0  0  0  0  0  0  0  0  0  0
    0.4633   -1.7771    0.3634 C   0  0  0  0  0  0  0  0  0  0  0  0
   -0.7084   -1.7293   -0.4852 N   0  0  0  0  0  0  0  0  0  0  0  0
   -1.7434   -0.9177    0.0823 C   0  0  0  0  0  0  0  0  0  0  0  0
   -1.2445    0.3623    0.6540 C   0  0  0  0  0  0  0  0  0  0  0  0
    0.1695    0.6992    0.2924 C   0  0  0  0  0  0  0  0  0  0  0  0
    0.5884    1.8934    1.1163 C   0  0  0  0  0  0  0  0  0  0  0  0
    1.8621    2.3314    0.7563 O   0  0  0  0  0  0  0  0  0  0  0  0
   -2.0541    1.4108    0.1982 O   0  0  0  0  0  0  0  0  0  0  0  0
   -2.7787   -0.6396   -1.0106 C   0  0  0  0  0  0  0  0  0  0  0  0
    4.0399   -0.9061   -0.5215 H   0  0  0  0  0  0  0  0  0  0  0  0
    1.6680   -0.5566   -1.5443 H   0  0  0  0  0  0  0  0  0  0  0  0
    2.6388    0.6523   -0.6720 H   0  0  0  0  0  0  0  0  0  0  0  0
    1.6405   -0.3879    1.4904 H   0  0  0  0  0  0  0  0  0  0  0  0
    1.1427   -2.5323   -0.0436 H   0  0  0  0  0  0  0  0  0  0  0  0
    0.1218   -2.1380    1.3564 H   0  0  0  0  0  0  0  0  0  0  0  0
   -0.4937   -1.4582   -1.4608 H   0  0  0  0  0  0  0  0  0  0  0  0
   -2.2985   -1.4894    0.8654 H   0  0  0  0  0  0  0  0  0  0  0  0
   -1.3262    0.3798    1.7638 H   0  0  0  0  0  0  0  0  0  0  0  0
    0.1935    0.9963   -0.7761 H   0  0  0  0  0  0  0  0  0  0  0  0
   -0.1148    2.7441    0.9463 H   0  0  0  0  0  0  0  0  0  0  0  0
    0.5378    1.6776    2.2027 H   0  0  0  0  0  0  0  0  0  0  0  0
    1.8261    3.1475    0.1737 H   0  0  0  0  0  0  0  0  0  0  0  0
   -1.5651    2.0392   -0.3577 H   0  0  0  0  0  0  0  0  0  0  0  0
   -2.2604   -0.2734   -1.9260 H   0  0  0  0  0  0  0  0  0  0  0  0
   -3.4606    0.1367   -0.5840 H   0  0  0  0  0  0  0  0  0  0  0  0
   -3.3267   -1.5514   -1.2855 H   0  0  0  0  0  0  0  0  0  0  0  0
    4.0399   -0.9061   -0.5215 H   0  0  0  0  0  0  0  0  0  0  0  0
    1.6680   -0.5566   -1.5443 H   0  0  0  0  0  0  0  0  0  0  0  0
    2.6388    0.6523   -0.6720 H   0  0  0  0  0  0  0  0  0  0  0  0
    1.6405   -0.3879    1.4904 H   0  0  0  0  0  0  0  0  0  0  0  0
    1.1427   -2.5323   -0.0436 H   0  0  0  0  0  0  0  0  0  0  0  0
    0.1218   -2.1380    1.3564 H   0  0  0  0  0  0  0  0  0  0  0  0
   -0.4937   -1.4582   -1.4608 H   0  0  0  0  0  0  0  0  0  0  0  0
   -2.2985   -1.4894    0.8654 H   0  0  0  0  0  0  0  0  0  0  0  0
   -1.3262    0.3798    1.7638 H   0  0  0  0  0  0  0  0  0  0  0  0
    0.1935    0.9963   -0.7761 H   0  0  0  0  0  0  0  0  0  0  0  0
   -0.1148    2.7441    0.9463 H   0  0  0  0  0  0  0  0  0  0  0  0
    0.5378    1.6776    2.2027 H   0  0  0  0  0  0  0  0  0  0  0  0
    1.8261    3.1475    0.1737 H   0  0  0  0  0  0  0  0  0  0  0  0
   -1.5651    2.0392   -0.3577 H   0  0  0  0  0  0  0  0  0  0  0  0
   -2.2604   -0.2734   -1.9260 H   0  0  0  0  0  0  0  0  0  0  0  0
   -3.4606    0.1367   -0.5840 H   0  0  0  0  0  0  0  0  0  0  0  0
   -3.3267   -1.5514   -1.2855 H   0  0  0  0  0  0  0  0  0  0  0  0
  1  2  1  0
  2  3  1  0
  3  4  1  0
  4  5  1  0
  5  6  1  0
  6  7  1  0
  3  8  1  0
  7  8  1  0
  8  9  1  0
  9 10  1  0
  7 11  1  0
  6 12  1  0
 13 14  1  0
 14 15  1  0
 15 16  1  0
 16 17  1  0
 17 18  1  0
 18 19  1  0
 15 20  1  0
 19 20  1  0
 20 21  1  0
 21 22  1  0
 19 23  1  0
 18 24  1  0
  1 25  1  0
  2 26  1  0
  2 27  1  0
  3 28  1  0
  4 29  1  0
  4 30  1  0
  5 31  1  0
  6 32  1  0
  7 33  1  0
  8 34  1  0
  9 35  1  0
  9 36  1  0
 10 37  1  0
 11 38  1  0
 12 39  1  0
 12 40  1  0
 12 41  1  0
 13 42  1  0
 14 43  1  0
 14 44  1  0
 15 45  1  0
 16 46  1  0
 16 47  1  0
 17 48  1  0
 18 49  1  0
 19 50  1  0
 20 51  1  0
 21 52  1  0
 21 53  1  0
 22 54  1  0
 23 55  1  0
 24 56  1  0
 24 57  1  0
 24 58  1  0
M  END
>  <PDBID>  (1) 
3FHX

>  <PDB ID>  (1) 
3FHX

>  <Generic Name>  (1) 
Pyridoxal

>  <Brand Name>  (1) 
nan

>  <DrugBank ID>  (1) 
DB00147

>  <ATC Codes>  (1) 
nan

>  <Ligand ID>  (1) 
PXL

>  <Target Name>  (1) 
Pyridoxal kinase

>  <UniProt ID>  (1) 
O00764

>  <PDB ID.1>  (1) 
3FHX

>  <Seq. Identity>  (1) 
100%

$$$$
