PDB_DB00619_00
     RDKit          3D

 94 98  0  0  0  0  0  0  0  0999 V2000
   -8.8780    0.6899    0.0914 C   0  0  0  0  0  0  0  0  0  0  0  0
   -8.6534   -0.6948    0.5793 C   0  0  0  0  0  0  0  0  0  0  0  0
   -7.3106   -0.7979    1.2490 C   0  0  0  0  0  0  0  0  0  0  0  0
   -7.4162    0.1327    2.4651 C   0  0  0  0  0  0  0  0  0  0  0  0
   -7.8838    1.4397    2.1449 N   0  0  0  0  0  0  0  0  0  0  0  0
   -9.0696    1.5312    1.3636 C   0  0  0  0  0  0  0  0  0  0  0  0
   -6.1560   -0.4419    0.3864 C   0  0  0  0  0  0  0  0  0  0  0  0
   -6.1486   -1.1122   -0.9424 C   0  0  0  0  0  0  0  0  0  0  0  0
   -5.5218   -0.1504   -1.9690 C   0  0  0  0  0  0  0  0  0  0  0  0
   -4.2851    0.3671   -1.4699 N   0  0  0  0  0  0  0  0  0  0  0  0
   -4.4068    0.9900   -0.2111 C   0  0  0  0  0  0  0  0  0  0  0  0
   -5.8218    0.9434    0.2596 N   0  0  0  0  0  0  0  0  0  0  0  0
   -3.5679    0.4250    0.7894 N   0  0  0  0  0  0  0  0  0  0  0  0
   -2.3392   -0.1279    0.4314 C   0  0  0  0  0  0  0  0  0  0  0  0
   -2.4105   -1.4220   -0.2962 C   0  0  0  0  0  0  0  0  0  0  0  0
   -1.0432   -1.8242   -0.8599 C   0  0  0  0  0  0  0  0  0  0  0  0
   -0.0193   -1.7785    0.2467 C   0  0  0  0  0  0  0  0  0  0  0  0
    0.0317   -0.2960    0.6515 C   0  0  1  0  0  0  0  0  0  0  0  0
   -1.2059   -0.0598    1.4575 C   0  0  0  0  0  0  0  0  0  0  0  0
    1.2967    0.0097    1.0699 N   0  0  0  0  0  0  0  0  0  0  0  0
    2.0461    0.9908    0.3825 C   0  0  0  0  0  0  0  0  0  0  0  0
    2.2902    0.8852   -1.0514 C   0  0  0  0  0  0  0  0  0  0  0  0
    3.1234    2.0940   -1.4800 C   0  0  0  0  0  0  0  0  0  0  0  0
    4.5890    1.8926   -1.4340 C   0  0  0  0  0  0  0  0  0  0  0  0
    5.0755    0.5776   -2.0197 C   0  0  0  0  0  0  0  0  0  0  0  0
    4.3862   -0.5047   -1.2629 C   0  0  0  0  0  0  0  0  0  0  0  0
    2.8905   -0.3172   -1.6443 C   0  0  0  0  0  0  0  0  0  0  0  0
    6.5348    0.5172   -1.9953 C   0  0  0  0  0  0  0  0  0  0  0  0
    7.1176    0.6140   -0.6967 N   0  0  0  0  0  0  0  0  0  0  0  0
    8.5441    0.9601   -0.9596 C   0  0  0  0  0  0  0  0  0  0  0  0
    9.1619    1.0457    0.4410 C   0  0  0  0  0  0  0  0  0  0  0  0
    9.4530   -0.3297    0.7845 N   0  0  0  0  0  0  0  0  0  0  0  0
    9.8468   -0.4036    2.1595 C   0  0  0  0  0  0  0  0  0  0  0  0
    8.4292   -1.2200    0.3791 C   0  0  0  0  0  0  0  0  0  0  0  0
    7.0927   -0.6189    0.0709 C   0  0  0  0  0  0  0  0  0  0  0  0
    1.5298    2.2529    0.6914 O   0  0  0  0  0  0  0  0  0  0  0  0
   -2.8172   -2.5687    0.6166 C   0  0  0  0  0  0  0  0  0  0  0  0
   -8.0556    1.1508   -0.4593 H   0  0  0  0  0  0  0  0  0  0  0  0
   -9.8349    0.6897   -0.4833 H   0  0  0  0  0  0  0  0  0  0  0  0
   -8.8324   -1.5009   -0.1571 H   0  0  0  0  0  0  0  0  0  0  0  0
   -9.4111   -0.8850    1.3975 H   0  0  0  0  0  0  0  0  0  0  0  0
   -7.2048   -1.8155    1.6534 H   0  0  0  0  0  0  0  0  0  0  0  0
   -6.4535    0.2302    2.9861 H   0  0  0  0  0  0  0  0  0  0  0  0
   -8.1088   -0.3620    3.1812 H   0  0  0  0  0  0  0  0  0  0  0  0
   -8.0434    1.9546    3.0321 H   0  0  0  0  0  0  0  0  0  0  0  0
   -9.9155    1.0147    1.8946 H   0  0  0  0  0  0  0  0  0  0  0  0
   -9.2799    2.5720    1.1202 H   0  0  0  0  0  0  0  0  0  0  0  0
   -5.2426   -0.8857    0.9280 H   0  0  0  0  0  0  0  0  0  0  0  0
   -7.1513   -1.3479   -1.3420 H   0  0  0  0  0  0  0  0  0  0  0  0
   -5.5705   -2.0448   -0.9791 H   0  0  0  0  0  0  0  0  0  0  0  0
   -5.3770   -0.7287   -2.8981 H   0  0  0  0  0  0  0  0  0  0  0  0
   -6.2501    0.6710   -2.0941 H   0  0  0  0  0  0  0  0  0  0  0  0
   -3.8809    1.0146   -2.1611 H   0  0  0  0  0  0  0  0  0  0  0  0
   -4.1520    2.0973   -0.2655 H   0  0  0  0  0  0  0  0  0  0  0  0
   -5.7442    1.4288    1.1999 H   0  0  0  0  0  0  0  0  0  0  0  0
   -3.6653    0.8626    1.7234 H   0  0  0  0  0  0  0  0  0  0  0  0
   -1.9210    0.6024   -0.3936 H   0  0  0  0  0  0  0  0  0  0  0  0
   -3.0739   -1.4010   -1.1389 H   0  0  0  0  0  0  0  0  0  0  0  0
   -0.7523   -1.0765   -1.6083 H   0  0  0  0  0  0  0  0  0  0  0  0
   -1.0975   -2.8549   -1.2367 H   0  0  0  0  0  0  0  0  0  0  0  0
    0.9434   -2.0871   -0.0754 H   0  0  0  0  0  0  0  0  0  0  0  0
   -0.3969   -2.3142    1.1588 H   0  0  0  0  0  0  0  0  0  0  0  0
   -0.1622    0.3181   -0.3021 H   0  0  0  0  0  0  0  0  0  0  0  0
   -1.3898   -0.8690    2.1873 H   0  0  0  0  0  0  0  0  0  0  0  0
   -1.2606    0.9512    1.9098 H   0  0  0  0  0  0  0  0  0  0  0  0
    1.7014   -0.3143    1.9276 H   0  0  0  0  0  0  0  0  0  0  0  0
    3.0699    0.9957    0.8866 H   0  0  0  0  0  0  0  0  0  0  0  0
    1.3205    1.0583   -1.6522 H   0  0  0  0  0  0  0  0  0  0  0  0
    2.7785    2.5084   -2.4537 H   0  0  0  0  0  0  0  0  0  0  0  0
    2.8817    2.9118   -0.7429 H   0  0  0  0  0  0  0  0  0  0  0  0
    5.0342    2.0486   -0.4567 H   0  0  0  0  0  0  0  0  0  0  0  0
    5.0357    2.6771   -2.1012 H   0  0  0  0  0  0  0  0  0  0  0  0
    4.6848    0.5100   -3.0836 H   0  0  0  0  0  0  0  0  0  0  0  0
    4.5964   -1.5398   -1.6340 H   0  0  0  0  0  0  0  0  0  0  0  0
    4.4813   -0.4588   -0.1805 H   0  0  0  0  0  0  0  0  0  0  0  0
    2.9508   -0.1088   -2.7687 H   0  0  0  0  0  0  0  0  0  0  0  0
    2.3775   -1.2632   -1.5869 H   0  0  0  0  0  0  0  0  0  0  0  0
    6.8943   -0.4839   -2.4114 H   0  0  0  0  0  0  0  0  0  0  0  0
    6.9822    1.2487   -2.7196 H   0  0  0  0  0  0  0  0  0  0  0  0
    9.0001    0.1722   -1.5698 H   0  0  0  0  0  0  0  0  0  0  0  0
    8.6061    1.9307   -1.4709 H   0  0  0  0  0  0  0  0  0  0  0  0
   10.0548    1.6632    0.3862 H   0  0  0  0  0  0  0  0  0  0  0  0
    8.3689    1.4690    1.0991 H   0  0  0  0  0  0  0  0  0  0  0  0
   10.8691    0.0662    2.2180 H   0  0  0  0  0  0  0  0  0  0  0  0
    9.9547   -1.4676    2.4713 H   0  0  0  0  0  0  0  0  0  0  0  0
    9.1217    0.1653    2.7726 H   0  0  0  0  0  0  0  0  0  0  0  0
    8.7354   -1.9223   -0.4313 H   0  0  0  0  0  0  0  0  0  0  0  0
    8.2420   -1.9153    1.2582 H   0  0  0  0  0  0  0  0  0  0  0  0
    6.5709   -1.3827   -0.5587 H   0  0  0  0  0  0  0  0  0  0  0  0
    6.4811   -0.4669    0.9837 H   0  0  0  0  0  0  0  0  0  0  0  0
    0.7364    2.5065    0.1939 H   0  0  0  0  0  0  0  0  0  0  0  0
   -2.1916   -3.4443    0.3601 H   0  0  0  0  0  0  0  0  0  0  0  0
   -2.6867   -2.3299    1.6935 H   0  0  0  0  0  0  0  0  0  0  0  0
   -3.8517   -2.8615    0.3747 H   0  0  0  0  0  0  0  0  0  0  0  0
  1  2  1  0
  2  3  1  0
  3  4  1  0
  4  5  1  0
  1  6  1  0
  5  6  1  0
  3  7  1  0
  7  8  1  0
  8  9  1  0
  9 10  1  0
 10 11  1  0
  7 12  1  0
 11 12  1  0
 11 13  1  0
 13 14  1  0
 14 15  1  0
 15 16  1  0
 16 17  1  0
 17 18  1  0
 14 19  1  0
 18 19  1  0
 18 20  1  0
 20 21  1  0
 21 22  1  0
 22 23  1  0
 23 24  1  0
 24 25  1  0
 25 26  1  0
 22 27  1  0
 26 27  1  0
 25 28  1  0
 28 29  1  0
 29 30  1  0
 30 31  1  0
 31 32  1  0
 32 33  1  0
 32 34  1  0
 29 35  1  0
 34 35  1  0
 21 36  1  0
 15 37  1  0
  1 38  1  0
  1 39  1  0
  2 40  1  0
  2 41  1  0
  3 42  1  0
  4 43  1  0
  4 44  1  0
  5 45  1  0
  6 46  1  0
  6 47  1  0
  7 48  1  0
  8 49  1  0
  8 50  1  0
  9 51  1  0
  9 52  1  0
 10 53  1  0
 11 54  1  0
 12 55  1  0
 13 56  1  0
 14 57  1  0
 15 58  1  0
 16 59  1  0
 16 60  1  0
 17 61  1  0
 17 62  1  0
 18 63  1  6
 19 64  1  0
 19 65  1  0
 20 66  1  0
 21 67  1  0
 22 68  1  0
 23 69  1  0
 23 70  1  0
 24 71  1  0
 24 72  1  0
 25 73  1  0
 26 74  1  0
 26 75  1  0
 27 76  1  0
 27 77  1  0
 28 78  1  0
 28 79  1  0
 30 80  1  0
 30 81  1  0
 31 82  1  0
 31 83  1  0
 33 84  1  0
 33 85  1  0
 33 86  1  0
 34 87  1  0
 34 88  1  0
 35 89  1  0
 35 90  1  0
 36 91  1  0
 37 92  1  0
 37 93  1  0
 37 94  1  0
M  END
>  <PDBID>  (1) 
1T46

>  <PDB ID>  (1) 
1T46

>  <Generic Name>  (1) 
Imatinib

>  <Brand Name>  (1) 
Apo-imatinib#Gleevec#Imatinib Mesylate#Mylan-imatinib#Nat-imatinib#PMS-imatinib#Ran-imatinib#Teva-imatinib#Celonib#Enliven#Glivec#Imatib#Mesylonib#Mitinab#Plivatinib#Shantinib

>  <DrugBank ID>  (1) 
DB00619

>  <ATC Codes>  (1) 
L01XE01

>  <Ligand ID>  (1) 
STI

>  <Target Name>  (1) 
Mast/stem cell growth factor receptor Kit

>  <UniProt ID>  (1) 
P10721

>  <PDB ID.1>  (1) 
1T46

>  <Seq. Identity>  (1) 
90%

$$$$
