PDB_DB00513_03
     RDKit          3D

 25 24  0  0  0  0  0  0  0  0999 V2000
    2.8969    0.8444   -0.3144 C   0  0  0  0  0  0  0  0  0  0  0  0
    3.8200   -0.1396    0.0311 O   0  0  0  0  0  0  0  0  0  0  0  0
    3.3688    2.0899    0.0974 O   0  0  0  0  0  0  0  0  0  0  0  0
    1.5484    0.5296    0.3005 C   0  0  0  0  0  0  0  0  0  0  0  0
    1.0698   -0.7952   -0.2050 C   0  0  0  0  0  0  0  0  0  0  0  0
   -0.2652   -1.2215    0.3395 C   0  0  0  0  0  0  0  0  0  0  0  0
   -1.3321   -0.2342   -0.0173 C   0  0  0  0  0  0  0  0  0  0  0  0
   -2.6937   -0.6282    0.5097 C   0  0  0  0  0  0  0  0  0  0  0  0
   -3.7097    0.3329    0.1574 N   0  0  0  0  0  0  0  0  0  0  0  0
    1.6579    0.4635    1.3940 H   0  0  0  0  0  0  0  0  0  0  0  0
    0.7986    1.2913    0.0843 H   0  0  0  0  0  0  0  0  0  0  0  0
    0.9583   -0.8027   -1.3291 H   0  0  0  0  0  0  0  0  0  0  0  0
    1.8703   -1.5350   -0.0034 H   0  0  0  0  0  0  0  0  0  0  0  0
   -0.5161   -2.1829   -0.2003 H   0  0  0  0  0  0  0  0  0  0  0  0
   -0.2424   -1.4701    1.4062 H   0  0  0  0  0  0  0  0  0  0  0  0
   -1.1260    0.7679    0.4461 H   0  0  0  0  0  0  0  0  0  0  0  0
   -1.4311   -0.1155   -1.1065 H   0  0  0  0  0  0  0  0  0  0  0  0
   -2.6935   -0.7329    1.6281 H   0  0  0  0  0  0  0  0  0  0  0  0
   -3.0282   -1.6161    0.1277 H   0  0  0  0  0  0  0  0  0  0  0  0
   -4.1507    0.1244   -0.7580 H   0  0  0  0  0  0  0  0  0  0  0  0
   -4.4587    0.2966    0.8867 H   0  0  0  0  0  0  0  0  0  0  0  0
   -3.3605    1.3161    0.1499 H   0  0  0  0  0  0  0  0  0  0  0  0
    2.7922    0.8509   -1.4235 H   0  0  0  0  0  0  0  0  0  0  0  0
    4.2486    0.1536    0.8761 H   0  0  0  0  0  0  0  0  0  0  0  0
    3.9784    2.4128   -0.6179 H   0  0  0  0  0  0  0  0  0  0  0  0
  1  2  1  0
  1  3  1  0
  1  4  1  0
  4  5  1  0
  5  6  1  0
  6  7  1  0
  7  8  1  0
  8  9  1  0
  4 10  1  0
  4 11  1  0
  5 12  1  0
  5 13  1  0
  6 14  1  0
  6 15  1  0
  7 16  1  0
  7 17  1  0
  8 18  1  0
  8 19  1  0
  9 20  1  0
  9 21  1  0
 22  9  1  0
  1 23  1  0
  2 24  1  0
  3 25  1  0
M  CHG  1   9   1
M  END
>  <PDBID>  (1) 
1HPK

>  <PDB ID>  (1) 
1HPK

>  <Generic Name>  (1) 
Aminocaproic Acid

>  <Brand Name>  (1) 
Amicar#Aminocaproic Acid#Exoden White Tooth#Acepramin#Amocap#Caproamin#Caprocat#Caprolisin#E-Capro#Epsicaprom#Hemocid#Inselon#Ipron#Ipsilon#Kai Nai Yin#Minocap#Plaslloid#Resplamin

>  <DrugBank ID>  (1) 
DB00513

>  <ATC Codes>  (1) 
B02AA01

>  <Ligand ID>  (1) 
ACA

>  <Target Name>  (1) 
Plasminogen

>  <UniProt ID>  (1) 
P00747

>  <PDB ID.1>  (1) 
1HPK

>  <Seq. Identity>  (1) 
100%

$$$$
