PDB_DB01601_00
     RDKit          3D

118121  0  0  0  0  0  0  0  0999 V2000
   -6.2208   -3.6727   -2.1121 C   0  0  0  0  0  0  0  0  0  0  0  0
   -5.8929   -1.2442   -2.6396 C   0  0  0  0  0  0  0  0  0  0  0  0
   -4.9091   -1.2232   -1.6230 N   0  0  0  0  0  0  0  0  0  0  0  0
   -5.0197   -2.2689   -0.7127 C   0  0  0  0  0  0  0  0  0  0  0  0
   -4.9933   -3.6005   -1.3430 N   0  0  0  0  0  0  0  0  0  0  0  0
    1.3143    4.0009    0.2351 C   0  0  0  0  0  0  0  0  0  0  0  0
    2.7196    4.2794    0.7163 C   0  0  0  0  0  0  0  0  0  0  0  0
    3.4964    5.1482   -0.2577 C   0  0  0  0  0  0  0  0  0  0  0  0
    2.7998    6.5219   -0.1733 C   0  0  0  0  0  0  0  0  0  0  0  0
    1.4548    6.3283   -0.8031 C   0  0  0  0  0  0  0  0  0  0  0  0
    0.6221    5.2226   -0.2957 C   0  0  0  0  0  0  0  0  0  0  0  0
   -6.3273   -2.2451   -0.1113 O   0  0  0  0  0  0  0  0  0  0  0  0
   -3.7521   -0.4861   -1.7272 C   0  0  2  0  0  0  0  0  0  0  0  0
   -3.4718    0.2301   -0.3737 C   0  0  0  0  0  0  0  0  0  0  0  0
   -2.8008   -0.5582    0.5621 N   0  0  0  0  0  0  0  0  0  0  0  0
   -1.6704    0.0459    1.2956 C   0  0  1  0  0  0  0  0  0  0  0  0
   -3.6250    0.5565   -2.7821 C   0  0  0  0  0  0  0  0  0  0  0  0
   -4.6244    1.6721   -2.7199 C   0  0  0  0  0  0  0  0  0  0  0  0
   -3.5008   -0.0284   -4.1877 C   0  0  0  0  0  0  0  0  0  0  0  0
   -4.5757    0.9673    0.0351 O   0  0  0  0  0  0  0  0  0  0  0  0
   -4.1821   -0.2126    4.8393 C   0  0  0  0  0  0  0  0  0  0  0  0
   -3.4627   -0.6017    6.0909 C   0  0  0  0  0  0  0  0  0  0  0  0
   -2.2502   -1.4074    5.7335 C   0  0  0  0  0  0  0  0  0  0  0  0
   -2.3452   -2.0780    4.3627 C   0  0  0  0  0  0  0  0  0  0  0  0
   -2.5885   -1.1120    3.2481 C   0  0  0  0  0  0  0  0  0  0  0  0
   -3.1047    0.1749    3.8050 C   0  0  0  0  0  0  0  0  0  0  0  0
   -1.3476   -0.9497    2.3830 C   0  0  0  0  0  0  0  0  0  0  0  0
   -0.6129    0.4374    0.4077 C   0  0  0  0  0  0  0  0  0  0  0  0
    0.6507    1.0110    1.0518 C   0  0  1  0  0  0  0  0  0  0  0  0
    1.5528    1.4681   -0.1129 C   0  0  1  0  0  0  0  0  0  0  0  0
    1.6411    0.3789   -0.9906 N   0  0  0  0  0  0  0  0  0  0  0  0
    2.7394   -0.5009   -1.0231 C   0  0  0  0  0  0  0  0  0  0  0  0
    3.2195   -1.1702    0.1959 C   0  0  0  0  0  0  0  0  0  0  0  0
    4.2367   -2.0632    0.0298 O   0  0  0  0  0  0  0  0  0  0  0  0
    5.3264   -1.7437   -0.6977 C   0  0  0  0  0  0  0  0  0  0  0  0
    0.4267    1.9179    1.9634 O   0  0  0  0  0  0  0  0  0  0  0  0
    1.1935    2.7983   -0.6519 C   0  0  0  0  0  0  0  0  0  0  0  0
    2.4034   -1.4697   -2.0258 O   0  0  0  0  0  0  0  0  0  0  0  0
    6.5743   -1.5437    0.1906 C   0  0  0  0  0  0  0  0  0  0  0  0
    7.7233   -1.3292   -0.8150 C   0  0  0  0  0  0  0  0  0  0  0  0
    8.1140   -2.6106   -1.4911 C   0  0  0  0  0  0  0  0  0  0  0  0
    6.9744   -3.5667   -1.3092 C   0  0  0  0  0  0  0  0  0  0  0  0
    5.6159   -2.9406   -1.6016 C   0  0  0  0  0  0  0  0  0  0  0  0
    4.6226   -4.0856   -1.3393 C   0  0  0  0  0  0  0  0  0  0  0  0
    6.4453   -0.1741    0.8732 C   0  0  0  0  0  0  0  0  0  0  0  0
   -6.0968   -2.6408   -3.2226 C   0  0  0  0  0  0  0  0  0  0  0  0
   -7.0959   -3.3865   -1.4784 H   0  0  0  0  0  0  0  0  0  0  0  0
   -6.3494   -4.6604   -2.5954 H   0  0  0  0  0  0  0  0  0  0  0  0
   -6.8880   -1.0099   -2.1514 H   0  0  0  0  0  0  0  0  0  0  0  0
   -5.7946   -0.5659   -3.4741 H   0  0  0  0  0  0  0  0  0  0  0  0
   -4.3489   -2.3069    0.1268 H   0  0  0  0  0  0  0  0  0  0  0  0
   -4.1700   -3.6698   -1.9779 H   0  0  0  0  0  0  0  0  0  0  0  0
    0.7490    3.7661    1.1928 H   0  0  0  0  0  0  0  0  0  0  0  0
    2.6428    4.8809    1.6438 H   0  0  0  0  0  0  0  0  0  0  0  0
    3.2784    3.3738    0.9034 H   0  0  0  0  0  0  0  0  0  0  0  0
    3.3855    4.8082   -1.2952 H   0  0  0  0  0  0  0  0  0  0  0  0
    4.5204    5.2369    0.1163 H   0  0  0  0  0  0  0  0  0  0  0  0
    2.6336    6.8127    0.9012 H   0  0  0  0  0  0  0  0  0  0  0  0
    3.3466    7.2886   -0.7171 H   0  0  0  0  0  0  0  0  0  0  0  0
    0.8886    7.3006   -0.6330 H   0  0  0  0  0  0  0  0  0  0  0  0
    1.5322    6.2872   -1.9219 H   0  0  0  0  0  0  0  0  0  0  0  0
   -0.1050    4.9565   -1.0945 H   0  0  0  0  0  0  0  0  0  0  0  0
   -0.0106    5.6512    0.5465 H   0  0  0  0  0  0  0  0  0  0  0  0
   -6.2662   -2.9590    0.5738 H   0  0  0  0  0  0  0  0  0  0  0  0
   -2.8617   -1.1806   -1.8930 H   0  0  0  0  0  0  0  0  0  0  0  0
   -2.7359    1.0871   -0.6438 H   0  0  0  0  0  0  0  0  0  0  0  0
   -2.3049   -1.3372   -0.0113 H   0  0  0  0  0  0  0  0  0  0  0  0
   -2.1817    0.9565    1.7779 H   0  0  0  0  0  0  0  0  0  0  0  0
   -2.6185    1.0460   -2.6140 H   0  0  0  0  0  0  0  0  0  0  0  0
   -4.1919    2.5898   -2.2112 H   0  0  0  0  0  0  0  0  0  0  0  0
   -4.8822    2.0803   -3.7459 H   0  0  0  0  0  0  0  0  0  0  0  0
   -5.5415    1.4337   -2.1285 H   0  0  0  0  0  0  0  0  0  0  0  0
   -3.5911   -1.1328   -4.1993 H   0  0  0  0  0  0  0  0  0  0  0  0
   -2.4854    0.1784   -4.6382 H   0  0  0  0  0  0  0  0  0  0  0  0
   -4.1981    0.4890   -4.8907 H   0  0  0  0  0  0  0  0  0  0  0  0
   -5.3509    0.3630   -0.0024 H   0  0  0  0  0  0  0  0  0  0  0  0
   -4.7854   -1.0328    4.3825 H   0  0  0  0  0  0  0  0  0  0  0  0
   -4.8436    0.6829    4.9921 H   0  0  0  0  0  0  0  0  0  0  0  0
   -4.1935   -1.1754    6.7093 H   0  0  0  0  0  0  0  0  0  0  0  0
   -3.1868    0.3503    6.6056 H   0  0  0  0  0  0  0  0  0  0  0  0
   -1.3329   -0.8099    5.7669 H   0  0  0  0  0  0  0  0  0  0  0  0
   -2.1910   -2.2344    6.4776 H   0  0  0  0  0  0  0  0  0  0  0  0
   -1.3902   -2.6157    4.2270 H   0  0  0  0  0  0  0  0  0  0  0  0
   -3.1242   -2.8778    4.4130 H   0  0  0  0  0  0  0  0  0  0  0  0
   -3.3905   -1.5256    2.5722 H   0  0  0  0  0  0  0  0  0  0  0  0
   -2.3266    0.7960    4.3014 H   0  0  0  0  0  0  0  0  0  0  0  0
   -3.6541    0.8167    3.0933 H   0  0  0  0  0  0  0  0  0  0  0  0
   -1.1338   -1.9092    1.8815 H   0  0  0  0  0  0  0  0  0  0  0  0
   -0.5192   -0.6871    3.0317 H   0  0  0  0  0  0  0  0  0  0  0  0
   -0.3313   -0.4399   -0.2427 H   0  0  0  0  0  0  0  0  0  0  0  0
   -0.9703    1.1896   -0.3622 H   0  0  0  0  0  0  0  0  0  0  0  0
    1.1457    0.1013    1.4998 H   0  0  0  0  0  0  0  0  0  0  0  0
    2.5559    1.6358    0.4306 H   0  0  0  0  0  0  0  0  0  0  0  0
    1.2719    0.5335   -1.9458 H   0  0  0  0  0  0  0  0  0  0  0  0
    3.5892    0.1113   -1.4957 H   0  0  0  0  0  0  0  0  0  0  0  0
    3.5044   -0.3530    0.9313 H   0  0  0  0  0  0  0  0  0  0  0  0
    2.3712   -1.7536    0.6527 H   0  0  0  0  0  0  0  0  0  0  0  0
    5.3016   -0.7716   -1.2488 H   0  0  0  0  0  0  0  0  0  0  0  0
   -0.5135    2.0468    2.2684 H   0  0  0  0  0  0  0  0  0  0  0  0
    0.1309    2.8335   -1.0390 H   0  0  0  0  0  0  0  0  0  0  0  0
    1.8235    3.0408   -1.5808 H   0  0  0  0  0  0  0  0  0  0  0  0
    2.9238   -1.2977   -2.8385 H   0  0  0  0  0  0  0  0  0  0  0  0
    6.7424   -2.3388    0.8905 H   0  0  0  0  0  0  0  0  0  0  0  0
    7.2762   -0.6338   -1.5850 H   0  0  0  0  0  0  0  0  0  0  0  0
    8.5409   -0.8187   -0.3096 H   0  0  0  0  0  0  0  0  0  0  0  0
    8.3798   -2.5140   -2.5546 H   0  0  0  0  0  0  0  0  0  0  0  0
    8.9756   -3.0280   -0.9366 H   0  0  0  0  0  0  0  0  0  0  0  0
    7.0855   -4.3963   -2.0249 H   0  0  0  0  0  0  0  0  0  0  0  0
    6.9807   -4.0280   -0.2856 H   0  0  0  0  0  0  0  0  0  0  0  0
    5.5384   -2.7178   -2.6662 H   0  0  0  0  0  0  0  0  0  0  0  0
    5.0974   -5.0445   -1.6141 H   0  0  0  0  0  0  0  0  0  0  0  0
    3.6499   -3.9221   -1.7934 H   0  0  0  0  0  0  0  0  0  0  0  0
    4.4961   -4.1254   -0.2266 H   0  0  0  0  0  0  0  0  0  0  0  0
    7.4878    0.1388    1.1251 H   0  0  0  0  0  0  0  0  0  0  0  0
    5.8312   -0.2012    1.7660 H   0  0  0  0  0  0  0  0  0  0  0  0
    6.0687    0.5395    0.0910 H   0  0  0  0  0  0  0  0  0  0  0  0
   -5.3195   -2.9368   -3.9334 H   0  0  0  0  0  0  0  0  0  0  0  0
   -7.0591   -2.6374   -3.7678 H   0  0  0  0  0  0  0  0  0  0  0  0
  2  3  1  0
  3  4  1  0
  1  5  1  0
  4  5  1  0
  6  7  1  0
  7  8  1  0
  8  9  1  0
  9 10  1  0
  6 11  1  0
 10 11  1  0
  4 12  1  0
  3 13  1  0
 13 14  1  0
 14 15  1  0
 15 16  1  0
 13 17  1  0
 17 18  1  0
 17 19  1  0
 14 20  1  0
 21 22  1  0
 22 23  1  0
 23 24  1  0
 24 25  1  0
 21 26  1  0
 25 26  1  0
 16 27  1  0
 25 27  1  0
 16 28  1  0
 28 29  1  0
 29 30  1  0
 30 31  1  0
 31 32  1  0
 32 33  1  0
 33 34  1  0
 34 35  1  0
 29 36  1  0
  6 37  1  0
 30 37  1  0
 32 38  1  0
 35 39  1  0
 39 40  1  0
 40 41  1  0
 41 42  1  0
 35 43  1  0
 42 43  1  0
 43 44  1  0
 39 45  1  0
  1 46  1  0
  2 46  1  0
  1 47  1  0
  1 48  1  0
  2 49  1  0
  2 50  1  0
  4 51  1  0
  5 52  1  0
  6 53  1  0
  7 54  1  0
  7 55  1  0
  8 56  1  0
  8 57  1  0
  9 58  1  0
  9 59  1  0
 10 60  1  0
 10 61  1  0
 11 62  1  0
 11 63  1  0
 12 64  1  0
 13 65  1  6
 14 66  1  0
 15 67  1  0
 16 68  1  1
 17 69  1  0
 18 70  1  0
 18 71  1  0
 18 72  1  0
 19 73  1  0
 19 74  1  0
 19 75  1  0
 20 76  1  0
 21 77  1  0
 21 78  1  0
 22 79  1  0
 22 80  1  0
 23 81  1  0
 23 82  1  0
 24 83  1  0
 24 84  1  0
 25 85  1  0
 26 86  1  0
 26 87  1  0
 27 88  1  0
 27 89  1  0
 28 90  1  0
 28 91  1  0
 29 92  1  1
 30 93  1  1
 31 94  1  0
 32 95  1  0
 33 96  1  0
 33 97  1  0
 35 98  1  0
 36 99  1  0
 37100  1  0
 37101  1  0
 38102  1  0
 39103  1  0
 40104  1  0
 40105  1  0
 41106  1  0
 41107  1  0
 42108  1  0
 42109  1  0
 43110  1  0
 44111  1  0
 44112  1  0
 44113  1  0
 45114  1  0
 45115  1  0
 45116  1  0
 46117  1  0
 46118  1  0
M  END
>  <PDBID>  (1) 
1MUI

>  <PDB ID>  (1) 
1MUI

>  <Generic Name>  (1) 
Lopinavir

>  <Brand Name>  (1) 
Kaletra#Lopinavir-ritonavir#Aluviran#Koletra

>  <DrugBank ID>  (1) 
DB01601

>  <ATC Codes>  (1) 
J05AR10

>  <Ligand ID>  (1) 
AB1

>  <Target Name>  (1) 
Pol polyprotein

>  <UniProt ID>  (1) 
Q72874

>  <PDB ID.1>  (1) 
1MUI

>  <Seq. Identity>  (1) 
99%

$$$$
