PDB_DB00323_09
     RDKit          3D

 47 48  0  0  0  0  0  0  0  0999 V2000
    0.1225   -0.8500    1.9561 O   0  0  0  0  0  0  0  0  0  0  0  0
    0.2988   -1.0709    0.5752 C   0  0  1  0  0  0  0  0  0  0  0  0
   -0.9585   -0.7881   -0.1587 C   0  0  1  0  0  0  0  0  0  0  0  0
   -2.0153   -1.7350    0.3968 C   0  0  0  0  0  0  0  0  0  0  0  0
   -2.9827   -1.0442    1.3121 C   0  0  0  0  0  0  0  0  0  0  0  0
   -2.4435   -0.6504    2.5130 O   0  0  0  0  0  0  0  0  0  0  0  0
   -1.3842    0.6310   -0.1971 C   0  0  0  0  0  0  0  0  0  0  0  0
   -2.8523    0.8904   -0.2717 C   0  0  0  0  0  0  0  0  0  0  0  0
   -3.3292    0.8525   -1.6530 N   0  0  0  0  0  0  0  0  0  0  0  0
   -3.1236   -0.3150   -2.2573 O   0  0  0  0  0  0  0  0  0  0  0  0
   -4.6500    1.1380   -1.7178 O   0  0  0  0  0  0  0  0  0  0  0  0
   -3.6977    0.1019    0.6658 C   0  0  0  0  0  0  0  0  0  0  0  0
   -4.2482    0.8806    1.6917 O   0  0  0  0  0  0  0  0  0  0  0  0
    1.5375   -0.4206    0.1546 C   0  0  0  0  0  0  0  0  0  0  0  0
    1.9042   -0.5355   -1.2896 C   0  0  0  0  0  0  0  0  0  0  0  0
    3.4049   -0.2960   -1.3799 C   0  0  0  0  0  0  0  0  0  0  0  0
    3.8726    0.9354   -0.7187 C   0  0  0  0  0  0  0  0  0  0  0  0
    5.3501    0.7249   -0.3509 C   0  0  0  0  0  0  0  0  0  0  0  0
    3.1765    1.3197    0.5445 C   0  0  0  0  0  0  0  0  0  0  0  0
    1.6947    1.0353    0.5316 C   0  0  0  0  0  0  0  0  0  0  0  0
   -2.5752   -2.2616   -0.4008 H   0  0  0  0  0  0  0  0  0  0  0  0
   -2.4997    0.3223    2.6752 H   0  0  0  0  0  0  0  0  0  0  0  0
   -0.9514    1.1638   -1.0970 H   0  0  0  0  0  0  0  0  0  0  0  0
   -4.5631    0.3242    2.4264 H   0  0  0  0  0  0  0  0  0  0  0  0
    1.4426    0.2674   -1.9199 H   0  0  0  0  0  0  0  0  0  0  0  0
    3.6171   -0.2000   -2.4847 H   0  0  0  0  0  0  0  0  0  0  0  0
    5.3213    0.1300    0.6009 H   0  0  0  0  0  0  0  0  0  0  0  0
    5.8388    0.0774   -1.0935 H   0  0  0  0  0  0  0  0  0  0  0  0
    5.8602    1.6619   -0.1359 H   0  0  0  0  0  0  0  0  0  0  0  0
    3.6076    0.7650    1.4100 H   0  0  0  0  0  0  0  0  0  0  0  0
    1.1997    1.7002   -0.2220 H   0  0  0  0  0  0  0  0  0  0  0  0
    0.7216   -1.4444    2.4892 H   0  0  0  0  0  0  0  0  0  0  0  0
    0.4495   -2.1948    0.5134 H   0  0  0  0  0  0  0  0  0  0  0  0
   -0.8045   -1.1369   -1.2235 H   0  0  0  0  0  0  0  0  0  0  0  0
   -1.5470   -2.5621    1.0046 H   0  0  0  0  0  0  0  0  0  0  0  0
   -3.7722   -1.8134    1.5544 H   0  0  0  0  0  0  0  0  0  0  0  0
   -0.9506    1.1611    0.6830 H   0  0  0  0  0  0  0  0  0  0  0  0
   -2.9846    1.9765    0.0240 H   0  0  0  0  0  0  0  0  0  0  0  0
   -3.8287   -0.9756   -2.1733 H   0  0  0  0  0  0  0  0  0  0  0  0
   -5.1660    0.2948   -1.8517 H   0  0  0  0  0  0  0  0  0  0  0  0
   -4.5820   -0.2734    0.0801 H   0  0  0  0  0  0  0  0  0  0  0  0
    2.3786   -0.9437    0.7128 H   0  0  0  0  0  0  0  0  0  0  0  0
    1.6762   -1.4989   -1.7424 H   0  0  0  0  0  0  0  0  0  0  0  0
    3.9346   -1.2296   -1.0769 H   0  0  0  0  0  0  0  0  0  0  0  0
    3.8733    1.8283   -1.3955 H   0  0  0  0  0  0  0  0  0  0  0  0
    3.3255    2.3961    0.7545 H   0  0  0  0  0  0  0  0  0  0  0  0
    1.3017    1.1907    1.5418 H   0  0  0  0  0  0  0  0  0  0  0  0
  1  2  1  0
  2  3  1  0
  3  4  1  0
  4  5  1  0
  5  6  1  0
  3  7  1  0
  7  8  1  0
  8  9  1  0
  9 10  1  0
  9 11  1  0
  5 12  1  0
  8 12  1  0
 12 13  1  0
  2 14  1  0
 14 15  1  0
 15 16  1  0
 16 17  1  0
 17 18  1  0
 17 19  1  0
 14 20  1  0
 19 20  1  0
  4 21  1  0
  6 22  1  0
  7 23  1  0
 24 13  1  0
 15 25  1  0
 16 26  1  0
 18 27  1  0
 18 28  1  0
 18 29  1  0
 19 30  1  0
 20 31  1  0
  1 32  1  0
  2 33  1  1
  3 34  1  6
  4 35  1  0
  5 36  1  0
  7 37  1  0
  8 38  1  0
 10 39  1  0
 11 40  1  0
 12 41  1  0
 14 42  1  0
 15 43  1  0
 16 44  1  0
 17 45  1  0
 19 46  1  0
 20 47  1  0
M  END
>  <PDBID>  (1) 
3S68

>  <PDB ID>  (1) 
3S68

>  <Generic Name>  (1) 
Tolcapone

>  <Brand Name>  (1) 
Tasmar#Tolcapone#Sen De Ning

>  <DrugBank ID>  (1) 
DB00323

>  <ATC Codes>  (1) 
N04BX01

>  <Ligand ID>  (1) 
TCW

>  <Target Name>  (1) 
Catechol O-methyltransferase

>  <UniProt ID>  (1) 
P21964

>  <PDB ID.1>  (1) 
3S68

>  <Seq. Identity>  (1) 
81%

$$$$
