PDB_DB00685_00
     RDKit          3D

124132  0  0  0  0  0  0  0  0999 V2000
   -3.8644   -1.2269    0.5701 C   0  0  0  0  0  0  0  0  0  0  0  0
   -4.2265   -2.1707   -0.5121 C   0  0  0  0  0  0  0  0  0  0  0  0
   -3.3562   -3.4077   -0.5573 C   0  0  0  0  0  0  0  0  0  0  0  0
   -3.7574   -4.1749   -1.6044 F   0  0  0  0  0  0  0  0  0  0  0  0
   -1.9234   -2.8805   -0.7325 C   0  0  0  0  0  0  0  0  0  0  0  0
   -1.5930   -2.2200    0.5829 C   0  0  0  0  0  0  0  0  0  0  0  0
   -2.0309   -3.1071    1.5789 F   0  0  0  0  0  0  0  0  0  0  0  0
   -2.4353   -0.9547    0.8075 C   0  0  0  0  0  0  0  0  0  0  0  0
   -1.8829    0.1895    0.2208 N   0  0  0  0  0  0  0  0  0  0  0  0
   -0.5726    0.5212    0.6124 C   0  0  0  0  0  0  0  0  0  0  0  0
    0.4525   -0.1185   -0.1888 N   0  0  0  0  0  0  0  0  0  0  0  0
    1.7146    0.1434    0.5200 C   0  0  0  0  0  0  0  0  0  0  0  0
    2.6680   -0.8177    0.1938 N   0  0  0  0  0  0  0  0  0  0  0  0
    3.0814   -0.9746   -1.1316 C   0  0  0  0  0  0  0  0  0  0  0  0
    4.5453   -1.3837   -1.0752 C   0  0  1  0  0  0  0  0  0  0  0  0
    5.5037   -0.3689   -0.5749 C   0  0  0  0  0  0  0  0  0  0  0  0
    6.9090   -0.4402   -0.8923 N   0  0  0  0  0  0  0  0  0  0  0  0
    4.9559   -1.4275    0.3286 C   0  0  1  0  0  0  0  0  0  0  0  0
    3.7076   -1.0845    1.1150 C   0  0  0  0  0  0  0  0  0  0  0  0
    2.0548    1.5720    0.2706 C   0  0  0  0  0  0  0  0  0  0  0  0
    1.0121    2.4371    0.9486 C   0  0  0  0  0  0  0  0  0  0  0  0
   -0.3870    2.0186    0.6688 C   0  0  0  0  0  0  0  0  0  0  0  0
   -0.9090    2.6922   -0.5829 C   0  0  0  0  0  0  0  0  0  0  0  0
   -2.2392    2.2006   -1.0162 C   0  0  0  0  0  0  0  0  0  0  0  0
   -2.3403    0.6685   -1.0080 C   0  0  0  0  0  0  0  0  0  0  0  0
   -3.3892    2.7199   -0.1739 C   0  0  0  0  0  0  0  0  0  0  0  0
   -3.4386    4.1111   -0.2259 O   0  0  0  0  0  0  0  0  0  0  0  0
   -4.5805    2.2463   -0.7407 O   0  0  0  0  0  0  0  0  0  0  0  0
   -1.0199    4.0523   -0.2887 O   0  0  0  0  0  0  0  0  0  0  0  0
    2.0204    1.9140   -1.0686 F   0  0  0  0  0  0  0  0  0  0  0  0
   -4.4260   -0.2686    0.3760 H   0  0  0  0  0  0  0  0  0  0  0  0
   -4.2603   -1.7650   -1.5286 H   0  0  0  0  0  0  0  0  0  0  0  0
   -1.8851   -2.1045   -1.5247 H   0  0  0  0  0  0  0  0  0  0  0  0
    2.5193   -1.7907   -1.6340 H   0  0  0  0  0  0  0  0  0  0  0  0
    3.0354   -0.0811   -1.7760 H   0  0  0  0  0  0  0  0  0  0  0  0
    4.8523   -2.2224   -1.7227 H   0  0  0  0  0  0  0  0  0  0  0  0
    5.1338    0.6554   -0.4080 H   0  0  0  0  0  0  0  0  0  0  0  0
    7.4250   -1.1040   -0.2758 H   0  0  0  0  0  0  0  0  0  0  0  0
    7.0828   -0.5809   -1.9133 H   0  0  0  0  0  0  0  0  0  0  0  0
    5.6668   -2.1707    0.7146 H   0  0  0  0  0  0  0  0  0  0  0  0
    3.4431   -2.0266    1.6783 H   0  0  0  0  0  0  0  0  0  0  0  0
    3.8902   -0.3035    1.8611 H   0  0  0  0  0  0  0  0  0  0  0  0
    1.1454    3.4637    0.4953 H   0  0  0  0  0  0  0  0  0  0  0  0
   -1.6886    0.3225   -1.8429 H   0  0  0  0  0  0  0  0  0  0  0  0
   -3.9190   -1.1856    0.5470 C   0  0  0  0  0  0  0  0  0  0  0  0
   -4.2997   -2.1241   -0.5287 C   0  0  0  0  0  0  0  0  0  0  0  0
   -3.4534   -3.3791   -0.5847 C   0  0  0  0  0  0  0  0  0  0  0  0
   -3.8749   -4.1580   -1.6184 F   0  0  0  0  0  0  0  0  0  0  0  0
   -2.0154   -2.8738   -0.7865 C   0  0  0  0  0  0  0  0  0  0  0  0
   -1.6564   -2.2447    0.5402 C   0  0  0  0  0  0  0  0  0  0  0  0
   -2.0176   -3.1649    1.5139 F   0  0  0  0  0  0  0  0  0  0  0  0
   -2.4862   -0.9920    0.8239 C   0  0  0  0  0  0  0  0  0  0  0  0
   -1.9053    0.1926    0.3040 N   0  0  0  0  0  0  0  0  0  0  0  0
   -0.5939    0.4889    0.7032 C   0  0  0  0  0  0  0  0  0  0  0  0
    0.4168   -0.0767   -0.1711 N   0  0  0  0  0  0  0  0  0  0  0  0
    1.6868    0.1050    0.5293 C   0  0  0  0  0  0  0  0  0  0  0  0
    2.6530   -0.8551    0.1881 N   0  0  0  0  0  0  0  0  0  0  0  0
    3.1117   -0.9475   -1.1342 C   0  0  0  0  0  0  0  0  0  0  0  0
    4.5501   -1.4778   -1.0581 C   0  0  1  0  0  0  0  0  0  0  0  0
    5.5479   -0.4747   -0.6160 C   0  0  0  0  0  0  0  0  0  0  0  0
    6.9555   -0.6561   -0.9190 N   0  0  0  0  0  0  0  0  0  0  0  0
    4.9548   -1.4247    0.3488 C   0  0  1  0  0  0  0  0  0  0  0  0
    3.7031   -1.0745    1.1162 C   0  0  0  0  0  0  0  0  0  0  0  0
    2.0637    1.5336    0.3526 C   0  0  0  0  0  0  0  0  0  0  0  0
    1.0304    2.3822    1.0687 C   0  0  0  0  0  0  0  0  0  0  0  0
   -0.3753    1.9834    0.7845 C   0  0  0  0  0  0  0  0  0  0  0  0
   -0.9031    2.6952   -0.4396 C   0  0  0  0  0  0  0  0  0  0  0  0
   -2.2068    2.1914   -0.9286 C   0  0  0  0  0  0  0  0  0  0  0  0
   -2.2787    0.6564   -0.9590 C   0  0  0  0  0  0  0  0  0  0  0  0
   -3.3958    2.6584   -0.1198 C   0  0  0  0  0  0  0  0  0  0  0  0
   -3.3388    2.2720    1.1997 O   0  0  0  0  0  0  0  0  0  0  0  0
   -3.6137    4.0339   -0.2603 O   0  0  0  0  0  0  0  0  0  0  0  0
   -1.0598    4.0410   -0.0859 O   0  0  0  0  0  0  0  0  0  0  0  0
    2.0293    1.9360   -0.9792 F   0  0  0  0  0  0  0  0  0  0  0  0
   -4.4062   -0.1917    0.3116 H   0  0  0  0  0  0  0  0  0  0  0  0
   -4.3213   -1.7154   -1.5511 H   0  0  0  0  0  0  0  0  0  0  0  0
   -1.9877   -2.1692   -1.6332 H   0  0  0  0  0  0  0  0  0  0  0  0
    3.1837   -0.0052   -1.7086 H   0  0  0  0  0  0  0  0  0  0  0  0
    2.5348   -1.7379   -1.6773 H   0  0  0  0  0  0  0  0  0  0  0  0
    4.8263   -2.3457   -1.6692 H   0  0  0  0  0  0  0  0  0  0  0  0
    5.2714    0.5923   -0.5091 H   0  0  0  0  0  0  0  0  0  0  0  0
    7.5143    0.1584   -0.6078 H   0  0  0  0  0  0  0  0  0  0  0  0
    7.0481   -0.8361   -1.9324 H   0  0  0  0  0  0  0  0  0  0  0  0
    5.6025   -2.1825    0.8196 H   0  0  0  0  0  0  0  0  0  0  0  0
    3.4331   -1.9655    1.7511 H   0  0  0  0  0  0  0  0  0  0  0  0
    3.9058   -0.2496    1.8138 H   0  0  0  0  0  0  0  0  0  0  0  0
    1.1705    3.4262    0.6587 H   0  0  0  0  0  0  0  0  0  0  0  0
   -1.5954    0.3348   -1.7706 H   0  0  0  0  0  0  0  0  0  0  0  0
   -4.3613   -1.6091    1.5145 H   0  0  0  0  0  0  0  0  0  0  0  0
   -5.2730   -2.5499   -0.3123 H   0  0  0  0  0  0  0  0  0  0  0  0
   -3.4309   -3.8917    0.4269 H   0  0  0  0  0  0  0  0  0  0  0  0
   -1.2332   -3.7125   -0.8714 H   0  0  0  0  0  0  0  0  0  0  0  0
   -0.5349   -2.0594    0.7589 H   0  0  0  0  0  0  0  0  0  0  0  0
   -2.3138   -0.7920    1.9277 H   0  0  0  0  0  0  0  0  0  0  0  0
   -0.4142    0.1467    1.6635 H   0  0  0  0  0  0  0  0  0  0  0  0
    0.5578    0.3485   -1.1075 H   0  0  0  0  0  0  0  0  0  0  0  0
    1.4696    0.0513    1.6188 H   0  0  0  0  0  0  0  0  0  0  0  0
    3.0358    1.8592    0.7347 H   0  0  0  0  0  0  0  0  0  0  0  0
    1.2534    2.5396    2.0172 H   0  0  0  0  0  0  0  0  0  0  0  0
   -1.0254    2.3875    1.5024 H   0  0  0  0  0  0  0  0  0  0  0  0
   -0.1965    2.6087   -1.4329 H   0  0  0  0  0  0  0  0  0  0  0  0
   -2.4224    2.5425   -2.0536 H   0  0  0  0  0  0  0  0  0  0  0  0
   -3.3760    0.4368   -1.2145 H   0  0  0  0  0  0  0  0  0  0  0  0
   -3.3570    2.3322    0.8621 H   0  0  0  0  0  0  0  0  0  0  0  0
   -3.7248    4.4886    0.6394 H   0  0  0  0  0  0  0  0  0  0  0  0
   -1.2666    4.1205    0.6771 H   0  0  0  0  0  0  0  0  0  0  0  0
   -4.4780   -1.5084    1.4790 H   0  0  0  0  0  0  0  0  0  0  0  0
   -5.3550   -2.4905   -0.3449 H   0  0  0  0  0  0  0  0  0  0  0  0
   -3.5451   -3.8591    0.4131 H   0  0  0  0  0  0  0  0  0  0  0  0
   -1.3420   -3.7239   -0.9351 H   0  0  0  0  0  0  0  0  0  0  0  0
   -0.5882   -2.0626    0.6585 H   0  0  0  0  0  0  0  0  0  0  0  0
   -2.3766   -0.8832    1.9515 H   0  0  0  0  0  0  0  0  0  0  0  0
   -0.4147    0.0939    1.7306 H   0  0  0  0  0  0  0  0  0  0  0  0
    0.4847    0.3879   -1.0805 H   0  0  0  0  0  0  0  0  0  0  0  0
    1.4722   -0.0266    1.6328 H   0  0  0  0  0  0  0  0  0  0  0  0
    3.0452    1.7882    0.8161 H   0  0  0  0  0  0  0  0  0  0  0  0
    1.2637    2.4780    2.1518 H   0  0  0  0  0  0  0  0  0  0  0  0
   -1.0064    2.3391    1.6399 H   0  0  0  0  0  0  0  0  0  0  0  0
   -0.1652    2.6889   -1.2837 H   0  0  0  0  0  0  0  0  0  0  0  0
   -2.3612    2.5207   -1.9758 H   0  0  0  0  0  0  0  0  0  0  0  0
   -3.2906    0.4262   -1.2705 H   0  0  0  0  0  0  0  0  0  0  0  0
   -4.2878    2.1618   -0.5689 H   0  0  0  0  0  0  0  0  0  0  0  0
   -3.3818    4.3613   -1.1504 H   0  0  0  0  0  0  0  0  0  0  0  0
   -1.1624    4.1342    0.9048 H   0  0  0  0  0  0  0  0  0  0  0  0
  1  2  1  0
  2  3  1  0
  3  4  1  0
  3  5  1  0
  5  6  1  0
  6  7  1  0
  1  8  1  0
  6  8  1  0
  8  9  1  0
  9 10  1  0
 10 11  1  0
 11 12  1  0
 12 13  1  0
 13 14  1  0
 14 15  1  0
 15 16  1  0
 16 17  1  0
 15 18  1  0
 16 18  1  0
 13 19  1  0
 18 19  1  0
 12 20  1  0
 20 21  1  0
 10 22  1  0
 21 22  1  0
 22 23  1  0
 23 24  1  0
  9 25  1  0
 24 25  1  0
 24 26  1  0
 26 27  1  0
 26 28  1  0
 23 29  1  0
 20 30  1  0
  1 31  1  0
  2 32  1  0
  5 33  1  0
 14 34  1  0
 14 35  1  0
 15 36  1  6
 16 37  1  0
 17 38  1  0
 17 39  1  0
 18 40  1  1
 19 41  1  0
 19 42  1  0
 21 43  1  0
 25 44  1  0
 45 46  1  0
 46 47  1  0
 47 48  1  0
 47 49  1  0
 49 50  1  0
 50 51  1  0
 45 52  1  0
 50 52  1  0
 52 53  1  0
 53 54  1  0
 54 55  1  0
 55 56  1  0
 56 57  1  0
 57 58  1  0
 58 59  1  0
 59 60  1  0
 60 61  1  0
 59 62  1  0
 60 62  1  0
 57 63  1  0
 62 63  1  0
 56 64  1  0
 64 65  1  0
 54 66  1  0
 65 66  1  0
 66 67  1  0
 67 68  1  0
 53 69  1  0
 68 69  1  0
 68 70  1  0
 70 71  1  0
 70 72  1  0
 67 73  1  0
 64 74  1  0
 45 75  1  0
 46 76  1  0
 49 77  1  0
 58 78  1  0
 58 79  1  0
 59 80  1  6
 60 81  1  0
 61 82  1  0
 61 83  1  0
 62 84  1  1
 63 85  1  0
 63 86  1  0
 65 87  1  0
 69 88  1  0
  1 89  1  0
  2 90  1  0
  3 91  1  0
  5 92  1  0
  6 93  1  0
  8 94  1  0
 10 95  1  0
 11 96  1  0
 12 97  1  0
 20 98  1  0
 21 99  1  0
 22100  1  0
 23101  1  0
 24102  1  0
 25103  1  0
 26104  1  0
 27105  1  0
 29106  1  0
 45107  1  0
 46108  1  0
 47109  1  0
 49110  1  0
 50111  1  0
 52112  1  0
 54113  1  0
 55114  1  0
 56115  1  0
 64116  1  0
 65117  1  0
 66118  1  0
 67119  1  0
 68120  1  0
 69121  1  0
 70122  1  0
 72123  1  0
 73124  1  0
M  CHG  2  28  -1  71  -1
M  END
>  <PDBID>  (1) 
4Z2E

>  <PDB ID>  (1) 
4Z2E

>  <Generic Name>  (1) 
Trovafloxacin

>  <Brand Name>  (1) 
Trovan I.V.#Trovan Tablets 100mg#Trovan Tablets 200mg#Trovan

>  <DrugBank ID>  (1) 
DB00685

>  <ATC Codes>  (1) 
J01MA13

>  <Ligand ID>  (1) 
TR6

>  <Target Name>  (1) 
DNA gyrase subunit A

>  <UniProt ID>  (1) 
P43700

>  <PDB ID.1>  (1) 
4Z2E

>  <Seq. Identity>  (1) 
50%

$$$$
