PDB_DB01026_05
     RDKit          3D

164172  0  0  0  0  0  0  0  0999 V2000
   -4.1142    2.6503   -0.2559 C   0  0  0  0  0  0  0  0  0  0  0  0
   -3.4780    2.2598    0.9308 N   0  0  0  0  0  0  0  0  0  0  0  0
   -2.1599   -0.3442    0.9825 O   0  0  0  0  0  0  0  0  0  0  0  0
   -7.2878   -2.1396   -2.8576 Cl  0  0  0  0  0  0  0  0  0  0  0  0
   -4.7633    4.1360    1.3118 C   0  0  0  0  0  0  0  0  0  0  0  0
   -5.3221    3.3196    0.2622 N   0  0  0  0  0  0  0  0  0  0  0  0
   -3.7041   -1.0499    2.4072 O   0  0  0  0  0  0  0  0  0  0  0  0
   -6.7129    0.3109   -0.3638 Cl  0  0  0  0  0  0  0  0  0  0  0  0
   -3.4437    3.4811    1.7098 C   0  0  0  0  0  0  0  0  0  0  0  0
    4.2791    0.4100   -1.2890 N   0  0  0  0  0  0  0  0  0  0  0  0
    0.6011   -1.1571    1.2553 O   0  0  0  0  0  0  0  0  0  0  0  0
   -3.8260    1.1194    1.6661 C   0  0  0  0  0  0  0  0  0  0  0  0
    6.7456    1.7044   -0.7974 N   0  0  0  0  0  0  0  0  0  0  0  0
    6.7815    0.3638    1.1334 O   0  0  0  0  0  0  0  0  0  0  0  0
   -3.5323   -0.2411    1.2045 C   0  0  1  0  0  0  0  0  0  0  0  0
   -1.7607   -1.5876    1.3827 C   0  0  2  0  0  0  0  0  0  0  0  0
   -2.8132   -2.0731    2.3245 C   0  0  0  0  0  0  0  0  0  0  0  0
   -4.2973   -0.9546    0.1860 C   0  0  0  0  0  0  0  0  0  0  0  0
   -5.7863   -0.9782    0.3308 C   0  0  0  0  0  0  0  0  0  0  0  0
   -6.2477   -2.2482   -0.4170 C   0  0  0  0  0  0  0  0  0  0  0  0
   -5.8346   -2.2572   -1.8391 C   0  0  0  0  0  0  0  0  0  0  0  0
   -4.9065   -1.1422   -2.2354 C   0  0  0  0  0  0  0  0  0  0  0  0
   -3.8017   -0.9151   -1.2324 C   0  0  0  0  0  0  0  0  0  0  0  0
   -0.4052   -1.6096    2.0428 C   0  0  0  0  0  0  0  0  0  0  0  0
    0.8567   -1.7979    0.0857 C   0  0  0  0  0  0  0  0  0  0  0  0
    0.7397   -0.8497   -1.0867 C   0  0  0  0  0  0  0  0  0  0  0  0
    1.8522    0.1646   -1.0953 C   0  0  0  0  0  0  0  0  0  0  0  0
    3.1950   -0.5416   -1.1528 C   0  0  0  0  0  0  0  0  0  0  0  0
    3.3117   -1.3459    0.1016 C   0  0  0  0  0  0  0  0  0  0  0  0
    2.2403   -2.4176    0.1411 C   0  0  0  0  0  0  0  0  0  0  0  0
    4.4061    1.2962   -0.1706 C   0  0  0  0  0  0  0  0  0  0  0  0
    5.4936    2.2897   -0.3770 C   0  0  0  0  0  0  0  0  0  0  0  0
    6.5739    0.7194   -1.8376 C   0  0  0  0  0  0  0  0  0  0  0  0
    5.5143   -0.3030   -1.4703 C   0  0  0  0  0  0  0  0  0  0  0  0
    7.5182    1.2157    0.3237 C   0  0  0  0  0  0  0  0  0  0  0  0
    8.7694    0.5230   -0.1640 C   0  0  0  0  0  0  0  0  0  0  0  0
   -4.1469    2.6190   -0.5039 C   0  0  0  0  0  0  0  0  0  0  0  0
   -3.6440    2.3460    0.7707 N   0  0  0  0  0  0  0  0  0  0  0  0
   -2.3166   -0.2011    1.1762 O   0  0  0  0  0  0  0  0  0  0  0  0
   -7.3527   -1.4016   -2.7501 Cl  0  0  0  0  0  0  0  0  0  0  0  0
   -4.8795    4.3025    0.8012 C   0  0  0  0  0  0  0  0  0  0  0  0
   -5.3808    3.3570   -0.1883 N   0  0  0  0  0  0  0  0  0  0  0  0
   -3.9528   -0.8116    2.5391 O   0  0  0  0  0  0  0  0  0  0  0  0
   -6.7361    0.2804   -0.4975 Cl  0  0  0  0  0  0  0  0  0  0  0  0
   -3.6493    3.6412    1.4242 C   0  0  0  0  0  0  0  0  0  0  0  0
    4.1885    0.0089   -1.2756 N   0  0  0  0  0  0  0  0  0  0  0  0
    0.4421   -1.0312    1.6336 O   0  0  0  0  0  0  0  0  0  0  0  0
   -4.0510    1.2807    1.5816 C   0  0  0  0  0  0  0  0  0  0  0  0
    6.8796    0.6080   -0.2982 N   0  0  0  0  0  0  0  0  0  0  0  0
    9.0239   -0.1443   -0.1251 O   0  0  0  0  0  0  0  0  0  0  0  0
   -3.7066   -0.1135    1.2810 C   0  0  1  0  0  0  0  0  0  0  0  0
   -1.9559   -1.4335    1.6644 C   0  0  2  0  0  0  0  0  0  0  0  0
   -3.0517   -1.8263    2.6087 C   0  0  0  0  0  0  0  0  0  0  0  0
   -4.3640   -0.9374    0.2773 C   0  0  0  0  0  0  0  0  0  0  0  0
   -5.8657   -0.9978    0.2857 C   0  0  0  0  0  0  0  0  0  0  0  0
   -6.2035   -2.2713   -0.5202 C   0  0  0  0  0  0  0  0  0  0  0  0
   -5.8794   -2.0546   -1.9732 C   0  0  0  0  0  0  0  0  0  0  0  0
   -4.7865   -1.0544   -2.2060 C   0  0  0  0  0  0  0  0  0  0  0  0
   -3.7716   -0.9893   -1.1013 C   0  0  0  0  0  0  0  0  0  0  0  0
   -0.6304   -1.4174    2.3823 C   0  0  0  0  0  0  0  0  0  0  0  0
    0.7536   -1.7896    0.5416 C   0  0  0  0  0  0  0  0  0  0  0  0
    0.6271   -0.9619   -0.7145 C   0  0  0  0  0  0  0  0  0  0  0  0
    1.7925   -0.0254   -0.9054 C   0  0  0  0  0  0  0  0  0  0  0  0
    3.0939   -0.8060   -0.8810 C   0  0  0  0  0  0  0  0  0  0  0  0
    3.2033   -1.3597    0.5344 C   0  0  0  0  0  0  0  0  0  0  0  0
    2.1287   -2.4218    0.6474 C   0  0  0  0  0  0  0  0  0  0  0  0
    4.4997    1.1267   -0.4696 C   0  0  0  0  0  0  0  0  0  0  0  0
    5.9223    1.5678   -0.7589 C   0  0  0  0  0  0  0  0  0  0  0  0
    6.5156   -0.6928   -0.7649 C   0  0  0  0  0  0  0  0  0  0  0  0
    5.3231   -0.7263   -1.6789 C   0  0  0  0  0  0  0  0  0  0  0  0
    8.2326    0.8984   -0.6383 C   0  0  2  0  0  0  0  0  0  0  0  0
    8.7488    2.1810   -0.0347 C   0  0  0  0  0  0  0  0  0  0  0  0
   -3.4760    3.4484   -0.7366 H   0  0  0  0  0  0  0  0  0  0  0  0
   -4.3792    1.8769   -0.9837 H   0  0  0  0  0  0  0  0  0  0  0  0
   -4.6348    5.1503    0.9193 H   0  0  0  0  0  0  0  0  0  0  0  0
   -5.4937    4.0992    2.1630 H   0  0  0  0  0  0  0  0  0  0  0  0
   -5.8217    3.8508   -0.4766 H   0  0  0  0  0  0  0  0  0  0  0  0
   -2.5743    4.0860    1.4429 H   0  0  0  0  0  0  0  0  0  0  0  0
   -3.4751    3.1857    2.7825 H   0  0  0  0  0  0  0  0  0  0  0  0
   -4.8845    1.2097    2.0895 H   0  0  0  0  0  0  0  0  0  0  0  0
   -3.2419    1.2270    2.6596 H   0  0  0  0  0  0  0  0  0  0  0  0
    7.4103   -0.2678    1.5637 H   0  0  0  0  0  0  0  0  0  0  0  0
   -1.7480   -2.2721    0.5126 H   0  0  0  0  0  0  0  0  0  0  0  0
   -3.2350   -3.0501    1.9980 H   0  0  0  0  0  0  0  0  0  0  0  0
   -2.3166   -2.2525    3.3296 H   0  0  0  0  0  0  0  0  0  0  0  0
   -4.0576   -2.0812    0.4465 H   0  0  0  0  0  0  0  0  0  0  0  0
   -5.9981   -1.1690    1.4088 H   0  0  0  0  0  0  0  0  0  0  0  0
   -5.8451   -3.1027    0.1493 H   0  0  0  0  0  0  0  0  0  0  0  0
   -7.3690   -2.3262   -0.3068 H   0  0  0  0  0  0  0  0  0  0  0  0
   -5.3686   -3.2473   -2.0690 H   0  0  0  0  0  0  0  0  0  0  0  0
   -4.4145   -1.4696   -3.1918 H   0  0  0  0  0  0  0  0  0  0  0  0
   -5.4159   -0.1939   -2.4878 H   0  0  0  0  0  0  0  0  0  0  0  0
   -3.0364   -1.7408   -1.4146 H   0  0  0  0  0  0  0  0  0  0  0  0
   -3.2473   -0.0126   -1.5223 H   0  0  0  0  0  0  0  0  0  0  0  0
   -0.4720   -0.9378    2.9493 H   0  0  0  0  0  0  0  0  0  0  0  0
   -0.2036   -2.6265    2.4891 H   0  0  0  0  0  0  0  0  0  0  0  0
    0.1516   -2.6241   -0.0645 H   0  0  0  0  0  0  0  0  0  0  0  0
   -0.2473   -0.3568   -1.1141 H   0  0  0  0  0  0  0  0  0  0  0  0
    0.8334   -1.4580   -2.0093 H   0  0  0  0  0  0  0  0  0  0  0  0
    1.7234    0.9286   -1.8598 H   0  0  0  0  0  0  0  0  0  0  0  0
    1.8144    0.6689   -0.1013 H   0  0  0  0  0  0  0  0  0  0  0  0
    3.2204   -1.2085   -2.0332 H   0  0  0  0  0  0  0  0  0  0  0  0
    3.0556   -0.6413    0.9491 H   0  0  0  0  0  0  0  0  0  0  0  0
    4.2963   -1.7611    0.3143 H   0  0  0  0  0  0  0  0  0  0  0  0
    2.3576   -3.0275   -0.7757 H   0  0  0  0  0  0  0  0  0  0  0  0
    2.3800   -3.0700    1.0050 H   0  0  0  0  0  0  0  0  0  0  0  0
    4.5093    0.7480    0.7952 H   0  0  0  0  0  0  0  0  0  0  0  0
    3.4452    1.8706   -0.0773 H   0  0  0  0  0  0  0  0  0  0  0  0
    5.1826    3.1376   -1.0098 H   0  0  0  0  0  0  0  0  0  0  0  0
    5.7042    2.7324    0.6434 H   0  0  0  0  0  0  0  0  0  0  0  0
    6.2480    1.2011   -2.7801 H   0  0  0  0  0  0  0  0  0  0  0  0
    7.5296    0.1713   -1.9491 H   0  0  0  0  0  0  0  0  0  0  0  0
    5.8066   -0.8766   -0.5881 H   0  0  0  0  0  0  0  0  0  0  0  0
    5.3833   -0.9396   -2.3801 H   0  0  0  0  0  0  0  0  0  0  0  0
    7.8630    2.1101    0.8837 H   0  0  0  0  0  0  0  0  0  0  0  0
    9.5858    0.5748    0.6154 H   0  0  0  0  0  0  0  0  0  0  0  0
    8.5838   -0.5592   -0.3710 H   0  0  0  0  0  0  0  0  0  0  0  0
    9.1907    0.9848   -1.0785 H   0  0  0  0  0  0  0  0  0  0  0  0
   -3.4288    3.3483   -0.9925 H   0  0  0  0  0  0  0  0  0  0  0  0
   -4.3490    1.7775   -1.1709 H   0  0  0  0  0  0  0  0  0  0  0  0
   -4.6204    5.2178    0.2618 H   0  0  0  0  0  0  0  0  0  0  0  0
   -5.6938    4.4338    1.5368 H   0  0  0  0  0  0  0  0  0  0  0  0
   -5.7539    3.8303   -1.0387 H   0  0  0  0  0  0  0  0  0  0  0  0
   -2.7316    4.1903    1.1567 H   0  0  0  0  0  0  0  0  0  0  0  0
   -3.8358    3.5749    2.5007 H   0  0  0  0  0  0  0  0  0  0  0  0
   -5.1468    1.3903    1.8958 H   0  0  0  0  0  0  0  0  0  0  0  0
   -3.5632    1.4887    2.6087 H   0  0  0  0  0  0  0  0  0  0  0  0
    8.9913   -0.1792    0.8608 H   0  0  0  0  0  0  0  0  0  0  0  0
   -1.8681   -2.1764    0.8261 H   0  0  0  0  0  0  0  0  0  0  0  0
   -3.4782   -2.8297    2.3847 H   0  0  0  0  0  0  0  0  0  0  0  0
   -2.6416   -1.8163    3.6629 H   0  0  0  0  0  0  0  0  0  0  0  0
   -4.1255   -2.0282    0.6506 H   0  0  0  0  0  0  0  0  0  0  0  0
   -6.1849   -1.1988    1.3308 H   0  0  0  0  0  0  0  0  0  0  0  0
   -5.5153   -3.0499   -0.1305 H   0  0  0  0  0  0  0  0  0  0  0  0
   -7.2335   -2.5911   -0.3319 H   0  0  0  0  0  0  0  0  0  0  0  0
   -5.6684   -3.0206   -2.4745 H   0  0  0  0  0  0  0  0  0  0  0  0
   -4.2344   -1.4083   -3.1282 H   0  0  0  0  0  0  0  0  0  0  0  0
   -5.1561   -0.0459   -2.4717 H   0  0  0  0  0  0  0  0  0  0  0  0
   -3.0972   -1.8967   -1.2088 H   0  0  0  0  0  0  0  0  0  0  0  0
   -3.0790   -0.1526   -1.3160 H   0  0  0  0  0  0  0  0  0  0  0  0
   -0.7458   -0.6476    3.2035 H   0  0  0  0  0  0  0  0  0  0  0  0
   -0.4407   -2.3633    2.9320 H   0  0  0  0  0  0  0  0  0  0  0  0
    0.0392   -2.6295    0.4614 H   0  0  0  0  0  0  0  0  0  0  0  0
   -0.3375   -0.4178   -0.7573 H   0  0  0  0  0  0  0  0  0  0  0  0
    0.6179   -1.6607   -1.5757 H   0  0  0  0  0  0  0  0  0  0  0  0
    1.8096    0.7081   -0.0749 H   0  0  0  0  0  0  0  0  0  0  0  0
    1.7112    0.5537   -1.8357 H   0  0  0  0  0  0  0  0  0  0  0  0
    3.0067   -1.6367   -1.6191 H   0  0  0  0  0  0  0  0  0  0  0  0
    2.9143   -0.5220    1.2049 H   0  0  0  0  0  0  0  0  0  0  0  0
    4.1955   -1.7654    0.7611 H   0  0  0  0  0  0  0  0  0  0  0  0
    2.2510   -3.1048   -0.2168 H   0  0  0  0  0  0  0  0  0  0  0  0
    2.2498   -2.9952    1.5737 H   0  0  0  0  0  0  0  0  0  0  0  0
    4.3515    0.9147    0.6226 H   0  0  0  0  0  0  0  0  0  0  0  0
    3.8549    2.0221   -0.6662 H   0  0  0  0  0  0  0  0  0  0  0  0
    6.0146    1.6561   -1.8595 H   0  0  0  0  0  0  0  0  0  0  0  0
    6.1083    2.5798   -0.3356 H   0  0  0  0  0  0  0  0  0  0  0  0
    7.3718   -1.0948   -1.3853 H   0  0  0  0  0  0  0  0  0  0  0  0
    6.4381   -1.4365    0.0686 H   0  0  0  0  0  0  0  0  0  0  0  0
    5.6849   -0.3343   -2.6720 H   0  0  0  0  0  0  0  0  0  0  0  0
    5.0737   -1.8159   -1.8128 H   0  0  0  0  0  0  0  0  0  0  0  0
    8.4208    0.9462   -1.7240 H   0  0  0  0  0  0  0  0  0  0  0  0
    8.9022    2.0686    1.0643 H   0  0  0  0  0  0  0  0  0  0  0  0
    8.1035    3.0216   -0.2969 H   0  0  0  0  0  0  0  0  0  0  0  0
    9.7684    2.3467   -0.4678 H   0  0  0  0  0  0  0  0  0  0  0  0
  1  2  1  0
  1  6  1  0
  5  6  1  0
  2  9  1  0
  5  9  1  0
  2 12  1  0
  3 15  1  0
  7 15  1  0
 15 12  1  1
  3 16  1  0
  7 17  1  0
 16 17  1  0
 15 18  1  0
  8 19  1  0
 18 19  1  0
 19 20  1  0
  4 21  1  0
 20 21  1  0
 21 22  1  0
 18 23  1  0
 22 23  1  0
 11 24  1  0
 16 24  1  0
 11 25  1  0
 25 26  1  0
 26 27  1  0
 10 28  1  0
 27 28  1  0
 28 29  1  0
 25 30  1  0
 29 30  1  0
 10 31  1  0
 13 32  1  0
 31 32  1  0
 13 33  1  0
 10 34  1  0
 33 34  1  0
 13 35  1  0
 14 35  1  0
 35 36  1  0
 37 38  1  0
 37 42  1  0
 41 42  1  0
 38 45  1  0
 41 45  1  0
 38 48  1  0
 39 51  1  0
 43 51  1  0
 51 48  1  1
 39 52  1  0
 43 53  1  0
 52 53  1  0
 51 54  1  0
 44 55  1  0
 54 55  1  0
 55 56  1  0
 40 57  1  0
 56 57  1  0
 57 58  1  0
 54 59  1  0
 58 59  1  0
 47 60  1  0
 52 60  1  0
 47 61  1  0
 61 62  1  0
 62 63  1  0
 46 64  1  0
 63 64  1  0
 64 65  1  0
 61 66  1  0
 65 66  1  0
 46 67  1  0
 49 68  1  0
 67 68  1  0
 49 69  1  0
 46 70  1  0
 69 70  1  0
 49 71  1  0
 50 71  1  0
 71 72  1  0
  1 73  1  0
  1 74  1  0
  5 75  1  0
  5 76  1  0
  6 77  1  0
  9 78  1  0
  9 79  1  0
 12 80  1  0
 12 81  1  0
 14 82  1  0
 16 83  1  6
 17 84  1  0
 17 85  1  0
 18 86  1  0
 19 87  1  0
 20 88  1  0
 20 89  1  0
 21 90  1  0
 22 91  1  0
 22 92  1  0
 23 93  1  0
 23 94  1  0
 24 95  1  0
 24 96  1  0
 25 97  1  0
 26 98  1  0
 26 99  1  0
 27100  1  0
 27101  1  0
 28102  1  0
 29103  1  0
 29104  1  0
 30105  1  0
 30106  1  0
 31107  1  0
 31108  1  0
 32109  1  0
 32110  1  0
 33111  1  0
 33112  1  0
 34113  1  0
 34114  1  0
 35115  1  0
 36116  1  0
 36117  1  0
 36118  1  0
 37119  1  0
 37120  1  0
 41121  1  0
 41122  1  0
 42123  1  0
 45124  1  0
 45125  1  0
 48126  1  0
 48127  1  0
 50128  1  0
 52129  1  6
 53130  1  0
 53131  1  0
 54132  1  0
 55133  1  0
 56134  1  0
 56135  1  0
 57136  1  0
 58137  1  0
 58138  1  0
 59139  1  0
 59140  1  0
 60141  1  0
 60142  1  0
 61143  1  0
 62144  1  0
 62145  1  0
 63146  1  0
 63147  1  0
 64148  1  0
 65149  1  0
 65150  1  0
 66151  1  0
 66152  1  0
 67153  1  0
 67154  1  0
 68155  1  0
 68156  1  0
 69157  1  0
 69158  1  0
 70159  1  0
 70160  1  0
 71161  1  6
 72162  1  0
 72163  1  0
 72164  1  0
M  END
>  <PDBID>  (1) 
3LD6

>  <PDB ID>  (1) 
3LD6

>  <Generic Name>  (1) 
Ketoconazole

>  <Brand Name>  (1) 
Apo-ketoconazole#Extina#Ketoconazole#Ketodan#Ketoderm Cream 2%#Nizoral#Nizoral  - 2%#Nizoral A-D#Nizoral Cream 2%#Nizoral Oral Suspension 20mg/ml#Nizoral Shp 2%#Nizoral Tablets 200mg#Nu-ketocon Tablets - 200mg#Teva-ketoconazole#Xolegel#Fungarest#Fungoral#Ketoderm#Ketoisdin#Ketozole#Nizoral Cream#Nizoral Shampoo#Orifungal#Orifungal M#Panfungol

>  <DrugBank ID>  (1) 
DB01026

>  <ATC Codes>  (1) 
G01AF11#D01AC08#J02AB02

>  <Ligand ID>  (1) 
KKK,KLN,KTN

>  <Target Name>  (1) 
Lanosterol 14-alpha demethylase

>  <UniProt ID>  (1) 
P10613

>  <PDB ID.1>  (1) 
3LD6

>  <Seq. Identity>  (1) 
40%

$$$$
