PDB_DB01041_01
     RDKit          3D

172180  0  0  0  0  0  0  0  0999 V2000
    3.1462   -2.5221    0.1456 O   0  0  0  0  0  0  0  0  0  0  0  0
    2.2039   -1.6586    0.7139 C   0  0  0  0  0  0  0  0  0  0  0  0
    2.9009   -0.3945    0.9192 N   0  0  0  0  0  0  0  0  0  0  0  0
    3.6424    0.0516   -0.2092 C   0  0  0  0  0  0  0  0  0  0  0  0
    3.9100    1.4279   -0.0077 O   0  0  0  0  0  0  0  0  0  0  0  0
    2.9436   -0.0307   -1.5341 C   0  0  0  0  0  0  0  0  0  0  0  0
    1.9461   -1.1310   -1.6233 C   0  0  0  0  0  0  0  0  0  0  0  0
    1.1783   -1.3654   -0.3624 C   0  0  2  0  0  0  0  0  0  0  0  0
    0.3330   -0.3383    0.0720 N   0  0  0  0  0  0  0  0  0  0  0  0
   -3.3486    2.0331    0.6622 C   0  0  0  0  0  0  0  0  0  0  0  0
   -2.5805    1.6558   -0.5809 C   0  0  0  0  0  0  0  0  0  0  0  0
   -1.8400    0.3754   -0.3821 C   0  0  0  0  0  0  0  0  0  0  0  0
   -1.6144    0.2496    1.1325 C   0  0  0  0  0  0  0  0  0  0  0  0
    0.0206    1.7775   -0.7850 O   0  0  0  0  0  0  0  0  0  0  0  0
    0.0584   -0.7374    2.4063 O   0  0  0  0  0  0  0  0  0  0  0  0
   -2.9246   -0.2414    1.6698 C   0  0  0  0  0  0  0  0  0  0  0  0
   -3.9372    0.8708    1.3957 C   0  0  0  0  0  0  0  0  0  0  0  0
   -0.5002   -0.7657    1.1589 C   0  0  2  0  0  0  0  0  0  0  0  0
   -0.4022    0.4291   -0.8504 C   0  0  0  0  0  0  0  0  0  0  0  0
    3.1462   -2.5221    0.1456 O   0  0  0  0  0  0  0  0  0  0  0  0
    2.2039   -1.6586    0.7139 C   0  0  0  0  0  0  0  0  0  0  0  0
    2.9009   -0.3945    0.9192 N   0  0  0  0  0  0  0  0  0  0  0  0
    3.6424    0.0516   -0.2092 C   0  0  0  0  0  0  0  0  0  0  0  0
    3.9100    1.4279   -0.0077 O   0  0  0  0  0  0  0  0  0  0  0  0
    2.9436   -0.0307   -1.5341 C   0  0  0  0  0  0  0  0  0  0  0  0
    1.9461   -1.1310   -1.6233 C   0  0  0  0  0  0  0  0  0  0  0  0
    1.1783   -1.3654   -0.3624 C   0  0  2  0  0  0  0  0  0  0  0  0
    0.3330   -0.3383    0.0720 N   0  0  0  0  0  0  0  0  0  0  0  0
   -3.3486    2.0331    0.6622 C   0  0  0  0  0  0  0  0  0  0  0  0
   -2.5805    1.6558   -0.5809 C   0  0  0  0  0  0  0  0  0  0  0  0
   -1.8400    0.3754   -0.3821 C   0  0  0  0  0  0  0  0  0  0  0  0
   -1.6144    0.2496    1.1325 C   0  0  0  0  0  0  0  0  0  0  0  0
    0.0206    1.7775   -0.7850 O   0  0  0  0  0  0  0  0  0  0  0  0
    0.0584   -0.7374    2.4063 O   0  0  0  0  0  0  0  0  0  0  0  0
   -2.9246   -0.2414    1.6698 C   0  0  0  0  0  0  0  0  0  0  0  0
   -3.9372    0.8708    1.3957 C   0  0  0  0  0  0  0  0  0  0  0  0
   -0.5002   -0.7657    1.1589 C   0  0  2  0  0  0  0  0  0  0  0  0
   -0.4022    0.4291   -0.8504 C   0  0  0  0  0  0  0  0  0  0  0  0
    3.1936   -2.5955    0.0327 O   0  0  0  0  0  0  0  0  0  0  0  0
    2.2750   -1.7441    0.6295 C   0  0  0  0  0  0  0  0  0  0  0  0
    3.0267   -0.7206    1.3167 N   0  0  0  0  0  0  0  0  0  0  0  0
    3.8095    0.0929    0.4580 C   0  0  0  0  0  0  0  0  0  0  0  0
    4.3926    1.1049    1.2560 O   0  0  0  0  0  0  0  0  0  0  0  0
    2.9517    0.7654   -0.5643 C   0  0  0  0  0  0  0  0  0  0  0  0
    2.0785   -0.2119   -1.2748 C   0  0  0  0  0  0  0  0  0  0  0  0
    1.3597   -1.2079   -0.4127 C   0  0  2  0  0  0  0  0  0  0  0  0
    0.1257   -0.8561    0.1011 N   0  0  0  0  0  0  0  0  0  0  0  0
   -4.0691    1.0521    0.0134 C   0  0  0  0  0  0  0  0  0  0  0  0
   -3.2660    0.0091   -0.7119 C   0  0  0  0  0  0  0  0  0  0  0  0
   -2.1239   -0.4380    0.1387 C   0  0  0  0  0  0  0  0  0  0  0  0
   -1.3029    0.8131    0.4980 C   0  0  0  0  0  0  0  0  0  0  0  0
   -1.0301   -0.8783   -1.9260 O   0  0  0  0  0  0  0  0  0  0  0  0
   -0.5030   -0.5323    2.2515 O   0  0  0  0  0  0  0  0  0  0  0  0
   -2.1182    1.5700    1.4865 C   0  0  0  0  0  0  0  0  0  0  0  0
   -3.2696    2.1305    0.6519 C   0  0  0  0  0  0  0  0  0  0  0  0
   -0.0901    0.1152    1.0646 C   0  0  0  0  0  0  0  0  0  0  0  0
   -1.0574   -1.2157   -0.5923 C   0  0  0  0  0  0  0  0  0  0  0  0
    3.1462   -2.5221    0.1456 O   0  0  0  0  0  0  0  0  0  0  0  0
    2.2039   -1.6586    0.7139 C   0  0  0  0  0  0  0  0  0  0  0  0
    2.9009   -0.3945    0.9192 N   0  0  0  0  0  0  0  0  0  0  0  0
    3.6424    0.0516   -0.2092 C   0  0  0  0  0  0  0  0  0  0  0  0
    3.9100    1.4279   -0.0077 O   0  0  0  0  0  0  0  0  0  0  0  0
    2.9436   -0.0307   -1.5341 C   0  0  0  0  0  0  0  0  0  0  0  0
    1.9461   -1.1310   -1.6233 C   0  0  0  0  0  0  0  0  0  0  0  0
    1.1783   -1.3654   -0.3624 C   0  0  2  0  0  0  0  0  0  0  0  0
    0.3330   -0.3383    0.0720 N   0  0  0  0  0  0  0  0  0  0  0  0
   -3.3486    2.0331    0.6622 C   0  0  0  0  0  0  0  0  0  0  0  0
   -2.5805    1.6558   -0.5809 C   0  0  0  0  0  0  0  0  0  0  0  0
   -1.8400    0.3754   -0.3821 C   0  0  0  0  0  0  0  0  0  0  0  0
   -1.6144    0.2496    1.1325 C   0  0  0  0  0  0  0  0  0  0  0  0
    0.0206    1.7775   -0.7850 O   0  0  0  0  0  0  0  0  0  0  0  0
    0.0584   -0.7374    2.4063 O   0  0  0  0  0  0  0  0  0  0  0  0
   -2.9246   -0.2414    1.6698 C   0  0  0  0  0  0  0  0  0  0  0  0
   -3.9372    0.8708    1.3957 C   0  0  0  0  0  0  0  0  0  0  0  0
   -0.5002   -0.7657    1.1589 C   0  0  2  0  0  0  0  0  0  0  0  0
   -0.4022    0.4291   -0.8504 C   0  0  0  0  0  0  0  0  0  0  0  0
    2.6924   -3.3471   -0.1056 H   0  0  0  0  0  0  0  0  0  0  0  0
    1.8107   -2.0455    1.6423 H   0  0  0  0  0  0  0  0  0  0  0  0
    2.3321    0.3321    1.3794 H   0  0  0  0  0  0  0  0  0  0  0  0
    4.6346   -0.4384   -0.2252 H   0  0  0  0  0  0  0  0  0  0  0  0
    4.3306    1.7833   -0.8455 H   0  0  0  0  0  0  0  0  0  0  0  0
    3.7399   -0.2544   -2.3057 H   0  0  0  0  0  0  0  0  0  0  0  0
    2.5189    0.9425   -1.8568 H   0  0  0  0  0  0  0  0  0  0  0  0
    1.3037   -0.9997   -2.5150 H   0  0  0  0  0  0  0  0  0  0  0  0
    2.5192   -2.0860   -1.8217 H   0  0  0  0  0  0  0  0  0  0  0  0
    0.6002   -2.3197   -0.5225 H   0  0  0  0  0  0  0  0  0  0  0  0
   -4.2043    2.6612    0.3157 H   0  0  0  0  0  0  0  0  0  0  0  0
   -2.7513    2.6905    1.3280 H   0  0  0  0  0  0  0  0  0  0  0  0
   -1.8780    2.5048   -0.8216 H   0  0  0  0  0  0  0  0  0  0  0  0
   -3.2362    1.5344   -1.4656 H   0  0  0  0  0  0  0  0  0  0  0  0
   -2.3574   -0.5060   -0.7566 H   0  0  0  0  0  0  0  0  0  0  0  0
   -1.2934    1.1829    1.5882 H   0  0  0  0  0  0  0  0  0  0  0  0
    0.8985    1.8095   -0.3496 H   0  0  0  0  0  0  0  0  0  0  0  0
   -0.1855   -1.5938    2.8821 H   0  0  0  0  0  0  0  0  0  0  0  0
   -3.2583   -1.0882    1.0006 H   0  0  0  0  0  0  0  0  0  0  0  0
   -2.9154   -0.5675    2.7100 H   0  0  0  0  0  0  0  0  0  0  0  0
   -4.2213    1.2505    2.4176 H   0  0  0  0  0  0  0  0  0  0  0  0
   -4.8680    0.4898    0.9539 H   0  0  0  0  0  0  0  0  0  0  0  0
   -0.9826   -1.7437    0.9156 H   0  0  0  0  0  0  0  0  0  0  0  0
   -0.3647    0.1226   -1.8908 H   0  0  0  0  0  0  0  0  0  0  0  0
    2.6924   -3.3471   -0.1056 H   0  0  0  0  0  0  0  0  0  0  0  0
    1.8107   -2.0455    1.6423 H   0  0  0  0  0  0  0  0  0  0  0  0
    2.3321    0.3321    1.3794 H   0  0  0  0  0  0  0  0  0  0  0  0
    4.6346   -0.4384   -0.2252 H   0  0  0  0  0  0  0  0  0  0  0  0
    4.3306    1.7833   -0.8455 H   0  0  0  0  0  0  0  0  0  0  0  0
    3.7399   -0.2544   -2.3057 H   0  0  0  0  0  0  0  0  0  0  0  0
    2.5189    0.9425   -1.8568 H   0  0  0  0  0  0  0  0  0  0  0  0
    1.3037   -0.9997   -2.5150 H   0  0  0  0  0  0  0  0  0  0  0  0
    2.5192   -2.0860   -1.8217 H   0  0  0  0  0  0  0  0  0  0  0  0
    0.6002   -2.3197   -0.5225 H   0  0  0  0  0  0  0  0  0  0  0  0
   -4.2043    2.6612    0.3157 H   0  0  0  0  0  0  0  0  0  0  0  0
   -2.7513    2.6905    1.3280 H   0  0  0  0  0  0  0  0  0  0  0  0
   -1.8780    2.5048   -0.8216 H   0  0  0  0  0  0  0  0  0  0  0  0
   -3.2362    1.5344   -1.4656 H   0  0  0  0  0  0  0  0  0  0  0  0
   -2.3574   -0.5060   -0.7566 H   0  0  0  0  0  0  0  0  0  0  0  0
   -1.2934    1.1829    1.5882 H   0  0  0  0  0  0  0  0  0  0  0  0
    0.8985    1.8095   -0.3496 H   0  0  0  0  0  0  0  0  0  0  0  0
   -0.1855   -1.5938    2.8821 H   0  0  0  0  0  0  0  0  0  0  0  0
   -3.2583   -1.0882    1.0006 H   0  0  0  0  0  0  0  0  0  0  0  0
   -2.9154   -0.5675    2.7100 H   0  0  0  0  0  0  0  0  0  0  0  0
   -4.2213    1.2505    2.4176 H   0  0  0  0  0  0  0  0  0  0  0  0
   -4.8680    0.4898    0.9539 H   0  0  0  0  0  0  0  0  0  0  0  0
   -0.9826   -1.7437    0.9156 H   0  0  0  0  0  0  0  0  0  0  0  0
   -0.3647    0.1226   -1.8908 H   0  0  0  0  0  0  0  0  0  0  0  0
    2.7605   -3.2081   -0.6078 H   0  0  0  0  0  0  0  0  0  0  0  0
    1.7135   -2.3037    1.4196 H   0  0  0  0  0  0  0  0  0  0  0  0
    3.4792   -1.0894    2.1505 H   0  0  0  0  0  0  0  0  0  0  0  0
    4.6408   -0.4914    0.0168 H   0  0  0  0  0  0  0  0  0  0  0  0
    4.7057    1.7897    0.6337 H   0  0  0  0  0  0  0  0  0  0  0  0
    3.6671    1.1594   -1.3466 H   0  0  0  0  0  0  0  0  0  0  0  0
    2.4058    1.6203   -0.1166 H   0  0  0  0  0  0  0  0  0  0  0  0
    1.3925    0.2781   -2.0083 H   0  0  0  0  0  0  0  0  0  0  0  0
    2.7745   -0.8125   -1.9417 H   0  0  0  0  0  0  0  0  0  0  0  0
    1.1703   -2.0935   -1.1185 H   0  0  0  0  0  0  0  0  0  0  0  0
   -4.7342    1.5347   -0.7471 H   0  0  0  0  0  0  0  0  0  0  0  0
   -4.7657    0.6266    0.7721 H   0  0  0  0  0  0  0  0  0  0  0  0
   -2.9892    0.3180   -1.7171 H   0  0  0  0  0  0  0  0  0  0  0  0
   -3.9498   -0.8834   -0.8277 H   0  0  0  0  0  0  0  0  0  0  0  0
   -2.4461   -0.9939    1.0169 H   0  0  0  0  0  0  0  0  0  0  0  0
   -1.1053    1.3667   -0.4156 H   0  0  0  0  0  0  0  0  0  0  0  0
   -0.9973    0.0887   -2.0842 H   0  0  0  0  0  0  0  0  0  0  0  0
   -0.7645   -1.4692    2.0697 H   0  0  0  0  0  0  0  0  0  0  0  0
   -2.5145    0.8841    2.2822 H   0  0  0  0  0  0  0  0  0  0  0  0
   -1.5348    2.4005    1.9035 H   0  0  0  0  0  0  0  0  0  0  0  0
   -2.7663    2.7275   -0.1636 H   0  0  0  0  0  0  0  0  0  0  0  0
   -3.9503    2.7480    1.2622 H   0  0  0  0  0  0  0  0  0  0  0  0
    0.6499    0.8762    1.2695 H   0  0  0  0  0  0  0  0  0  0  0  0
   -1.2244   -2.3264   -0.5257 H   0  0  0  0  0  0  0  0  0  0  0  0
    2.6924   -3.3471   -0.1056 H   0  0  0  0  0  0  0  0  0  0  0  0
    1.8107   -2.0455    1.6423 H   0  0  0  0  0  0  0  0  0  0  0  0
    2.3321    0.3321    1.3794 H   0  0  0  0  0  0  0  0  0  0  0  0
    4.6346   -0.4384   -0.2252 H   0  0  0  0  0  0  0  0  0  0  0  0
    4.3306    1.7833   -0.8455 H   0  0  0  0  0  0  0  0  0  0  0  0
    3.7399   -0.2544   -2.3057 H   0  0  0  0  0  0  0  0  0  0  0  0
    2.5189    0.9425   -1.8568 H   0  0  0  0  0  0  0  0  0  0  0  0
    1.3037   -0.9997   -2.5150 H   0  0  0  0  0  0  0  0  0  0  0  0
    2.5192   -2.0860   -1.8217 H   0  0  0  0  0  0  0  0  0  0  0  0
    0.6002   -2.3197   -0.5225 H   0  0  0  0  0  0  0  0  0  0  0  0
   -4.2043    2.6612    0.3157 H   0  0  0  0  0  0  0  0  0  0  0  0
   -2.7513    2.6905    1.3280 H   0  0  0  0  0  0  0  0  0  0  0  0
   -1.8780    2.5048   -0.8216 H   0  0  0  0  0  0  0  0  0  0  0  0
   -3.2362    1.5344   -1.4656 H   0  0  0  0  0  0  0  0  0  0  0  0
   -2.3574   -0.5060   -0.7566 H   0  0  0  0  0  0  0  0  0  0  0  0
   -1.2934    1.1829    1.5882 H   0  0  0  0  0  0  0  0  0  0  0  0
    0.8985    1.8095   -0.3496 H   0  0  0  0  0  0  0  0  0  0  0  0
   -0.1855   -1.5938    2.8821 H   0  0  0  0  0  0  0  0  0  0  0  0
   -3.2583   -1.0882    1.0006 H   0  0  0  0  0  0  0  0  0  0  0  0
   -2.9154   -0.5675    2.7100 H   0  0  0  0  0  0  0  0  0  0  0  0
   -4.2213    1.2505    2.4176 H   0  0  0  0  0  0  0  0  0  0  0  0
   -4.8680    0.4898    0.9539 H   0  0  0  0  0  0  0  0  0  0  0  0
   -0.9826   -1.7437    0.9156 H   0  0  0  0  0  0  0  0  0  0  0  0
   -0.3647    0.1226   -1.8908 H   0  0  0  0  0  0  0  0  0  0  0  0
  1  2  1  0
  2  3  1  0
  3  4  1  0
  4  5  1  0
  4  6  1  0
  6  7  1  0
  2  8  1  0
  7  8  1  0
  8  9  1  0
 10 11  1  0
 11 12  1  0
 12 13  1  0
 13 16  1  0
 10 17  1  0
 16 17  1  0
  9 18  1  0
 13 18  1  0
 15 18  1  0
  9 19  1  0
 12 19  1  0
 14 19  1  0
 20 21  1  0
 21 22  1  0
 22 23  1  0
 23 24  1  0
 23 25  1  0
 25 26  1  0
 21 27  1  0
 26 27  1  0
 27 28  1  0
 29 30  1  0
 30 31  1  0
 31 32  1  0
 32 35  1  0
 29 36  1  0
 35 36  1  0
 28 37  1  0
 32 37  1  0
 34 37  1  0
 28 38  1  0
 31 38  1  0
 33 38  1  0
 39 40  1  0
 40 41  1  0
 41 42  1  0
 42 43  1  0
 42 44  1  0
 44 45  1  0
 40 46  1  0
 45 46  1  0
 46 47  1  0
 48 49  1  0
 49 50  1  0
 50 51  1  0
 51 54  1  0
 48 55  1  0
 54 55  1  0
 47 56  1  0
 51 56  1  0
 53 56  1  0
 47 57  1  0
 50 57  1  0
 52 57  1  0
 58 59  1  0
 59 60  1  0
 60 61  1  0
 61 62  1  0
 61 63  1  0
 63 64  1  0
 59 65  1  0
 64 65  1  0
 65 66  1  0
 67 68  1  0
 68 69  1  0
 69 70  1  0
 70 73  1  0
 67 74  1  0
 73 74  1  0
 66 75  1  0
 70 75  1  0
 72 75  1  0
 66 76  1  0
 69 76  1  0
 71 76  1  0
  1 77  1  0
  2 78  1  0
  3 79  1  0
  4 80  1  0
  5 81  1  0
  6 82  1  0
  6 83  1  0
  7 84  1  0
  7 85  1  0
  8 86  1  6
 10 87  1  0
 10 88  1  0
 11 89  1  0
 11 90  1  0
 12 91  1  0
 13 92  1  0
 14 93  1  0
 15 94  1  0
 16 95  1  0
 16 96  1  0
 17 97  1  0
 17 98  1  0
 18 99  1  6
 19100  1  0
 20101  1  0
 21102  1  0
 22103  1  0
 23104  1  0
 24105  1  0
 25106  1  0
 25107  1  0
 26108  1  0
 26109  1  0
 27110  1  6
 29111  1  0
 29112  1  0
 30113  1  0
 30114  1  0
 31115  1  0
 32116  1  0
 33117  1  0
 34118  1  0
 35119  1  0
 35120  1  0
 36121  1  0
 36122  1  0
 37123  1  6
 38124  1  0
 39125  1  0
 40126  1  0
 41127  1  0
 42128  1  0
 43129  1  0
 44130  1  0
 44131  1  0
 45132  1  0
 45133  1  0
 46134  1  6
 48135  1  0
 48136  1  0
 49137  1  0
 49138  1  0
 50139  1  0
 51140  1  0
 52141  1  0
 53142  1  0
 54143  1  0
 54144  1  0
 55145  1  0
 55146  1  0
 56147  1  0
 57148  1  0
 58149  1  0
 59150  1  0
 60151  1  0
 61152  1  0
 62153  1  0
 63154  1  0
 63155  1  0
 64156  1  0
 64157  1  0
 65158  1  6
 67159  1  0
 67160  1  0
 68161  1  0
 68162  1  0
 69163  1  0
 70164  1  0
 71165  1  0
 72166  1  0
 73167  1  0
 73168  1  0
 74169  1  0
 74170  1  0
 75171  1  6
 76172  1  0
M  END
>  <PDBID>  (1) 
4TZC

>  <PDB ID>  (1) 
4TZC

>  <Generic Name>  (1) 
Thalidomide

>  <Brand Name>  (1) 
Thalomid#Contergan#Distaval#K-17#Pro-ban M#Sedalis#Softenon#Talimol#Thaled

>  <DrugBank ID>  (1) 
DB01041

>  <ATC Codes>  (1) 
L04AX02

>  <Ligand ID>  (1) 
EF2

>  <Target Name>  (1) 
Protein cereblon

>  <UniProt ID>  (1) 
Q96SW2

>  <PDB ID.1>  (1) 
4TZC

>  <Seq. Identity>  (1) 
97%

$$$$
