PDB_DB04854_02
     RDKit          3D

108110  0  0  0  0  0  0  0  0999 V2000
   -2.8208    0.8405    1.4832 S   0  0  0  0  0  0  0  0  0  0  0  0
   -2.0903    0.5154   -0.1754 C   0  0  0  0  0  0  0  0  0  0  0  0
   -2.7183   -0.7226   -0.5086 N   0  0  0  0  0  0  0  0  0  0  0  0
   -4.1267   -0.6393   -0.1325 C   0  0  0  0  0  0  0  0  0  0  0  0
   -4.1427   -0.4362    1.3683 C   0  0  0  0  0  0  0  0  0  0  0  0
   -0.6084    0.4224   -0.0970 C   0  0  0  0  0  0  0  0  0  0  0  0
   -0.0557    0.1409   -1.4664 C   0  0  0  0  0  0  0  0  0  0  0  0
    1.0497   -0.8926   -1.3086 C   0  0  0  0  0  0  0  0  0  0  0  0
    2.0123   -0.3396   -0.2694 C   0  0  0  0  0  0  0  0  0  0  0  0
    1.3385   -0.6016    1.0858 C   0  0  0  0  0  0  0  0  0  0  0  0
   -0.1727   -0.5836    0.9265 C   0  0  0  0  0  0  0  0  0  0  0  0
    1.7051   -1.0562   -2.6523 C   0  0  0  0  0  0  0  0  0  0  0  0
    0.6837   -1.5065   -3.5800 N   0  0  0  0  0  0  0  0  0  0  0  0
    3.2513   -0.9022   -0.3505 O   0  0  0  0  0  0  0  0  0  0  0  0
    4.2332    0.0509   -0.5279 C   0  0  0  0  0  0  0  0  0  0  0  0
    4.3171    0.9966    0.6311 C   0  0  0  0  0  0  0  0  0  0  0  0
    5.3973    2.0436    0.4277 C   0  0  0  0  0  0  0  0  0  0  0  0
    4.7788    0.1591    1.8320 C   0  0  0  0  0  0  0  0  0  0  0  0
   -4.7116    0.5432   -0.8759 C   0  0  0  0  0  0  0  0  0  0  0  0
   -5.4354    0.0662    1.8889 C   0  0  0  0  0  0  0  0  0  0  0  0
   -5.9424    1.1595    1.2498 O   0  0  0  0  0  0  0  0  0  0  0  0
   -5.3207    0.3633    3.2534 O   0  0  0  0  0  0  0  0  0  0  0  0
   -2.8208    0.8405    1.4832 S   0  0  0  0  0  0  0  0  0  0  0  0
   -2.0903    0.5154   -0.1754 C   0  0  0  0  0  0  0  0  0  0  0  0
   -2.7183   -0.7226   -0.5086 N   0  0  0  0  0  0  0  0  0  0  0  0
   -4.1267   -0.6393   -0.1325 C   0  0  0  0  0  0  0  0  0  0  0  0
   -4.1427   -0.4362    1.3683 C   0  0  0  0  0  0  0  0  0  0  0  0
   -0.6084    0.4224   -0.0970 C   0  0  0  0  0  0  0  0  0  0  0  0
   -0.0557    0.1409   -1.4664 C   0  0  0  0  0  0  0  0  0  0  0  0
    1.0497   -0.8926   -1.3086 C   0  0  0  0  0  0  0  0  0  0  0  0
    2.0123   -0.3396   -0.2694 C   0  0  0  0  0  0  0  0  0  0  0  0
    1.3385   -0.6016    1.0858 C   0  0  0  0  0  0  0  0  0  0  0  0
   -0.1727   -0.5836    0.9265 C   0  0  0  0  0  0  0  0  0  0  0  0
    1.7051   -1.0562   -2.6523 C   0  0  0  0  0  0  0  0  0  0  0  0
    0.6837   -1.5065   -3.5800 N   0  0  0  0  0  0  0  0  0  0  0  0
    3.2513   -0.9022   -0.3505 O   0  0  0  0  0  0  0  0  0  0  0  0
    4.2332    0.0509   -0.5279 C   0  0  0  0  0  0  0  0  0  0  0  0
    4.3171    0.9966    0.6311 C   0  0  0  0  0  0  0  0  0  0  0  0
    5.3973    2.0436    0.4277 C   0  0  0  0  0  0  0  0  0  0  0  0
    4.7788    0.1591    1.8320 C   0  0  0  0  0  0  0  0  0  0  0  0
   -4.7116    0.5432   -0.8759 C   0  0  0  0  0  0  0  0  0  0  0  0
   -5.4354    0.0662    1.8889 C   0  0  0  0  0  0  0  0  0  0  0  0
   -5.9424    1.1595    1.2498 O   0  0  0  0  0  0  0  0  0  0  0  0
   -5.3207    0.3633    3.2534 O   0  0  0  0  0  0  0  0  0  0  0  0
   -2.3882    1.3213   -0.8812 H   0  0  0  0  0  0  0  0  0  0  0  0
   -2.3416   -1.5229    0.0134 H   0  0  0  0  0  0  0  0  0  0  0  0
   -4.5861   -1.5873   -0.4339 H   0  0  0  0  0  0  0  0  0  0  0  0
   -3.7554   -1.3276    1.8501 H   0  0  0  0  0  0  0  0  0  0  0  0
   -0.2174    1.4119    0.2491 H   0  0  0  0  0  0  0  0  0  0  0  0
    0.4246    1.0511   -1.8840 H   0  0  0  0  0  0  0  0  0  0  0  0
   -0.8318   -0.2028   -2.1893 H   0  0  0  0  0  0  0  0  0  0  0  0
    0.6928   -1.8572   -0.9508 H   0  0  0  0  0  0  0  0  0  0  0  0
    2.0155    0.7539   -0.3782 H   0  0  0  0  0  0  0  0  0  0  0  0
    1.6774    0.1319    1.8391 H   0  0  0  0  0  0  0  0  0  0  0  0
    1.6626   -1.6037    1.4293 H   0  0  0  0  0  0  0  0  0  0  0  0
   -0.4727   -1.6137    0.7419 H   0  0  0  0  0  0  0  0  0  0  0  0
   -0.6014   -0.2736    1.9006 H   0  0  0  0  0  0  0  0  0  0  0  0
    2.5119   -1.8166   -2.6203 H   0  0  0  0  0  0  0  0  0  0  0  0
    2.0420   -0.0647   -2.9936 H   0  0  0  0  0  0  0  0  0  0  0  0
   -0.1411   -1.9248   -3.0979 H   0  0  0  0  0  0  0  0  0  0  0  0
    1.1270   -2.1679   -4.2545 H   0  0  0  0  0  0  0  0  0  0  0  0
    4.0450    0.6572   -1.4584 H   0  0  0  0  0  0  0  0  0  0  0  0
    5.2161   -0.4582   -0.6193 H   0  0  0  0  0  0  0  0  0  0  0  0
    3.3810    1.5102    0.8362 H   0  0  0  0  0  0  0  0  0  0  0  0
    5.6322    2.1562   -0.6597 H   0  0  0  0  0  0  0  0  0  0  0  0
    5.1077    3.0279    0.8623 H   0  0  0  0  0  0  0  0  0  0  0  0
    6.3494    1.7639    0.9217 H   0  0  0  0  0  0  0  0  0  0  0  0
    5.5682   -0.5165    1.4203 H   0  0  0  0  0  0  0  0  0  0  0  0
    5.2623    0.8587    2.5404 H   0  0  0  0  0  0  0  0  0  0  0  0
    3.9668   -0.4211    2.2838 H   0  0  0  0  0  0  0  0  0  0  0  0
   -4.3644    1.4909   -0.4309 H   0  0  0  0  0  0  0  0  0  0  0  0
   -4.3171    0.5556   -1.9313 H   0  0  0  0  0  0  0  0  0  0  0  0
   -5.8144    0.4781   -0.9823 H   0  0  0  0  0  0  0  0  0  0  0  0
   -6.1823   -0.7508    1.8213 H   0  0  0  0  0  0  0  0  0  0  0  0
   -6.9139    1.2505    1.2981 H   0  0  0  0  0  0  0  0  0  0  0  0
   -4.3761    0.3240    3.5562 H   0  0  0  0  0  0  0  0  0  0  0  0
   -2.3882    1.3213   -0.8812 H   0  0  0  0  0  0  0  0  0  0  0  0
   -2.3416   -1.5229    0.0134 H   0  0  0  0  0  0  0  0  0  0  0  0
   -4.5861   -1.5873   -0.4339 H   0  0  0  0  0  0  0  0  0  0  0  0
   -3.7554   -1.3276    1.8501 H   0  0  0  0  0  0  0  0  0  0  0  0
   -0.2174    1.4119    0.2491 H   0  0  0  0  0  0  0  0  0  0  0  0
    0.4246    1.0511   -1.8840 H   0  0  0  0  0  0  0  0  0  0  0  0
   -0.8318   -0.2028   -2.1893 H   0  0  0  0  0  0  0  0  0  0  0  0
    0.6928   -1.8572   -0.9508 H   0  0  0  0  0  0  0  0  0  0  0  0
    2.0155    0.7539   -0.3782 H   0  0  0  0  0  0  0  0  0  0  0  0
    1.6774    0.1319    1.8391 H   0  0  0  0  0  0  0  0  0  0  0  0
    1.6626   -1.6037    1.4293 H   0  0  0  0  0  0  0  0  0  0  0  0
   -0.4727   -1.6137    0.7419 H   0  0  0  0  0  0  0  0  0  0  0  0
   -0.6014   -0.2736    1.9006 H   0  0  0  0  0  0  0  0  0  0  0  0
    2.5119   -1.8166   -2.6203 H   0  0  0  0  0  0  0  0  0  0  0  0
    2.0420   -0.0647   -2.9936 H   0  0  0  0  0  0  0  0  0  0  0  0
   -0.1411   -1.9248   -3.0979 H   0  0  0  0  0  0  0  0  0  0  0  0
    1.1270   -2.1679   -4.2545 H   0  0  0  0  0  0  0  0  0  0  0  0
    4.0450    0.6572   -1.4584 H   0  0  0  0  0  0  0  0  0  0  0  0
    5.2161   -0.4582   -0.6193 H   0  0  0  0  0  0  0  0  0  0  0  0
    3.3810    1.5102    0.8362 H   0  0  0  0  0  0  0  0  0  0  0  0
    5.6322    2.1562   -0.6597 H   0  0  0  0  0  0  0  0  0  0  0  0
    5.1077    3.0279    0.8623 H   0  0  0  0  0  0  0  0  0  0  0  0
    6.3494    1.7639    0.9217 H   0  0  0  0  0  0  0  0  0  0  0  0
    5.5682   -0.5165    1.4203 H   0  0  0  0  0  0  0  0  0  0  0  0
    5.2623    0.8587    2.5404 H   0  0  0  0  0  0  0  0  0  0  0  0
    3.9668   -0.4211    2.2838 H   0  0  0  0  0  0  0  0  0  0  0  0
   -4.3644    1.4909   -0.4309 H   0  0  0  0  0  0  0  0  0  0  0  0
   -4.3171    0.5556   -1.9313 H   0  0  0  0  0  0  0  0  0  0  0  0
   -5.8144    0.4781   -0.9823 H   0  0  0  0  0  0  0  0  0  0  0  0
   -6.1823   -0.7508    1.8213 H   0  0  0  0  0  0  0  0  0  0  0  0
   -6.9139    1.2505    1.2981 H   0  0  0  0  0  0  0  0  0  0  0  0
   -4.3761    0.3240    3.5562 H   0  0  0  0  0  0  0  0  0  0  0  0
  1  2  1  0
  2  3  1  0
  3  4  1  0
  1  5  1  0
  4  5  1  0
  2  6  1  0
  6  7  1  0
  7  8  1  0
  8  9  1  0
  9 10  1  0
  6 11  1  0
 10 11  1  0
  8 12  1  0
 12 13  1  0
  9 14  1  0
 14 15  1  0
 15 16  1  0
 16 17  1  0
 16 18  1  0
  4 19  1  0
  5 20  1  0
 20 21  1  0
 20 22  1  0
 23 24  1  0
 24 25  1  0
 25 26  1  0
 23 27  1  0
 26 27  1  0
 24 28  1  0
 28 29  1  0
 29 30  1  0
 30 31  1  0
 31 32  1  0
 28 33  1  0
 32 33  1  0
 30 34  1  0
 34 35  1  0
 31 36  1  0
 36 37  1  0
 37 38  1  0
 38 39  1  0
 38 40  1  0
 26 41  1  0
 27 42  1  0
 42 43  1  0
 42 44  1  0
  2 45  1  0
  3 46  1  0
  4 47  1  0
  5 48  1  0
  6 49  1  0
  7 50  1  0
  7 51  1  0
  8 52  1  0
  9 53  1  0
 10 54  1  0
 10 55  1  0
 11 56  1  0
 11 57  1  0
 12 58  1  0
 12 59  1  0
 13 60  1  0
 13 61  1  0
 15 62  1  0
 15 63  1  0
 16 64  1  0
 17 65  1  0
 17 66  1  0
 17 67  1  0
 18 68  1  0
 18 69  1  0
 18 70  1  0
 19 71  1  0
 19 72  1  0
 19 73  1  0
 20 74  1  0
 21 75  1  0
 22 76  1  0
 24 77  1  0
 25 78  1  0
 26 79  1  0
 27 80  1  0
 28 81  1  0
 29 82  1  0
 29 83  1  0
 30 84  1  0
 31 85  1  0
 32 86  1  0
 32 87  1  0
 33 88  1  0
 33 89  1  0
 34 90  1  0
 34 91  1  0
 35 92  1  0
 35 93  1  0
 37 94  1  0
 37 95  1  0
 38 96  1  0
 39 97  1  0
 39 98  1  0
 39 99  1  0
 40100  1  0
 40101  1  0
 40102  1  0
 41103  1  0
 41104  1  0
 41105  1  0
 42106  1  0
 43107  1  0
 44108  1  0
M  END
>  <PDBID>  (1) 
1N5X

>  <PDB ID>  (1) 
1N5X

>  <Generic Name>  (1) 
Febuxostat

>  <Brand Name>  (1) 
Febuxostat#Uloric#Adenuric#Atenurix#Barif#Feburic

>  <DrugBank ID>  (1) 
DB04854

>  <ATC Codes>  (1) 
M04AA03

>  <Ligand ID>  (1) 
TEI

>  <Target Name>  (1) 
Xanthine dehydrogenase/oxidase

>  <UniProt ID>  (1) 
P47989

>  <PDB ID.1>  (1) 
1N5X

>  <Seq. Identity>  (1) 
85%

$$$$
