PDB_DB00300_06
     RDKit          3D

 41 42  0  0  0  0  0  0  0  0999 V2000
    3.0901    1.6355   -0.3852 P   0  0  0  0  0  0  0  0  0  0  0  0
    2.9072    1.7040    1.2679 O   0  0  0  0  0  0  0  0  0  0  0  0
    4.4167    2.5823   -0.8072 O   0  0  0  0  0  0  0  0  0  0  0  0
    3.4600   -0.0182   -0.9177 C   0  0  0  0  0  0  0  0  0  0  0  0
    2.4918   -0.9573   -0.7900 O   0  0  0  0  0  0  0  0  0  0  0  0
    2.3814   -2.7028    0.8484 C   0  0  0  0  0  0  0  0  0  0  0  0
    2.0079   -1.2407    0.4445 C   0  0  2  0  0  0  0  0  0  0  0  0
    0.5338   -1.2112    0.5564 C   0  0  0  0  0  0  0  0  0  0  0  0
   -0.1584   -0.0137    0.2484 N   0  0  0  0  0  0  0  0  0  0  0  0
   -1.5797   -0.2698    0.5954 C   0  0  1  0  0  0  0  0  0  0  0  0
   -2.0155    0.8680    1.3395 N   0  0  0  0  0  0  0  0  0  0  0  0
   -3.4249    1.0689    1.3900 C   0  0  0  0  0  0  0  0  0  0  0  0
   -4.1220    0.6852    0.1869 N   0  0  0  0  0  0  0  0  0  0  0  0
   -3.1881    0.7171   -0.9240 C   0  0  0  0  0  0  0  0  0  0  0  0
   -3.8367    0.6621   -2.1958 N   0  0  0  0  0  0  0  0  0  0  0  0
   -2.2713   -0.4906   -0.7092 C   0  0  0  0  0  0  0  0  0  0  0  0
   -1.2591   -0.5606   -1.7132 N   0  0  0  0  0  0  0  0  0  0  0  0
   -0.2238    0.3061   -1.1705 C   0  0  0  0  0  0  0  0  0  0  0  0
    1.9734    2.1347   -1.0143 H   0  0  0  0  0  0  0  0  0  0  0  0
    3.7698    1.4337    1.6794 H   0  0  0  0  0  0  0  0  0  0  0  0
    5.1825    2.0550   -1.1342 H   0  0  0  0  0  0  0  0  0  0  0  0
    4.4444   -0.3066   -0.4859 H   0  0  0  0  0  0  0  0  0  0  0  0
    3.6822    0.0524   -2.0267 H   0  0  0  0  0  0  0  0  0  0  0  0
    1.9724   -2.8112    1.8721 H   0  0  0  0  0  0  0  0  0  0  0  0
    1.7860   -3.3318    0.1874 H   0  0  0  0  0  0  0  0  0  0  0  0
    3.4575   -2.8412    0.8271 H   0  0  0  0  0  0  0  0  0  0  0  0
    2.5107   -0.5598    1.1900 H   0  0  0  0  0  0  0  0  0  0  0  0
    0.2911   -1.4440    1.6412 H   0  0  0  0  0  0  0  0  0  0  0  0
    0.0859   -2.0591   -0.0170 H   0  0  0  0  0  0  0  0  0  0  0  0
   -1.6863   -1.1971    1.1933 H   0  0  0  0  0  0  0  0  0  0  0  0
   -1.4307    1.7000    1.2734 H   0  0  0  0  0  0  0  0  0  0  0  0
   -3.6169    2.1521    1.5509 H   0  0  0  0  0  0  0  0  0  0  0  0
   -3.8789    0.5393    2.2565 H   0  0  0  0  0  0  0  0  0  0  0  0
   -4.3884   -0.3397    0.2955 H   0  0  0  0  0  0  0  0  0  0  0  0
   -2.5656    1.6236   -0.8072 H   0  0  0  0  0  0  0  0  0  0  0  0
   -3.9724    1.6636   -2.5136 H   0  0  0  0  0  0  0  0  0  0  0  0
   -3.1324    0.2686   -2.8851 H   0  0  0  0  0  0  0  0  0  0  0  0
   -2.9206   -1.3957   -0.6983 H   0  0  0  0  0  0  0  0  0  0  0  0
   -0.8772   -1.5271   -1.7311 H   0  0  0  0  0  0  0  0  0  0  0  0
    0.6919    0.0836   -1.7318 H   0  0  0  0  0  0  0  0  0  0  0  0
   -0.5878    1.3425   -1.3310 H   0  0  0  0  0  0  0  0  0  0  0  0
  1  2  1  0
  1  3  1  0
  1  4  1  0
  4  5  1  0
  5  7  1  0
  6  7  1  0
  7  8  1  0
  8  9  1  0
  9 10  1  0
 10 11  1  0
 11 12  1  0
 12 13  1  0
 13 14  1  0
 14 15  1  0
 10 16  1  0
 14 16  1  0
 16 17  1  0
  9 18  1  0
 17 18  1  0
  1 19  1  0
  2 20  1  0
  3 21  1  0
  4 22  1  0
  4 23  1  0
  6 24  1  0
  6 25  1  0
  6 26  1  0
  7 27  1  1
  8 28  1  0
  8 29  1  0
 10 30  1  1
 11 31  1  0
 12 32  1  0
 12 33  1  0
 13 34  1  0
 14 35  1  0
 15 36  1  0
 15 37  1  0
 16 38  1  0
 17 39  1  0
 18 40  1  0
 18 41  1  0
M  END
>  <PDBID>  (1) 
1T03

>  <PDB ID>  (1) 
1T03

>  <Generic Name>  (1) 
Tenofovir

>  <Brand Name>  (1) 
Atripla#Complera#Stribild#Truvada#Viread

>  <DrugBank ID>  (1) 
DB00300

>  <ATC Codes>  (1) 
nan

>  <Ligand ID>  (1) 
TFO

>  <Target Name>  (1) 
Reverse transcriptase/RNaseH

>  <UniProt ID>  (1) 
Q72547

>  <PDB ID.1>  (1) 
1T03

>  <Seq. Identity>  (1) 
95%

$$$$
