PDB_DB01064_03
     RDKit          3D

 76 76  0  0  0  0  0  0  0  0999 V2000
   -4.0567   -0.5456    0.4108 C   0  0  0  0  0  0  0  0  0  0  0  0
   -2.8097    0.1176    0.9362 C   0  0  0  0  0  0  0  0  0  0  0  0
   -3.1517    1.5963    1.1390 C   0  0  0  0  0  0  0  0  0  0  0  0
   -1.7112    0.0680    0.0184 N   0  0  0  0  0  0  0  0  0  0  0  0
   -1.2517   -1.2564   -0.2982 C   0  0  0  0  0  0  0  0  0  0  0  0
   -0.1062   -1.1681   -1.2567 C   0  0  2  0  0  0  0  0  0  0  0  0
    0.3702   -2.4507   -1.5919 O   0  0  0  0  0  0  0  0  0  0  0  0
    1.0655   -0.4058   -0.7354 C   0  0  0  0  0  0  0  0  0  0  0  0
    1.6414   -1.0293    0.5362 C   0  0  0  0  0  0  0  0  0  0  0  0
    0.7758    1.0232   -0.3687 C   0  0  0  0  0  0  0  0  0  0  0  0
    2.1336    1.7020   -0.2723 C   0  0  0  0  0  0  0  0  0  0  0  0
    3.0837    1.0280    0.6414 C   0  0  0  0  0  0  0  0  0  0  0  0
    4.3907    1.3580    0.2063 O   0  0  0  0  0  0  0  0  0  0  0  0
    3.0055   -0.4430    0.7262 C   0  0  0  0  0  0  0  0  0  0  0  0
    3.8511   -1.0383   -0.2272 O   0  0  0  0  0  0  0  0  0  0  0  0
   -4.0567   -0.5456    0.4108 C   0  0  0  0  0  0  0  0  0  0  0  0
   -2.8097    0.1176    0.9362 C   0  0  0  0  0  0  0  0  0  0  0  0
   -3.1517    1.5963    1.1390 C   0  0  0  0  0  0  0  0  0  0  0  0
   -1.7112    0.0680    0.0184 N   0  0  0  0  0  0  0  0  0  0  0  0
   -1.2517   -1.2564   -0.2982 C   0  0  0  0  0  0  0  0  0  0  0  0
   -0.1062   -1.1681   -1.2567 C   0  0  2  0  0  0  0  0  0  0  0  0
    0.3702   -2.4507   -1.5919 O   0  0  0  0  0  0  0  0  0  0  0  0
    1.0655   -0.4058   -0.7354 C   0  0  0  0  0  0  0  0  0  0  0  0
    1.6414   -1.0293    0.5362 C   0  0  0  0  0  0  0  0  0  0  0  0
    0.7758    1.0232   -0.3687 C   0  0  0  0  0  0  0  0  0  0  0  0
    2.1336    1.7020   -0.2723 C   0  0  0  0  0  0  0  0  0  0  0  0
    3.0837    1.0280    0.6414 C   0  0  0  0  0  0  0  0  0  0  0  0
    4.3907    1.3580    0.2063 O   0  0  0  0  0  0  0  0  0  0  0  0
    3.0055   -0.4430    0.7262 C   0  0  0  0  0  0  0  0  0  0  0  0
    3.8511   -1.0383   -0.2272 O   0  0  0  0  0  0  0  0  0  0  0  0
   -4.5417    0.0225   -0.3894 H   0  0  0  0  0  0  0  0  0  0  0  0
   -4.7748   -0.6176    1.2607 H   0  0  0  0  0  0  0  0  0  0  0  0
   -3.8824   -1.5706    0.0684 H   0  0  0  0  0  0  0  0  0  0  0  0
   -2.4983   -0.2671    1.9141 H   0  0  0  0  0  0  0  0  0  0  0  0
   -4.0258    1.7200    1.8128 H   0  0  0  0  0  0  0  0  0  0  0  0
   -2.2369    2.0904    1.5016 H   0  0  0  0  0  0  0  0  0  0  0  0
   -3.4411    2.0467    0.1522 H   0  0  0  0  0  0  0  0  0  0  0  0
   -2.0179    0.5674   -0.8638 H   0  0  0  0  0  0  0  0  0  0  0  0
   -1.0285   -1.8132    0.6124 H   0  0  0  0  0  0  0  0  0  0  0  0
   -2.0833   -1.7710   -0.8604 H   0  0  0  0  0  0  0  0  0  0  0  0
   -0.4284   -0.7055   -2.2101 H   0  0  0  0  0  0  0  0  0  0  0  0
   -0.3895   -3.0856   -1.4522 H   0  0  0  0  0  0  0  0  0  0  0  0
    1.8731   -0.4491   -1.4975 H   0  0  0  0  0  0  0  0  0  0  0  0
    1.7200   -2.1231    0.4275 H   0  0  0  0  0  0  0  0  0  0  0  0
    1.0102   -0.7579    1.4142 H   0  0  0  0  0  0  0  0  0  0  0  0
    0.3420    1.0863    0.6599 H   0  0  0  0  0  0  0  0  0  0  0  0
    0.1714    1.5565   -1.1187 H   0  0  0  0  0  0  0  0  0  0  0  0
    2.0097    2.7658    0.0543 H   0  0  0  0  0  0  0  0  0  0  0  0
    2.5578    1.6748   -1.3152 H   0  0  0  0  0  0  0  0  0  0  0  0
    3.0053    1.5202    1.6555 H   0  0  0  0  0  0  0  0  0  0  0  0
    4.4122    2.3258   -0.0073 H   0  0  0  0  0  0  0  0  0  0  0  0
    3.3709   -0.7588    1.7405 H   0  0  0  0  0  0  0  0  0  0  0  0
    3.6458   -2.0129   -0.2180 H   0  0  0  0  0  0  0  0  0  0  0  0
   -4.5417    0.0225   -0.3894 H   0  0  0  0  0  0  0  0  0  0  0  0
   -4.7748   -0.6176    1.2607 H   0  0  0  0  0  0  0  0  0  0  0  0
   -3.8824   -1.5706    0.0684 H   0  0  0  0  0  0  0  0  0  0  0  0
   -2.4983   -0.2671    1.9141 H   0  0  0  0  0  0  0  0  0  0  0  0
   -4.0258    1.7200    1.8128 H   0  0  0  0  0  0  0  0  0  0  0  0
   -2.2369    2.0904    1.5016 H   0  0  0  0  0  0  0  0  0  0  0  0
   -3.4411    2.0467    0.1522 H   0  0  0  0  0  0  0  0  0  0  0  0
   -2.0179    0.5674   -0.8638 H   0  0  0  0  0  0  0  0  0  0  0  0
   -1.0285   -1.8132    0.6124 H   0  0  0  0  0  0  0  0  0  0  0  0
   -2.0833   -1.7710   -0.8604 H   0  0  0  0  0  0  0  0  0  0  0  0
   -0.4284   -0.7055   -2.2101 H   0  0  0  0  0  0  0  0  0  0  0  0
   -0.3895   -3.0856   -1.4522 H   0  0  0  0  0  0  0  0  0  0  0  0
    1.8731   -0.4491   -1.4975 H   0  0  0  0  0  0  0  0  0  0  0  0
    1.7200   -2.1231    0.4275 H   0  0  0  0  0  0  0  0  0  0  0  0
    1.0102   -0.7579    1.4142 H   0  0  0  0  0  0  0  0  0  0  0  0
    0.3420    1.0863    0.6599 H   0  0  0  0  0  0  0  0  0  0  0  0
    0.1714    1.5565   -1.1187 H   0  0  0  0  0  0  0  0  0  0  0  0
    2.0097    2.7658    0.0543 H   0  0  0  0  0  0  0  0  0  0  0  0
    2.5578    1.6748   -1.3152 H   0  0  0  0  0  0  0  0  0  0  0  0
    3.0053    1.5202    1.6555 H   0  0  0  0  0  0  0  0  0  0  0  0
    4.4122    2.3258   -0.0073 H   0  0  0  0  0  0  0  0  0  0  0  0
    3.3709   -0.7588    1.7405 H   0  0  0  0  0  0  0  0  0  0  0  0
    3.6458   -2.0129   -0.2180 H   0  0  0  0  0  0  0  0  0  0  0  0
  1  2  1  0
  2  3  1  0
  2  4  1  0
  4  5  1  0
  5  6  1  0
  6  7  1  0
  6  8  1  0
  8  9  1  0
  8 10  1  0
 10 11  1  0
 11 12  1  0
 12 13  1  0
  9 14  1  0
 12 14  1  0
 14 15  1  0
 16 17  1  0
 17 18  1  0
 17 19  1  0
 19 20  1  0
 20 21  1  0
 21 22  1  0
 21 23  1  0
 23 24  1  0
 23 25  1  0
 25 26  1  0
 26 27  1  0
 27 28  1  0
 24 29  1  0
 27 29  1  0
 29 30  1  0
  1 31  1  0
  1 32  1  0
  1 33  1  0
  2 34  1  0
  3 35  1  0
  3 36  1  0
  3 37  1  0
  4 38  1  0
  5 39  1  0
  5 40  1  0
  6 41  1  6
  7 42  1  0
  8 43  1  0
  9 44  1  0
  9 45  1  0
 10 46  1  0
 10 47  1  0
 11 48  1  0
 11 49  1  0
 12 50  1  0
 13 51  1  0
 14 52  1  0
 15 53  1  0
 16 54  1  0
 16 55  1  0
 16 56  1  0
 17 57  1  0
 18 58  1  0
 18 59  1  0
 18 60  1  0
 19 61  1  0
 20 62  1  0
 20 63  1  0
 21 64  1  6
 22 65  1  0
 23 66  1  0
 24 67  1  0
 24 68  1  0
 25 69  1  0
 25 70  1  0
 26 71  1  0
 26 72  1  0
 27 73  1  0
 28 74  1  0
 29 75  1  0
 30 76  1  0
M  END
>  <PDBID>  (1) 
2Y03

>  <PDB ID>  (1) 
2Y03

>  <Generic Name>  (1) 
Isoprenaline

>  <Brand Name>  (1) 
Isoproterenol HCl Inj 1:5000#Isoproterenol Hydrochloride Injection USP#Isuprel#Isuprel Inj 0.2mg/ml#Isuprel Liq 0.2mg/ml#Isuprel Liq 0.5%#Isuprel Liq Inh 0.5%#Isuprel Mistometer 125mcg/aem#Isuprel Mistometer Aem 0.25%#Medihaler-Iso#Proternol L#Saventrine

>  <DrugBank ID>  (1) 
DB01064

>  <ATC Codes>  (1) 
R03AK02#R03CB01#R03CB51#R03AB02#C01CA02

>  <Ligand ID>  (1) 
5FW

>  <Target Name>  (1) 
Beta-1 adrenergic receptor

>  <UniProt ID>  (1) 
P08588

>  <PDB ID.1>  (1) 
2Y03

>  <Seq. Identity>  (1) 
63%

$$$$
