PDB_DB04839_00
     RDKit          3D

 68 72  0  0  0  0  0  0  0  0999 V2000
   -4.5331   -0.0689   -1.3655 C   0  0  0  0  0  0  0  0  0  0  0  0
    0.9911   -0.7488   -0.4922 C   0  0  1  0  0  0  0  0  0  0  0  0
   -3.0502    0.2058   -1.3159 C   0  0  2  0  0  0  0  0  0  0  0  0
   -2.2971   -0.6232   -2.2895 C   0  0  0  0  0  0  0  0  0  0  0  0
   -0.5801    0.5388    1.5014 C   0  0  0  0  0  0  0  0  0  0  0  0
   -0.8421   -0.7393   -2.0499 C   0  0  0  0  0  0  0  0  0  0  0  0
   -0.4715   -0.8711   -0.5668 C   0  0  2  0  0  0  0  0  0  0  0  0
   -1.1047    0.3166    0.1251 C   0  0  1  0  0  0  0  0  0  0  0  0
   -2.6066    0.0992    0.0998 C   0  0  2  0  0  0  0  0  0  0  0  0
    0.9255    0.7919    1.3787 C   0  0  0  0  0  0  0  0  0  0  0  0
    1.5444   -0.4655    0.9128 C   0  0  1  0  0  0  0  0  0  0  0  0
   -5.3072    0.9105   -0.5578 C   0  0  0  0  0  0  0  0  0  0  0  0
   -2.9336   -1.2589    0.7106 C   0  0  0  0  0  0  0  0  0  0  0  0
   -3.2965    1.1252    0.9522 C   0  0  1  0  0  0  0  0  0  0  0  0
   -3.5814    2.4896    0.5214 C   0  0  0  0  0  0  0  0  0  0  0  0
   -4.6760    1.4172    0.6632 C   0  0  1  0  0  0  0  0  0  0  0  0
   -5.6550    2.0147   -1.3705 O   0  0  0  0  0  0  0  0  0  0  0  0
   -3.0530   -2.2396   -2.5392 Cl  0  0  0  0  0  0  0  0  0  0  0  0
    1.2369   -1.6256    1.7734 C   0  0  0  0  0  0  0  0  0  0  0  0
    1.7897   -1.9436   -0.8792 C   0  0  0  0  0  0  0  0  0  0  0  0
    3.1663   -1.6484   -0.2626 C   0  0  0  0  0  0  0  0  0  0  0  0
    2.9964   -0.3494    0.4891 C   0  0  2  0  0  0  0  0  0  0  0  0
    3.9491   -0.1142    1.5845 C   0  0  0  0  0  0  0  0  0  0  0  0
    4.1070   -1.1993    2.6035 C   0  0  0  0  0  0  0  0  0  0  0  0
    3.5595    1.0325    2.2946 O   0  0  0  0  0  0  0  0  0  0  0  0
    2.9862    0.7539   -0.3505 O   0  0  0  0  0  0  0  0  0  0  0  0
    4.1408    1.1190   -0.9540 C   0  0  0  0  0  0  0  0  0  0  0  0
    3.9100    0.9777   -2.4712 C   0  0  0  0  0  0  0  0  0  0  0  0
    4.4504    2.4764   -0.7793 O   0  0  0  0  0  0  0  0  0  0  0  0
   -4.6898   -1.1258   -1.0904 H   0  0  0  0  0  0  0  0  0  0  0  0
   -4.8434    0.0486   -2.4394 H   0  0  0  0  0  0  0  0  0  0  0  0
    1.3073    0.0925   -1.1734 H   0  0  0  0  0  0  0  0  0  0  0  0
   -2.9196    1.2798   -1.6193 H   0  0  0  0  0  0  0  0  0  0  0  0
   -2.4209   -0.1299   -3.3028 H   0  0  0  0  0  0  0  0  0  0  0  0
   -1.0077    1.4854    1.8831 H   0  0  0  0  0  0  0  0  0  0  0  0
   -0.7907   -0.2751    2.2091 H   0  0  0  0  0  0  0  0  0  0  0  0
   -0.2336    0.0859   -2.4874 H   0  0  0  0  0  0  0  0  0  0  0  0
   -0.4773   -1.6762   -2.5307 H   0  0  0  0  0  0  0  0  0  0  0  0
   -0.9024   -1.8361   -0.2483 H   0  0  0  0  0  0  0  0  0  0  0  0
   -0.9058    1.2261   -0.4729 H   0  0  0  0  0  0  0  0  0  0  0  0
    1.0536    1.5741    0.6030 H   0  0  0  0  0  0  0  0  0  0  0  0
    1.2362    1.1479    2.3715 H   0  0  0  0  0  0  0  0  0  0  0  0
   -6.2945    0.4316   -0.3096 H   0  0  0  0  0  0  0  0  0  0  0  0
   -4.0001   -1.1863    1.0747 H   0  0  0  0  0  0  0  0  0  0  0  0
   -2.9117   -2.0770   -0.0022 H   0  0  0  0  0  0  0  0  0  0  0  0
   -2.2756   -1.5111    1.5543 H   0  0  0  0  0  0  0  0  0  0  0  0
   -3.0269    1.0048    2.0453 H   0  0  0  0  0  0  0  0  0  0  0  0
   -3.4031    2.8952   -0.4805 H   0  0  0  0  0  0  0  0  0  0  0  0
   -3.5750    3.3085    1.3003 H   0  0  0  0  0  0  0  0  0  0  0  0
   -5.3795    1.6179    1.5245 H   0  0  0  0  0  0  0  0  0  0  0  0
   -6.4076    2.4578   -0.8683 H   0  0  0  0  0  0  0  0  0  0  0  0
    0.2838   -2.0976    1.3844 H   0  0  0  0  0  0  0  0  0  0  0  0
    0.9457   -1.3247    2.8244 H   0  0  0  0  0  0  0  0  0  0  0  0
    1.9695   -2.4401    1.7804 H   0  0  0  0  0  0  0  0  0  0  0  0
    1.8622   -2.0425   -1.9798 H   0  0  0  0  0  0  0  0  0  0  0  0
    1.3611   -2.8670   -0.4913 H   0  0  0  0  0  0  0  0  0  0  0  0
    3.9439   -1.5974   -1.0498 H   0  0  0  0  0  0  0  0  0  0  0  0
    3.4769   -2.4545    0.4142 H   0  0  0  0  0  0  0  0  0  0  0  0
    4.9529    0.0924    1.1812 H   0  0  0  0  0  0  0  0  0  0  0  0
    5.0053   -0.8981    3.2276 H   0  0  0  0  0  0  0  0  0  0  0  0
    4.3564   -2.1879    2.2192 H   0  0  0  0  0  0  0  0  0  0  0  0
    3.2761   -1.2083    3.3666 H   0  0  0  0  0  0  0  0  0  0  0  0
    3.9417    1.8119    1.8523 H   0  0  0  0  0  0  0  0  0  0  0  0
    5.0255    0.4807   -0.7537 H   0  0  0  0  0  0  0  0  0  0  0  0
    4.4446    1.7798   -3.0241 H   0  0  0  0  0  0  0  0  0  0  0  0
    4.1377   -0.0240   -2.8384 H   0  0  0  0  0  0  0  0  0  0  0  0
    2.8188    1.1525   -2.7059 H   0  0  0  0  0  0  0  0  0  0  0  0
    5.3011    2.6127   -0.3142 H   0  0  0  0  0  0  0  0  0  0  0  0
  1  3  1  0
  3  4  1  0
  4  6  1  0
  2  7  1  0
  6  7  1  0
  5  8  1  0
  7  8  1  0
  3  9  1  0
  8  9  1  0
  5 10  1  0
  2 11  1  0
 10 11  1  0
  1 12  1  0
  9 13  1  1
  9 14  1  0
 14 15  1  0
 12 16  1  0
 14 16  1  0
 15 16  1  0
 12 17  1  0
  4 18  1  0
 11 19  1  1
  2 20  1  0
 20 21  1  0
 11 22  1  0
 21 22  1  0
 22 23  1  0
 23 24  1  0
 23 25  1  0
 22 26  1  6
 26 27  1  0
 27 28  1  0
 27 29  1  0
  1 30  1  0
  1 31  1  0
  2 32  1  6
  3 33  1  6
  4 34  1  0
  5 35  1  0
  5 36  1  0
  6 37  1  0
  6 38  1  0
  7 39  1  1
  8 40  1  6
 10 41  1  0
 10 42  1  0
 12 43  1  0
 13 44  1  0
 13 45  1  0
 13 46  1  0
 14 47  1  1
 15 48  1  0
 15 49  1  0
 16 50  1  1
 17 51  1  0
 19 52  1  0
 19 53  1  0
 19 54  1  0
 20 55  1  0
 20 56  1  0
 21 57  1  0
 21 58  1  0
 23 59  1  0
 24 60  1  0
 24 61  1  0
 24 62  1  0
 25 63  1  0
 27 64  1  0
 28 65  1  0
 28 66  1  0
 28 67  1  0
 29 68  1  0
M  END
>  <PDBID>  (1) 
2OZ7

>  <PDB ID>  (1) 
2OZ7

>  <Generic Name>  (1) 
Cyproterone acetate

>  <Brand Name>  (1) 
Alti-cpa#Androcur#Androcur Depot#ClÃ©o -35#Cyestra-35#Cyproterone#Diane-35#Med-cyproterone#Mylan-cyproterone#Novo-cyproterone#Novo-cyproterone/ethinyl Estradiol#Ran-cyproterone/ethinyl Estradiol#Riva-cyproterone#Riva-cyproterone 50 mg#Cyprostat

>  <DrugBank ID>  (1) 
DB04839

>  <ATC Codes>  (1) 
G03HB01#G03HA01

>  <Ligand ID>  (1) 
CA4

>  <Target Name>  (1) 
Androgen receptor

>  <UniProt ID>  (1) 
P10275

>  <PDB ID.1>  (1) 
2OZ7

>  <Seq. Identity>  (1) 
100%

$$$$
