PDB_DB00705_01
     RDKit          3D

 78 81  0  0  0  0  0  0  0  0999 V2000
   -4.4519   -1.2363   -0.2934 C   0  0  0  0  0  0  0  0  0  0  0  0
   -5.4853   -0.2327    0.1675 C   0  0  0  0  0  0  0  0  0  0  0  0
   -5.9969    0.5352   -1.0142 C   0  0  0  0  0  0  0  0  0  0  0  0
   -6.3196   -0.4458   -2.1658 C   0  0  0  0  0  0  0  0  0  0  0  0
   -5.0419   -1.1238   -2.6185 C   0  0  0  0  0  0  0  0  0  0  0  0
   -2.5340   -0.1733    0.7646 C   0  0  0  0  0  0  0  0  0  0  0  0
   -1.0673   -0.3670    0.5182 C   0  0  0  0  0  0  0  0  0  0  0  0
   -1.5224   -2.7493    0.2453 C   0  0  0  0  0  0  0  0  0  0  0  0
   -2.8357   -2.5744    0.9224 C   0  0  0  0  0  0  0  0  0  0  0  0
    0.7470   -1.9933    0.4162 C   0  0  0  0  0  0  0  0  0  0  0  0
    1.5615   -1.3427   -0.6688 C   0  0  0  0  0  0  0  0  0  0  0  0
    1.8651    0.1022   -0.4494 C   0  0  0  0  0  0  0  0  0  0  0  0
    4.0622    1.2195    0.1349 C   0  0  0  0  0  0  0  0  0  0  0  0
    5.5251    1.1360   -0.2435 C   0  0  0  0  0  0  0  0  0  0  0  0
    5.9439   -0.1935   -0.7580 C   0  0  0  0  0  0  0  0  0  0  0  0
    5.1885   -1.3744   -0.2642 C   0  0  0  0  0  0  0  0  0  0  0  0
    3.7346   -1.1782   -0.0330 C   0  0  0  0  0  0  0  0  0  0  0  0
    3.3611    0.1747   -0.6659 C   0  0  0  0  0  0  0  0  0  0  0  0
   -5.5387    1.7281    1.6334 C   0  0  0  0  0  0  0  0  0  0  0  0
   -6.9761    1.7243    2.0456 C   0  0  0  0  0  0  0  0  0  0  0  0
   -5.2063    2.8287    0.6586 C   0  0  0  0  0  0  0  0  0  0  0  0
    8.7501    3.0704    0.8614 C   0  0  0  0  0  0  0  0  0  0  0  0
   -4.9877    0.4952    1.2571 N   0  0  0  0  0  0  0  0  0  0  0  0
   -3.9810   -0.9281   -1.6436 N   0  0  0  0  0  0  0  0  0  0  0  0
   -3.3534   -1.2963    0.5958 N   0  0  0  0  0  0  0  0  0  0  0  0
   -0.6150   -1.6670    0.3489 N   0  0  0  0  0  0  0  0  0  0  0  0
    2.8722   -2.0203   -0.7901 N   0  0  0  0  0  0  0  0  0  0  0  0
    6.3672    1.6403    0.8238 N   0  0  0  0  0  0  0  0  0  0  0  0
    1.3542   -1.8954    1.6633 O   0  0  0  0  0  0  0  0  0  0  0  0
    7.9686    1.6516   -1.2569 O   0  0  0  0  0  0  0  0  0  0  0  0
    8.7828    0.3869    0.8810 O   0  0  0  0  0  0  0  0  0  0  0  0
    8.0339    1.5305    0.3344 S   0  0  0  0  0  0  0  0  0  0  0  0
   -4.8844   -2.2703   -0.3818 H   0  0  0  0  0  0  0  0  0  0  0  0
   -6.3551   -0.8935    0.5184 H   0  0  0  0  0  0  0  0  0  0  0  0
   -6.9966    0.9534   -0.7690 H   0  0  0  0  0  0  0  0  0  0  0  0
   -5.2989    1.2461   -1.4521 H   0  0  0  0  0  0  0  0  0  0  0  0
   -7.1029   -1.1535   -1.8490 H   0  0  0  0  0  0  0  0  0  0  0  0
   -6.7314    0.1657   -2.9893 H   0  0  0  0  0  0  0  0  0  0  0  0
   -5.2637   -2.1958   -2.7946 H   0  0  0  0  0  0  0  0  0  0  0  0
   -4.7293   -0.6900   -3.5904 H   0  0  0  0  0  0  0  0  0  0  0  0
   -2.7044    0.2820    1.7632 H   0  0  0  0  0  0  0  0  0  0  0  0
   -2.8893    0.6196    0.0426 H   0  0  0  0  0  0  0  0  0  0  0  0
   -0.7132    0.2740   -0.3155 H   0  0  0  0  0  0  0  0  0  0  0  0
   -0.5514    0.0570    1.4359 H   0  0  0  0  0  0  0  0  0  0  0  0
   -1.0303   -3.6346    0.7484 H   0  0  0  0  0  0  0  0  0  0  0  0
   -1.6589   -3.0831   -0.7999 H   0  0  0  0  0  0  0  0  0  0  0  0
   -2.8072   -2.8070    2.0075 H   0  0  0  0  0  0  0  0  0  0  0  0
   -3.5357   -3.3434    0.4785 H   0  0  0  0  0  0  0  0  0  0  0  0
    0.8046   -3.1205    0.1719 H   0  0  0  0  0  0  0  0  0  0  0  0
    1.0591   -1.4248   -1.6650 H   0  0  0  0  0  0  0  0  0  0  0  0
    1.4148    0.7757   -1.2290 H   0  0  0  0  0  0  0  0  0  0  0  0
    1.5595    0.4754    0.5238 H   0  0  0  0  0  0  0  0  0  0  0  0
    4.0029    0.9302    1.2195 H   0  0  0  0  0  0  0  0  0  0  0  0
    3.6556    2.2432    0.0181 H   0  0  0  0  0  0  0  0  0  0  0  0
    5.6537    1.8767   -1.0877 H   0  0  0  0  0  0  0  0  0  0  0  0
    5.9762   -0.2058   -1.8847 H   0  0  0  0  0  0  0  0  0  0  0  0
    7.0267   -0.3367   -0.4733 H   0  0  0  0  0  0  0  0  0  0  0  0
    5.2927   -2.1832   -1.0437 H   0  0  0  0  0  0  0  0  0  0  0  0
    5.6353   -1.8252    0.6563 H   0  0  0  0  0  0  0  0  0  0  0  0
    3.4532   -1.1275    1.0382 H   0  0  0  0  0  0  0  0  0  0  0  0
    3.5918    0.1673   -1.7325 H   0  0  0  0  0  0  0  0  0  0  0  0
   -4.9720    2.0381    2.5832 H   0  0  0  0  0  0  0  0  0  0  0  0
   -7.1535    2.4249    2.9110 H   0  0  0  0  0  0  0  0  0  0  0  0
   -7.3537    0.7543    2.3746 H   0  0  0  0  0  0  0  0  0  0  0  0
   -7.5706    2.1761    1.2064 H   0  0  0  0  0  0  0  0  0  0  0  0
   -5.0618    3.8101    1.1797 H   0  0  0  0  0  0  0  0  0  0  0  0
   -4.2436    2.6340    0.1573 H   0  0  0  0  0  0  0  0  0  0  0  0
   -6.0653    2.9906   -0.0102 H   0  0  0  0  0  0  0  0  0  0  0  0
    9.7900    2.8507    1.1610 H   0  0  0  0  0  0  0  0  0  0  0  0
    8.7935    3.7908    0.0258 H   0  0  0  0  0  0  0  0  0  0  0  0
    8.1962    3.4650    1.7348 H   0  0  0  0  0  0  0  0  0  0  0  0
   -5.0010   -0.1739    2.0960 H   0  0  0  0  0  0  0  0  0  0  0  0
   -3.2611   -1.6535   -1.8600 H   0  0  0  0  0  0  0  0  0  0  0  0
    2.7673   -2.9808   -0.4543 H   0  0  0  0  0  0  0  0  0  0  0  0
    6.2823    1.1093    1.7109 H   0  0  0  0  0  0  0  0  0  0  0  0
    0.9496   -1.2103    2.2406 H   0  0  0  0  0  0  0  0  0  0  0  0
    8.4836    2.3489   -1.7082 H   0  0  0  0  0  0  0  0  0  0  0  0
    9.3421    0.4228    1.6728 H   0  0  0  0  0  0  0  0  0  0  0  0
  1  2  1  0
  2  3  1  0
  3  4  1  0
  4  5  1  0
  6  7  1  0
  8  9  1  0
 10 11  1  0
 11 12  1  0
 13 14  1  0
 14 15  1  0
 15 16  1  0
 16 17  1  0
 12 18  1  0
 13 18  1  0
 17 18  1  0
 19 20  1  0
 19 21  1  0
  2 23  1  0
 19 23  1  0
  1 24  1  0
  5 24  1  0
  1 25  1  0
  6 25  1  0
  9 25  1  0
  7 26  1  0
  8 26  1  0
 10 26  1  0
 11 27  1  0
 17 27  1  0
 14 28  1  0
 10 29  1  0
 22 32  1  0
 28 32  1  0
 32 30  1  0
 31 32  1  0
  1 33  1  0
  2 34  1  0
  3 35  1  0
  3 36  1  0
  4 37  1  0
  4 38  1  0
  5 39  1  0
  5 40  1  0
  6 41  1  0
  6 42  1  0
  7 43  1  0
  7 44  1  0
  8 45  1  0
  8 46  1  0
  9 47  1  0
  9 48  1  0
 10 49  1  0
 11 50  1  0
 12 51  1  0
 12 52  1  0
 13 53  1  0
 13 54  1  0
 14 55  1  0
 15 56  1  0
 15 57  1  0
 16 58  1  0
 16 59  1  0
 17 60  1  0
 18 61  1  0
 19 62  1  0
 20 63  1  0
 20 64  1  0
 20 65  1  0
 21 66  1  0
 21 67  1  0
 21 68  1  0
 22 69  1  0
 22 70  1  0
 22 71  1  0
 23 72  1  0
 24 73  1  0
 27 74  1  0
 28 75  1  0
 29 76  1  0
 30 77  1  0
 31 78  1  0
M  END
>  <PDBID>  (1) 
1KLM

>  <PDB ID>  (1) 
1KLM

>  <Generic Name>  (1) 
Delavirdine

>  <Brand Name>  (1) 
Rescriptor

>  <DrugBank ID>  (1) 
DB00705

>  <ATC Codes>  (1) 
J05AG02

>  <Ligand ID>  (1) 
SPP

>  <Target Name>  (1) 
Reverse transcriptase/RNaseH

>  <UniProt ID>  (1) 
Q72547

>  <PDB ID.1>  (1) 
1KLM

>  <Seq. Identity>  (1) 
95%

$$$$
