PDB_DB00182_04
     RDKit          3D

 29 29  0  0  0  0  0  0  0  0999 V2000
   -2.1220   -0.1171    1.3545 N   0  0  0  0  0  0  0  0  0  0  0  0
   -2.3203   -0.0462   -0.1046 C   0  0  1  0  0  0  0  0  0  0  0  0
   -2.8474    1.2903   -0.4597 C   0  0  0  0  0  0  0  0  0  0  0  0
   -1.0893   -0.4946   -0.7751 C   0  0  0  0  0  0  0  0  0  0  0  0
    0.1682    0.2318   -0.5321 C   0  0  0  0  0  0  0  0  0  0  0  0
    1.2369   -0.4799   -1.3669 C   0  0  0  0  0  0  0  0  0  0  0  0
    0.5811    0.4081    0.8836 C   0  0  0  0  0  0  0  0  0  0  0  0
    2.0362   -1.3238   -0.3919 C   0  0  0  0  0  0  0  0  0  0  0  0
    2.0441    0.5900    1.1093 C   0  0  0  0  0  0  0  0  0  0  0  0
    2.9307   -0.3021    0.3209 C   0  0  0  0  0  0  0  0  0  0  0  0
   -3.0248    0.2275    1.8014 H   0  0  0  0  0  0  0  0  0  0  0  0
   -2.0582   -1.1224    1.6591 H   0  0  0  0  0  0  0  0  0  0  0  0
   -3.1195   -0.7935   -0.3069 H   0  0  0  0  0  0  0  0  0  0  0  0
   -2.6444    1.6022   -1.5029 H   0  0  0  0  0  0  0  0  0  0  0  0
   -2.5299    2.0754    0.2790 H   0  0  0  0  0  0  0  0  0  0  0  0
   -3.9694    1.2958   -0.3722 H   0  0  0  0  0  0  0  0  0  0  0  0
   -0.9343   -1.5726   -0.5547 H   0  0  0  0  0  0  0  0  0  0  0  0
   -1.2591   -0.4642   -1.8949 H   0  0  0  0  0  0  0  0  0  0  0  0
    0.0791    1.2535   -1.0075 H   0  0  0  0  0  0  0  0  0  0  0  0
    1.8983    0.2450   -1.8813 H   0  0  0  0  0  0  0  0  0  0  0  0
    0.8162   -1.1396   -2.1195 H   0  0  0  0  0  0  0  0  0  0  0  0
    0.1171    1.3419    1.2770 H   0  0  0  0  0  0  0  0  0  0  0  0
    0.2317   -0.4047    1.5522 H   0  0  0  0  0  0  0  0  0  0  0  0
    1.3777   -1.7459    0.4029 H   0  0  0  0  0  0  0  0  0  0  0  0
    2.6339   -2.1004   -0.8923 H   0  0  0  0  0  0  0  0  0  0  0  0
    2.3788    1.6480    0.9683 H   0  0  0  0  0  0  0  0  0  0  0  0
    2.2428    0.3805    2.2020 H   0  0  0  0  0  0  0  0  0  0  0  0
    3.7458   -0.7726    0.8653 H   0  0  0  0  0  0  0  0  0  0  0  0
    3.4000    0.2893   -0.5130 H   0  0  0  0  0  0  0  0  0  0  0  0
  1  2  1  0
  2  3  1  0
  2  4  1  0
  4  5  1  0
  5  6  1  0
  5  7  1  0
  6  8  1  0
  7  9  1  0
  8 10  1  0
  9 10  1  0
  1 11  1  0
  1 12  1  0
  2 13  1  1
  3 14  1  0
  3 15  1  0
  3 16  1  0
  4 17  1  0
  4 18  1  0
  5 19  1  0
  6 20  1  0
  6 21  1  0
  7 22  1  0
  7 23  1  0
  8 24  1  0
  8 25  1  0
  9 26  1  0
  9 27  1  0
 10 28  1  0
 10 29  1  0
M  END
>  <PDBID>  (1) 
4XP9

>  <PDB ID>  (1) 
4XP9

>  <Generic Name>  (1) 
Amphetamine

>  <Brand Name>  (1) 
Act Amphetamine XR#Adderall#Adderall XR#Adzenys XR-odt#Apo-amphetamine XR#Dextroamphetamine Saccharate and Amphetamine Aspartate and Dextroamphetamine Sulfate and Amphetamine Sulfate#Dextroamphetamine Saccharate, Amphetamine Aspartate (monohydrate), Dextroamphetamine Sulfate, Amphetamine Sulfate#Dextroamphetamine Saccharate, Amphetamine Aspartate Monohydrate, Dextroamphetamine Sulfate and Amphetamine Sulfate#Dextroamphetamine Saccharate, Amphetamine Aspartate Monohydrate, Dextroamphetamine Sulfate, Amphetamine Sulfate#Dextroamphetamine Saccharate, Amphetamine Aspartate, Dextroamphetamine Sulfate and Amphetamine Suflate#Dextroamphetamine Saccharate, Amphetamine Aspartate, Dextroamphetamine Sulfate and Amphetamine Sulfate#Dextroamphetamine Saccharate, Amphetamine Aspartate, Dextroamphetamine Sulfate, and Amphetamine Sulfate#Dyanavel XR#Evekeo#PMS-amphetamines XR#Sandoz Amphetamine XR

>  <DrugBank ID>  (1) 
DB00182

>  <ATC Codes>  (1) 
N06BA01

>  <Ligand ID>  (1) 
1WE,FRD

>  <Target Name>  (1) 
Sodium-dependent dopamine transporter

>  <UniProt ID>  (1) 
Q01959

>  <PDB ID.1>  (1) 
4XP9

>  <Seq. Identity>  (1) 
52%

$$$$
