PDB_DB01259_06
     RDKit          3D

 94 98  0  0  0  0  0  0  0  0999 V2000
   -7.4150    1.4669   -0.4285 C   0  0  0  0  0  0  0  0  0  0  0  0
   -9.0045    1.0304    0.0947 S   0  0  0  0  0  0  0  0  0  0  0  0
  -10.0585    1.8232   -1.0166 O   0  0  0  0  0  0  0  0  0  0  0  0
   -9.3661    1.5478    1.4865 O   0  0  0  0  0  0  0  0  0  0  0  0
   -9.2946   -0.6465   -0.1198 C   0  0  0  0  0  0  0  0  0  0  0  0
   -8.4315   -1.5947    0.6198 C   0  0  0  0  0  0  0  0  0  0  0  0
   -7.0348   -1.5870    0.3475 N   0  0  0  0  0  0  0  0  0  0  0  0
   -6.7021   -2.0613   -0.9432 C   0  0  0  0  0  0  0  0  0  0  0  0
   -5.2105   -2.0472   -1.2370 C   0  0  0  0  0  0  0  0  0  0  0  0
   -4.4428   -2.9402   -0.3229 C   0  0  0  0  0  0  0  0  0  0  0  0
   -3.5159   -1.9958    0.3990 C   0  0  0  0  0  0  0  0  0  0  0  0
   -3.7286   -0.6454   -0.2463 C   0  0  0  0  0  0  0  0  0  0  0  0
   -4.7384   -0.7830   -1.1459 O   0  0  0  0  0  0  0  0  0  0  0  0
   -2.4496   -0.1644   -0.9557 C   0  0  0  0  0  0  0  0  0  0  0  0
   -2.6689    1.1495   -1.5880 C   0  0  0  0  0  0  0  0  0  0  0  0
   -2.1093    2.3527   -0.9412 C   0  0  0  0  0  0  0  0  0  0  0  0
   -1.5187    2.0292    0.3874 C   0  0  0  0  0  0  0  0  0  0  0  0
   -0.8422    3.1046    1.0449 N   0  0  0  0  0  0  0  0  0  0  0  0
   -0.6531    2.6955    2.4462 C   0  0  0  0  0  0  0  0  0  0  0  0
   -0.4369    1.2652    2.4525 N   0  0  0  0  0  0  0  0  0  0  0  0
    0.3963    0.9282    1.3443 C   0  0  0  0  0  0  0  0  0  0  0  0
    1.2041   -0.2240    1.5200 N   0  0  0  0  0  0  0  0  0  0  0  0
    2.2146   -0.4071    0.5005 C   0  0  0  0  0  0  0  0  0  0  0  0
    2.6935   -1.8259    0.5764 C   0  0  0  0  0  0  0  0  0  0  0  0
    4.0027   -2.1152   -0.0472 C   0  0  0  0  0  0  0  0  0  0  0  0
    5.1031   -1.0730    0.2862 C   0  0  0  0  0  0  0  0  0  0  0  0
    6.2420   -1.6826    0.6662 O   0  0  0  0  0  0  0  0  0  0  0  0
    7.3636   -1.6076   -0.0333 C   0  0  0  0  0  0  0  0  0  0  0  0
    8.1462   -0.3650   -0.2059 C   0  0  0  0  0  0  0  0  0  0  0  0
    9.3549   -0.7974   -1.0897 C   0  0  0  0  0  0  0  0  0  0  0  0
   10.1353    0.4047   -1.4634 C   0  0  0  0  0  0  0  0  0  0  0  0
    9.9110    1.5446   -0.4812 C   0  0  0  0  0  0  0  0  0  0  0  0
    8.4997    2.0113   -0.5656 C   0  0  0  0  0  0  0  0  0  0  0  0
    8.3306    2.9846   -1.5106 F   0  0  0  0  0  0  0  0  0  0  0  0
    7.5612    0.8092   -0.8579 C   0  0  0  0  0  0  0  0  0  0  0  0
    4.4757   -0.2130    1.3605 C   0  0  0  0  0  0  0  0  0  0  0  0
    5.5930    0.7825    2.2598 Cl  0  0  0  0  0  0  0  0  0  0  0  0
    3.3600    0.5774    0.6732 C   0  0  0  0  0  0  0  0  0  0  0  0
   -0.4557    0.9524    0.1037 C   0  0  0  0  0  0  0  0  0  0  0  0
   -1.2329   -0.3096   -0.1108 C   0  0  0  0  0  0  0  0  0  0  0  0
   -7.4344    2.4745   -0.9467 H   0  0  0  0  0  0  0  0  0  0  0  0
   -6.9831    0.7837   -1.1536 H   0  0  0  0  0  0  0  0  0  0  0  0
   -6.6918    1.6108    0.4179 H   0  0  0  0  0  0  0  0  0  0  0  0
  -10.9893    1.6726   -0.7588 H   0  0  0  0  0  0  0  0  0  0  0  0
   -8.6755    1.5940    2.2006 H   0  0  0  0  0  0  0  0  0  0  0  0
   -9.3588   -0.8978   -1.2250 H   0  0  0  0  0  0  0  0  0  0  0  0
  -10.3546   -0.8383    0.2347 H   0  0  0  0  0  0  0  0  0  0  0  0
   -8.8400   -2.6493    0.4633 H   0  0  0  0  0  0  0  0  0  0  0  0
   -8.6134   -1.4124    1.7223 H   0  0  0  0  0  0  0  0  0  0  0  0
   -6.5975   -0.7156    0.6392 H   0  0  0  0  0  0  0  0  0  0  0  0
   -7.0386   -3.1377   -1.0420 H   0  0  0  0  0  0  0  0  0  0  0  0
   -7.2254   -1.5137   -1.7316 H   0  0  0  0  0  0  0  0  0  0  0  0
   -5.1240   -2.4951   -2.2592 H   0  0  0  0  0  0  0  0  0  0  0  0
   -3.8502   -3.7230   -0.8829 H   0  0  0  0  0  0  0  0  0  0  0  0
   -5.0984   -3.4986    0.3813 H   0  0  0  0  0  0  0  0  0  0  0  0
   -2.4673   -2.3236    0.1909 H   0  0  0  0  0  0  0  0  0  0  0  0
   -3.7242   -1.9998    1.4845 H   0  0  0  0  0  0  0  0  0  0  0  0
   -3.9873    0.0502    0.5821 H   0  0  0  0  0  0  0  0  0  0  0  0
   -2.3351   -0.9176   -1.7963 H   0  0  0  0  0  0  0  0  0  0  0  0
   -2.3515    1.1478   -2.6734 H   0  0  0  0  0  0  0  0  0  0  0  0
   -3.7870    1.3054   -1.6654 H   0  0  0  0  0  0  0  0  0  0  0  0
   -2.8231    3.2034   -0.8461 H   0  0  0  0  0  0  0  0  0  0  0  0
   -1.2679    2.7726   -1.5685 H   0  0  0  0  0  0  0  0  0  0  0  0
   -2.2545    1.6186    1.1115 H   0  0  0  0  0  0  0  0  0  0  0  0
   -1.3836    4.0167    1.0116 H   0  0  0  0  0  0  0  0  0  0  0  0
    0.2937    3.1747    2.7705 H   0  0  0  0  0  0  0  0  0  0  0  0
   -1.5162    2.9871    3.0705 H   0  0  0  0  0  0  0  0  0  0  0  0
   -0.1064    0.9085    3.3695 H   0  0  0  0  0  0  0  0  0  0  0  0
    1.1113    1.8003    1.2183 H   0  0  0  0  0  0  0  0  0  0  0  0
    0.6407   -1.1214    1.5162 H   0  0  0  0  0  0  0  0  0  0  0  0
    1.7545   -0.2391   -0.4891 H   0  0  0  0  0  0  0  0  0  0  0  0
    2.5692   -2.2533    1.6161 H   0  0  0  0  0  0  0  0  0  0  0  0
    1.9286   -2.4270   -0.0149 H   0  0  0  0  0  0  0  0  0  0  0  0
    4.3749   -3.0830    0.3954 H   0  0  0  0  0  0  0  0  0  0  0  0
    3.9490   -2.2959   -1.1323 H   0  0  0  0  0  0  0  0  0  0  0  0
    5.2018   -0.5196   -0.6683 H   0  0  0  0  0  0  0  0  0  0  0  0
    8.1016   -2.3563    0.4485 H   0  0  0  0  0  0  0  0  0  0  0  0
    7.2047   -2.1117   -1.0509 H   0  0  0  0  0  0  0  0  0  0  0  0
    8.5709   -0.0550    0.7899 H   0  0  0  0  0  0  0  0  0  0  0  0
    9.9249   -1.5555   -0.5127 H   0  0  0  0  0  0  0  0  0  0  0  0
    8.8918   -1.2595   -1.9832 H   0  0  0  0  0  0  0  0  0  0  0  0
    9.8280    0.8056   -2.4731 H   0  0  0  0  0  0  0  0  0  0  0  0
   11.2253    0.2275   -1.5567 H   0  0  0  0  0  0  0  0  0  0  0  0
   10.2364    1.2269    0.5223 H   0  0  0  0  0  0  0  0  0  0  0  0
   10.5972    2.3678   -0.8130 H   0  0  0  0  0  0  0  0  0  0  0  0
    8.2123    2.4573    0.4318 H   0  0  0  0  0  0  0  0  0  0  0  0
    7.5349    0.7520   -1.9801 H   0  0  0  0  0  0  0  0  0  0  0  0
    6.5894    1.1788   -0.4851 H   0  0  0  0  0  0  0  0  0  0  0  0
    3.9636   -0.8857    2.0972 H   0  0  0  0  0  0  0  0  0  0  0  0
    3.1177    1.4192    1.3260 H   0  0  0  0  0  0  0  0  0  0  0  0
    3.7716    0.8772   -0.3119 H   0  0  0  0  0  0  0  0  0  0  0  0
    0.1145    1.2122   -0.7909 H   0  0  0  0  0  0  0  0  0  0  0  0
   -0.5261   -1.0954   -0.4491 H   0  0  0  0  0  0  0  0  0  0  0  0
   -1.5801   -0.6387    0.9127 H   0  0  0  0  0  0  0  0  0  0  0  0
  1  2  1  0
  2  3  1  0
  2  4  1  0
  2  5  1  0
  5  6  1  0
  6  7  1  0
  7  8  1  0
  8  9  1  0
  9 10  1  0
 10 11  1  0
 11 12  1  0
  9 13  1  0
 12 13  1  0
 12 14  1  0
 14 15  1  0
 15 16  1  0
 16 17  1  0
 17 18  1  0
 18 19  1  0
 19 20  1  0
 20 21  1  0
 21 22  1  0
 22 23  1  0
 23 24  1  0
 24 25  1  0
 25 26  1  0
 26 27  1  0
 27 28  1  0
 28 29  1  0
 29 30  1  0
 30 31  1  0
 31 32  1  0
 32 33  1  0
 33 34  1  0
 29 35  1  0
 33 35  1  0
 26 36  1  0
 36 37  1  0
 23 38  1  0
 36 38  1  0
 17 39  1  0
 21 39  1  0
 14 40  1  0
 39 40  1  0
  1 41  1  0
  1 42  1  0
  1 43  1  0
  3 44  1  0
  4 45  1  0
  5 46  1  0
  5 47  1  0
  6 48  1  0
  6 49  1  0
  7 50  1  0
  8 51  1  0
  8 52  1  0
  9 53  1  0
 10 54  1  0
 10 55  1  0
 11 56  1  0
 11 57  1  0
 12 58  1  0
 14 59  1  0
 15 60  1  0
 15 61  1  0
 16 62  1  0
 16 63  1  0
 17 64  1  0
 18 65  1  0
 19 66  1  0
 19 67  1  0
 20 68  1  0
 21 69  1  0
 22 70  1  0
 23 71  1  0
 24 72  1  0
 24 73  1  0
 25 74  1  0
 25 75  1  0
 26 76  1  0
 28 77  1  0
 28 78  1  0
 29 79  1  0
 30 80  1  0
 30 81  1  0
 31 82  1  0
 31 83  1  0
 32 84  1  0
 32 85  1  0
 33 86  1  0
 35 87  1  0
 35 88  1  0
 36 89  1  0
 38 90  1  0
 38 91  1  0
 39 92  1  0
 40 93  1  0
 40 94  1  0
M  END
>  <PDBID>  (1) 
1XKK

>  <PDB ID>  (1) 
1XKK

>  <Generic Name>  (1) 
Lapatinib

>  <Brand Name>  (1) 
Tykerb#Tycerb

>  <DrugBank ID>  (1) 
DB01259

>  <ATC Codes>  (1) 
L01XE07

>  <Ligand ID>  (1) 
FMM

>  <Target Name>  (1) 
Receptor tyrosine-protein kinase erbB-2

>  <UniProt ID>  (1) 
P04626

>  <PDB ID.1>  (1) 
1XKK

>  <Seq. Identity>  (1) 
78%

$$$$
