PDB_DB00181_05
     RDKit          3D

 34 34  0  0  0  0  0  0  0  0999 V2000
    3.8028    1.1807    0.7198 Cl  0  0  0  0  0  0  0  0  0  0  0  0
    3.2791   -0.3860    0.0515 C   0  0  0  0  0  0  0  0  0  0  0  0
    2.7438   -0.2108   -1.3371 C   0  0  0  0  0  0  0  0  0  0  0  0
    1.2371   -0.3396   -1.3029 C   0  0  0  0  0  0  0  0  0  0  0  0
    2.2738   -0.9664    1.0143 C   0  0  0  0  0  0  0  0  0  0  0  0
    1.0611   -0.0493    1.1034 C   0  0  0  0  0  0  0  0  0  0  0  0
    0.7158    0.5617   -0.2101 C   0  0  0  0  0  0  0  0  0  0  0  0
   -0.7819    0.7616   -0.4278 C   0  0  2  0  0  0  0  0  0  0  0  0
   -1.3795    1.6394    0.6077 C   0  0  0  0  0  0  0  0  0  0  0  0
   -1.2865    1.1716    1.9504 N   0  0  0  0  0  0  0  0  0  0  0  0
   -1.4718   -0.5437   -0.6086 C   0  0  0  0  0  0  0  0  0  0  0  0
   -2.9486   -0.4970   -0.8322 C   0  0  0  0  0  0  0  0  0  0  0  0
   -3.6765    0.0584    0.1942 O   0  0  0  0  0  0  0  0  0  0  0  0
   -3.4513   -1.7661   -1.1940 O   0  0  0  0  0  0  0  0  0  0  0  0
    4.1619   -1.0482   -0.0119 H   0  0  0  0  0  0  0  0  0  0  0  0
    3.1505   -0.9484   -2.0604 H   0  0  0  0  0  0  0  0  0  0  0  0
    3.0266    0.8101   -1.6877 H   0  0  0  0  0  0  0  0  0  0  0  0
    0.9794   -1.4058   -1.1043 H   0  0  0  0  0  0  0  0  0  0  0  0
    0.7636   -0.0919   -2.2745 H   0  0  0  0  0  0  0  0  0  0  0  0
    1.9989   -2.0064    0.7782 H   0  0  0  0  0  0  0  0  0  0  0  0
    2.7389   -0.9759    2.0202 H   0  0  0  0  0  0  0  0  0  0  0  0
    1.3768    0.7960    1.7815 H   0  0  0  0  0  0  0  0  0  0  0  0
    0.2406   -0.6025    1.5552 H   0  0  0  0  0  0  0  0  0  0  0  0
    1.1884    1.5651   -0.3643 H   0  0  0  0  0  0  0  0  0  0  0  0
   -0.8541    1.3134   -1.4080 H   0  0  0  0  0  0  0  0  0  0  0  0
   -2.4240    1.8646    0.3623 H   0  0  0  0  0  0  0  0  0  0  0  0
   -0.8345    2.6365    0.5765 H   0  0  0  0  0  0  0  0  0  0  0  0
   -2.1890    0.8958    2.3774 H   0  0  0  0  0  0  0  0  0  0  0  0
   -0.6841    1.7458    2.5737 H   0  0  0  0  0  0  0  0  0  0  0  0
   -1.0422   -1.1132   -1.4693 H   0  0  0  0  0  0  0  0  0  0  0  0
   -1.2488   -1.1767    0.2993 H   0  0  0  0  0  0  0  0  0  0  0  0
   -3.1589    0.1378   -1.7442 H   0  0  0  0  0  0  0  0  0  0  0  0
   -4.2601   -0.5783    0.6443 H   0  0  0  0  0  0  0  0  0  0  0  0
   -3.0474   -2.4322   -0.5723 H   0  0  0  0  0  0  0  0  0  0  0  0
  1  2  1  0
  2  3  1  0
  3  4  1  0
  2  5  1  0
  5  6  1  0
  4  7  1  0
  6  7  1  0
  7  8  1  0
  8  9  1  0
  9 10  1  0
  8 11  1  0
 11 12  1  0
 12 13  1  0
 12 14  1  0
  2 15  1  0
  3 16  1  0
  3 17  1  0
  4 18  1  0
  4 19  1  0
  5 20  1  0
  5 21  1  0
  6 22  1  0
  6 23  1  0
  7 24  1  0
  8 25  1  6
  9 26  1  0
  9 27  1  0
 10 28  1  0
 10 29  1  0
 11 30  1  0
 11 31  1  0
 12 32  1  0
 13 33  1  0
 14 34  1  0
M  END
>  <PDBID>  (1) 
4MS4

>  <PDB ID>  (1) 
4MS4

>  <Generic Name>  (1) 
Baclofen

>  <Brand Name>  (1) 
Apo-baclofen Tablets - 10mg#Apo-baclofen Tablets - 20mg#Ava-baclofen#Baclofen#Baclofen Injection#Baclofen Tablets - 10mg#Baclofen Tablets - 20mg#Baclofen Tablets 10mg#Baclofen Tablets 20mg#Baclofen-10 - Tab#Baclofen-20 - Tab#Co Baclofen Tablets 10mg#Co Baclofen Tablets 20mg#Dom-baclofen-tab 10mg#Dom-baclofen-tab 20mg#Equipto - Baclofen External Cream Compounding Kit#Ftp-baclofen#Gablofen#Gapeam Budibac#Lioresal#Lioresal D.S. Tab 20mg#Lioresal Intrathecal 0.05mg/ml#Lioresal Intrathecal 0.5mg/ml#Lioresal Intrathecal 2mg/ml#Lioresal Tab 10mg#Med Baclofen Tab 10mg#Med Baclofen Tab 20mg#Mylan-baclofen#Novo-baclofen#PHL-baclofen#PMS-baclofen#PMS-baclofen Tab 20mg#Penta-baclofen Tablets#Ratio-baclofen#Riva-baclofen#Sandoz Baclofen#Val-baclofen Intrathecal#Baclon#Kemstro#Lioresal Intrathecal#Nu-Baclofen

>  <DrugBank ID>  (1) 
DB00181

>  <ATC Codes>  (1) 
M03BX01

>  <Ligand ID>  (1) 
2C0

>  <Target Name>  (1) 
Gamma-aminobutyric acid type B receptor subunit 1

>  <UniProt ID>  (1) 
Q9UBS5

>  <PDB ID.1>  (1) 
4MS4

>  <Seq. Identity>  (1) 
34%

$$$$
