PDB_DB00293_08
     RDKit          3D

296304  0  0  0  0  0  0  0  0999 V2000
    6.8726   -0.8437   -0.6735 N   0  0  0  0  0  0  0  0  0  0  0  0
    7.7729   -0.1362    0.2451 C   0  0  0  0  0  0  0  0  0  0  0  0
    9.2199   -0.4052   -0.0240 C   0  0  0  0  0  0  0  0  0  0  0  0
    7.5489    1.2860    0.2600 N   0  0  0  0  0  0  0  0  0  0  0  0
    6.2004    1.6521    0.5359 C   0  0  0  0  0  0  0  0  0  0  0  0
    5.7956    1.5238    1.8432 O   0  0  0  0  0  0  0  0  0  0  0  0
    5.2863    0.8822   -0.3913 C   0  0  0  0  0  0  0  0  0  0  0  0
    3.8443    1.1507   -0.1435 C   0  0  0  0  0  0  0  0  0  0  0  0
    3.2009    0.0650    0.7147 C   0  0  0  0  0  0  0  0  0  0  0  0
    3.2038   -1.2552    0.0476 C   0  0  0  0  0  0  0  0  0  0  0  0
    4.4697   -1.3829   -0.8304 C   0  0  0  0  0  0  0  0  0  0  0  0
    5.5341   -0.5932   -0.1549 C   0  0  0  0  0  0  0  0  0  0  0  0
    1.9523    0.5784    1.3198 C   0  0  0  0  0  0  0  0  0  0  0  0
    0.9238    1.0624    0.4848 N   0  0  0  0  0  0  0  0  0  0  0  0
   -2.2290   -0.4136    0.8303 C   0  0  0  0  0  0  0  0  0  0  0  0
   -0.5769   -1.1851    0.5701 S   0  0  0  0  0  0  0  0  0  0  0  0
    0.1757    0.2429   -0.3178 C   0  0  0  0  0  0  0  0  0  0  0  0
   -1.0837    0.8391   -0.9059 C   0  0  0  0  0  0  0  0  0  0  0  0
   -2.1162    0.8960    0.1602 C   0  0  0  0  0  0  0  0  0  0  0  0
   -3.2669   -1.3527    0.3190 C   0  0  0  0  0  0  0  0  0  0  0  0
   -3.1734   -2.5345    1.0691 O   0  0  0  0  0  0  0  0  0  0  0  0
   -4.5613   -0.7400    0.3630 N   0  0  0  0  0  0  0  0  0  0  0  0
   -5.4574   -1.3436   -0.5740 C   0  0  1  0  0  0  0  0  0  0  0  0
   -6.8607   -1.2939   -0.0733 C   0  0  0  0  0  0  0  0  0  0  0  0
   -7.4078    0.0886    0.1558 C   0  0  0  0  0  0  0  0  0  0  0  0
   -8.8508   -0.1237    0.6647 C   0  0  0  0  0  0  0  0  0  0  0  0
   -9.4501    1.1128    0.9038 O   0  0  0  0  0  0  0  0  0  0  0  0
   -9.4876   -0.8248   -0.3554 O   0  0  0  0  0  0  0  0  0  0  0  0
   -5.3404   -0.7550   -1.9730 C   0  0  0  0  0  0  0  0  0  0  0  0
   -5.5773    0.6080   -2.0116 O   0  0  0  0  0  0  0  0  0  0  0  0
   -4.1318   -1.0296   -2.5801 O   0  0  0  0  0  0  0  0  0  0  0  0
    0.5473    2.3764    0.8082 C   0  0  0  0  0  0  0  0  0  0  0  0
    6.8726   -0.8437   -0.6735 N   0  0  0  0  0  0  0  0  0  0  0  0
    7.7729   -0.1362    0.2451 C   0  0  0  0  0  0  0  0  0  0  0  0
    9.2199   -0.4052   -0.0240 C   0  0  0  0  0  0  0  0  0  0  0  0
    7.5489    1.2860    0.2600 N   0  0  0  0  0  0  0  0  0  0  0  0
    6.2004    1.6521    0.5359 C   0  0  0  0  0  0  0  0  0  0  0  0
    5.7956    1.5238    1.8432 O   0  0  0  0  0  0  0  0  0  0  0  0
    5.2863    0.8822   -0.3913 C   0  0  0  0  0  0  0  0  0  0  0  0
    3.8443    1.1507   -0.1435 C   0  0  0  0  0  0  0  0  0  0  0  0
    3.2009    0.0650    0.7147 C   0  0  0  0  0  0  0  0  0  0  0  0
    3.2038   -1.2552    0.0476 C   0  0  0  0  0  0  0  0  0  0  0  0
    4.4697   -1.3829   -0.8304 C   0  0  0  0  0  0  0  0  0  0  0  0
    5.5341   -0.5932   -0.1549 C   0  0  0  0  0  0  0  0  0  0  0  0
    1.9523    0.5784    1.3198 C   0  0  0  0  0  0  0  0  0  0  0  0
    0.9238    1.0624    0.4848 N   0  0  0  0  0  0  0  0  0  0  0  0
   -2.2290   -0.4136    0.8303 C   0  0  0  0  0  0  0  0  0  0  0  0
   -0.5769   -1.1851    0.5701 S   0  0  0  0  0  0  0  0  0  0  0  0
    0.1757    0.2429   -0.3178 C   0  0  0  0  0  0  0  0  0  0  0  0
   -1.0837    0.8391   -0.9059 C   0  0  0  0  0  0  0  0  0  0  0  0
   -2.1162    0.8960    0.1602 C   0  0  0  0  0  0  0  0  0  0  0  0
   -3.2669   -1.3527    0.3190 C   0  0  0  0  0  0  0  0  0  0  0  0
   -3.1734   -2.5345    1.0691 O   0  0  0  0  0  0  0  0  0  0  0  0
   -4.5613   -0.7400    0.3630 N   0  0  0  0  0  0  0  0  0  0  0  0
   -5.4574   -1.3436   -0.5740 C   0  0  1  0  0  0  0  0  0  0  0  0
   -6.8607   -1.2939   -0.0733 C   0  0  0  0  0  0  0  0  0  0  0  0
   -7.4078    0.0886    0.1558 C   0  0  0  0  0  0  0  0  0  0  0  0
   -8.8508   -0.1237    0.6647 C   0  0  0  0  0  0  0  0  0  0  0  0
   -9.4501    1.1128    0.9038 O   0  0  0  0  0  0  0  0  0  0  0  0
   -9.4876   -0.8248   -0.3554 O   0  0  0  0  0  0  0  0  0  0  0  0
   -5.3404   -0.7550   -1.9730 C   0  0  0  0  0  0  0  0  0  0  0  0
   -5.5773    0.6080   -2.0116 O   0  0  0  0  0  0  0  0  0  0  0  0
   -4.1318   -1.0296   -2.5801 O   0  0  0  0  0  0  0  0  0  0  0  0
    0.5473    2.3764    0.8082 C   0  0  0  0  0  0  0  0  0  0  0  0
    6.8726   -0.8437   -0.6735 N   0  0  0  0  0  0  0  0  0  0  0  0
    7.7729   -0.1362    0.2451 C   0  0  0  0  0  0  0  0  0  0  0  0
    9.2199   -0.4052   -0.0240 C   0  0  0  0  0  0  0  0  0  0  0  0
    7.5489    1.2860    0.2600 N   0  0  0  0  0  0  0  0  0  0  0  0
    6.2004    1.6521    0.5359 C   0  0  0  0  0  0  0  0  0  0  0  0
    5.7956    1.5238    1.8432 O   0  0  0  0  0  0  0  0  0  0  0  0
    5.2863    0.8822   -0.3913 C   0  0  0  0  0  0  0  0  0  0  0  0
    3.8443    1.1507   -0.1435 C   0  0  0  0  0  0  0  0  0  0  0  0
    3.2009    0.0650    0.7147 C   0  0  0  0  0  0  0  0  0  0  0  0
    3.2038   -1.2552    0.0476 C   0  0  0  0  0  0  0  0  0  0  0  0
    4.4697   -1.3829   -0.8304 C   0  0  0  0  0  0  0  0  0  0  0  0
    5.5341   -0.5932   -0.1549 C   0  0  0  0  0  0  0  0  0  0  0  0
    1.9523    0.5784    1.3198 C   0  0  0  0  0  0  0  0  0  0  0  0
    0.9238    1.0624    0.4848 N   0  0  0  0  0  0  0  0  0  0  0  0
   -2.2290   -0.4136    0.8303 C   0  0  0  0  0  0  0  0  0  0  0  0
   -0.5769   -1.1851    0.5701 S   0  0  0  0  0  0  0  0  0  0  0  0
    0.1757    0.2429   -0.3178 C   0  0  0  0  0  0  0  0  0  0  0  0
   -1.0837    0.8391   -0.9059 C   0  0  0  0  0  0  0  0  0  0  0  0
   -2.1162    0.8960    0.1602 C   0  0  0  0  0  0  0  0  0  0  0  0
   -3.2669   -1.3527    0.3190 C   0  0  0  0  0  0  0  0  0  0  0  0
   -3.1734   -2.5345    1.0691 O   0  0  0  0  0  0  0  0  0  0  0  0
   -4.5613   -0.7400    0.3630 N   0  0  0  0  0  0  0  0  0  0  0  0
   -5.4574   -1.3436   -0.5740 C   0  0  1  0  0  0  0  0  0  0  0  0
   -6.8607   -1.2939   -0.0733 C   0  0  0  0  0  0  0  0  0  0  0  0
   -7.4078    0.0886    0.1558 C   0  0  0  0  0  0  0  0  0  0  0  0
   -8.8508   -0.1237    0.6647 C   0  0  0  0  0  0  0  0  0  0  0  0
   -9.4501    1.1128    0.9038 O   0  0  0  0  0  0  0  0  0  0  0  0
   -9.4876   -0.8248   -0.3554 O   0  0  0  0  0  0  0  0  0  0  0  0
   -5.3404   -0.7550   -1.9730 C   0  0  0  0  0  0  0  0  0  0  0  0
   -5.5773    0.6080   -2.0116 O   0  0  0  0  0  0  0  0  0  0  0  0
   -4.1318   -1.0296   -2.5801 O   0  0  0  0  0  0  0  0  0  0  0  0
    0.5473    2.3764    0.8082 C   0  0  0  0  0  0  0  0  0  0  0  0
    6.8726   -0.8437   -0.6735 N   0  0  0  0  0  0  0  0  0  0  0  0
    7.7729   -0.1362    0.2451 C   0  0  0  0  0  0  0  0  0  0  0  0
    9.2199   -0.4052   -0.0240 C   0  0  0  0  0  0  0  0  0  0  0  0
    7.5489    1.2860    0.2600 N   0  0  0  0  0  0  0  0  0  0  0  0
    6.2004    1.6521    0.5359 C   0  0  0  0  0  0  0  0  0  0  0  0
    5.7956    1.5238    1.8432 O   0  0  0  0  0  0  0  0  0  0  0  0
    5.2863    0.8822   -0.3913 C   0  0  0  0  0  0  0  0  0  0  0  0
    3.8443    1.1507   -0.1435 C   0  0  0  0  0  0  0  0  0  0  0  0
    3.2009    0.0650    0.7147 C   0  0  0  0  0  0  0  0  0  0  0  0
    3.2038   -1.2552    0.0476 C   0  0  0  0  0  0  0  0  0  0  0  0
    4.4697   -1.3829   -0.8304 C   0  0  0  0  0  0  0  0  0  0  0  0
    5.5341   -0.5932   -0.1549 C   0  0  0  0  0  0  0  0  0  0  0  0
    1.9523    0.5784    1.3198 C   0  0  0  0  0  0  0  0  0  0  0  0
    0.9238    1.0624    0.4848 N   0  0  0  0  0  0  0  0  0  0  0  0
   -2.2290   -0.4136    0.8303 C   0  0  0  0  0  0  0  0  0  0  0  0
   -0.5769   -1.1851    0.5701 S   0  0  0  0  0  0  0  0  0  0  0  0
    0.1757    0.2429   -0.3178 C   0  0  0  0  0  0  0  0  0  0  0  0
   -1.0837    0.8391   -0.9059 C   0  0  0  0  0  0  0  0  0  0  0  0
   -2.1162    0.8960    0.1602 C   0  0  0  0  0  0  0  0  0  0  0  0
   -3.2669   -1.3527    0.3190 C   0  0  0  0  0  0  0  0  0  0  0  0
   -3.1734   -2.5345    1.0691 O   0  0  0  0  0  0  0  0  0  0  0  0
   -4.5613   -0.7400    0.3630 N   0  0  0  0  0  0  0  0  0  0  0  0
   -5.4574   -1.3436   -0.5740 C   0  0  1  0  0  0  0  0  0  0  0  0
   -6.8607   -1.2939   -0.0733 C   0  0  0  0  0  0  0  0  0  0  0  0
   -7.4078    0.0886    0.1558 C   0  0  0  0  0  0  0  0  0  0  0  0
   -8.8508   -0.1237    0.6647 C   0  0  0  0  0  0  0  0  0  0  0  0
   -9.4501    1.1128    0.9038 O   0  0  0  0  0  0  0  0  0  0  0  0
   -9.4876   -0.8248   -0.3554 O   0  0  0  0  0  0  0  0  0  0  0  0
   -5.3404   -0.7550   -1.9730 C   0  0  0  0  0  0  0  0  0  0  0  0
   -5.5773    0.6080   -2.0116 O   0  0  0  0  0  0  0  0  0  0  0  0
   -4.1318   -1.0296   -2.5801 O   0  0  0  0  0  0  0  0  0  0  0  0
    0.5473    2.3764    0.8082 C   0  0  0  0  0  0  0  0  0  0  0  0
    6.9139   -0.3530   -1.6107 H   0  0  0  0  0  0  0  0  0  0  0  0
    7.5110   -0.5110    1.2550 H   0  0  0  0  0  0  0  0  0  0  0  0
    9.6405    0.4078   -0.6474 H   0  0  0  0  0  0  0  0  0  0  0  0
    9.7543   -0.3231    0.9672 H   0  0  0  0  0  0  0  0  0  0  0  0
    9.3971   -1.4148   -0.3945 H   0  0  0  0  0  0  0  0  0  0  0  0
    7.8941    1.7823   -0.5873 H   0  0  0  0  0  0  0  0  0  0  0  0
    6.0659    2.7370    0.2568 H   0  0  0  0  0  0  0  0  0  0  0  0
    6.3456    0.9558    2.4027 H   0  0  0  0  0  0  0  0  0  0  0  0
    5.5403    1.1023   -1.4463 H   0  0  0  0  0  0  0  0  0  0  0  0
    3.3145    1.0970   -1.1336 H   0  0  0  0  0  0  0  0  0  0  0  0
    3.6761    2.1452    0.3074 H   0  0  0  0  0  0  0  0  0  0  0  0
    3.8991   -0.0858    1.6364 H   0  0  0  0  0  0  0  0  0  0  0  0
    2.3226   -1.5717   -0.4956 H   0  0  0  0  0  0  0  0  0  0  0  0
    3.3716   -2.0814    0.8195 H   0  0  0  0  0  0  0  0  0  0  0  0
    4.7166   -2.4506   -0.9992 H   0  0  0  0  0  0  0  0  0  0  0  0
    4.1903   -0.9089   -1.7904 H   0  0  0  0  0  0  0  0  0  0  0  0
    5.6213   -0.8417    0.9401 H   0  0  0  0  0  0  0  0  0  0  0  0
    2.2533    1.3603    2.1063 H   0  0  0  0  0  0  0  0  0  0  0  0
    1.5862   -0.2584    2.0050 H   0  0  0  0  0  0  0  0  0  0  0  0
   -2.3404   -0.2735    1.9462 H   0  0  0  0  0  0  0  0  0  0  0  0
    0.7360   -0.1462   -1.1927 H   0  0  0  0  0  0  0  0  0  0  0  0
   -1.4326    0.1481   -1.7017 H   0  0  0  0  0  0  0  0  0  0  0  0
   -0.9489    1.8202   -1.3497 H   0  0  0  0  0  0  0  0  0  0  0  0
   -3.0854    1.1408   -0.3229 H   0  0  0  0  0  0  0  0  0  0  0  0
   -1.9680    1.7470    0.8884 H   0  0  0  0  0  0  0  0  0  0  0  0
   -2.9714   -1.5987   -0.7375 H   0  0  0  0  0  0  0  0  0  0  0  0
   -3.9919   -3.0483    1.1194 H   0  0  0  0  0  0  0  0  0  0  0  0
   -4.9347   -0.7618    1.3418 H   0  0  0  0  0  0  0  0  0  0  0  0
   -5.1932   -2.4353   -0.6863 H   0  0  0  0  0  0  0  0  0  0  0  0
   -6.8807   -1.8226    0.9181 H   0  0  0  0  0  0  0  0  0  0  0  0
   -7.5205   -1.8058   -0.8054 H   0  0  0  0  0  0  0  0  0  0  0  0
   -7.5570    0.6321   -0.8164 H   0  0  0  0  0  0  0  0  0  0  0  0
   -6.8395    0.7016    0.8545 H   0  0  0  0  0  0  0  0  0  0  0  0
   -8.8308   -0.7795    1.5559 H   0  0  0  0  0  0  0  0  0  0  0  0
   -9.1439    1.7376    0.1929 H   0  0  0  0  0  0  0  0  0  0  0  0
  -10.1644   -0.2983   -0.8384 H   0  0  0  0  0  0  0  0  0  0  0  0
   -6.1234   -1.2923   -2.5771 H   0  0  0  0  0  0  0  0  0  0  0  0
   -5.2727    1.0935   -1.2170 H   0  0  0  0  0  0  0  0  0  0  0  0
   -4.1121   -2.0070   -2.8377 H   0  0  0  0  0  0  0  0  0  0  0  0
    1.5056    2.9755    0.9097 H   0  0  0  0  0  0  0  0  0  0  0  0
    0.1249    2.3949    1.8548 H   0  0  0  0  0  0  0  0  0  0  0  0
   -0.0469    2.9392    0.0889 H   0  0  0  0  0  0  0  0  0  0  0  0
    6.9139   -0.3530   -1.6107 H   0  0  0  0  0  0  0  0  0  0  0  0
    7.5110   -0.5110    1.2550 H   0  0  0  0  0  0  0  0  0  0  0  0
    9.6405    0.4078   -0.6474 H   0  0  0  0  0  0  0  0  0  0  0  0
    9.7543   -0.3231    0.9672 H   0  0  0  0  0  0  0  0  0  0  0  0
    9.3971   -1.4148   -0.3945 H   0  0  0  0  0  0  0  0  0  0  0  0
    7.8941    1.7823   -0.5873 H   0  0  0  0  0  0  0  0  0  0  0  0
    6.0659    2.7370    0.2568 H   0  0  0  0  0  0  0  0  0  0  0  0
    6.3456    0.9558    2.4027 H   0  0  0  0  0  0  0  0  0  0  0  0
    5.5403    1.1023   -1.4463 H   0  0  0  0  0  0  0  0  0  0  0  0
    3.3145    1.0970   -1.1336 H   0  0  0  0  0  0  0  0  0  0  0  0
    3.6761    2.1452    0.3074 H   0  0  0  0  0  0  0  0  0  0  0  0
    3.8991   -0.0858    1.6364 H   0  0  0  0  0  0  0  0  0  0  0  0
    2.3226   -1.5717   -0.4956 H   0  0  0  0  0  0  0  0  0  0  0  0
    3.3716   -2.0814    0.8195 H   0  0  0  0  0  0  0  0  0  0  0  0
    4.7166   -2.4506   -0.9992 H   0  0  0  0  0  0  0  0  0  0  0  0
    4.1903   -0.9089   -1.7904 H   0  0  0  0  0  0  0  0  0  0  0  0
    5.6213   -0.8417    0.9401 H   0  0  0  0  0  0  0  0  0  0  0  0
    2.2533    1.3603    2.1063 H   0  0  0  0  0  0  0  0  0  0  0  0
    1.5862   -0.2584    2.0050 H   0  0  0  0  0  0  0  0  0  0  0  0
   -2.3404   -0.2735    1.9462 H   0  0  0  0  0  0  0  0  0  0  0  0
    0.7360   -0.1462   -1.1927 H   0  0  0  0  0  0  0  0  0  0  0  0
   -1.4326    0.1481   -1.7017 H   0  0  0  0  0  0  0  0  0  0  0  0
   -0.9489    1.8202   -1.3497 H   0  0  0  0  0  0  0  0  0  0  0  0
   -3.0854    1.1408   -0.3229 H   0  0  0  0  0  0  0  0  0  0  0  0
   -1.9680    1.7470    0.8884 H   0  0  0  0  0  0  0  0  0  0  0  0
   -2.9714   -1.5987   -0.7375 H   0  0  0  0  0  0  0  0  0  0  0  0
   -3.9919   -3.0483    1.1194 H   0  0  0  0  0  0  0  0  0  0  0  0
   -4.9347   -0.7618    1.3418 H   0  0  0  0  0  0  0  0  0  0  0  0
   -5.1932   -2.4353   -0.6863 H   0  0  0  0  0  0  0  0  0  0  0  0
   -6.8807   -1.8226    0.9181 H   0  0  0  0  0  0  0  0  0  0  0  0
   -7.5205   -1.8058   -0.8054 H   0  0  0  0  0  0  0  0  0  0  0  0
   -7.5570    0.6321   -0.8164 H   0  0  0  0  0  0  0  0  0  0  0  0
   -6.8395    0.7016    0.8545 H   0  0  0  0  0  0  0  0  0  0  0  0
   -8.8308   -0.7795    1.5559 H   0  0  0  0  0  0  0  0  0  0  0  0
   -9.1439    1.7376    0.1929 H   0  0  0  0  0  0  0  0  0  0  0  0
  -10.1644   -0.2983   -0.8384 H   0  0  0  0  0  0  0  0  0  0  0  0
   -6.1234   -1.2923   -2.5771 H   0  0  0  0  0  0  0  0  0  0  0  0
   -5.2727    1.0935   -1.2170 H   0  0  0  0  0  0  0  0  0  0  0  0
   -4.1121   -2.0070   -2.8377 H   0  0  0  0  0  0  0  0  0  0  0  0
    1.5056    2.9755    0.9097 H   0  0  0  0  0  0  0  0  0  0  0  0
    0.1249    2.3949    1.8548 H   0  0  0  0  0  0  0  0  0  0  0  0
   -0.0469    2.9392    0.0889 H   0  0  0  0  0  0  0  0  0  0  0  0
    6.9139   -0.3530   -1.6107 H   0  0  0  0  0  0  0  0  0  0  0  0
    7.5110   -0.5110    1.2550 H   0  0  0  0  0  0  0  0  0  0  0  0
    9.6405    0.4078   -0.6474 H   0  0  0  0  0  0  0  0  0  0  0  0
    9.7543   -0.3231    0.9672 H   0  0  0  0  0  0  0  0  0  0  0  0
    9.3971   -1.4148   -0.3945 H   0  0  0  0  0  0  0  0  0  0  0  0
    7.8941    1.7823   -0.5873 H   0  0  0  0  0  0  0  0  0  0  0  0
    6.0659    2.7370    0.2568 H   0  0  0  0  0  0  0  0  0  0  0  0
    6.3456    0.9558    2.4027 H   0  0  0  0  0  0  0  0  0  0  0  0
    5.5403    1.1023   -1.4463 H   0  0  0  0  0  0  0  0  0  0  0  0
    3.3145    1.0970   -1.1336 H   0  0  0  0  0  0  0  0  0  0  0  0
    3.6761    2.1452    0.3074 H   0  0  0  0  0  0  0  0  0  0  0  0
    3.8991   -0.0858    1.6364 H   0  0  0  0  0  0  0  0  0  0  0  0
    2.3226   -1.5717   -0.4956 H   0  0  0  0  0  0  0  0  0  0  0  0
    3.3716   -2.0814    0.8195 H   0  0  0  0  0  0  0  0  0  0  0  0
    4.7166   -2.4506   -0.9992 H   0  0  0  0  0  0  0  0  0  0  0  0
    4.1903   -0.9089   -1.7904 H   0  0  0  0  0  0  0  0  0  0  0  0
    5.6213   -0.8417    0.9401 H   0  0  0  0  0  0  0  0  0  0  0  0
    2.2533    1.3603    2.1063 H   0  0  0  0  0  0  0  0  0  0  0  0
    1.5862   -0.2584    2.0050 H   0  0  0  0  0  0  0  0  0  0  0  0
   -2.3404   -0.2735    1.9462 H   0  0  0  0  0  0  0  0  0  0  0  0
    0.7360   -0.1462   -1.1927 H   0  0  0  0  0  0  0  0  0  0  0  0
   -1.4326    0.1481   -1.7017 H   0  0  0  0  0  0  0  0  0  0  0  0
   -0.9489    1.8202   -1.3497 H   0  0  0  0  0  0  0  0  0  0  0  0
   -3.0854    1.1408   -0.3229 H   0  0  0  0  0  0  0  0  0  0  0  0
   -1.9680    1.7470    0.8884 H   0  0  0  0  0  0  0  0  0  0  0  0
   -2.9714   -1.5987   -0.7375 H   0  0  0  0  0  0  0  0  0  0  0  0
   -3.9919   -3.0483    1.1194 H   0  0  0  0  0  0  0  0  0  0  0  0
   -4.9347   -0.7618    1.3418 H   0  0  0  0  0  0  0  0  0  0  0  0
   -5.1932   -2.4353   -0.6863 H   0  0  0  0  0  0  0  0  0  0  0  0
   -6.8807   -1.8226    0.9181 H   0  0  0  0  0  0  0  0  0  0  0  0
   -7.5205   -1.8058   -0.8054 H   0  0  0  0  0  0  0  0  0  0  0  0
   -7.5570    0.6321   -0.8164 H   0  0  0  0  0  0  0  0  0  0  0  0
   -6.8395    0.7016    0.8545 H   0  0  0  0  0  0  0  0  0  0  0  0
   -8.8308   -0.7795    1.5559 H   0  0  0  0  0  0  0  0  0  0  0  0
   -9.1439    1.7376    0.1929 H   0  0  0  0  0  0  0  0  0  0  0  0
  -10.1644   -0.2983   -0.8384 H   0  0  0  0  0  0  0  0  0  0  0  0
   -6.1234   -1.2923   -2.5771 H   0  0  0  0  0  0  0  0  0  0  0  0
   -5.2727    1.0935   -1.2170 H   0  0  0  0  0  0  0  0  0  0  0  0
   -4.1121   -2.0070   -2.8377 H   0  0  0  0  0  0  0  0  0  0  0  0
    1.5056    2.9755    0.9097 H   0  0  0  0  0  0  0  0  0  0  0  0
    0.1249    2.3949    1.8548 H   0  0  0  0  0  0  0  0  0  0  0  0
   -0.0469    2.9392    0.0889 H   0  0  0  0  0  0  0  0  0  0  0  0
    6.9139   -0.3530   -1.6107 H   0  0  0  0  0  0  0  0  0  0  0  0
    7.5110   -0.5110    1.2550 H   0  0  0  0  0  0  0  0  0  0  0  0
    9.6405    0.4078   -0.6474 H   0  0  0  0  0  0  0  0  0  0  0  0
    9.7543   -0.3231    0.9672 H   0  0  0  0  0  0  0  0  0  0  0  0
    9.3971   -1.4148   -0.3945 H   0  0  0  0  0  0  0  0  0  0  0  0
    7.8941    1.7823   -0.5873 H   0  0  0  0  0  0  0  0  0  0  0  0
    6.0659    2.7370    0.2568 H   0  0  0  0  0  0  0  0  0  0  0  0
    6.3456    0.9558    2.4027 H   0  0  0  0  0  0  0  0  0  0  0  0
    5.5403    1.1023   -1.4463 H   0  0  0  0  0  0  0  0  0  0  0  0
    3.3145    1.0970   -1.1336 H   0  0  0  0  0  0  0  0  0  0  0  0
    3.6761    2.1452    0.3074 H   0  0  0  0  0  0  0  0  0  0  0  0
    3.8991   -0.0858    1.6364 H   0  0  0  0  0  0  0  0  0  0  0  0
    2.3226   -1.5717   -0.4956 H   0  0  0  0  0  0  0  0  0  0  0  0
    3.3716   -2.0814    0.8195 H   0  0  0  0  0  0  0  0  0  0  0  0
    4.7166   -2.4506   -0.9992 H   0  0  0  0  0  0  0  0  0  0  0  0
    4.1903   -0.9089   -1.7904 H   0  0  0  0  0  0  0  0  0  0  0  0
    5.6213   -0.8417    0.9401 H   0  0  0  0  0  0  0  0  0  0  0  0
    2.2533    1.3603    2.1063 H   0  0  0  0  0  0  0  0  0  0  0  0
    1.5862   -0.2584    2.0050 H   0  0  0  0  0  0  0  0  0  0  0  0
   -2.3404   -0.2735    1.9462 H   0  0  0  0  0  0  0  0  0  0  0  0
    0.7360   -0.1462   -1.1927 H   0  0  0  0  0  0  0  0  0  0  0  0
   -1.4326    0.1481   -1.7017 H   0  0  0  0  0  0  0  0  0  0  0  0
   -0.9489    1.8202   -1.3497 H   0  0  0  0  0  0  0  0  0  0  0  0
   -3.0854    1.1408   -0.3229 H   0  0  0  0  0  0  0  0  0  0  0  0
   -1.9680    1.7470    0.8884 H   0  0  0  0  0  0  0  0  0  0  0  0
   -2.9714   -1.5987   -0.7375 H   0  0  0  0  0  0  0  0  0  0  0  0
   -3.9919   -3.0483    1.1194 H   0  0  0  0  0  0  0  0  0  0  0  0
   -4.9347   -0.7618    1.3418 H   0  0  0  0  0  0  0  0  0  0  0  0
   -5.1932   -2.4353   -0.6863 H   0  0  0  0  0  0  0  0  0  0  0  0
   -6.8807   -1.8226    0.9181 H   0  0  0  0  0  0  0  0  0  0  0  0
   -7.5205   -1.8058   -0.8054 H   0  0  0  0  0  0  0  0  0  0  0  0
   -7.5570    0.6321   -0.8164 H   0  0  0  0  0  0  0  0  0  0  0  0
   -6.8395    0.7016    0.8545 H   0  0  0  0  0  0  0  0  0  0  0  0
   -8.8308   -0.7795    1.5559 H   0  0  0  0  0  0  0  0  0  0  0  0
   -9.1439    1.7376    0.1929 H   0  0  0  0  0  0  0  0  0  0  0  0
  -10.1644   -0.2983   -0.8384 H   0  0  0  0  0  0  0  0  0  0  0  0
   -6.1234   -1.2923   -2.5771 H   0  0  0  0  0  0  0  0  0  0  0  0
   -5.2727    1.0935   -1.2170 H   0  0  0  0  0  0  0  0  0  0  0  0
   -4.1121   -2.0070   -2.8377 H   0  0  0  0  0  0  0  0  0  0  0  0
    1.5056    2.9755    0.9097 H   0  0  0  0  0  0  0  0  0  0  0  0
    0.1249    2.3949    1.8548 H   0  0  0  0  0  0  0  0  0  0  0  0
   -0.0469    2.9392    0.0889 H   0  0  0  0  0  0  0  0  0  0  0  0
  1  2  1  0
  2  3  1  0
  2  4  1  0
  4  5  1  0
  5  6  1  0
  5  7  1  0
  7  8  1  0
  8  9  1  0
  9 10  1  0
 10 11  1  0
  1 12  1  0
  7 12  1  0
 11 12  1  0
  9 13  1  0
 13 14  1  0
 15 16  1  0
 14 17  1  0
 16 17  1  0
 17 18  1  0
 15 19  1  0
 18 19  1  0
 15 20  1  0
 20 21  1  0
 20 22  1  0
 22 23  1  0
 23 24  1  0
 24 25  1  0
 25 26  1  0
 26 27  1  0
 26 28  1  0
 23 29  1  0
 29 30  1  0
 29 31  1  0
 14 32  1  0
 33 34  1  0
 34 35  1  0
 34 36  1  0
 36 37  1  0
 37 38  1  0
 37 39  1  0
 39 40  1  0
 40 41  1  0
 41 42  1  0
 42 43  1  0
 33 44  1  0
 39 44  1  0
 43 44  1  0
 41 45  1  0
 45 46  1  0
 47 48  1  0
 46 49  1  0
 48 49  1  0
 49 50  1  0
 47 51  1  0
 50 51  1  0
 47 52  1  0
 52 53  1  0
 52 54  1  0
 54 55  1  0
 55 56  1  0
 56 57  1  0
 57 58  1  0
 58 59  1  0
 58 60  1  0
 55 61  1  0
 61 62  1  0
 61 63  1  0
 46 64  1  0
 65 66  1  0
 66 67  1  0
 66 68  1  0
 68 69  1  0
 69 70  1  0
 69 71  1  0
 71 72  1  0
 72 73  1  0
 73 74  1  0
 74 75  1  0
 65 76  1  0
 71 76  1  0
 75 76  1  0
 73 77  1  0
 77 78  1  0
 79 80  1  0
 78 81  1  0
 80 81  1  0
 81 82  1  0
 79 83  1  0
 82 83  1  0
 79 84  1  0
 84 85  1  0
 84 86  1  0
 86 87  1  0
 87 88  1  0
 88 89  1  0
 89 90  1  0
 90 91  1  0
 90 92  1  0
 87 93  1  0
 93 94  1  0
 93 95  1  0
 78 96  1  0
 97 98  1  0
 98 99  1  0
 98100  1  0
100101  1  0
101102  1  0
101103  1  0
103104  1  0
104105  1  0
105106  1  0
106107  1  0
 97108  1  0
103108  1  0
107108  1  0
105109  1  0
109110  1  0
111112  1  0
110113  1  0
112113  1  0
113114  1  0
111115  1  0
114115  1  0
111116  1  0
116117  1  0
116118  1  0
118119  1  0
119120  1  0
120121  1  0
121122  1  0
122123  1  0
122124  1  0
119125  1  0
125126  1  0
125127  1  0
110128  1  0
  1129  1  0
  2130  1  0
  3131  1  0
  3132  1  0
  3133  1  0
  4134  1  0
  5135  1  0
  6136  1  0
  7137  1  0
  8138  1  0
  8139  1  0
  9140  1  0
 10141  1  0
 10142  1  0
 11143  1  0
 11144  1  0
 12145  1  0
 13146  1  0
 13147  1  0
 15148  1  0
 17149  1  0
 18150  1  0
 18151  1  0
 19152  1  0
 19153  1  0
 20154  1  0
 21155  1  0
 22156  1  0
 23157  1  6
 24158  1  0
 24159  1  0
 25160  1  0
 25161  1  0
 26162  1  0
 27163  1  0
 28164  1  0
 29165  1  0
 30166  1  0
 31167  1  0
 32168  1  0
 32169  1  0
 32170  1  0
 33171  1  0
 34172  1  0
 35173  1  0
 35174  1  0
 35175  1  0
 36176  1  0
 37177  1  0
 38178  1  0
 39179  1  0
 40180  1  0
 40181  1  0
 41182  1  0
 42183  1  0
 42184  1  0
 43185  1  0
 43186  1  0
 44187  1  0
 45188  1  0
 45189  1  0
 47190  1  0
 49191  1  0
 50192  1  0
 50193  1  0
 51194  1  0
 51195  1  0
 52196  1  0
 53197  1  0
 54198  1  0
 55199  1  6
 56200  1  0
 56201  1  0
 57202  1  0
 57203  1  0
 58204  1  0
 59205  1  0
 60206  1  0
 61207  1  0
 62208  1  0
 63209  1  0
 64210  1  0
 64211  1  0
 64212  1  0
 65213  1  0
 66214  1  0
 67215  1  0
 67216  1  0
 67217  1  0
 68218  1  0
 69219  1  0
 70220  1  0
 71221  1  0
 72222  1  0
 72223  1  0
 73224  1  0
 74225  1  0
 74226  1  0
 75227  1  0
 75228  1  0
 76229  1  0
 77230  1  0
 77231  1  0
 79232  1  0
 81233  1  0
 82234  1  0
 82235  1  0
 83236  1  0
 83237  1  0
 84238  1  0
 85239  1  0
 86240  1  0
 87241  1  6
 88242  1  0
 88243  1  0
 89244  1  0
 89245  1  0
 90246  1  0
 91247  1  0
 92248  1  0
 93249  1  0
 94250  1  0
 95251  1  0
 96252  1  0
 96253  1  0
 96254  1  0
 97255  1  0
 98256  1  0
 99257  1  0
 99258  1  0
 99259  1  0
100260  1  0
101261  1  0
102262  1  0
103263  1  0
104264  1  0
104265  1  0
105266  1  0
106267  1  0
106268  1  0
107269  1  0
107270  1  0
108271  1  0
109272  1  0
109273  1  0
111274  1  0
113275  1  0
114276  1  0
114277  1  0
115278  1  0
115279  1  0
116280  1  0
117281  1  0
118282  1  0
119283  1  6
120284  1  0
120285  1  0
121286  1  0
121287  1  0
122288  1  0
123289  1  0
124290  1  0
125291  1  0
126292  1  0
127293  1  0
128294  1  0
128295  1  0
128296  1  0
M  END
>  <PDBID>  (1) 
1HVY

>  <PDB ID>  (1) 
1HVY

>  <Generic Name>  (1) 
Raltitrexed

>  <Brand Name>  (1) 
Tomudex

>  <DrugBank ID>  (1) 
DB00293

>  <ATC Codes>  (1) 
L01BA03

>  <Ligand ID>  (1) 
D16

>  <Target Name>  (1) 
Thymidylate synthase

>  <UniProt ID>  (1) 
P04818

>  <PDB ID.1>  (1) 
1HVY

>  <Seq. Identity>  (1) 
100%

$$$$
