PDB_DB00300_09
     RDKit          3D

 41 42  0  0  0  0  0  0  0  0999 V2000
    4.9496    0.5034    0.3191 P   0  0  0  0  0  0  0  0  0  0  0  0
    4.5945   -1.0353    0.8083 O   0  0  0  0  0  0  0  0  0  0  0  0
    6.3270    1.0042    1.1526 O   0  0  0  0  0  0  0  0  0  0  0  0
    3.6273    1.6316    0.6743 C   0  0  0  0  0  0  0  0  0  0  0  0
    2.6316    1.5549   -0.2526 O   0  0  0  0  0  0  0  0  0  0  0  0
    2.1910   -0.3620   -1.6252 C   0  0  0  0  0  0  0  0  0  0  0  0
    1.9641    0.3290   -0.3217 C   0  0  2  0  0  0  0  0  0  0  0  0
    0.5420    0.4478    0.0828 C   0  0  0  0  0  0  0  0  0  0  0  0
   -0.2671   -0.7174    0.0901 N   0  0  0  0  0  0  0  0  0  0  0  0
   -1.5449   -0.3087    0.6890 C   0  0  1  0  0  0  0  0  0  0  0  0
   -1.8358    1.0164    0.1753 N   0  0  0  0  0  0  0  0  0  0  0  0
   -3.0436    1.4389    0.8850 C   0  0  0  0  0  0  0  0  0  0  0  0
   -4.1649    0.6009    0.6130 N   0  0  0  0  0  0  0  0  0  0  0  0
   -3.8984   -0.5797   -0.1303 C   0  0  0  0  0  0  0  0  0  0  0  0
   -4.9573   -1.5456    0.2029 N   0  0  0  0  0  0  0  0  0  0  0  0
   -2.5865   -1.2468    0.1980 C   0  0  0  0  0  0  0  0  0  0  0  0
   -2.0089   -1.8288   -0.9688 N   0  0  0  0  0  0  0  0  0  0  0  0
   -0.6923   -1.2391   -1.1660 C   0  0  0  0  0  0  0  0  0  0  0  0
    5.2518    0.5193   -1.0465 H   0  0  0  0  0  0  0  0  0  0  0  0
    4.5177   -1.6636    0.0592 H   0  0  0  0  0  0  0  0  0  0  0  0
    6.5919    1.9090    0.8813 H   0  0  0  0  0  0  0  0  0  0  0  0
    3.9953    2.6546    0.8652 H   0  0  0  0  0  0  0  0  0  0  0  0
    3.1748    1.3200    1.6662 H   0  0  0  0  0  0  0  0  0  0  0  0
    3.1894   -0.1030   -2.0717 H   0  0  0  0  0  0  0  0  0  0  0  0
    1.4691   -0.0511   -2.4141 H   0  0  0  0  0  0  0  0  0  0  0  0
    2.2341   -1.4751   -1.5357 H   0  0  0  0  0  0  0  0  0  0  0  0
    2.4599   -0.3098    0.4635 H   0  0  0  0  0  0  0  0  0  0  0  0
    0.0749    1.2851   -0.5181 H   0  0  0  0  0  0  0  0  0  0  0  0
    0.5091    0.8557    1.1433 H   0  0  0  0  0  0  0  0  0  0  0  0
   -1.4090   -0.3203    1.7789 H   0  0  0  0  0  0  0  0  0  0  0  0
   -2.0781    0.9197   -0.8321 H   0  0  0  0  0  0  0  0  0  0  0  0
   -3.2037    2.5138    0.7208 H   0  0  0  0  0  0  0  0  0  0  0  0
   -2.7876    1.2947    1.9719 H   0  0  0  0  0  0  0  0  0  0  0  0
   -4.8490    1.1791    0.0593 H   0  0  0  0  0  0  0  0  0  0  0  0
   -3.9712   -0.4245   -1.2310 H   0  0  0  0  0  0  0  0  0  0  0  0
   -4.9922   -2.3141   -0.4988 H   0  0  0  0  0  0  0  0  0  0  0  0
   -5.8838   -1.0586    0.2141 H   0  0  0  0  0  0  0  0  0  0  0  0
   -2.7313   -2.0574    0.9424 H   0  0  0  0  0  0  0  0  0  0  0  0
   -2.5853   -1.7128   -1.8396 H   0  0  0  0  0  0  0  0  0  0  0  0
   -0.0353   -2.0835   -1.4714 H   0  0  0  0  0  0  0  0  0  0  0  0
   -0.7686   -0.5410   -1.9980 H   0  0  0  0  0  0  0  0  0  0  0  0
  1  2  1  0
  1  3  1  0
  1  4  1  0
  4  5  1  0
  5  7  1  0
  6  7  1  0
  7  8  1  0
  8  9  1  0
  9 10  1  0
 10 11  1  0
 11 12  1  0
 12 13  1  0
 13 14  1  0
 14 15  1  0
 10 16  1  0
 14 16  1  0
 16 17  1  0
  9 18  1  0
 17 18  1  0
  1 19  1  0
  2 20  1  0
  3 21  1  0
  4 22  1  0
  4 23  1  0
  6 24  1  0
  6 25  1  0
  6 26  1  0
  7 27  1  1
  8 28  1  0
  8 29  1  0
 10 30  1  1
 11 31  1  0
 12 32  1  0
 12 33  1  0
 13 34  1  0
 14 35  1  0
 15 36  1  0
 15 37  1  0
 16 38  1  0
 17 39  1  0
 18 40  1  0
 18 41  1  0
M  END
>  <PDBID>  (1) 
1T03

>  <PDB ID>  (1) 
1T03

>  <Generic Name>  (1) 
Tenofovir

>  <Brand Name>  (1) 
Atripla#Complera#Stribild#Truvada#Viread

>  <DrugBank ID>  (1) 
DB00300

>  <ATC Codes>  (1) 
nan

>  <Ligand ID>  (1) 
TFO

>  <Target Name>  (1) 
Reverse transcriptase/RNaseH

>  <UniProt ID>  (1) 
Q72547

>  <PDB ID.1>  (1) 
1T03

>  <Seq. Identity>  (1) 
95%

$$$$
