PDB_DB01113_06
     RDKit          3D

 62 64  0  0  0  0  0  0  0  0999 V2000
    5.1013   -3.2174    0.6657 C   0  0  0  0  0  0  0  0  0  0  0  0
    4.2974   -2.3594   -0.1065 O   0  0  0  0  0  0  0  0  0  0  0  0
    4.1575   -1.1094    0.4944 C   0  0  0  0  0  0  0  0  0  0  0  0
    4.8068   -0.1010   -0.4053 C   0  0  0  0  0  0  0  0  0  0  0  0
    5.1396    1.0347    0.3435 O   0  0  0  0  0  0  0  0  0  0  0  0
    6.5032    1.2894    0.3148 C   0  0  0  0  0  0  0  0  0  0  0  0
    3.9298    0.3473   -1.5292 C   0  0  0  0  0  0  0  0  0  0  0  0
    2.6653    0.9475   -0.8762 C   0  0  0  0  0  0  0  0  0  0  0  0
    2.7352   -0.8758    0.7923 C   0  0  0  0  0  0  0  0  0  0  0  0
    1.9275   -0.1962   -0.2908 C   0  0  0  0  0  0  0  0  0  0  0  0
    0.5404    0.0250    0.1741 C   0  0  0  0  0  0  0  0  0  0  0  0
   -0.4699    0.4684   -0.8241 C   0  0  0  0  0  0  0  0  0  0  0  0
   -0.1204    1.7183   -1.3989 N   0  0  0  0  0  0  0  0  0  0  0  0
   -1.1273    2.3166   -2.2199 C   0  0  0  0  0  0  0  0  0  0  0  0
   -2.3284    2.6145   -1.3417 C   0  0  0  0  0  0  0  0  0  0  0  0
   -2.8419    1.2819   -0.8385 C   0  0  0  0  0  0  0  0  0  0  0  0
   -1.8082    0.4979   -0.1077 C   0  0  0  0  0  0  0  0  0  0  0  0
   -2.2967   -0.9236    0.0612 C   0  0  0  0  0  0  0  0  0  0  0  0
   -3.7933   -0.9920    0.0966 C   0  0  0  0  0  0  0  0  0  0  0  0
   -4.3554   -1.2370   -1.1498 O   0  0  0  0  0  0  0  0  0  0  0  0
   -5.0713   -2.4266   -1.1901 C   0  0  0  0  0  0  0  0  0  0  0  0
   -4.4252    0.2220    0.7507 C   0  0  0  0  0  0  0  0  0  0  0  0
   -4.0103    1.5115    0.0917 C   0  0  0  0  0  0  0  0  0  0  0  0
   -4.1664    0.2046    2.1048 O   0  0  0  0  0  0  0  0  0  0  0  0
   -5.3664    0.0651    2.8394 C   0  0  0  0  0  0  0  0  0  0  0  0
    6.1089   -2.8376    0.8219 H   0  0  0  0  0  0  0  0  0  0  0  0
    4.5464   -3.4010    1.6150 H   0  0  0  0  0  0  0  0  0  0  0  0
    5.1519   -4.1891    0.1351 H   0  0  0  0  0  0  0  0  0  0  0  0
    4.7414   -1.1473    1.4461 H   0  0  0  0  0  0  0  0  0  0  0  0
    5.7458   -0.4970   -0.8275 H   0  0  0  0  0  0  0  0  0  0  0  0
    7.0797    0.4372    0.7315 H   0  0  0  0  0  0  0  0  0  0  0  0
    6.6819    2.1546    0.9862 H   0  0  0  0  0  0  0  0  0  0  0  0
    6.8608    1.5846   -0.6922 H   0  0  0  0  0  0  0  0  0  0  0  0
    3.6367   -0.5645   -2.1101 H   0  0  0  0  0  0  0  0  0  0  0  0
    4.4463    1.0925   -2.1419 H   0  0  0  0  0  0  0  0  0  0  0  0
    3.0792    1.5833   -0.0351 H   0  0  0  0  0  0  0  0  0  0  0  0
    2.1174    1.5481   -1.5904 H   0  0  0  0  0  0  0  0  0  0  0  0
    2.2460   -1.8502    1.0739 H   0  0  0  0  0  0  0  0  0  0  0  0
    2.6527   -0.2440    1.7026 H   0  0  0  0  0  0  0  0  0  0  0  0
    1.8631   -0.9774   -1.1140 H   0  0  0  0  0  0  0  0  0  0  0  0
    0.5382    0.7150    1.0544 H   0  0  0  0  0  0  0  0  0  0  0  0
    0.1953   -0.9626    0.6198 H   0  0  0  0  0  0  0  0  0  0  0  0
   -0.5593   -0.3141   -1.6355 H   0  0  0  0  0  0  0  0  0  0  0  0
    0.0936    2.4018   -0.6230 H   0  0  0  0  0  0  0  0  0  0  0  0
   -0.7389    3.2838   -2.5872 H   0  0  0  0  0  0  0  0  0  0  0  0
   -1.3837    1.6808   -3.0831 H   0  0  0  0  0  0  0  0  0  0  0  0
   -3.1489    3.0839   -1.9180 H   0  0  0  0  0  0  0  0  0  0  0  0
   -1.9840    3.2483   -0.5216 H   0  0  0  0  0  0  0  0  0  0  0  0
   -3.1866    0.7088   -1.7065 H   0  0  0  0  0  0  0  0  0  0  0  0
   -1.6459    0.9354    0.8962 H   0  0  0  0  0  0  0  0  0  0  0  0
   -1.8162   -1.4047    0.9495 H   0  0  0  0  0  0  0  0  0  0  0  0
   -1.9713   -1.4777   -0.8631 H   0  0  0  0  0  0  0  0  0  0  0  0
   -4.0898   -1.8646    0.7493 H   0  0  0  0  0  0  0  0  0  0  0  0
   -4.3527   -3.2407   -0.9433 H   0  0  0  0  0  0  0  0  0  0  0  0
   -5.4735   -2.5315   -2.2167 H   0  0  0  0  0  0  0  0  0  0  0  0
   -5.8804   -2.4688   -0.4313 H   0  0  0  0  0  0  0  0  0  0  0  0
   -5.5183    0.1206    0.6019 H   0  0  0  0  0  0  0  0  0  0  0  0
   -3.7257    2.2191    0.9167 H   0  0  0  0  0  0  0  0  0  0  0  0
   -4.8623    2.0153   -0.4303 H   0  0  0  0  0  0  0  0  0  0  0  0
   -5.1491    0.0521    3.9240 H   0  0  0  0  0  0  0  0  0  0  0  0
   -5.8484   -0.8831    2.4900 H   0  0  0  0  0  0  0  0  0  0  0  0
   -6.0728    0.8840    2.6285 H   0  0  0  0  0  0  0  0  0  0  0  0
  1  2  1  0
  2  3  1  0
  3  4  1  0
  4  5  1  0
  5  6  1  0
  4  7  1  0
  7  8  1  0
  3  9  1  0
  8 10  1  0
  9 10  1  0
 10 11  1  0
 11 12  1  0
 12 13  1  0
 13 14  1  0
 14 15  1  0
 15 16  1  0
 12 17  1  0
 16 17  1  0
 17 18  1  0
 18 19  1  0
 19 20  1  0
 20 21  1  0
 19 22  1  0
 16 23  1  0
 22 23  1  0
 22 24  1  0
 24 25  1  0
  1 26  1  0
  1 27  1  0
  1 28  1  0
  3 29  1  0
  4 30  1  0
  6 31  1  0
  6 32  1  0
  6 33  1  0
  7 34  1  0
  7 35  1  0
  8 36  1  0
  8 37  1  0
  9 38  1  0
  9 39  1  0
 10 40  1  0
 11 41  1  0
 11 42  1  0
 12 43  1  0
 13 44  1  0
 14 45  1  0
 14 46  1  0
 15 47  1  0
 15 48  1  0
 16 49  1  0
 17 50  1  0
 18 51  1  0
 18 52  1  0
 19 53  1  0
 21 54  1  0
 21 55  1  0
 21 56  1  0
 22 57  1  0
 23 58  1  0
 23 59  1  0
 25 60  1  0
 25 61  1  0
 25 62  1  0
M  END
>  <PDBID>  (1) 
3IAK

>  <PDB ID>  (1) 
3IAK

>  <Generic Name>  (1) 
Papaverine

>  <Brand Name>  (1) 
Papaverine Hydrochloride#Papaverine Hydrochloride Injection USP#Alapav#Albatran#Artegodan#Cardioverina#Cerebid#Cerespan#Delapav#Dilaves#Dispamil#Drapavel#Durapav#Dynovas#Mesotina#Myobid#Optenyl#Pameion#Pamelon#Panergon#Papacon#Papalease#Papaversan#Papital T.R.#Paptial T.R.#Pavabid#Pavacap#Pavacen#Pavadel#Pavagen#Pavakey#Pavased#Pavatest#Paverolan#Paveron#Pavnell#Qua Bid#Ro-Papav#Therapav#Vasal#Vaso-Pav

>  <DrugBank ID>  (1) 
DB01113

>  <ATC Codes>  (1) 
G04BE52#G04BE02#A03AD01

>  <Ligand ID>  (1) 
EV1

>  <Target Name>  (1) 
cAMP-specific 3',5'-cyclic phosphodiesterase 4B

>  <UniProt ID>  (1) 
Q07343

>  <PDB ID.1>  (1) 
3IAK

>  <Seq. Identity>  (1) 
85%

$$$$
