PDB_DB08954_07
     RDKit          3D

126130  0  0  0  0  0  0  0  0999 V2000
    6.8267    0.5514    0.7736 C   0  0  0  0  0  0  0  0  0  0  0  0
   -0.3663   -0.2165   -0.4380 N   0  0  0  0  0  0  0  0  0  0  0  0
   -2.0849    1.7663    0.9272 O   0  0  0  0  0  0  0  0  0  0  0  0
   -5.9313   -0.5801   -0.8304 C   0  0  0  0  0  0  0  0  0  0  0  0
   -7.9643   -0.1242    0.3116 O   0  0  0  0  0  0  0  0  0  0  0  0
   -6.1547    1.2369    0.8914 C   0  0  0  0  0  0  0  0  0  0  0  0
    4.5015   -0.2038   -0.4794 C   0  0  0  0  0  0  0  0  0  0  0  0
    5.4491   -1.3605   -0.0315 C   0  0  0  0  0  0  0  0  0  0  0  0
    6.8367   -0.7455   -0.0244 C   0  0  0  0  0  0  0  0  0  0  0  0
    3.2359   -0.7991   -0.9768 C   0  0  0  0  0  0  0  0  0  0  0  0
    2.2025    0.1007   -1.5126 C   0  0  0  0  0  0  0  0  0  0  0  0
    1.5596    1.1337   -0.7006 C   0  0  0  0  0  0  0  0  0  0  0  0
    5.5837    0.5810    1.6009 C   0  0  0  0  0  0  0  0  0  0  0  0
    4.3782    0.7553    0.6629 C   0  0  0  0  0  0  0  0  0  0  0  0
    0.5428    0.5618    0.2908 C   0  0  0  0  0  0  0  0  0  0  0  0
    0.2735   -1.3473   -1.0726 C   0  0  0  0  0  0  0  0  0  0  0  0
    1.1471   -0.8134   -2.1802 C   0  0  0  0  0  0  0  0  0  0  0  0
   -1.6725   -0.4504    0.0056 C   0  0  2  0  0  0  0  0  0  0  0  0
   -2.4987    0.7804    0.0783 C   0  0  1  0  0  0  0  0  0  0  0  0
   -3.9551    0.4088    0.2803 C   0  0  0  0  0  0  0  0  0  0  0  0
   -4.4229   -0.6636   -0.6472 C   0  0  0  0  0  0  0  0  0  0  0  0
   -6.5635   -0.1358    0.4532 C   0  0  0  0  0  0  0  0  0  0  0  0
   -4.8708    1.6095    0.1811 C   0  0  0  0  0  0  0  0  0  0  0  0
   -1.7446   -1.2735    1.2842 C   0  0  0  0  0  0  0  0  0  0  0  0
    6.8267    0.5514    0.7736 C   0  0  0  0  0  0  0  0  0  0  0  0
   -0.3663   -0.2165   -0.4380 N   0  0  0  0  0  0  0  0  0  0  0  0
   -2.0849    1.7663    0.9272 O   0  0  0  0  0  0  0  0  0  0  0  0
   -5.9313   -0.5801   -0.8304 C   0  0  0  0  0  0  0  0  0  0  0  0
   -7.9643   -0.1242    0.3116 O   0  0  0  0  0  0  0  0  0  0  0  0
   -6.1547    1.2369    0.8914 C   0  0  0  0  0  0  0  0  0  0  0  0
    4.5015   -0.2038   -0.4794 C   0  0  0  0  0  0  0  0  0  0  0  0
    5.4491   -1.3605   -0.0315 C   0  0  0  0  0  0  0  0  0  0  0  0
    6.8367   -0.7455   -0.0244 C   0  0  0  0  0  0  0  0  0  0  0  0
    3.2359   -0.7991   -0.9768 C   0  0  0  0  0  0  0  0  0  0  0  0
    2.2025    0.1007   -1.5126 C   0  0  0  0  0  0  0  0  0  0  0  0
    1.5596    1.1337   -0.7006 C   0  0  0  0  0  0  0  0  0  0  0  0
    5.5837    0.5810    1.6009 C   0  0  0  0  0  0  0  0  0  0  0  0
    4.3782    0.7553    0.6629 C   0  0  0  0  0  0  0  0  0  0  0  0
    0.5428    0.5618    0.2908 C   0  0  0  0  0  0  0  0  0  0  0  0
    0.2735   -1.3473   -1.0726 C   0  0  0  0  0  0  0  0  0  0  0  0
    1.1471   -0.8134   -2.1802 C   0  0  0  0  0  0  0  0  0  0  0  0
   -1.6725   -0.4504    0.0056 C   0  0  2  0  0  0  0  0  0  0  0  0
   -2.4987    0.7804    0.0783 C   0  0  1  0  0  0  0  0  0  0  0  0
   -3.9551    0.4088    0.2803 C   0  0  0  0  0  0  0  0  0  0  0  0
   -4.4229   -0.6636   -0.6472 C   0  0  0  0  0  0  0  0  0  0  0  0
   -6.5635   -0.1358    0.4532 C   0  0  0  0  0  0  0  0  0  0  0  0
   -4.8708    1.6095    0.1811 C   0  0  0  0  0  0  0  0  0  0  0  0
   -1.7446   -1.2735    1.2842 C   0  0  0  0  0  0  0  0  0  0  0  0
    6.8123    1.4387    0.1090 H   0  0  0  0  0  0  0  0  0  0  0  0
    7.7290    0.5949    1.3983 H   0  0  0  0  0  0  0  0  0  0  0  0
   -2.4089    2.6384    0.5952 H   0  0  0  0  0  0  0  0  0  0  0  0
   -6.2869   -1.6021   -1.0546 H   0  0  0  0  0  0  0  0  0  0  0  0
   -6.1786    0.0870   -1.6858 H   0  0  0  0  0  0  0  0  0  0  0  0
   -8.3374    0.7988    0.3990 H   0  0  0  0  0  0  0  0  0  0  0  0
   -5.9244    1.2451    1.9883 H   0  0  0  0  0  0  0  0  0  0  0  0
   -6.9493    1.9977    0.7551 H   0  0  0  0  0  0  0  0  0  0  0  0
    5.0476    0.2856   -1.3104 H   0  0  0  0  0  0  0  0  0  0  0  0
    5.4135   -2.0779   -0.8840 H   0  0  0  0  0  0  0  0  0  0  0  0
    5.1351   -1.8003    0.9069 H   0  0  0  0  0  0  0  0  0  0  0  0
    7.0470   -0.4513   -1.0875 H   0  0  0  0  0  0  0  0  0  0  0  0
    7.6163   -1.4432    0.2908 H   0  0  0  0  0  0  0  0  0  0  0  0
    2.8024   -1.4564   -0.1333 H   0  0  0  0  0  0  0  0  0  0  0  0
    3.5054   -1.6147   -1.7302 H   0  0  0  0  0  0  0  0  0  0  0  0
    2.6164    0.6517   -2.4395 H   0  0  0  0  0  0  0  0  0  0  0  0
    0.9439    1.8132   -1.3947 H   0  0  0  0  0  0  0  0  0  0  0  0
    2.2140    1.8020   -0.1811 H   0  0  0  0  0  0  0  0  0  0  0  0
    5.5959    1.5007    2.2564 H   0  0  0  0  0  0  0  0  0  0  0  0
    5.3993   -0.2946    2.2197 H   0  0  0  0  0  0  0  0  0  0  0  0
    3.4574    0.5675    1.2404 H   0  0  0  0  0  0  0  0  0  0  0  0
    4.3649    1.8333    0.3459 H   0  0  0  0  0  0  0  0  0  0  0  0
    1.1485    0.0092    1.0404 H   0  0  0  0  0  0  0  0  0  0  0  0
    0.0911    1.4226    0.7898 H   0  0  0  0  0  0  0  0  0  0  0  0
   -0.5281   -2.0180   -1.4760 H   0  0  0  0  0  0  0  0  0  0  0  0
    0.8632   -1.8931   -0.3006 H   0  0  0  0  0  0  0  0  0  0  0  0
    1.7001   -1.6024   -2.6884 H   0  0  0  0  0  0  0  0  0  0  0  0
    0.5163   -0.1937   -2.8348 H   0  0  0  0  0  0  0  0  0  0  0  0
   -2.1708   -1.1151   -0.7682 H   0  0  0  0  0  0  0  0  0  0  0  0
   -2.4725    1.2384   -0.9602 H   0  0  0  0  0  0  0  0  0  0  0  0
   -4.0727    0.0211    1.3308 H   0  0  0  0  0  0  0  0  0  0  0  0
   -3.9099   -0.5433   -1.6318 H   0  0  0  0  0  0  0  0  0  0  0  0
   -4.1870   -1.6847   -0.2876 H   0  0  0  0  0  0  0  0  0  0  0  0
   -6.3395   -0.9129    1.2165 H   0  0  0  0  0  0  0  0  0  0  0  0
   -5.0220    1.9461   -0.8515 H   0  0  0  0  0  0  0  0  0  0  0  0
   -4.4350    2.4677    0.7572 H   0  0  0  0  0  0  0  0  0  0  0  0
   -2.3697   -2.1778    1.1886 H   0  0  0  0  0  0  0  0  0  0  0  0
   -2.0268   -0.6164    2.1091 H   0  0  0  0  0  0  0  0  0  0  0  0
   -0.7077   -1.6341    1.4759 H   0  0  0  0  0  0  0  0  0  0  0  0
    6.8123    1.4387    0.1090 H   0  0  0  0  0  0  0  0  0  0  0  0
    7.7290    0.5949    1.3983 H   0  0  0  0  0  0  0  0  0  0  0  0
   -2.4089    2.6384    0.5952 H   0  0  0  0  0  0  0  0  0  0  0  0
   -6.2869   -1.6021   -1.0546 H   0  0  0  0  0  0  0  0  0  0  0  0
   -6.1786    0.0870   -1.6858 H   0  0  0  0  0  0  0  0  0  0  0  0
   -8.3374    0.7988    0.3990 H   0  0  0  0  0  0  0  0  0  0  0  0
   -5.9244    1.2451    1.9883 H   0  0  0  0  0  0  0  0  0  0  0  0
   -6.9493    1.9977    0.7551 H   0  0  0  0  0  0  0  0  0  0  0  0
    5.0476    0.2856   -1.3104 H   0  0  0  0  0  0  0  0  0  0  0  0
    5.4135   -2.0779   -0.8840 H   0  0  0  0  0  0  0  0  0  0  0  0
    5.1351   -1.8003    0.9069 H   0  0  0  0  0  0  0  0  0  0  0  0
    7.0470   -0.4513   -1.0875 H   0  0  0  0  0  0  0  0  0  0  0  0
    7.6163   -1.4432    0.2908 H   0  0  0  0  0  0  0  0  0  0  0  0
    2.8024   -1.4564   -0.1333 H   0  0  0  0  0  0  0  0  0  0  0  0
    3.5054   -1.6147   -1.7302 H   0  0  0  0  0  0  0  0  0  0  0  0
    2.6164    0.6517   -2.4395 H   0  0  0  0  0  0  0  0  0  0  0  0
    0.9439    1.8132   -1.3947 H   0  0  0  0  0  0  0  0  0  0  0  0
    2.2140    1.8020   -0.1811 H   0  0  0  0  0  0  0  0  0  0  0  0
    5.5959    1.5007    2.2564 H   0  0  0  0  0  0  0  0  0  0  0  0
    5.3993   -0.2946    2.2197 H   0  0  0  0  0  0  0  0  0  0  0  0
    3.4574    0.5675    1.2404 H   0  0  0  0  0  0  0  0  0  0  0  0
    4.3649    1.8333    0.3459 H   0  0  0  0  0  0  0  0  0  0  0  0
    1.1485    0.0092    1.0404 H   0  0  0  0  0  0  0  0  0  0  0  0
    0.0911    1.4226    0.7898 H   0  0  0  0  0  0  0  0  0  0  0  0
   -0.5281   -2.0180   -1.4760 H   0  0  0  0  0  0  0  0  0  0  0  0
    0.8632   -1.8931   -0.3006 H   0  0  0  0  0  0  0  0  0  0  0  0
    1.7001   -1.6024   -2.6884 H   0  0  0  0  0  0  0  0  0  0  0  0
    0.5163   -0.1937   -2.8348 H   0  0  0  0  0  0  0  0  0  0  0  0
   -2.1708   -1.1151   -0.7682 H   0  0  0  0  0  0  0  0  0  0  0  0
   -2.4725    1.2384   -0.9602 H   0  0  0  0  0  0  0  0  0  0  0  0
   -4.0727    0.0211    1.3308 H   0  0  0  0  0  0  0  0  0  0  0  0
   -3.9099   -0.5433   -1.6318 H   0  0  0  0  0  0  0  0  0  0  0  0
   -4.1870   -1.6847   -0.2876 H   0  0  0  0  0  0  0  0  0  0  0  0
   -6.3395   -0.9129    1.2165 H   0  0  0  0  0  0  0  0  0  0  0  0
   -5.0220    1.9461   -0.8515 H   0  0  0  0  0  0  0  0  0  0  0  0
   -4.4350    2.4677    0.7572 H   0  0  0  0  0  0  0  0  0  0  0  0
   -2.3697   -2.1778    1.1886 H   0  0  0  0  0  0  0  0  0  0  0  0
   -2.0268   -0.6164    2.1091 H   0  0  0  0  0  0  0  0  0  0  0  0
   -0.7077   -1.6341    1.4759 H   0  0  0  0  0  0  0  0  0  0  0  0
  7  8  1  0
  1  9  1  0
  8  9  1  0
  7 10  1  0
 10 11  1  0
 11 12  1  0
  1 13  1  0
  7 14  1  0
 13 14  1  0
  2 15  1  0
 12 15  1  0
  2 16  1  0
 11 17  1  0
 16 17  1  0
  2 18  1  0
  3 19  1  0
 18 19  1  0
 19 20  1  0
  4 21  1  0
 20 21  1  0
  4 22  1  0
  5 22  1  0
  6 22  1  0
  6 23  1  0
 20 23  1  0
 18 24  1  0
 31 32  1  0
 25 33  1  0
 32 33  1  0
 31 34  1  0
 34 35  1  0
 35 36  1  0
 25 37  1  0
 31 38  1  0
 37 38  1  0
 26 39  1  0
 36 39  1  0
 26 40  1  0
 35 41  1  0
 40 41  1  0
 26 42  1  0
 27 43  1  0
 42 43  1  0
 43 44  1  0
 28 45  1  0
 44 45  1  0
 28 46  1  0
 29 46  1  0
 30 46  1  0
 30 47  1  0
 44 47  1  0
 42 48  1  0
  1 49  1  0
  1 50  1  0
  3 51  1  0
  4 52  1  0
  4 53  1  0
  5 54  1  0
  6 55  1  0
  6 56  1  0
  7 57  1  0
  8 58  1  0
  8 59  1  0
  9 60  1  0
  9 61  1  0
 10 62  1  0
 10 63  1  0
 11 64  1  0
 12 65  1  0
 12 66  1  0
 13 67  1  0
 13 68  1  0
 14 69  1  0
 14 70  1  0
 15 71  1  0
 15 72  1  0
 16 73  1  0
 16 74  1  0
 17 75  1  0
 17 76  1  0
 18 77  1  6
 19 78  1  6
 20 79  1  0
 21 80  1  0
 21 81  1  0
 22 82  1  0
 23 83  1  0
 23 84  1  0
 24 85  1  0
 24 86  1  0
 24 87  1  0
 25 88  1  0
 25 89  1  0
 27 90  1  0
 28 91  1  0
 28 92  1  0
 29 93  1  0
 30 94  1  0
 30 95  1  0
 31 96  1  0
 32 97  1  0
 32 98  1  0
 33 99  1  0
 33100  1  0
 34101  1  0
 34102  1  0
 35103  1  0
 36104  1  0
 36105  1  0
 37106  1  0
 37107  1  0
 38108  1  0
 38109  1  0
 39110  1  0
 39111  1  0
 40112  1  0
 40113  1  0
 41114  1  0
 41115  1  0
 42116  1  6
 43117  1  6
 44118  1  0
 45119  1  0
 45120  1  0
 46121  1  0
 47122  1  0
 47123  1  0
 48124  1  0
 48125  1  0
 48126  1  0
M  END
>  <PDBID>  (1) 
4PE5

>  <PDB ID>  (1) 
4PE5

>  <Generic Name>  (1) 
Ifenprodil

>  <Brand Name>  (1) 
Cerocral#Furezanil#Iburonol#Linbulane#Technis#Vadilex#Vasculodil#Youajyl

>  <DrugBank ID>  (1) 
DB08954

>  <ATC Codes>  (1) 
C04AX28

>  <Ligand ID>  (1) 
QEL

>  <Target Name>  (1) 
Glutamate receptor ionotropic, NMDA 1

>  <UniProt ID>  (1) 
Q05586

>  <PDB ID.1>  (1) 
4PE5

>  <Seq. Identity>  (1) 
98%

$$$$
