PDB_DB00176_06
     RDKit          3D

 51 51  0  0  0  0  0  0  0  0999 V2000
    5.5648   -1.7105   -1.6314 C   0  0  0  0  0  0  0  0  0  0  0  0
    4.5625   -0.8470   -1.2154 O   0  0  0  0  0  0  0  0  0  0  0  0
    3.8364   -1.3943   -0.1480 C   0  0  0  0  0  0  0  0  0  0  0  0
    2.7753   -0.3649    0.2170 C   0  0  0  0  0  0  0  0  0  0  0  0
    1.8621   -0.0890   -0.9508 C   0  0  0  0  0  0  0  0  0  0  0  0
    0.8203    0.9393   -0.5873 C   0  0  0  0  0  0  0  0  0  0  0  0
   -0.0698    0.5262    0.5551 C   0  0  0  0  0  0  0  0  0  0  0  0
   -1.0260    1.6094    0.7797 N   0  0  0  0  0  0  0  0  0  0  0  0
   -0.4185    2.7614    1.0886 O   0  0  0  0  0  0  0  0  0  0  0  0
   -0.8244    3.7675    0.2152 C   0  0  0  0  0  0  0  0  0  0  0  0
   -0.1215    5.0689    0.5846 C   0  0  0  0  0  0  0  0  0  0  0  0
   -0.4981    5.4040    1.9624 N   0  0  0  0  0  0  0  0  0  0  0  0
   -0.8274   -0.6941    0.1814 C   0  0  0  0  0  0  0  0  0  0  0  0
   -1.7489   -1.1711    1.3064 C   0  0  0  0  0  0  0  0  0  0  0  0
   -2.1357   -2.5683    1.0007 C   0  0  0  0  0  0  0  0  0  0  0  0
   -2.6143   -2.8227   -0.3856 C   0  0  0  0  0  0  0  0  0  0  0  0
   -2.1428   -1.9161   -1.4399 C   0  0  0  0  0  0  0  0  0  0  0  0
   -1.7585   -0.5257   -0.9968 C   0  0  0  0  0  0  0  0  0  0  0  0
   -4.1441   -2.8945   -0.4277 C   0  0  0  0  0  0  0  0  0  0  0  0
   -4.7016   -1.7183    0.0057 F   0  0  0  0  0  0  0  0  0  0  0  0
   -4.4985   -3.9754    0.3445 F   0  0  0  0  0  0  0  0  0  0  0  0
   -4.4781   -3.1369   -1.7525 F   0  0  0  0  0  0  0  0  0  0  0  0
    6.2917   -1.9365   -0.8259 H   0  0  0  0  0  0  0  0  0  0  0  0
    5.1358   -2.6355   -2.0825 H   0  0  0  0  0  0  0  0  0  0  0  0
    6.1256   -1.1793   -2.4398 H   0  0  0  0  0  0  0  0  0  0  0  0
    3.3947   -2.3704   -0.3857 H   0  0  0  0  0  0  0  0  0  0  0  0
    4.5495   -1.4831    0.6918 H   0  0  0  0  0  0  0  0  0  0  0  0
    3.2793    0.5825    0.4889 H   0  0  0  0  0  0  0  0  0  0  0  0
    2.2075   -0.7095    1.1007 H   0  0  0  0  0  0  0  0  0  0  0  0
    1.3629   -1.0263   -1.3071 H   0  0  0  0  0  0  0  0  0  0  0  0
    2.4864    0.2680   -1.7989 H   0  0  0  0  0  0  0  0  0  0  0  0
    1.3576    1.8933   -0.2863 H   0  0  0  0  0  0  0  0  0  0  0  0
    0.2826    1.2224   -1.5075 H   0  0  0  0  0  0  0  0  0  0  0  0
    0.5731    0.3839    1.4494 H   0  0  0  0  0  0  0  0  0  0  0  0
   -1.7885    1.3460    1.4152 H   0  0  0  0  0  0  0  0  0  0  0  0
   -1.9199    3.9324    0.2371 H   0  0  0  0  0  0  0  0  0  0  0  0
   -0.5535    3.5606   -0.8385 H   0  0  0  0  0  0  0  0  0  0  0  0
    0.9717    4.9423    0.4816 H   0  0  0  0  0  0  0  0  0  0  0  0
   -0.4684    5.8985   -0.0412 H   0  0  0  0  0  0  0  0  0  0  0  0
   -0.4274    4.5343    2.5371 H   0  0  0  0  0  0  0  0  0  0  0  0
   -1.4846    5.7374    1.9231 H   0  0  0  0  0  0  0  0  0  0  0  0
   -0.1697   -1.5723   -0.0384 H   0  0  0  0  0  0  0  0  0  0  0  0
   -2.6446   -0.5033    1.3242 H   0  0  0  0  0  0  0  0  0  0  0  0
   -1.2759   -1.1240    2.2860 H   0  0  0  0  0  0  0  0  0  0  0  0
   -2.9813   -2.8449    1.6974 H   0  0  0  0  0  0  0  0  0  0  0  0
   -1.2999   -3.2382    1.3011 H   0  0  0  0  0  0  0  0  0  0  0  0
   -2.2874   -3.8716   -0.6535 H   0  0  0  0  0  0  0  0  0  0  0  0
   -2.9436   -1.7748   -2.2248 H   0  0  0  0  0  0  0  0  0  0  0  0
   -1.2693   -2.3179   -2.0178 H   0  0  0  0  0  0  0  0  0  0  0  0
   -2.6606    0.0543   -0.6497 H   0  0  0  0  0  0  0  0  0  0  0  0
   -1.2571   -0.0160   -1.8133 H   0  0  0  0  0  0  0  0  0  0  0  0
  1  2  1  0
  2  3  1  0
  3  4  1  0
  4  5  1  0
  5  6  1  0
  6  7  1  0
  7  8  1  0
  8  9  1  0
  9 10  1  0
 10 11  1  0
 11 12  1  0
  7 13  1  0
 13 14  1  0
 14 15  1  0
 15 16  1  0
 16 17  1  0
 13 18  1  0
 17 18  1  0
 16 19  1  0
 19 20  1  0
 19 21  1  0
 19 22  1  0
  1 23  1  0
  1 24  1  0
  1 25  1  0
  3 26  1  0
  3 27  1  0
  4 28  1  0
  4 29  1  0
  5 30  1  0
  5 31  1  0
  6 32  1  0
  6 33  1  0
  7 34  1  0
  8 35  1  0
 10 36  1  0
 10 37  1  0
 11 38  1  0
 11 39  1  0
 12 40  1  0
 12 41  1  0
 13 42  1  0
 14 43  1  0
 14 44  1  0
 15 45  1  0
 15 46  1  0
 16 47  1  0
 17 48  1  0
 17 49  1  0
 18 50  1  0
 18 51  1  0
M  END
>  <PDBID>  (1) 
6AWP

>  <PDB ID>  (1) 
6AWP

>  <Generic Name>  (1) 
Fluvoxamine

>  <Brand Name>  (1) 
Act Fluvoxamine#Apo-fluvoxamine Tablets#Ava-fluvoxamine#Bci Fluvoxamine Tablets#Dom-fluvoxamine#Fluvoxamine Maleate#Fluvoxamine Maleate Extended-release#Fluvoxamine Tablets#Fluvoxamine-100#Fluvoxamine-50#Gen-fluvoxamine 100mg#Gen-fluvoxamine 50mg#Luvox#Luvox CR#Novo-fluvoxamine#Nu-fluvoxamine 100 Mg Tab#Nu-fluvoxamine 50 Mg Tab#PHL-fluvoxamine#PMS-fluvoxamine#Ratio-fluvoxamine#Riva-fluvox#Riva-fluvox 100mg Tablets#Riva-fluvox 50mg Tablets#Sandoz Fluvoxamine#Dumirox#Faverin#Fevarin#Floxyfral#Maveral

>  <DrugBank ID>  (1) 
DB00176

>  <ATC Codes>  (1) 
N06AB08

>  <Ligand ID>  (1) 
FVX

>  <Target Name>  (1) 
Sodium-dependent serotonin transporter

>  <UniProt ID>  (1) 
P31645

>  <PDB ID.1>  (1) 
6AWP

>  <Seq. Identity>  (1) 
99%

$$$$
