PDB_DB09026_06
     RDKit          3D

204204  0  0  0  0  0  0  0  0999 V2000
  -10.1438    2.5779   -0.5102 C   0  0  0  0  0  0  0  0  0  0  0  0
  -10.0979    2.3788    0.8467 O   0  0  0  0  0  0  0  0  0  0  0  0
   -8.9980    2.9319    1.4837 C   0  0  0  0  0  0  0  0  0  0  0  0
   -7.6728    2.3840    0.9851 C   0  0  0  0  0  0  0  0  0  0  0  0
   -7.6898    0.9048    1.2319 C   0  0  0  0  0  0  0  0  0  0  0  0
   -6.5715    0.2200    0.8650 O   0  0  0  0  0  0  0  0  0  0  0  0
   -6.1793    0.2788   -0.4337 C   0  0  0  0  0  0  0  0  0  0  0  0
   -4.7323    0.6220   -0.6321 C   0  0  0  0  0  0  0  0  0  0  0  0
   -3.8596   -0.6533   -0.3840 C   0  0  0  0  0  0  0  0  0  0  0  0
   -4.0166   -1.4779   -1.6797 C   0  0  0  0  0  0  0  0  0  0  0  0
   -5.4317   -1.3950   -2.1687 C   0  0  0  0  0  0  0  0  0  0  0  0
   -6.3423   -1.1448   -1.0009 C   0  0  0  0  0  0  0  0  0  0  0  0
   -7.6485   -1.3555   -1.4258 O   0  0  0  0  0  0  0  0  0  0  0  0
   -8.2495   -2.4195   -0.7544 C   0  0  0  0  0  0  0  0  0  0  0  0
   -2.4853   -0.1578   -0.3120 C   0  0  0  0  0  0  0  0  0  0  0  0
   -1.3607   -1.1376   -0.0545 C   0  0  2  0  0  0  0  0  0  0  0  0
   -1.3520   -1.8580    1.2029 C   0  0  0  0  0  0  0  0  0  0  0  0
   -2.5844   -2.7439    1.4533 C   0  0  0  0  0  0  0  0  0  0  0  0
   -1.1710   -1.0041    2.4385 C   0  0  0  0  0  0  0  0  0  0  0  0
   -0.1319   -0.4628   -0.5584 C   0  0  0  0  0  0  0  0  0  0  0  0
    1.1943   -1.0509   -0.5149 C   0  0  2  0  0  0  0  0  0  0  0  0
    1.2936   -2.3292   -1.1796 N   0  0  0  0  0  0  0  0  0  0  0  0
    2.0479   -0.9529    0.6733 C   0  0  1  0  0  0  0  0  0  0  0  0
    1.7715   -1.9504    1.6133 O   0  0  0  0  0  0  0  0  0  0  0  0
    3.5252   -0.9972    0.4609 C   0  0  0  0  0  0  0  0  0  0  0  0
    4.1093    0.1255   -0.3798 C   0  0  1  0  0  0  0  0  0  0  0  0
    3.8555    1.4489    0.1915 C   0  0  0  0  0  0  0  0  0  0  0  0
    4.4317    2.5618   -0.6241 C   0  0  0  0  0  0  0  0  0  0  0  0
    4.0736    1.5923    1.6826 C   0  0  0  0  0  0  0  0  0  0  0  0
    5.4695   -0.3230   -0.8025 C   0  0  0  0  0  0  0  0  0  0  0  0
    5.2009   -1.5256   -1.5618 O   0  0  0  0  0  0  0  0  0  0  0  0
    6.4912   -0.5261    0.0725 N   0  0  0  0  0  0  0  0  0  0  0  0
    7.2912    0.3192    0.7810 C   0  0  0  0  0  0  0  0  0  0  0  0
    8.4101    1.0435    0.0566 C   0  0  0  0  0  0  0  0  0  0  0  0
    9.1180    1.9030    1.1180 C   0  0  0  0  0  0  0  0  0  0  0  0
    8.0188    1.9252   -1.0615 C   0  0  0  0  0  0  0  0  0  0  0  0
    9.4521    0.0130   -0.3926 C   0  0  1  0  0  0  0  0  0  0  0  0
    9.9655   -0.6585    0.6918 O   0  0  0  0  0  0  0  0  0  0  0  0
    8.9492   -0.8382   -1.4362 N   0  0  0  0  0  0  0  0  0  0  0  0
    9.3519    1.9940   -0.4858 C   0  0  0  0  0  0  0  0  0  0  0  0
    9.4940    0.6406   -0.7779 O   0  0  0  0  0  0  0  0  0  0  0  0
    8.1632    0.1798   -1.0741 C   0  0  0  0  0  0  0  0  0  0  0  0
    8.1998   -1.2643   -1.4149 C   0  0  0  0  0  0  0  0  0  0  0  0
    6.9049   -1.8692   -1.8162 C   0  0  0  0  0  0  0  0  0  0  0  0
    5.9139   -1.8676   -0.9492 O   0  0  0  0  0  0  0  0  0  0  0  0
    5.2593   -0.8090   -0.4648 C   0  0  0  0  0  0  0  0  0  0  0  0
    3.8118   -0.8404   -1.0228 C   0  0  0  0  0  0  0  0  0  0  0  0
    3.0994    0.3320   -0.3348 C   0  0  2  0  0  0  0  0  0  0  0  0
    2.7244   -0.1947    1.0219 C   0  0  0  0  0  0  0  0  0  0  0  0
    3.7976   -1.1200    1.5300 C   0  0  0  0  0  0  0  0  0  0  0  0
    5.1827   -0.7292    1.0375 C   0  0  0  0  0  0  0  0  0  0  0  0
    6.0451   -1.6566    1.5907 O   0  0  0  0  0  0  0  0  0  0  0  0
    6.9243   -1.1526    2.5071 C   0  0  0  0  0  0  0  0  0  0  0  0
    2.0041    0.7505   -1.2207 C   0  0  0  0  0  0  0  0  0  0  0  0
    1.0982    1.8454   -0.8883 C   0  0  2  0  0  0  0  0  0  0  0  0
    1.6549    3.2082   -0.6560 C   0  0  0  0  0  0  0  0  0  0  0  0
    2.3962    3.7677   -1.8324 C   0  0  0  0  0  0  0  0  0  0  0  0
    2.3352    3.4428    0.6541 C   0  0  0  0  0  0  0  0  0  0  0  0
   -0.0034    1.5344    0.0932 C   0  0  0  0  0  0  0  0  0  0  0  0
   -0.9438    0.4415   -0.3789 C   0  0  2  0  0  0  0  0  0  0  0  0
   -1.6031    0.7511   -1.5935 N   0  0  0  0  0  0  0  0  0  0  0  0
   -1.8853    0.0675    0.7640 C   0  0  1  0  0  0  0  0  0  0  0  0
   -2.7748    1.0571    1.0871 O   0  0  0  0  0  0  0  0  0  0  0  0
   -2.4846   -1.3024    0.5871 C   0  0  0  0  0  0  0  0  0  0  0  0
   -3.2947   -1.4740   -0.6462 C   0  0  1  0  0  0  0  0  0  0  0  0
   -3.8213   -2.8862   -0.7068 C   0  0  0  0  0  0  0  0  0  0  0  0
   -4.6958   -3.2983    0.4203 C   0  0  0  0  0  0  0  0  0  0  0  0
   -2.6839   -3.8941   -0.8346 C   0  0  0  0  0  0  0  0  0  0  0  0
   -4.4661   -0.5416   -0.7521 C   0  0  0  0  0  0  0  0  0  0  0  0
   -5.1190   -0.8326   -1.9701 O   0  0  0  0  0  0  0  0  0  0  0  0
   -5.4694   -0.8077    0.2728 N   0  0  0  0  0  0  0  0  0  0  0  0
   -6.5161    0.1798    0.1154 C   0  0  0  0  0  0  0  0  0  0  0  0
   -7.6189   -0.0301    1.1325 C   0  0  0  0  0  0  0  0  0  0  0  0
   -8.2622   -1.3721    1.0098 C   0  0  0  0  0  0  0  0  0  0  0  0
   -6.9793    0.0534    2.5104 C   0  0  0  0  0  0  0  0  0  0  0  0
   -8.6382    1.0807    0.9965 C   0  0  0  0  0  0  0  0  0  0  0  0
   -9.2085    1.1130   -0.2641 O   0  0  0  0  0  0  0  0  0  0  0  0
   -8.0684    2.3637    1.3831 N   0  0  0  0  0  0  0  0  0  0  0  0
   -9.2610    2.1376   -1.0141 H   0  0  0  0  0  0  0  0  0  0  0  0
  -11.0954    2.1006   -0.8682 H   0  0  0  0  0  0  0  0  0  0  0  0
  -10.2190    3.6807   -0.7295 H   0  0  0  0  0  0  0  0  0  0  0  0
   -9.0177    4.0533    1.4077 H   0  0  0  0  0  0  0  0  0  0  0  0
   -9.1311    2.7238    2.5744 H   0  0  0  0  0  0  0  0  0  0  0  0
   -6.8805    2.9080    1.5544 H   0  0  0  0  0  0  0  0  0  0  0  0
   -7.5157    2.5797   -0.0750 H   0  0  0  0  0  0  0  0  0  0  0  0
   -8.5541    0.4923    0.6323 H   0  0  0  0  0  0  0  0  0  0  0  0
   -7.9946    0.6954    2.2992 H   0  0  0  0  0  0  0  0  0  0  0  0
   -6.8234    0.9209   -1.0576 H   0  0  0  0  0  0  0  0  0  0  0  0
   -4.3175    1.3830    0.0098 H   0  0  0  0  0  0  0  0  0  0  0  0
   -4.5564    0.8762   -1.6885 H   0  0  0  0  0  0  0  0  0  0  0  0
   -4.2886   -1.2275    0.4135 H   0  0  0  0  0  0  0  0  0  0  0  0
   -3.6127   -2.4727   -1.6167 H   0  0  0  0  0  0  0  0  0  0  0  0
   -3.3987   -0.9139   -2.4263 H   0  0  0  0  0  0  0  0  0  0  0  0
   -5.7070   -2.3841   -2.5745 H   0  0  0  0  0  0  0  0  0  0  0  0
   -5.5736   -0.6652   -2.9932 H   0  0  0  0  0  0  0  0  0  0  0  0
   -6.1057   -1.8918   -0.2192 H   0  0  0  0  0  0  0  0  0  0  0  0
   -9.2833   -2.5341   -1.1340 H   0  0  0  0  0  0  0  0  0  0  0  0
   -8.3154   -2.1591    0.3274 H   0  0  0  0  0  0  0  0  0  0  0  0
   -7.7274   -3.3794   -0.9199 H   0  0  0  0  0  0  0  0  0  0  0  0
   -2.3692    0.7506    0.3631 H   0  0  0  0  0  0  0  0  0  0  0  0
   -2.2525    0.2957   -1.3273 H   0  0  0  0  0  0  0  0  0  0  0  0
   -1.5802   -1.9520   -0.8651 H   0  0  0  0  0  0  0  0  0  0  0  0
   -0.5228   -2.5988    1.1851 H   0  0  0  0  0  0  0  0  0  0  0  0
   -3.2759   -2.2624    2.1510 H   0  0  0  0  0  0  0  0  0  0  0  0
   -2.2547   -3.6737    2.0108 H   0  0  0  0  0  0  0  0  0  0  0  0
   -2.9626   -3.1166    0.5102 H   0  0  0  0  0  0  0  0  0  0  0  0
   -2.0362   -0.3313    2.6096 H   0  0  0  0  0  0  0  0  0  0  0  0
   -1.0675   -1.6570    3.3260 H   0  0  0  0  0  0  0  0  0  0  0  0
   -0.2873   -0.3517    2.3951 H   0  0  0  0  0  0  0  0  0  0  0  0
   -0.1035    0.5459    0.0071 H   0  0  0  0  0  0  0  0  0  0  0  0
   -0.3552   -0.0489   -1.6222 H   0  0  0  0  0  0  0  0  0  0  0  0
    1.7657   -0.3837   -1.3573 H   0  0  0  0  0  0  0  0  0  0  0  0
    1.2907   -2.2694   -2.2223 H   0  0  0  0  0  0  0  0  0  0  0  0
    0.4983   -2.9546   -0.9190 H   0  0  0  0  0  0  0  0  0  0  0  0
    1.7755    0.0149    1.2458 H   0  0  0  0  0  0  0  0  0  0  0  0
    2.0501   -2.8479    1.3318 H   0  0  0  0  0  0  0  0  0  0  0  0
    4.0432   -1.1154    1.4278 H   0  0  0  0  0  0  0  0  0  0  0  0
    3.7092   -1.9298   -0.1637 H   0  0  0  0  0  0  0  0  0  0  0  0
    3.5159    0.0980   -1.3654 H   0  0  0  0  0  0  0  0  0  0  0  0
    2.6975    1.6016    0.0442 H   0  0  0  0  0  0  0  0  0  0  0  0
    3.6442    3.2793   -1.0068 H   0  0  0  0  0  0  0  0  0  0  0  0
    5.0896    3.2353   -0.0106 H   0  0  0  0  0  0  0  0  0  0  0  0
    4.9591    2.1721   -1.4971 H   0  0  0  0  0  0  0  0  0  0  0  0
    3.1095    1.7575    2.1929 H   0  0  0  0  0  0  0  0  0  0  0  0
    4.5344    0.6959    2.1484 H   0  0  0  0  0  0  0  0  0  0  0  0
    4.6863    2.5072    1.9102 H   0  0  0  0  0  0  0  0  0  0  0  0
    5.7612    0.3918   -1.6466 H   0  0  0  0  0  0  0  0  0  0  0  0
    6.0007   -1.7339   -2.1160 H   0  0  0  0  0  0  0  0  0  0  0  0
    6.6884   -1.5607    0.2323 H   0  0  0  0  0  0  0  0  0  0  0  0
    6.7108    1.1609    1.2685 H   0  0  0  0  0  0  0  0  0  0  0  0
    7.8555   -0.2191    1.6331 H   0  0  0  0  0  0  0  0  0  0  0  0
    9.0276    1.3868    2.0815 H   0  0  0  0  0  0  0  0  0  0  0  0
   10.1714    2.0525    0.8023 H   0  0  0  0  0  0  0  0  0  0  0  0
    8.5884    2.8711    1.2347 H   0  0  0  0  0  0  0  0  0  0  0  0
    7.8403    1.4191   -2.0377 H   0  0  0  0  0  0  0  0  0  0  0  0
    8.9283    2.5981   -1.2516 H   0  0  0  0  0  0  0  0  0  0  0  0
    7.2474    2.6182   -0.7380 H   0  0  0  0  0  0  0  0  0  0  0  0
   10.2952    0.6137   -0.8347 H   0  0  0  0  0  0  0  0  0  0  0  0
    9.5177   -1.5240    0.8876 H   0  0  0  0  0  0  0  0  0  0  0  0
    9.6224   -0.8833   -2.2539 H   0  0  0  0  0  0  0  0  0  0  0  0
    8.8716   -1.8444   -1.1054 H   0  0  0  0  0  0  0  0  0  0  0  0
   10.3312    2.4493   -0.2410 H   0  0  0  0  0  0  0  0  0  0  0  0
    8.6397    2.1509    0.3580 H   0  0  0  0  0  0  0  0  0  0  0  0
    8.9319    2.5387   -1.3620 H   0  0  0  0  0  0  0  0  0  0  0  0
    7.7035    0.7708   -1.8711 H   0  0  0  0  0  0  0  0  0  0  0  0
    7.6497    0.3795   -0.0875 H   0  0  0  0  0  0  0  0  0  0  0  0
    8.6444   -1.7855   -0.5135 H   0  0  0  0  0  0  0  0  0  0  0  0
    9.0023   -1.4609   -2.2014 H   0  0  0  0  0  0  0  0  0  0  0  0
    7.1704   -2.9080   -2.2037 H   0  0  0  0  0  0  0  0  0  0  0  0
    6.6386   -1.3429   -2.8093 H   0  0  0  0  0  0  0  0  0  0  0  0
    5.6294    0.1391   -0.8636 H   0  0  0  0  0  0  0  0  0  0  0  0
    3.2861   -1.7510   -0.7643 H   0  0  0  0  0  0  0  0  0  0  0  0
    3.8208   -0.7191   -2.1182 H   0  0  0  0  0  0  0  0  0  0  0  0
    3.8888    1.0902   -0.1665 H   0  0  0  0  0  0  0  0  0  0  0  0
    2.6321    0.6601    1.7600 H   0  0  0  0  0  0  0  0  0  0  0  0
    1.7799   -0.7423    1.0474 H   0  0  0  0  0  0  0  0  0  0  0  0
    3.8139   -1.0463    2.6327 H   0  0  0  0  0  0  0  0  0  0  0  0
    3.5570   -2.1713    1.2799 H   0  0  0  0  0  0  0  0  0  0  0  0
    5.4291    0.2628    1.4351 H   0  0  0  0  0  0  0  0  0  0  0  0
    7.5722   -1.9923    2.8811 H   0  0  0  0  0  0  0  0  0  0  0  0
    6.4376   -0.7523    3.4230 H   0  0  0  0  0  0  0  0  0  0  0  0
    7.6159   -0.3794    2.1285 H   0  0  0  0  0  0  0  0  0  0  0  0
    1.3945   -0.1624   -1.4524 H   0  0  0  0  0  0  0  0  0  0  0  0
    2.4911    0.9456   -2.2387 H   0  0  0  0  0  0  0  0  0  0  0  0
    0.4949    2.0160   -1.8694 H   0  0  0  0  0  0  0  0  0  0  0  0
    0.7199    3.8616   -0.5881 H   0  0  0  0  0  0  0  0  0  0  0  0
    1.7455    4.3752   -2.5234 H   0  0  0  0  0  0  0  0  0  0  0  0
    2.8317    2.9761   -2.4920 H   0  0  0  0  0  0  0  0  0  0  0  0
    3.1979    4.4984   -1.5163 H   0  0  0  0  0  0  0  0  0  0  0  0
    3.4405    3.3118    0.5674 H   0  0  0  0  0  0  0  0  0  0  0  0
    1.8790    2.9006    1.4945 H   0  0  0  0  0  0  0  0  0  0  0  0
    2.2464    4.5295    0.9776 H   0  0  0  0  0  0  0  0  0  0  0  0
   -0.6087    2.4324    0.3409 H   0  0  0  0  0  0  0  0  0  0  0  0
    0.4607    1.2277    1.0479 H   0  0  0  0  0  0  0  0  0  0  0  0
   -0.3317   -0.4717   -0.5276 H   0  0  0  0  0  0  0  0  0  0  0  0
   -1.1317    0.5025   -2.4600 H   0  0  0  0  0  0  0  0  0  0  0  0
   -2.2324    1.5468   -1.5989 H   0  0  0  0  0  0  0  0  0  0  0  0
   -1.1957   -0.0303    1.6546 H   0  0  0  0  0  0  0  0  0  0  0  0
   -2.6361    1.9170    0.6640 H   0  0  0  0  0  0  0  0  0  0  0  0
   -3.0432   -1.5200    1.4942 H   0  0  0  0  0  0  0  0  0  0  0  0
   -1.6394   -2.0209    0.5491 H   0  0  0  0  0  0  0  0  0  0  0  0
   -2.6838   -1.3473   -1.5660 H   0  0  0  0  0  0  0  0  0  0  0  0
   -4.4277   -3.0506   -1.6493 H   0  0  0  0  0  0  0  0  0  0  0  0
   -4.4305   -2.9521    1.4162 H   0  0  0  0  0  0  0  0  0  0  0  0
   -4.6233   -4.4288    0.4848 H   0  0  0  0  0  0  0  0  0  0  0  0
   -5.7967   -3.1503    0.1997 H   0  0  0  0  0  0  0  0  0  0  0  0
   -1.9433   -3.5700   -1.6041 H   0  0  0  0  0  0  0  0  0  0  0  0
   -3.1214   -4.8482   -1.2175 H   0  0  0  0  0  0  0  0  0  0  0  0
   -2.2194   -4.1084    0.1306 H   0  0  0  0  0  0  0  0  0  0  0  0
   -4.2531    0.5167   -0.7484 H   0  0  0  0  0  0  0  0  0  0  0  0
   -4.7092   -0.3281   -2.7167 H   0  0  0  0  0  0  0  0  0  0  0  0
   -5.0088   -0.6339    1.1893 H   0  0  0  0  0  0  0  0  0  0  0  0
   -6.1273    1.2125    0.2474 H   0  0  0  0  0  0  0  0  0  0  0  0
   -6.9975    0.1612   -0.8770 H   0  0  0  0  0  0  0  0  0  0  0  0
   -9.2931   -1.3403    1.4101 H   0  0  0  0  0  0  0  0  0  0  0  0
   -7.6275   -2.0974    1.5585 H   0  0  0  0  0  0  0  0  0  0  0  0
   -8.3347   -1.7280   -0.0404 H   0  0  0  0  0  0  0  0  0  0  0  0
   -6.0459    0.6694    2.4969 H   0  0  0  0  0  0  0  0  0  0  0  0
   -7.6637    0.5221    3.2289 H   0  0  0  0  0  0  0  0  0  0  0  0
   -6.6587   -0.9647    2.8647 H   0  0  0  0  0  0  0  0  0  0  0  0
   -9.4755    0.8745    1.7245 H   0  0  0  0  0  0  0  0  0  0  0  0
  -10.0128    1.6579   -0.2807 H   0  0  0  0  0  0  0  0  0  0  0  0
   -7.9305    2.9350    0.5143 H   0  0  0  0  0  0  0  0  0  0  0  0
   -8.6979    2.9120    2.0142 H   0  0  0  0  0  0  0  0  0  0  0  0
  1  2  1  0
  2  3  1  0
  3  4  1  0
  4  5  1  0
  5  6  1  0
  6  7  1  0
  7  8  1  0
  8  9  1  0
  9 10  1  0
 10 11  1  0
  7 12  1  0
 11 12  1  0
 12 13  1  0
 13 14  1  0
  9 15  1  0
 15 16  1  0
 16 17  1  0
 17 18  1  0
 17 19  1  0
 16 20  1  0
 20 21  1  0
 21 22  1  0
 21 23  1  0
 23 24  1  0
 23 25  1  0
 25 26  1  0
 26 27  1  0
 27 28  1  0
 27 29  1  0
 26 30  1  0
 30 31  1  0
 30 32  1  0
 32 33  1  0
 34 33  1  0
 34 35  1  0
 34 36  1  0
 34 37  1  0
 37 38  1  0
 37 39  1  0
 40 41  1  0
 41 42  1  0
 42 43  1  0
 43 44  1  0
 44 45  1  0
 45 46  1  0
 46 47  1  0
 47 48  1  0
 48 49  1  0
 49 50  1  0
 46 51  1  0
 50 51  1  0
 51 52  1  0
 52 53  1  0
 48 54  1  0
 54 55  1  0
 55 56  1  0
 56 57  1  0
 56 58  1  0
 55 59  1  0
 59 60  1  0
 60 61  1  0
 60 62  1  0
 62 63  1  0
 62 64  1  0
 64 65  1  0
 65 66  1  0
 66 67  1  0
 66 68  1  0
 65 69  1  0
 69 70  1  0
 69 71  1  0
 71 72  1  0
 73 72  1  0
 73 74  1  0
 73 75  1  0
 73 76  1  0
 76 77  1  0
 76 78  1  0
  1 79  1  0
  1 80  1  0
  1 81  1  0
  3 82  1  0
  3 83  1  0
  4 84  1  0
  4 85  1  0
  5 86  1  0
  5 87  1  0
  7 88  1  0
  8 89  1  0
  8 90  1  0
  9 91  1  0
 10 92  1  0
 10 93  1  0
 11 94  1  0
 11 95  1  0
 12 96  1  0
 14 97  1  0
 14 98  1  0
 14 99  1  0
 15100  1  0
 15101  1  0
 16102  1  6
 17103  1  0
 18104  1  0
 18105  1  0
 18106  1  0
 19107  1  0
 19108  1  0
 19109  1  0
 20110  1  0
 20111  1  0
 21112  1  6
 22113  1  0
 22114  1  0
 23115  1  1
 24116  1  0
 25117  1  0
 25118  1  0
 26119  1  6
 27120  1  0
 28121  1  0
 28122  1  0
 28123  1  0
 29124  1  0
 29125  1  0
 29126  1  0
 30127  1  0
 31128  1  0
 32129  1  0
 33130  1  0
 33131  1  0
 35132  1  0
 35133  1  0
 35134  1  0
 36135  1  0
 36136  1  0
 36137  1  0
 37138  1  6
 38139  1  0
 39140  1  0
 39141  1  0
 40142  1  0
 40143  1  0
 40144  1  0
 42145  1  0
 42146  1  0
 43147  1  0
 43148  1  0
 44149  1  0
 44150  1  0
 46151  1  0
 47152  1  0
 47153  1  0
 48154  1  1
 49155  1  0
 49156  1  0
 50157  1  0
 50158  1  0
 51159  1  0
 53160  1  0
 53161  1  0
 53162  1  0
 54163  1  0
 54164  1  0
 55165  1  6
 56166  1  0
 57167  1  0
 57168  1  0
 57169  1  0
 58170  1  0
 58171  1  0
 58172  1  0
 59173  1  0
 59174  1  0
 60175  1  6
 61176  1  0
 61177  1  0
 62178  1  1
 63179  1  0
 64180  1  0
 64181  1  0
 65182  1  6
 66183  1  0
 67184  1  0
 67185  1  0
 67186  1  0
 68187  1  0
 68188  1  0
 68189  1  0
 69190  1  0
 70191  1  0
 71192  1  0
 72193  1  0
 72194  1  0
 74195  1  0
 74196  1  0
 74197  1  0
 75198  1  0
 75199  1  0
 75200  1  0
 76201  1  0
 77202  1  0
 78203  1  0
 78204  1  0
M  END
>  <PDBID>  (1) 
2V0Z

>  <PDB ID>  (1) 
2V0Z

>  <Generic Name>  (1) 
Aliskiren

>  <Brand Name>  (1) 
Amturnide#Rasilez#Rasilez Hct#Sandoz Aliskiren#Tekamlo#Tekturna#Tekturna Hct

>  <DrugBank ID>  (1) 
DB09026

>  <ATC Codes>  (1) 
C09DX02#C09XA02#C09XA52#C09XA53#C09XA54

>  <Ligand ID>  (1) 
C41

>  <Target Name>  (1) 
Renin

>  <UniProt ID>  (1) 
P00797

>  <PDB ID.1>  (1) 
2V0Z

>  <Seq. Identity>  (1) 
100%

$$$$
