PDB_DB04743_05
     RDKit          3D

 96 98  0  0  0  0  0  0  0  0999 V2000
   -1.9664    4.6761    0.9510 O   0  0  0  0  0  0  0  0  0  0  0  0
   -1.1381    4.1470   -0.0090 N   0  0  0  0  0  0  0  0  0  0  0  0
    0.0979    4.6184    0.2841 O   0  0  0  0  0  0  0  0  0  0  0  0
   -1.1264    2.7287    0.1970 C   0  0  0  0  0  0  0  0  0  0  0  0
   -2.5049    2.1106    0.0706 C   0  0  0  0  0  0  0  0  0  0  0  0
   -2.3750    0.7286    0.6380 C   0  0  0  0  0  0  0  0  0  0  0  0
   -1.3320   -0.1113    0.0130 C   0  0  0  0  0  0  0  0  0  0  0  0
   -1.9919   -0.9721   -0.9842 N   0  0  0  0  0  0  0  0  0  0  0  0
   -3.0514   -1.9133   -0.5289 S   0  0  0  0  0  0  0  0  0  0  0  0
   -2.8165   -3.4620   -1.2677 O   0  0  0  0  0  0  0  0  0  0  0  0
   -4.6349   -1.4704   -1.1996 O   0  0  0  0  0  0  0  0  0  0  0  0
   -3.3677   -2.2006    1.0896 C   0  0  0  0  0  0  0  0  0  0  0  0
   -0.2831    2.0230   -0.8369 C   0  0  0  0  0  0  0  0  0  0  0  0
   -0.1536    0.5673   -0.5589 C   0  0  0  0  0  0  0  0  0  0  0  0
    0.9819    0.3754    0.2305 O   0  0  0  0  0  0  0  0  0  0  0  0
    1.9806   -0.3234   -0.4064 C   0  0  0  0  0  0  0  0  0  0  0  0
    3.2983    0.4059   -0.4450 C   0  0  0  0  0  0  0  0  0  0  0  0
    4.4587   -0.5520   -0.6288 C   0  0  0  0  0  0  0  0  0  0  0  0
    4.6015   -1.3345    0.6515 C   0  0  0  0  0  0  0  0  0  0  0  0
    3.2590   -1.4705    1.3551 C   0  0  0  0  0  0  0  0  0  0  0  0
    2.1722   -1.6463    0.3253 C   0  0  0  0  0  0  0  0  0  0  0  0
   -1.9664    4.6761    0.9510 O   0  0  0  0  0  0  0  0  0  0  0  0
   -1.1381    4.1470   -0.0090 N   0  0  0  0  0  0  0  0  0  0  0  0
    0.0979    4.6184    0.2841 O   0  0  0  0  0  0  0  0  0  0  0  0
   -1.1264    2.7287    0.1970 C   0  0  0  0  0  0  0  0  0  0  0  0
   -2.5049    2.1106    0.0706 C   0  0  0  0  0  0  0  0  0  0  0  0
   -2.3750    0.7286    0.6380 C   0  0  0  0  0  0  0  0  0  0  0  0
   -1.3320   -0.1113    0.0130 C   0  0  0  0  0  0  0  0  0  0  0  0
   -1.9919   -0.9721   -0.9842 N   0  0  0  0  0  0  0  0  0  0  0  0
   -3.0514   -1.9133   -0.5289 S   0  0  0  0  0  0  0  0  0  0  0  0
   -2.8165   -3.4620   -1.2677 O   0  0  0  0  0  0  0  0  0  0  0  0
   -4.6349   -1.4704   -1.1996 O   0  0  0  0  0  0  0  0  0  0  0  0
   -3.3677   -2.2006    1.0896 C   0  0  0  0  0  0  0  0  0  0  0  0
   -0.2831    2.0230   -0.8369 C   0  0  0  0  0  0  0  0  0  0  0  0
   -0.1536    0.5673   -0.5589 C   0  0  0  0  0  0  0  0  0  0  0  0
    0.9819    0.3754    0.2305 O   0  0  0  0  0  0  0  0  0  0  0  0
    1.9806   -0.3234   -0.4064 C   0  0  0  0  0  0  0  0  0  0  0  0
    3.2983    0.4059   -0.4450 C   0  0  0  0  0  0  0  0  0  0  0  0
    4.4587   -0.5520   -0.6288 C   0  0  0  0  0  0  0  0  0  0  0  0
    4.6015   -1.3345    0.6515 C   0  0  0  0  0  0  0  0  0  0  0  0
    3.2590   -1.4705    1.3551 C   0  0  0  0  0  0  0  0  0  0  0  0
    2.1722   -1.6463    0.3253 C   0  0  0  0  0  0  0  0  0  0  0  0
    0.2656    4.5126    1.2693 H   0  0  0  0  0  0  0  0  0  0  0  0
   -0.6984    2.4592    1.1959 H   0  0  0  0  0  0  0  0  0  0  0  0
   -2.7654    1.9903   -1.0171 H   0  0  0  0  0  0  0  0  0  0  0  0
   -3.2722    2.6525    0.6277 H   0  0  0  0  0  0  0  0  0  0  0  0
   -2.1922    0.8582    1.7446 H   0  0  0  0  0  0  0  0  0  0  0  0
   -3.3776    0.2124    0.5860 H   0  0  0  0  0  0  0  0  0  0  0  0
   -0.9662   -0.8393    0.7976 H   0  0  0  0  0  0  0  0  0  0  0  0
   -1.3109   -1.2053   -1.7373 H   0  0  0  0  0  0  0  0  0  0  0  0
   -3.3439   -3.4797   -2.0949 H   0  0  0  0  0  0  0  0  0  0  0  0
   -4.5191   -1.7998   -2.1372 H   0  0  0  0  0  0  0  0  0  0  0  0
   -3.3299   -3.3049    1.3205 H   0  0  0  0  0  0  0  0  0  0  0  0
   -4.3926   -1.8823    1.3735 H   0  0  0  0  0  0  0  0  0  0  0  0
   -2.6563   -1.7265    1.8135 H   0  0  0  0  0  0  0  0  0  0  0  0
    0.7086    2.5221   -0.8387 H   0  0  0  0  0  0  0  0  0  0  0  0
   -0.7351    2.2175   -1.8310 H   0  0  0  0  0  0  0  0  0  0  0  0
    0.0861    0.0677   -1.5452 H   0  0  0  0  0  0  0  0  0  0  0  0
    1.6670   -0.6012   -1.4549 H   0  0  0  0  0  0  0  0  0  0  0  0
    3.4483    0.9029    0.5328 H   0  0  0  0  0  0  0  0  0  0  0  0
    3.3575    1.1377   -1.2834 H   0  0  0  0  0  0  0  0  0  0  0  0
    4.1692   -1.2150   -1.4909 H   0  0  0  0  0  0  0  0  0  0  0  0
    5.3580    0.0478   -0.8669 H   0  0  0  0  0  0  0  0  0  0  0  0
    4.9975   -2.3360    0.4087 H   0  0  0  0  0  0  0  0  0  0  0  0
    5.2962   -0.7636    1.3091 H   0  0  0  0  0  0  0  0  0  0  0  0
    3.0397   -0.5795    1.9713 H   0  0  0  0  0  0  0  0  0  0  0  0
    3.3212   -2.3844    1.9799 H   0  0  0  0  0  0  0  0  0  0  0  0
    1.2299   -1.9626    0.8156 H   0  0  0  0  0  0  0  0  0  0  0  0
    2.5069   -2.4254   -0.3885 H   0  0  0  0  0  0  0  0  0  0  0  0
    0.2656    4.5126    1.2693 H   0  0  0  0  0  0  0  0  0  0  0  0
   -0.6984    2.4592    1.1959 H   0  0  0  0  0  0  0  0  0  0  0  0
   -2.7654    1.9903   -1.0171 H   0  0  0  0  0  0  0  0  0  0  0  0
   -3.2722    2.6525    0.6277 H   0  0  0  0  0  0  0  0  0  0  0  0
   -2.1922    0.8582    1.7446 H   0  0  0  0  0  0  0  0  0  0  0  0
   -3.3776    0.2124    0.5860 H   0  0  0  0  0  0  0  0  0  0  0  0
   -0.9662   -0.8393    0.7976 H   0  0  0  0  0  0  0  0  0  0  0  0
   -1.3109   -1.2053   -1.7373 H   0  0  0  0  0  0  0  0  0  0  0  0
   -3.3439   -3.4797   -2.0949 H   0  0  0  0  0  0  0  0  0  0  0  0
   -4.5191   -1.7998   -2.1372 H   0  0  0  0  0  0  0  0  0  0  0  0
   -3.3299   -3.3049    1.3205 H   0  0  0  0  0  0  0  0  0  0  0  0
   -4.3926   -1.8823    1.3735 H   0  0  0  0  0  0  0  0  0  0  0  0
   -2.6563   -1.7265    1.8135 H   0  0  0  0  0  0  0  0  0  0  0  0
    0.7086    2.5221   -0.8387 H   0  0  0  0  0  0  0  0  0  0  0  0
   -0.7351    2.2175   -1.8310 H   0  0  0  0  0  0  0  0  0  0  0  0
    0.0861    0.0677   -1.5452 H   0  0  0  0  0  0  0  0  0  0  0  0
    1.6670   -0.6012   -1.4549 H   0  0  0  0  0  0  0  0  0  0  0  0
    3.4483    0.9029    0.5328 H   0  0  0  0  0  0  0  0  0  0  0  0
    3.3575    1.1377   -1.2834 H   0  0  0  0  0  0  0  0  0  0  0  0
    4.1692   -1.2150   -1.4909 H   0  0  0  0  0  0  0  0  0  0  0  0
    5.3580    0.0478   -0.8669 H   0  0  0  0  0  0  0  0  0  0  0  0
    4.9975   -2.3360    0.4087 H   0  0  0  0  0  0  0  0  0  0  0  0
    5.2962   -0.7636    1.3091 H   0  0  0  0  0  0  0  0  0  0  0  0
    3.0397   -0.5795    1.9713 H   0  0  0  0  0  0  0  0  0  0  0  0
    3.3212   -2.3844    1.9799 H   0  0  0  0  0  0  0  0  0  0  0  0
    1.2299   -1.9626    0.8156 H   0  0  0  0  0  0  0  0  0  0  0  0
    2.5069   -2.4254   -0.3885 H   0  0  0  0  0  0  0  0  0  0  0  0
  1  2  1  0
  2  3  1  0
  2  4  1  0
  4  5  1  0
  5  6  1  0
  6  7  1  0
  7  8  1  0
  8  9  1  0
  9 10  1  0
  9 11  1  0
  9 12  1  0
  4 13  1  0
  7 14  1  0
 13 14  1  0
 14 15  1  0
 15 16  1  0
 16 17  1  0
 17 18  1  0
 18 19  1  0
 19 20  1  0
 16 21  1  0
 20 21  1  0
 22 23  1  0
 23 24  1  0
 23 25  1  0
 25 26  1  0
 26 27  1  0
 27 28  1  0
 28 29  1  0
 29 30  1  0
 30 31  1  0
 30 32  1  0
 30 33  1  0
 25 34  1  0
 28 35  1  0
 34 35  1  0
 35 36  1  0
 36 37  1  0
 37 38  1  0
 38 39  1  0
 39 40  1  0
 40 41  1  0
 37 42  1  0
 41 42  1  0
  3 43  1  0
  4 44  1  0
  5 45  1  0
  5 46  1  0
  6 47  1  0
  6 48  1  0
  7 49  1  0
  8 50  1  0
 10 51  1  0
 11 52  1  0
 12 53  1  0
 12 54  1  0
 12 55  1  0
 13 56  1  0
 13 57  1  0
 14 58  1  0
 16 59  1  0
 17 60  1  0
 17 61  1  0
 18 62  1  0
 18 63  1  0
 19 64  1  0
 19 65  1  0
 20 66  1  0
 20 67  1  0
 21 68  1  0
 21 69  1  0
 24 70  1  0
 25 71  1  0
 26 72  1  0
 26 73  1  0
 27 74  1  0
 27 75  1  0
 28 76  1  0
 29 77  1  0
 31 78  1  0
 32 79  1  0
 33 80  1  0
 33 81  1  0
 33 82  1  0
 34 83  1  0
 34 84  1  0
 35 85  1  0
 37 86  1  0
 38 87  1  0
 38 88  1  0
 39 89  1  0
 39 90  1  0
 40 91  1  0
 40 92  1  0
 41 93  1  0
 41 94  1  0
 42 95  1  0
 42 96  1  0
M  CHG  2   1  -1  22  -1
M  END
>  <PDBID>  (1) 
3N8X

>  <PDB ID>  (1) 
3N8X

>  <Generic Name>  (1) 
Nimesulide

>  <Brand Name>  (1) 
Ainex#Aulin#Coxtal#Eskaflam#Mesulid#Nilsid#Nimalox#Nimside#Nise#Octaprin#Sintalgin#Sulide

>  <DrugBank ID>  (1) 
DB04743

>  <ATC Codes>  (1) 
M02AA26#M01AX17

>  <Ligand ID>  (1) 
NIM

>  <Target Name>  (1) 
Prostaglandin G/H synthase 2

>  <UniProt ID>  (1) 
P35354

>  <PDB ID.1>  (1) 
3N8X

>  <Seq. Identity>  (1) 
61%

$$$$
