PDB_DB00273_03
     RDKit          3D

 45 47  0  0  0  0  0  0  0  0999 V2000
   -1.0240   -2.0456   -2.3311 C   0  0  0  0  0  0  0  0  0  0  0  0
   -0.9272   -2.3208   -0.8561 C   0  0  0  0  0  0  0  0  0  0  0  0
   -1.4867   -3.7212   -0.6335 C   0  0  0  0  0  0  0  0  0  0  0  0
   -1.6543   -1.4161   -0.0886 O   0  0  0  0  0  0  0  0  0  0  0  0
    0.3734   -2.3207   -0.3799 O   0  0  0  0  0  0  0  0  0  0  0  0
    0.4891   -1.2794    0.5277 C   0  0  1  0  0  0  0  0  0  0  0  0
    1.8110   -0.6182    0.3361 C   0  0  2  0  0  0  0  0  0  0  0  0
    1.9598    0.5653    1.0638 O   0  0  0  0  0  0  0  0  0  0  0  0
    3.0451    1.1438    0.4152 C   0  0  0  0  0  0  0  0  0  0  0  0
    4.2945    0.5834    1.0713 C   0  0  0  0  0  0  0  0  0  0  0  0
    3.0381    2.6496    0.4885 C   0  0  0  0  0  0  0  0  0  0  0  0
    2.9741    0.7941   -0.9255 O   0  0  0  0  0  0  0  0  0  0  0  0
    1.8424   -0.0249   -1.0673 C   0  0  2  0  0  0  0  0  0  0  0  0
    0.6654    0.8843   -1.1954 C   0  0  0  0  0  0  0  0  0  0  0  0
   -0.5557    0.3062   -0.9768 O   0  0  0  0  0  0  0  0  0  0  0  0
   -0.6890   -0.4272    0.1691 C   0  0  1  0  0  0  0  0  0  0  0  0
   -1.1214    0.3470    1.3757 C   0  0  0  0  0  0  0  0  0  0  0  0
   -1.5481    1.6326    1.0961 O   0  0  0  0  0  0  0  0  0  0  0  0
   -3.0294    1.8103    0.8150 S   0  0  0  0  0  0  0  0  0  0  0  0
   -3.3001    3.2793    0.0096 O   0  0  0  0  0  0  0  0  0  0  0  0
   -3.3723    0.6498   -0.4964 O   0  0  0  0  0  0  0  0  0  0  0  0
   -4.1461    1.5224    1.8855 N   0  0  0  0  0  0  0  0  0  0  0  0
   -1.5669   -1.0916   -2.5493 H   0  0  0  0  0  0  0  0  0  0  0  0
   -0.0365   -1.9971   -2.8206 H   0  0  0  0  0  0  0  0  0  0  0  0
   -1.5967   -2.8330   -2.8827 H   0  0  0  0  0  0  0  0  0  0  0  0
   -1.2073   -4.0490    0.3788 H   0  0  0  0  0  0  0  0  0  0  0  0
   -1.0203   -4.3745   -1.4124 H   0  0  0  0  0  0  0  0  0  0  0  0
   -2.5780   -3.7494   -0.8173 H   0  0  0  0  0  0  0  0  0  0  0  0
    0.3408   -1.6167    1.5823 H   0  0  0  0  0  0  0  0  0  0  0  0
    2.6153   -1.3416    0.5110 H   0  0  0  0  0  0  0  0  0  0  0  0
    4.0596   -0.1243    1.8900 H   0  0  0  0  0  0  0  0  0  0  0  0
    4.9014    1.4020    1.5269 H   0  0  0  0  0  0  0  0  0  0  0  0
    4.9045    0.0032    0.3383 H   0  0  0  0  0  0  0  0  0  0  0  0
    4.0895    2.9653    0.6958 H   0  0  0  0  0  0  0  0  0  0  0  0
    2.3699    3.0499    1.2664 H   0  0  0  0  0  0  0  0  0  0  0  0
    2.7869    3.1166   -0.4957 H   0  0  0  0  0  0  0  0  0  0  0  0
    1.9461   -0.7776   -1.8518 H   0  0  0  0  0  0  0  0  0  0  0  0
    0.8182    1.7473   -0.5289 H   0  0  0  0  0  0  0  0  0  0  0  0
    0.6688    1.2701   -2.2456 H   0  0  0  0  0  0  0  0  0  0  0  0
   -0.3165    0.4006    2.1520 H   0  0  0  0  0  0  0  0  0  0  0  0
   -1.9730   -0.1646    1.8917 H   0  0  0  0  0  0  0  0  0  0  0  0
   -3.7573    3.1292   -0.8476 H   0  0  0  0  0  0  0  0  0  0  0  0
   -4.3241    0.8008   -0.7211 H   0  0  0  0  0  0  0  0  0  0  0  0
   -4.8313    0.7431    1.7273 H   0  0  0  0  0  0  0  0  0  0  0  0
   -3.9321    1.4974    2.9095 H   0  0  0  0  0  0  0  0  0  0  0  0
  2  1  1  0
  2  3  1  0
  2  4  1  0
  2  5  1  0
  5  6  1  0
  6  7  1  0
  7  8  1  0
  8  9  1  0
  9 10  1  0
  9 11  1  0
  9 12  1  0
  7 13  1  0
 12 13  1  0
 13 14  1  0
 14 15  1  0
  4 16  1  0
  6 16  1  0
 15 16  1  0
 16 17  1  1
 17 18  1  0
 19 18  1  0
 19 20  1  0
 19 21  1  0
 19 22  1  0
  1 23  1  0
  1 24  1  0
  1 25  1  0
  3 26  1  0
  3 27  1  0
  3 28  1  0
  6 29  1  1
  7 30  1  6
 10 31  1  0
 10 32  1  0
 10 33  1  0
 11 34  1  0
 11 35  1  0
 11 36  1  0
 13 37  1  6
 14 38  1  0
 14 39  1  0
 17 40  1  0
 17 41  1  0
 20 42  1  0
 21 43  1  0
 22 44  1  0
 22 45  1  0
M  END
>  <PDBID>  (1) 
3HKU

>  <PDB ID>  (1) 
3HKU

>  <Generic Name>  (1) 
Topiramate

>  <Brand Name>  (1) 
Abbott-topiramate#Accel-topiramate#Act Topiramate#Apo-topiramate#Auro-topiramate#Ava-topiramate#Dom-topiramate#Gd-topiramate#Ipg-topiramate#Jamp-topiramate#Mar-topiramate#Mint-topiramate#Mylan-topiramate#Nu-topiramate#PHL-topiramate#PMS-topiramate#Pro-topiramate#Q-topiramate#Qsymia#Qudexy XR#Ran-topiramate#Ratio-topiramate#Sandoz Topiramate#Sandoz Topiramate Tablets#Teva-topiramate#Topamax#Topamax 100mg#Topamax 200mg#Topamax 25mg#Topiramate#Topiramate Tablets#Topiramate Tablets USP#Trokendi XR#Van-topiramate#Zym-topiramate

>  <DrugBank ID>  (1) 
DB00273

>  <ATC Codes>  (1) 
N03AX11

>  <Ligand ID>  (1) 
TOR

>  <Target Name>  (1) 
Carbonic anhydrase 2

>  <UniProt ID>  (1) 
P00918

>  <PDB ID.1>  (1) 
3HKU

>  <Seq. Identity>  (1) 
100%

$$$$
