PDB_DB00300_07
     RDKit          3D

 41 42  0  0  0  0  0  0  0  0999 V2000
    4.3114   -0.8647    0.1228 P   0  0  0  0  0  0  0  0  0  0  0  0
    3.6839   -1.7789    1.3880 O   0  0  0  0  0  0  0  0  0  0  0  0
    3.6194   -1.3108   -1.3072 O   0  0  0  0  0  0  0  0  0  0  0  0
    4.0788    0.8541    0.4807 C   0  0  0  0  0  0  0  0  0  0  0  0
    2.7961    1.1681    0.7966 O   0  0  0  0  0  0  0  0  0  0  0  0
    1.3671    2.3955   -0.5472 C   0  0  0  0  0  0  0  0  0  0  0  0
    1.8849    0.9667   -0.2759 C   0  0  2  0  0  0  0  0  0  0  0  0
    0.7650    0.0630    0.1767 C   0  0  0  0  0  0  0  0  0  0  0  0
   -0.1290   -0.2851   -0.7955 N   0  0  0  0  0  0  0  0  0  0  0  0
   -1.2846   -1.0655   -0.4520 C   0  0  1  0  0  0  0  0  0  0  0  0
   -1.4580   -1.3433    0.9363 N   0  0  0  0  0  0  0  0  0  0  0  0
   -2.7435   -2.0525    1.0519 C   0  0  0  0  0  0  0  0  0  0  0  0
   -3.8568   -1.1700    0.8138 N   0  0  0  0  0  0  0  0  0  0  0  0
   -3.4045    0.0611    0.1924 C   0  0  0  0  0  0  0  0  0  0  0  0
   -4.5498    0.7859   -0.2967 N   0  0  0  0  0  0  0  0  0  0  0  0
   -2.4874   -0.2932   -0.9502 C   0  0  0  0  0  0  0  0  0  0  0  0
   -1.9127    0.8976   -1.5553 N   0  0  0  0  0  0  0  0  0  0  0  0
   -0.5451    0.4594   -1.8914 C   0  0  0  0  0  0  0  0  0  0  0  0
    5.6935   -1.1324    0.0625 H   0  0  0  0  0  0  0  0  0  0  0  0
    3.3870   -1.1555    2.0941 H   0  0  0  0  0  0  0  0  0  0  0  0
    4.2370   -1.9552   -1.7690 H   0  0  0  0  0  0  0  0  0  0  0  0
    4.4864    1.4903   -0.3397 H   0  0  0  0  0  0  0  0  0  0  0  0
    4.7520    1.1057    1.3585 H   0  0  0  0  0  0  0  0  0  0  0  0
    1.8484    3.1239    0.1702 H   0  0  0  0  0  0  0  0  0  0  0  0
    0.3024    2.4818   -0.3583 H   0  0  0  0  0  0  0  0  0  0  0  0
    1.7118    2.6865   -1.5540 H   0  0  0  0  0  0  0  0  0  0  0  0
    2.4666    0.6058   -1.1242 H   0  0  0  0  0  0  0  0  0  0  0  0
    1.2437   -0.8594    0.6176 H   0  0  0  0  0  0  0  0  0  0  0  0
    0.2836    0.5720    1.0917 H   0  0  0  0  0  0  0  0  0  0  0  0
   -1.2258   -2.0318   -0.9931 H   0  0  0  0  0  0  0  0  0  0  0  0
   -1.4207   -0.5239    1.5614 H   0  0  0  0  0  0  0  0  0  0  0  0
   -2.7316   -2.7870    0.1959 H   0  0  0  0  0  0  0  0  0  0  0  0
   -2.8199   -2.6441    1.9614 H   0  0  0  0  0  0  0  0  0  0  0  0
   -4.5562   -1.5954    0.1458 H   0  0  0  0  0  0  0  0  0  0  0  0
   -2.9011    0.7369    0.9381 H   0  0  0  0  0  0  0  0  0  0  0  0
   -4.4860    0.9996   -1.3187 H   0  0  0  0  0  0  0  0  0  0  0  0
   -4.7987    1.6169    0.2731 H   0  0  0  0  0  0  0  0  0  0  0  0
   -3.0664   -0.8908   -1.6655 H   0  0  0  0  0  0  0  0  0  0  0  0
   -1.8918    1.6561   -0.8313 H   0  0  0  0  0  0  0  0  0  0  0  0
   -0.7215   -0.2339   -2.8027 H   0  0  0  0  0  0  0  0  0  0  0  0
    0.0719    1.2464   -2.2899 H   0  0  0  0  0  0  0  0  0  0  0  0
  1  2  1  0
  1  3  1  0
  1  4  1  0
  4  5  1  0
  5  7  1  0
  6  7  1  0
  7  8  1  0
  8  9  1  0
  9 10  1  0
 10 11  1  0
 11 12  1  0
 12 13  1  0
 13 14  1  0
 14 15  1  0
 10 16  1  0
 14 16  1  0
 16 17  1  0
  9 18  1  0
 17 18  1  0
  1 19  1  0
  2 20  1  0
  3 21  1  0
  4 22  1  0
  4 23  1  0
  6 24  1  0
  6 25  1  0
  6 26  1  0
  7 27  1  6
  8 28  1  0
  8 29  1  0
 10 30  1  6
 11 31  1  0
 12 32  1  0
 12 33  1  0
 13 34  1  0
 14 35  1  0
 15 36  1  0
 15 37  1  0
 16 38  1  0
 17 39  1  0
 18 40  1  0
 18 41  1  0
M  END
>  <PDBID>  (1) 
1T03

>  <PDB ID>  (1) 
1T03

>  <Generic Name>  (1) 
Tenofovir

>  <Brand Name>  (1) 
Atripla#Complera#Stribild#Truvada#Viread

>  <DrugBank ID>  (1) 
DB00300

>  <ATC Codes>  (1) 
nan

>  <Ligand ID>  (1) 
TFO

>  <Target Name>  (1) 
Reverse transcriptase/RNaseH

>  <UniProt ID>  (1) 
Q72547

>  <PDB ID.1>  (1) 
1T03

>  <Seq. Identity>  (1) 
95%

$$$$
