PDB_DB09330_02
     RDKit          3D

 94 97  0  0  0  0  0  0  0  0999 V2000
   -8.6328    2.7156    0.4381 C   0  0  0  0  0  0  0  0  0  0  0  0
   -7.2293    2.6276    0.1562 N   0  0  0  0  0  0  0  0  0  0  0  0
   -6.8046    3.3585   -0.9972 C   0  0  0  0  0  0  0  0  0  0  0  0
   -6.7153    1.2887    0.2104 C   0  0  0  0  0  0  0  0  0  0  0  0
   -5.2156    1.3712   -0.1118 C   0  0  0  0  0  0  0  0  0  0  0  0
   -4.6595    0.0071   -0.0606 N   0  0  0  0  0  0  0  0  0  0  0  0
   -5.3054   -0.6545   -1.2263 C   0  0  0  0  0  0  0  0  0  0  0  0
   -2.5517    0.8681    0.8274 C   0  0  0  0  0  0  0  0  0  0  0  0
   -1.0447    0.8116    0.6733 C   0  0  0  0  0  0  0  0  0  0  0  0
   -0.4517    1.3752    1.8079 O   0  0  0  0  0  0  0  0  0  0  0  0
    0.2316    2.5375    1.5994 C   0  0  0  0  0  0  0  0  0  0  0  0
   -3.2474    0.0047   -0.2081 C   0  0  0  0  0  0  0  0  0  0  0  0
   -2.7317   -1.4260   -0.0832 C   0  0  2  0  0  0  0  0  0  0  0  0
   -2.7572   -1.9837    1.2024 N   0  0  0  0  0  0  0  0  0  0  0  0
   -3.9352   -2.2791    1.8849 C   0  0  0  0  0  0  0  0  0  0  0  0
   -4.7696   -1.2485    2.2506 O   0  0  0  0  0  0  0  0  0  0  0  0
   -4.7846   -3.3692    1.2511 C   0  0  0  0  0  0  0  0  0  0  0  0
   -3.9877   -4.6668    1.1914 C   0  0  0  0  0  0  0  0  0  0  0  0
   -1.2448   -1.3778   -0.5213 C   0  0  0  0  0  0  0  0  0  0  0  0
   -0.5347   -0.5915    0.5618 C   0  0  0  0  0  0  0  0  0  0  0  0
    0.8747   -0.6806    0.4807 N   0  0  0  0  0  0  0  0  0  0  0  0
    1.5186   -0.1043   -0.6525 C   0  0  0  0  0  0  0  0  0  0  0  0
    2.9519   -0.3408   -0.4676 N   0  0  0  0  0  0  0  0  0  0  0  0
    1.1401   -0.7421   -1.9028 N   0  0  0  0  0  0  0  0  0  0  0  0
    2.2137   -1.5926   -2.3813 C   0  0  0  0  0  0  0  0  0  0  0  0
    3.3167   -0.6181   -2.8163 C   0  0  0  0  0  0  0  0  0  0  0  0
    3.6794    0.1894   -1.5825 C   0  0  0  0  0  0  0  0  0  0  0  0
    5.1749    0.0462   -1.4178 C   0  0  0  0  0  0  0  0  0  0  0  0
    5.7428    0.7408   -0.2293 C   0  0  0  0  0  0  0  0  0  0  0  0
    6.0679    2.1839   -0.4150 C   0  0  0  0  0  0  0  0  0  0  0  0
    7.5406    2.4857   -0.2876 C   0  0  0  0  0  0  0  0  0  0  0  0
    8.1910    1.8833    0.9188 C   0  0  0  0  0  0  0  0  0  0  0  0
    7.7175    0.4423    1.1549 C   0  0  0  0  0  0  0  0  0  0  0  0
    7.0886    0.0023   -0.1148 C   0  0  0  0  0  0  0  0  0  0  0  0
    6.6959   -1.3503   -0.2156 N   0  0  0  0  0  0  0  0  0  0  0  0
    6.4498   -2.0111    1.0377 C   0  0  0  0  0  0  0  0  0  0  0  0
    5.5428   -1.4127   -1.1089 C   0  0  0  0  0  0  0  0  0  0  0  0
   -8.7662    3.4466    1.2671 H   0  0  0  0  0  0  0  0  0  0  0  0
   -9.1894    3.1071   -0.4322 H   0  0  0  0  0  0  0  0  0  0  0  0
   -9.0071    1.7334    0.7849 H   0  0  0  0  0  0  0  0  0  0  0  0
   -6.7982    2.7158   -1.9126 H   0  0  0  0  0  0  0  0  0  0  0  0
   -5.7403    3.7057   -0.8720 H   0  0  0  0  0  0  0  0  0  0  0  0
   -7.4094    4.2686   -1.1337 H   0  0  0  0  0  0  0  0  0  0  0  0
   -6.7652    0.9331    1.2695 H   0  0  0  0  0  0  0  0  0  0  0  0
   -7.2290    0.5826   -0.4661 H   0  0  0  0  0  0  0  0  0  0  0  0
   -5.1424    1.6980   -1.1599 H   0  0  0  0  0  0  0  0  0  0  0  0
   -4.8075    2.0498    0.6202 H   0  0  0  0  0  0  0  0  0  0  0  0
   -6.1131   -1.2956   -0.8609 H   0  0  0  0  0  0  0  0  0  0  0  0
   -4.6118   -1.2250   -1.8307 H   0  0  0  0  0  0  0  0  0  0  0  0
   -5.7897    0.1234   -1.8885 H   0  0  0  0  0  0  0  0  0  0  0  0
   -2.8060    0.5166    1.8150 H   0  0  0  0  0  0  0  0  0  0  0  0
   -2.8231    1.9215    0.6018 H   0  0  0  0  0  0  0  0  0  0  0  0
   -0.7865    1.4632   -0.1818 H   0  0  0  0  0  0  0  0  0  0  0  0
   -0.4222    3.3576    1.1747 H   0  0  0  0  0  0  0  0  0  0  0  0
    1.2076    2.4735    1.1220 H   0  0  0  0  0  0  0  0  0  0  0  0
    0.4573    2.9433    2.6384 H   0  0  0  0  0  0  0  0  0  0  0  0
   -2.9643    0.3693   -1.2039 H   0  0  0  0  0  0  0  0  0  0  0  0
   -3.2039   -2.0232   -0.8725 H   0  0  0  0  0  0  0  0  0  0  0  0
   -2.0441   -2.7060    1.3457 H   0  0  0  0  0  0  0  0  0  0  0  0
   -3.6239   -2.7497    2.8809 H   0  0  0  0  0  0  0  0  0  0  0  0
   -5.7304   -1.5161    2.2135 H   0  0  0  0  0  0  0  0  0  0  0  0
   -5.6268   -3.5492    1.9502 H   0  0  0  0  0  0  0  0  0  0  0  0
   -5.2129   -3.1076    0.2855 H   0  0  0  0  0  0  0  0  0  0  0  0
   -4.1513   -5.1726    0.2167 H   0  0  0  0  0  0  0  0  0  0  0  0
   -4.3185   -5.3757    1.9840 H   0  0  0  0  0  0  0  0  0  0  0  0
   -2.9132   -4.5347    1.3209 H   0  0  0  0  0  0  0  0  0  0  0  0
   -0.8736   -2.4009   -0.4978 H   0  0  0  0  0  0  0  0  0  0  0  0
   -1.1925   -0.9267   -1.5098 H   0  0  0  0  0  0  0  0  0  0  0  0
   -0.8255   -1.0941    1.5317 H   0  0  0  0  0  0  0  0  0  0  0  0
    1.2564   -1.5918    0.7478 H   0  0  0  0  0  0  0  0  0  0  0  0
    1.3959    0.9926   -0.7004 H   0  0  0  0  0  0  0  0  0  0  0  0
    3.2495   -0.0055    0.4583 H   0  0  0  0  0  0  0  0  0  0  0  0
    1.0017   -0.0125   -2.6677 H   0  0  0  0  0  0  0  0  0  0  0  0
    1.8229   -2.1615   -3.2411 H   0  0  0  0  0  0  0  0  0  0  0  0
    2.5490   -2.2347   -1.5592 H   0  0  0  0  0  0  0  0  0  0  0  0
    4.1648   -1.1446   -3.2517 H   0  0  0  0  0  0  0  0  0  0  0  0
    2.8339    0.0972   -3.5390 H   0  0  0  0  0  0  0  0  0  0  0  0
    3.4044    1.2500   -1.6887 H   0  0  0  0  0  0  0  0  0  0  0  0
    5.6996    0.3782   -2.3217 H   0  0  0  0  0  0  0  0  0  0  0  0
    5.1725    0.6039    0.7024 H   0  0  0  0  0  0  0  0  0  0  0  0
    5.7697    2.4811   -1.4417 H   0  0  0  0  0  0  0  0  0  0  0  0
    5.4627    2.8268    0.2795 H   0  0  0  0  0  0  0  0  0  0  0  0
    8.0896    2.2915   -1.2338 H   0  0  0  0  0  0  0  0  0  0  0  0
    7.6072    3.6058   -0.1518 H   0  0  0  0  0  0  0  0  0  0  0  0
    9.2907    1.7849    0.6773 H   0  0  0  0  0  0  0  0  0  0  0  0
    8.1313    2.4961    1.8179 H   0  0  0  0  0  0  0  0  0  0  0  0
    6.9010    0.5416    1.9279 H   0  0  0  0  0  0  0  0  0  0  0  0
    8.5352   -0.2066    1.4938 H   0  0  0  0  0  0  0  0  0  0  0  0
    7.7243    0.2962   -0.9777 H   0  0  0  0  0  0  0  0  0  0  0  0
    6.7586   -3.0741    0.9230 H   0  0  0  0  0  0  0  0  0  0  0  0
    5.3541   -2.0205    1.2072 H   0  0  0  0  0  0  0  0  0  0  0  0
    7.0102   -1.6032    1.8833 H   0  0  0  0  0  0  0  0  0  0  0  0
    4.7274   -1.9233   -0.5547 H   0  0  0  0  0  0  0  0  0  0  0  0
    5.7750   -1.8892   -2.0659 H   0  0  0  0  0  0  0  0  0  0  0  0
  1  2  1  0
  2  3  1  0
  2  4  1  0
  4  5  1  0
  5  6  1  0
  6  7  1  0
  8  9  1  0
  9 10  1  0
 10 11  1  0
  6 12  1  0
  8 12  1  0
 12 13  1  0
 13 14  1  0
 14 15  1  0
 15 16  1  0
 15 17  1  0
 17 18  1  0
 13 19  1  0
  9 20  1  0
 19 20  1  0
 20 21  1  0
 21 22  1  0
 22 23  1  0
 22 24  1  0
 24 25  1  0
 25 26  1  0
 23 27  1  0
 26 27  1  0
 27 28  1  0
 28 29  1  0
 29 30  1  0
 30 31  1  0
 31 32  1  0
 32 33  1  0
 29 34  1  0
 33 34  1  0
 34 35  1  0
 35 36  1  0
 28 37  1  0
 35 37  1  0
  1 38  1  0
  1 39  1  0
  1 40  1  0
  3 41  1  0
  3 42  1  0
  3 43  1  0
  4 44  1  0
  4 45  1  0
  5 46  1  0
  5 47  1  0
  7 48  1  0
  7 49  1  0
  7 50  1  0
  8 51  1  0
  8 52  1  0
  9 53  1  0
 11 54  1  0
 11 55  1  0
 11 56  1  0
 12 57  1  0
 13 58  1  6
 14 59  1  0
 15 60  1  0
 16 61  1  0
 17 62  1  0
 17 63  1  0
 18 64  1  0
 18 65  1  0
 18 66  1  0
 19 67  1  0
 19 68  1  0
 20 69  1  0
 21 70  1  0
 22 71  1  0
 23 72  1  0
 24 73  1  0
 25 74  1  0
 25 75  1  0
 26 76  1  0
 26 77  1  0
 27 78  1  0
 28 79  1  0
 29 80  1  0
 30 81  1  0
 30 82  1  0
 31 83  1  0
 31 84  1  0
 32 85  1  0
 32 86  1  0
 33 87  1  0
 33 88  1  0
 34 89  1  0
 36 90  1  0
 36 91  1  0
 36 92  1  0
 37 93  1  0
 37 94  1  0
M  END
>  <PDBID>  (1) 
4ZAU

>  <PDB ID>  (1) 
4ZAU

>  <Generic Name>  (1) 
Osimertinib

>  <Brand Name>  (1) 
Tagrisso

>  <DrugBank ID>  (1) 
DB09330

>  <ATC Codes>  (1) 
nan

>  <Ligand ID>  (1) 
YY3

>  <Target Name>  (1) 
Epidermal growth factor receptor

>  <UniProt ID>  (1) 
P00533

>  <PDB ID.1>  (1) 
4ZAU

>  <Seq. Identity>  (1) 
96%

$$$$
