PDB_DB00625_05
     RDKit          3D

 42 44  0  0  0  0  0  0  0  0999 V2000
   -2.9649    2.6266   -0.6419 Cl  0  0  0  0  0  0  0  0  0  0  0  0
    1.5219    0.5706    2.5776 F   0  0  0  0  0  0  0  0  0  0  0  0
   -0.6104    0.1645    2.9422 F   0  0  0  0  0  0  0  0  0  0  0  0
   -0.1024    2.0198    1.8990 F   0  0  0  0  0  0  0  0  0  0  0  0
   -0.0148   -2.9228    2.3906 O   0  0  0  0  0  0  0  0  0  0  0  0
    0.4610   -1.3289    0.7917 O   0  0  0  0  0  0  0  0  0  0  0  0
   -1.7790   -1.6430    1.5314 N   0  0  0  0  0  0  0  0  0  0  0  0
   -2.1488   -0.9655    0.3451 C   0  0  1  0  0  0  0  0  0  0  0  0
   -3.5595   -0.4753    0.2877 C   0  0  0  0  0  0  0  0  0  0  0  0
   -3.7997    0.1285   -1.0517 C   0  0  0  0  0  0  0  0  0  0  0  0
   -2.7475    1.1022   -1.4965 C   0  0  0  0  0  0  0  0  0  0  0  0
   -1.3333    0.5705   -1.2867 C   0  0  0  0  0  0  0  0  0  0  0  0
   -1.2536    0.2401    0.1862 C   0  0  0  0  0  0  0  0  0  0  0  0
    0.1641   -0.0066    0.6573 C   0  0  2  0  0  0  0  0  0  0  0  0
    1.1493    0.5908   -0.3175 C   0  0  0  0  0  0  0  0  0  0  0  0
    2.5827    0.4900    0.0620 C   0  0  0  0  0  0  0  0  0  0  0  0
    3.4780    1.1063   -1.0410 C   0  0  0  0  0  0  0  0  0  0  0  0
    4.9681    1.0313   -0.7053 C   0  0  0  0  0  0  0  0  0  0  0  0
    4.3954    0.2203   -1.7948 C   0  0  0  0  0  0  0  0  0  0  0  0
    0.2842    0.6660    2.0040 C   0  0  0  0  0  0  0  0  0  0  0  0
   -0.4567   -2.1847    1.2867 C   0  0  0  0  0  0  0  0  0  0  0  0
   -0.6931   -3.6433    2.5210 H   0  0  0  0  0  0  0  0  0  0  0  0
   -2.4046   -2.4250    1.7688 H   0  0  0  0  0  0  0  0  0  0  0  0
   -2.0120   -1.6868   -0.5110 H   0  0  0  0  0  0  0  0  0  0  0  0
   -4.2313   -1.3598    0.3911 H   0  0  0  0  0  0  0  0  0  0  0  0
   -3.7829    0.1995    1.1304 H   0  0  0  0  0  0  0  0  0  0  0  0
   -4.0097   -0.6610   -1.8125 H   0  0  0  0  0  0  0  0  0  0  0  0
   -4.7593    0.7140   -0.9835 H   0  0  0  0  0  0  0  0  0  0  0  0
   -2.8918    1.2780   -2.5902 H   0  0  0  0  0  0  0  0  0  0  0  0
   -1.2634   -0.3649   -1.8903 H   0  0  0  0  0  0  0  0  0  0  0  0
   -0.6483    1.3374   -1.6328 H   0  0  0  0  0  0  0  0  0  0  0  0
   -1.6764    1.1122    0.7209 H   0  0  0  0  0  0  0  0  0  0  0  0
    1.0113    0.0615   -1.2786 H   0  0  0  0  0  0  0  0  0  0  0  0
    0.9300    1.6966   -0.4467 H   0  0  0  0  0  0  0  0  0  0  0  0
    2.9586   -0.5426    0.1905 H   0  0  0  0  0  0  0  0  0  0  0  0
    2.8529    1.1447    0.9464 H   0  0  0  0  0  0  0  0  0  0  0  0
    3.1481    2.0598   -1.4638 H   0  0  0  0  0  0  0  0  0  0  0  0
    5.5922    1.9210   -0.9470 H   0  0  0  0  0  0  0  0  0  0  0  0
    5.2677    0.5071    0.2178 H   0  0  0  0  0  0  0  0  0  0  0  0
    4.6624    0.5062   -2.8225 H   0  0  0  0  0  0  0  0  0  0  0  0
    4.3416   -0.8807   -1.6447 H   0  0  0  0  0  0  0  0  0  0  0  0
   -0.6261   -2.9745    0.4901 H   0  0  0  0  0  0  0  0  0  0  0  0
  7  8  1  0
  8  9  1  0
  9 10  1  0
  1 11  1  0
 10 11  1  0
 11 12  1  0
  8 13  1  0
 12 13  1  0
  6 14  1  0
 13 14  1  0
 14 15  1  6
 15 16  1  0
 16 17  1  0
 17 18  1  0
 17 19  1  0
 18 19  1  0
 20  2  1  0
  3 20  1  0
  4 20  1  0
 14 20  1  0
  5 21  1  0
  6 21  1  0
  7 21  1  0
  5 22  1  0
  7 23  1  0
  8 24  1  6
  9 25  1  0
  9 26  1  0
 10 27  1  0
 10 28  1  0
 11 29  1  0
 12 30  1  0
 12 31  1  0
 13 32  1  0
 15 33  1  0
 15 34  1  0
 16 35  1  0
 16 36  1  0
 17 37  1  0
 18 38  1  0
 18 39  1  0
 19 40  1  0
 19 41  1  0
 21 42  1  0
M  END
>  <PDBID>  (1) 
1JKH

>  <PDB ID>  (1) 
1JKH

>  <Generic Name>  (1) 
Efavirenz

>  <Brand Name>  (1) 
Atripla#Auro-efavirenz#Mylan-efavirenz#Sustiva#Sustiva 100mg#Sustiva 200mg#Sustiva 50mg#Sustiva Tablets#Teva-efavirenz#E.F#Efavir#Efavirenz#Efcure#Efferven#Estiva#Evirenz#Stocrin#Viranz

>  <DrugBank ID>  (1) 
DB00625

>  <ATC Codes>  (1) 
J05AR06#J05AG03#J05AR11

>  <Ligand ID>  (1) 
EFZ

>  <Target Name>  (1) 
Reverse transcriptase/RNaseH

>  <UniProt ID>  (1) 
Q72547

>  <PDB ID.1>  (1) 
1JKH

>  <Seq. Identity>  (1) 
96%

$$$$
