PDB_DB00988_01
     RDKit          3D

 28 28  0  0  0  0  0  0  0  0999 V2000
    1.8866   -1.0377   -0.0763 C   0  0  0  0  0  0  0  0  0  0  0  0
    0.4700   -0.9134   -0.4854 C   0  0  0  0  0  0  0  0  0  0  0  0
   -2.2818    0.1312   -0.3680 C   0  0  0  0  0  0  0  0  0  0  0  0
    0.0687    0.2942   -1.2370 C   0  0  0  0  0  0  0  0  0  0  0  0
   -0.4322   -1.0775    0.7465 C   0  0  0  0  0  0  0  0  0  0  0  0
   -1.8402   -1.1937    0.2104 C   0  0  0  0  0  0  0  0  0  0  0  0
   -1.1199    1.0400   -0.6699 C   0  0  0  0  0  0  0  0  0  0  0  0
   -0.6975    1.7924    0.4070 O   0  0  0  0  0  0  0  0  0  0  0  0
   -3.0750    0.7593    0.5917 O   0  0  0  0  0  0  0  0  0  0  0  0
    2.4328    0.0120    0.8177 C   0  0  0  0  0  0  0  0  0  0  0  0
    2.4108    1.3499    0.3038 N   0  0  0  0  0  0  0  0  0  0  0  0
    2.5940   -1.1683   -0.9250 H   0  0  0  0  0  0  0  0  0  0  0  0
    1.9697   -2.0098    0.4952 H   0  0  0  0  0  0  0  0  0  0  0  0
    0.8546    1.0502   -1.4164 H   0  0  0  0  0  0  0  0  0  0  0  0
   -0.2754   -0.2553    1.4419 H   0  0  0  0  0  0  0  0  0  0  0  0
   -1.8157   -1.9368   -0.6203 H   0  0  0  0  0  0  0  0  0  0  0  0
   -1.4208    2.0212    1.0474 H   0  0  0  0  0  0  0  0  0  0  0  0
   -3.5814    1.5201    0.2203 H   0  0  0  0  0  0  0  0  0  0  0  0
    1.9998   -0.0471    1.8598 H   0  0  0  0  0  0  0  0  0  0  0  0
    3.5246   -0.2268    0.9946 H   0  0  0  0  0  0  0  0  0  0  0  0
    3.2501    1.6133   -0.2344 H   0  0  0  0  0  0  0  0  0  0  0  0
    2.1953    1.9912    1.1002 H   0  0  0  0  0  0  0  0  0  0  0  0
    0.2225   -1.8230   -1.1101 H   0  0  0  0  0  0  0  0  0  0  0  0
   -2.8975    0.0210   -1.2811 H   0  0  0  0  0  0  0  0  0  0  0  0
   -0.2529    0.0024   -2.2880 H   0  0  0  0  0  0  0  0  0  0  0  0
   -0.1695   -2.0682    1.1674 H   0  0  0  0  0  0  0  0  0  0  0  0
   -2.5533   -1.5962    0.9552 H   0  0  0  0  0  0  0  0  0  0  0  0
   -1.4664    1.7556   -1.4579 H   0  0  0  0  0  0  0  0  0  0  0  0
  1  2  1  0
  2  4  1  0
  2  5  1  0
  3  6  1  0
  5  6  1  0
  3  7  1  0
  4  7  1  0
  7  8  1  0
  3  9  1  0
  1 10  1  0
 10 11  1  0
  1 12  1  0
  1 13  1  0
  4 14  1  0
  5 15  1  0
  6 16  1  0
  8 17  1  0
  9 18  1  0
 10 19  1  0
 10 20  1  0
 11 21  1  0
 11 22  1  0
  2 23  1  0
  3 24  1  0
  4 25  1  0
  5 26  1  0
  6 27  1  0
  7 28  1  0
M  END
>  <PDBID>  (1) 
4XP1

>  <PDB ID>  (1) 
4XP1

>  <Generic Name>  (1) 
Dopamine

>  <Brand Name>  (1) 
Dopamine#Dopamine HCl#Dopamine HCl Inj 4%#Dopamine Hydrochloride#Dopamine Hydrochloride and Dextrose#Intropin Injection 40mg/ml#Intropin#Revimine

>  <DrugBank ID>  (1) 
DB00988

>  <ATC Codes>  (1) 
C01CA04

>  <Ligand ID>  (1) 
LDP

>  <Target Name>  (1) 
Sodium-dependent dopamine transporter

>  <UniProt ID>  (1) 
Q01959

>  <PDB ID.1>  (1) 
4XP1

>  <Seq. Identity>  (1) 
52%

$$$$
