PDB_DB00275_05
     RDKit          3D

 81 84  0  0  0  0  0  0  0  0999 V2000
    2.0320    0.3163   -1.1043 C   0  0  0  0  0  0  0  0  0  0  0  0
    0.4983    0.4183   -0.8746 C   0  0  0  0  0  0  0  0  0  0  0  0
   -4.8526    1.9647   -2.5041 O   0  0  0  0  0  0  0  0  0  0  0  0
   -0.0078   -0.7061   -0.0522 C   0  0  0  0  0  0  0  0  0  0  0  0
   -3.2732    3.3587   -0.9836 O   0  0  0  0  0  0  0  0  0  0  0  0
   -1.4872   -0.8953    0.0172 C   0  0  0  0  0  0  0  0  0  0  0  0
   -3.4483    2.6980    1.1440 O   0  0  0  0  0  0  0  0  0  0  0  0
   -5.5777   -2.2906    1.5801 C   0  0  0  0  0  0  0  0  0  0  0  0
   -4.8184   -1.6196    2.6828 C   0  0  0  0  0  0  0  0  0  0  0  0
   -3.4355   -1.2581    2.2054 C   0  0  0  0  0  0  0  0  0  0  0  0
   -3.5228   -0.3000    1.0894 C   0  0  0  0  0  0  0  0  0  0  0  0
   -4.2084   -0.7113   -0.0895 N   0  0  0  0  0  0  0  0  0  0  0  0
   -3.8408    0.3169   -1.0754 C   0  0  0  0  0  0  0  0  0  0  0  0
   -5.0659    0.9737   -1.5502 C   0  0  0  0  0  0  0  0  0  0  0  0
   -5.8542   -0.1163   -2.3134 C   0  0  0  0  0  0  0  0  0  0  0  0
   -6.0382    1.4318   -0.4822 C   0  0  0  0  0  0  0  0  0  0  0  0
   -2.7185    1.0605   -0.5243 C   0  0  0  0  0  0  0  0  0  0  0  0
   -2.8268    2.4349   -0.0390 C   0  0  0  0  0  0  0  0  0  0  0  0
   -2.2366    0.1978    0.5815 N   0  0  0  0  0  0  0  0  0  0  0  0
    0.5484   -0.5395    1.3761 C   0  0  0  0  0  0  0  0  0  0  0  0
    1.7898    0.2829    1.2882 C   0  0  0  0  0  0  0  0  0  0  0  0
    2.6510   -0.2214    0.1057 C   0  0  0  0  0  0  0  0  0  0  0  0
    4.0408    0.0465    0.4492 C   0  0  0  0  0  0  0  0  0  0  0  0
    4.3482   -0.7191    1.7433 C   0  0  0  0  0  0  0  0  0  0  0  0
    5.5691   -1.5851    1.6323 C   0  0  0  0  0  0  0  0  0  0  0  0
    5.6412   -2.4467    0.4165 C   0  0  0  0  0  0  0  0  0  0  0  0
    5.2120   -1.7361   -0.8600 C   0  0  0  0  0  0  0  0  0  0  0  0
    5.1074   -0.2833   -0.5105 C   0  0  0  0  0  0  0  0  0  0  0  0
    5.2185    0.6324   -1.7129 C   0  0  0  0  0  0  0  0  0  0  0  0
    5.4956    1.9888   -1.2458 N   0  0  0  0  0  0  0  0  0  0  0  0
    6.0294    2.5593   -2.4030 N   0  0  0  0  0  0  0  0  0  0  0  0
    6.9857    1.6067   -2.7820 N   0  0  0  0  0  0  0  0  0  0  0  0
    6.4397    0.3628   -2.4509 N   0  0  0  0  0  0  0  0  0  0  0  0
    2.3195    1.3365   -1.4039 H   0  0  0  0  0  0  0  0  0  0  0  0
    2.1211   -0.3239   -2.0089 H   0  0  0  0  0  0  0  0  0  0  0  0
    0.0599    0.3413   -1.9164 H   0  0  0  0  0  0  0  0  0  0  0  0
    0.2782    1.4148   -0.4555 H   0  0  0  0  0  0  0  0  0  0  0  0
   -5.2107    1.7574   -3.3998 H   0  0  0  0  0  0  0  0  0  0  0  0
    0.4704   -1.6602   -0.4386 H   0  0  0  0  0  0  0  0  0  0  0  0
   -3.4576    4.2334   -0.5504 H   0  0  0  0  0  0  0  0  0  0  0  0
   -1.8378   -1.0700   -1.0599 H   0  0  0  0  0  0  0  0  0  0  0  0
   -1.7384   -1.8938    0.4775 H   0  0  0  0  0  0  0  0  0  0  0  0
   -3.4519    3.6701    1.2807 H   0  0  0  0  0  0  0  0  0  0  0  0
   -6.3959   -2.9231    2.0561 H   0  0  0  0  0  0  0  0  0  0  0  0
   -6.1100   -1.6430    0.8897 H   0  0  0  0  0  0  0  0  0  0  0  0
   -4.9134   -3.0542    1.1210 H   0  0  0  0  0  0  0  0  0  0  0  0
   -4.7971   -2.2956    3.5653 H   0  0  0  0  0  0  0  0  0  0  0  0
   -5.3656   -0.6734    2.9116 H   0  0  0  0  0  0  0  0  0  0  0  0
   -2.9499   -2.2368    1.9876 H   0  0  0  0  0  0  0  0  0  0  0  0
   -2.9428   -0.7562    3.0752 H   0  0  0  0  0  0  0  0  0  0  0  0
   -4.0827    0.5791    1.4945 H   0  0  0  0  0  0  0  0  0  0  0  0
   -3.7631   -1.6411   -0.3683 H   0  0  0  0  0  0  0  0  0  0  0  0
   -3.4662   -0.2815   -1.9728 H   0  0  0  0  0  0  0  0  0  0  0  0
   -5.3476   -0.2077   -3.2942 H   0  0  0  0  0  0  0  0  0  0  0  0
   -5.7523   -1.0596   -1.7362 H   0  0  0  0  0  0  0  0  0  0  0  0
   -6.8909    0.2065   -2.4385 H   0  0  0  0  0  0  0  0  0  0  0  0
   -5.8568    2.4539   -0.1245 H   0  0  0  0  0  0  0  0  0  0  0  0
   -6.1281    0.6608    0.2965 H   0  0  0  0  0  0  0  0  0  0  0  0
   -7.0887    1.4868   -0.9127 H   0  0  0  0  0  0  0  0  0  0  0  0
   -1.8848    1.0643   -1.2758 H   0  0  0  0  0  0  0  0  0  0  0  0
   -1.7521    2.7803    0.1420 H   0  0  0  0  0  0  0  0  0  0  0  0
    0.8242   -1.5284    1.7757 H   0  0  0  0  0  0  0  0  0  0  0  0
   -0.1730   -0.0821    2.0550 H   0  0  0  0  0  0  0  0  0  0  0  0
    1.5653    1.3671    1.1254 H   0  0  0  0  0  0  0  0  0  0  0  0
    2.3370    0.2318    2.2357 H   0  0  0  0  0  0  0  0  0  0  0  0
    2.4660   -1.3374    0.1201 H   0  0  0  0  0  0  0  0  0  0  0  0
    4.1478    1.1408    0.6916 H   0  0  0  0  0  0  0  0  0  0  0  0
    3.4963   -1.3964    2.0257 H   0  0  0  0  0  0  0  0  0  0  0  0
    4.5218   -0.0106    2.5795 H   0  0  0  0  0  0  0  0  0  0  0  0
    6.5068   -1.0157    1.7487 H   0  0  0  0  0  0  0  0  0  0  0  0
    5.5309   -2.2920    2.5077 H   0  0  0  0  0  0  0  0  0  0  0  0
    5.0840   -3.4176    0.5447 H   0  0  0  0  0  0  0  0  0  0  0  0
    6.7107   -2.7570    0.3001 H   0  0  0  0  0  0  0  0  0  0  0  0
    6.0072   -1.8386   -1.6252 H   0  0  0  0  0  0  0  0  0  0  0  0
    4.2998   -2.1748   -1.2869 H   0  0  0  0  0  0  0  0  0  0  0  0
    6.0848   -0.0617    0.0333 H   0  0  0  0  0  0  0  0  0  0  0  0
    4.3773    0.5818   -2.3934 H   0  0  0  0  0  0  0  0  0  0  0  0
    6.3123    1.8658   -0.5730 H   0  0  0  0  0  0  0  0  0  0  0  0
    6.4837    3.4778   -2.1959 H   0  0  0  0  0  0  0  0  0  0  0  0
    7.8578    1.8256   -2.2661 H   0  0  0  0  0  0  0  0  0  0  0  0
    7.1006   -0.0663   -1.7367 H   0  0  0  0  0  0  0  0  0  0  0  0
  1  2  1  0
  2  4  1  0
  4  6  1  0
  8  9  1  0
  9 10  1  0
 10 11  1  0
 11 12  1  0
 12 13  1  0
 14  3  1  0
 13 14  1  0
 14 15  1  0
 14 16  1  0
 13 17  1  0
  5 18  1  0
  7 18  1  0
 17 18  1  0
  6 19  1  0
 11 19  1  0
 17 19  1  0
  4 20  1  0
 20 21  1  0
  1 22  1  0
 21 22  1  0
 22 23  1  0
 23 24  1  0
 24 25  1  0
 25 26  1  0
 26 27  1  0
 23 28  1  0
 27 28  1  0
 28 29  1  0
 29 30  1  0
 30 31  1  0
 31 32  1  0
 29 33  1  0
 32 33  1  0
  1 34  1  0
  1 35  1  0
  2 36  1  0
  2 37  1  0
  3 38  1  0
  4 39  1  0
  5 40  1  0
  6 41  1  0
  6 42  1  0
  7 43  1  0
  8 44  1  0
  8 45  1  0
  8 46  1  0
  9 47  1  0
  9 48  1  0
 10 49  1  0
 10 50  1  0
 11 51  1  0
 12 52  1  0
 13 53  1  0
 15 54  1  0
 15 55  1  0
 15 56  1  0
 16 57  1  0
 16 58  1  0
 16 59  1  0
 17 60  1  0
 18 61  1  0
 20 62  1  0
 20 63  1  0
 21 64  1  0
 21 65  1  0
 22 66  1  0
 23 67  1  0
 24 68  1  0
 24 69  1  0
 25 70  1  0
 25 71  1  0
 26 72  1  0
 26 73  1  0
 27 74  1  0
 27 75  1  0
 28 76  1  0
 29 77  1  0
 30 78  1  0
 31 79  1  0
 32 80  1  0
 33 81  1  0
M  END
>  <PDBID>  (1) 
4ZUD

>  <PDB ID>  (1) 
4ZUD

>  <Generic Name>  (1) 
Olmesartan

>  <Brand Name>  (1) 
Amlodipine Besylate and Olmesartan Medoxomil#Amlodipine and Olmesartan Medoxomil#Azor#Benicar#Benicar Hct#Olmesartan Medoxmil and Hydrochlorothiazide#Olmesartan Medoxomil#Olmesartan Medoxomil / Amlodipine Besylate / Hydrochlorothiazide#Olmesartan Medoxomil and Hydrochlorothiazide#Olmesartan Medoxomil, Amlodipine and Hydrochlorothiazide#Olmesartan Medoxomil, Amlodipine and Hydrochlorothiazide 20/5/12.5 mg#Olmesartan Medoxomil, Amlodipine and Hydrochlorothiazide 40/10/12.5 mg#Olmesartan Medoxomil, Amlodipine and Hydrochlorothiazide 40/10/25 mg#Olmesartan Medoxomil, Amlodipine and Hydrochlorothiazide 40/5/12.5 mg#Olmesartan Medoxomil, Amlodipine and Hydrochlorothiazide 40/5/25 mg#Olmetec#Olmetec Plus#Tribenzor#Erastapex#Golme#Olmetec#WinBP

>  <DrugBank ID>  (1) 
DB00275

>  <ATC Codes>  (1) 
C09DA08#C09CA08#C09DX03#C09DB02

>  <Ligand ID>  (1) 
OLM

>  <Target Name>  (1) 
Type-1 angiotensin II receptor

>  <UniProt ID>  (1) 
P30556

>  <PDB ID.1>  (1) 
4ZUD

>  <Seq. Identity>  (1) 
87%

$$$$
