PDB_DB00715_06
     RDKit          3D

 56 59  0  0  0  0  0  0  0  0999 V2000
   -3.1508    3.0020    1.0627 F   0  0  0  0  0  0  0  0  0  0  0  0
   -2.7933    2.4728   -1.2257 C   0  0  0  0  0  0  0  0  0  0  0  0
   -4.7607    1.6433   -0.0862 C   0  0  0  0  0  0  0  0  0  0  0  0
    2.8299    0.0362   -2.0447 C   0  0  0  0  0  0  0  0  0  0  0  0
   -1.9547    1.2854   -0.8182 C   0  0  0  0  0  0  0  0  0  0  0  0
   -4.0651    0.3429    0.1695 C   0  0  0  0  0  0  0  0  0  0  0  0
    3.9038    1.0267   -1.7256 C   0  0  0  0  0  0  0  0  0  0  0  0
    2.7882    0.1398    0.4324 C   0  0  0  0  0  0  0  0  0  0  0  0
   -2.0368   -3.1251    1.3037 C   0  0  0  0  0  0  0  0  0  0  0  0
   -2.7241   -1.7649    1.2852 C   0  0  0  0  0  0  0  0  0  0  0  0
   -0.0203   -1.8101    1.4983 C   0  0  0  0  0  0  0  0  0  0  0  0
    5.5143    1.1293    1.2411 C   0  0  0  0  0  0  0  0  0  0  0  0
    0.1135   -1.6098   -0.9055 C   0  0  0  0  0  0  0  0  0  0  0  0
   -0.7717   -2.9193    1.9290 N   0  0  0  0  0  0  0  0  0  0  0  0
    1.4847   -1.4781   -0.8217 O   0  0  0  0  0  0  0  0  0  0  0  0
    5.5189    1.4493   -0.0915 O   0  0  0  0  0  0  0  0  0  0  0  0
    4.9035   -0.0901    1.4052 O   0  0  0  0  0  0  0  0  0  0  0  0
   -3.7886    2.8127   -0.1335 C   0  0  0  0  0  0  0  0  0  0  0  0
    1.9729   -0.1907   -0.7965 C   0  0  0  0  0  0  0  0  0  0  0  0
   -2.5794    0.4338    0.2244 C   0  0  0  0  0  0  0  0  0  0  0  0
    4.9451    0.4272   -0.8046 C   0  0  0  0  0  0  0  0  0  0  0  0
    4.1959   -0.3652    0.2436 C   0  0  0  0  0  0  0  0  0  0  0  0
   -0.5382   -1.0370    0.3287 C   0  0  1  0  0  0  0  0  0  0  0  0
   -2.0287   -0.9921    0.2046 C   0  0  1  0  0  0  0  0  0  0  0  0
   -3.3724    2.2605   -2.1324 H   0  0  0  0  0  0  0  0  0  0  0  0
   -2.1439    3.3560   -1.4396 H   0  0  0  0  0  0  0  0  0  0  0  0
   -5.2665    1.6377   -1.0920 H   0  0  0  0  0  0  0  0  0  0  0  0
   -5.5471    1.8905    0.6448 H   0  0  0  0  0  0  0  0  0  0  0  0
    3.3298   -0.9374   -2.2894 H   0  0  0  0  0  0  0  0  0  0  0  0
    2.1921    0.3833   -2.8624 H   0  0  0  0  0  0  0  0  0  0  0  0
   -1.0010    1.6933   -0.4249 H   0  0  0  0  0  0  0  0  0  0  0  0
   -1.8225    0.6725   -1.7344 H   0  0  0  0  0  0  0  0  0  0  0  0
   -4.4049   -0.3987   -0.6008 H   0  0  0  0  0  0  0  0  0  0  0  0
   -4.4102   -0.0085    1.1865 H   0  0  0  0  0  0  0  0  0  0  0  0
    3.4938    1.9351   -1.2807 H   0  0  0  0  0  0  0  0  0  0  0  0
    4.3692    1.3348   -2.6992 H   0  0  0  0  0  0  0  0  0  0  0  0
    2.8553    1.2459    0.5283 H   0  0  0  0  0  0  0  0  0  0  0  0
    2.3865   -0.2385    1.3682 H   0  0  0  0  0  0  0  0  0  0  0  0
   -2.0008   -3.5126    0.2855 H   0  0  0  0  0  0  0  0  0  0  0  0
   -2.6360   -3.7949    1.9564 H   0  0  0  0  0  0  0  0  0  0  0  0
   -3.7758   -1.9443    1.0850 H   0  0  0  0  0  0  0  0  0  0  0  0
   -2.5388   -1.2835    2.2821 H   0  0  0  0  0  0  0  0  0  0  0  0
    0.1275   -1.1299    2.3650 H   0  0  0  0  0  0  0  0  0  0  0  0
    1.0218   -2.1979    1.2771 H   0  0  0  0  0  0  0  0  0  0  0  0
    6.5685    1.0561    1.6153 H   0  0  0  0  0  0  0  0  0  0  0  0
    4.9696    1.9392    1.7979 H   0  0  0  0  0  0  0  0  0  0  0  0
   -0.1853   -1.0721   -1.8297 H   0  0  0  0  0  0  0  0  0  0  0  0
   -0.1623   -2.6821   -1.0132 H   0  0  0  0  0  0  0  0  0  0  0  0
   -0.8492   -3.0648    2.9501 H   0  0  0  0  0  0  0  0  0  0  0  0
   -4.3555    3.6914   -0.4825 H   0  0  0  0  0  0  0  0  0  0  0  0
    1.1761    0.5755   -0.8596 H   0  0  0  0  0  0  0  0  0  0  0  0
   -2.3124    0.8404    1.2430 H   0  0  0  0  0  0  0  0  0  0  0  0
    5.6789   -0.2036   -1.3539 H   0  0  0  0  0  0  0  0  0  0  0  0
    4.1826   -1.4376   -0.0037 H   0  0  0  0  0  0  0  0  0  0  0  0
   -0.2065    0.0138    0.4111 H   0  0  0  0  0  0  0  0  0  0  0  0
   -2.3190   -1.4384   -0.7728 H   0  0  0  0  0  0  0  0  0  0  0  0
  2  5  1  0
  3  6  1  0
  4  7  1  0
  9 10  1  0
  9 14  1  0
 11 14  1  0
 13 15  1  0
 12 16  1  0
 12 17  1  0
  1 18  1  0
  2 18  1  0
  3 18  1  0
  4 19  1  0
  8 19  1  0
 15 19  1  0
  5 20  1  0
  6 20  1  0
  7 21  1  0
 16 21  1  0
  8 22  1  0
 17 22  1  0
 21 22  1  0
 11 23  1  0
 13 23  1  0
 10 24  1  0
 20 24  1  0
 23 24  1  0
  2 25  1  0
  2 26  1  0
  3 27  1  0
  3 28  1  0
  4 29  1  0
  4 30  1  0
  5 31  1  0
  5 32  1  0
  6 33  1  0
  6 34  1  0
  7 35  1  0
  7 36  1  0
  8 37  1  0
  8 38  1  0
  9 39  1  0
  9 40  1  0
 10 41  1  0
 10 42  1  0
 11 43  1  0
 11 44  1  0
 12 45  1  0
 12 46  1  0
 13 47  1  0
 13 48  1  0
 14 49  1  0
 18 50  1  0
 19 51  1  0
 20 52  1  0
 21 53  1  0
 22 54  1  0
 23 55  1  1
 24 56  1  6
M  END
>  <PDBID>  (1) 
5I6X

>  <PDB ID>  (1) 
5I6X

>  <Generic Name>  (1) 
Paroxetine

>  <Brand Name>  (1) 
Act Paroxetine#Apo-paroxetine#Auro-paroxetine#Bio-paroxetine#Brisdelle#Dom-paroxetine#Ipg-paroxetine#Jamp-paroxetine#Mar-paroxetine#Mint-paroxetine#Mylan-paroxetine#Ntp-paroxetine#Nu-paroxetine#PMS-paroxetine#Paroxetine#Paroxetine Hydrochloride#Paroxetine Hydrochloride Anhydrous#Paroxetine-10#Paroxetine-20#Paroxetine-30#Paxil#Paxil CR#Paxil Tab 10mg#Paxil Tab 20mg#Paxil Tab 30mg#Paxilcr CR#Pexeva#Priva-paroxetine#Q-paroxetine#Ratio-paroxetine#Riva-paroxetine#Sandoz Paroxetine#Sandoz Paroxetine Tablets#Teva-paroxetine#Aropax#PAXILCR#Sereupin#Seroxat#Seroxat CR

>  <DrugBank ID>  (1) 
DB00715

>  <ATC Codes>  (1) 
N06AB05

>  <Ligand ID>  (1) 
8PR

>  <Target Name>  (1) 
Sodium-dependent serotonin transporter

>  <UniProt ID>  (1) 
P31645

>  <PDB ID.1>  (1) 
5I6X

>  <Seq. Identity>  (1) 
99%

$$$$
