PDB_DB08864_06
     RDKit          3D

 74 76  0  0  0  0  0  0  0  0999 V2000
    3.5906   -0.9475   -1.0768 C   0  0  0  0  0  0  0  0  0  0  0  0
   -2.3862   -1.4726    0.9600 N   0  0  0  0  0  0  0  0  0  0  0  0
    5.2846   -0.0930    0.5541 C   0  0  0  0  0  0  0  0  0  0  0  0
    4.1742    0.1434    1.5502 C   0  0  0  0  0  0  0  0  0  0  0  0
    2.8150    0.2749    0.9600 C   0  0  0  0  0  0  0  0  0  0  0  0
    2.5027   -0.8383   -0.0191 C   0  0  0  0  0  0  0  0  0  0  0  0
    3.2995   -2.1916   -1.8923 C   0  0  0  0  0  0  0  0  0  0  0  0
    4.9464   -1.1538   -0.4343 C   0  0  0  0  0  0  0  0  0  0  0  0
    2.5454    1.6421    0.4163 C   0  0  0  0  0  0  0  0  0  0  0  0
    1.2635   -0.6284   -0.6893 N   0  0  0  0  0  0  0  0  0  0  0  0
   -1.4574   -2.5628    0.7291 C   0  0  0  0  0  0  0  0  0  0  0  0
   -0.0169   -2.0942    0.7066 C   0  0  0  0  0  0  0  0  0  0  0  0
    0.0883   -0.6913    0.1312 C   0  0  0  0  0  0  0  0  0  0  0  0
   -1.0354   -0.3515   -0.6804 N   0  0  0  0  0  0  0  0  0  0  0  0
   -2.3125   -0.4112    0.0122 C   0  0  1  0  0  0  0  0  0  0  0  0
   -3.4154   -0.3393   -0.8974 N   0  0  0  0  0  0  0  0  0  0  0  0
   -7.2777    0.8396    0.3448 C   0  0  0  0  0  0  0  0  0  0  0  0
   -6.0943    1.2245    1.2029 C   0  0  0  0  0  0  0  0  0  0  0  0
   -4.8057    1.2295    0.4031 C   0  0  0  0  0  0  0  0  0  0  0  0
   -4.6887   -0.0938   -0.3010 C   0  0  0  0  0  0  0  0  0  0  0  0
   -5.7301   -0.0699   -1.4232 C   0  0  0  0  0  0  0  0  0  0  0  0
   -6.9215    0.7590   -1.1127 C   0  0  0  0  0  0  0  0  0  0  0  0
   -9.5044    1.6747   -0.2902 N   0  0  0  0  0  0  0  0  0  0  0  0
   -8.3171    1.9344    0.4906 C   0  0  0  0  0  0  0  0  0  0  0  0
    6.9006    0.9765   -1.0405 C   0  0  0  0  0  0  0  0  0  0  0  0
    5.7891    1.1916   -0.0449 C   0  0  0  0  0  0  0  0  0  0  0  0
    8.6327    1.0799    0.6880 N   0  0  0  0  0  0  0  0  0  0  0  0
    8.1046    0.2826   -0.4024 C   0  0  0  0  0  0  0  0  0  0  0  0
    4.1799   -0.6955    2.2613 H   0  0  0  0  0  0  0  0  0  0  0  0
    4.2660   -2.6123   -2.2478 H   0  0  0  0  0  0  0  0  0  0  0  0
    2.8475   -2.9366   -1.1817 H   0  0  0  0  0  0  0  0  0  0  0  0
    2.5746   -2.0342   -2.6941 H   0  0  0  0  0  0  0  0  0  0  0  0
    4.9475   -2.1633    0.0288 H   0  0  0  0  0  0  0  0  0  0  0  0
    2.6121    1.7389   -0.6661 H   0  0  0  0  0  0  0  0  0  0  0  0
    1.5083    2.0008    0.6856 H   0  0  0  0  0  0  0  0  0  0  0  0
    3.2094    2.4063    0.8794 H   0  0  0  0  0  0  0  0  0  0  0  0
    1.1566   -1.0561   -1.6123 H   0  0  0  0  0  0  0  0  0  0  0  0
   -1.6097   -3.3036    1.5286 H   0  0  0  0  0  0  0  0  0  0  0  0
    0.3316   -2.0510    1.7571 H   0  0  0  0  0  0  0  0  0  0  0  0
   -3.1900    0.2867   -1.6906 H   0  0  0  0  0  0  0  0  0  0  0  0
   -6.0197    0.4752    2.0179 H   0  0  0  0  0  0  0  0  0  0  0  0
   -4.9252    2.0080   -0.4036 H   0  0  0  0  0  0  0  0  0  0  0  0
   -5.9547   -1.1209   -1.7127 H   0  0  0  0  0  0  0  0  0  0  0  0
   -6.8787    1.7873   -1.5278 H   0  0  0  0  0  0  0  0  0  0  0  0
    7.3050    1.9804   -1.3714 H   0  0  0  0  0  0  0  0  0  0  0  0
    6.2402    1.7834    0.7958 H   0  0  0  0  0  0  0  0  0  0  0  0
    3.5410   -0.0237   -1.6830 H   0  0  0  0  0  0  0  0  0  0  0  0
   -3.3330   -1.9019    0.9191 H   0  0  0  0  0  0  0  0  0  0  0  0
    6.1416   -0.4942    1.1725 H   0  0  0  0  0  0  0  0  0  0  0  0
    4.4263    1.0719    2.1020 H   0  0  0  0  0  0  0  0  0  0  0  0
    2.0843    0.1234    1.8093 H   0  0  0  0  0  0  0  0  0  0  0  0
    2.4872   -1.7819    0.5290 H   0  0  0  0  0  0  0  0  0  0  0  0
    5.7073   -1.1778   -1.2280 H   0  0  0  0  0  0  0  0  0  0  0  0
   -1.6390   -3.0534   -0.2658 H   0  0  0  0  0  0  0  0  0  0  0  0
    0.6183   -2.7509    0.1057 H   0  0  0  0  0  0  0  0  0  0  0  0
    0.1458    0.0571    0.9581 H   0  0  0  0  0  0  0  0  0  0  0  0
   -1.1368   -0.9151   -1.5522 H   0  0  0  0  0  0  0  0  0  0  0  0
   -2.3256    0.5415    0.6258 H   0  0  0  0  0  0  0  0  0  0  0  0
   -7.7617   -0.1076    0.6891 H   0  0  0  0  0  0  0  0  0  0  0  0
   -6.2323    2.2120    1.6860 H   0  0  0  0  0  0  0  0  0  0  0  0
   -4.0077    1.4686    1.0998 H   0  0  0  0  0  0  0  0  0  0  0  0
   -4.9686   -0.9367    0.3682 H   0  0  0  0  0  0  0  0  0  0  0  0
   -5.2099    0.3788   -2.3087 H   0  0  0  0  0  0  0  0  0  0  0  0
   -7.8064    0.2752   -1.6215 H   0  0  0  0  0  0  0  0  0  0  0  0
   -9.5597    2.2444   -1.1676 H   0  0  0  0  0  0  0  0  0  0  0  0
   -9.6844    0.6792   -0.4633 H   0  0  0  0  0  0  0  0  0  0  0  0
   -8.5233    2.1992    1.5378 H   0  0  0  0  0  0  0  0  0  0  0  0
   -7.8481    2.8499    0.0262 H   0  0  0  0  0  0  0  0  0  0  0  0
    6.6155    0.4543   -1.9527 H   0  0  0  0  0  0  0  0  0  0  0  0
    5.0028    1.7745   -0.5677 H   0  0  0  0  0  0  0  0  0  0  0  0
    8.3939    0.5772    1.5862 H   0  0  0  0  0  0  0  0  0  0  0  0
    9.6807    1.0280    0.6186 H   0  0  0  0  0  0  0  0  0  0  0  0
    8.8725    0.1068   -1.1853 H   0  0  0  0  0  0  0  0  0  0  0  0
    7.7450   -0.7060   -0.0551 H   0  0  0  0  0  0  0  0  0  0  0  0
  3  4  1  0
  4  5  1  0
  1  6  1  0
  5  6  1  0
  1  7  1  0
  1  8  1  0
  3  8  1  0
  5  9  1  0
  6 10  1  0
  2 11  1  0
 11 12  1  0
 10 13  1  0
 12 13  1  0
 13 14  1  0
  2 15  1  0
 14 15  1  0
 15 16  1  0
 17 18  1  0
 18 19  1  0
 16 20  1  0
 19 20  1  0
 20 21  1  0
 17 22  1  0
 21 22  1  0
 17 24  1  0
 23 24  1  0
  3 26  1  0
 25 26  1  0
 25 28  1  0
 27 28  1  0
  4 29  1  0
  7 30  1  0
  7 31  1  0
  7 32  1  0
  8 33  1  0
  9 34  1  0
  9 35  1  0
  9 36  1  0
 10 37  1  0
 11 38  1  0
 12 39  1  0
 16 40  1  0
 18 41  1  0
 19 42  1  0
 21 43  1  0
 22 44  1  0
 25 45  1  0
 26 46  1  0
  1 47  1  0
  2 48  1  0
  3 49  1  0
  4 50  1  0
  5 51  1  0
  6 52  1  0
  8 53  1  0
 11 54  1  0
 12 55  1  0
 13 56  1  0
 14 57  1  0
 15 58  1  1
 17 59  1  0
 18 60  1  0
 19 61  1  0
 20 62  1  0
 21 63  1  0
 22 64  1  0
 23 65  1  0
 23 66  1  0
 24 67  1  0
 24 68  1  0
 25 69  1  0
 26 70  1  0
 27 71  1  0
 27 72  1  0
 28 73  1  0
 28 74  1  0
M  END
>  <PDBID>  (1) 
4G1Q

>  <PDB ID>  (1) 
4G1Q

>  <Generic Name>  (1) 
Rilpivirine

>  <Brand Name>  (1) 
Complera#Edurant#Odefsey

>  <DrugBank ID>  (1) 
DB08864

>  <ATC Codes>  (1) 
nan

>  <Ligand ID>  (1) 
T27

>  <Target Name>  (1) 
Reverse transcriptase/RNaseH

>  <UniProt ID>  (1) 
Q72547

>  <PDB ID.1>  (1) 
4G1Q

>  <Seq. Identity>  (1) 
95%

$$$$
