PDB_DB13139_05
     RDKit          3D

 88 88  0  0  0  0  0  0  0  0999 V2000
    5.1659   -0.3995   -1.0040 O   0  0  0  0  0  0  0  0  0  0  0  0
    4.4978   -1.0731   -0.0189 C   0  0  0  0  0  0  0  0  0  0  0  0
    3.0889   -0.6240    0.2415 C   0  0  0  0  0  0  0  0  0  0  0  0
    2.9990    0.8286    0.6527 C   0  0  0  0  0  0  0  0  0  0  0  0
    4.2193    1.4265    0.8832 O   0  0  0  0  0  0  0  0  0  0  0  0
    2.3157    1.6315   -0.4676 C   0  0  0  0  0  0  0  0  0  0  0  0
    0.8551    1.1496   -0.4465 C   0  0  0  0  0  0  0  0  0  0  0  0
    2.2282   -0.9140   -0.9575 C   0  0  0  0  0  0  0  0  0  0  0  0
    0.8493   -0.2835   -0.8162 C   0  0  0  0  0  0  0  0  0  0  0  0
   -0.0127   -1.0805    0.1026 C   0  0  1  0  0  0  0  0  0  0  0  0
    0.3947   -0.9899    1.4403 O   0  0  0  0  0  0  0  0  0  0  0  0
   -1.4661   -0.8660   -0.1112 C   0  0  0  0  0  0  0  0  0  0  0  0
   -2.0225    0.3696    0.3079 N   0  0  0  0  0  0  0  0  0  0  0  0
   -3.4804    0.2583    0.0478 C   0  0  0  0  0  0  0  0  0  0  0  0
   -4.0462   -0.8481    0.8828 C   0  0  0  0  0  0  0  0  0  0  0  0
   -4.1252    1.5550    0.5142 C   0  0  0  0  0  0  0  0  0  0  0  0
   -3.7592    0.0384   -1.4126 C   0  0  0  0  0  0  0  0  0  0  0  0
    5.1659   -0.3995   -1.0040 O   0  0  0  0  0  0  0  0  0  0  0  0
    4.4978   -1.0731   -0.0189 C   0  0  0  0  0  0  0  0  0  0  0  0
    3.0889   -0.6240    0.2415 C   0  0  0  0  0  0  0  0  0  0  0  0
    2.9990    0.8286    0.6527 C   0  0  0  0  0  0  0  0  0  0  0  0
    4.2193    1.4265    0.8832 O   0  0  0  0  0  0  0  0  0  0  0  0
    2.3157    1.6315   -0.4676 C   0  0  0  0  0  0  0  0  0  0  0  0
    0.8551    1.1496   -0.4465 C   0  0  0  0  0  0  0  0  0  0  0  0
    2.2282   -0.9140   -0.9575 C   0  0  0  0  0  0  0  0  0  0  0  0
    0.8493   -0.2835   -0.8162 C   0  0  0  0  0  0  0  0  0  0  0  0
   -0.0127   -1.0805    0.1026 C   0  0  1  0  0  0  0  0  0  0  0  0
    0.3947   -0.9899    1.4403 O   0  0  0  0  0  0  0  0  0  0  0  0
   -1.4661   -0.8660   -0.1112 C   0  0  0  0  0  0  0  0  0  0  0  0
   -2.0225    0.3696    0.3079 N   0  0  0  0  0  0  0  0  0  0  0  0
   -3.4804    0.2583    0.0478 C   0  0  0  0  0  0  0  0  0  0  0  0
   -4.0462   -0.8481    0.8828 C   0  0  0  0  0  0  0  0  0  0  0  0
   -4.1252    1.5550    0.5142 C   0  0  0  0  0  0  0  0  0  0  0  0
   -3.7592    0.0384   -1.4126 C   0  0  0  0  0  0  0  0  0  0  0  0
    4.6215   -0.0733   -1.7322 H   0  0  0  0  0  0  0  0  0  0  0  0
    4.5044   -2.1656   -0.2679 H   0  0  0  0  0  0  0  0  0  0  0  0
    5.0507   -0.9587    0.9609 H   0  0  0  0  0  0  0  0  0  0  0  0
    2.7042   -1.2379    1.0840 H   0  0  0  0  0  0  0  0  0  0  0  0
    2.3633    0.9741    1.5484 H   0  0  0  0  0  0  0  0  0  0  0  0
    4.1517    2.3827    0.6587 H   0  0  0  0  0  0  0  0  0  0  0  0
    2.7942    1.4433   -1.4354 H   0  0  0  0  0  0  0  0  0  0  0  0
    2.3038    2.6868   -0.1802 H   0  0  0  0  0  0  0  0  0  0  0  0
    0.4647    1.3814    0.5708 H   0  0  0  0  0  0  0  0  0  0  0  0
    0.3059    1.7550   -1.2028 H   0  0  0  0  0  0  0  0  0  0  0  0
    2.6951   -0.6235   -1.9129 H   0  0  0  0  0  0  0  0  0  0  0  0
    2.0615   -2.0079   -0.9930 H   0  0  0  0  0  0  0  0  0  0  0  0
    0.3794   -0.3738   -1.8436 H   0  0  0  0  0  0  0  0  0  0  0  0
    0.2274   -2.1834   -0.1970 H   0  0  0  0  0  0  0  0  0  0  0  0
    0.0953   -1.7838    1.9365 H   0  0  0  0  0  0  0  0  0  0  0  0
   -1.7394   -1.0282   -1.1875 H   0  0  0  0  0  0  0  0  0  0  0  0
   -2.0185   -1.6712    0.4705 H   0  0  0  0  0  0  0  0  0  0  0  0
   -1.7293    1.1821   -0.2764 H   0  0  0  0  0  0  0  0  0  0  0  0
   -4.0479   -1.8032    0.3057 H   0  0  0  0  0  0  0  0  0  0  0  0
   -5.1023   -0.6332    1.1948 H   0  0  0  0  0  0  0  0  0  0  0  0
   -3.4288   -0.9630    1.7936 H   0  0  0  0  0  0  0  0  0  0  0  0
   -3.9781    1.5898    1.6207 H   0  0  0  0  0  0  0  0  0  0  0  0
   -3.6274    2.4490    0.0998 H   0  0  0  0  0  0  0  0  0  0  0  0
   -5.1991    1.4963    0.2866 H   0  0  0  0  0  0  0  0  0  0  0  0
   -2.9509    0.4593   -2.0201 H   0  0  0  0  0  0  0  0  0  0  0  0
   -3.8955   -1.0322   -1.6637 H   0  0  0  0  0  0  0  0  0  0  0  0
   -4.7077    0.5603   -1.6556 H   0  0  0  0  0  0  0  0  0  0  0  0
    4.6215   -0.0733   -1.7322 H   0  0  0  0  0  0  0  0  0  0  0  0
    4.5044   -2.1656   -0.2679 H   0  0  0  0  0  0  0  0  0  0  0  0
    5.0507   -0.9587    0.9609 H   0  0  0  0  0  0  0  0  0  0  0  0
    2.7042   -1.2379    1.0840 H   0  0  0  0  0  0  0  0  0  0  0  0
    2.3633    0.9741    1.5484 H   0  0  0  0  0  0  0  0  0  0  0  0
    4.1517    2.3827    0.6587 H   0  0  0  0  0  0  0  0  0  0  0  0
    2.7942    1.4433   -1.4354 H   0  0  0  0  0  0  0  0  0  0  0  0
    2.3038    2.6868   -0.1802 H   0  0  0  0  0  0  0  0  0  0  0  0
    0.4647    1.3814    0.5708 H   0  0  0  0  0  0  0  0  0  0  0  0
    0.3059    1.7550   -1.2028 H   0  0  0  0  0  0  0  0  0  0  0  0
    2.6951   -0.6235   -1.9129 H   0  0  0  0  0  0  0  0  0  0  0  0
    2.0615   -2.0079   -0.9930 H   0  0  0  0  0  0  0  0  0  0  0  0
    0.3794   -0.3738   -1.8436 H   0  0  0  0  0  0  0  0  0  0  0  0
    0.2274   -2.1834   -0.1970 H   0  0  0  0  0  0  0  0  0  0  0  0
    0.0953   -1.7838    1.9365 H   0  0  0  0  0  0  0  0  0  0  0  0
   -1.7394   -1.0282   -1.1875 H   0  0  0  0  0  0  0  0  0  0  0  0
   -2.0185   -1.6712    0.4705 H   0  0  0  0  0  0  0  0  0  0  0  0
   -1.7293    1.1821   -0.2764 H   0  0  0  0  0  0  0  0  0  0  0  0
   -4.0479   -1.8032    0.3057 H   0  0  0  0  0  0  0  0  0  0  0  0
   -5.1023   -0.6332    1.1948 H   0  0  0  0  0  0  0  0  0  0  0  0
   -3.4288   -0.9630    1.7936 H   0  0  0  0  0  0  0  0  0  0  0  0
   -3.9781    1.5898    1.6207 H   0  0  0  0  0  0  0  0  0  0  0  0
   -3.6274    2.4490    0.0998 H   0  0  0  0  0  0  0  0  0  0  0  0
   -5.1991    1.4963    0.2866 H   0  0  0  0  0  0  0  0  0  0  0  0
   -2.9509    0.4593   -2.0201 H   0  0  0  0  0  0  0  0  0  0  0  0
   -3.8955   -1.0322   -1.6637 H   0  0  0  0  0  0  0  0  0  0  0  0
   -4.7077    0.5603   -1.6556 H   0  0  0  0  0  0  0  0  0  0  0  0
  1  2  1  0
  2  3  1  0
  3  4  1  0
  4  5  1  0
  4  6  1  0
  6  7  1  0
  3  8  1  0
  7  9  1  0
  8  9  1  0
  9 10  1  0
 10 11  1  0
 10 12  1  0
 12 13  1  0
 14 13  1  0
 14 15  1  0
 14 16  1  0
 14 17  1  0
 18 19  1  0
 19 20  1  0
 20 21  1  0
 21 22  1  0
 21 23  1  0
 23 24  1  0
 20 25  1  0
 24 26  1  0
 25 26  1  0
 26 27  1  0
 27 28  1  0
 27 29  1  0
 29 30  1  0
 31 30  1  0
 31 32  1  0
 31 33  1  0
 31 34  1  0
  1 35  1  0
  2 36  1  0
  2 37  1  0
  3 38  1  0
  4 39  1  0
  5 40  1  0
  6 41  1  0
  6 42  1  0
  7 43  1  0
  7 44  1  0
  8 45  1  0
  8 46  1  0
  9 47  1  0
 10 48  1  6
 11 49  1  0
 12 50  1  0
 12 51  1  0
 13 52  1  0
 15 53  1  0
 15 54  1  0
 15 55  1  0
 16 56  1  0
 16 57  1  0
 16 58  1  0
 17 59  1  0
 17 60  1  0
 17 61  1  0
 18 62  1  0
 19 63  1  0
 19 64  1  0
 20 65  1  0
 21 66  1  0
 22 67  1  0
 23 68  1  0
 23 69  1  0
 24 70  1  0
 24 71  1  0
 25 72  1  0
 25 73  1  0
 26 74  1  0
 27 75  1  6
 28 76  1  0
 29 77  1  0
 29 78  1  0
 30 79  1  0
 32 80  1  0
 32 81  1  0
 32 82  1  0
 33 83  1  0
 33 84  1  0
 33 85  1  0
 34 86  1  0
 34 87  1  0
 34 88  1  0
M  END
>  <PDBID>  (1) 
2Y04

>  <PDB ID>  (1) 
2Y04

>  <Generic Name>  (1) 
Levosalbutamol

>  <Brand Name>  (1) 
Levalbuterol#Levalbuterol Hydrochloride#Xopenex

>  <DrugBank ID>  (1) 
DB13139

>  <ATC Codes>  (1) 
nan

>  <Ligand ID>  (1) 
68H

>  <Target Name>  (1) 
Beta-2 adrenergic receptor

>  <UniProt ID>  (1) 
P07550

>  <PDB ID.1>  (1) 
2Y04

>  <Seq. Identity>  (1) 
58%

$$$$
