PDB_DB09073_09
     RDKit          3D

 80 84  0  0  0  0  0  0  0  0999 V2000
   -5.5225    3.2133    1.7476 O   0  0  0  0  0  0  0  0  0  0  0  0
   -5.7198    2.2416    0.7786 C   0  0  0  0  0  0  0  0  0  0  0  0
   -6.5490    2.8216   -0.3206 C   0  0  0  0  0  0  0  0  0  0  0  0
   -4.4031    1.7115    0.3016 C   0  0  0  0  0  0  0  0  0  0  0  0
   -3.5664    1.0648    1.3738 C   0  0  2  0  0  0  0  0  0  0  0  0
   -3.5309    1.9368    2.6148 C   0  0  0  0  0  0  0  0  0  0  0  0
   -2.2044    0.8133    0.8218 C   0  0  1  0  0  0  0  0  0  0  0  0
   -1.3159   -0.0471    1.7006 C   0  0  0  0  0  0  0  0  0  0  0  0
    0.0372    0.1102    1.1329 N   0  0  0  0  0  0  0  0  0  0  0  0
    0.0235   -0.0292   -0.2848 C   0  0  0  0  0  0  0  0  0  0  0  0
   -1.2320   -0.7416   -0.6629 N   0  0  0  0  0  0  0  0  0  0  0  0
   -2.2918    0.2087   -0.5724 C   0  0  1  0  0  0  0  0  0  0  0  0
   -3.5705   -0.2793   -0.8956 N   0  0  0  0  0  0  0  0  0  0  0  0
   -3.9282   -1.6070   -0.6217 C   0  0  0  0  0  0  0  0  0  0  0  0
   -3.1581   -2.6813   -1.3425 C   0  0  0  0  0  0  0  0  0  0  0  0
   -4.0383   -3.9141   -1.0860 C   0  0  0  0  0  0  0  0  0  0  0  0
   -5.4234   -3.3851   -1.2115 C   0  0  0  0  0  0  0  0  0  0  0  0
   -5.3514   -1.8854   -1.0791 C   0  0  0  0  0  0  0  0  0  0  0  0
   -4.5810    0.7022   -0.8202 C   0  0  0  0  0  0  0  0  0  0  0  0
   -4.5843    1.4386   -2.0194 O   0  0  0  0  0  0  0  0  0  0  0  0
    1.0981   -0.6409   -0.9353 N   0  0  0  0  0  0  0  0  0  0  0  0
    2.3991   -0.1699   -0.7807 C   0  0  0  0  0  0  0  0  0  0  0  0
    3.3357   -0.7228   -1.7622 N   0  0  0  0  0  0  0  0  0  0  0  0
    4.6183   -1.0329   -1.2143 C   0  0  0  0  0  0  0  0  0  0  0  0
    5.1722    0.0803   -0.3527 C   0  0  1  0  0  0  0  0  0  0  0  0
    4.2016    0.5312    0.7130 C   0  0  0  0  0  0  0  0  0  0  0  0
    2.9532   -0.3593    0.5891 C   0  0  0  0  0  0  0  0  0  0  0  0
    6.3891   -0.3389    0.3154 N   0  0  0  0  0  0  0  0  0  0  0  0
    7.4316   -0.6873   -0.6186 C   0  0  0  0  0  0  0  0  0  0  0  0
    8.6496   -1.0649    0.2054 C   0  0  0  0  0  0  0  0  0  0  0  0
    9.0979    0.0811    0.9329 N   0  0  0  0  0  0  0  0  0  0  0  0
    8.1572    1.1649    0.9353 C   0  0  0  0  0  0  0  0  0  0  0  0
    6.7930    0.6502    1.2652 C   0  0  0  0  0  0  0  0  0  0  0  0
   -5.9842    3.4602   -1.0176 H   0  0  0  0  0  0  0  0  0  0  0  0
   -7.1660    2.0498   -0.8416 H   0  0  0  0  0  0  0  0  0  0  0  0
   -7.3117    3.5024    0.1580 H   0  0  0  0  0  0  0  0  0  0  0  0
   -2.7244    1.6145    3.3109 H   0  0  0  0  0  0  0  0  0  0  0  0
   -4.4732    1.7568    3.1698 H   0  0  0  0  0  0  0  0  0  0  0  0
   -3.3368    2.9963    2.4028 H   0  0  0  0  0  0  0  0  0  0  0  0
   -1.5739   -1.0974    1.7316 H   0  0  0  0  0  0  0  0  0  0  0  0
   -3.9134   -1.8936    0.4534 H   0  0  0  0  0  0  0  0  0  0  0  0
   -3.1843   -2.5331   -2.4325 H   0  0  0  0  0  0  0  0  0  0  0  0
   -2.1477   -2.8736   -0.9305 H   0  0  0  0  0  0  0  0  0  0  0  0
   -3.7888   -4.7388   -1.7626 H   0  0  0  0  0  0  0  0  0  0  0  0
   -3.8550   -4.1634   -0.0084 H   0  0  0  0  0  0  0  0  0  0  0  0
   -6.1384   -3.8508   -0.4835 H   0  0  0  0  0  0  0  0  0  0  0  0
   -5.8160   -3.6896   -2.2212 H   0  0  0  0  0  0  0  0  0  0  0  0
   -5.5700   -1.4557   -2.0610 H   0  0  0  0  0  0  0  0  0  0  0  0
   -6.0882   -1.6075   -0.2986 H   0  0  0  0  0  0  0  0  0  0  0  0
    0.9203   -1.4224   -1.5711 H   0  0  0  0  0  0  0  0  0  0  0  0
    4.7040   -2.0186   -0.7213 H   0  0  0  0  0  0  0  0  0  0  0  0
    3.8670    1.5691    0.5432 H   0  0  0  0  0  0  0  0  0  0  0  0
    2.2691   -0.1927    1.4051 H   0  0  0  0  0  0  0  0  0  0  0  0
    7.1283   -1.6253   -1.1638 H   0  0  0  0  0  0  0  0  0  0  0  0
    7.7226    0.0853   -1.3218 H   0  0  0  0  0  0  0  0  0  0  0  0
    8.3955   -1.9277    0.8567 H   0  0  0  0  0  0  0  0  0  0  0  0
    9.4558   -1.4284   -0.4652 H   0  0  0  0  0  0  0  0  0  0  0  0
   10.0180    0.4112    0.5306 H   0  0  0  0  0  0  0  0  0  0  0  0
    8.1504    1.6155   -0.0919 H   0  0  0  0  0  0  0  0  0  0  0  0
    8.4857    1.9760    1.6382 H   0  0  0  0  0  0  0  0  0  0  0  0
    6.7790    0.2838    2.3146 H   0  0  0  0  0  0  0  0  0  0  0  0
    6.0996    1.5378    1.1929 H   0  0  0  0  0  0  0  0  0  0  0  0
   -5.5911    4.1238    1.3707 H   0  0  0  0  0  0  0  0  0  0  0  0
   -6.2754    1.3795    1.2142 H   0  0  0  0  0  0  0  0  0  0  0  0
   -3.7583    2.5436   -0.1162 H   0  0  0  0  0  0  0  0  0  0  0  0
   -4.1002    0.1406    1.6766 H   0  0  0  0  0  0  0  0  0  0  0  0
   -1.6866    1.8012    0.7489 H   0  0  0  0  0  0  0  0  0  0  0  0
   -1.2783    0.3857    2.6920 H   0  0  0  0  0  0  0  0  0  0  0  0
    0.3615    1.1034    1.4166 H   0  0  0  0  0  0  0  0  0  0  0  0
   -0.0695    1.0255   -0.7006 H   0  0  0  0  0  0  0  0  0  0  0  0
   -1.0718   -0.8967   -1.7093 H   0  0  0  0  0  0  0  0  0  0  0  0
   -2.0410    1.0186   -1.3226 H   0  0  0  0  0  0  0  0  0  0  0  0
   -5.6171    0.3177   -0.7233 H   0  0  0  0  0  0  0  0  0  0  0  0
   -3.7096    1.8850   -2.0900 H   0  0  0  0  0  0  0  0  0  0  0  0
    2.4725    0.9597   -0.9802 H   0  0  0  0  0  0  0  0  0  0  0  0
    3.4369   -0.1140   -2.5999 H   0  0  0  0  0  0  0  0  0  0  0  0
    5.3206   -1.0740   -2.1040 H   0  0  0  0  0  0  0  0  0  0  0  0
    5.3829    0.9507   -1.0204 H   0  0  0  0  0  0  0  0  0  0  0  0
    4.5869    0.3622    1.7439 H   0  0  0  0  0  0  0  0  0  0  0  0
    3.3280   -1.4357    0.6208 H   0  0  0  0  0  0  0  0  0  0  0  0
  1  2  1  0
  2  3  1  0
  2  4  1  0
  4  5  1  0
  5  6  1  0
  5  7  1  0
  7  8  1  0
  8  9  1  0
  9 10  1  0
 10 11  1  0
  7 12  1  0
 11 12  1  0
 12 13  1  0
 13 14  1  0
 14 15  1  0
 15 16  1  0
 16 17  1  0
 14 18  1  0
 17 18  1  0
  4 19  1  0
 13 19  1  0
 19 20  1  0
 10 21  1  0
 21 22  1  0
 22 23  1  0
 23 24  1  0
 24 25  1  0
 25 26  1  0
 22 27  1  0
 26 27  1  0
 25 28  1  0
 28 29  1  0
 29 30  1  0
 30 31  1  0
 31 32  1  0
 28 33  1  0
 32 33  1  0
  3 34  1  0
  3 35  1  0
  3 36  1  0
  6 37  1  0
  6 38  1  0
  6 39  1  0
  8 40  1  0
 14 41  1  0
 15 42  1  0
 15 43  1  0
 16 44  1  0
 16 45  1  0
 17 46  1  0
 17 47  1  0
 18 48  1  0
 18 49  1  0
 21 50  1  0
 24 51  1  0
 26 52  1  0
 27 53  1  0
 29 54  1  0
 29 55  1  0
 30 56  1  0
 30 57  1  0
 31 58  1  0
 32 59  1  0
 32 60  1  0
 33 61  1  0
 33 62  1  0
  1 63  1  0
  2 64  1  0
  4 65  1  0
  5 66  1  1
  7 67  1  6
  8 68  1  0
  9 69  1  0
 10 70  1  0
 11 71  1  0
 12 72  1  6
 19 73  1  0
 20 74  1  0
 22 75  1  0
 23 76  1  0
 24 77  1  0
 25 78  1  6
 26 79  1  0
 27 80  1  0
M  END
>  <PDBID>  (1) 
5L2I

>  <PDB ID>  (1) 
5L2I

>  <Generic Name>  (1) 
Palbociclib

>  <Brand Name>  (1) 
Ibrance

>  <DrugBank ID>  (1) 
DB09073

>  <ATC Codes>  (1) 
L01XE33

>  <Ligand ID>  (1) 
LQQ

>  <Target Name>  (1) 
Cyclin-dependent kinase 6

>  <UniProt ID>  (1) 
Q00534

>  <PDB ID.1>  (1) 
5L2I

>  <Seq. Identity>  (1) 
100%

$$$$
