PDB_DB00730_05
     RDKit          3D

 33 35  0  0  0  0  0  0  0  0999 V2000
    0.9260    0.6436    0.5595 C   0  0  0  0  0  0  0  0  0  0  0  0
   -0.1633    0.4900    1.4832 N   0  0  0  0  0  0  0  0  0  0  0  0
   -0.8811   -0.6996    1.0864 C   0  0  0  0  0  0  0  0  0  0  0  0
   -2.2569   -0.3030    0.6884 C   0  0  0  0  0  0  0  0  0  0  0  0
   -3.0971   -1.5128    0.2488 C   0  0  0  0  0  0  0  0  0  0  0  0
   -4.5249   -0.5726   -0.4381 S   0  0  0  0  0  0  0  0  0  0  0  0
   -3.6773    1.0626   -0.5013 C   0  0  0  0  0  0  0  0  0  0  0  0
   -2.2824    0.5877   -0.4607 N   0  0  0  0  0  0  0  0  0  0  0  0
   -0.1242   -1.3139    0.0168 N   0  0  0  0  0  0  0  0  0  0  0  0
    1.2274   -0.8223    0.2132 C   0  0  0  0  0  0  0  0  0  0  0  0
    2.0185   -0.7883   -1.0755 C   0  0  0  0  0  0  0  0  0  0  0  0
    2.9101    0.4321   -1.1126 C   0  0  0  0  0  0  0  0  0  0  0  0
    3.3362    0.8718    0.2744 C   0  0  0  0  0  0  0  0  0  0  0  0
    2.1596    1.2329    1.1479 C   0  0  0  0  0  0  0  0  0  0  0  0
    0.5944    1.1256   -0.3745 H   0  0  0  0  0  0  0  0  0  0  0  0
   -0.7557    1.3608    1.4193 H   0  0  0  0  0  0  0  0  0  0  0  0
   -0.9591   -1.4018    1.9397 H   0  0  0  0  0  0  0  0  0  0  0  0
   -2.7680    0.1570    1.5349 H   0  0  0  0  0  0  0  0  0  0  0  0
   -2.6235   -2.0338   -0.5821 H   0  0  0  0  0  0  0  0  0  0  0  0
   -3.3963   -2.1222    1.0986 H   0  0  0  0  0  0  0  0  0  0  0  0
   -3.8473    1.6343    0.4104 H   0  0  0  0  0  0  0  0  0  0  0  0
   -3.8780    1.5789   -1.4400 H   0  0  0  0  0  0  0  0  0  0  0  0
   -2.1981   -0.0354   -1.3088 H   0  0  0  0  0  0  0  0  0  0  0  0
   -0.0826   -2.3519    0.1933 H   0  0  0  0  0  0  0  0  0  0  0  0
    1.7577   -1.3310    1.0296 H   0  0  0  0  0  0  0  0  0  0  0  0
    1.3697   -0.7653   -1.9657 H   0  0  0  0  0  0  0  0  0  0  0  0
    2.6480   -1.6916   -1.1085 H   0  0  0  0  0  0  0  0  0  0  0  0
    2.4409    1.2854   -1.6320 H   0  0  0  0  0  0  0  0  0  0  0  0
    3.8468    0.2073   -1.6677 H   0  0  0  0  0  0  0  0  0  0  0  0
    3.9298    1.8000    0.1384 H   0  0  0  0  0  0  0  0  0  0  0  0
    4.0173    0.1369    0.7443 H   0  0  0  0  0  0  0  0  0  0  0  0
    2.0324    2.3291    1.2713 H   0  0  0  0  0  0  0  0  0  0  0  0
    2.3006    0.8097    2.1647 H   0  0  0  0  0  0  0  0  0  0  0  0
  1  2  1  0
  2  3  1  0
  3  4  1  0
  4  5  1  0
  5  6  1  0
  6  7  1  0
  4  8  1  0
  7  8  1  0
  3  9  1  0
  1 10  1  0
  9 10  1  0
 10 11  1  0
 11 12  1  0
 12 13  1  0
  1 14  1  0
 13 14  1  0
  1 15  1  0
  2 16  1  0
  3 17  1  0
  4 18  1  0
  5 19  1  0
  5 20  1  0
  7 21  1  0
  7 22  1  0
  8 23  1  0
  9 24  1  0
 10 25  1  0
 11 26  1  0
 11 27  1  0
 12 28  1  0
 12 29  1  0
 13 30  1  0
 13 31  1  0
 14 32  1  0
 14 33  1  0
M  END
>  <PDBID>  (1) 
3SFE

>  <PDB ID>  (1) 
3SFE

>  <Generic Name>  (1) 
Thiabendazole

>  <Brand Name>  (1) 
Mintezol Chewable Tab 500mg#Mintezol

>  <DrugBank ID>  (1) 
DB00730

>  <ATC Codes>  (1) 
D01AC06#P02CA02

>  <Ligand ID>  (1) 
TMG

>  <Target Name>  (1) 
Fumarate reductase flavoprotein subunit

>  <UniProt ID>  (1) 
P00363

>  <PDB ID.1>  (1) 
3SFE

>  <Seq. Identity>  (1) 
38%

$$$$
