PDB_DB00255_05
     RDKit          3D

108110  0  0  0  0  0  0  0  0999 V2000
   -2.0747   -1.8719   -2.1646 C   0  0  0  0  0  0  0  0  0  0  0  0
   -0.7455   -1.2369   -1.8945 C   0  0  0  0  0  0  0  0  0  0  0  0
   -0.5482   -0.9876   -0.3485 C   0  0  0  0  0  0  0  0  0  0  0  0
   -1.5872   -0.0628   -0.0256 C   0  0  0  0  0  0  0  0  0  0  0  0
   -1.7860    0.3967    1.3990 C   0  0  0  0  0  0  0  0  0  0  0  0
   -3.2769    0.6715    1.6084 C   0  0  0  0  0  0  0  0  0  0  0  0
   -3.7452    1.6956    0.5868 C   0  0  0  0  0  0  0  0  0  0  0  0
   -4.2536    2.7757    1.3021 O   0  0  0  0  0  0  0  0  0  0  0  0
   -2.5623    2.2043   -0.2190 C   0  0  0  0  0  0  0  0  0  0  0  0
   -1.8305    1.1057   -0.9589 C   0  0  0  0  0  0  0  0  0  0  0  0
    0.9015   -1.0224   -0.2255 C   0  0  0  0  0  0  0  0  0  0  0  0
    1.6520   -0.8005    1.0202 C   0  0  0  0  0  0  0  0  0  0  0  0
    1.4257    0.4760    1.8032 C   0  0  0  0  0  0  0  0  0  0  0  0
    1.4964    1.7295    1.0152 C   0  0  0  0  0  0  0  0  0  0  0  0
    2.9793    1.9475    0.6683 C   0  0  0  0  0  0  0  0  0  0  0  0
    3.0686    3.0081   -0.2265 O   0  0  0  0  0  0  0  0  0  0  0  0
    3.3703    0.6982   -0.0967 C   0  0  0  0  0  0  0  0  0  0  0  0
    3.1520   -0.5564    0.7077 C   0  0  0  0  0  0  0  0  0  0  0  0
    1.0895   -2.5873   -0.4266 C   0  0  0  0  0  0  0  0  0  0  0  0
    2.4248   -3.1292   -0.4458 C   0  0  0  0  0  0  0  0  0  0  0  0
   -2.0747   -1.8719   -2.1646 C   0  0  0  0  0  0  0  0  0  0  0  0
   -0.7455   -1.2369   -1.8945 C   0  0  0  0  0  0  0  0  0  0  0  0
   -0.5482   -0.9876   -0.3485 C   0  0  0  0  0  0  0  0  0  0  0  0
   -1.5872   -0.0628   -0.0256 C   0  0  0  0  0  0  0  0  0  0  0  0
   -1.7860    0.3967    1.3990 C   0  0  0  0  0  0  0  0  0  0  0  0
   -3.2769    0.6715    1.6084 C   0  0  0  0  0  0  0  0  0  0  0  0
   -3.7452    1.6956    0.5868 C   0  0  0  0  0  0  0  0  0  0  0  0
   -4.2536    2.7757    1.3021 O   0  0  0  0  0  0  0  0  0  0  0  0
   -2.5623    2.2043   -0.2190 C   0  0  0  0  0  0  0  0  0  0  0  0
   -1.8305    1.1057   -0.9589 C   0  0  0  0  0  0  0  0  0  0  0  0
    0.9015   -1.0224   -0.2255 C   0  0  0  0  0  0  0  0  0  0  0  0
    1.6520   -0.8005    1.0202 C   0  0  0  0  0  0  0  0  0  0  0  0
    1.4257    0.4760    1.8032 C   0  0  0  0  0  0  0  0  0  0  0  0
    1.4964    1.7295    1.0152 C   0  0  0  0  0  0  0  0  0  0  0  0
    2.9793    1.9475    0.6683 C   0  0  0  0  0  0  0  0  0  0  0  0
    3.0686    3.0081   -0.2265 O   0  0  0  0  0  0  0  0  0  0  0  0
    3.3703    0.6982   -0.0967 C   0  0  0  0  0  0  0  0  0  0  0  0
    3.1520   -0.5564    0.7077 C   0  0  0  0  0  0  0  0  0  0  0  0
    1.0895   -2.5873   -0.4266 C   0  0  0  0  0  0  0  0  0  0  0  0
    2.4248   -3.1292   -0.4458 C   0  0  0  0  0  0  0  0  0  0  0  0
   -2.7722   -1.2716   -2.7789 H   0  0  0  0  0  0  0  0  0  0  0  0
   -2.5477   -2.3178   -1.2589 H   0  0  0  0  0  0  0  0  0  0  0  0
   -1.8962   -2.7930   -2.8220 H   0  0  0  0  0  0  0  0  0  0  0  0
    0.0900   -1.6703   -2.3842 H   0  0  0  0  0  0  0  0  0  0  0  0
   -0.8256   -0.1955   -2.3579 H   0  0  0  0  0  0  0  0  0  0  0  0
   -0.9490   -1.9874    0.0560 H   0  0  0  0  0  0  0  0  0  0  0  0
   -2.5653   -0.6443   -0.1916 H   0  0  0  0  0  0  0  0  0  0  0  0
   -1.4896   -0.4332    2.0646 H   0  0  0  0  0  0  0  0  0  0  0  0
   -1.2892    1.3438    1.6427 H   0  0  0  0  0  0  0  0  0  0  0  0
   -3.8450   -0.2520    1.4202 H   0  0  0  0  0  0  0  0  0  0  0  0
   -3.4770    1.0152    2.6249 H   0  0  0  0  0  0  0  0  0  0  0  0
   -4.5756    1.3178   -0.0410 H   0  0  0  0  0  0  0  0  0  0  0  0
   -4.1449    3.6232    0.7845 H   0  0  0  0  0  0  0  0  0  0  0  0
   -3.0014    2.9388   -0.9582 H   0  0  0  0  0  0  0  0  0  0  0  0
   -1.9353    2.8162    0.4340 H   0  0  0  0  0  0  0  0  0  0  0  0
   -0.9140    1.5632   -1.3609 H   0  0  0  0  0  0  0  0  0  0  0  0
   -2.4396    0.8286   -1.8301 H   0  0  0  0  0  0  0  0  0  0  0  0
    1.4059   -0.5931   -1.0860 H   0  0  0  0  0  0  0  0  0  0  0  0
    1.6010   -1.6361    1.7012 H   0  0  0  0  0  0  0  0  0  0  0  0
    0.6549    0.4457    2.5624 H   0  0  0  0  0  0  0  0  0  0  0  0
    2.3576    0.5427    2.4865 H   0  0  0  0  0  0  0  0  0  0  0  0
    0.9658    1.7265    0.0697 H   0  0  0  0  0  0  0  0  0  0  0  0
    1.2341    2.5646    1.6880 H   0  0  0  0  0  0  0  0  0  0  0  0
    3.5795    2.0898    1.5757 H   0  0  0  0  0  0  0  0  0  0  0  0
    3.6443    2.8153   -1.0053 H   0  0  0  0  0  0  0  0  0  0  0  0
    2.8526    0.7588   -1.0494 H   0  0  0  0  0  0  0  0  0  0  0  0
    4.4688    0.7311   -0.2899 H   0  0  0  0  0  0  0  0  0  0  0  0
    3.5568   -0.2519    1.7456 H   0  0  0  0  0  0  0  0  0  0  0  0
    3.7693   -1.3524    0.4444 H   0  0  0  0  0  0  0  0  0  0  0  0
    0.5110   -2.9688   -1.2721 H   0  0  0  0  0  0  0  0  0  0  0  0
    0.4434   -3.0413    0.4348 H   0  0  0  0  0  0  0  0  0  0  0  0
    3.0412   -2.5963   -1.1968 H   0  0  0  0  0  0  0  0  0  0  0  0
    2.9155   -3.3695    0.5131 H   0  0  0  0  0  0  0  0  0  0  0  0
    2.4256   -4.2006   -0.9330 H   0  0  0  0  0  0  0  0  0  0  0  0
   -2.7722   -1.2716   -2.7789 H   0  0  0  0  0  0  0  0  0  0  0  0
   -2.5477   -2.3178   -1.2589 H   0  0  0  0  0  0  0  0  0  0  0  0
   -1.8962   -2.7930   -2.8220 H   0  0  0  0  0  0  0  0  0  0  0  0
    0.0900   -1.6703   -2.3842 H   0  0  0  0  0  0  0  0  0  0  0  0
   -0.8256   -0.1955   -2.3579 H   0  0  0  0  0  0  0  0  0  0  0  0
   -0.9490   -1.9874    0.0560 H   0  0  0  0  0  0  0  0  0  0  0  0
   -2.5653   -0.6443   -0.1916 H   0  0  0  0  0  0  0  0  0  0  0  0
   -1.4896   -0.4332    2.0646 H   0  0  0  0  0  0  0  0  0  0  0  0
   -1.2892    1.3438    1.6427 H   0  0  0  0  0  0  0  0  0  0  0  0
   -3.8450   -0.2520    1.4202 H   0  0  0  0  0  0  0  0  0  0  0  0
   -3.4770    1.0152    2.6249 H   0  0  0  0  0  0  0  0  0  0  0  0
   -4.5756    1.3178   -0.0410 H   0  0  0  0  0  0  0  0  0  0  0  0
   -4.1449    3.6232    0.7845 H   0  0  0  0  0  0  0  0  0  0  0  0
   -3.0014    2.9388   -0.9582 H   0  0  0  0  0  0  0  0  0  0  0  0
   -1.9353    2.8162    0.4340 H   0  0  0  0  0  0  0  0  0  0  0  0
   -0.9140    1.5632   -1.3609 H   0  0  0  0  0  0  0  0  0  0  0  0
   -2.4396    0.8286   -1.8301 H   0  0  0  0  0  0  0  0  0  0  0  0
    1.4059   -0.5931   -1.0860 H   0  0  0  0  0  0  0  0  0  0  0  0
    1.6010   -1.6361    1.7012 H   0  0  0  0  0  0  0  0  0  0  0  0
    0.6549    0.4457    2.5624 H   0  0  0  0  0  0  0  0  0  0  0  0
    2.3576    0.5427    2.4865 H   0  0  0  0  0  0  0  0  0  0  0  0
    0.9658    1.7265    0.0697 H   0  0  0  0  0  0  0  0  0  0  0  0
    1.2341    2.5646    1.6880 H   0  0  0  0  0  0  0  0  0  0  0  0
    3.5795    2.0898    1.5757 H   0  0  0  0  0  0  0  0  0  0  0  0
    3.6443    2.8153   -1.0053 H   0  0  0  0  0  0  0  0  0  0  0  0
    2.8526    0.7588   -1.0494 H   0  0  0  0  0  0  0  0  0  0  0  0
    4.4688    0.7311   -0.2899 H   0  0  0  0  0  0  0  0  0  0  0  0
    3.5568   -0.2519    1.7456 H   0  0  0  0  0  0  0  0  0  0  0  0
    3.7693   -1.3524    0.4444 H   0  0  0  0  0  0  0  0  0  0  0  0
    0.5110   -2.9688   -1.2721 H   0  0  0  0  0  0  0  0  0  0  0  0
    0.4434   -3.0413    0.4348 H   0  0  0  0  0  0  0  0  0  0  0  0
    3.0412   -2.5963   -1.1968 H   0  0  0  0  0  0  0  0  0  0  0  0
    2.9155   -3.3695    0.5131 H   0  0  0  0  0  0  0  0  0  0  0  0
    2.4256   -4.2006   -0.9330 H   0  0  0  0  0  0  0  0  0  0  0  0
  1  2  1  0
  2  3  1  0
  3  4  1  0
  4  5  1  0
  5  6  1  0
  6  7  1  0
  7  8  1  0
  7  9  1  0
  4 10  1  0
  9 10  1  0
  3 11  1  0
 11 12  1  0
 12 13  1  0
 13 14  1  0
 14 15  1  0
 15 16  1  0
 15 17  1  0
 12 18  1  0
 17 18  1  0
 11 19  1  0
 19 20  1  0
 21 22  1  0
 22 23  1  0
 23 24  1  0
 24 25  1  0
 25 26  1  0
 26 27  1  0
 27 28  1  0
 27 29  1  0
 24 30  1  0
 29 30  1  0
 23 31  1  0
 31 32  1  0
 32 33  1  0
 33 34  1  0
 34 35  1  0
 35 36  1  0
 35 37  1  0
 32 38  1  0
 37 38  1  0
 31 39  1  0
 39 40  1  0
  1 41  1  0
  1 42  1  0
  1 43  1  0
  2 44  1  0
  2 45  1  0
  3 46  1  0
  4 47  1  0
  5 48  1  0
  5 49  1  0
  6 50  1  0
  6 51  1  0
  7 52  1  0
  8 53  1  0
  9 54  1  0
  9 55  1  0
 10 56  1  0
 10 57  1  0
 11 58  1  0
 12 59  1  0
 13 60  1  0
 13 61  1  0
 14 62  1  0
 14 63  1  0
 15 64  1  0
 16 65  1  0
 17 66  1  0
 17 67  1  0
 18 68  1  0
 18 69  1  0
 19 70  1  0
 19 71  1  0
 20 72  1  0
 20 73  1  0
 20 74  1  0
 21 75  1  0
 21 76  1  0
 21 77  1  0
 22 78  1  0
 22 79  1  0
 23 80  1  0
 24 81  1  0
 25 82  1  0
 25 83  1  0
 26 84  1  0
 26 85  1  0
 27 86  1  0
 28 87  1  0
 29 88  1  0
 29 89  1  0
 30 90  1  0
 30 91  1  0
 31 92  1  0
 32 93  1  0
 33 94  1  0
 33 95  1  0
 34 96  1  0
 34 97  1  0
 35 98  1  0
 36 99  1  0
 37100  1  0
 37101  1  0
 38102  1  0
 38103  1  0
 39104  1  0
 39105  1  0
 40106  1  0
 40107  1  0
 40108  1  0
M  END
>  <PDBID>  (1) 
4ZN7

>  <PDB ID>  (1) 
4ZN7

>  <Generic Name>  (1) 
Diethylstilbestrol

>  <Brand Name>  (1) 
Honvol Ampoules 250mg#Honvol Tablets 100mg#Stilbestrol 0.5mg Tablet#Stilbestrol 1.0mg Tablet#Stilbestrol Tab 1mg#Stilbestrol Tablets 0.1 mg#Stilbestrol Tablets 0.5 mg#Stilbestrol Tablets 1.0 mg#Stilboestrol Tab 0.1mg#Stilboestrol Tab 0.5mg#Distilbene#Stilbestrol#Stilbetin

>  <DrugBank ID>  (1) 
DB00255

>  <ATC Codes>  (1) 
L02AA01#G03CC05#L02AA04#G03CB02

>  <Ligand ID>  (1) 
DES

>  <Target Name>  (1) 
Estrogen receptor

>  <UniProt ID>  (1) 
P03372

>  <PDB ID.1>  (1) 
4ZN7

>  <Seq. Identity>  (1) 
93%

$$$$
