PDB_DB01117_04
     RDKit          3D

 63 66  0  0  0  0  0  0  0  0999 V2000
   -2.3894   -1.2768    2.1685 O   0  0  0  0  0  0  0  0  0  0  0  0
   -4.2213   -1.8993   -2.0237 O   0  0  0  0  0  0  0  0  0  0  0  0
   -2.1356   -0.4326    1.0626 C   0  0  0  0  0  0  0  0  0  0  0  0
   -1.5827   -1.2191   -0.0669 C   0  0  0  0  0  0  0  0  0  0  0  0
   -2.1415   -0.9022   -1.4085 C   0  0  0  0  0  0  0  0  0  0  0  0
   -3.6228   -0.7689   -1.4653 C   0  0  0  0  0  0  0  0  0  0  0  0
   -5.5589    0.2627   -0.4133 C   0  0  0  0  0  0  0  0  0  0  0  0
   -5.6946    1.5088    0.3955 C   0  0  0  0  0  0  0  0  0  0  0  0
   -4.5166    2.4218    0.3395 C   0  0  0  0  0  0  0  0  0  0  0  0
   -3.1961    1.6877    0.2297 C   0  0  0  0  0  0  0  0  0  0  0  0
   -3.4013    0.3013    0.7641 C   0  0  0  0  0  0  0  0  0  0  0  0
   -4.2844   -0.4861   -0.1602 C   0  0  0  0  0  0  0  0  0  0  0  0
   -1.7899   -1.9721   -2.2669 O   0  0  0  0  0  0  0  0  0  0  0  0
    0.6047   -1.5699    1.0817 C   0  0  0  0  0  0  0  0  0  0  0  0
    2.0887   -1.6067    0.8353 C   0  0  0  0  0  0  0  0  0  0  0  0
    2.5736   -0.3263    0.2141 C   0  0  0  0  0  0  0  0  0  0  0  0
    1.4898    0.7109    0.3828 C   0  0  0  0  0  0  0  0  0  0  0  0
    0.3544    0.3026   -0.5640 C   0  0  0  0  0  0  0  0  0  0  0  0
   -0.0620   -1.0819   -0.1836 C   0  0  0  0  0  0  0  0  0  0  0  0
    6.3647    1.6296   -1.9579 Cl  0  0  0  0  0  0  0  0  0  0  0  0
    3.8860    0.1262    0.8109 C   0  0  0  0  0  0  0  0  0  0  0  0
    4.9452   -0.9030    0.6042 C   0  0  0  0  0  0  0  0  0  0  0  0
    5.9161   -0.5451   -0.4968 C   0  0  0  0  0  0  0  0  0  0  0  0
    6.4788    0.8376   -0.3611 C   0  0  0  0  0  0  0  0  0  0  0  0
    5.7349    1.6960    0.6206 C   0  0  0  0  0  0  0  0  0  0  0  0
    4.2412    1.4943    0.3343 C   0  0  0  0  0  0  0  0  0  0  0  0
   -1.8634   -2.0948    2.1356 H   0  0  0  0  0  0  0  0  0  0  0  0
   -5.0836   -1.6587   -2.4031 H   0  0  0  0  0  0  0  0  0  0  0  0
   -1.4061    0.3300    1.4655 H   0  0  0  0  0  0  0  0  0  0  0  0
   -1.7542   -2.3086    0.1380 H   0  0  0  0  0  0  0  0  0  0  0  0
   -1.6040   -0.0183   -1.8341 H   0  0  0  0  0  0  0  0  0  0  0  0
   -3.8577    0.0948   -2.1494 H   0  0  0  0  0  0  0  0  0  0  0  0
   -5.6733    0.5349   -1.4954 H   0  0  0  0  0  0  0  0  0  0  0  0
   -6.4155   -0.3971   -0.1774 H   0  0  0  0  0  0  0  0  0  0  0  0
   -6.5708    2.0798   -0.0301 H   0  0  0  0  0  0  0  0  0  0  0  0
   -5.9980    1.3138    1.4620 H   0  0  0  0  0  0  0  0  0  0  0  0
   -4.4823    2.9900    1.3089 H   0  0  0  0  0  0  0  0  0  0  0  0
   -4.5696    3.1911   -0.4524 H   0  0  0  0  0  0  0  0  0  0  0  0
   -2.8780    1.7389   -0.8100 H   0  0  0  0  0  0  0  0  0  0  0  0
   -2.4059    2.1952    0.8358 H   0  0  0  0  0  0  0  0  0  0  0  0
   -3.9797    0.4170    1.7279 H   0  0  0  0  0  0  0  0  0  0  0  0
   -4.4878   -1.4803    0.3290 H   0  0  0  0  0  0  0  0  0  0  0  0
   -2.0182   -2.7952   -1.7368 H   0  0  0  0  0  0  0  0  0  0  0  0
    0.2816   -2.6410    1.2064 H   0  0  0  0  0  0  0  0  0  0  0  0
    0.3053   -1.0332    1.9803 H   0  0  0  0  0  0  0  0  0  0  0  0
    2.3403   -2.4673    0.1746 H   0  0  0  0  0  0  0  0  0  0  0  0
    2.5947   -1.7991    1.7977 H   0  0  0  0  0  0  0  0  0  0  0  0
    2.6969   -0.4844   -0.8835 H   0  0  0  0  0  0  0  0  0  0  0  0
    1.8370    1.7297    0.1230 H   0  0  0  0  0  0  0  0  0  0  0  0
    1.1613    0.7321    1.4223 H   0  0  0  0  0  0  0  0  0  0  0  0
   -0.4682    1.0491   -0.5193 H   0  0  0  0  0  0  0  0  0  0  0  0
    0.7781    0.3681   -1.5876 H   0  0  0  0  0  0  0  0  0  0  0  0
    0.2413   -1.7719   -0.9981 H   0  0  0  0  0  0  0  0  0  0  0  0
    3.7076    0.1948    1.9217 H   0  0  0  0  0  0  0  0  0  0  0  0
    5.5415   -1.0962    1.5216 H   0  0  0  0  0  0  0  0  0  0  0  0
    4.4728   -1.8657    0.3184 H   0  0  0  0  0  0  0  0  0  0  0  0
    5.4452   -0.7129   -1.5031 H   0  0  0  0  0  0  0  0  0  0  0  0
    6.7608   -1.2646   -0.4327 H   0  0  0  0  0  0  0  0  0  0  0  0
    7.5468    0.8483   -0.0674 H   0  0  0  0  0  0  0  0  0  0  0  0
    5.9700    2.7622    0.4402 H   0  0  0  0  0  0  0  0  0  0  0  0
    5.9348    1.4184    1.6848 H   0  0  0  0  0  0  0  0  0  0  0  0
    4.1030    1.6543   -0.7372 H   0  0  0  0  0  0  0  0  0  0  0  0
    3.7165    2.2573    0.9487 H   0  0  0  0  0  0  0  0  0  0  0  0
  1  3  1  0
  3  4  1  0
  4  5  1  0
  2  6  1  0
  5  6  1  0
  7  8  1  0
  8  9  1  0
  9 10  1  0
  3 11  1  0
 10 11  1  0
  6 12  1  0
  7 12  1  0
 11 12  1  0
  5 13  1  0
 14 15  1  0
 15 16  1  0
 16 17  1  0
 17 18  1  0
  4 19  1  0
 14 19  1  0
 18 19  1  0
 16 21  1  0
 21 22  1  0
 22 23  1  0
 20 24  1  0
 23 24  1  0
 24 25  1  0
 21 26  1  0
 25 26  1  0
  1 27  1  0
  2 28  1  0
  3 29  1  0
  4 30  1  0
  5 31  1  0
  6 32  1  0
  7 33  1  0
  7 34  1  0
  8 35  1  0
  8 36  1  0
  9 37  1  0
  9 38  1  0
 10 39  1  0
 10 40  1  0
 11 41  1  0
 12 42  1  0
 13 43  1  0
 14 44  1  0
 14 45  1  0
 15 46  1  0
 15 47  1  0
 16 48  1  0
 17 49  1  0
 17 50  1  0
 18 51  1  0
 18 52  1  0
 19 53  1  0
 21 54  1  0
 22 55  1  0
 22 56  1  0
 23 57  1  0
 23 58  1  0
 24 59  1  0
 25 60  1  0
 25 61  1  0
 26 62  1  0
 26 63  1  0
M  END
>  <PDBID>  (1) 
4PD4

>  <PDB ID>  (1) 
4PD4

>  <Generic Name>  (1) 
Atovaquone

>  <Brand Name>  (1) 
Atovaquone#Atovaquone Proguanil#Atovaquone and Proguanil HCl#Atovaquone and Proguanil Hydrochloride#Atovaquone and Proguanil Hydrochloride Pediatric#Malarone#Malarone Pediatric#Mepron#Mepron Tab 250mg#Mylan-atovaquone/proguanil#Teva-atovaquone Proguanil

>  <DrugBank ID>  (1) 
DB01117

>  <ATC Codes>  (1) 
P01AX06

>  <Ligand ID>  (1) 
AOQ

>  <Target Name>  (1) 
Cytochrome b

>  <UniProt ID>  (1) 
Q02768

>  <PDB ID.1>  (1) 
4PD4

>  <Seq. Identity>  (1) 
42%

$$$$
