PDB_DB00563_06
     RDKit          3D

 77 79  0  0  0  0  0  0  0  0999 V2000
   -7.0211    0.2506    0.2111 N   0  0  0  0  0  0  0  0  0  0  0  0
   -7.5004    1.0383   -0.9060 C   0  0  0  0  0  0  0  0  0  0  0  0
   -8.5353    0.2773   -1.5686 N   0  0  0  0  0  0  0  0  0  0  0  0
   -6.4926    1.5222   -1.7755 N   0  0  0  0  0  0  0  0  0  0  0  0
   -5.2532    0.8373   -1.8067 C   0  0  2  0  0  0  0  0  0  0  0  0
   -5.2696   -0.2160   -2.8035 N   0  0  0  0  0  0  0  0  0  0  0  0
   -4.7566    0.3257   -0.4754 C   0  0  0  0  0  0  0  0  0  0  0  0
   -3.3847    0.5928   -0.2422 N   0  0  0  0  0  0  0  0  0  0  0  0
   -2.9662    0.5813    1.1003 C   0  0  0  0  0  0  0  0  0  0  0  0
   -4.0199    0.9772    2.1237 C   0  0  0  0  0  0  0  0  0  0  0  0
   -5.2316    0.2680    1.8441 N   0  0  0  0  0  0  0  0  0  0  0  0
   -5.7181    0.7829    0.5702 C   0  0  0  0  0  0  0  0  0  0  0  0
   -2.2811   -0.6957    1.5745 C   0  0  0  0  0  0  0  0  0  0  0  0
   -1.1054   -0.9001    0.7940 N   0  0  0  0  0  0  0  0  0  0  0  0
   -1.5456   -1.2522   -0.5537 C   0  0  0  0  0  0  0  0  0  0  0  0
    2.0018   -0.0357    1.6665 C   0  0  0  0  0  0  0  0  0  0  0  0
    1.2460   -0.6096    2.8408 C   0  0  0  0  0  0  0  0  0  0  0  0
    0.3090   -1.7036    2.6461 C   0  0  0  0  0  0  0  0  0  0  0  0
   -0.2236   -1.9164    1.2506 C   0  0  0  0  0  0  0  0  0  0  0  0
    1.0353   -1.8752    0.3570 C   0  0  0  0  0  0  0  0  0  0  0  0
    1.4244   -0.3935    0.3580 C   0  0  0  0  0  0  0  0  0  0  0  0
    3.4852   -0.3043    1.8052 C   0  0  2  0  0  0  0  0  0  0  0  0
    3.7836    0.2892    3.1260 O   0  0  0  0  0  0  0  0  0  0  0  0
    4.4054    0.2888    0.9922 N   0  0  0  0  0  0  0  0  0  0  0  0
    4.6724    0.2264   -0.3550 C   0  0  2  0  0  0  0  0  0  0  0  0
    5.0941   -1.1801   -0.7740 C   0  0  0  0  0  0  0  0  0  0  0  0
    6.2640   -1.4945   -0.0726 O   0  0  0  0  0  0  0  0  0  0  0  0
    4.1033   -2.0896   -0.4865 O   0  0  0  0  0  0  0  0  0  0  0  0
    5.9212    1.1645   -0.5817 C   0  0  0  0  0  0  0  0  0  0  0  0
    6.2812    1.1631   -2.0346 C   0  0  0  0  0  0  0  0  0  0  0  0
    7.4796    2.1144   -2.1667 C   0  0  0  0  0  0  0  0  0  0  0  0
    7.9171    2.2067   -3.4657 O   0  0  0  0  0  0  0  0  0  0  0  0
    8.4752    1.6404   -1.3182 O   0  0  0  0  0  0  0  0  0  0  0  0
   -6.8388   -0.7268   -0.1371 H   0  0  0  0  0  0  0  0  0  0  0  0
   -8.0137    1.9375   -0.4509 H   0  0  0  0  0  0  0  0  0  0  0  0
   -8.9645   -0.4009   -0.8672 H   0  0  0  0  0  0  0  0  0  0  0  0
   -9.3076    0.9164   -1.8517 H   0  0  0  0  0  0  0  0  0  0  0  0
   -6.5057    2.5111   -2.0311 H   0  0  0  0  0  0  0  0  0  0  0  0
   -4.4719    1.5713   -2.1644 H   0  0  0  0  0  0  0  0  0  0  0  0
   -4.7018   -1.0357   -2.4805 H   0  0  0  0  0  0  0  0  0  0  0  0
   -6.2527   -0.4998   -3.0254 H   0  0  0  0  0  0  0  0  0  0  0  0
   -4.8701   -0.7987   -0.5244 H   0  0  0  0  0  0  0  0  0  0  0  0
   -3.0269    1.4007   -0.7668 H   0  0  0  0  0  0  0  0  0  0  0  0
   -2.1956    1.4276    1.1954 H   0  0  0  0  0  0  0  0  0  0  0  0
   -4.1442    2.0790    2.1095 H   0  0  0  0  0  0  0  0  0  0  0  0
   -3.6470    0.6579    3.1197 H   0  0  0  0  0  0  0  0  0  0  0  0
   -4.9863   -0.7562    1.7483 H   0  0  0  0  0  0  0  0  0  0  0  0
   -5.7794    1.8734    0.6607 H   0  0  0  0  0  0  0  0  0  0  0  0
   -2.0459   -0.5307    2.6328 H   0  0  0  0  0  0  0  0  0  0  0  0
   -2.9908   -1.5480    1.5474 H   0  0  0  0  0  0  0  0  0  0  0  0
   -1.0252   -2.1621   -0.9440 H   0  0  0  0  0  0  0  0  0  0  0  0
   -2.6200   -1.5923   -0.4640 H   0  0  0  0  0  0  0  0  0  0  0  0
   -1.5139   -0.4162   -1.2460 H   0  0  0  0  0  0  0  0  0  0  0  0
    1.9118    1.0907    1.7552 H   0  0  0  0  0  0  0  0  0  0  0  0
    2.0348   -0.9589    3.5774 H   0  0  0  0  0  0  0  0  0  0  0  0
    0.7624    0.2405    3.4220 H   0  0  0  0  0  0  0  0  0  0  0  0
   -0.5437   -1.6346    3.3489 H   0  0  0  0  0  0  0  0  0  0  0  0
    0.7866   -2.6999    2.9185 H   0  0  0  0  0  0  0  0  0  0  0  0
   -0.6423   -2.9220    1.1786 H   0  0  0  0  0  0  0  0  0  0  0  0
    1.8174   -2.4787    0.9101 H   0  0  0  0  0  0  0  0  0  0  0  0
    0.8598   -2.2338   -0.6341 H   0  0  0  0  0  0  0  0  0  0  0  0
    0.4439    0.1564    0.2388 H   0  0  0  0  0  0  0  0  0  0  0  0
    2.0789   -0.1759   -0.4671 H   0  0  0  0  0  0  0  0  0  0  0  0
    3.6350   -1.3995    1.8860 H   0  0  0  0  0  0  0  0  0  0  0  0
    4.3092   -0.3853    3.5847 H   0  0  0  0  0  0  0  0  0  0  0  0
    5.3295    0.4246    1.5199 H   0  0  0  0  0  0  0  0  0  0  0  0
    3.9741    0.6294   -1.0899 H   0  0  0  0  0  0  0  0  0  0  0  0
    5.2948   -1.1988   -1.8382 H   0  0  0  0  0  0  0  0  0  0  0  0
    6.1544   -2.2794    0.5142 H   0  0  0  0  0  0  0  0  0  0  0  0
    4.0386   -2.8263   -1.1381 H   0  0  0  0  0  0  0  0  0  0  0  0
    6.7366    0.7520    0.0115 H   0  0  0  0  0  0  0  0  0  0  0  0
    5.5798    2.1583   -0.2895 H   0  0  0  0  0  0  0  0  0  0  0  0
    6.6298    0.1446   -2.3313 H   0  0  0  0  0  0  0  0  0  0  0  0
    5.4600    1.4715   -2.6819 H   0  0  0  0  0  0  0  0  0  0  0  0
    7.1739    3.1190   -1.8098 H   0  0  0  0  0  0  0  0  0  0  0  0
    8.6597    2.8375   -3.4952 H   0  0  0  0  0  0  0  0  0  0  0  0
    8.8229    2.3810   -0.7443 H   0  0  0  0  0  0  0  0  0  0  0  0
  1  2  1  0
  2  3  1  0
  2  4  1  0
  4  5  1  0
  5  6  1  0
  5  7  1  0
  7  8  1  0
  8  9  1  0
  9 10  1  0
 10 11  1  0
  1 12  1  0
  7 12  1  0
 11 12  1  0
  9 13  1  0
 13 14  1  0
 14 15  1  0
 16 17  1  0
 17 18  1  0
 14 19  1  0
 18 19  1  0
 19 20  1  0
 16 21  1  0
 20 21  1  0
 16 22  1  0
 22 23  1  0
 22 24  1  0
 24 25  1  0
 25 26  1  0
 26 27  1  0
 26 28  1  0
 25 29  1  0
 29 30  1  0
 30 31  1  0
 31 32  1  0
 31 33  1  0
  1 34  1  0
  2 35  1  0
  3 36  1  0
  3 37  1  0
  4 38  1  0
  5 39  1  6
  6 40  1  0
  6 41  1  0
  7 42  1  0
  8 43  1  0
  9 44  1  0
 10 45  1  0
 10 46  1  0
 11 47  1  0
 12 48  1  0
 13 49  1  0
 13 50  1  0
 15 51  1  0
 15 52  1  0
 15 53  1  0
 16 54  1  0
 17 55  1  0
 17 56  1  0
 18 57  1  0
 18 58  1  0
 19 59  1  0
 20 60  1  0
 20 61  1  0
 21 62  1  0
 21 63  1  0
 22 64  1  1
 23 65  1  0
 24 66  1  0
 25 67  1  6
 26 68  1  0
 27 69  1  0
 28 70  1  0
 29 71  1  0
 29 72  1  0
 30 73  1  0
 30 74  1  0
 31 75  1  0
 32 76  1  0
 33 77  1  0
M  END
>  <PDBID>  (1) 
1U72

>  <PDB ID>  (1) 
1U72

>  <Generic Name>  (1) 
Methotrexate

>  <Brand Name>  (1) 
Apo-methotrexate#Jamp-methotrexate#Methotrexate#Methotrexate Dbl Inj 10mg/ml#Methotrexate Dbl Inj 2.5mg/ml#Methotrexate Dbl Inj 25mg/ml#Methotrexate Injection BP#Methotrexate Injection USP#Methotrexate Injection, BP#Methotrexate Injection, USP#Methotrexate PF/sa Injection#Methotrexate Sod Inj 25mg/ml USP#Methotrexate Sodium#Methotrexate Sodium Inj 20mg#Methotrexate Sodium Inj 25.0mg/ml#Methotrexate Sodium Inj 25mg/ml#Methotrexate Sodium Inj 25mg/ml USP#Methotrexate Sodium Injection#Methotrexate Sodium Injection USP#Methotrexate Tab 2.5mg#Methotrexate Tab 2.5mg USP#Methotrexate Tablets, USP#Methotrexate-liq Im IV Iar Int Ivr 25mg/ml#Methotrexate-pws Im IV Iar Int Ivr 20mg/vial#Metoject#Metoject Subcutaneous#Otrexup#Rasuvo#Ratio-methotrexate Sodium#Rheumatrex Dose Pack#Rheumatrex Tab 2.5mg#Rheumatrex-tab 2.5mg#Trexall#Abitrexate#Alltrex#Artrait#Atrexel#Bendatrexat#Carditrex#Dermotrex#Ebetrex#Emtexate#Ledertrexate#Maxtrex#Meisusheng#Mexate#Rheumatrex#Trexan#Zexate

>  <DrugBank ID>  (1) 
DB00563

>  <ATC Codes>  (1) 
L01BA01#L04AX03

>  <Ligand ID>  (1) 
MTX

>  <Target Name>  (1) 
Dihydrofolate reductase

>  <UniProt ID>  (1) 
P00374

>  <PDB ID.1>  (1) 
1U72

>  <Seq. Identity>  (1) 
100%

$$$$
