PDB_DB00360_07
     RDKit          3D

 38 39  0  0  0  0  0  0  0  0999 V2000
    2.9508    0.8500    0.1965 N   0  0  0  0  0  0  0  0  0  0  0  0
    3.4319   -0.3477    0.8696 C   0  0  2  0  0  0  0  0  0  0  0  0
    4.8751   -0.4662    0.7856 N   0  0  0  0  0  0  0  0  0  0  0  0
    2.7354   -1.5329    0.4867 N   0  0  0  0  0  0  0  0  0  0  0  0
    1.9391   -1.4122   -0.6944 C   0  0  1  0  0  0  0  0  0  0  0  0
    1.2533   -2.6118   -0.8838 O   0  0  0  0  0  0  0  0  0  0  0  0
    1.0480   -0.2297   -0.7437 C   0  0  2  0  0  0  0  0  0  0  0  0
    1.5334    0.8350    0.2493 C   0  0  2  0  0  0  0  0  0  0  0  0
   -0.3109   -0.4840   -0.3163 N   0  0  0  0  0  0  0  0  0  0  0  0
    0.9121    2.0539   -0.2019 N   0  0  0  0  0  0  0  0  0  0  0  0
   -1.0974    0.6722   -0.6359 C   0  0  2  0  0  0  0  0  0  0  0  0
   -0.4873    1.9817   -0.3239 C   0  0  0  0  0  0  0  0  0  0  0  0
   -2.4541    0.6069    0.0450 C   0  0  1  0  0  0  0  0  0  0  0  0
   -3.1562    1.7573   -0.3111 O   0  0  0  0  0  0  0  0  0  0  0  0
   -3.2131   -0.6423   -0.3381 C   0  0  2  0  0  0  0  0  0  0  0  0
   -4.4786   -0.6525    0.5226 C   0  0  0  0  0  0  0  0  0  0  0  0
   -2.4730   -1.7621    0.0365 O   0  0  0  0  0  0  0  0  0  0  0  0
    3.3249    1.6808    0.7199 H   0  0  0  0  0  0  0  0  0  0  0  0
    3.2104   -0.1763    1.9644 H   0  0  0  0  0  0  0  0  0  0  0  0
    5.3304    0.0792    1.5471 H   0  0  0  0  0  0  0  0  0  0  0  0
    5.2369   -0.2283   -0.1638 H   0  0  0  0  0  0  0  0  0  0  0  0
    2.2945   -2.0606    1.2460 H   0  0  0  0  0  0  0  0  0  0  0  0
    2.6536   -1.3405   -1.5669 H   0  0  0  0  0  0  0  0  0  0  0  0
    0.9843   -2.6669   -1.8357 H   0  0  0  0  0  0  0  0  0  0  0  0
    1.0074    0.2063   -1.7730 H   0  0  0  0  0  0  0  0  0  0  0  0
    1.2057    0.5394    1.2596 H   0  0  0  0  0  0  0  0  0  0  0  0
   -0.2632   -0.6594    0.7197 H   0  0  0  0  0  0  0  0  0  0  0  0
    1.4033    2.4448   -1.0104 H   0  0  0  0  0  0  0  0  0  0  0  0
   -1.3218    0.5957   -1.7416 H   0  0  0  0  0  0  0  0  0  0  0  0
   -0.9352    2.4220    0.6169 H   0  0  0  0  0  0  0  0  0  0  0  0
   -0.8076    2.7102   -1.1270 H   0  0  0  0  0  0  0  0  0  0  0  0
   -2.3069    0.6615    1.1425 H   0  0  0  0  0  0  0  0  0  0  0  0
   -3.5107    1.5886   -1.2351 H   0  0  0  0  0  0  0  0  0  0  0  0
   -3.5387   -0.6456   -1.3762 H   0  0  0  0  0  0  0  0  0  0  0  0
   -4.7044   -1.6936    0.8151 H   0  0  0  0  0  0  0  0  0  0  0  0
   -4.3564   -0.0292    1.4316 H   0  0  0  0  0  0  0  0  0  0  0  0
   -5.3306   -0.1940   -0.0411 H   0  0  0  0  0  0  0  0  0  0  0  0
   -2.5844   -1.8497    1.0304 H   0  0  0  0  0  0  0  0  0  0  0  0
  1  2  1  0
  2  3  1  0
  2  4  1  0
  4  5  1  0
  5  6  1  0
  5  7  1  0
  1  8  1  0
  7  8  1  0
  7  9  1  0
  8 10  1  0
  9 11  1  0
 10 12  1  0
 11 12  1  0
 11 13  1  0
 13 14  1  0
 13 15  1  0
 15 16  1  0
 15 17  1  0
  1 18  1  0
  2 19  1  1
  3 20  1  0
  3 21  1  0
  4 22  1  0
  5 23  1  6
  6 24  1  0
  7 25  1  6
  8 26  1  1
  9 27  1  0
 10 28  1  0
 11 29  1  6
 12 30  1  0
 12 31  1  0
 13 32  1  1
 14 33  1  0
 15 34  1  6
 16 35  1  0
 16 36  1  0
 16 37  1  0
 17 38  1  0
M  END
>  <PDBID>  (1) 
1J8U

>  <PDB ID>  (1) 
1J8U

>  <Generic Name>  (1) 
Sapropterin

>  <Brand Name>  (1) 
Kuvan#BH4#Biopten

>  <DrugBank ID>  (1) 
DB00360

>  <ATC Codes>  (1) 
A16AX07

>  <Ligand ID>  (1) 
BH4,BHS,H4B,THB

>  <Target Name>  (1) 
Tryptophan 5-hydroxylase 1

>  <UniProt ID>  (1) 
P17752

>  <PDB ID.1>  (1) 
1J8U

>  <Seq. Identity>  (1) 
65%

$$$$
