PDB_DB00323_05
     RDKit          3D

 47 48  0  0  0  0  0  0  0  0999 V2000
   -0.8745    2.0352    0.3809 O   0  0  0  0  0  0  0  0  0  0  0  0
   -0.2552    1.0696   -0.4166 C   0  0  1  0  0  0  0  0  0  0  0  0
    1.1506    0.7705   -0.0350 C   0  0  1  0  0  0  0  0  0  0  0  0
    1.4355    0.2665    1.3091 C   0  0  0  0  0  0  0  0  0  0  0  0
    2.3556   -0.9129    1.4179 C   0  0  0  0  0  0  0  0  0  0  0  0
    1.6696   -2.1318    1.4872 O   0  0  0  0  0  0  0  0  0  0  0  0
    1.7819   -0.0892   -1.1495 C   0  0  0  0  0  0  0  0  0  0  0  0
    3.2464   -0.1546   -0.8097 C   0  0  0  0  0  0  0  0  0  0  0  0
    3.8284    1.1567   -0.6343 N   0  0  0  0  0  0  0  0  0  0  0  0
    3.7149    1.8945   -1.7597 O   0  0  0  0  0  0  0  0  0  0  0  0
    5.1193    1.1081   -0.2894 O   0  0  0  0  0  0  0  0  0  0  0  0
    3.3988   -1.0368    0.3735 C   0  0  0  0  0  0  0  0  0  0  0  0
    4.6959   -0.7972    0.8944 O   0  0  0  0  0  0  0  0  0  0  0  0
   -1.1904   -0.0516   -0.6460 C   0  0  0  0  0  0  0  0  0  0  0  0
   -1.6750   -0.7559    0.5559 C   0  0  0  0  0  0  0  0  0  0  0  0
   -3.0310   -1.3802    0.4631 C   0  0  0  0  0  0  0  0  0  0  0  0
   -4.0660   -0.5883   -0.2243 C   0  0  0  0  0  0  0  0  0  0  0  0
   -5.1887   -0.2542    0.7650 C   0  0  0  0  0  0  0  0  0  0  0  0
   -3.5634    0.7454   -0.7324 C   0  0  0  0  0  0  0  0  0  0  0  0
   -2.3330    0.4350   -1.5513 C   0  0  0  0  0  0  0  0  0  0  0  0
    1.9103    1.1024    1.9168 H   0  0  0  0  0  0  0  0  0  0  0  0
    1.9902   -2.7793    0.8117 H   0  0  0  0  0  0  0  0  0  0  0  0
    1.6786    0.4962   -2.0826 H   0  0  0  0  0  0  0  0  0  0  0  0
    4.8268   -1.4957    1.5866 H   0  0  0  0  0  0  0  0  0  0  0  0
   -0.9335   -1.5124    0.8795 H   0  0  0  0  0  0  0  0  0  0  0  0
   -2.8974   -2.3452   -0.0940 H   0  0  0  0  0  0  0  0  0  0  0  0
   -4.8331    0.6451    1.3248 H   0  0  0  0  0  0  0  0  0  0  0  0
   -5.2539   -1.0646    1.5317 H   0  0  0  0  0  0  0  0  0  0  0  0
   -6.1395   -0.0723    0.2481 H   0  0  0  0  0  0  0  0  0  0  0  0
   -3.3685    1.4415    0.0934 H   0  0  0  0  0  0  0  0  0  0  0  0
   -1.9667    1.3105   -2.1025 H   0  0  0  0  0  0  0  0  0  0  0  0
   -0.3390    2.2986    1.1549 H   0  0  0  0  0  0  0  0  0  0  0  0
   -0.1745    1.6132   -1.4268 H   0  0  0  0  0  0  0  0  0  0  0  0
    1.7016    1.7544   -0.1836 H   0  0  0  0  0  0  0  0  0  0  0  0
    0.5568    0.0156    1.9448 H   0  0  0  0  0  0  0  0  0  0  0  0
    2.8923   -0.8592    2.4142 H   0  0  0  0  0  0  0  0  0  0  0  0
    1.3577   -1.0859   -1.1799 H   0  0  0  0  0  0  0  0  0  0  0  0
    3.7619   -0.6112   -1.6793 H   0  0  0  0  0  0  0  0  0  0  0  0
    3.4784    2.8375   -1.5764 H   0  0  0  0  0  0  0  0  0  0  0  0
    5.3116    1.8871    0.2909 H   0  0  0  0  0  0  0  0  0  0  0  0
    3.4747   -2.0944   -0.0229 H   0  0  0  0  0  0  0  0  0  0  0  0
   -0.6552   -0.7723   -1.3394 H   0  0  0  0  0  0  0  0  0  0  0  0
   -1.7533   -0.0217    1.4026 H   0  0  0  0  0  0  0  0  0  0  0  0
   -3.3944   -1.6834    1.4659 H   0  0  0  0  0  0  0  0  0  0  0  0
   -4.5003   -1.1373   -1.0758 H   0  0  0  0  0  0  0  0  0  0  0  0
   -4.3215    1.1417   -1.4264 H   0  0  0  0  0  0  0  0  0  0  0  0
   -2.6296   -0.3375   -2.2754 H   0  0  0  0  0  0  0  0  0  0  0  0
  1  2  1  0
  2  3  1  0
  3  4  1  0
  4  5  1  0
  5  6  1  0
  3  7  1  0
  7  8  1  0
  8  9  1  0
  9 10  1  0
  9 11  1  0
  5 12  1  0
  8 12  1  0
 12 13  1  0
  2 14  1  0
 14 15  1  0
 15 16  1  0
 16 17  1  0
 17 18  1  0
 17 19  1  0
 14 20  1  0
 19 20  1  0
  4 21  1  0
  6 22  1  0
  7 23  1  0
 24 13  1  0
 15 25  1  0
 16 26  1  0
 18 27  1  0
 18 28  1  0
 18 29  1  0
 19 30  1  0
 20 31  1  0
  1 32  1  0
  2 33  1  6
  3 34  1  1
  4 35  1  0
  5 36  1  0
  7 37  1  0
  8 38  1  0
 10 39  1  0
 11 40  1  0
 12 41  1  0
 14 42  1  0
 15 43  1  0
 16 44  1  0
 17 45  1  0
 19 46  1  0
 20 47  1  0
M  END
>  <PDBID>  (1) 
3S68

>  <PDB ID>  (1) 
3S68

>  <Generic Name>  (1) 
Tolcapone

>  <Brand Name>  (1) 
Tasmar#Tolcapone#Sen De Ning

>  <DrugBank ID>  (1) 
DB00323

>  <ATC Codes>  (1) 
N04BX01

>  <Ligand ID>  (1) 
TCW

>  <Target Name>  (1) 
Catechol O-methyltransferase

>  <UniProt ID>  (1) 
P21964

>  <PDB ID.1>  (1) 
3S68

>  <Seq. Identity>  (1) 
81%

$$$$
