PDB_DB00834_09
     RDKit          3D

 83 87  0  0  0  0  0  0  0  0999 V2000
   -0.0958    5.3670    1.6432 O   0  0  0  0  0  0  0  0  0  0  0  0
   -0.5058    5.3025    0.3304 C   0  0  0  0  0  0  0  0  0  0  0  0
    0.4981    4.6254   -0.5730 C   0  0  0  0  0  0  0  0  0  0  0  0
   -1.8670    4.6853    0.2555 C   0  0  0  0  0  0  0  0  0  0  0  0
   -1.9071    3.2187    0.4551 C   0  0  0  0  0  0  0  0  0  0  0  0
   -2.2483    2.7949    1.8615 C   0  0  0  0  0  0  0  0  0  0  0  0
   -0.5269    2.5629    0.1874 C   0  0  2  0  0  0  0  0  0  0  0  0
   -0.0343    3.2616   -1.0381 C   0  0  0  0  0  0  0  0  0  0  0  0
   -0.7932    1.1152    0.0147 C   0  0  0  0  0  0  0  0  0  0  0  0
    0.1865    0.2905   -0.6973 C   0  0  1  0  0  0  0  0  0  0  0  0
    1.5471    0.0581   -0.2444 C   0  0  0  0  0  0  0  0  0  0  0  0
    2.3029   -0.8226   -1.2546 C   0  0  0  0  0  0  0  0  0  0  0  0
    3.7275   -0.3784   -1.4656 C   0  0  0  0  0  0  0  0  0  0  0  0
    4.5153   -0.2042   -0.2106 C   0  0  0  0  0  0  0  0  0  0  0  0
    4.9203   -1.4702    0.3596 N   0  0  0  0  0  0  0  0  0  0  0  0
    5.6661   -1.1845    1.5754 C   0  0  0  0  0  0  0  0  0  0  0  0
    5.8519   -2.0819   -0.5864 C   0  0  0  0  0  0  0  0  0  0  0  0
    3.6813    0.5415    0.7711 C   0  0  0  0  0  0  0  0  0  0  0  0
    2.4607    1.1817    0.0670 C   0  0  0  0  0  0  0  0  0  0  0  0
   -0.4775   -1.0383   -1.1052 C   0  0  0  0  0  0  0  0  0  0  0  0
   -1.2271   -1.6925   -0.0038 C   0  0  2  0  0  0  0  0  0  0  0  0
   -0.2713   -2.3514    1.0090 C   0  0  0  0  0  0  0  0  0  0  0  0
   -2.1789   -2.7874   -0.3896 C   0  0  1  0  0  0  0  0  0  0  0  0
   -2.8190   -2.6537   -1.7024 C   0  0  0  0  0  0  0  0  0  0  0  0
   -3.7020   -3.7803   -2.0881 C   0  0  0  0  0  0  0  0  0  0  0  0
   -4.9036   -4.0304   -1.2645 C   0  0  0  0  0  0  0  0  0  0  0  0
   -1.5005   -4.0242   -0.2551 O   0  0  0  0  0  0  0  0  0  0  0  0
   -3.1877   -2.7737    0.7314 C   0  0  0  0  0  0  0  0  0  0  0  0
   -2.7279   -1.6596    1.7173 C   0  0  0  0  0  0  0  0  0  0  0  0
   -2.1492   -0.7317    0.6955 C   0  0  1  0  0  0  0  0  0  0  0  0
   -1.4406    0.4790    1.2231 C   0  0  2  0  0  0  0  0  0  0  0  0
   -2.4920    1.3330    1.8362 C   0  0  0  0  0  0  0  0  0  0  0  0
   -0.5500    6.1613    2.0494 H   0  0  0  0  0  0  0  0  0  0  0  0
   -0.6047    6.3567   -0.0386 H   0  0  0  0  0  0  0  0  0  0  0  0
    1.3893    4.3979    0.0484 H   0  0  0  0  0  0  0  0  0  0  0  0
    0.8263    5.2441   -1.4113 H   0  0  0  0  0  0  0  0  0  0  0  0
   -2.2867    4.9135   -0.7517 H   0  0  0  0  0  0  0  0  0  0  0  0
   -2.5136    5.2252    0.9820 H   0  0  0  0  0  0  0  0  0  0  0  0
   -2.6081    2.7020   -0.2225 H   0  0  0  0  0  0  0  0  0  0  0  0
   -3.1526    3.3086    2.1802 H   0  0  0  0  0  0  0  0  0  0  0  0
   -1.4354    3.0709    2.5849 H   0  0  0  0  0  0  0  0  0  0  0  0
    0.0244    2.8600    1.1017 H   0  0  0  0  0  0  0  0  0  0  0  0
    0.7523    2.7790   -1.6023 H   0  0  0  0  0  0  0  0  0  0  0  0
   -0.8847    3.5309   -1.7330 H   0  0  0  0  0  0  0  0  0  0  0  0
   -1.6831    1.1304   -0.7196 H   0  0  0  0  0  0  0  0  0  0  0  0
    0.3047    0.8063   -1.7151 H   0  0  0  0  0  0  0  0  0  0  0  0
    1.5480   -0.5714    0.6850 H   0  0  0  0  0  0  0  0  0  0  0  0
    2.2663   -1.8811   -1.0244 H   0  0  0  0  0  0  0  0  0  0  0  0
    1.7995   -0.6629   -2.2419 H   0  0  0  0  0  0  0  0  0  0  0  0
    4.2098   -1.2483   -2.0087 H   0  0  0  0  0  0  0  0  0  0  0  0
    3.8265    0.4587   -2.1941 H   0  0  0  0  0  0  0  0  0  0  0  0
    5.4320    0.3682   -0.4171 H   0  0  0  0  0  0  0  0  0  0  0  0
    5.1283   -1.4869    2.4872 H   0  0  0  0  0  0  0  0  0  0  0  0
    5.9085   -0.0910    1.6503 H   0  0  0  0  0  0  0  0  0  0  0  0
    6.6474   -1.7370    1.5932 H   0  0  0  0  0  0  0  0  0  0  0  0
    5.2855   -2.8522   -1.1390 H   0  0  0  0  0  0  0  0  0  0  0  0
    6.2902   -1.3218   -1.2629 H   0  0  0  0  0  0  0  0  0  0  0  0
    6.7221   -2.5300   -0.0311 H   0  0  0  0  0  0  0  0  0  0  0  0
    3.2250   -0.1442    1.5385 H   0  0  0  0  0  0  0  0  0  0  0  0
    4.2466    1.2993    1.3368 H   0  0  0  0  0  0  0  0  0  0  0  0
    2.1391    1.9069    0.8112 H   0  0  0  0  0  0  0  0  0  0  0  0
    2.9231    1.6678   -0.8388 H   0  0  0  0  0  0  0  0  0  0  0  0
    0.3105   -1.7233   -1.4490 H   0  0  0  0  0  0  0  0  0  0  0  0
   -1.1352   -0.8542   -1.9928 H   0  0  0  0  0  0  0  0  0  0  0  0
    0.5874   -2.7314    0.4577 H   0  0  0  0  0  0  0  0  0  0  0  0
   -0.7628   -3.2873    1.4216 H   0  0  0  0  0  0  0  0  0  0  0  0
   -0.0846   -1.7384    1.8869 H   0  0  0  0  0  0  0  0  0  0  0  0
   -3.4904   -1.7310   -1.7413 H   0  0  0  0  0  0  0  0  0  0  0  0
   -2.0918   -2.4165   -2.5355 H   0  0  0  0  0  0  0  0  0  0  0  0
   -3.1173   -4.7467   -2.1962 H   0  0  0  0  0  0  0  0  0  0  0  0
   -4.0972   -3.5537   -3.1406 H   0  0  0  0  0  0  0  0  0  0  0  0
   -4.7581   -4.5352   -0.2974 H   0  0  0  0  0  0  0  0  0  0  0  0
   -5.5970   -4.7850   -1.8182 H   0  0  0  0  0  0  0  0  0  0  0  0
   -5.5950   -3.1825   -1.1272 H   0  0  0  0  0  0  0  0  0  0  0  0
   -0.7693   -4.0354   -0.9026 H   0  0  0  0  0  0  0  0  0  0  0  0
   -3.2856   -3.7185    1.2737 H   0  0  0  0  0  0  0  0  0  0  0  0
   -4.1925   -2.4189    0.4422 H   0  0  0  0  0  0  0  0  0  0  0  0
   -3.5979   -1.2431    2.2595 H   0  0  0  0  0  0  0  0  0  0  0  0
   -2.0064   -2.0234    2.4379 H   0  0  0  0  0  0  0  0  0  0  0  0
   -2.9204   -0.4158   -0.0203 H   0  0  0  0  0  0  0  0  0  0  0  0
   -0.7338    0.1767    1.9970 H   0  0  0  0  0  0  0  0  0  0  0  0
   -2.6567    0.9756    2.8822 H   0  0  0  0  0  0  0  0  0  0  0  0
   -3.4839    1.1748    1.3238 H   0  0  0  0  0  0  0  0  0  0  0  0
  1  2  1  0
  2  3  1  0
  2  4  1  0
  4  5  1  0
  5  6  1  0
  5  7  1  0
  3  8  1  0
  7  8  1  0
  7  9  1  0
  9 10  1  0
 10 11  1  0
 11 12  1  0
 12 13  1  0
 13 14  1  0
 14 15  1  0
 15 16  1  0
 15 17  1  0
 14 18  1  0
 11 19  1  0
 18 19  1  0
 10 20  1  0
 20 21  1  0
 21 22  1  1
 21 23  1  0
 23 24  1  0
 24 25  1  0
 25 26  1  0
 23 27  1  6
 23 28  1  0
 28 29  1  0
 21 30  1  0
 29 30  1  0
  9 31  1  0
 30 31  1  0
  6 32  1  0
 31 32  1  0
  1 33  1  0
  2 34  1  0
  3 35  1  0
  3 36  1  0
  4 37  1  0
  4 38  1  0
  5 39  1  0
  6 40  1  0
  6 41  1  0
  7 42  1  1
  8 43  1  0
  8 44  1  0
  9 45  1  0
 10 46  1  6
 11 47  1  0
 12 48  1  0
 12 49  1  0
 13 50  1  0
 13 51  1  0
 14 52  1  0
 16 53  1  0
 16 54  1  0
 16 55  1  0
 17 56  1  0
 17 57  1  0
 17 58  1  0
 18 59  1  0
 18 60  1  0
 19 61  1  0
 19 62  1  0
 20 63  1  0
 20 64  1  0
 22 65  1  0
 22 66  1  0
 22 67  1  0
 24 68  1  0
 24 69  1  0
 25 70  1  0
 25 71  1  0
 26 72  1  0
 26 73  1  0
 26 74  1  0
 27 75  1  0
 28 76  1  0
 28 77  1  0
 29 78  1  0
 29 79  1  0
 30 80  1  6
 31 81  1  1
 32 82  1  0
 32 83  1  0
M  END
>  <PDBID>  (1) 
2W8Y

>  <PDB ID>  (1) 
2W8Y

>  <Generic Name>  (1) 
Mifepristone

>  <Brand Name>  (1) 
Korlym#Mifegymiso#Corlux#Mefipil#Mifegyne#Mifeprex

>  <DrugBank ID>  (1) 
DB00834

>  <ATC Codes>  (1) 
G03XB01#G03XB51

>  <Ligand ID>  (1) 
486

>  <Target Name>  (1) 
Progesterone receptor

>  <UniProt ID>  (1) 
P06401

>  <PDB ID.1>  (1) 
2W8Y

>  <Seq. Identity>  (1) 
96%

$$$$
