PDB_DB06290_04
     RDKit          3D

492516  0  0  0  0  0  0  0  0999 V2000
   -0.6422    0.5765    0.2598 C   0  0  0  0  0  0  0  0  0  0  0  0
   -1.4346   -0.3374   -0.6273 C   0  0  2  0  0  0  0  0  0  0  0  0
   -1.4089   -1.6573    0.0036 C   0  0  1  0  0  0  0  0  0  0  0  0
   -0.5197   -1.5863    1.1915 C   0  0  0  0  0  0  0  0  0  0  0  0
    0.2067   -0.3223    1.1432 C   0  0  1  0  0  0  0  0  0  0  0  0
   -2.7558   -2.1963    0.4299 C   0  0  1  0  0  0  0  0  0  0  0  0
   -2.4845   -3.0764    1.5079 O   0  0  0  0  0  0  0  0  0  0  0  0
   -3.6667   -1.2446    0.8886 N   0  0  0  0  0  0  0  0  0  0  0  0
   -0.7769   -0.3074   -2.0054 C   0  0  0  0  0  0  0  0  0  0  0  0
    0.3956    0.4055   -2.0252 O   0  0  0  0  0  0  0  0  0  0  0  0
   -5.2949   -1.2472   -0.8521 C   0  0  1  0  0  0  0  0  0  0  0  0
   -5.9566   -0.7065    1.6158 C   0  0  0  0  0  0  0  0  0  0  0  0
   -1.7433    0.0945   -3.0049 N   0  0  0  0  0  0  0  0  0  0  0  0
   -2.1420   -0.9883   -3.8412 C   0  0  0  0  0  0  0  0  0  0  0  0
   -1.3812    1.2535   -3.7549 C   0  0  0  0  0  0  0  0  0  0  0  0
   -5.0330   -1.3265    0.5915 C   0  0  2  0  0  0  0  0  0  0  0  0
   -5.6257   -2.5279   -0.0700 C   0  0  0  0  0  0  0  0  0  0  0  0
   -6.4096   -0.3735   -1.2803 C   0  0  0  0  0  0  0  0  0  0  0  0
   -3.2523   -0.6768   -4.7801 C   0  0  0  0  0  0  0  0  0  0  0  0
   -4.6253   -1.0093   -4.2349 C   0  0  0  0  0  0  0  0  0  0  0  0
   -5.0817    0.1435   -3.3671 C   0  0  0  0  0  0  0  0  0  0  0  0
   -6.4166   -0.0498   -2.7483 C   0  0  0  0  0  0  0  0  0  0  0  0
    1.4730   -0.2931    0.6807 O   0  0  0  0  0  0  0  0  0  0  0  0
    5.2221   -2.2794    3.5514 C   0  0  0  0  0  0  0  0  0  0  0  0
    3.8430   -2.7757    3.2684 C   0  0  0  0  0  0  0  0  0  0  0  0
    2.9285   -1.5996    3.0476 C   0  0  0  0  0  0  0  0  0  0  0  0
    3.4166   -0.8190    1.8164 C   0  0  0  0  0  0  0  0  0  0  0  0
    4.7834   -0.3376    2.1437 C   0  0  0  0  0  0  0  0  0  0  0  0
    5.7171   -1.4796    2.3618 C   0  0  0  0  0  0  0  0  0  0  0  0
    2.4414    0.2692    1.4637 C   0  0  0  0  0  0  0  0  0  0  0  0
    3.0383    1.4451    0.7606 C   0  0  0  0  0  0  0  0  0  0  0  0
    4.5038    1.6427    0.9919 C   0  0  1  0  0  0  0  0  0  0  0  0
    5.2517    0.4015    0.9693 N   0  0  0  0  0  0  0  0  0  0  0  0
    5.1417    2.5594   -0.0253 C   0  0  1  0  0  0  0  0  0  0  0  0
    6.9215    2.6730    0.4337 S   0  0  0  0  0  0  0  0  0  0  0  0
    7.5966    2.2757   -1.2335 C   0  0  0  0  0  0  0  0  0  0  0  0
    6.3054    2.4727   -2.0397 C   0  0  2  0  0  0  0  0  0  0  0  0
    5.2506    1.8362   -1.2762 N   0  0  0  0  0  0  0  0  0  0  0  0
    6.4472    1.7593   -3.3444 C   0  0  0  0  0  0  0  0  0  0  0  0
    6.6794    0.2838   -3.0823 C   0  0  0  0  0  0  0  0  0  0  0  0
    7.5832    2.2829   -4.1799 C   0  0  0  0  0  0  0  0  0  0  0  0
    6.1190   -3.2564    3.9089 O   0  0  0  0  0  0  0  0  0  0  0  0
    6.6168   -2.9951    5.1790 C   0  0  0  0  0  0  0  0  0  0  0  0
    5.9963   -2.3176    1.1595 C   0  0  0  0  0  0  0  0  0  0  0  0
   -5.5309    0.6615    1.8059 N   0  0  0  0  0  0  0  0  0  0  0  0
   -7.2813   -0.8279    1.2917 O   0  0  0  0  0  0  0  0  0  0  0  0
   -6.5561    1.4446    3.0008 S   0  0  0  0  0  0  0  0  0  0  0  0
   -7.3301    2.6900    2.0466 C   0  0  0  0  0  0  0  0  0  0  0  0
   -7.6328    0.3423    3.4665 O   0  0  0  0  0  0  0  0  0  0  0  0
   -5.7258    2.0232    4.1363 O   0  0  0  0  0  0  0  0  0  0  0  0
   -7.8857    3.8140    2.8662 C   0  0  0  0  0  0  0  0  0  0  0  0
   -6.7064    4.0649    1.9623 C   0  0  0  0  0  0  0  0  0  0  0  0
   -0.4564    0.7460   -0.0222 C   0  0  0  0  0  0  0  0  0  0  0  0
   -1.5157   -0.1602   -0.5485 C   0  0  2  0  0  0  0  0  0  0  0  0
   -1.4656   -1.4113    0.2878 C   0  0  1  0  0  0  0  0  0  0  0  0
   -0.6442   -1.0375    1.4624 C   0  0  0  0  0  0  0  0  0  0  0  0
    0.4038   -0.1451    0.9093 C   0  0  1  0  0  0  0  0  0  0  0  0
   -2.8768   -1.8620    0.6786 C   0  0  0  0  0  0  0  0  0  0  0  0
   -2.7182   -2.6241    1.8482 O   0  0  0  0  0  0  0  0  0  0  0  0
   -3.7241   -0.7536    0.9769 N   0  0  0  0  0  0  0  0  0  0  0  0
   -1.3437   -0.4629   -2.0227 C   0  0  0  0  0  0  0  0  0  0  0  0
   -0.1283    0.0633   -2.4510 O   0  0  0  0  0  0  0  0  0  0  0  0
   -5.4913   -1.3984   -0.5026 C   0  0  1  0  0  0  0  0  0  0  0  0
   -5.9909   -0.2223    1.7795 C   0  0  2  0  0  0  0  0  0  0  0  0
   -2.4668   -0.0682   -2.8131 N   0  0  0  0  0  0  0  0  0  0  0  0
   -2.8927   -1.1345   -3.6995 C   0  0  0  0  0  0  0  0  0  0  0  0
   -2.2499    1.1720   -3.5278 C   0  0  0  0  0  0  0  0  0  0  0  0
   -5.1259   -0.9954    0.8404 C   0  0  2  0  0  0  0  0  0  0  0  0
   -5.6189   -2.4069    0.5767 C   0  0  0  0  0  0  0  0  0  0  0  0
   -6.6722   -0.7660   -1.1355 C   0  0  0  0  0  0  0  0  0  0  0  0
   -4.1458   -0.8130   -4.4465 C   0  0  0  0  0  0  0  0  0  0  0  0
   -5.2520   -1.7742   -4.0974 C   0  0  0  0  0  0  0  0  0  0  0  0
   -6.4929   -1.0629   -3.6171 C   0  0  0  0  0  0  0  0  0  0  0  0
   -6.2722   -0.1626   -2.4542 C   0  0  0  0  0  0  0  0  0  0  0  0
    1.4000   -0.6227    0.1764 O   0  0  0  0  0  0  0  0  0  0  0  0
    5.3543   -2.9392    2.3167 C   0  0  0  0  0  0  0  0  0  0  0  0
    3.9181   -3.4240    2.1011 C   0  0  0  0  0  0  0  0  0  0  0  0
    3.0929   -2.1948    1.9083 C   0  0  0  0  0  0  0  0  0  0  0  0
    3.5117   -1.5283    0.6110 C   0  0  0  0  0  0  0  0  0  0  0  0
    4.9603   -1.1866    0.6525 C   0  0  0  0  0  0  0  0  0  0  0  0
    5.8247   -2.3942    1.0121 C   0  0  0  0  0  0  0  0  0  0  0  0
    2.6856   -0.2838    0.3616 C   0  0  0  0  0  0  0  0  0  0  0  0
    3.1729    0.4027   -0.9089 C   0  0  0  0  0  0  0  0  0  0  0  0
    4.6637    0.5552   -0.9237 C   0  0  0  0  0  0  0  0  0  0  0  0
    5.3751   -0.6414   -0.6126 N   0  0  0  0  0  0  0  0  0  0  0  0
    5.0736    1.6583    0.0012 C   0  0  0  0  0  0  0  0  0  0  0  0
    4.3197    3.2574   -0.5324 S   0  0  0  0  0  0  0  0  0  0  0  0
    5.8817    4.0378   -1.1158 C   0  0  0  0  0  0  0  0  0  0  0  0
    6.7220    2.7654   -1.2499 C   0  0  0  0  0  0  0  0  0  0  0  0
    6.4647    1.9862   -0.0726 N   0  0  0  0  0  0  0  0  0  0  0  0
    8.1801    3.0618   -1.3444 C   0  0  0  0  0  0  0  0  0  0  0  0
    8.9325    1.7705   -1.4740 C   0  0  0  0  0  0  0  0  0  0  0  0
    8.7224    3.7909   -0.1343 C   0  0  0  0  0  0  0  0  0  0  0  0
    6.1569   -3.9690    2.7887 O   0  0  0  0  0  0  0  0  0  0  0  0
    6.6429   -3.6003    4.0566 C   0  0  0  0  0  0  0  0  0  0  0  0
    5.8729   -3.4022   -0.0874 C   0  0  0  0  0  0  0  0  0  0  0  0
   -5.7800    1.2205    1.7244 N   0  0  0  0  0  0  0  0  0  0  0  0
   -5.6061   -0.5922    3.0903 O   0  0  0  0  0  0  0  0  0  0  0  0
   -6.7209    2.0477    2.7418 S   0  0  0  0  0  0  0  0  0  0  0  0
   -7.1427    3.6052    2.0901 C   0  0  0  0  0  0  0  0  0  0  0  0
   -8.4344    1.2664    2.3332 O   0  0  0  0  0  0  0  0  0  0  0  0
   -6.5933    1.9051    4.1534 O   0  0  0  0  0  0  0  0  0  0  0  0
   -7.8200    4.5174    3.1194 C   0  0  0  0  0  0  0  0  0  0  0  0
   -6.4610    4.8318    2.5705 C   0  0  0  0  0  0  0  0  0  0  0  0
   -0.4554    1.1025    0.0868 C   0  0  0  0  0  0  0  0  0  0  0  0
   -1.5111    0.1088   -0.4175 C   0  0  2  0  0  0  0  0  0  0  0  0
   -1.3982   -1.1169    0.4594 C   0  0  1  0  0  0  0  0  0  0  0  0
   -0.6005   -0.6098    1.6327 C   0  0  0  0  0  0  0  0  0  0  0  0
    0.4527    0.2220    0.9720 C   0  0  1  0  0  0  0  0  0  0  0  0
   -2.7510   -1.6327    0.8892 C   0  0  0  0  0  0  0  0  0  0  0  0
   -2.6533   -1.8488    2.2836 O   0  0  0  0  0  0  0  0  0  0  0  0
   -3.7433   -0.6385    0.6157 N   0  0  0  0  0  0  0  0  0  0  0  0
   -1.2653   -0.2245   -1.8748 C   0  0  0  0  0  0  0  0  0  0  0  0
   -0.1321    0.4745   -2.3521 O   0  0  0  0  0  0  0  0  0  0  0  0
   -5.3755   -2.1768   -0.2382 C   0  0  1  0  0  0  0  0  0  0  0  0
   -6.0676   -0.0042    1.0661 C   0  0  2  0  0  0  0  0  0  0  0  0
   -2.4186   -0.0128   -2.6970 N   0  0  0  0  0  0  0  0  0  0  0  0
   -2.7877   -1.1961   -3.4207 C   0  0  0  0  0  0  0  0  0  0  0  0
   -2.2244    1.1458   -3.5120 C   0  0  0  0  0  0  0  0  0  0  0  0
   -5.1130   -1.1052    0.7090 C   0  0  2  0  0  0  0  0  0  0  0  0
   -5.4363   -2.4595    1.2154 C   0  0  0  0  0  0  0  0  0  0  0  0
   -6.5930   -2.0920   -1.0936 C   0  0  0  0  0  0  0  0  0  0  0  0
   -4.0466   -0.9681   -4.2204 C   0  0  0  0  0  0  0  0  0  0  0  0
   -5.0770   -2.0415   -3.9447 C   0  0  0  0  0  0  0  0  0  0  0  0
   -6.3991   -1.4609   -3.5171 C   0  0  0  0  0  0  0  0  0  0  0  0
   -6.3955   -0.9736   -2.0908 C   0  0  0  0  0  0  0  0  0  0  0  0
    1.2456   -0.4627    0.0587 O   0  0  0  0  0  0  0  0  0  0  0  0
    4.9024   -2.9513    2.3479 C   0  0  0  0  0  0  0  0  0  0  0  0
    3.5242   -3.4495    1.8924 C   0  0  0  0  0  0  0  0  0  0  0  0
    2.7136   -2.1918    1.6549 C   0  0  0  0  0  0  0  0  0  0  0  0
    3.3122   -1.4746    0.4954 C   0  0  0  0  0  0  0  0  0  0  0  0
    4.7756   -1.1248    0.6580 C   0  0  0  0  0  0  0  0  0  0  0  0
    5.5818   -2.3015    1.1917 C   0  0  0  0  0  0  0  0  0  0  0  0
    2.5798   -0.1852    0.1648 C   0  0  0  0  0  0  0  0  0  0  0  0
    3.1525    0.4473   -1.0903 C   0  0  0  0  0  0  0  0  0  0  0  0
    4.6559    0.4736   -1.0646 C   0  0  0  0  0  0  0  0  0  0  0  0
    5.2539   -0.7424   -0.6457 N   0  0  0  0  0  0  0  0  0  0  0  0
    5.1761    1.6283   -0.2344 C   0  0  0  0  0  0  0  0  0  0  0  0
    4.5159    3.1412   -1.0486 S   0  0  0  0  0  0  0  0  0  0  0  0
    6.1351    3.9975   -1.2222 C   0  0  0  0  0  0  0  0  0  0  0  0
    6.9735    3.1206   -0.3346 C   0  0  1  0  0  0  0  0  0  0  0  0
    6.5767    1.7643   -0.5141 N   0  0  0  0  0  0  0  0  0  0  0  0
    8.4080    3.2313   -0.8280 C   0  0  0  0  0  0  0  0  0  0  0  0
    8.4049    2.7460   -2.2791 C   0  0  0  0  0  0  0  0  0  0  0  0
    8.9020    4.6558   -0.7903 C   0  0  0  0  0  0  0  0  0  0  0  0
    5.6702   -3.9623    2.8711 O   0  0  0  0  0  0  0  0  0  0  0  0
    5.9721   -3.7352    4.2060 C   0  0  0  0  0  0  0  0  0  0  0  0
    5.8491   -3.2701    0.0645 C   0  0  0  0  0  0  0  0  0  0  0  0
   -5.7751    0.5539    2.3920 N   0  0  0  0  0  0  0  0  0  0  0  0
   -7.3490   -0.5413    1.1395 O   0  0  0  0  0  0  0  0  0  0  0  0
   -6.6670    1.7270    2.9341 S   0  0  0  0  0  0  0  0  0  0  0  0
   -6.4310    3.2289    2.1317 C   0  0  0  0  0  0  0  0  0  0  0  0
   -8.3557    1.3676    2.0979 O   0  0  0  0  0  0  0  0  0  0  0  0
   -6.9958    1.7740    4.3964 O   0  0  0  0  0  0  0  0  0  0  0  0
   -6.9879    4.4476    2.8732 C   0  0  0  0  0  0  0  0  0  0  0  0
   -5.5042    4.2626    2.6493 C   0  0  0  0  0  0  0  0  0  0  0  0
   -0.4389    1.1440    0.4846 C   0  0  0  0  0  0  0  0  0  0  0  0
   -1.3697    0.2252   -0.2807 C   0  0  2  0  0  0  0  0  0  0  0  0
   -1.8110   -0.7845    0.7422 C   0  0  1  0  0  0  0  0  0  0  0  0
   -0.7486   -0.8292    1.7571 C   0  0  0  0  0  0  0  0  0  0  0  0
    0.2469    0.2032    1.4851 C   0  0  1  0  0  0  0  0  0  0  0  0
   -3.1656   -0.4174    1.3332 C   0  0  0  0  0  0  0  0  0  0  0  0
   -2.9197    0.3325    2.5068 O   0  0  0  0  0  0  0  0  0  0  0  0
   -3.9045    0.4376    0.4483 N   0  0  0  0  0  0  0  0  0  0  0  0
   -0.7453   -0.4076   -1.4841 C   0  0  0  0  0  0  0  0  0  0  0  0
    0.5797    0.0090   -1.6100 O   0  0  0  0  0  0  0  0  0  0  0  0
   -5.1587   -0.5880   -1.2912 C   0  0  1  0  0  0  0  0  0  0  0  0
   -6.4039    0.3902    0.7943 C   0  0  0  0  0  0  0  0  0  0  0  0
   -1.5176   -0.2287   -2.6737 N   0  0  0  0  0  0  0  0  0  0  0  0
   -1.8597   -1.4838   -3.2743 C   0  0  0  0  0  0  0  0  0  0  0  0
   -0.8733    0.6937   -3.5527 C   0  0  0  0  0  0  0  0  0  0  0  0
   -5.1646   -0.2213    0.1246 C   0  0  2  0  0  0  0  0  0  0  0  0
   -5.1436   -1.6573   -0.2037 C   0  0  0  0  0  0  0  0  0  0  0  0
   -6.4569   -0.4722   -2.0233 C   0  0  0  0  0  0  0  0  0  0  0  0
   -2.8452   -1.3731   -4.3918 C   0  0  0  0  0  0  0  0  0  0  0  0
   -4.1865   -1.9917   -4.0694 C   0  0  0  0  0  0  0  0  0  0  0  0
   -5.2902   -0.9814   -4.1990 C   0  0  0  0  0  0  0  0  0  0  0  0
   -6.4733   -1.2397   -3.3223 C   0  0  0  0  0  0  0  0  0  0  0  0
    1.4284   -0.1735    0.8773 O   0  0  0  0  0  0  0  0  0  0  0  0
    4.8962   -2.8106    2.8446 C   0  0  0  0  0  0  0  0  0  0  0  0
    3.5968   -3.1880    2.1833 C   0  0  0  0  0  0  0  0  0  0  0  0
    3.0439   -2.0444    1.3503 C   0  0  0  0  0  0  0  0  0  0  0  0
    3.4289   -0.7050    2.0084 C   0  0  0  0  0  0  0  0  0  0  0  0
    4.9013   -0.5636    1.8654 C   0  0  0  0  0  0  0  0  0  0  0  0
    5.6432   -1.8728    1.9237 C   0  0  0  0  0  0  0  0  0  0  0  0
    2.5604    0.3559    1.4799 C   0  0  0  0  0  0  0  0  0  0  0  0
    3.2213    1.4092    0.6184 C   0  0  0  0  0  0  0  0  0  0  0  0
    4.6883    1.5519    0.9447 C   0  0  1  0  0  0  0  0  0  0  0  0
    5.2493    0.2190    0.7114 N   0  0  0  0  0  0  0  0  0  0  0  0
    5.4012    2.5430    0.0980 C   0  0  1  0  0  0  0  0  0  0  0  0
    7.1525    2.5559    0.6725 S   0  0  0  0  0  0  0  0  0  0  0  0
    7.9207    2.4122   -0.9949 C   0  0  0  0  0  0  0  0  0  0  0  0
    6.7019    2.7547   -1.8253 C   0  0  0  0  0  0  0  0  0  0  0  0
    5.5787    2.0703   -1.2518 N   0  0  0  0  0  0  0  0  0  0  0  0
    6.9360    2.2350   -3.2113 C   0  0  0  0  0  0  0  0  0  0  0  0
    7.1460    0.7540   -3.2624 C   0  0  0  0  0  0  0  0  0  0  0  0
    8.1594    2.9107   -3.7928 C   0  0  0  0  0  0  0  0  0  0  0  0
    5.6679   -3.9569    3.0695 O   0  0  0  0  0  0  0  0  0  0  0  0
    5.9694   -4.0677    4.4281 C   0  0  0  0  0  0  0  0  0  0  0  0
    5.9637   -2.4830    0.6047 C   0  0  0  0  0  0  0  0  0  0  0  0
   -6.1936    0.2758    2.2037 N   0  0  0  0  0  0  0  0  0  0  0  0
   -6.4559    1.7051    0.3504 O   0  0  0  0  0  0  0  0  0  0  0  0
   -7.3575    0.8792    3.1948 S   0  0  0  0  0  0  0  0  0  0  0  0
   -7.8343    2.4264    2.7840 C   0  0  0  0  0  0  0  0  0  0  0  0
   -8.5070   -0.1463    3.5125 O   0  0  0  0  0  0  0  0  0  0  0  0
   -6.5133    1.0931    4.6901 O   0  0  0  0  0  0  0  0  0  0  0  0
   -8.2585    3.3641    3.9283 C   0  0  0  0  0  0  0  0  0  0  0  0
   -6.9649    3.5850    3.2675 C   0  0  0  0  0  0  0  0  0  0  0  0
    0.0175    1.2576   -0.3528 H   0  0  0  0  0  0  0  0  0  0  0  0
   -1.2826    1.2514    0.8668 H   0  0  0  0  0  0  0  0  0  0  0  0
   -2.4467    0.1291   -0.7044 H   0  0  0  0  0  0  0  0  0  0  0  0
   -1.0468   -2.3892   -0.7666 H   0  0  0  0  0  0  0  0  0  0  0  0
    0.0952   -2.4986    1.3449 H   0  0  0  0  0  0  0  0  0  0  0  0
   -1.1894   -1.5834    2.1038 H   0  0  0  0  0  0  0  0  0  0  0  0
    0.2088    0.1647    2.1632 H   0  0  0  0  0  0  0  0  0  0  0  0
   -3.1915   -2.8259   -0.3655 H   0  0  0  0  0  0  0  0  0  0  0  0
   -2.8929   -2.7687    2.3483 H   0  0  0  0  0  0  0  0  0  0  0  0
   -3.2951   -0.2972    1.0951 H   0  0  0  0  0  0  0  0  0  0  0  0
   -0.4984   -1.3752   -2.2473 H   0  0  0  0  0  0  0  0  0  0  0  0
    1.1586   -0.0793   -2.4256 H   0  0  0  0  0  0  0  0  0  0  0  0
   -4.3879   -1.2738   -1.5061 H   0  0  0  0  0  0  0  0  0  0  0  0
   -5.7801   -1.2349    2.5751 H   0  0  0  0  0  0  0  0  0  0  0  0
   -2.4550   -1.8564   -3.2277 H   0  0  0  0  0  0  0  0  0  0  0  0
   -1.2688   -1.3619   -4.4489 H   0  0  0  0  0  0  0  0  0  0  0  0
   -0.4419    1.7243   -3.4326 H   0  0  0  0  0  0  0  0  0  0  0  0
   -2.2365    1.9894   -3.7537 H   0  0  0  0  0  0  0  0  0  0  0  0
   -1.2622    0.9723   -4.8207 H   0  0  0  0  0  0  0  0  0  0  0  0
   -5.0461   -3.4009   -0.3861 H   0  0  0  0  0  0  0  0  0  0  0  0
   -6.7175   -2.7427    0.0670 H   0  0  0  0  0  0  0  0  0  0  0  0
   -6.4005    0.6189   -0.7538 H   0  0  0  0  0  0  0  0  0  0  0  0
   -7.3854   -0.8482   -1.0354 H   0  0  0  0  0  0  0  0  0  0  0  0
   -3.1144   -1.2741   -5.7066 H   0  0  0  0  0  0  0  0  0  0  0  0
   -3.2937    0.3836   -5.0957 H   0  0  0  0  0  0  0  0  0  0  0  0
   -4.6985   -1.9897   -3.7693 H   0  0  0  0  0  0  0  0  0  0  0  0
   -5.3034   -1.0187   -5.1321 H   0  0  0  0  0  0  0  0  0  0  0  0
   -5.1567    1.0186   -4.0728 H   0  0  0  0  0  0  0  0  0  0  0  0
   -4.2738    0.4568   -2.6452 H   0  0  0  0  0  0  0  0  0  0  0  0
   -6.9157   -0.9007   -3.2998 H   0  0  0  0  0  0  0  0  0  0  0  0
   -7.0304    0.8457   -2.8934 H   0  0  0  0  0  0  0  0  0  0  0  0
    5.1291   -1.5344    4.3840 H   0  0  0  0  0  0  0  0  0  0  0  0
    3.7836   -3.4897    2.4271 H   0  0  0  0  0  0  0  0  0  0  0  0
    3.4899   -3.3172    4.1803 H   0  0  0  0  0  0  0  0  0  0  0  0
    2.8983   -0.9572    3.9381 H   0  0  0  0  0  0  0  0  0  0  0  0
    1.9259   -1.9963    2.8155 H   0  0  0  0  0  0  0  0  0  0  0  0
    3.4982   -1.5853    1.0166 H   0  0  0  0  0  0  0  0  0  0  0  0
    4.8221    0.3018    3.0500 H   0  0  0  0  0  0  0  0  0  0  0  0
    6.6990   -1.0149    2.6846 H   0  0  0  0  0  0  0  0  0  0  0  0
    2.0681    0.6553    2.4487 H   0  0  0  0  0  0  0  0  0  0  0  0
    2.5372    2.4014    1.0167 H   0  0  0  0  0  0  0  0  0  0  0  0
    2.9004    1.3291   -0.3432 H   0  0  0  0  0  0  0  0  0  0  0  0
    4.6790    2.1016    1.9938 H   0  0  0  0  0  0  0  0  0  0  0  0
    4.9518   -0.1048    0.1067 H   0  0  0  0  0  0  0  0  0  0  0  0
    4.6921    3.5402   -0.1114 H   0  0  0  0  0  0  0  0  0  0  0  0
    8.3496    2.9973   -1.5458 H   0  0  0  0  0  0  0  0  0  0  0  0
    7.9233    1.2251   -1.2703 H   0  0  0  0  0  0  0  0  0  0  0  0
    6.1447    3.5585   -2.1687 H   0  0  0  0  0  0  0  0  0  0  0  0
    4.3818    1.9664   -1.8099 H   0  0  0  0  0  0  0  0  0  0  0  0
    5.5226    1.8871   -3.9659 H   0  0  0  0  0  0  0  0  0  0  0  0
    7.7652    0.0401   -3.0626 H   0  0  0  0  0  0  0  0  0  0  0  0
    6.1666   -0.2758   -3.9103 H   0  0  0  0  0  0  0  0  0  0  0  0
    6.2263   -0.0701   -2.1393 H   0  0  0  0  0  0  0  0  0  0  0  0
    7.5736    3.4036   -4.1873 H   0  0  0  0  0  0  0  0  0  0  0  0
    8.5679    1.9167   -3.8905 H   0  0  0  0  0  0  0  0  0  0  0  0
    7.4096    1.9127   -5.2319 H   0  0  0  0  0  0  0  0  0  0  0  0
    7.1343   -1.9929    5.1798 H   0  0  0  0  0  0  0  0  0  0  0  0
    5.8145   -2.9222    5.9445 H   0  0  0  0  0  0  0  0  0  0  0  0
    7.3121   -3.7801    5.5255 H   0  0  0  0  0  0  0  0  0  0  0  0
    5.3115   -2.1500    0.3035 H   0  0  0  0  0  0  0  0  0  0  0  0
    5.8319   -3.3891    1.4741 H   0  0  0  0  0  0  0  0  0  0  0  0
    7.0520   -2.2545    0.8735 H   0  0  0  0  0  0  0  0  0  0  0  0
   -4.6149    0.5936    2.3383 H   0  0  0  0  0  0  0  0  0  0  0  0
   -7.6959    0.0558    1.1638 H   0  0  0  0  0  0  0  0  0  0  0  0
   -7.9473    2.4212    1.1687 H   0  0  0  0  0  0  0  0  0  0  0  0
   -8.5663    0.7138    3.4330 H   0  0  0  0  0  0  0  0  0  0  0  0
   -5.6796    2.9989    4.2822 H   0  0  0  0  0  0  0  0  0  0  0  0
   -7.6833    3.8399    3.9610 H   0  0  0  0  0  0  0  0  0  0  0  0
   -8.8729    4.2186    2.5998 H   0  0  0  0  0  0  0  0  0  0  0  0
   -5.7111    4.2147    2.4099 H   0  0  0  0  0  0  0  0  0  0  0  0
   -6.8373    4.6467    1.0232 H   0  0  0  0  0  0  0  0  0  0  0  0
    0.1564    1.1221   -0.8667 H   0  0  0  0  0  0  0  0  0  0  0  0
   -0.8414    1.6146    0.5241 H   0  0  0  0  0  0  0  0  0  0  0  0
   -2.4990    0.3476   -0.3842 H   0  0  0  0  0  0  0  0  0  0  0  0
   -1.0178   -2.2027   -0.3483 H   0  0  0  0  0  0  0  0  0  0  0  0
   -0.3133   -1.8571    2.0965 H   0  0  0  0  0  0  0  0  0  0  0  0
   -1.2979   -0.3940    2.1268 H   0  0  0  0  0  0  0  0  0  0  0  0
    0.7579    0.5456    1.6957 H   0  0  0  0  0  0  0  0  0  0  0  0
   -3.2156   -2.5289   -0.1059 H   0  0  0  0  0  0  0  0  0  0  0  0
   -2.5089   -2.0250    2.6345 H   0  0  0  0  0  0  0  0  0  0  0  0
   -3.4897   -0.3635    1.9177 H   0  0  0  0  0  0  0  0  0  0  0  0
   -1.2467   -1.5719   -2.1121 H   0  0  0  0  0  0  0  0  0  0  0  0
    0.2042   -0.4891   -3.1813 H   0  0  0  0  0  0  0  0  0  0  0  0
   -4.6450   -1.5937   -1.2069 H   0  0  0  0  0  0  0  0  0  0  0  0
   -7.0571   -0.4024    1.6941 H   0  0  0  0  0  0  0  0  0  0  0  0
   -3.1068   -2.0171   -3.0349 H   0  0  0  0  0  0  0  0  0  0  0  0
   -2.0757   -1.3470   -4.3864 H   0  0  0  0  0  0  0  0  0  0  0  0
   -1.3560    1.7000   -3.1386 H   0  0  0  0  0  0  0  0  0  0  0  0
   -3.1492    1.8053   -3.5376 H   0  0  0  0  0  0  0  0  0  0  0  0
   -2.0130    0.9282   -4.6010 H   0  0  0  0  0  0  0  0  0  0  0  0
   -4.9429   -3.2570    0.6926 H   0  0  0  0  0  0  0  0  0  0  0  0
   -6.6675   -2.6491    0.8607 H   0  0  0  0  0  0  0  0  0  0  0  0
   -7.1936   -0.0183   -0.5074 H   0  0  0  0  0  0  0  0  0  0  0  0
   -7.4363   -1.5849   -1.2952 H   0  0  0  0  0  0  0  0  0  0  0  0
   -3.9224   -0.9089   -5.5484 H   0  0  0  0  0  0  0  0  0  0  0  0
   -4.4625    0.2469   -4.3325 H   0  0  0  0  0  0  0  0  0  0  0  0
   -4.8627   -2.5168   -3.4040 H   0  0  0  0  0  0  0  0  0  0  0  0
   -5.5650   -2.3424   -5.0202 H   0  0  0  0  0  0  0  0  0  0  0  0
   -7.2986   -1.7679   -3.3583 H   0  0  0  0  0  0  0  0  0  0  0  0
   -6.8777   -0.4572   -4.4678 H   0  0  0  0  0  0  0  0  0  0  0  0
   -6.9042    0.7594   -2.6026 H   0  0  0  0  0  0  0  0  0  0  0  0
   -5.2205    0.2296   -2.4295 H   0  0  0  0  0  0  0  0  0  0  0  0
    5.3053   -2.1080    3.0516 H   0  0  0  0  0  0  0  0  0  0  0  0
    3.9250   -4.0337    1.1807 H   0  0  0  0  0  0  0  0  0  0  0  0
    3.5732   -4.0693    2.9203 H   0  0  0  0  0  0  0  0  0  0  0  0
    3.3585   -1.4939    2.7535 H   0  0  0  0  0  0  0  0  0  0  0  0
    2.0115   -2.3944    1.9332 H   0  0  0  0  0  0  0  0  0  0  0  0
    3.3648   -2.2877   -0.1858 H   0  0  0  0  0  0  0  0  0  0  0  0
    5.1809   -0.4435    1.4596 H   0  0  0  0  0  0  0  0  0  0  0  0
    6.8690   -2.0086    1.1619 H   0  0  0  0  0  0  0  0  0  0  0  0
    2.9136    0.4224    1.1769 H   0  0  0  0  0  0  0  0  0  0  0  0
    2.6379    1.3529   -1.0742 H   0  0  0  0  0  0  0  0  0  0  0  0
    2.8816   -0.2644   -1.7542 H   0  0  0  0  0  0  0  0  0  0  0  0
    4.9782    0.8418   -1.9719 H   0  0  0  0  0  0  0  0  0  0  0  0
    6.3942   -0.5347   -0.5957 H   0  0  0  0  0  0  0  0  0  0  0  0
    4.7810    1.4507    1.0384 H   0  0  0  0  0  0  0  0  0  0  0  0
    6.2289    4.6818   -0.2978 H   0  0  0  0  0  0  0  0  0  0  0  0
    5.7536    4.5230   -2.0832 H   0  0  0  0  0  0  0  0  0  0  0  0
    6.4122    2.2611   -2.1643 H   0  0  0  0  0  0  0  0  0  0  0  0
    6.7821    2.4989    0.7563 H   0  0  0  0  0  0  0  0  0  0  0  0
    8.3656    3.7194   -2.2294 H   0  0  0  0  0  0  0  0  0  0  0  0
    9.6579    1.5953   -0.6381 H   0  0  0  0  0  0  0  0  0  0  0  0
    9.5814    1.8281   -2.3952 H   0  0  0  0  0  0  0  0  0  0  0  0
    8.2770    0.8945   -1.6463 H   0  0  0  0  0  0  0  0  0  0  0  0
    8.2431    4.7499    0.0516 H   0  0  0  0  0  0  0  0  0  0  0  0
    8.7363    3.1166    0.7603 H   0  0  0  0  0  0  0  0  0  0  0  0
    9.7992    3.9881   -0.3588 H   0  0  0  0  0  0  0  0  0  0  0  0
    5.7884   -3.4282    4.7676 H   0  0  0  0  0  0  0  0  0  0  0  0
    7.2018   -2.6296    4.0118 H   0  0  0  0  0  0  0  0  0  0  0  0
    7.2971   -4.3549    4.5017 H   0  0  0  0  0  0  0  0  0  0  0  0
    6.6434   -3.0545   -0.8324 H   0  0  0  0  0  0  0  0  0  0  0  0
    6.2867   -4.3454    0.3429 H   0  0  0  0  0  0  0  0  0  0  0  0
    4.8914   -3.5898   -0.5663 H   0  0  0  0  0  0  0  0  0  0  0  0
   -5.8628    1.5422    0.7336 H   0  0  0  0  0  0  0  0  0  0  0  0
   -6.4100   -0.6897    3.6811 H   0  0  0  0  0  0  0  0  0  0  0  0
   -7.6858    3.5838    1.1322 H   0  0  0  0  0  0  0  0  0  0  0  0
   -8.9597    1.8562    2.9129 H   0  0  0  0  0  0  0  0  0  0  0  0
   -5.8325    1.5084    4.6487 H   0  0  0  0  0  0  0  0  0  0  0  0
   -7.8189    4.2144    4.1803 H   0  0  0  0  0  0  0  0  0  0  0  0
   -8.7034    5.1011    2.8128 H   0  0  0  0  0  0  0  0  0  0  0  0
   -5.5645    4.6718    3.2019 H   0  0  0  0  0  0  0  0  0  0  0  0
   -6.4446    5.7022    1.8741 H   0  0  0  0  0  0  0  0  0  0  0  0
   -0.9002    1.8559    0.7567 H   0  0  0  0  0  0  0  0  0  0  0  0
    0.0972    1.5718   -0.7244 H   0  0  0  0  0  0  0  0  0  0  0  0
   -2.5156    0.5366   -0.3619 H   0  0  0  0  0  0  0  0  0  0  0  0
   -0.8528   -1.9330   -0.0808 H   0  0  0  0  0  0  0  0  0  0  0  0
   -0.2530   -1.3771    2.3194 H   0  0  0  0  0  0  0  0  0  0  0  0
   -1.2687    0.0932    2.1778 H   0  0  0  0  0  0  0  0  0  0  0  0
    1.0175    0.8806    1.6450 H   0  0  0  0  0  0  0  0  0  0  0  0
   -2.9034   -2.6116    0.4482 H   0  0  0  0  0  0  0  0  0  0  0  0
   -3.2740   -1.2290    2.7321 H   0  0  0  0  0  0  0  0  0  0  0  0
   -3.5819    0.1415    1.3168 H   0  0  0  0  0  0  0  0  0  0  0  0
   -0.9907   -1.3031   -1.9208 H   0  0  0  0  0  0  0  0  0  0  0  0
    0.1929   -0.0528   -3.1226 H   0  0  0  0  0  0  0  0  0  0  0  0
   -4.4819   -2.5544   -0.8210 H   0  0  0  0  0  0  0  0  0  0  0  0
   -6.0189    0.8582    0.3703 H   0  0  0  0  0  0  0  0  0  0  0  0
   -3.0303   -1.9785   -2.6541 H   0  0  0  0  0  0  0  0  0  0  0  0
   -1.9611   -1.6243   -4.0280 H   0  0  0  0  0  0  0  0  0  0  0  0
   -1.1540    1.3829   -3.7125 H   0  0  0  0  0  0  0  0  0  0  0  0
   -2.7158    2.0077   -2.9908 H   0  0  0  0  0  0  0  0  0  0  0  0
   -2.7216    1.0760   -4.5023 H   0  0  0  0  0  0  0  0  0  0  0  0
   -4.6819   -3.0837    1.7288 H   0  0  0  0  0  0  0  0  0  0  0  0
   -6.4574   -2.6062    1.6275 H   0  0  0  0  0  0  0  0  0  0  0  0
   -7.5538   -2.0762   -0.5832 H   0  0  0  0  0  0  0  0  0  0  0  0
   -6.6165   -3.0450   -1.7056 H   0  0  0  0  0  0  0  0  0  0  0  0
   -3.7659   -1.0381   -5.2913 H   0  0  0  0  0  0  0  0  0  0  0  0
   -4.4574    0.0496   -4.0716 H   0  0  0  0  0  0  0  0  0  0  0  0
   -4.6412   -2.7412   -3.2245 H   0  0  0  0  0  0  0  0  0  0  0  0
   -5.2856   -2.6492   -4.8735 H   0  0  0  0  0  0  0  0  0  0  0  0
   -7.2236   -2.1701   -3.6404 H   0  0  0  0  0  0  0  0  0  0  0  0
   -6.6055   -0.5858   -4.1690 H   0  0  0  0  0  0  0  0  0  0  0  0
   -7.2580   -0.2790   -1.9769 H   0  0  0  0  0  0  0  0  0  0  0  0
   -5.4919   -0.3638   -1.8761 H   0  0  0  0  0  0  0  0  0  0  0  0
    4.7014   -2.1823    3.1192 H   0  0  0  0  0  0  0  0  0  0  0  0
    3.6974   -3.9005    0.8837 H   0  0  0  0  0  0  0  0  0  0  0  0
    3.0697   -4.1320    2.6100 H   0  0  0  0  0  0  0  0  0  0  0  0
    2.7847   -1.5477    2.5523 H   0  0  0  0  0  0  0  0  0  0  0  0
    1.6641   -2.4317    1.3746 H   0  0  0  0  0  0  0  0  0  0  0  0
    3.2761   -2.1861   -0.3753 H   0  0  0  0  0  0  0  0  0  0  0  0
    4.9132   -0.3248    1.4362 H   0  0  0  0  0  0  0  0  0  0  0  0
    6.5681   -1.9091    1.5194 H   0  0  0  0  0  0  0  0  0  0  0  0
    2.8231    0.5315    0.9819 H   0  0  0  0  0  0  0  0  0  0  0  0
    2.7909    1.4902   -1.1554 H   0  0  0  0  0  0  0  0  0  0  0  0
    2.7652   -0.1068   -1.9509 H   0  0  0  0  0  0  0  0  0  0  0  0
    4.9718    0.6229   -2.1444 H   0  0  0  0  0  0  0  0  0  0  0  0
    6.2571   -0.8273   -0.7925 H   0  0  0  0  0  0  0  0  0  0  0  0
    4.8960    1.5890    0.8103 H   0  0  0  0  0  0  0  0  0  0  0  0
    6.4643    3.9849   -2.2609 H   0  0  0  0  0  0  0  0  0  0  0  0
    5.9725    5.0147   -0.8084 H   0  0  0  0  0  0  0  0  0  0  0  0
    6.9494    3.4607    0.7273 H   0  0  0  0  0  0  0  0  0  0  0  0
    7.0950    1.1838    0.1733 H   0  0  0  0  0  0  0  0  0  0  0  0
    9.0969    2.6000   -0.2463 H   0  0  0  0  0  0  0  0  0  0  0  0
    9.2912    2.1195   -2.4936 H   0  0  0  0  0  0  0  0  0  0  0  0
    8.3504    3.6359   -2.9545 H   0  0  0  0  0  0  0  0  0  0  0  0
    7.5107    2.1396   -2.5003 H   0  0  0  0  0  0  0  0  0  0  0  0
    8.0832    5.4017   -0.7648 H   0  0  0  0  0  0  0  0  0  0  0  0
    9.6116    4.8350    0.0436 H   0  0  0  0  0  0  0  0  0  0  0  0
    9.4671    4.8492   -1.7308 H   0  0  0  0  0  0  0  0  0  0  0  0
    5.0858   -3.6577    4.8540 H   0  0  0  0  0  0  0  0  0  0  0  0
    6.5347   -2.7666    4.3252 H   0  0  0  0  0  0  0  0  0  0  0  0
    6.6672   -4.5425    4.5280 H   0  0  0  0  0  0  0  0  0  0  0  0
    6.8327   -3.1410   -0.4049 H   0  0  0  0  0  0  0  0  0  0  0  0
    5.8423   -4.2980    0.5286 H   0  0  0  0  0  0  0  0  0  0  0  0
    5.0535   -3.2153   -0.7292 H   0  0  0  0  0  0  0  0  0  0  0  0
   -5.6252   -0.2307    3.0648 H   0  0  0  0  0  0  0  0  0  0  0  0
   -7.5611   -0.9333    2.0140 H   0  0  0  0  0  0  0  0  0  0  0  0
   -6.6455    3.2182    1.0306 H   0  0  0  0  0  0  0  0  0  0  0  0
   -8.8528    2.0882    2.5547 H   0  0  0  0  0  0  0  0  0  0  0  0
   -6.4975    1.2797    5.0964 H   0  0  0  0  0  0  0  0  0  0  0  0
   -7.3109    4.3480    3.9078 H   0  0  0  0  0  0  0  0  0  0  0  0
   -7.5249    5.2063    2.2694 H   0  0  0  0  0  0  0  0  0  0  0  0
   -4.8647    3.9673    3.4955 H   0  0  0  0  0  0  0  0  0  0  0  0
   -5.0737    4.9485    1.9012 H   0  0  0  0  0  0  0  0  0  0  0  0
    0.2726    1.5754   -0.2344 H   0  0  0  0  0  0  0  0  0  0  0  0
   -1.0685    1.8885    1.0108 H   0  0  0  0  0  0  0  0  0  0  0  0
   -2.2908    0.7650   -0.6318 H   0  0  0  0  0  0  0  0  0  0  0  0
   -1.9504   -1.7407    0.1815 H   0  0  0  0  0  0  0  0  0  0  0  0
   -0.3388   -1.8528    1.9416 H   0  0  0  0  0  0  0  0  0  0  0  0
   -1.2326   -0.5754    2.7515 H   0  0  0  0  0  0  0  0  0  0  0  0
    0.4642    0.8770    2.3679 H   0  0  0  0  0  0  0  0  0  0  0  0
   -3.6937   -1.3465    1.6257 H   0  0  0  0  0  0  0  0  0  0  0  0
   -3.5641    0.0781    3.2141 H   0  0  0  0  0  0  0  0  0  0  0  0
   -4.0738    1.3914    0.8439 H   0  0  0  0  0  0  0  0  0  0  0  0
   -0.6871   -1.5140   -1.2746 H   0  0  0  0  0  0  0  0  0  0  0  0
    1.1761   -0.6891   -1.9705 H   0  0  0  0  0  0  0  0  0  0  0  0
   -4.2034   -0.4807   -1.8632 H   0  0  0  0  0  0  0  0  0  0  0  0
   -7.2871   -0.1872    0.5200 H   0  0  0  0  0  0  0  0  0  0  0  0
   -2.3183   -2.1135   -2.4783 H   0  0  0  0  0  0  0  0  0  0  0  0
   -0.9432   -1.9723   -3.6336 H   0  0  0  0  0  0  0  0  0  0  0  0
    0.2135    0.7911   -3.3327 H   0  0  0  0  0  0  0  0  0  0  0  0
   -1.3873    1.6915   -3.4275 H   0  0  0  0  0  0  0  0  0  0  0  0
   -0.9620    0.4416   -4.6183 H   0  0  0  0  0  0  0  0  0  0  0  0
   -4.2556   -2.2913   -0.1242 H   0  0  0  0  0  0  0  0  0  0  0  0
   -6.1109   -2.1917    0.0128 H   0  0  0  0  0  0  0  0  0  0  0  0
   -6.7422    0.5883   -2.2404 H   0  0  0  0  0  0  0  0  0  0  0  0
   -7.2769   -0.8785   -1.3975 H   0  0  0  0  0  0  0  0  0  0  0  0
   -2.4058   -1.8557   -5.2968 H   0  0  0  0  0  0  0  0  0  0  0  0
   -3.0337   -0.3227   -4.7035 H   0  0  0  0  0  0  0  0  0  0  0  0
   -4.1931   -2.5305   -3.0984 H   0  0  0  0  0  0  0  0  0  0  0  0
   -4.3750   -2.8066   -4.8289 H   0  0  0  0  0  0  0  0  0  0  0  0
   -5.6527   -1.0101   -5.2689 H   0  0  0  0  0  0  0  0  0  0  0  0
   -4.9037    0.0721   -4.0908 H   0  0  0  0  0  0  0  0  0  0  0  0
   -6.5413   -2.3414   -3.1564 H   0  0  0  0  0  0  0  0  0  0  0  0
   -7.4012   -0.9492   -3.8650 H   0  0  0  0  0  0  0  0  0  0  0  0
    4.6876   -2.2502    3.7769 H   0  0  0  0  0  0  0  0  0  0  0  0
    3.7797   -4.0588    1.5332 H   0  0  0  0  0  0  0  0  0  0  0  0
    2.8822   -3.4552    3.0150 H   0  0  0  0  0  0  0  0  0  0  0  0
    1.9422   -2.0958    1.3980 H   0  0  0  0  0  0  0  0  0  0  0  0
    3.3435   -2.0855    0.3039 H   0  0  0  0  0  0  0  0  0  0  0  0
    3.1947   -0.9054    3.1034 H   0  0  0  0  0  0  0  0  0  0  0  0
    5.2496    0.0359    2.7592 H   0  0  0  0  0  0  0  0  0  0  0  0
    6.6320   -1.6677    2.4247 H   0  0  0  0  0  0  0  0  0  0  0  0
    2.1562    0.9465    2.3610 H   0  0  0  0  0  0  0  0  0  0  0  0
    2.7484    2.4041    0.7491 H   0  0  0  0  0  0  0  0  0  0  0  0
    3.1372    1.1689   -0.4622 H   0  0  0  0  0  0  0  0  0  0  0  0
    4.7614    1.7637    2.0305 H   0  0  0  0  0  0  0  0  0  0  0  0
    4.7795   -0.1328   -0.1526 H   0  0  0  0  0  0  0  0  0  0  0  0
    5.0396    3.5671    0.1761 H   0  0  0  0  0  0  0  0  0  0  0  0
    8.6952    3.1952   -1.1270 H   0  0  0  0  0  0  0  0  0  0  0  0
    8.2653    1.3917   -1.1876 H   0  0  0  0  0  0  0  0  0  0  0  0
    6.5183    3.8342   -1.8607 H   0  0  0  0  0  0  0  0  0  0  0  0
    4.7452    2.0443   -1.8335 H   0  0  0  0  0  0  0  0  0  0  0  0
    6.0364    2.5039   -3.8297 H   0  0  0  0  0  0  0  0  0  0  0  0
    8.2299    0.5107   -3.0875 H   0  0  0  0  0  0  0  0  0  0  0  0
    6.9508    0.3897   -4.3070 H   0  0  0  0  0  0  0  0  0  0  0  0
    6.5685    0.1951   -2.5119 H   0  0  0  0  0  0  0  0  0  0  0  0
    8.1001    4.0119   -3.6657 H   0  0  0  0  0  0  0  0  0  0  0  0
    9.0399    2.5318   -3.2261 H   0  0  0  0  0  0  0  0  0  0  0  0
    8.2835    2.5937   -4.8288 H   0  0  0  0  0  0  0  0  0  0  0  0
    6.5815   -4.9957    4.5570 H   0  0  0  0  0  0  0  0  0  0  0  0
    5.0633   -4.1339    5.0369 H   0  0  0  0  0  0  0  0  0  0  0  0
    6.5898   -3.1595    4.6678 H   0  0  0  0  0  0  0  0  0  0  0  0
    7.0646   -2.7141    0.4828 H   0  0  0  0  0  0  0  0  0  0  0  0
    5.5038   -3.5163    0.6042 H   0  0  0  0  0  0  0  0  0  0  0  0
    5.6811   -1.9249   -0.2839 H   0  0  0  0  0  0  0  0  0  0  0  0
   -6.0656   -0.7553    2.4083 H   0  0  0  0  0  0  0  0  0  0  0  0
   -5.7933    1.9209   -0.3490 H   0  0  0  0  0  0  0  0  0  0  0  0
   -8.2847    2.6515    1.7966 H   0  0  0  0  0  0  0  0  0  0  0  0
   -9.4521    0.1107    3.4658 H   0  0  0  0  0  0  0  0  0  0  0  0
   -7.2012    0.9527    5.3756 H   0  0  0  0  0  0  0  0  0  0  0  0
   -8.1892    2.9475    4.9680 H   0  0  0  0  0  0  0  0  0  0  0  0
   -9.1263    4.0289    3.7582 H   0  0  0  0  0  0  0  0  0  0  0  0
   -6.0286    3.3024    3.7931 H   0  0  0  0  0  0  0  0  0  0  0  0
   -6.8633    4.4900    2.6605 H   0  0  0  0  0  0  0  0  0  0  0  0
  1  2  1  0
  2  3  1  0
  3  4  1  0
  1  5  1  0
  4  5  1  0
  3  6  1  0
  6  7  1  0
  6  8  1  0
  2  9  1  0
  9 10  1  0
  9 13  1  0
 13 14  1  0
 13 15  1  0
  8 16  1  0
 11 16  1  0
 16 12  1  1
 11 17  1  0
 16 17  1  0
 11 18  1  0
 14 19  1  0
 19 20  1  0
 20 21  1  0
 18 22  1  0
 21 22  1  0
  5 23  1  0
 24 25  1  0
 25 26  1  0
 26 27  1  0
 27 28  1  0
 24 29  1  0
 28 29  1  0
 23 30  1  0
 27 30  1  0
 30 31  1  0
 31 32  1  0
 28 33  1  0
 32 33  1  0
 32 34  1  0
 34 35  1  0
 35 36  1  0
 36 37  1  0
 34 38  1  0
 37 38  1  0
 37 39  1  0
 39 40  1  0
 39 41  1  0
 24 42  1  0
 42 43  1  0
 29 44  1  0
 12 45  1  0
 12 46  1  0
 45 47  1  0
 47 48  1  0
 47 49  1  0
 47 50  1  0
 48 51  1  0
 48 52  1  0
 51 52  1  0
 53 54  1  0
 54 55  1  0
 55 56  1  0
 53 57  1  0
 56 57  1  0
 55 58  1  0
 58 59  1  0
 58 60  1  0
 54 61  1  0
 61 62  1  0
 61 65  1  0
 65 66  1  0
 65 67  1  0
 68 60  1  6
 63 68  1  0
 64 68  1  0
 63 69  1  0
 68 69  1  0
 63 70  1  0
 66 71  1  0
 71 72  1  0
 72 73  1  0
 70 74  1  0
 73 74  1  0
 57 75  1  0
 76 77  1  0
 77 78  1  0
 78 79  1  0
 79 80  1  0
 76 81  1  0
 80 81  1  0
 75 82  1  0
 79 82  1  0
 82 83  1  0
 83 84  1  0
 80 85  1  0
 84 85  1  0
 84 86  1  0
 86 87  1  0
 87 88  1  0
 88 89  1  0
 86 90  1  0
 89 90  1  0
 89 91  1  0
 91 92  1  0
 91 93  1  0
 76 94  1  0
 94 95  1  0
 81 96  1  0
 64 97  1  0
 64 98  1  0
 97 99  1  0
 99100  1  0
 99101  1  0
 99102  1  0
100103  1  0
100104  1  0
103104  1  0
105106  1  0
106107  1  0
107108  1  0
105109  1  0
108109  1  0
107110  1  0
110111  1  0
110112  1  0
106113  1  0
113114  1  0
113117  1  0
117118  1  0
117119  1  0
120112  1  6
115120  1  0
116120  1  0
115121  1  0
120121  1  0
115122  1  0
118123  1  0
123124  1  0
124125  1  0
122126  1  0
125126  1  0
109127  1  0
128129  1  0
129130  1  0
130131  1  0
131132  1  0
128133  1  0
132133  1  0
127134  1  0
131134  1  0
134135  1  0
135136  1  0
132137  1  0
136137  1  0
136138  1  0
138139  1  0
139140  1  0
140141  1  0
138142  1  0
141142  1  0
141143  1  0
143144  1  0
143145  1  0
128146  1  0
146147  1  0
133148  1  0
116149  1  0
116150  1  0
149151  1  0
151152  1  0
151153  1  0
151154  1  0
152155  1  0
152156  1  0
155156  1  0
157158  1  0
158159  1  0
159160  1  0
157161  1  0
160161  1  0
159162  1  0
162163  1  0
162164  1  0
158165  1  0
165166  1  0
165169  1  0
169170  1  0
169171  1  0
164172  1  0
167172  1  0
172168  1  6
167173  1  0
172173  1  0
167174  1  0
170175  1  0
175176  1  0
176177  1  0
174178  1  0
177178  1  0
161179  1  0
180181  1  0
181182  1  0
182183  1  0
183184  1  0
180185  1  0
184185  1  0
179186  1  0
183186  1  0
186187  1  0
187188  1  0
184189  1  0
188189  1  0
188190  1  0
190191  1  0
191192  1  0
192193  1  0
190194  1  0
193194  1  0
193195  1  0
195196  1  0
195197  1  0
180198  1  0
198199  1  0
185200  1  0
168201  1  0
168202  1  0
201203  1  0
203204  1  0
203205  1  0
203206  1  0
204207  1  0
204208  1  0
207208  1  0
  1209  1  0
  1210  1  0
  2211  1  6
  3212  1  6
  4213  1  0
  4214  1  0
  5215  1  1
  6216  1  6
  7217  1  0
  8218  1  0
  9219  1  0
 10220  1  0
 11221  1  6
 12222  1  0
 14223  1  0
 14224  1  0
 15225  1  0
 15226  1  0
 15227  1  0
 17228  1  0
 17229  1  0
 18230  1  0
 18231  1  0
 19232  1  0
 19233  1  0
 20234  1  0
 20235  1  0
 21236  1  0
 21237  1  0
 22238  1  0
 22239  1  0
 24240  1  0
 25241  1  0
 25242  1  0
 26243  1  0
 26244  1  0
 27245  1  0
 28246  1  0
 29247  1  0
 30248  1  0
 31249  1  0
 31250  1  0
 32251  1  1
 33252  1  0
 34253  1  6
 36254  1  0
 36255  1  0
 37256  1  6
 38257  1  0
 39258  1  0
 40259  1  0
 40260  1  0
 40261  1  0
 41262  1  0
 41263  1  0
 41264  1  0
 43265  1  0
 43266  1  0
 43267  1  0
 44268  1  0
 44269  1  0
 44270  1  0
 45271  1  0
 46272  1  0
 48273  1  0
 49274  1  0
 50275  1  0
 51276  1  0
 51277  1  0
 52278  1  0
 52279  1  0
 53280  1  0
 53281  1  0
 54282  1  6
 55283  1  6
 56284  1  0
 56285  1  0
 57286  1  1
 58287  1  0
 59288  1  0
 60289  1  0
 61290  1  0
 62291  1  0
 63292  1  6
 64293  1  6
 66294  1  0
 66295  1  0
 67296  1  0
 67297  1  0
 67298  1  0
 69299  1  0
 69300  1  0
 70301  1  0
 70302  1  0
 71303  1  0
 71304  1  0
 72305  1  0
 72306  1  0
 73307  1  0
 73308  1  0
 74309  1  0
 74310  1  0
 76311  1  0
 77312  1  0
 77313  1  0
 78314  1  0
 78315  1  0
 79316  1  0
 80317  1  0
 81318  1  0
 82319  1  0
 83320  1  0
 83321  1  0
 84322  1  0
 85323  1  0
 86324  1  0
 88325  1  0
 88326  1  0
 89327  1  0
 90328  1  0
 91329  1  0
 92330  1  0
 92331  1  0
 92332  1  0
 93333  1  0
 93334  1  0
 93335  1  0
 95336  1  0
 95337  1  0
 95338  1  0
 96339  1  0
 96340  1  0
 96341  1  0
 97342  1  0
 98343  1  0
100344  1  0
101345  1  0
102346  1  0
103347  1  0
103348  1  0
104349  1  0
104350  1  0
105351  1  0
105352  1  0
106353  1  6
107354  1  6
108355  1  0
108356  1  0
109357  1  1
110358  1  0
111359  1  0
112360  1  0
113361  1  0
114362  1  0
115363  1  6
116364  1  6
118365  1  0
118366  1  0
119367  1  0
119368  1  0
119369  1  0
121370  1  0
121371  1  0
122372  1  0
122373  1  0
123374  1  0
123375  1  0
124376  1  0
124377  1  0
125378  1  0
125379  1  0
126380  1  0
126381  1  0
128382  1  0
129383  1  0
129384  1  0
130385  1  0
130386  1  0
131387  1  0
132388  1  0
133389  1  0
134390  1  0
135391  1  0
135392  1  0
136393  1  0
137394  1  0
138395  1  0
140396  1  0
140397  1  0
141398  1  1
142399  1  0
143400  1  0
144401  1  0
144402  1  0
144403  1  0
145404  1  0
145405  1  0
145406  1  0
147407  1  0
147408  1  0
147409  1  0
148410  1  0
148411  1  0
148412  1  0
149413  1  0
150414  1  0
152415  1  0
153416  1  0
154417  1  0
155418  1  0
155419  1  0
156420  1  0
156421  1  0
157422  1  0
157423  1  0
158424  1  6
159425  1  6
160426  1  0
160427  1  0
161428  1  1
162429  1  0
163430  1  0
164431  1  0
165432  1  0
166433  1  0
167434  1  6
168435  1  0
170436  1  0
170437  1  0
171438  1  0
171439  1  0
171440  1  0
173441  1  0
173442  1  0
174443  1  0
174444  1  0
175445  1  0
175446  1  0
176447  1  0
176448  1  0
177449  1  0
177450  1  0
178451  1  0
178452  1  0
180453  1  0
181454  1  0
181455  1  0
182456  1  0
182457  1  0
183458  1  0
184459  1  0
185460  1  0
186461  1  0
187462  1  0
187463  1  0
188464  1  1
189465  1  0
190466  1  6
192467  1  0
192468  1  0
193469  1  0
194470  1  0
195471  1  0
196472  1  0
196473  1  0
196474  1  0
197475  1  0
197476  1  0
197477  1  0
199478  1  0
199479  1  0
199480  1  0
200481  1  0
200482  1  0
200483  1  0
201484  1  0
202485  1  0
204486  1  0
205487  1  0
206488  1  0
207489  1  0
207490  1  0
208491  1  0
208492  1  0
M  END
>  <PDBID>  (1) 
3KEE

>  <PDB ID>  (1) 
3KEE

>  <Generic Name>  (1) 
Simeprevir

>  <Brand Name>  (1) 
Galexos#Olysio

>  <DrugBank ID>  (1) 
DB06290

>  <ATC Codes>  (1) 
J05AE14

>  <Ligand ID>  (1) 
30B

>  <Target Name>  (1) 
NS3 protease

>  <UniProt ID>  (1) 
Q91RS4

>  <PDB ID.1>  (1) 
3KEE

>  <Seq. Identity>  (1) 
82%

$$$$
