PDB_DB00299_00
     RDKit          3D

 82 84  0  0  0  0  0  0  0  0999 V2000
    3.5355    1.2628    0.1118 C   0  0  0  0  0  0  0  0  0  0  0  0
    1.4732    0.2829   -0.6745 C   0  0  0  0  0  0  0  0  0  0  0  0
    2.4028   -0.8283   -1.0224 C   0  0  0  0  0  0  0  0  0  0  0  0
   -3.4816    1.5594    0.0147 C   0  0  0  0  0  0  0  0  0  0  0  0
   -3.4648    1.8036    1.3785 O   0  0  0  0  0  0  0  0  0  0  0  0
   -4.5563   -0.5826    0.3624 C   0  0  0  0  0  0  0  0  0  0  0  0
   -4.6003   -1.9416    0.1748 O   0  0  0  0  0  0  0  0  0  0  0  0
   -3.3645    0.0816   -0.2950 C   0  0  0  0  0  0  0  0  0  0  0  0
   -2.0619   -0.4887    0.1643 C   0  0  0  0  0  0  0  0  0  0  0  0
   -0.8970    0.1894   -0.4974 C   0  0  0  0  0  0  0  0  0  0  0  0
    0.3661   -0.3978   -0.0320 N   0  0  0  0  0  0  0  0  0  0  0  0
    2.1122    1.2348    0.2044 N   0  0  0  0  0  0  0  0  0  0  0  0
    4.0121    2.1570    1.1767 N   0  0  0  0  0  0  0  0  0  0  0  0
    4.1717   -0.0041    0.3312 N   0  0  0  0  0  0  0  0  0  0  0  0
    3.2669   -1.1255    0.1823 C   0  0  0  0  0  0  0  0  0  0  0  0
    2.5514   -1.2989    1.3425 O   0  0  0  0  0  0  0  0  0  0  0  0
    1.5374   -1.8973   -1.3927 N   0  0  0  0  0  0  0  0  0  0  0  0
    0.4084   -1.7545   -0.5024 C   0  0  0  0  0  0  0  0  0  0  0  0
    3.5355    1.2628    0.1118 C   0  0  0  0  0  0  0  0  0  0  0  0
    1.4732    0.2829   -0.6745 C   0  0  0  0  0  0  0  0  0  0  0  0
    2.4028   -0.8283   -1.0224 C   0  0  0  0  0  0  0  0  0  0  0  0
   -3.4816    1.5594    0.0147 C   0  0  0  0  0  0  0  0  0  0  0  0
   -3.4648    1.8036    1.3785 O   0  0  0  0  0  0  0  0  0  0  0  0
   -4.5563   -0.5826    0.3624 C   0  0  0  0  0  0  0  0  0  0  0  0
   -4.6003   -1.9416    0.1748 O   0  0  0  0  0  0  0  0  0  0  0  0
   -3.3645    0.0816   -0.2950 C   0  0  0  0  0  0  0  0  0  0  0  0
   -2.0619   -0.4887    0.1643 C   0  0  0  0  0  0  0  0  0  0  0  0
   -0.8970    0.1894   -0.4974 C   0  0  0  0  0  0  0  0  0  0  0  0
    0.3661   -0.3978   -0.0320 N   0  0  0  0  0  0  0  0  0  0  0  0
    2.1122    1.2348    0.2044 N   0  0  0  0  0  0  0  0  0  0  0  0
    4.0121    2.1570    1.1767 N   0  0  0  0  0  0  0  0  0  0  0  0
    4.1717   -0.0041    0.3312 N   0  0  0  0  0  0  0  0  0  0  0  0
    3.2669   -1.1255    0.1823 C   0  0  0  0  0  0  0  0  0  0  0  0
    2.5514   -1.2989    1.3425 O   0  0  0  0  0  0  0  0  0  0  0  0
    1.5374   -1.8973   -1.3927 N   0  0  0  0  0  0  0  0  0  0  0  0
    0.4084   -1.7545   -0.5024 C   0  0  0  0  0  0  0  0  0  0  0  0
    3.9123    1.7060   -0.8463 H   0  0  0  0  0  0  0  0  0  0  0  0
    1.0906    0.7340   -1.6080 H   0  0  0  0  0  0  0  0  0  0  0  0
    3.0886   -0.5025   -1.8294 H   0  0  0  0  0  0  0  0  0  0  0  0
   -2.6703    2.1289   -0.4666 H   0  0  0  0  0  0  0  0  0  0  0  0
   -4.4412    1.9727   -0.3773 H   0  0  0  0  0  0  0  0  0  0  0  0
   -4.4157    1.7462    1.7140 H   0  0  0  0  0  0  0  0  0  0  0  0
   -5.4625   -0.1434   -0.1234 H   0  0  0  0  0  0  0  0  0  0  0  0
   -4.6148   -0.3485    1.4459 H   0  0  0  0  0  0  0  0  0  0  0  0
   -4.1074   -2.1985   -0.6388 H   0  0  0  0  0  0  0  0  0  0  0  0
   -3.4790   -0.0735   -1.3835 H   0  0  0  0  0  0  0  0  0  0  0  0
   -2.0108   -1.5746    0.1523 H   0  0  0  0  0  0  0  0  0  0  0  0
   -1.9813   -0.2096    1.2598 H   0  0  0  0  0  0  0  0  0  0  0  0
   -0.9321    0.0936   -1.6068 H   0  0  0  0  0  0  0  0  0  0  0  0
   -0.8502    1.2720   -0.2836 H   0  0  0  0  0  0  0  0  0  0  0  0
    1.7549    2.1816   -0.0539 H   0  0  0  0  0  0  0  0  0  0  0  0
    4.9760    2.4925    0.9817 H   0  0  0  0  0  0  0  0  0  0  0  0
    4.0752    1.6085    2.0797 H   0  0  0  0  0  0  0  0  0  0  0  0
    4.7869   -0.0578    1.1469 H   0  0  0  0  0  0  0  0  0  0  0  0
    3.8234   -2.0563   -0.0307 H   0  0  0  0  0  0  0  0  0  0  0  0
    2.8603   -0.7475    2.0992 H   0  0  0  0  0  0  0  0  0  0  0  0
    1.2521   -1.7495   -2.3905 H   0  0  0  0  0  0  0  0  0  0  0  0
    0.4248   -2.5035    0.3182 H   0  0  0  0  0  0  0  0  0  0  0  0
   -0.4914   -2.0231   -1.1228 H   0  0  0  0  0  0  0  0  0  0  0  0
    3.9123    1.7060   -0.8463 H   0  0  0  0  0  0  0  0  0  0  0  0
    1.0906    0.7340   -1.6080 H   0  0  0  0  0  0  0  0  0  0  0  0
    3.0886   -0.5025   -1.8294 H   0  0  0  0  0  0  0  0  0  0  0  0
   -2.6703    2.1289   -0.4666 H   0  0  0  0  0  0  0  0  0  0  0  0
   -4.4412    1.9727   -0.3773 H   0  0  0  0  0  0  0  0  0  0  0  0
   -4.4157    1.7462    1.7140 H   0  0  0  0  0  0  0  0  0  0  0  0
   -5.4625   -0.1434   -0.1234 H   0  0  0  0  0  0  0  0  0  0  0  0
   -4.6148   -0.3485    1.4459 H   0  0  0  0  0  0  0  0  0  0  0  0
   -4.1074   -2.1985   -0.6388 H   0  0  0  0  0  0  0  0  0  0  0  0
   -3.4790   -0.0735   -1.3835 H   0  0  0  0  0  0  0  0  0  0  0  0
   -2.0108   -1.5746    0.1523 H   0  0  0  0  0  0  0  0  0  0  0  0
   -1.9813   -0.2096    1.2598 H   0  0  0  0  0  0  0  0  0  0  0  0
   -0.9321    0.0936   -1.6068 H   0  0  0  0  0  0  0  0  0  0  0  0
   -0.8502    1.2720   -0.2836 H   0  0  0  0  0  0  0  0  0  0  0  0
    1.7549    2.1816   -0.0539 H   0  0  0  0  0  0  0  0  0  0  0  0
    4.9760    2.4925    0.9817 H   0  0  0  0  0  0  0  0  0  0  0  0
    4.0752    1.6085    2.0797 H   0  0  0  0  0  0  0  0  0  0  0  0
    4.7869   -0.0578    1.1469 H   0  0  0  0  0  0  0  0  0  0  0  0
    3.8234   -2.0563   -0.0307 H   0  0  0  0  0  0  0  0  0  0  0  0
    2.8603   -0.7475    2.0992 H   0  0  0  0  0  0  0  0  0  0  0  0
    1.2521   -1.7495   -2.3905 H   0  0  0  0  0  0  0  0  0  0  0  0
    0.4248   -2.5035    0.3182 H   0  0  0  0  0  0  0  0  0  0  0  0
   -0.4914   -2.0231   -1.1228 H   0  0  0  0  0  0  0  0  0  0  0  0
  2  3  1  0
  4  5  1  0
  6  7  1  0
  4  8  1  0
  6  8  1  0
  8  9  1  0
  9 10  1  0
  2 11  1  0
 10 11  1  0
  1 12  1  0
  2 12  1  0
  1 13  1  0
  1 14  1  0
  3 15  1  0
 14 15  1  0
 15 16  1  0
  3 17  1  0
 11 18  1  0
 17 18  1  0
 20 21  1  0
 22 23  1  0
 24 25  1  0
 22 26  1  0
 24 26  1  0
 26 27  1  0
 27 28  1  0
 20 29  1  0
 28 29  1  0
 19 30  1  0
 20 30  1  0
 19 31  1  0
 19 32  1  0
 21 33  1  0
 32 33  1  0
 33 34  1  0
 21 35  1  0
 29 36  1  0
 35 36  1  0
  1 37  1  0
  2 38  1  0
  3 39  1  0
  4 40  1  0
  4 41  1  0
  5 42  1  0
  6 43  1  0
  6 44  1  0
  7 45  1  0
  8 46  1  0
  9 47  1  0
  9 48  1  0
 10 49  1  0
 10 50  1  0
 12 51  1  0
 13 52  1  0
 13 53  1  0
 14 54  1  0
 15 55  1  0
 16 56  1  0
 17 57  1  0
 18 58  1  0
 18 59  1  0
 19 60  1  0
 20 61  1  0
 21 62  1  0
 22 63  1  0
 22 64  1  0
 23 65  1  0
 24 66  1  0
 24 67  1  0
 25 68  1  0
 26 69  1  0
 27 70  1  0
 27 71  1  0
 28 72  1  0
 28 73  1  0
 30 74  1  0
 31 75  1  0
 31 76  1  0
 32 77  1  0
 33 78  1  0
 34 79  1  0
 35 80  1  0
 36 81  1  0
 36 82  1  0
M  END
>  <PDBID>  (1) 
1KI3

>  <PDB ID>  (1) 
1KI3

>  <Generic Name>  (1) 
Penciclovir

>  <Brand Name>  (1) 
Denavir#Penciclovir

>  <DrugBank ID>  (1) 
DB00299

>  <ATC Codes>  (1) 
D06BB06#J05AB13

>  <Ligand ID>  (1) 
PE2

>  <Target Name>  (1) 
Thymidine kinase

>  <UniProt ID>  (1) 
P06478

>  <PDB ID.1>  (1) 
1KI3

>  <Seq. Identity>  (1) 
98%

$$$$
