PDB_DB00537_06
     RDKit          3D

108114  0  0  0  0  0  0  0  0999 V2000
   -5.2682    0.1122    1.3650 O   0  0  0  0  0  0  0  0  0  0  0  0
   -4.2566   -0.7926    1.1583 C   0  0  0  0  0  0  0  0  0  0  0  0
   -4.6451   -2.1154    1.3269 O   0  0  0  0  0  0  0  0  0  0  0  0
   -3.5825   -0.6460   -0.1974 C   0  0  0  0  0  0  0  0  0  0  0  0
   -3.0000    0.7339   -0.2904 C   0  0  0  0  0  0  0  0  0  0  0  0
   -1.7633    0.8536   -0.9641 N   0  0  0  0  0  0  0  0  0  0  0  0
   -0.7643   -0.1208   -0.7151 C   0  0  0  0  0  0  0  0  0  0  0  0
    0.5961    0.4363   -0.3996 C   0  0  0  0  0  0  0  0  0  0  0  0
    1.5539   -0.7298   -0.1857 C   0  0  0  0  0  0  0  0  0  0  0  0
    2.8949   -0.3217   -0.1902 N   0  0  0  0  0  0  0  0  0  0  0  0
    3.3984    0.2856   -1.3781 C   0  0  0  0  0  0  0  0  0  0  0  0
    4.7987    0.8270   -1.0355 C   0  0  0  0  0  0  0  0  0  0  0  0
    4.7810    1.1770    0.3625 N   0  0  0  0  0  0  0  0  0  0  0  0
    4.7886   -0.0407    1.1903 C   0  0  0  0  0  0  0  0  0  0  0  0
    3.8780   -1.0606    0.4884 C   0  0  0  0  0  0  0  0  0  0  0  0
    1.0646   -1.3762    1.0838 C   0  0  0  0  0  0  0  0  0  0  0  0
    0.6673   -0.3427    1.9491 F   0  0  0  0  0  0  0  0  0  0  0  0
   -0.2392   -2.1057    0.7239 C   0  0  0  0  0  0  0  0  0  0  0  0
   -1.2571   -1.0854    0.3277 C   0  0  0  0  0  0  0  0  0  0  0  0
   -2.5070   -1.7203   -0.2449 C   0  0  0  0  0  0  0  0  0  0  0  0
   -2.8588   -2.8880    0.3827 O   0  0  0  0  0  0  0  0  0  0  0  0
   -1.2976    2.1587   -1.2687 C   0  0  0  0  0  0  0  0  0  0  0  0
   -0.9716    3.1044   -0.1005 C   0  0  0  0  0  0  0  0  0  0  0  0
   -2.1584    3.3338   -1.0041 C   0  0  0  0  0  0  0  0  0  0  0  0
   -2.9634    1.1930    0.6958 H   0  0  0  0  0  0  0  0  0  0  0  0
    0.5229    0.9969    0.5497 H   0  0  0  0  0  0  0  0  0  0  0  0
    3.5632   -0.5091   -2.1346 H   0  0  0  0  0  0  0  0  0  0  0  0
    2.8501    1.1328   -1.7742 H   0  0  0  0  0  0  0  0  0  0  0  0
    5.5753    0.0477   -1.1926 H   0  0  0  0  0  0  0  0  0  0  0  0
    5.0345    1.7362   -1.6413 H   0  0  0  0  0  0  0  0  0  0  0  0
    5.5604    1.7822    0.6576 H   0  0  0  0  0  0  0  0  0  0  0  0
    5.8258   -0.4078    1.2366 H   0  0  0  0  0  0  0  0  0  0  0  0
    4.3673    0.1822    2.1813 H   0  0  0  0  0  0  0  0  0  0  0  0
    4.5623   -1.4893   -0.3160 H   0  0  0  0  0  0  0  0  0  0  0  0
    3.6084   -1.9035    1.0918 H   0  0  0  0  0  0  0  0  0  0  0  0
   -0.6421   -2.6568    1.5992 H   0  0  0  0  0  0  0  0  0  0  0  0
   -0.5416    2.1917   -2.0884 H   0  0  0  0  0  0  0  0  0  0  0  0
   -1.1324    2.7436    0.9295 H   0  0  0  0  0  0  0  0  0  0  0  0
   -0.1369    3.8144   -0.2243 H   0  0  0  0  0  0  0  0  0  0  0  0
   -3.1211    3.1739   -0.4952 H   0  0  0  0  0  0  0  0  0  0  0  0
   -2.0903    4.1337   -1.7838 H   0  0  0  0  0  0  0  0  0  0  0  0
   -5.5883    0.2290    0.3872 O   0  0  0  0  0  0  0  0  0  0  0  0
   -4.5890   -0.6599    0.7034 C   0  0  0  0  0  0  0  0  0  0  0  0
   -4.9632   -1.9836    0.6838 O   0  0  0  0  0  0  0  0  0  0  0  0
   -3.3736   -0.5025   -0.2107 C   0  0  0  0  0  0  0  0  0  0  0  0
   -2.8424    0.8810   -0.0635 C   0  0  0  0  0  0  0  0  0  0  0  0
   -1.5286    1.0766   -0.5643 N   0  0  0  0  0  0  0  0  0  0  0  0
   -0.6748   -0.0654   -0.5292 C   0  0  0  0  0  0  0  0  0  0  0  0
    0.7924    0.2970   -0.5208 C   0  0  0  0  0  0  0  0  0  0  0  0
    1.5946   -0.9682   -0.3921 C   0  0  0  0  0  0  0  0  0  0  0  0
    2.9354   -0.8664   -0.7328 N   0  0  0  0  0  0  0  0  0  0  0  0
    3.3240   -0.5355   -2.0375 C   0  0  0  0  0  0  0  0  0  0  0  0
    4.4858    0.4392   -1.9806 C   0  0  0  0  0  0  0  0  0  0  0  0
    4.2167    1.3271   -0.8679 N   0  0  0  0  0  0  0  0  0  0  0  0
    4.4315    0.6160    0.3803 C   0  0  0  0  0  0  0  0  0  0  0  0
    3.9418   -0.8323    0.2307 C   0  0  0  0  0  0  0  0  0  0  0  0
    1.3016   -1.4988    0.9930 C   0  0  0  0  0  0  0  0  0  0  0  0
    1.3131   -0.4538    1.8975 F   0  0  0  0  0  0  0  0  0  0  0  0
   -0.1318   -2.0263    0.9568 C   0  0  0  0  0  0  0  0  0  0  0  0
   -1.0903   -0.9638    0.5739 C   0  0  0  0  0  0  0  0  0  0  0  0
   -2.4187   -1.5985    0.1289 C   0  0  0  0  0  0  0  0  0  0  0  0
   -2.8864   -2.4905    1.0731 O   0  0  0  0  0  0  0  0  0  0  0  0
   -0.9253    2.3326   -0.2844 C   0  0  0  0  0  0  0  0  0  0  0  0
   -0.6851    2.6918    1.1936 C   0  0  0  0  0  0  0  0  0  0  0  0
   -1.7244    3.4050    0.3413 C   0  0  0  0  0  0  0  0  0  0  0  0
   -2.8740    1.1482    1.0128 H   0  0  0  0  0  0  0  0  0  0  0  0
    0.9590    0.9259    0.3777 H   0  0  0  0  0  0  0  0  0  0  0  0
    3.7024   -1.4505   -2.5567 H   0  0  0  0  0  0  0  0  0  0  0  0
    2.5520   -0.0519   -2.6656 H   0  0  0  0  0  0  0  0  0  0  0  0
    5.4551   -0.0620   -1.7948 H   0  0  0  0  0  0  0  0  0  0  0  0
    4.5628    1.0275   -2.9305 H   0  0  0  0  0  0  0  0  0  0  0  0
    4.8340    2.1662   -0.8694 H   0  0  0  0  0  0  0  0  0  0  0  0
    5.5325    0.6198    0.6000 H   0  0  0  0  0  0  0  0  0  0  0  0
    3.8740    1.0922    1.2032 H   0  0  0  0  0  0  0  0  0  0  0  0
    4.8442   -1.3745   -0.1879 H   0  0  0  0  0  0  0  0  0  0  0  0
    3.7649   -1.3010    1.1955 H   0  0  0  0  0  0  0  0  0  0  0  0
   -0.4221   -2.4149    1.9694 H   0  0  0  0  0  0  0  0  0  0  0  0
   -0.0404    2.5649   -0.9136 H   0  0  0  0  0  0  0  0  0  0  0  0
   -1.0001    1.9827    1.9587 H   0  0  0  0  0  0  0  0  0  0  0  0
    0.1879    3.3224    1.4401 H   0  0  0  0  0  0  0  0  0  0  0  0
   -2.7669    3.1410    0.6015 H   0  0  0  0  0  0  0  0  0  0  0  0
   -1.5010    4.4326   -0.0067 H   0  0  0  0  0  0  0  0  0  0  0  0
   -5.1752    0.6026    2.2243 H   0  0  0  0  0  0  0  0  0  0  0  0
   -3.4817   -0.6024    1.9582 H   0  0  0  0  0  0  0  0  0  0  0  0
   -5.1687   -2.4761    0.5681 H   0  0  0  0  0  0  0  0  0  0  0  0
   -4.3455   -0.7931   -0.9757 H   0  0  0  0  0  0  0  0  0  0  0  0
   -3.7686    1.3344   -0.8691 H   0  0  0  0  0  0  0  0  0  0  0  0
   -0.6408   -0.7265   -1.6610 H   0  0  0  0  0  0  0  0  0  0  0  0
    0.8945    1.0638   -1.2462 H   0  0  0  0  0  0  0  0  0  0  0  0
    1.3753   -1.4331   -1.0254 H   0  0  0  0  0  0  0  0  0  0  0  0
    1.7498   -2.0250    1.6034 H   0  0  0  0  0  0  0  0  0  0  0  0
    0.0114   -2.7890   -0.1059 H   0  0  0  0  0  0  0  0  0  0  0  0
   -1.5332   -0.4834    1.2234 H   0  0  0  0  0  0  0  0  0  0  0  0
   -2.3012   -1.8886   -1.3444 H   0  0  0  0  0  0  0  0  0  0  0  0
   -2.3104   -3.6222   -0.0254 H   0  0  0  0  0  0  0  0  0  0  0  0
   -6.0698    0.5337    1.2169 H   0  0  0  0  0  0  0  0  0  0  0  0
   -4.2736   -0.4246    1.7510 H   0  0  0  0  0  0  0  0  0  0  0  0
   -5.8101   -2.1645    0.2012 H   0  0  0  0  0  0  0  0  0  0  0  0
   -3.7864   -0.6007   -1.2520 H   0  0  0  0  0  0  0  0  0  0  0  0
   -3.5464    1.5706   -0.5897 H   0  0  0  0  0  0  0  0  0  0  0  0
   -0.8359   -0.6276   -1.4955 H   0  0  0  0  0  0  0  0  0  0  0  0
    0.9840    0.8428   -1.4550 H   0  0  0  0  0  0  0  0  0  0  0  0
    1.1020   -1.7045   -1.0986 H   0  0  0  0  0  0  0  0  0  0  0  0
    2.0036   -2.2880    1.3145 H   0  0  0  0  0  0  0  0  0  0  0  0
   -0.1127   -2.8786    0.2372 H   0  0  0  0  0  0  0  0  0  0  0  0
   -1.3255   -0.3400    1.4683 H   0  0  0  0  0  0  0  0  0  0  0  0
   -2.1689   -2.1299   -0.8365 H   0  0  0  0  0  0  0  0  0  0  0  0
   -2.7397   -3.4072    0.7448 H   0  0  0  0  0  0  0  0  0  0  0  0
  1  2  1  0
  2  3  1  0
  2  4  1  0
  4  5  1  0
  5  6  1  0
  6  7  1  0
  7  8  1  0
  8  9  1  0
  9 10  1  0
 10 11  1  0
 11 12  1  0
 12 13  1  0
 13 14  1  0
 10 15  1  0
 14 15  1  0
  9 16  1  0
 16 17  1  0
 16 18  1  0
  7 19  1  0
 18 19  1  0
  4 20  1  0
 19 20  1  0
 20 21  1  0
  6 22  1  0
 22 23  1  0
 22 24  1  0
 23 24  1  0
  5 25  1  0
  8 26  1  0
 11 27  1  0
 11 28  1  0
 12 29  1  0
 12 30  1  0
 13 31  1  0
 14 32  1  0
 14 33  1  0
 15 34  1  0
 15 35  1  0
 18 36  1  0
 22 37  1  0
 23 38  1  0
 23 39  1  0
 24 40  1  0
 24 41  1  0
 43 42  1  0
 43 44  1  0
 43 45  1  0
 45 46  1  0
 46 47  1  0
 47 48  1  0
 48 49  1  0
 49 50  1  0
 50 51  1  0
 51 52  1  0
 52 53  1  0
 53 54  1  0
 54 55  1  0
 51 56  1  0
 55 56  1  0
 50 57  1  0
 57 58  1  0
 57 59  1  0
 48 60  1  0
 59 60  1  0
 45 61  1  0
 60 61  1  0
 61 62  1  0
 47 63  1  0
 63 64  1  0
 63 65  1  0
 64 65  1  0
 46 66  1  0
 49 67  1  0
 52 68  1  0
 52 69  1  0
 53 70  1  0
 53 71  1  0
 54 72  1  0
 55 73  1  0
 55 74  1  0
 56 75  1  0
 56 76  1  0
 59 77  1  0
 63 78  1  0
 64 79  1  0
 64 80  1  0
 65 81  1  0
 65 82  1  0
  1 83  1  0
  2 84  1  0
  3 85  1  0
  4 86  1  0
  5 87  1  0
  7 88  1  0
  8 89  1  0
  9 90  1  0
 16 91  1  0
 18 92  1  0
 19 93  1  0
 20 94  1  0
 21 95  1  0
 42 96  1  0
 43 97  1  0
 44 98  1  0
 45 99  1  0
 46100  1  0
 48101  1  0
 49102  1  0
 50103  1  0
 57104  1  0
 59105  1  0
 60106  1  0
 61107  1  0
 62108  1  0
M  END
>  <PDBID>  (1) 
5BTC

>  <PDB ID>  (1) 
5BTC

>  <Generic Name>  (1) 
Ciprofloxacin

>  <Brand Name>  (1) 
Act Ciprofloxacin#Apo-ciproflox#Auro-ciprofloxacin#Bio-ciprofloxacin#Ciloxan#Cipro#Cipro 100 - Tab 100mg#Cipro 250 - Tab 250mg#Cipro 500 - Tab 500mg#Cipro 750 - Tab 750mg#Cipro HC#Cipro HC Otic Suspension#Cipro I.V. - Liq 10mg/ml#Cipro I.V. Minibags 2mg/ml#Cipro IV 10mg/ml#Cipro Oral Suspension 10%#Cipro Tab 100mg#Cipro Tab 250mg#Cipro Tab 500mg#Cipro Tab 750mg#Cipro XL#Ciprodex#Ciprofloxacin#Ciprofloxacin Extended-release#Ciprofloxacin Hydrochloride#Ciprofloxacin Injection#Ciprofloxacin Injection USP#Ciprofloxacin Injection, USP#Ciprofloxacin Intravenous Infusion#Ciprofloxacin Intravenous Infusion BP#Ciprofloxacin Intravenous Infusion, BP#Ciprofloxacin Omega#Ciprofloxacin Otic#Ciprofloxacin Tablets#Ciprofloxacin Tablets USP - 100 mg#Ciprofloxacin Tablets USP - 250 mg#Ciprofloxacin Tablets USP - 500 mg#Ciprofloxacin Tablets USP - 750 mg#Ciprofloxacin-250#Ciprofloxacin-500#Ciprofloxacin-750#Dom-ciprofloxacin#Ipg-ciprofloxacin#Jamp-ciprofloxacin#Mar-ciprofloxacin#Mint-ciproflox#Mint-ciprofloxacin#Mylan-ciprofloxacin#Mylan-ciprofloxacin XL#Nu-ciproflox#Nu-ciprofloxacin Tablets#Otiprio#Otixal#Otovel#PHL-ciprofloxacin#PMS-ciprofloxacin#PMS-ciprofloxacin 0.3%#PMS-ciprofloxacin XL#Priva-ciprofloxacin#Pro-ciprofloxacin#Proquin XR#Q-ciprofloxacin#Ran-ciproflox#Ran-ciprofloxacin#Ratio-ciprofloxacin#Riva-ciprofloxacin#Sandoz Ciprofloxacin#Septa-ciprofloxacin#Taro-ciprofloxacin#Teva-ciprofloxacin#Van-ciprofloxacin#Bacquinor#Baycip#Ciflox#Cifloxin#Ciprinol#Ciprobay#Ciprocinol#Ciprodar#Ciproxan#Ciproxin#Flociprin#Proquin

>  <DrugBank ID>  (1) 
DB00537

>  <ATC Codes>  (1) 
J01MA02#J01RA11#J01RA12#S02AA15#S03AA07#S01AE03#J01RA10

>  <Ligand ID>  (1) 
CPF

>  <Target Name>  (1) 
DNA gyrase subunit A

>  <UniProt ID>  (1) 
P43700

>  <PDB ID.1>  (1) 
5BTC

>  <Seq. Identity>  (1) 
48%

$$$$
