PDB_DB00862_03
     RDKit          3D

164170  0  0  0  0  0  0  0  0999 V2000
   -0.9053   -4.7298    1.1012 C   0  0  0  0  0  0  0  0  0  0  0  0
   -0.7632   -4.5247   -0.4046 C   0  0  0  0  0  0  0  0  0  0  0  0
   -0.9619   -3.1883   -0.7521 O   0  0  0  0  0  0  0  0  0  0  0  0
   -0.0193   -2.3993   -0.1055 C   0  0  0  0  0  0  0  0  0  0  0  0
    0.8368   -1.7449   -1.1742 C   0  0  0  0  0  0  0  0  0  0  0  0
    2.0224   -1.1268   -0.4388 C   0  0  0  0  0  0  0  0  0  0  0  0
    1.5289   -0.3831    0.7593 C   0  0  0  0  0  0  0  0  0  0  0  0
    0.0544   -0.0266    0.6813 C   0  0  0  0  0  0  0  0  0  0  0  0
   -0.7172   -1.3178    0.7021 C   0  0  0  0  0  0  0  0  0  0  0  0
    2.4128    1.2258    0.6864 S   0  0  0  0  0  0  0  0  0  0  0  0
    2.0338    2.1395    1.7352 O   0  0  0  0  0  0  0  0  0  0  0  0
    1.8324    1.7388   -0.8435 O   0  0  0  0  0  0  0  0  0  0  0  0
    8.5526    2.3503   -0.3515 C   0  0  0  0  0  0  0  0  0  0  0  0
    3.9276    0.8197    0.4492 N   0  0  0  0  0  0  0  0  0  0  0  0
    4.6886    0.2538    1.5101 C   0  0  0  0  0  0  0  0  0  0  0  0
    6.0762   -0.0667    0.9796 C   0  0  0  0  0  0  0  0  0  0  0  0
    6.7609    1.1619    0.7029 N   0  0  0  0  0  0  0  0  0  0  0  0
    5.8995    2.2134    0.2156 C   0  0  0  0  0  0  0  0  0  0  0  0
    4.6886    1.6208   -0.4575 C   0  0  0  0  0  0  0  0  0  0  0  0
    7.9304    0.9890   -0.1379 C   0  0  0  0  0  0  0  0  0  0  0  0
   -2.1135   -1.1633    0.1647 C   0  0  0  0  0  0  0  0  0  0  0  0
   -2.1230   -0.7780   -1.2304 N   0  0  0  0  0  0  0  0  0  0  0  0
   -3.4675   -0.8787   -1.7633 C   0  0  0  0  0  0  0  0  0  0  0  0
   -4.4603   -0.6883   -0.6432 C   0  0  0  0  0  0  0  0  0  0  0  0
   -3.9790    0.1052    0.4246 N   0  0  0  0  0  0  0  0  0  0  0  0
   -2.7687   -0.0906    0.9333 N   0  0  0  0  0  0  0  0  0  0  0  0
   -3.6413   -2.1550   -2.3326 O   0  0  0  0  0  0  0  0  0  0  0  0
   -5.7354   -0.0305   -1.0514 C   0  0  0  0  0  0  0  0  0  0  0  0
   -5.8946    1.0938   -0.1871 N   0  0  0  0  0  0  0  0  0  0  0  0
   -4.9380    0.9596    0.9165 C   0  0  0  0  0  0  0  0  0  0  0  0
   -6.8809   -1.0086   -0.7629 C   0  0  0  0  0  0  0  0  0  0  0  0
   -4.5851    2.3039    1.3954 C   0  0  0  0  0  0  0  0  0  0  0  0
   -3.9477    3.1989    0.3574 C   0  0  0  0  0  0  0  0  0  0  0  0
   -4.8558    3.4278   -0.8257 C   0  0  0  0  0  0  0  0  0  0  0  0
   -0.9053   -4.7298    1.1012 C   0  0  0  0  0  0  0  0  0  0  0  0
   -0.7632   -4.5247   -0.4046 C   0  0  0  0  0  0  0  0  0  0  0  0
   -0.9619   -3.1883   -0.7521 O   0  0  0  0  0  0  0  0  0  0  0  0
   -0.0193   -2.3993   -0.1055 C   0  0  0  0  0  0  0  0  0  0  0  0
    0.8368   -1.7449   -1.1742 C   0  0  0  0  0  0  0  0  0  0  0  0
    2.0224   -1.1268   -0.4388 C   0  0  0  0  0  0  0  0  0  0  0  0
    1.5289   -0.3831    0.7593 C   0  0  0  0  0  0  0  0  0  0  0  0
    0.0544   -0.0266    0.6813 C   0  0  0  0  0  0  0  0  0  0  0  0
   -0.7172   -1.3178    0.7021 C   0  0  0  0  0  0  0  0  0  0  0  0
    2.4128    1.2258    0.6864 S   0  0  0  0  0  0  0  0  0  0  0  0
    2.0338    2.1395    1.7352 O   0  0  0  0  0  0  0  0  0  0  0  0
    1.8324    1.7388   -0.8435 O   0  0  0  0  0  0  0  0  0  0  0  0
    8.5526    2.3503   -0.3515 C   0  0  0  0  0  0  0  0  0  0  0  0
    3.9276    0.8197    0.4492 N   0  0  0  0  0  0  0  0  0  0  0  0
    4.6886    0.2538    1.5101 C   0  0  0  0  0  0  0  0  0  0  0  0
    6.0762   -0.0667    0.9796 C   0  0  0  0  0  0  0  0  0  0  0  0
    6.7609    1.1619    0.7029 N   0  0  0  0  0  0  0  0  0  0  0  0
    5.8995    2.2134    0.2156 C   0  0  0  0  0  0  0  0  0  0  0  0
    4.6886    1.6208   -0.4575 C   0  0  0  0  0  0  0  0  0  0  0  0
    7.9304    0.9890   -0.1379 C   0  0  0  0  0  0  0  0  0  0  0  0
   -2.1135   -1.1633    0.1647 C   0  0  0  0  0  0  0  0  0  0  0  0
   -2.1230   -0.7780   -1.2304 N   0  0  0  0  0  0  0  0  0  0  0  0
   -3.4675   -0.8787   -1.7633 C   0  0  0  0  0  0  0  0  0  0  0  0
   -4.4603   -0.6883   -0.6432 C   0  0  0  0  0  0  0  0  0  0  0  0
   -3.9790    0.1052    0.4246 N   0  0  0  0  0  0  0  0  0  0  0  0
   -2.7687   -0.0906    0.9333 N   0  0  0  0  0  0  0  0  0  0  0  0
   -3.6413   -2.1550   -2.3326 O   0  0  0  0  0  0  0  0  0  0  0  0
   -5.7354   -0.0305   -1.0514 C   0  0  0  0  0  0  0  0  0  0  0  0
   -5.8946    1.0938   -0.1871 N   0  0  0  0  0  0  0  0  0  0  0  0
   -4.9380    0.9596    0.9165 C   0  0  0  0  0  0  0  0  0  0  0  0
   -6.8809   -1.0086   -0.7629 C   0  0  0  0  0  0  0  0  0  0  0  0
   -4.5851    2.3039    1.3954 C   0  0  0  0  0  0  0  0  0  0  0  0
   -3.9477    3.1989    0.3574 C   0  0  0  0  0  0  0  0  0  0  0  0
   -4.8558    3.4278   -0.8257 C   0  0  0  0  0  0  0  0  0  0  0  0
   -1.4380   -5.6742    1.2808 H   0  0  0  0  0  0  0  0  0  0  0  0
   -1.5197   -3.9254    1.5490 H   0  0  0  0  0  0  0  0  0  0  0  0
    0.0859   -4.6983    1.5943 H   0  0  0  0  0  0  0  0  0  0  0  0
    0.3072   -4.7500   -0.6526 H   0  0  0  0  0  0  0  0  0  0  0  0
   -1.4090   -5.2062   -0.9649 H   0  0  0  0  0  0  0  0  0  0  0  0
    0.6652   -2.9990    0.5287 H   0  0  0  0  0  0  0  0  0  0  0  0
    0.2907   -1.0144   -1.7816 H   0  0  0  0  0  0  0  0  0  0  0  0
    1.2449   -2.5263   -1.8509 H   0  0  0  0  0  0  0  0  0  0  0  0
    2.6668   -1.9764   -0.1229 H   0  0  0  0  0  0  0  0  0  0  0  0
    2.5725   -0.5261   -1.1680 H   0  0  0  0  0  0  0  0  0  0  0  0
    1.7636   -0.8447    1.7216 H   0  0  0  0  0  0  0  0  0  0  0  0
   -0.1517    0.5745   -0.2050 H   0  0  0  0  0  0  0  0  0  0  0  0
   -0.1764    0.5361    1.6105 H   0  0  0  0  0  0  0  0  0  0  0  0
   -0.7565   -1.6613    1.7550 H   0  0  0  0  0  0  0  0  0  0  0  0
    1.3664    2.1203    2.4599 H   0  0  0  0  0  0  0  0  0  0  0  0
    2.4289    1.4691   -1.5570 H   0  0  0  0  0  0  0  0  0  0  0  0
    8.2787    2.8053   -1.3229 H   0  0  0  0  0  0  0  0  0  0  0  0
    8.2343    3.0328    0.4571 H   0  0  0  0  0  0  0  0  0  0  0  0
    9.6524    2.2157   -0.2516 H   0  0  0  0  0  0  0  0  0  0  0  0
    4.8407    0.9804    2.3539 H   0  0  0  0  0  0  0  0  0  0  0  0
    4.2303   -0.6381    1.9604 H   0  0  0  0  0  0  0  0  0  0  0  0
    6.6696   -0.6387    1.7194 H   0  0  0  0  0  0  0  0  0  0  0  0
    6.0057   -0.7204    0.0752 H   0  0  0  0  0  0  0  0  0  0  0  0
    5.5206    2.7793    1.1136 H   0  0  0  0  0  0  0  0  0  0  0  0
    6.4195    2.9116   -0.4619 H   0  0  0  0  0  0  0  0  0  0  0  0
    4.9671    1.0472   -1.3645 H   0  0  0  0  0  0  0  0  0  0  0  0
    4.0484    2.4603   -0.8185 H   0  0  0  0  0  0  0  0  0  0  0  0
    8.6302    0.2699    0.2860 H   0  0  0  0  0  0  0  0  0  0  0  0
    7.5830    0.5916   -1.1166 H   0  0  0  0  0  0  0  0  0  0  0  0
   -2.6866   -2.1043    0.2389 H   0  0  0  0  0  0  0  0  0  0  0  0
   -1.8564    0.2296   -1.2700 H   0  0  0  0  0  0  0  0  0  0  0  0
   -3.5990   -0.1501   -2.5717 H   0  0  0  0  0  0  0  0  0  0  0  0
   -4.6504   -1.7198   -0.2327 H   0  0  0  0  0  0  0  0  0  0  0  0
   -2.0922    0.6919    0.9427 H   0  0  0  0  0  0  0  0  0  0  0  0
   -3.6587   -2.8586   -1.6412 H   0  0  0  0  0  0  0  0  0  0  0  0
   -5.7500    0.2659   -2.1223 H   0  0  0  0  0  0  0  0  0  0  0  0
   -6.8744    1.1502    0.1417 H   0  0  0  0  0  0  0  0  0  0  0  0
   -5.5343    0.4330    1.7198 H   0  0  0  0  0  0  0  0  0  0  0  0
   -6.9931   -1.6488   -1.6741 H   0  0  0  0  0  0  0  0  0  0  0  0
   -7.8064   -0.4933   -0.4864 H   0  0  0  0  0  0  0  0  0  0  0  0
   -6.5543   -1.6681    0.0752 H   0  0  0  0  0  0  0  0  0  0  0  0
   -5.5445    2.8264    1.6895 H   0  0  0  0  0  0  0  0  0  0  0  0
   -3.9603    2.3383    2.3071 H   0  0  0  0  0  0  0  0  0  0  0  0
   -2.9959    2.7232    0.0471 H   0  0  0  0  0  0  0  0  0  0  0  0
   -3.6493    4.1758    0.8146 H   0  0  0  0  0  0  0  0  0  0  0  0
   -5.9331    3.4439   -0.5124 H   0  0  0  0  0  0  0  0  0  0  0  0
   -4.7049    2.6289   -1.5568 H   0  0  0  0  0  0  0  0  0  0  0  0
   -4.6657    4.4401   -1.2444 H   0  0  0  0  0  0  0  0  0  0  0  0
   -1.4380   -5.6742    1.2808 H   0  0  0  0  0  0  0  0  0  0  0  0
   -1.5197   -3.9254    1.5490 H   0  0  0  0  0  0  0  0  0  0  0  0
    0.0859   -4.6983    1.5943 H   0  0  0  0  0  0  0  0  0  0  0  0
    0.3072   -4.7500   -0.6526 H   0  0  0  0  0  0  0  0  0  0  0  0
   -1.4090   -5.2062   -0.9649 H   0  0  0  0  0  0  0  0  0  0  0  0
    0.6652   -2.9990    0.5287 H   0  0  0  0  0  0  0  0  0  0  0  0
    0.2907   -1.0144   -1.7816 H   0  0  0  0  0  0  0  0  0  0  0  0
    1.2449   -2.5263   -1.8509 H   0  0  0  0  0  0  0  0  0  0  0  0
    2.6668   -1.9764   -0.1229 H   0  0  0  0  0  0  0  0  0  0  0  0
    2.5725   -0.5261   -1.1680 H   0  0  0  0  0  0  0  0  0  0  0  0
    1.7636   -0.8447    1.7216 H   0  0  0  0  0  0  0  0  0  0  0  0
   -0.1517    0.5745   -0.2050 H   0  0  0  0  0  0  0  0  0  0  0  0
   -0.1764    0.5361    1.6105 H   0  0  0  0  0  0  0  0  0  0  0  0
   -0.7565   -1.6613    1.7550 H   0  0  0  0  0  0  0  0  0  0  0  0
    1.3664    2.1203    2.4599 H   0  0  0  0  0  0  0  0  0  0  0  0
    2.4289    1.4691   -1.5570 H   0  0  0  0  0  0  0  0  0  0  0  0
    8.2787    2.8053   -1.3229 H   0  0  0  0  0  0  0  0  0  0  0  0
    8.2343    3.0328    0.4571 H   0  0  0  0  0  0  0  0  0  0  0  0
    9.6524    2.2157   -0.2516 H   0  0  0  0  0  0  0  0  0  0  0  0
    4.8407    0.9804    2.3539 H   0  0  0  0  0  0  0  0  0  0  0  0
    4.2303   -0.6381    1.9604 H   0  0  0  0  0  0  0  0  0  0  0  0
    6.6696   -0.6387    1.7194 H   0  0  0  0  0  0  0  0  0  0  0  0
    6.0057   -0.7204    0.0752 H   0  0  0  0  0  0  0  0  0  0  0  0
    5.5206    2.7793    1.1136 H   0  0  0  0  0  0  0  0  0  0  0  0
    6.4195    2.9116   -0.4619 H   0  0  0  0  0  0  0  0  0  0  0  0
    4.9671    1.0472   -1.3645 H   0  0  0  0  0  0  0  0  0  0  0  0
    4.0484    2.4603   -0.8185 H   0  0  0  0  0  0  0  0  0  0  0  0
    8.6302    0.2699    0.2860 H   0  0  0  0  0  0  0  0  0  0  0  0
    7.5830    0.5916   -1.1166 H   0  0  0  0  0  0  0  0  0  0  0  0
   -2.6866   -2.1043    0.2389 H   0  0  0  0  0  0  0  0  0  0  0  0
   -1.8564    0.2296   -1.2700 H   0  0  0  0  0  0  0  0  0  0  0  0
   -3.5990   -0.1501   -2.5717 H   0  0  0  0  0  0  0  0  0  0  0  0
   -4.6504   -1.7198   -0.2327 H   0  0  0  0  0  0  0  0  0  0  0  0
   -2.0922    0.6919    0.9427 H   0  0  0  0  0  0  0  0  0  0  0  0
   -3.6587   -2.8586   -1.6412 H   0  0  0  0  0  0  0  0  0  0  0  0
   -5.7500    0.2659   -2.1223 H   0  0  0  0  0  0  0  0  0  0  0  0
   -6.8744    1.1502    0.1417 H   0  0  0  0  0  0  0  0  0  0  0  0
   -5.5343    0.4330    1.7198 H   0  0  0  0  0  0  0  0  0  0  0  0
   -6.9931   -1.6488   -1.6741 H   0  0  0  0  0  0  0  0  0  0  0  0
   -7.8064   -0.4933   -0.4864 H   0  0  0  0  0  0  0  0  0  0  0  0
   -6.5543   -1.6681    0.0752 H   0  0  0  0  0  0  0  0  0  0  0  0
   -5.5445    2.8264    1.6895 H   0  0  0  0  0  0  0  0  0  0  0  0
   -3.9603    2.3383    2.3071 H   0  0  0  0  0  0  0  0  0  0  0  0
   -2.9959    2.7232    0.0471 H   0  0  0  0  0  0  0  0  0  0  0  0
   -3.6493    4.1758    0.8146 H   0  0  0  0  0  0  0  0  0  0  0  0
   -5.9331    3.4439   -0.5124 H   0  0  0  0  0  0  0  0  0  0  0  0
   -4.7049    2.6289   -1.5568 H   0  0  0  0  0  0  0  0  0  0  0  0
   -4.6657    4.4401   -1.2444 H   0  0  0  0  0  0  0  0  0  0  0  0
  1  2  1  0
  2  3  1  0
  3  4  1  0
  4  5  1  0
  5  6  1  0
  6  7  1  0
  7  8  1  0
  4  9  1  0
  8  9  1  0
  7 10  1  0
 10 11  1  0
 10 12  1  0
 10 14  1  0
 14 15  1  0
 15 16  1  0
 16 17  1  0
 17 18  1  0
 14 19  1  0
 18 19  1  0
 13 20  1  0
 17 20  1  0
  9 21  1  0
 21 22  1  0
 22 23  1  0
 23 24  1  0
 24 25  1  0
 21 26  1  0
 25 26  1  0
 23 27  1  0
 24 28  1  0
 28 29  1  0
 25 30  1  0
 29 30  1  0
 28 31  1  0
 30 32  1  0
 32 33  1  0
 33 34  1  0
 35 36  1  0
 36 37  1  0
 37 38  1  0
 38 39  1  0
 39 40  1  0
 40 41  1  0
 41 42  1  0
 38 43  1  0
 42 43  1  0
 41 44  1  0
 44 45  1  0
 44 46  1  0
 44 48  1  0
 48 49  1  0
 49 50  1  0
 50 51  1  0
 51 52  1  0
 48 53  1  0
 52 53  1  0
 47 54  1  0
 51 54  1  0
 43 55  1  0
 55 56  1  0
 56 57  1  0
 57 58  1  0
 58 59  1  0
 55 60  1  0
 59 60  1  0
 57 61  1  0
 58 62  1  0
 62 63  1  0
 59 64  1  0
 63 64  1  0
 62 65  1  0
 64 66  1  0
 66 67  1  0
 67 68  1  0
  1 69  1  0
  1 70  1  0
  1 71  1  0
  2 72  1  0
  2 73  1  0
  4 74  1  0
  5 75  1  0
  5 76  1  0
  6 77  1  0
  6 78  1  0
  7 79  1  0
  8 80  1  0
  8 81  1  0
  9 82  1  0
 11 83  1  0
 12 84  1  0
 13 85  1  0
 13 86  1  0
 13 87  1  0
 15 88  1  0
 15 89  1  0
 16 90  1  0
 16 91  1  0
 18 92  1  0
 18 93  1  0
 19 94  1  0
 19 95  1  0
 20 96  1  0
 20 97  1  0
 21 98  1  0
 22 99  1  0
 23100  1  0
 24101  1  0
 26102  1  0
 27103  1  0
 28104  1  0
 29105  1  0
 30106  1  0
 31107  1  0
 31108  1  0
 31109  1  0
 32110  1  0
 32111  1  0
 33112  1  0
 33113  1  0
 34114  1  0
 34115  1  0
 34116  1  0
 35117  1  0
 35118  1  0
 35119  1  0
 36120  1  0
 36121  1  0
 38122  1  0
 39123  1  0
 39124  1  0
 40125  1  0
 40126  1  0
 41127  1  0
 42128  1  0
 42129  1  0
 43130  1  0
 45131  1  0
 46132  1  0
 47133  1  0
 47134  1  0
 47135  1  0
 49136  1  0
 49137  1  0
 50138  1  0
 50139  1  0
 52140  1  0
 52141  1  0
 53142  1  0
 53143  1  0
 54144  1  0
 54145  1  0
 55146  1  0
 56147  1  0
 57148  1  0
 58149  1  0
 60150  1  0
 61151  1  0
 62152  1  0
 63153  1  0
 64154  1  0
 65155  1  0
 65156  1  0
 65157  1  0
 66158  1  0
 66159  1  0
 67160  1  0
 67161  1  0
 68162  1  0
 68163  1  0
 68164  1  0
M  END
>  <PDBID>  (1) 
3B2R

>  <PDB ID>  (1) 
3B2R

>  <Generic Name>  (1) 
Vardenafil

>  <Brand Name>  (1) 
Levitra#Staxyn#Vivanza

>  <DrugBank ID>  (1) 
DB00862

>  <ATC Codes>  (1) 
G04BE09

>  <Ligand ID>  (1) 
VDN

>  <Target Name>  (1) 
cGMP-specific 3',5'-cyclic phosphodiesterase

>  <UniProt ID>  (1) 
O76074

>  <PDB ID.1>  (1) 
3B2R

>  <Seq. Identity>  (1) 
94%

$$$$
