PDB_DB09034_01
     RDKit          3D

 75 79  0  0  0  0  0  0  0  0999 V2000
    3.0158   -1.3758   -0.3256 C   0  0  0  0  0  0  0  0  0  0  0  0
    1.7963   -0.6196   -0.2927 N   0  0  0  0  0  0  0  0  0  0  0  0
    3.5213   -1.7063    0.9129 O   0  0  0  0  0  0  0  0  0  0  0  0
    7.5311   -3.2624   -0.2799 Cl  0  0  0  0  0  0  0  0  0  0  0  0
    4.0216   -0.6780   -1.0605 N   0  0  0  0  0  0  0  0  0  0  0  0
   -1.2678    0.6901   -1.7045 O   0  0  0  0  0  0  0  0  0  0  0  0
    5.1264   -0.5790   -0.1610 C   0  0  0  0  0  0  0  0  0  0  0  0
   -0.4932    0.8918    0.4385 N   0  0  0  0  0  0  0  0  0  0  0  0
    6.4683   -0.7990   -0.8061 C   0  0  0  0  0  0  0  0  0  0  0  0
   -3.6627   -0.9958   -0.9527 N   0  0  0  0  0  0  0  0  0  0  0  0
    7.4209   -1.5296    0.1124 C   0  0  0  0  0  0  0  0  0  0  0  0
   -4.6309   -1.9874   -0.7052 N   0  0  0  0  0  0  0  0  0  0  0  0
    7.1168   -1.3050    1.5682 C   0  0  0  0  0  0  0  0  0  0  0  0
   -2.4964   -1.6299   -1.2354 N   0  0  0  0  0  0  0  0  0  0  0  0
    5.7073   -1.6210    1.9536 C   0  0  0  0  0  0  0  0  0  0  0  0
    4.8774   -1.8120    0.7199 C   0  0  0  0  0  0  0  0  0  0  0  0
    0.7111   -1.2393    0.3238 C   0  0  0  0  0  0  0  0  0  0  0  0
   -0.3054   -0.3680    0.9972 C   0  0  0  0  0  0  0  0  0  0  0  0
    0.2610    1.9378    1.0760 C   0  0  1  0  0  0  0  0  0  0  0  0
    1.6982    1.4154    1.0998 C   0  0  0  0  0  0  0  0  0  0  0  0
    1.9375    0.7728   -0.2338 C   0  0  0  0  0  0  0  0  0  0  0  0
   -1.5247    1.2271   -0.4154 C   0  0  0  0  0  0  0  0  0  0  0  0
   -2.9339    1.1983   -0.0116 C   0  0  0  0  0  0  0  0  0  0  0  0
   -3.7181   -0.0320    0.0745 C   0  0  0  0  0  0  0  0  0  0  0  0
   -5.2334    0.3003    0.2188 C   0  0  0  0  0  0  0  0  0  0  0  0
   -5.4248    1.6503    0.8331 C   0  0  0  0  0  0  0  0  0  0  0  0
   -4.9505    2.6684   -0.1940 C   0  0  0  0  0  0  0  0  0  0  0  0
   -3.7182    2.1704   -0.9159 C   0  0  0  0  0  0  0  0  0  0  0  0
   -3.9454   -3.1992   -0.3619 C   0  0  0  0  0  0  0  0  0  0  0  0
   -2.4916   -2.9598   -0.6880 C   0  0  0  0  0  0  0  0  0  0  0  0
   -6.0404    2.8490   -1.2243 C   0  0  0  0  0  0  0  0  0  0  0  0
    0.2926    3.2167    0.3120 C   0  0  0  0  0  0  0  0  0  0  0  0
    2.7727   -2.3515   -0.8367 H   0  0  0  0  0  0  0  0  0  0  0  0
    4.2550   -1.1978   -1.9356 H   0  0  0  0  0  0  0  0  0  0  0  0
   -1.7989    1.1741   -2.3848 H   0  0  0  0  0  0  0  0  0  0  0  0
    5.0803    0.3075    0.4724 H   0  0  0  0  0  0  0  0  0  0  0  0
    6.3866   -1.3534   -1.7616 H   0  0  0  0  0  0  0  0  0  0  0  0
    6.8624    0.2183   -1.0700 H   0  0  0  0  0  0  0  0  0  0  0  0
    8.4308   -1.1038   -0.0835 H   0  0  0  0  0  0  0  0  0  0  0  0
   -5.3057   -2.0782   -1.4838 H   0  0  0  0  0  0  0  0  0  0  0  0
    7.7757   -2.0141    2.1375 H   0  0  0  0  0  0  0  0  0  0  0  0
    7.4375   -0.2895    1.8876 H   0  0  0  0  0  0  0  0  0  0  0  0
   -2.3806   -1.6814   -2.3059 H   0  0  0  0  0  0  0  0  0  0  0  0
    5.6227   -2.4381    2.6862 H   0  0  0  0  0  0  0  0  0  0  0  0
    5.2999   -0.7043    2.4715 H   0  0  0  0  0  0  0  0  0  0  0  0
    5.0802   -2.7400    0.1860 H   0  0  0  0  0  0  0  0  0  0  0  0
    1.0885   -1.9890    1.0784 H   0  0  0  0  0  0  0  0  0  0  0  0
    0.1732   -1.8659   -0.4316 H   0  0  0  0  0  0  0  0  0  0  0  0
    0.0889   -0.2232    2.0552 H   0  0  0  0  0  0  0  0  0  0  0  0
   -1.2390   -0.9173    1.1463 H   0  0  0  0  0  0  0  0  0  0  0  0
   -0.0536    2.1052    2.1179 H   0  0  0  0  0  0  0  0  0  0  0  0
    1.8785    0.6759    1.8895 H   0  0  0  0  0  0  0  0  0  0  0  0
    2.3336    2.3299    1.2369 H   0  0  0  0  0  0  0  0  0  0  0  0
    2.9997    1.0250   -0.5102 H   0  0  0  0  0  0  0  0  0  0  0  0
    1.3300    1.2547   -1.0298 H   0  0  0  0  0  0  0  0  0  0  0  0
   -1.3069    2.3619   -0.6707 H   0  0  0  0  0  0  0  0  0  0  0  0
   -2.9744    1.7486    0.9981 H   0  0  0  0  0  0  0  0  0  0  0  0
   -3.4924   -0.5363    1.0602 H   0  0  0  0  0  0  0  0  0  0  0  0
   -5.6639   -0.4621    0.8618 H   0  0  0  0  0  0  0  0  0  0  0  0
   -5.7069    0.2874   -0.7754 H   0  0  0  0  0  0  0  0  0  0  0  0
   -4.9328    1.7752    1.8013 H   0  0  0  0  0  0  0  0  0  0  0  0
   -6.5144    1.7784    0.9960 H   0  0  0  0  0  0  0  0  0  0  0  0
   -4.7233    3.6434    0.2449 H   0  0  0  0  0  0  0  0  0  0  0  0
   -4.0559    1.6146   -1.8111 H   0  0  0  0  0  0  0  0  0  0  0  0
   -3.1255    3.0272   -1.2251 H   0  0  0  0  0  0  0  0  0  0  0  0
   -4.3584   -4.0706   -0.9157 H   0  0  0  0  0  0  0  0  0  0  0  0
   -3.9994   -3.4349    0.7218 H   0  0  0  0  0  0  0  0  0  0  0  0
   -1.8491   -2.9833    0.2104 H   0  0  0  0  0  0  0  0  0  0  0  0
   -2.1262   -3.6879   -1.4640 H   0  0  0  0  0  0  0  0  0  0  0  0
   -6.5981    3.7989   -1.0907 H   0  0  0  0  0  0  0  0  0  0  0  0
   -6.7664    2.0069   -1.2217 H   0  0  0  0  0  0  0  0  0  0  0  0
   -5.6351    2.8872   -2.2667 H   0  0  0  0  0  0  0  0  0  0  0  0
    1.1211    3.8393    0.7777 H   0  0  0  0  0  0  0  0  0  0  0  0
    0.5425    3.1199   -0.7442 H   0  0  0  0  0  0  0  0  0  0  0  0
   -0.6193    3.8536    0.4757 H   0  0  0  0  0  0  0  0  0  0  0  0
  1  2  1  0
  1  3  1  0
  1  5  1  0
  5  7  1  0
  7  9  1  0
  4 11  1  0
  9 11  1  0
 10 12  1  0
 11 13  1  0
 10 14  1  0
 13 15  1  0
  3 16  1  0
  7 16  1  0
 15 16  1  0
  2 17  1  0
  8 18  1  0
 17 18  1  0
  8 19  1  0
 19 20  1  0
  2 21  1  0
 20 21  1  0
  6 22  1  0
  8 22  1  0
 22 23  1  0
 10 24  1  0
 23 24  1  0
 24 25  1  0
 25 26  1  0
 26 27  1  0
 23 28  1  0
 27 28  1  0
 12 29  1  0
 14 30  1  0
 29 30  1  0
 27 31  1  0
 19 32  1  0
  1 33  1  0
  5 34  1  0
  6 35  1  0
  7 36  1  0
  9 37  1  0
  9 38  1  0
 11 39  1  0
 12 40  1  0
 13 41  1  0
 13 42  1  0
 14 43  1  0
 15 44  1  0
 15 45  1  0
 16 46  1  0
 17 47  1  0
 17 48  1  0
 18 49  1  0
 18 50  1  0
 19 51  1  1
 20 52  1  0
 20 53  1  0
 21 54  1  0
 21 55  1  0
 22 56  1  0
 23 57  1  0
 24 58  1  0
 25 59  1  0
 25 60  1  0
 26 61  1  0
 26 62  1  0
 27 63  1  0
 28 64  1  0
 28 65  1  0
 29 66  1  0
 29 67  1  0
 30 68  1  0
 30 69  1  0
 31 70  1  0
 31 71  1  0
 31 72  1  0
 32 73  1  0
 32 74  1  0
 32 75  1  0
M  END
>  <PDBID>  (1) 
4ZJ8

>  <PDB ID>  (1) 
4ZJ8

>  <Generic Name>  (1) 
Suvorexant

>  <Brand Name>  (1) 
Belsomra

>  <DrugBank ID>  (1) 
DB09034

>  <ATC Codes>  (1) 
nan

>  <Ligand ID>  (1) 
SUV

>  <Target Name>  (1) 
Orexin receptor type 1

>  <UniProt ID>  (1) 
O43613

>  <PDB ID.1>  (1) 
4ZJ8

>  <Seq. Identity>  (1) 
85%

$$$$
