PDB_DB01268_09
     RDKit          3D

 72 74  0  0  0  0  0  0  0  0999 V2000
   -0.8520   -0.0831    2.6733 C   0  0  0  0  0  0  0  0  0  0  0  0
    7.5833    1.1276    0.1125 C   0  0  0  0  0  0  0  0  0  0  0  0
    7.3489    0.3529   -1.1532 C   0  0  0  0  0  0  0  0  0  0  0  0
    5.3241    2.0095   -0.5874 C   0  0  0  0  0  0  0  0  0  0  0  0
    0.0412   -0.6048   -0.6616 C   0  0  0  0  0  0  0  0  0  0  0  0
    6.4470    2.0511    0.4005 C   0  0  0  0  0  0  0  0  0  0  0  0
    4.8960    0.6631   -1.0388 C   0  0  0  0  0  0  0  0  0  0  0  0
    3.8308    0.0083   -0.1813 C   0  0  0  0  0  0  0  0  0  0  0  0
    4.3745   -1.3267    0.1786 C   0  0  0  0  0  0  0  0  0  0  0  0
   -2.2222   -1.0752    0.3699 C   0  0  0  0  0  0  0  0  0  0  0  0
   -0.0548   -1.2837   -1.9839 C   0  0  0  0  0  0  0  0  0  0  0  0
    2.4746    0.0232   -0.8145 C   0  0  0  0  0  0  0  0  0  0  0  0
   -0.0704   -0.8473    1.6745 C   0  0  0  0  0  0  0  0  0  0  0  0
    6.0242   -0.3387   -1.1337 C   0  0  0  0  0  0  0  0  0  0  0  0
    1.4232   -0.6411   -0.0365 C   0  0  0  0  0  0  0  0  0  0  0  0
   -0.7652   -1.2673    0.4340 C   0  0  0  0  0  0  0  0  0  0  0  0
    1.0936   -0.0156    1.2541 N   0  0  0  0  0  0  0  0  0  0  0  0
    5.8335   -1.1456    0.0505 N   0  0  0  0  0  0  0  0  0  0  0  0
   -2.7133    0.2779    0.4569 N   0  0  0  0  0  0  0  0  0  0  0  0
    4.1911   -1.6351    1.5425 O   0  0  0  0  0  0  0  0  0  0  0  0
   -2.6770   -1.5970   -0.8441 O   0  0  0  0  0  0  0  0  0  0  0  0
    6.9802    3.3454    0.3342 F   0  0  0  0  0  0  0  0  0  0  0  0
   -3.9071    0.2278    1.2895 C   0  0  0  0  0  0  0  0  0  0  0  0
   -5.0745   -0.4576    0.6329 C   0  0  0  0  0  0  0  0  0  0  0  0
   -5.5596    0.1744   -0.5462 N   0  0  0  0  0  0  0  0  0  0  0  0
   -6.5686   -0.5257   -1.2541 C   0  0  0  0  0  0  0  0  0  0  0  0
   -5.7284    1.5910   -0.4455 C   0  0  0  0  0  0  0  0  0  0  0  0
   -6.8022    2.0429    0.5044 C   0  0  0  0  0  0  0  0  0  0  0  0
   -7.8938   -0.6681   -0.6069 C   0  0  0  0  0  0  0  0  0  0  0  0
   -1.5500   -0.7889    3.1718 H   0  0  0  0  0  0  0  0  0  0  0  0
   -1.2869    0.8475    2.3159 H   0  0  0  0  0  0  0  0  0  0  0  0
   -0.1323    0.2034    3.4997 H   0  0  0  0  0  0  0  0  0  0  0  0
    7.6365    0.3931    0.9557 H   0  0  0  0  0  0  0  0  0  0  0  0
    8.5555    1.6325    0.0090 H   0  0  0  0  0  0  0  0  0  0  0  0
    8.1915   -0.3718   -1.2669 H   0  0  0  0  0  0  0  0  0  0  0  0
    7.3949    1.0619   -2.0009 H   0  0  0  0  0  0  0  0  0  0  0  0
    5.5750    2.6473   -1.4857 H   0  0  0  0  0  0  0  0  0  0  0  0
    4.4425    2.5037   -0.1074 H   0  0  0  0  0  0  0  0  0  0  0  0
   -0.3183    0.4495   -0.7286 H   0  0  0  0  0  0  0  0  0  0  0  0
    6.0148    1.9518    1.4200 H   0  0  0  0  0  0  0  0  0  0  0  0
    4.5231    0.7746   -2.1011 H   0  0  0  0  0  0  0  0  0  0  0  0
    3.7544    0.6714    0.7372 H   0  0  0  0  0  0  0  0  0  0  0  0
    4.0339   -2.1547   -0.4601 H   0  0  0  0  0  0  0  0  0  0  0  0
   -2.6780   -1.7217    1.1577 H   0  0  0  0  0  0  0  0  0  0  0  0
   -0.9932   -0.9015   -2.4790 H   0  0  0  0  0  0  0  0  0  0  0  0
   -0.1974   -2.3848   -1.9293 H   0  0  0  0  0  0  0  0  0  0  0  0
    0.8162   -1.0011   -2.6094 H   0  0  0  0  0  0  0  0  0  0  0  0
    2.5914   -0.5242   -1.7965 H   0  0  0  0  0  0  0  0  0  0  0  0
    2.1954    1.0555   -1.1014 H   0  0  0  0  0  0  0  0  0  0  0  0
    0.3713   -1.7384    2.2170 H   0  0  0  0  0  0  0  0  0  0  0  0
    5.9486   -0.9675   -2.0518 H   0  0  0  0  0  0  0  0  0  0  0  0
    1.6398   -1.7243    0.1720 H   0  0  0  0  0  0  0  0  0  0  0  0
   -0.5696   -2.3696    0.3081 H   0  0  0  0  0  0  0  0  0  0  0  0
    0.6883    0.9256    0.9591 H   0  0  0  0  0  0  0  0  0  0  0  0
    6.3432   -2.0456    0.0322 H   0  0  0  0  0  0  0  0  0  0  0  0
   -2.8588    0.7303   -0.4489 H   0  0  0  0  0  0  0  0  0  0  0  0
    3.9984   -0.7999    2.0344 H   0  0  0  0  0  0  0  0  0  0  0  0
   -2.6595   -2.5880   -0.8261 H   0  0  0  0  0  0  0  0  0  0  0  0
   -3.6826   -0.3694    2.2046 H   0  0  0  0  0  0  0  0  0  0  0  0
   -4.1766    1.2461    1.6302 H   0  0  0  0  0  0  0  0  0  0  0  0
   -5.9140   -0.4008    1.3893 H   0  0  0  0  0  0  0  0  0  0  0  0
   -4.8456   -1.5173    0.3917 H   0  0  0  0  0  0  0  0  0  0  0  0
   -6.7282   -0.0468   -2.2704 H   0  0  0  0  0  0  0  0  0  0  0  0
   -6.1905   -1.5681   -1.5072 H   0  0  0  0  0  0  0  0  0  0  0  0
   -5.9883    1.9672   -1.4653 H   0  0  0  0  0  0  0  0  0  0  0  0
   -4.7887    2.0563   -0.1176 H   0  0  0  0  0  0  0  0  0  0  0  0
   -6.6982    1.5632    1.5115 H   0  0  0  0  0  0  0  0  0  0  0  0
   -6.6989    3.1598    0.6031 H   0  0  0  0  0  0  0  0  0  0  0  0
   -7.8254    1.8774    0.1537 H   0  0  0  0  0  0  0  0  0  0  0  0
   -8.6286    0.0523   -1.0695 H   0  0  0  0  0  0  0  0  0  0  0  0
   -8.3745   -1.6662   -0.8094 H   0  0  0  0  0  0  0  0  0  0  0  0
   -7.9076   -0.5027    0.4678 H   0  0  0  0  0  0  0  0  0  0  0  0
  2  3  1  0
  2  6  1  0
  4  6  1  0
  4  7  1  0
  7  8  1  0
  8  9  1  0
  5 11  1  0
  8 12  1  0
  1 13  1  0
  3 14  1  0
  7 14  1  0
  5 15  1  0
 12 15  1  0
  5 16  1  0
 10 16  1  0
 13 16  1  0
 13 17  1  0
 15 17  1  0
  9 18  1  0
 14 18  1  0
 10 19  1  0
  9 20  1  0
 10 21  1  0
  6 22  1  0
 19 23  1  0
 23 24  1  0
 24 25  1  0
 25 26  1  0
 25 27  1  0
 27 28  1  0
 26 29  1  0
  1 30  1  0
  1 31  1  0
  1 32  1  0
  2 33  1  0
  2 34  1  0
  3 35  1  0
  3 36  1  0
  4 37  1  0
  4 38  1  0
  5 39  1  0
  6 40  1  0
  7 41  1  0
  8 42  1  0
  9 43  1  0
 10 44  1  0
 11 45  1  0
 11 46  1  0
 11 47  1  0
 12 48  1  0
 12 49  1  0
 13 50  1  0
 14 51  1  0
 15 52  1  0
 16 53  1  0
 17 54  1  0
 18 55  1  0
 19 56  1  0
 20 57  1  0
 21 58  1  0
 23 59  1  0
 23 60  1  0
 24 61  1  0
 24 62  1  0
 26 63  1  0
 26 64  1  0
 27 65  1  0
 27 66  1  0
 28 67  1  0
 28 68  1  0
 28 69  1  0
 29 70  1  0
 29 71  1  0
 29 72  1  0
M  END
>  <PDBID>  (1) 
4AGD

>  <PDB ID>  (1) 
4AGD

>  <Generic Name>  (1) 
Sunitinib

>  <Brand Name>  (1) 
Sutent

>  <DrugBank ID>  (1) 
DB01268

>  <ATC Codes>  (1) 
L01XE04

>  <Ligand ID>  (1) 
B49

>  <Target Name>  (1) 
Vascular endothelial growth factor receptor 3

>  <UniProt ID>  (1) 
P35916

>  <PDB ID.1>  (1) 
4AGD

>  <Seq. Identity>  (1) 
66%

$$$$
