PDB_DB00293_01
     RDKit          3D

296304  0  0  0  0  0  0  0  0999 V2000
   -6.7233    1.7640   -0.3878 N   0  0  0  0  0  0  0  0  0  0  0  0
   -7.7451    1.1641    0.3247 C   0  0  0  0  0  0  0  0  0  0  0  0
   -9.0795    1.5809   -0.3185 C   0  0  0  0  0  0  0  0  0  0  0  0
   -7.7427   -0.2883    0.3211 N   0  0  0  0  0  0  0  0  0  0  0  0
   -6.4526   -0.6672    0.8995 C   0  0  0  0  0  0  0  0  0  0  0  0
   -6.4575   -2.0514    1.1065 O   0  0  0  0  0  0  0  0  0  0  0  0
   -5.4200   -0.2969   -0.1263 C   0  0  0  0  0  0  0  0  0  0  0  0
   -4.0233   -0.7695    0.2818 C   0  0  0  0  0  0  0  0  0  0  0  0
   -3.1042    0.0005   -0.6783 C   0  0  0  0  0  0  0  0  0  0  0  0
   -3.0162    1.3692   -0.0450 C   0  0  0  0  0  0  0  0  0  0  0  0
   -4.3913    1.9954    0.1206 C   0  0  0  0  0  0  0  0  0  0  0  0
   -5.4418    1.1318   -0.4989 C   0  0  0  0  0  0  0  0  0  0  0  0
   -1.7750   -0.6188   -0.8661 C   0  0  0  0  0  0  0  0  0  0  0  0
   -0.9464   -0.7132    0.2299 N   0  0  0  0  0  0  0  0  0  0  0  0
    2.2481   -1.0222    0.8075 C   0  0  0  0  0  0  0  0  0  0  0  0
    1.0020   -0.4162    1.9749 S   0  0  0  0  0  0  0  0  0  0  0  0
   -0.1557    0.3156    0.7266 C   0  0  0  0  0  0  0  0  0  0  0  0
    0.9552    0.7372   -0.2547 C   0  0  0  0  0  0  0  0  0  0  0  0
    1.7072   -0.5409   -0.5240 C   0  0  0  0  0  0  0  0  0  0  0  0
    3.6056   -0.3608    1.0034 C   0  0  0  0  0  0  0  0  0  0  0  0
    3.9925   -0.6238    2.3159 O   0  0  0  0  0  0  0  0  0  0  0  0
    4.5240   -1.1095    0.1717 N   0  0  0  0  0  0  0  0  0  0  0  0
    5.5044   -0.1866   -0.4873 C   0  0  1  0  0  0  0  0  0  0  0  0
    6.2477    0.4082    0.6123 C   0  0  0  0  0  0  0  0  0  0  0  0
    7.3494    1.3567    0.5163 C   0  0  0  0  0  0  0  0  0  0  0  0
    8.6299    0.8618   -0.0246 C   0  0  0  0  0  0  0  0  0  0  0  0
    9.0896   -0.2003    0.7929 O   0  0  0  0  0  0  0  0  0  0  0  0
    8.7428    0.4847   -1.3178 O   0  0  0  0  0  0  0  0  0  0  0  0
    6.1388   -0.9969   -1.5420 C   0  0  0  0  0  0  0  0  0  0  0  0
    5.0273   -1.5065   -2.3333 O   0  0  0  0  0  0  0  0  0  0  0  0
    6.8108   -2.1094   -1.0979 O   0  0  0  0  0  0  0  0  0  0  0  0
   -0.9397   -1.9448    0.9680 C   0  0  0  0  0  0  0  0  0  0  0  0
   -6.7233    1.7640   -0.3878 N   0  0  0  0  0  0  0  0  0  0  0  0
   -7.7451    1.1641    0.3247 C   0  0  0  0  0  0  0  0  0  0  0  0
   -9.0795    1.5809   -0.3185 C   0  0  0  0  0  0  0  0  0  0  0  0
   -7.7427   -0.2883    0.3211 N   0  0  0  0  0  0  0  0  0  0  0  0
   -6.4526   -0.6672    0.8995 C   0  0  0  0  0  0  0  0  0  0  0  0
   -6.4575   -2.0514    1.1065 O   0  0  0  0  0  0  0  0  0  0  0  0
   -5.4200   -0.2969   -0.1263 C   0  0  0  0  0  0  0  0  0  0  0  0
   -4.0233   -0.7695    0.2818 C   0  0  0  0  0  0  0  0  0  0  0  0
   -3.1042    0.0005   -0.6783 C   0  0  0  0  0  0  0  0  0  0  0  0
   -3.0162    1.3692   -0.0450 C   0  0  0  0  0  0  0  0  0  0  0  0
   -4.3913    1.9954    0.1206 C   0  0  0  0  0  0  0  0  0  0  0  0
   -5.4418    1.1318   -0.4989 C   0  0  0  0  0  0  0  0  0  0  0  0
   -1.7750   -0.6188   -0.8661 C   0  0  0  0  0  0  0  0  0  0  0  0
   -0.9464   -0.7132    0.2299 N   0  0  0  0  0  0  0  0  0  0  0  0
    2.2481   -1.0222    0.8075 C   0  0  0  0  0  0  0  0  0  0  0  0
    1.0020   -0.4162    1.9749 S   0  0  0  0  0  0  0  0  0  0  0  0
   -0.1557    0.3156    0.7266 C   0  0  0  0  0  0  0  0  0  0  0  0
    0.9552    0.7372   -0.2547 C   0  0  0  0  0  0  0  0  0  0  0  0
    1.7072   -0.5409   -0.5240 C   0  0  0  0  0  0  0  0  0  0  0  0
    3.6056   -0.3608    1.0034 C   0  0  0  0  0  0  0  0  0  0  0  0
    3.9925   -0.6238    2.3159 O   0  0  0  0  0  0  0  0  0  0  0  0
    4.5240   -1.1095    0.1717 N   0  0  0  0  0  0  0  0  0  0  0  0
    5.5044   -0.1866   -0.4873 C   0  0  1  0  0  0  0  0  0  0  0  0
    6.2477    0.4082    0.6123 C   0  0  0  0  0  0  0  0  0  0  0  0
    7.3494    1.3567    0.5163 C   0  0  0  0  0  0  0  0  0  0  0  0
    8.6299    0.8618   -0.0246 C   0  0  0  0  0  0  0  0  0  0  0  0
    9.0896   -0.2003    0.7929 O   0  0  0  0  0  0  0  0  0  0  0  0
    8.7428    0.4847   -1.3178 O   0  0  0  0  0  0  0  0  0  0  0  0
    6.1388   -0.9969   -1.5420 C   0  0  0  0  0  0  0  0  0  0  0  0
    5.0273   -1.5065   -2.3333 O   0  0  0  0  0  0  0  0  0  0  0  0
    6.8108   -2.1094   -1.0979 O   0  0  0  0  0  0  0  0  0  0  0  0
   -0.9397   -1.9448    0.9680 C   0  0  0  0  0  0  0  0  0  0  0  0
   -6.7233    1.7640   -0.3878 N   0  0  0  0  0  0  0  0  0  0  0  0
   -7.7451    1.1641    0.3247 C   0  0  0  0  0  0  0  0  0  0  0  0
   -9.0795    1.5809   -0.3185 C   0  0  0  0  0  0  0  0  0  0  0  0
   -7.7427   -0.2883    0.3211 N   0  0  0  0  0  0  0  0  0  0  0  0
   -6.4526   -0.6672    0.8995 C   0  0  0  0  0  0  0  0  0  0  0  0
   -6.4575   -2.0514    1.1065 O   0  0  0  0  0  0  0  0  0  0  0  0
   -5.4200   -0.2969   -0.1263 C   0  0  0  0  0  0  0  0  0  0  0  0
   -4.0233   -0.7695    0.2818 C   0  0  0  0  0  0  0  0  0  0  0  0
   -3.1042    0.0005   -0.6783 C   0  0  0  0  0  0  0  0  0  0  0  0
   -3.0162    1.3692   -0.0450 C   0  0  0  0  0  0  0  0  0  0  0  0
   -4.3913    1.9954    0.1206 C   0  0  0  0  0  0  0  0  0  0  0  0
   -5.4418    1.1318   -0.4989 C   0  0  0  0  0  0  0  0  0  0  0  0
   -1.7750   -0.6188   -0.8661 C   0  0  0  0  0  0  0  0  0  0  0  0
   -0.9464   -0.7132    0.2299 N   0  0  0  0  0  0  0  0  0  0  0  0
    2.2481   -1.0222    0.8075 C   0  0  0  0  0  0  0  0  0  0  0  0
    1.0020   -0.4162    1.9749 S   0  0  0  0  0  0  0  0  0  0  0  0
   -0.1557    0.3156    0.7266 C   0  0  0  0  0  0  0  0  0  0  0  0
    0.9552    0.7372   -0.2547 C   0  0  0  0  0  0  0  0  0  0  0  0
    1.7072   -0.5409   -0.5240 C   0  0  0  0  0  0  0  0  0  0  0  0
    3.6056   -0.3608    1.0034 C   0  0  0  0  0  0  0  0  0  0  0  0
    3.9925   -0.6238    2.3159 O   0  0  0  0  0  0  0  0  0  0  0  0
    4.5240   -1.1095    0.1717 N   0  0  0  0  0  0  0  0  0  0  0  0
    5.5044   -0.1866   -0.4873 C   0  0  1  0  0  0  0  0  0  0  0  0
    6.2477    0.4082    0.6123 C   0  0  0  0  0  0  0  0  0  0  0  0
    7.3494    1.3567    0.5163 C   0  0  0  0  0  0  0  0  0  0  0  0
    8.6299    0.8618   -0.0246 C   0  0  0  0  0  0  0  0  0  0  0  0
    9.0896   -0.2003    0.7929 O   0  0  0  0  0  0  0  0  0  0  0  0
    8.7428    0.4847   -1.3178 O   0  0  0  0  0  0  0  0  0  0  0  0
    6.1388   -0.9969   -1.5420 C   0  0  0  0  0  0  0  0  0  0  0  0
    5.0273   -1.5065   -2.3333 O   0  0  0  0  0  0  0  0  0  0  0  0
    6.8108   -2.1094   -1.0979 O   0  0  0  0  0  0  0  0  0  0  0  0
   -0.9397   -1.9448    0.9680 C   0  0  0  0  0  0  0  0  0  0  0  0
   -6.7233    1.7640   -0.3878 N   0  0  0  0  0  0  0  0  0  0  0  0
   -7.7451    1.1641    0.3247 C   0  0  0  0  0  0  0  0  0  0  0  0
   -9.0795    1.5809   -0.3185 C   0  0  0  0  0  0  0  0  0  0  0  0
   -7.7427   -0.2883    0.3211 N   0  0  0  0  0  0  0  0  0  0  0  0
   -6.4526   -0.6672    0.8995 C   0  0  0  0  0  0  0  0  0  0  0  0
   -6.4575   -2.0514    1.1065 O   0  0  0  0  0  0  0  0  0  0  0  0
   -5.4200   -0.2969   -0.1263 C   0  0  0  0  0  0  0  0  0  0  0  0
   -4.0233   -0.7695    0.2818 C   0  0  0  0  0  0  0  0  0  0  0  0
   -3.1042    0.0005   -0.6783 C   0  0  0  0  0  0  0  0  0  0  0  0
   -3.0162    1.3692   -0.0450 C   0  0  0  0  0  0  0  0  0  0  0  0
   -4.3913    1.9954    0.1206 C   0  0  0  0  0  0  0  0  0  0  0  0
   -5.4418    1.1318   -0.4989 C   0  0  0  0  0  0  0  0  0  0  0  0
   -1.7750   -0.6188   -0.8661 C   0  0  0  0  0  0  0  0  0  0  0  0
   -0.9464   -0.7132    0.2299 N   0  0  0  0  0  0  0  0  0  0  0  0
    2.2481   -1.0222    0.8075 C   0  0  0  0  0  0  0  0  0  0  0  0
    1.0020   -0.4162    1.9749 S   0  0  0  0  0  0  0  0  0  0  0  0
   -0.1557    0.3156    0.7266 C   0  0  0  0  0  0  0  0  0  0  0  0
    0.9552    0.7372   -0.2547 C   0  0  0  0  0  0  0  0  0  0  0  0
    1.7072   -0.5409   -0.5240 C   0  0  0  0  0  0  0  0  0  0  0  0
    3.6056   -0.3608    1.0034 C   0  0  0  0  0  0  0  0  0  0  0  0
    3.9925   -0.6238    2.3159 O   0  0  0  0  0  0  0  0  0  0  0  0
    4.5240   -1.1095    0.1717 N   0  0  0  0  0  0  0  0  0  0  0  0
    5.5044   -0.1866   -0.4873 C   0  0  1  0  0  0  0  0  0  0  0  0
    6.2477    0.4082    0.6123 C   0  0  0  0  0  0  0  0  0  0  0  0
    7.3494    1.3567    0.5163 C   0  0  0  0  0  0  0  0  0  0  0  0
    8.6299    0.8618   -0.0246 C   0  0  0  0  0  0  0  0  0  0  0  0
    9.0896   -0.2003    0.7929 O   0  0  0  0  0  0  0  0  0  0  0  0
    8.7428    0.4847   -1.3178 O   0  0  0  0  0  0  0  0  0  0  0  0
    6.1388   -0.9969   -1.5420 C   0  0  0  0  0  0  0  0  0  0  0  0
    5.0273   -1.5065   -2.3333 O   0  0  0  0  0  0  0  0  0  0  0  0
    6.8108   -2.1094   -1.0979 O   0  0  0  0  0  0  0  0  0  0  0  0
   -0.9397   -1.9448    0.9680 C   0  0  0  0  0  0  0  0  0  0  0  0
   -6.8866    2.5907   -0.9450 H   0  0  0  0  0  0  0  0  0  0  0  0
   -7.8213    1.4683    1.3932 H   0  0  0  0  0  0  0  0  0  0  0  0
   -8.8685    1.6025   -1.4082 H   0  0  0  0  0  0  0  0  0  0  0  0
   -9.3003    2.6188   -0.0358 H   0  0  0  0  0  0  0  0  0  0  0  0
   -9.8802    0.8740   -0.0959 H   0  0  0  0  0  0  0  0  0  0  0  0
   -7.7558   -0.6416   -0.6687 H   0  0  0  0  0  0  0  0  0  0  0  0
   -6.2854   -0.1584    1.8464 H   0  0  0  0  0  0  0  0  0  0  0  0
   -6.5796   -2.5094    0.2295 H   0  0  0  0  0  0  0  0  0  0  0  0
   -5.6625   -0.9532   -1.0204 H   0  0  0  0  0  0  0  0  0  0  0  0
   -3.8257   -0.3935    1.2930 H   0  0  0  0  0  0  0  0  0  0  0  0
   -3.9176   -1.8469    0.1900 H   0  0  0  0  0  0  0  0  0  0  0  0
   -3.6149    0.0384   -1.6743 H   0  0  0  0  0  0  0  0  0  0  0  0
   -2.7088    1.1780    1.0444 H   0  0  0  0  0  0  0  0  0  0  0  0
   -2.2762    1.9994   -0.5139 H   0  0  0  0  0  0  0  0  0  0  0  0
   -4.3457    2.9710   -0.4335 H   0  0  0  0  0  0  0  0  0  0  0  0
   -4.6387    2.1684    1.1950 H   0  0  0  0  0  0  0  0  0  0  0  0
   -5.2204    1.1677   -1.6194 H   0  0  0  0  0  0  0  0  0  0  0  0
   -1.3219   -0.0896   -1.7592 H   0  0  0  0  0  0  0  0  0  0  0  0
   -1.9180   -1.6792   -1.3106 H   0  0  0  0  0  0  0  0  0  0  0  0
    2.3290   -2.1213    0.8226 H   0  0  0  0  0  0  0  0  0  0  0  0
   -0.6054    1.2053    1.1125 H   0  0  0  0  0  0  0  0  0  0  0  0
    1.6174    1.4105    0.3236 H   0  0  0  0  0  0  0  0  0  0  0  0
    0.6039    1.2424   -1.1309 H   0  0  0  0  0  0  0  0  0  0  0  0
    0.9804   -1.2455   -0.9816 H   0  0  0  0  0  0  0  0  0  0  0  0
    2.5164   -0.3046   -1.2483 H   0  0  0  0  0  0  0  0  0  0  0  0
    3.5400    0.6997    0.7856 H   0  0  0  0  0  0  0  0  0  0  0  0
    3.8740   -1.5892    2.4955 H   0  0  0  0  0  0  0  0  0  0  0  0
    5.1019   -1.7889    0.7045 H   0  0  0  0  0  0  0  0  0  0  0  0
    4.8389    0.5954   -0.9762 H   0  0  0  0  0  0  0  0  0  0  0  0
    5.4577    0.9241    1.2860 H   0  0  0  0  0  0  0  0  0  0  0  0
    6.5510   -0.4636    1.3177 H   0  0  0  0  0  0  0  0  0  0  0  0
    6.9938    2.2824   -0.0575 H   0  0  0  0  0  0  0  0  0  0  0  0
    7.5688    1.8390    1.5386 H   0  0  0  0  0  0  0  0  0  0  0  0
    9.3750    1.7232    0.1551 H   0  0  0  0  0  0  0  0  0  0  0  0
   10.0637   -0.0972    0.8924 H   0  0  0  0  0  0  0  0  0  0  0  0
    9.0565   -0.4645   -1.4363 H   0  0  0  0  0  0  0  0  0  0  0  0
    6.7371   -0.4023   -2.2961 H   0  0  0  0  0  0  0  0  0  0  0  0
    4.6065   -0.7321   -2.7913 H   0  0  0  0  0  0  0  0  0  0  0  0
    6.4041   -2.9720   -1.2948 H   0  0  0  0  0  0  0  0  0  0  0  0
   -1.7456   -1.8769    1.7551 H   0  0  0  0  0  0  0  0  0  0  0  0
   -0.0054   -2.1812    1.4737 H   0  0  0  0  0  0  0  0  0  0  0  0
   -1.1931   -2.8356    0.3228 H   0  0  0  0  0  0  0  0  0  0  0  0
   -6.8866    2.5907   -0.9450 H   0  0  0  0  0  0  0  0  0  0  0  0
   -7.8213    1.4683    1.3932 H   0  0  0  0  0  0  0  0  0  0  0  0
   -8.8685    1.6025   -1.4082 H   0  0  0  0  0  0  0  0  0  0  0  0
   -9.3003    2.6188   -0.0358 H   0  0  0  0  0  0  0  0  0  0  0  0
   -9.8802    0.8740   -0.0959 H   0  0  0  0  0  0  0  0  0  0  0  0
   -7.7558   -0.6416   -0.6687 H   0  0  0  0  0  0  0  0  0  0  0  0
   -6.2854   -0.1584    1.8464 H   0  0  0  0  0  0  0  0  0  0  0  0
   -6.5796   -2.5094    0.2295 H   0  0  0  0  0  0  0  0  0  0  0  0
   -5.6625   -0.9532   -1.0204 H   0  0  0  0  0  0  0  0  0  0  0  0
   -3.8257   -0.3935    1.2930 H   0  0  0  0  0  0  0  0  0  0  0  0
   -3.9176   -1.8469    0.1900 H   0  0  0  0  0  0  0  0  0  0  0  0
   -3.6149    0.0384   -1.6743 H   0  0  0  0  0  0  0  0  0  0  0  0
   -2.7088    1.1780    1.0444 H   0  0  0  0  0  0  0  0  0  0  0  0
   -2.2762    1.9994   -0.5139 H   0  0  0  0  0  0  0  0  0  0  0  0
   -4.3457    2.9710   -0.4335 H   0  0  0  0  0  0  0  0  0  0  0  0
   -4.6387    2.1684    1.1950 H   0  0  0  0  0  0  0  0  0  0  0  0
   -5.2204    1.1677   -1.6194 H   0  0  0  0  0  0  0  0  0  0  0  0
   -1.3219   -0.0896   -1.7592 H   0  0  0  0  0  0  0  0  0  0  0  0
   -1.9180   -1.6792   -1.3106 H   0  0  0  0  0  0  0  0  0  0  0  0
    2.3290   -2.1213    0.8226 H   0  0  0  0  0  0  0  0  0  0  0  0
   -0.6054    1.2053    1.1125 H   0  0  0  0  0  0  0  0  0  0  0  0
    1.6174    1.4105    0.3236 H   0  0  0  0  0  0  0  0  0  0  0  0
    0.6039    1.2424   -1.1309 H   0  0  0  0  0  0  0  0  0  0  0  0
    0.9804   -1.2455   -0.9816 H   0  0  0  0  0  0  0  0  0  0  0  0
    2.5164   -0.3046   -1.2483 H   0  0  0  0  0  0  0  0  0  0  0  0
    3.5400    0.6997    0.7856 H   0  0  0  0  0  0  0  0  0  0  0  0
    3.8740   -1.5892    2.4955 H   0  0  0  0  0  0  0  0  0  0  0  0
    5.1019   -1.7889    0.7045 H   0  0  0  0  0  0  0  0  0  0  0  0
    4.8389    0.5954   -0.9762 H   0  0  0  0  0  0  0  0  0  0  0  0
    5.4577    0.9241    1.2860 H   0  0  0  0  0  0  0  0  0  0  0  0
    6.5510   -0.4636    1.3177 H   0  0  0  0  0  0  0  0  0  0  0  0
    6.9938    2.2824   -0.0575 H   0  0  0  0  0  0  0  0  0  0  0  0
    7.5688    1.8390    1.5386 H   0  0  0  0  0  0  0  0  0  0  0  0
    9.3750    1.7232    0.1551 H   0  0  0  0  0  0  0  0  0  0  0  0
   10.0637   -0.0972    0.8924 H   0  0  0  0  0  0  0  0  0  0  0  0
    9.0565   -0.4645   -1.4363 H   0  0  0  0  0  0  0  0  0  0  0  0
    6.7371   -0.4023   -2.2961 H   0  0  0  0  0  0  0  0  0  0  0  0
    4.6065   -0.7321   -2.7913 H   0  0  0  0  0  0  0  0  0  0  0  0
    6.4041   -2.9720   -1.2948 H   0  0  0  0  0  0  0  0  0  0  0  0
   -1.7456   -1.8769    1.7551 H   0  0  0  0  0  0  0  0  0  0  0  0
   -0.0054   -2.1812    1.4737 H   0  0  0  0  0  0  0  0  0  0  0  0
   -1.1931   -2.8356    0.3228 H   0  0  0  0  0  0  0  0  0  0  0  0
   -6.8866    2.5907   -0.9450 H   0  0  0  0  0  0  0  0  0  0  0  0
   -7.8213    1.4683    1.3932 H   0  0  0  0  0  0  0  0  0  0  0  0
   -8.8685    1.6025   -1.4082 H   0  0  0  0  0  0  0  0  0  0  0  0
   -9.3003    2.6188   -0.0358 H   0  0  0  0  0  0  0  0  0  0  0  0
   -9.8802    0.8740   -0.0959 H   0  0  0  0  0  0  0  0  0  0  0  0
   -7.7558   -0.6416   -0.6687 H   0  0  0  0  0  0  0  0  0  0  0  0
   -6.2854   -0.1584    1.8464 H   0  0  0  0  0  0  0  0  0  0  0  0
   -6.5796   -2.5094    0.2295 H   0  0  0  0  0  0  0  0  0  0  0  0
   -5.6625   -0.9532   -1.0204 H   0  0  0  0  0  0  0  0  0  0  0  0
   -3.8257   -0.3935    1.2930 H   0  0  0  0  0  0  0  0  0  0  0  0
   -3.9176   -1.8469    0.1900 H   0  0  0  0  0  0  0  0  0  0  0  0
   -3.6149    0.0384   -1.6743 H   0  0  0  0  0  0  0  0  0  0  0  0
   -2.7088    1.1780    1.0444 H   0  0  0  0  0  0  0  0  0  0  0  0
   -2.2762    1.9994   -0.5139 H   0  0  0  0  0  0  0  0  0  0  0  0
   -4.3457    2.9710   -0.4335 H   0  0  0  0  0  0  0  0  0  0  0  0
   -4.6387    2.1684    1.1950 H   0  0  0  0  0  0  0  0  0  0  0  0
   -5.2204    1.1677   -1.6194 H   0  0  0  0  0  0  0  0  0  0  0  0
   -1.3219   -0.0896   -1.7592 H   0  0  0  0  0  0  0  0  0  0  0  0
   -1.9180   -1.6792   -1.3106 H   0  0  0  0  0  0  0  0  0  0  0  0
    2.3290   -2.1213    0.8226 H   0  0  0  0  0  0  0  0  0  0  0  0
   -0.6054    1.2053    1.1125 H   0  0  0  0  0  0  0  0  0  0  0  0
    1.6174    1.4105    0.3236 H   0  0  0  0  0  0  0  0  0  0  0  0
    0.6039    1.2424   -1.1309 H   0  0  0  0  0  0  0  0  0  0  0  0
    0.9804   -1.2455   -0.9816 H   0  0  0  0  0  0  0  0  0  0  0  0
    2.5164   -0.3046   -1.2483 H   0  0  0  0  0  0  0  0  0  0  0  0
    3.5400    0.6997    0.7856 H   0  0  0  0  0  0  0  0  0  0  0  0
    3.8740   -1.5892    2.4955 H   0  0  0  0  0  0  0  0  0  0  0  0
    5.1019   -1.7889    0.7045 H   0  0  0  0  0  0  0  0  0  0  0  0
    4.8389    0.5954   -0.9762 H   0  0  0  0  0  0  0  0  0  0  0  0
    5.4577    0.9241    1.2860 H   0  0  0  0  0  0  0  0  0  0  0  0
    6.5510   -0.4636    1.3177 H   0  0  0  0  0  0  0  0  0  0  0  0
    6.9938    2.2824   -0.0575 H   0  0  0  0  0  0  0  0  0  0  0  0
    7.5688    1.8390    1.5386 H   0  0  0  0  0  0  0  0  0  0  0  0
    9.3750    1.7232    0.1551 H   0  0  0  0  0  0  0  0  0  0  0  0
   10.0637   -0.0972    0.8924 H   0  0  0  0  0  0  0  0  0  0  0  0
    9.0565   -0.4645   -1.4363 H   0  0  0  0  0  0  0  0  0  0  0  0
    6.7371   -0.4023   -2.2961 H   0  0  0  0  0  0  0  0  0  0  0  0
    4.6065   -0.7321   -2.7913 H   0  0  0  0  0  0  0  0  0  0  0  0
    6.4041   -2.9720   -1.2948 H   0  0  0  0  0  0  0  0  0  0  0  0
   -1.7456   -1.8769    1.7551 H   0  0  0  0  0  0  0  0  0  0  0  0
   -0.0054   -2.1812    1.4737 H   0  0  0  0  0  0  0  0  0  0  0  0
   -1.1931   -2.8356    0.3228 H   0  0  0  0  0  0  0  0  0  0  0  0
   -6.8866    2.5907   -0.9450 H   0  0  0  0  0  0  0  0  0  0  0  0
   -7.8213    1.4683    1.3932 H   0  0  0  0  0  0  0  0  0  0  0  0
   -8.8685    1.6025   -1.4082 H   0  0  0  0  0  0  0  0  0  0  0  0
   -9.3003    2.6188   -0.0358 H   0  0  0  0  0  0  0  0  0  0  0  0
   -9.8802    0.8740   -0.0959 H   0  0  0  0  0  0  0  0  0  0  0  0
   -7.7558   -0.6416   -0.6687 H   0  0  0  0  0  0  0  0  0  0  0  0
   -6.2854   -0.1584    1.8464 H   0  0  0  0  0  0  0  0  0  0  0  0
   -6.5796   -2.5094    0.2295 H   0  0  0  0  0  0  0  0  0  0  0  0
   -5.6625   -0.9532   -1.0204 H   0  0  0  0  0  0  0  0  0  0  0  0
   -3.8257   -0.3935    1.2930 H   0  0  0  0  0  0  0  0  0  0  0  0
   -3.9176   -1.8469    0.1900 H   0  0  0  0  0  0  0  0  0  0  0  0
   -3.6149    0.0384   -1.6743 H   0  0  0  0  0  0  0  0  0  0  0  0
   -2.7088    1.1780    1.0444 H   0  0  0  0  0  0  0  0  0  0  0  0
   -2.2762    1.9994   -0.5139 H   0  0  0  0  0  0  0  0  0  0  0  0
   -4.3457    2.9710   -0.4335 H   0  0  0  0  0  0  0  0  0  0  0  0
   -4.6387    2.1684    1.1950 H   0  0  0  0  0  0  0  0  0  0  0  0
   -5.2204    1.1677   -1.6194 H   0  0  0  0  0  0  0  0  0  0  0  0
   -1.3219   -0.0896   -1.7592 H   0  0  0  0  0  0  0  0  0  0  0  0
   -1.9180   -1.6792   -1.3106 H   0  0  0  0  0  0  0  0  0  0  0  0
    2.3290   -2.1213    0.8226 H   0  0  0  0  0  0  0  0  0  0  0  0
   -0.6054    1.2053    1.1125 H   0  0  0  0  0  0  0  0  0  0  0  0
    1.6174    1.4105    0.3236 H   0  0  0  0  0  0  0  0  0  0  0  0
    0.6039    1.2424   -1.1309 H   0  0  0  0  0  0  0  0  0  0  0  0
    0.9804   -1.2455   -0.9816 H   0  0  0  0  0  0  0  0  0  0  0  0
    2.5164   -0.3046   -1.2483 H   0  0  0  0  0  0  0  0  0  0  0  0
    3.5400    0.6997    0.7856 H   0  0  0  0  0  0  0  0  0  0  0  0
    3.8740   -1.5892    2.4955 H   0  0  0  0  0  0  0  0  0  0  0  0
    5.1019   -1.7889    0.7045 H   0  0  0  0  0  0  0  0  0  0  0  0
    4.8389    0.5954   -0.9762 H   0  0  0  0  0  0  0  0  0  0  0  0
    5.4577    0.9241    1.2860 H   0  0  0  0  0  0  0  0  0  0  0  0
    6.5510   -0.4636    1.3177 H   0  0  0  0  0  0  0  0  0  0  0  0
    6.9938    2.2824   -0.0575 H   0  0  0  0  0  0  0  0  0  0  0  0
    7.5688    1.8390    1.5386 H   0  0  0  0  0  0  0  0  0  0  0  0
    9.3750    1.7232    0.1551 H   0  0  0  0  0  0  0  0  0  0  0  0
   10.0637   -0.0972    0.8924 H   0  0  0  0  0  0  0  0  0  0  0  0
    9.0565   -0.4645   -1.4363 H   0  0  0  0  0  0  0  0  0  0  0  0
    6.7371   -0.4023   -2.2961 H   0  0  0  0  0  0  0  0  0  0  0  0
    4.6065   -0.7321   -2.7913 H   0  0  0  0  0  0  0  0  0  0  0  0
    6.4041   -2.9720   -1.2948 H   0  0  0  0  0  0  0  0  0  0  0  0
   -1.7456   -1.8769    1.7551 H   0  0  0  0  0  0  0  0  0  0  0  0
   -0.0054   -2.1812    1.4737 H   0  0  0  0  0  0  0  0  0  0  0  0
   -1.1931   -2.8356    0.3228 H   0  0  0  0  0  0  0  0  0  0  0  0
  1  2  1  0
  2  3  1  0
  2  4  1  0
  4  5  1  0
  5  6  1  0
  5  7  1  0
  7  8  1  0
  8  9  1  0
  9 10  1  0
 10 11  1  0
  1 12  1  0
  7 12  1  0
 11 12  1  0
  9 13  1  0
 13 14  1  0
 15 16  1  0
 14 17  1  0
 16 17  1  0
 17 18  1  0
 15 19  1  0
 18 19  1  0
 15 20  1  0
 20 21  1  0
 20 22  1  0
 22 23  1  0
 23 24  1  0
 24 25  1  0
 25 26  1  0
 26 27  1  0
 26 28  1  0
 23 29  1  0
 29 30  1  0
 29 31  1  0
 14 32  1  0
 33 34  1  0
 34 35  1  0
 34 36  1  0
 36 37  1  0
 37 38  1  0
 37 39  1  0
 39 40  1  0
 40 41  1  0
 41 42  1  0
 42 43  1  0
 33 44  1  0
 39 44  1  0
 43 44  1  0
 41 45  1  0
 45 46  1  0
 47 48  1  0
 46 49  1  0
 48 49  1  0
 49 50  1  0
 47 51  1  0
 50 51  1  0
 47 52  1  0
 52 53  1  0
 52 54  1  0
 54 55  1  0
 55 56  1  0
 56 57  1  0
 57 58  1  0
 58 59  1  0
 58 60  1  0
 55 61  1  0
 61 62  1  0
 61 63  1  0
 46 64  1  0
 65 66  1  0
 66 67  1  0
 66 68  1  0
 68 69  1  0
 69 70  1  0
 69 71  1  0
 71 72  1  0
 72 73  1  0
 73 74  1  0
 74 75  1  0
 65 76  1  0
 71 76  1  0
 75 76  1  0
 73 77  1  0
 77 78  1  0
 79 80  1  0
 78 81  1  0
 80 81  1  0
 81 82  1  0
 79 83  1  0
 82 83  1  0
 79 84  1  0
 84 85  1  0
 84 86  1  0
 86 87  1  0
 87 88  1  0
 88 89  1  0
 89 90  1  0
 90 91  1  0
 90 92  1  0
 87 93  1  0
 93 94  1  0
 93 95  1  0
 78 96  1  0
 97 98  1  0
 98 99  1  0
 98100  1  0
100101  1  0
101102  1  0
101103  1  0
103104  1  0
104105  1  0
105106  1  0
106107  1  0
 97108  1  0
103108  1  0
107108  1  0
105109  1  0
109110  1  0
111112  1  0
110113  1  0
112113  1  0
113114  1  0
111115  1  0
114115  1  0
111116  1  0
116117  1  0
116118  1  0
118119  1  0
119120  1  0
120121  1  0
121122  1  0
122123  1  0
122124  1  0
119125  1  0
125126  1  0
125127  1  0
110128  1  0
  1129  1  0
  2130  1  0
  3131  1  0
  3132  1  0
  3133  1  0
  4134  1  0
  5135  1  0
  6136  1  0
  7137  1  0
  8138  1  0
  8139  1  0
  9140  1  0
 10141  1  0
 10142  1  0
 11143  1  0
 11144  1  0
 12145  1  0
 13146  1  0
 13147  1  0
 15148  1  0
 17149  1  0
 18150  1  0
 18151  1  0
 19152  1  0
 19153  1  0
 20154  1  0
 21155  1  0
 22156  1  0
 23157  1  6
 24158  1  0
 24159  1  0
 25160  1  0
 25161  1  0
 26162  1  0
 27163  1  0
 28164  1  0
 29165  1  0
 30166  1  0
 31167  1  0
 32168  1  0
 32169  1  0
 32170  1  0
 33171  1  0
 34172  1  0
 35173  1  0
 35174  1  0
 35175  1  0
 36176  1  0
 37177  1  0
 38178  1  0
 39179  1  0
 40180  1  0
 40181  1  0
 41182  1  0
 42183  1  0
 42184  1  0
 43185  1  0
 43186  1  0
 44187  1  0
 45188  1  0
 45189  1  0
 47190  1  0
 49191  1  0
 50192  1  0
 50193  1  0
 51194  1  0
 51195  1  0
 52196  1  0
 53197  1  0
 54198  1  0
 55199  1  6
 56200  1  0
 56201  1  0
 57202  1  0
 57203  1  0
 58204  1  0
 59205  1  0
 60206  1  0
 61207  1  0
 62208  1  0
 63209  1  0
 64210  1  0
 64211  1  0
 64212  1  0
 65213  1  0
 66214  1  0
 67215  1  0
 67216  1  0
 67217  1  0
 68218  1  0
 69219  1  0
 70220  1  0
 71221  1  0
 72222  1  0
 72223  1  0
 73224  1  0
 74225  1  0
 74226  1  0
 75227  1  0
 75228  1  0
 76229  1  0
 77230  1  0
 77231  1  0
 79232  1  0
 81233  1  0
 82234  1  0
 82235  1  0
 83236  1  0
 83237  1  0
 84238  1  0
 85239  1  0
 86240  1  0
 87241  1  6
 88242  1  0
 88243  1  0
 89244  1  0
 89245  1  0
 90246  1  0
 91247  1  0
 92248  1  0
 93249  1  0
 94250  1  0
 95251  1  0
 96252  1  0
 96253  1  0
 96254  1  0
 97255  1  0
 98256  1  0
 99257  1  0
 99258  1  0
 99259  1  0
100260  1  0
101261  1  0
102262  1  0
103263  1  0
104264  1  0
104265  1  0
105266  1  0
106267  1  0
106268  1  0
107269  1  0
107270  1  0
108271  1  0
109272  1  0
109273  1  0
111274  1  0
113275  1  0
114276  1  0
114277  1  0
115278  1  0
115279  1  0
116280  1  0
117281  1  0
118282  1  0
119283  1  6
120284  1  0
120285  1  0
121286  1  0
121287  1  0
122288  1  0
123289  1  0
124290  1  0
125291  1  0
126292  1  0
127293  1  0
128294  1  0
128295  1  0
128296  1  0
M  END
>  <PDBID>  (1) 
1HVY

>  <PDB ID>  (1) 
1HVY

>  <Generic Name>  (1) 
Raltitrexed

>  <Brand Name>  (1) 
Tomudex

>  <DrugBank ID>  (1) 
DB00293

>  <ATC Codes>  (1) 
L01BA03

>  <Ligand ID>  (1) 
D16

>  <Target Name>  (1) 
Thymidylate synthase

>  <UniProt ID>  (1) 
P04818

>  <PDB ID.1>  (1) 
1HVY

>  <Seq. Identity>  (1) 
100%

$$$$
