PDB_DB00456_08
     RDKit          3D

 56 58  0  0  0  0  0  0  0  0999 V2000
    0.1500   -1.4802   -0.1078 S   0  0  0  0  0  0  0  0  0  0  0  0
   -1.6097   -1.8678    0.2158 C   0  0  0  0  0  0  0  0  0  0  0  0
   -2.3839   -0.6580    0.6682 C   0  0  0  0  0  0  0  0  0  0  0  0
   -3.8017   -1.0546    0.8782 C   0  0  0  0  0  0  0  0  0  0  0  0
   -4.6038    0.0084    1.3421 O   0  0  0  0  0  0  0  0  0  0  0  0
   -5.9236   -0.4166    1.5294 C   0  0  0  0  0  0  0  0  0  0  0  0
   -6.8328    0.2747    0.7524 O   0  0  0  0  0  0  0  0  0  0  0  0
   -6.3225   -0.3801    2.9953 C   0  0  0  0  0  0  0  0  0  0  0  0
   -2.1276    0.5759   -0.1387 C   0  0  0  0  0  0  0  0  0  0  0  0
   -3.0361    0.8070   -1.3241 C   0  0  0  0  0  0  0  0  0  0  0  0
   -4.3737    0.6448   -1.0938 O   0  0  0  0  0  0  0  0  0  0  0  0
   -2.6128    0.1903   -2.4998 O   0  0  0  0  0  0  0  0  0  0  0  0
   -0.8248    0.7771   -0.5027 N   0  0  0  0  0  0  0  0  0  0  0  0
   -0.0614   -0.1081   -1.2728 C   0  0  1  0  0  0  0  0  0  0  0  0
    0.9494    0.9147   -1.4625 C   0  0  1  0  0  0  0  0  0  0  0  0
    0.0219    1.7912   -0.6496 C   0  0  0  0  0  0  0  0  0  0  0  0
    0.7159    2.1666    0.5331 O   0  0  0  0  0  0  0  0  0  0  0  0
    2.2888    0.7547   -1.0020 N   0  0  0  0  0  0  0  0  0  0  0  0
    2.9307   -0.3174   -1.7218 C   0  0  2  0  0  0  0  0  0  0  0  0
    2.0797   -1.3380   -2.0657 O   0  0  0  0  0  0  0  0  0  0  0  0
    4.1415   -0.8764   -0.9941 C   0  0  0  0  0  0  0  0  0  0  0  0
    5.2006    0.1748   -0.7689 C   0  0  0  0  0  0  0  0  0  0  0  0
    6.4043   -0.3515   -0.0649 C   0  0  0  0  0  0  0  0  0  0  0  0
    6.2156   -0.2676    1.4122 C   0  0  0  0  0  0  0  0  0  0  0  0
    5.8759    1.1852    1.7284 C   0  0  0  0  0  0  0  0  0  0  0  0
    4.6086    1.4469    0.4158 S   0  0  0  0  0  0  0  0  0  0  0  0
   -1.9936   -2.2676   -0.7378 H   0  0  0  0  0  0  0  0  0  0  0  0
   -1.6132   -2.6921    0.9483 H   0  0  0  0  0  0  0  0  0  0  0  0
   -1.9808   -0.4606    1.7089 H   0  0  0  0  0  0  0  0  0  0  0  0
   -4.2669   -1.5460   -0.0019 H   0  0  0  0  0  0  0  0  0  0  0  0
   -3.8926   -1.8341    1.6936 H   0  0  0  0  0  0  0  0  0  0  0  0
   -5.9690   -1.4930    1.2437 H   0  0  0  0  0  0  0  0  0  0  0  0
   -7.0790    1.1487    1.0973 H   0  0  0  0  0  0  0  0  0  0  0  0
   -6.7484    0.6036    3.2431 H   0  0  0  0  0  0  0  0  0  0  0  0
   -5.4555   -0.6711    3.6035 H   0  0  0  0  0  0  0  0  0  0  0  0
   -7.1311   -1.1384    3.2033 H   0  0  0  0  0  0  0  0  0  0  0  0
   -2.4098    1.4381    0.5487 H   0  0  0  0  0  0  0  0  0  0  0  0
   -2.9030    1.9138   -1.5653 H   0  0  0  0  0  0  0  0  0  0  0  0
   -4.8324    1.5040   -0.9507 H   0  0  0  0  0  0  0  0  0  0  0  0
   -2.9813    0.7082   -3.2751 H   0  0  0  0  0  0  0  0  0  0  0  0
   -0.4720   -0.5290   -2.2167 H   0  0  0  0  0  0  0  0  0  0  0  0
    0.9450    1.2344   -2.5756 H   0  0  0  0  0  0  0  0  0  0  0  0
   -0.2385    2.7039   -1.2614 H   0  0  0  0  0  0  0  0  0  0  0  0
    0.8616    3.1478    0.5112 H   0  0  0  0  0  0  0  0  0  0  0  0
    2.7929    1.6420   -1.3216 H   0  0  0  0  0  0  0  0  0  0  0  0
    3.3563    0.0675   -2.7030 H   0  0  0  0  0  0  0  0  0  0  0  0
    2.4849   -2.2157   -1.8426 H   0  0  0  0  0  0  0  0  0  0  0  0
    3.7919   -1.2809   -0.0249 H   0  0  0  0  0  0  0  0  0  0  0  0
    4.5390   -1.6958   -1.6097 H   0  0  0  0  0  0  0  0  0  0  0  0
    5.5156    0.6704   -1.6993 H   0  0  0  0  0  0  0  0  0  0  0  0
    7.3139    0.1963   -0.3833 H   0  0  0  0  0  0  0  0  0  0  0  0
    6.5881   -1.4160   -0.3190 H   0  0  0  0  0  0  0  0  0  0  0  0
    7.1950   -0.4497    1.8875 H   0  0  0  0  0  0  0  0  0  0  0  0
    5.4199   -0.9363    1.7630 H   0  0  0  0  0  0  0  0  0  0  0  0
    6.7128    1.8532    1.5348 H   0  0  0  0  0  0  0  0  0  0  0  0
    5.3822    1.2895    2.6994 H   0  0  0  0  0  0  0  0  0  0  0  0
  1  2  1  0
  2  3  1  0
  3  4  1  0
  4  5  1  0
  5  6  1  0
  6  7  1  0
  6  8  1  0
  3  9  1  0
  9 10  1  0
 10 11  1  0
 10 12  1  0
  9 13  1  0
  1 14  1  0
 13 14  1  0
 14 15  1  0
 13 16  1  0
 15 16  1  0
 16 17  1  0
 15 18  1  0
 18 19  1  0
 19 20  1  0
 19 21  1  0
 21 22  1  0
 22 23  1  0
 23 24  1  0
 24 25  1  0
 22 26  1  0
 25 26  1  0
  2 27  1  0
  2 28  1  0
  3 29  1  0
  4 30  1  0
  4 31  1  0
  6 32  1  0
  7 33  1  0
  8 34  1  0
  8 35  1  0
  8 36  1  0
  9 37  1  0
 10 38  1  0
 11 39  1  0
 12 40  1  0
 14 41  1  6
 15 42  1  6
 16 43  1  0
 17 44  1  0
 18 45  1  0
 19 46  1  6
 20 47  1  0
 21 48  1  0
 21 49  1  0
 22 50  1  0
 23 51  1  0
 23 52  1  0
 24 53  1  0
 24 54  1  0
 25 55  1  0
 25 56  1  0
M  END
>  <PDBID>  (1) 
1KVL

>  <PDB ID>  (1) 
1KVL

>  <Generic Name>  (1) 
Cefalotin

>  <Brand Name>  (1) 
Ceporacin#Keflin Add-vantage Inj 1gm/vial#Keflin Neutral Inj 1gm#Keflin Neutral Inj 2gm/vial#Coaxin#Keflin

>  <DrugBank ID>  (1) 
DB00456

>  <ATC Codes>  (1) 
J01DB03

>  <Ligand ID>  (1) 
CLS

>  <Target Name>  (1) 
Beta-lactamase

>  <UniProt ID>  (1) 
P00811

>  <PDB ID.1>  (1) 
1KVL

>  <Seq. Identity>  (1) 
100%

$$$$
