PDB_DB09073_07
     RDKit          3D

 80 84  0  0  0  0  0  0  0  0999 V2000
   -6.2350    1.9693    1.1250 O   0  0  0  0  0  0  0  0  0  0  0  0
   -5.5773    2.4923    0.0282 C   0  0  0  0  0  0  0  0  0  0  0  0
   -6.4202    2.6254   -1.2014 C   0  0  0  0  0  0  0  0  0  0  0  0
   -4.3061    1.8135   -0.3305 C   0  0  0  0  0  0  0  0  0  0  0  0
   -3.2343    1.8121    0.7321 C   0  0  2  0  0  0  0  0  0  0  0  0
   -3.1815    3.0413    1.5620 C   0  0  0  0  0  0  0  0  0  0  0  0
   -1.9386    1.5285   -0.0348 C   0  0  1  0  0  0  0  0  0  0  0  0
   -0.7188    1.6271    0.8026 C   0  0  0  0  0  0  0  0  0  0  0  0
   -0.2086    0.3271    1.2496 N   0  0  0  0  0  0  0  0  0  0  0  0
    0.1698   -0.2905   -0.0539 C   0  0  0  0  0  0  0  0  0  0  0  0
   -0.9914   -0.6302   -0.7805 N   0  0  0  0  0  0  0  0  0  0  0  0
   -2.0968    0.2059   -0.7567 C   0  0  1  0  0  0  0  0  0  0  0  0
   -3.3184   -0.3840   -0.3149 N   0  0  0  0  0  0  0  0  0  0  0  0
   -3.5336   -1.7036   -0.1002 C   0  0  0  0  0  0  0  0  0  0  0  0
   -3.4595   -2.6511   -1.3074 C   0  0  0  0  0  0  0  0  0  0  0  0
   -3.5425   -4.0381   -0.6454 C   0  0  0  0  0  0  0  0  0  0  0  0
   -3.2697   -3.8106    0.8199 C   0  0  0  0  0  0  0  0  0  0  0  0
   -2.5785   -2.4572    0.7897 C   0  0  0  0  0  0  0  0  0  0  0  0
   -4.4675    0.3817   -0.7549 C   0  0  0  0  0  0  0  0  0  0  0  0
   -5.6399   -0.2194   -0.4580 O   0  0  0  0  0  0  0  0  0  0  0  0
    0.9843    0.6185   -0.7824 N   0  0  0  0  0  0  0  0  0  0  0  0
    2.3563    0.7568   -0.3174 C   0  0  0  0  0  0  0  0  0  0  0  0
    2.5739    0.1477    0.9513 N   0  0  0  0  0  0  0  0  0  0  0  0
    3.3788   -0.9864    1.0509 C   0  0  0  0  0  0  0  0  0  0  0  0
    4.5204   -1.1089    0.1045 C   0  0  1  0  0  0  0  0  0  0  0  0
    4.0508   -0.8908   -1.2934 C   0  0  0  0  0  0  0  0  0  0  0  0
    3.2597    0.3357   -1.4088 C   0  0  0  0  0  0  0  0  0  0  0  0
    5.7266   -0.5329    0.4579 N   0  0  0  0  0  0  0  0  0  0  0  0
    5.9470    0.8029    0.7189 C   0  0  0  0  0  0  0  0  0  0  0  0
    7.4045    1.1612    0.3796 C   0  0  0  0  0  0  0  0  0  0  0  0
    7.7828    0.5693   -0.8805 N   0  0  0  0  0  0  0  0  0  0  0  0
    7.7297   -0.8785   -0.8297 C   0  0  0  0  0  0  0  0  0  0  0  0
    6.9215   -1.3135    0.3676 C   0  0  0  0  0  0  0  0  0  0  0  0
   -7.4983    2.8346   -0.9465 H   0  0  0  0  0  0  0  0  0  0  0  0
   -6.0791    3.5161   -1.7838 H   0  0  0  0  0  0  0  0  0  0  0  0
   -6.3229    1.7748   -1.9018 H   0  0  0  0  0  0  0  0  0  0  0  0
   -2.7918    3.9149    1.0344 H   0  0  0  0  0  0  0  0  0  0  0  0
   -2.5879    2.7902    2.4935 H   0  0  0  0  0  0  0  0  0  0  0  0
   -4.2059    3.2009    1.9785 H   0  0  0  0  0  0  0  0  0  0  0  0
   -0.8277    2.3600    1.6122 H   0  0  0  0  0  0  0  0  0  0  0  0
   -4.5410   -1.8751    0.3380 H   0  0  0  0  0  0  0  0  0  0  0  0
   -4.3276   -2.5651   -1.9498 H   0  0  0  0  0  0  0  0  0  0  0  0
   -2.5114   -2.4905   -1.8182 H   0  0  0  0  0  0  0  0  0  0  0  0
   -2.7313   -4.6485   -1.0775 H   0  0  0  0  0  0  0  0  0  0  0  0
   -4.5496   -4.4803   -0.8129 H   0  0  0  0  0  0  0  0  0  0  0  0
   -2.5887   -4.5934    1.2184 H   0  0  0  0  0  0  0  0  0  0  0  0
   -4.2457   -3.7782    1.3503 H   0  0  0  0  0  0  0  0  0  0  0  0
   -1.6057   -2.6828    0.2608 H   0  0  0  0  0  0  0  0  0  0  0  0
   -2.4741   -2.0857    1.8009 H   0  0  0  0  0  0  0  0  0  0  0  0
    0.9513    0.3856   -1.8162 H   0  0  0  0  0  0  0  0  0  0  0  0
    2.7738   -1.9169    0.9965 H   0  0  0  0  0  0  0  0  0  0  0  0
    3.5343   -1.7989   -1.7111 H   0  0  0  0  0  0  0  0  0  0  0  0
    2.6430    0.2780   -2.3741 H   0  0  0  0  0  0  0  0  0  0  0  0
    5.8868    1.0884    1.8238 H   0  0  0  0  0  0  0  0  0  0  0  0
    5.3569    1.5687    0.1585 H   0  0  0  0  0  0  0  0  0  0  0  0
    8.1142    0.8110    1.1488 H   0  0  0  0  0  0  0  0  0  0  0  0
    7.5229    2.2574    0.3027 H   0  0  0  0  0  0  0  0  0  0  0  0
    7.1061    0.8932   -1.6174 H   0  0  0  0  0  0  0  0  0  0  0  0
    8.7709   -1.3126   -0.7812 H   0  0  0  0  0  0  0  0  0  0  0  0
    7.2671   -1.2501   -1.7754 H   0  0  0  0  0  0  0  0  0  0  0  0
    6.6969   -2.4179    0.3079 H   0  0  0  0  0  0  0  0  0  0  0  0
    7.5515   -1.1135    1.2790 H   0  0  0  0  0  0  0  0  0  0  0  0
   -7.1316    1.6680    0.7914 H   0  0  0  0  0  0  0  0  0  0  0  0
   -5.3107    3.5443    0.3252 H   0  0  0  0  0  0  0  0  0  0  0  0
   -3.8681    2.4286   -1.1788 H   0  0  0  0  0  0  0  0  0  0  0  0
   -3.3656    0.9496    1.4422 H   0  0  0  0  0  0  0  0  0  0  0  0
   -1.8895    2.4024   -0.7541 H   0  0  0  0  0  0  0  0  0  0  0  0
    0.1143    2.0530    0.1627 H   0  0  0  0  0  0  0  0  0  0  0  0
   -1.0038   -0.1827    1.6407 H   0  0  0  0  0  0  0  0  0  0  0  0
    0.6614   -1.2373    0.2564 H   0  0  0  0  0  0  0  0  0  0  0  0
   -0.6889   -0.9820   -1.7161 H   0  0  0  0  0  0  0  0  0  0  0  0
   -2.3226    0.5023   -1.8281 H   0  0  0  0  0  0  0  0  0  0  0  0
   -4.3609    0.3686   -1.8872 H   0  0  0  0  0  0  0  0  0  0  0  0
   -5.9049   -0.3537    0.4566 H   0  0  0  0  0  0  0  0  0  0  0  0
    2.4900    1.8568   -0.1626 H   0  0  0  0  0  0  0  0  0  0  0  0
    2.6693    0.8389    1.7384 H   0  0  0  0  0  0  0  0  0  0  0  0
    3.8369   -1.0298    2.0902 H   0  0  0  0  0  0  0  0  0  0  0  0
    4.7402   -2.2656    0.1183 H   0  0  0  0  0  0  0  0  0  0  0  0
    4.9897   -0.7432   -1.9197 H   0  0  0  0  0  0  0  0  0  0  0  0
    3.9698    1.1970   -1.6870 H   0  0  0  0  0  0  0  0  0  0  0  0
  1  2  1  0
  2  3  1  0
  2  4  1  0
  4  5  1  0
  5  6  1  0
  5  7  1  0
  7  8  1  0
  8  9  1  0
  9 10  1  0
 10 11  1  0
  7 12  1  0
 11 12  1  0
 12 13  1  0
 13 14  1  0
 14 15  1  0
 15 16  1  0
 16 17  1  0
 14 18  1  0
 17 18  1  0
  4 19  1  0
 13 19  1  0
 19 20  1  0
 10 21  1  0
 21 22  1  0
 22 23  1  0
 23 24  1  0
 24 25  1  0
 25 26  1  0
 22 27  1  0
 26 27  1  0
 25 28  1  0
 28 29  1  0
 29 30  1  0
 30 31  1  0
 31 32  1  0
 28 33  1  0
 32 33  1  0
  3 34  1  0
  3 35  1  0
  3 36  1  0
  6 37  1  0
  6 38  1  0
  6 39  1  0
  8 40  1  0
 14 41  1  0
 15 42  1  0
 15 43  1  0
 16 44  1  0
 16 45  1  0
 17 46  1  0
 17 47  1  0
 18 48  1  0
 18 49  1  0
 21 50  1  0
 24 51  1  0
 26 52  1  0
 27 53  1  0
 29 54  1  0
 29 55  1  0
 30 56  1  0
 30 57  1  0
 31 58  1  0
 32 59  1  0
 32 60  1  0
 33 61  1  0
 33 62  1  0
  1 63  1  0
  2 64  1  0
  4 65  1  0
  5 66  1  1
  7 67  1  6
  8 68  1  0
  9 69  1  0
 10 70  1  0
 11 71  1  0
 12 72  1  6
 19 73  1  0
 20 74  1  0
 22 75  1  0
 23 76  1  0
 24 77  1  0
 25 78  1  6
 26 79  1  0
 27 80  1  0
M  END
>  <PDBID>  (1) 
5L2I

>  <PDB ID>  (1) 
5L2I

>  <Generic Name>  (1) 
Palbociclib

>  <Brand Name>  (1) 
Ibrance

>  <DrugBank ID>  (1) 
DB09073

>  <ATC Codes>  (1) 
L01XE33

>  <Ligand ID>  (1) 
LQQ

>  <Target Name>  (1) 
Cyclin-dependent kinase 6

>  <UniProt ID>  (1) 
Q00534

>  <PDB ID.1>  (1) 
5L2I

>  <Seq. Identity>  (1) 
100%

$$$$
