PDB_DB00154_04
     RDKit          3D

 64 63  0  0  0  0  0  0  0  0999 V2000
    8.5245    1.0610    1.0511 C   0  0  0  0  0  0  0  0  0  0  0  0
    9.6688    0.4454    0.5825 O   0  0  0  0  0  0  0  0  0  0  0  0
    8.3836    2.2765    0.4060 O   0  0  0  0  0  0  0  0  0  0  0  0
    7.2742    0.1704    0.7204 C   0  0  0  0  0  0  0  0  0  0  0  0
    7.1923    0.0040   -0.7564 C   0  0  0  0  0  0  0  0  0  0  0  0
    6.1712   -0.8718   -1.3082 C   0  0  0  0  0  0  0  0  0  0  0  0
    4.7280   -0.7020   -1.1288 C   0  0  0  0  0  0  0  0  0  0  0  0
    4.1868   -0.8626    0.2435 C   0  0  0  0  0  0  0  0  0  0  0  0
    2.6642   -0.7097    0.2944 C   0  0  0  0  0  0  0  0  0  0  0  0
    2.2243    0.6320   -0.1697 C   0  0  0  0  0  0  0  0  0  0  0  0
    0.7153    0.7798   -0.1130 C   0  0  0  0  0  0  0  0  0  0  0  0
    0.2069    0.6071    1.2746 C   0  0  0  0  0  0  0  0  0  0  0  0
   -1.3172    0.7836    1.3209 C   0  0  0  0  0  0  0  0  0  0  0  0
   -1.9676   -0.2247    0.4543 C   0  0  0  0  0  0  0  0  0  0  0  0
   -3.4961   -0.1482    0.4144 C   0  0  0  0  0  0  0  0  0  0  0  0
   -4.0558   -0.3602    1.7533 C   0  0  0  0  0  0  0  0  0  0  0  0
   -5.5006   -0.3081    1.9837 C   0  0  0  0  0  0  0  0  0  0  0  0
   -6.4326   -1.2339    1.3324 C   0  0  0  0  0  0  0  0  0  0  0  0
   -6.5571   -1.2640   -0.1359 C   0  0  0  0  0  0  0  0  0  0  0  0
   -6.9529    0.0653   -0.7461 C   0  0  0  0  0  0  0  0  0  0  0  0
   -7.0376   -0.1297   -2.2435 C   0  0  0  0  0  0  0  0  0  0  0  0
   -7.4297    1.1503   -2.9524 C   0  0  0  0  0  0  0  0  0  0  0  0
    8.5831    1.2141    2.1390 H   0  0  0  0  0  0  0  0  0  0  0  0
   10.4616    0.6493    1.1159 H   0  0  0  0  0  0  0  0  0  0  0  0
    8.7269    2.2629   -0.5289 H   0  0  0  0  0  0  0  0  0  0  0  0
    7.3208   -0.7537    1.2934 H   0  0  0  0  0  0  0  0  0  0  0  0
    6.4550    0.8086    1.1501 H   0  0  0  0  0  0  0  0  0  0  0  0
    7.1562    1.0551   -1.2173 H   0  0  0  0  0  0  0  0  0  0  0  0
    8.2280   -0.3457   -1.0868 H   0  0  0  0  0  0  0  0  0  0  0  0
    6.4194   -1.9782   -1.0316 H   0  0  0  0  0  0  0  0  0  0  0  0
    6.3720   -0.9353   -2.4521 H   0  0  0  0  0  0  0  0  0  0  0  0
    4.4012    0.2837   -1.5870 H   0  0  0  0  0  0  0  0  0  0  0  0
    4.2235   -1.4697   -1.7998 H   0  0  0  0  0  0  0  0  0  0  0  0
    4.4341   -1.9335    0.5463 H   0  0  0  0  0  0  0  0  0  0  0  0
    4.6565   -0.2251    0.9879 H   0  0  0  0  0  0  0  0  0  0  0  0
    2.4120   -0.8073    1.3816 H   0  0  0  0  0  0  0  0  0  0  0  0
    2.1565   -1.4802   -0.2891 H   0  0  0  0  0  0  0  0  0  0  0  0
    2.5305    0.7830   -1.2410 H   0  0  0  0  0  0  0  0  0  0  0  0
    2.7240    1.4555    0.3973 H   0  0  0  0  0  0  0  0  0  0  0  0
    0.3892    1.7360   -0.5724 H   0  0  0  0  0  0  0  0  0  0  0  0
    0.3243   -0.0152   -0.8161 H   0  0  0  0  0  0  0  0  0  0  0  0
    0.6842    1.3145    1.9527 H   0  0  0  0  0  0  0  0  0  0  0  0
    0.4768   -0.4147    1.6296 H   0  0  0  0  0  0  0  0  0  0  0  0
   -1.6714    0.8815    2.3416 H   0  0  0  0  0  0  0  0  0  0  0  0
   -1.4845    1.7932    0.8398 H   0  0  0  0  0  0  0  0  0  0  0  0
   -1.6999   -1.2465    0.7450 H   0  0  0  0  0  0  0  0  0  0  0  0
   -1.6747   -0.1064   -0.6301 H   0  0  0  0  0  0  0  0  0  0  0  0
   -3.7383    0.8071   -0.0687 H   0  0  0  0  0  0  0  0  0  0  0  0
   -3.7582   -1.0300   -0.2421 H   0  0  0  0  0  0  0  0  0  0  0  0
   -3.5744   -1.3126    2.1531 H   0  0  0  0  0  0  0  0  0  0  0  0
   -3.5776    0.4203    2.4352 H   0  0  0  0  0  0  0  0  0  0  0  0
   -5.6395   -0.4622    3.1131 H   0  0  0  0  0  0  0  0  0  0  0  0
   -5.8240    0.7750    1.8875 H   0  0  0  0  0  0  0  0  0  0  0  0
   -6.2665   -2.3144    1.6559 H   0  0  0  0  0  0  0  0  0  0  0  0
   -7.4936   -1.0675    1.7283 H   0  0  0  0  0  0  0  0  0  0  0  0
   -7.4927   -1.9219   -0.3309 H   0  0  0  0  0  0  0  0  0  0  0  0
   -5.7966   -1.7921   -0.7207 H   0  0  0  0  0  0  0  0  0  0  0  0
   -6.2684    0.8879   -0.4590 H   0  0  0  0  0  0  0  0  0  0  0  0
   -7.9674    0.3637   -0.4040 H   0  0  0  0  0  0  0  0  0  0  0  0
   -7.8211   -0.8860   -2.4339 H   0  0  0  0  0  0  0  0  0  0  0  0
   -6.1066   -0.4804   -2.6882 H   0  0  0  0  0  0  0  0  0  0  0  0
   -8.5188    1.3243   -2.8562 H   0  0  0  0  0  0  0  0  0  0  0  0
   -6.8334    1.9658   -2.4555 H   0  0  0  0  0  0  0  0  0  0  0  0
   -7.1212    1.0367   -4.0120 H   0  0  0  0  0  0  0  0  0  0  0  0
  1  2  1  0
  1  3  1  0
  1  4  1  0
  4  5  1  0
  5  6  1  0
  6  7  1  0
  7  8  1  0
  8  9  1  0
  9 10  1  0
 10 11  1  0
 11 12  1  0
 12 13  1  0
 13 14  1  0
 14 15  1  0
 15 16  1  0
 16 17  1  0
 17 18  1  0
 18 19  1  0
 19 20  1  0
 20 21  1  0
 21 22  1  0
  1 23  1  0
  2 24  1  0
  3 25  1  0
  4 26  1  0
  4 27  1  0
  5 28  1  0
  5 29  1  0
  6 30  1  0
  6 31  1  0
  7 32  1  0
  7 33  1  0
  8 34  1  0
  8 35  1  0
  9 36  1  0
  9 37  1  0
 10 38  1  0
 10 39  1  0
 11 40  1  0
 11 41  1  0
 12 42  1  0
 12 43  1  0
 13 44  1  0
 13 45  1  0
 14 46  1  0
 14 47  1  0
 15 48  1  0
 15 49  1  0
 16 50  1  0
 16 51  1  0
 17 52  1  0
 17 53  1  0
 18 54  1  0
 18 55  1  0
 19 56  1  0
 19 57  1  0
 20 58  1  0
 20 59  1  0
 21 60  1  0
 21 61  1  0
 22 62  1  0
 22 63  1  0
 22 64  1  0
M  END
>  <PDBID>  (1) 
1FE2

>  <PDB ID>  (1) 
1FE2

>  <Generic Name>  (1) 
Dihomo-gamma-linolenic acid

>  <Brand Name>  (1) 
Star GLA#Tona-lean 1000 CLA

>  <DrugBank ID>  (1) 
DB00154

>  <ATC Codes>  (1) 
nan

>  <Ligand ID>  (1) 
LAX

>  <Target Name>  (1) 
Prostaglandin G/H synthase 1

>  <UniProt ID>  (1) 
P23219

>  <PDB ID.1>  (1) 
1FE2

>  <Seq. Identity>  (1) 
89%

$$$$
