PDB_DB00259_06
     RDKit          3D

 27 27  0  0  0  0  0  0  0  0999 V2000
    2.1181    0.0648   -0.1578 C   0  0  0  0  0  0  0  0  0  0  0  0
    3.3918   -0.5264    0.1993 N   0  0  0  0  0  0  0  0  0  0  0  0
    1.2851   -0.9732   -0.8354 C   0  0  0  0  0  0  0  0  0  0  0  0
   -0.1122   -0.5392   -1.1440 C   0  0  0  0  0  0  0  0  0  0  0  0
   -0.6437    0.4605   -0.1380 C   0  0  0  0  0  0  0  0  0  0  0  0
    0.0420    0.2796    1.1995 C   0  0  0  0  0  0  0  0  0  0  0  0
    1.5043    0.6655    1.0570 C   0  0  0  0  0  0  0  0  0  0  0  0
   -2.3181    0.3849    0.0706 S   0  0  0  0  0  0  0  0  0  0  0  0
   -2.9470   -0.9094    0.5806 N   0  0  0  0  0  0  0  0  0  0  0  0
   -2.7607    0.2476   -1.7709 O   0  0  0  0  0  0  0  0  0  0  0  0
   -2.9533    1.7942    0.3425 O   0  0  0  0  0  0  0  0  0  0  0  0
    2.3425    0.8746   -0.8954 H   0  0  0  0  0  0  0  0  0  0  0  0
    3.7974   -0.0062    1.0112 H   0  0  0  0  0  0  0  0  0  0  0  0
    4.0856   -0.4378   -0.5796 H   0  0  0  0  0  0  0  0  0  0  0  0
    1.7952   -1.2264   -1.8008 H   0  0  0  0  0  0  0  0  0  0  0  0
    1.2985   -1.9448   -0.2590 H   0  0  0  0  0  0  0  0  0  0  0  0
   -0.1382   -0.1285   -2.1745 H   0  0  0  0  0  0  0  0  0  0  0  0
   -0.7684   -1.4305   -1.0793 H   0  0  0  0  0  0  0  0  0  0  0  0
   -0.3426    1.4626   -0.5106 H   0  0  0  0  0  0  0  0  0  0  0  0
   -0.0388   -0.7473    1.5900 H   0  0  0  0  0  0  0  0  0  0  0  0
   -0.4121    1.0344    1.8851 H   0  0  0  0  0  0  0  0  0  0  0  0
    2.0217    0.3483    1.9890 H   0  0  0  0  0  0  0  0  0  0  0  0
    1.5429    1.7717    1.0261 H   0  0  0  0  0  0  0  0  0  0  0  0
   -3.7009   -1.3616    0.0098 H   0  0  0  0  0  0  0  0  0  0  0  0
   -3.2982   -0.9444    1.5715 H   0  0  0  0  0  0  0  0  0  0  0  0
   -2.4702   -0.6731   -1.9109 H   0  0  0  0  0  0  0  0  0  0  0  0
   -2.3204    2.4601    0.7242 H   0  0  0  0  0  0  0  0  0  0  0  0
  1  2  1  0
  1  3  1  0
  3  4  1  0
  4  5  1  0
  5  6  1  0
  1  7  1  0
  6  7  1  0
  5  8  1  0
  8  9  1  0
  8 10  1  0
  8 11  1  0
  1 12  1  0
  2 13  1  0
  2 14  1  0
  3 15  1  0
  3 16  1  0
  4 17  1  0
  4 18  1  0
  5 19  1  0
  6 20  1  0
  6 21  1  0
  7 22  1  0
  7 23  1  0
  9 24  1  0
  9 25  1  0
 10 26  1  0
 11 27  1  0
M  END
>  <PDBID>  (1) 
1AJ0

>  <PDB ID>  (1) 
1AJ0

>  <Generic Name>  (1) 
Sulfanilamide

>  <Brand Name>  (1) 
AVC Vaginal#Avc#Avc Cream - 15%#Streptocid

>  <DrugBank ID>  (1) 
DB00259

>  <ATC Codes>  (1) 
J01EB06#D06BA05

>  <Ligand ID>  (1) 
SAN

>  <Target Name>  (1) 
Dihydropteroate synthase

>  <UniProt ID>  (1) 
P0AC13

>  <PDB ID.1>  (1) 
1AJ0

>  <Seq. Identity>  (1) 
100%

$$$$
