PDB_DB09324_08
     RDKit          3D

 32 33  0  0  0  0  0  0  0  0999 V2000
   -2.0137    1.2845   -0.5033 C   0  0  0  0  0  0  0  0  0  0  0  0
   -0.9601    0.6519    0.2457 C   0  0  0  0  0  0  0  0  0  0  0  0
   -0.9377    0.8268    1.7255 C   0  0  0  0  0  0  0  0  0  0  0  0
    0.5915    1.7805   -0.2185 S   0  0  0  0  0  0  0  0  0  0  0  0
    0.5457    3.2433    0.5126 O   0  0  0  0  0  0  0  0  0  0  0  0
    0.5758    1.8477   -2.0672 O   0  0  0  0  0  0  0  0  0  0  0  0
    1.7051    0.5325    0.3830 C   0  0  2  0  0  0  0  0  0  0  0  0
    2.4676   -0.2164   -0.6398 C   0  0  0  0  0  0  0  0  0  0  0  0
    1.9698   -1.4363    0.1309 C   0  0  0  0  0  0  0  0  0  0  0  0
    1.7032   -2.5371   -0.6305 O   0  0  0  0  0  0  0  0  0  0  0  0
    0.8783   -0.6366    0.5946 N   0  0  0  0  0  0  0  0  0  0  0  0
   -0.2730   -0.5366   -0.2719 C   0  0  1  0  0  0  0  0  0  0  0  0
   -1.0971   -1.7688   -0.1870 C   0  0  0  0  0  0  0  0  0  0  0  0
   -1.5281   -1.9391    1.1303 O   0  0  0  0  0  0  0  0  0  0  0  0
   -2.2712   -1.5772   -0.9529 O   0  0  0  0  0  0  0  0  0  0  0  0
   -1.6711    1.5636   -1.5258 H   0  0  0  0  0  0  0  0  0  0  0  0
   -2.8821    0.6515   -0.6170 H   0  0  0  0  0  0  0  0  0  0  0  0
   -2.3076    2.2434   -0.0154 H   0  0  0  0  0  0  0  0  0  0  0  0
   -1.0787    1.8737    2.0301 H   0  0  0  0  0  0  0  0  0  0  0  0
   -1.6558    0.1472    2.1731 H   0  0  0  0  0  0  0  0  0  0  0  0
    0.0827    0.5017    2.0819 H   0  0  0  0  0  0  0  0  0  0  0  0
   -0.3039    3.4675    0.9637 H   0  0  0  0  0  0  0  0  0  0  0  0
   -0.0450    2.5708   -2.2326 H   0  0  0  0  0  0  0  0  0  0  0  0
    2.2945    0.8666    1.2414 H   0  0  0  0  0  0  0  0  0  0  0  0
    2.0832   -0.2059   -1.6785 H   0  0  0  0  0  0  0  0  0  0  0  0
    3.5546   -0.0706   -0.6290 H   0  0  0  0  0  0  0  0  0  0  0  0
    2.6834   -1.6158    0.9745 H   0  0  0  0  0  0  0  0  0  0  0  0
    2.1543   -3.3257   -0.2095 H   0  0  0  0  0  0  0  0  0  0  0  0
    0.0159   -0.3545   -1.3341 H   0  0  0  0  0  0  0  0  0  0  0  0
   -0.6255   -2.6675   -0.5953 H   0  0  0  0  0  0  0  0  0  0  0  0
   -1.0727   -2.7447    1.4674 H   0  0  0  0  0  0  0  0  0  0  0  0
   -2.5823   -2.4205   -1.3463 H   0  0  0  0  0  0  0  0  0  0  0  0
  2  1  1  0
  2  3  1  0
  2  4  1  0
  4  5  1  0
  4  6  1  0
  4  7  1  0
  7  8  1  0
  8  9  1  0
  9 10  1  0
  7 11  1  0
  9 11  1  0
  2 12  1  0
 11 12  1  0
 12 13  1  0
 13 14  1  0
 13 15  1  0
  1 16  1  0
  1 17  1  0
  1 18  1  0
  3 19  1  0
  3 20  1  0
  3 21  1  0
  5 22  1  0
  6 23  1  0
  7 24  1  1
  8 25  1  0
  8 26  1  0
  9 27  1  0
 10 28  1  0
 12 29  1  6
 13 30  1  0
 14 31  1  0
 15 32  1  0
M  END
>  <PDBID>  (1) 
4FH2

>  <PDB ID>  (1) 
4FH2

>  <Generic Name>  (1) 
Sulbactam

>  <Brand Name>  (1) 
Ampicillin Sodium and Sulbactam Sodium#Ampicillin and Sulbactam#Unasyn

>  <DrugBank ID>  (1) 
DB09324

>  <ATC Codes>  (1) 
J01CG01

>  <Ligand ID>  (1) 
0RN

>  <Target Name>  (1) 
Beta-lactamase

>  <UniProt ID>  (1) 
P00807

>  <PDB ID.1>  (1) 
4FH2

>  <Seq. Identity>  (1) 
31%

$$$$
