PDB_DB09079_02
     RDKit          3D

 99103  0  0  0  0  0  0  0  0999 V2000
   -3.9360   -0.6704   -0.8645 C   0  0  0  0  0  0  0  0  0  0  0  0
   -3.7999    0.0824    0.4738 C   0  0  0  0  0  0  0  0  0  0  0  0
   -2.5019   -0.7270   -1.3458 C   0  0  0  0  0  0  0  0  0  0  0  0
   -4.5374   -1.9401   -0.4040 C   0  0  0  0  0  0  0  0  0  0  0  0
   -4.9368   -0.5020    1.2609 C   0  0  0  0  0  0  0  0  0  0  0  0
   -4.0787    1.5457    0.3073 C   0  0  0  0  0  0  0  0  0  0  0  0
   -2.2619   -1.3555   -2.6683 C   0  0  0  0  0  0  0  0  0  0  0  0
   -4.7893   -0.0302    2.6670 C   0  0  0  0  0  0  0  0  0  0  0  0
   -3.8844    2.1373    1.7038 C   0  0  0  0  0  0  0  0  0  0  0  0
   -0.4089   -1.1126   -0.1613 C   0  0  0  0  0  0  0  0  0  0  0  0
   -4.6607    1.4621    2.7660 C   0  0  1  0  0  0  0  0  0  0  0  0
   -3.5957   -3.2927   -3.5479 C   0  0  0  0  0  0  0  0  0  0  0  0
   -2.7242   -1.5399   -5.0403 C   0  0  0  0  0  0  0  0  0  0  0  0
   -0.1035    0.3024    0.2070 C   0  0  0  0  0  0  0  0  0  0  0  0
   -5.9661    2.1534    2.9990 C   0  0  2  0  0  0  0  0  0  0  0  0
    1.3677    0.5678    0.2087 C   0  0  0  0  0  0  0  0  0  0  0  0
    1.7767   -1.9237    0.4396 C   0  0  0  0  0  0  0  0  0  0  0  0
   -5.7551    3.5194    3.0684 O   0  0  0  0  0  0  0  0  0  0  0  0
   -6.5828    1.6887    4.1833 O   0  0  0  0  0  0  0  0  0  0  0  0
    2.2566   -0.5162    0.6774 C   0  0  0  0  0  0  0  0  0  0  0  0
    4.3201    0.7565    0.6680 C   0  0  1  0  0  0  0  0  0  0  0  0
    3.7044   -0.3749   -1.2564 C   0  0  0  0  0  0  0  0  0  0  0  0
    5.6679    0.8141   -0.0387 C   0  0  0  0  0  0  0  0  0  0  0  0
    7.7511    1.9031   -0.2040 C   0  0  0  0  0  0  0  0  0  0  0  0
    6.9491    1.3161    1.8901 C   0  0  0  0  0  0  0  0  0  0  0  0
    8.6846    0.7438    0.0202 C   0  0  0  0  0  0  0  0  0  0  0  0
    8.3748    1.6365    2.2225 C   0  0  0  0  0  0  0  0  0  0  0  0
    9.7776   -0.3006    1.8643 C   0  0  0  0  0  0  0  0  0  0  0  0
    3.6758    1.9676    0.5315 O   0  0  0  0  0  0  0  0  0  0  0  0
    6.5339    1.8293    0.5849 N   0  0  0  0  0  0  0  0  0  0  0  0
    9.2847    0.9416    1.3498 N   0  0  0  0  0  0  0  0  0  0  0  0
    3.5945   -0.3814    0.1836 N   0  0  0  0  0  0  0  0  0  0  0  0
    0.2893   -2.0309    0.8267 C   0  0  0  0  0  0  0  0  0  0  0  0
   -1.7818   -1.3836   -0.2846 N   0  0  0  0  0  0  0  0  0  0  0  0
   -3.0038   -0.6968   -3.8102 C   0  0  0  0  0  0  0  0  0  0  0  0
   -3.5917   -2.7805   -4.9717 C   0  0  0  0  0  0  0  0  0  0  0  0
   -2.3335   -2.8207   -2.8108 C   0  0  0  0  0  0  0  0  0  0  0  0
   -6.5080    4.2514    2.1711 C   0  0  0  0  0  0  0  0  0  0  0  0
   -4.6716   -1.8956    1.0657 N   0  0  0  0  0  0  0  0  0  0  0  0
   -5.8945   -1.9818   -0.8301 O   0  0  0  0  0  0  0  0  0  0  0  0
   -4.5683   -0.0740   -1.5421 H   0  0  0  0  0  0  0  0  0  0  0  0
   -2.8484   -0.0832    0.9650 H   0  0  0  0  0  0  0  0  0  0  0  0
   -2.1619    0.3169   -1.3628 H   0  0  0  0  0  0  0  0  0  0  0  0
   -4.0249   -2.8689   -0.6360 H   0  0  0  0  0  0  0  0  0  0  0  0
   -5.9087   -0.2626    0.8010 H   0  0  0  0  0  0  0  0  0  0  0  0
   -3.2669    1.9825   -0.3150 H   0  0  0  0  0  0  0  0  0  0  0  0
   -5.0740    1.7392   -0.0991 H   0  0  0  0  0  0  0  0  0  0  0  0
   -1.1691   -1.0949   -2.9401 H   0  0  0  0  0  0  0  0  0  0  0  0
   -3.9513   -0.5359    3.1448 H   0  0  0  0  0  0  0  0  0  0  0  0
   -5.6948   -0.3037    3.2529 H   0  0  0  0  0  0  0  0  0  0  0  0
   -4.1721    3.2053    1.6490 H   0  0  0  0  0  0  0  0  0  0  0  0
   -2.7892    2.1157    1.9251 H   0  0  0  0  0  0  0  0  0  0  0  0
    0.0945   -1.2836   -1.1588 H   0  0  0  0  0  0  0  0  0  0  0  0
   -4.0696    1.6304    3.7285 H   0  0  0  0  0  0  0  0  0  0  0  0
   -4.5164   -3.0909   -3.0163 H   0  0  0  0  0  0  0  0  0  0  0  0
   -3.5069   -4.4055   -3.6026 H   0  0  0  0  0  0  0  0  0  0  0  0
   -1.6625   -1.8928   -5.0759 H   0  0  0  0  0  0  0  0  0  0  0  0
   -2.9043   -0.9658   -5.9735 H   0  0  0  0  0  0  0  0  0  0  0  0
   -0.5587    1.0595   -0.4695 H   0  0  0  0  0  0  0  0  0  0  0  0
   -0.5657    0.5279    1.2051 H   0  0  0  0  0  0  0  0  0  0  0  0
   -6.6653    1.9239    2.1963 H   0  0  0  0  0  0  0  0  0  0  0  0
    1.6466    0.9718   -0.7967 H   0  0  0  0  0  0  0  0  0  0  0  0
    1.4912    1.4680    0.8988 H   0  0  0  0  0  0  0  0  0  0  0  0
    2.3888   -2.6121    1.0349 H   0  0  0  0  0  0  0  0  0  0  0  0
    1.7919   -2.1505   -0.6401 H   0  0  0  0  0  0  0  0  0  0  0  0
   -5.9740    1.7189    4.9563 H   0  0  0  0  0  0  0  0  0  0  0  0
    2.3439   -0.3761    1.8120 H   0  0  0  0  0  0  0  0  0  0  0  0
    4.5300    0.6330    1.7882 H   0  0  0  0  0  0  0  0  0  0  0  0
    3.5764    0.6498   -1.6780 H   0  0  0  0  0  0  0  0  0  0  0  0
    2.9876   -1.0253   -1.7811 H   0  0  0  0  0  0  0  0  0  0  0  0
    4.7299   -0.7539   -1.4963 H   0  0  0  0  0  0  0  0  0  0  0  0
    6.1699   -0.1576    0.0100 H   0  0  0  0  0  0  0  0  0  0  0  0
    5.4725    1.0900   -1.1014 H   0  0  0  0  0  0  0  0  0  0  0  0
    8.2554    2.8485    0.0978 H   0  0  0  0  0  0  0  0  0  0  0  0
    7.4900    1.9527   -1.2908 H   0  0  0  0  0  0  0  0  0  0  0  0
    6.8919    0.1940    1.8134 H   0  0  0  0  0  0  0  0  0  0  0  0
    6.2495    1.6675    2.6657 H   0  0  0  0  0  0  0  0  0  0  0  0
    9.4672    0.7543   -0.7493 H   0  0  0  0  0  0  0  0  0  0  0  0
    8.1810   -0.2349    0.0836 H   0  0  0  0  0  0  0  0  0  0  0  0
    8.5705    2.7430    2.2237 H   0  0  0  0  0  0  0  0  0  0  0  0
    8.5384    1.2574    3.2657 H   0  0  0  0  0  0  0  0  0  0  0  0
   10.0886   -0.9854    1.0393 H   0  0  0  0  0  0  0  0  0  0  0  0
    8.9817   -0.8711    2.4140 H   0  0  0  0  0  0  0  0  0  0  0  0
   10.6389   -0.1947    2.5547 H   0  0  0  0  0  0  0  0  0  0  0  0
    4.1147    2.5738   -0.1486 H   0  0  0  0  0  0  0  0  0  0  0  0
    0.0989   -1.6356    1.8396 H   0  0  0  0  0  0  0  0  0  0  0  0
   -0.0107   -3.0756    0.7160 H   0  0  0  0  0  0  0  0  0  0  0  0
   -2.0927   -2.3542   -0.0969 H   0  0  0  0  0  0  0  0  0  0  0  0
   -4.1048   -0.7327   -3.6658 H   0  0  0  0  0  0  0  0  0  0  0  0
   -2.6493    0.3331   -4.0298 H   0  0  0  0  0  0  0  0  0  0  0  0
   -3.2377   -3.5614   -5.7032 H   0  0  0  0  0  0  0  0  0  0  0  0
   -4.6425   -2.5063   -5.2219 H   0  0  0  0  0  0  0  0  0  0  0  0
   -1.5126   -3.2164   -3.5195 H   0  0  0  0  0  0  0  0  0  0  0  0
   -2.1986   -3.4385   -1.9316 H   0  0  0  0  0  0  0  0  0  0  0  0
   -6.2278    5.3269    2.3314 H   0  0  0  0  0  0  0  0  0  0  0  0
   -6.3189    4.0258    1.1123 H   0  0  0  0  0  0  0  0  0  0  0  0
   -7.6032    4.2295    2.4283 H   0  0  0  0  0  0  0  0  0  0  0  0
   -3.8178   -2.2389    1.5481 H   0  0  0  0  0  0  0  0  0  0  0  0
   -6.0209   -1.3187   -1.5610 H   0  0  0  0  0  0  0  0  0  0  0  0
  1  2  1  0
  1  3  1  0
  1  4  1  0
  2  5  1  0
  2  6  1  0
  3  7  1  0
  5  8  1  0
  6  9  1  0
  8 11  1  0
  9 11  1  0
 10 14  1  0
 11 15  1  0
 14 16  1  0
 15 18  1  0
 15 19  1  0
 16 20  1  0
 17 20  1  0
 21 23  1  0
 24 26  1  0
 25 27  1  0
 21 29  1  0
 23 30  1  0
 24 30  1  0
 25 30  1  0
 26 31  1  0
 27 31  1  0
 28 31  1  0
 20 32  1  0
 21 32  1  0
 22 32  1  0
 10 33  1  0
 17 33  1  0
  3 34  1  0
 10 34  1  0
  7 35  1  0
 13 35  1  0
 12 36  1  0
 13 36  1  0
  7 37  1  0
 12 37  1  0
 18 38  1  0
  4 39  1  0
  5 39  1  0
  4 40  1  0
  1 41  1  0
  2 42  1  0
  3 43  1  0
  4 44  1  0
  5 45  1  0
  6 46  1  0
  6 47  1  0
  7 48  1  0
  8 49  1  0
  8 50  1  0
  9 51  1  0
  9 52  1  0
 10 53  1  0
 11 54  1  1
 12 55  1  0
 12 56  1  0
 13 57  1  0
 13 58  1  0
 14 59  1  0
 14 60  1  0
 15 61  1  6
 16 62  1  0
 16 63  1  0
 17 64  1  0
 17 65  1  0
 19 66  1  0
 20 67  1  0
 21 68  1  1
 22 69  1  0
 22 70  1  0
 22 71  1  0
 23 72  1  0
 23 73  1  0
 24 74  1  0
 24 75  1  0
 25 76  1  0
 25 77  1  0
 26 78  1  0
 26 79  1  0
 27 80  1  0
 27 81  1  0
 28 82  1  0
 28 83  1  0
 28 84  1  0
 29 85  1  0
 33 86  1  0
 33 87  1  0
 34 88  1  0
 35 89  1  0
 35 90  1  0
 36 91  1  0
 36 92  1  0
 37 93  1  0
 37 94  1  0
 38 95  1  0
 38 96  1  0
 38 97  1  0
 39 98  1  0
 40 99  1  0
M  END
>  <PDBID>  (1) 
3C7Q

>  <PDB ID>  (1) 
3C7Q

>  <Generic Name>  (1) 
Nintedanib

>  <Brand Name>  (1) 
Ofev#Vargatef

>  <DrugBank ID>  (1) 
DB09079

>  <ATC Codes>  (1) 
L01XE31

>  <Ligand ID>  (1) 
XIN

>  <Target Name>  (1) 
Vascular endothelial growth factor receptor 3

>  <UniProt ID>  (1) 
P35916

>  <PDB ID.1>  (1) 
3C7Q

>  <Seq. Identity>  (1) 
67%

$$$$
