PDB_DB00482_09
     RDKit          3D

116120  0  0  0  0  0  0  0  0999 V2000
   -5.0458   -1.2617   -0.8547 S   0  0  0  0  0  0  0  0  0  0  0  0
   -3.8996    0.0079   -0.4834 C   0  0  0  0  0  0  0  0  0  0  0  0
   -3.3918   -0.1987    0.9271 C   0  0  0  0  0  0  0  0  0  0  0  0
   -2.1938    0.6861    1.2148 C   0  0  0  0  0  0  0  0  0  0  0  0
   -1.1209    0.4924    0.1371 C   0  0  0  0  0  0  0  0  0  0  0  0
   -1.7425    0.9796   -1.1503 C   0  0  0  0  0  0  0  0  0  0  0  0
   -2.8140   -0.0569   -1.5152 C   0  0  0  0  0  0  0  0  0  0  0  0
    0.0526    1.1983    0.5299 N   0  0  0  0  0  0  0  0  0  0  0  0
    1.1889    1.0505   -0.3070 C   0  0  0  0  0  0  0  0  0  0  0  0
    2.1549   -0.0356    0.0929 C   0  0  0  0  0  0  0  0  0  0  0  0
    3.3054   -0.0164   -0.9253 C   0  0  0  0  0  0  0  0  0  0  0  0
    4.4481   -0.8849   -0.4448 C   0  0  0  0  0  0  0  0  0  0  0  0
    3.9394   -1.9981    0.4740 C   0  0  0  0  0  0  0  0  0  0  0  0
    4.8948   -3.1864    0.4624 C   0  0  0  0  0  0  0  0  0  0  0  0
    2.6363   -2.4812   -0.1397 C   0  0  0  0  0  0  0  0  0  0  0  0
    1.5566   -1.4203   -0.0210 C   0  0  0  0  0  0  0  0  0  0  0  0
    1.9274    2.3792   -0.0909 C   0  0  0  0  0  0  0  0  0  0  0  0
    0.7468    3.3214   -0.0267 C   0  0  0  0  0  0  0  0  0  0  0  0
    1.1038    4.6230    0.6536 C   0  0  0  0  0  0  0  0  0  0  0  0
    0.0011    5.4533    0.6916 F   0  0  0  0  0  0  0  0  0  0  0  0
    1.5999    4.3715    1.8984 F   0  0  0  0  0  0  0  0  0  0  0  0
    2.0498    5.2600   -0.1506 F   0  0  0  0  0  0  0  0  0  0  0  0
   -0.2070    2.5514    0.7211 N   0  0  0  0  0  0  0  0  0  0  0  0
   -4.1340   -2.7271   -0.7428 N   0  0  0  0  0  0  0  0  0  0  0  0
   -5.8941   -1.3592    0.8142 O   0  0  0  0  0  0  0  0  0  0  0  0
   -5.9567   -1.1309   -1.7934 O   0  0  0  0  0  0  0  0  0  0  0  0
   -5.0458   -1.2617   -0.8547 S   0  0  0  0  0  0  0  0  0  0  0  0
   -3.8996    0.0079   -0.4834 C   0  0  0  0  0  0  0  0  0  0  0  0
   -3.3918   -0.1987    0.9271 C   0  0  0  0  0  0  0  0  0  0  0  0
   -2.1938    0.6861    1.2148 C   0  0  0  0  0  0  0  0  0  0  0  0
   -1.1209    0.4924    0.1371 C   0  0  0  0  0  0  0  0  0  0  0  0
   -1.7425    0.9796   -1.1503 C   0  0  0  0  0  0  0  0  0  0  0  0
   -2.8140   -0.0569   -1.5152 C   0  0  0  0  0  0  0  0  0  0  0  0
    0.0526    1.1983    0.5299 N   0  0  0  0  0  0  0  0  0  0  0  0
    1.1889    1.0505   -0.3070 C   0  0  0  0  0  0  0  0  0  0  0  0
    2.1549   -0.0356    0.0929 C   0  0  0  0  0  0  0  0  0  0  0  0
    3.3054   -0.0164   -0.9253 C   0  0  0  0  0  0  0  0  0  0  0  0
    4.4481   -0.8849   -0.4448 C   0  0  0  0  0  0  0  0  0  0  0  0
    3.9394   -1.9981    0.4740 C   0  0  0  0  0  0  0  0  0  0  0  0
    4.8948   -3.1864    0.4624 C   0  0  0  0  0  0  0  0  0  0  0  0
    2.6363   -2.4812   -0.1397 C   0  0  0  0  0  0  0  0  0  0  0  0
    1.5566   -1.4203   -0.0210 C   0  0  0  0  0  0  0  0  0  0  0  0
    1.9274    2.3792   -0.0909 C   0  0  0  0  0  0  0  0  0  0  0  0
    0.7468    3.3214   -0.0267 C   0  0  0  0  0  0  0  0  0  0  0  0
    1.1038    4.6230    0.6536 C   0  0  0  0  0  0  0  0  0  0  0  0
    0.0011    5.4533    0.6916 F   0  0  0  0  0  0  0  0  0  0  0  0
    1.5999    4.3715    1.8984 F   0  0  0  0  0  0  0  0  0  0  0  0
    2.0498    5.2600   -0.1506 F   0  0  0  0  0  0  0  0  0  0  0  0
   -0.2070    2.5514    0.7211 N   0  0  0  0  0  0  0  0  0  0  0  0
   -4.1340   -2.7271   -0.7428 N   0  0  0  0  0  0  0  0  0  0  0  0
   -5.8941   -1.3592    0.8142 O   0  0  0  0  0  0  0  0  0  0  0  0
   -5.9567   -1.1309   -1.7934 O   0  0  0  0  0  0  0  0  0  0  0  0
   -4.4228    0.9688   -0.5383 H   0  0  0  0  0  0  0  0  0  0  0  0
   -3.1797   -1.2631    1.1559 H   0  0  0  0  0  0  0  0  0  0  0  0
   -4.1986    0.1219    1.6181 H   0  0  0  0  0  0  0  0  0  0  0  0
   -2.5787    1.7156    1.2541 H   0  0  0  0  0  0  0  0  0  0  0  0
   -1.7774    0.4191    2.1892 H   0  0  0  0  0  0  0  0  0  0  0  0
   -0.9814   -0.5840    0.0647 H   0  0  0  0  0  0  0  0  0  0  0  0
   -1.0344    1.0989   -1.9712 H   0  0  0  0  0  0  0  0  0  0  0  0
   -2.3075    1.9334   -1.0132 H   0  0  0  0  0  0  0  0  0  0  0  0
   -2.3954   -1.0906   -1.4875 H   0  0  0  0  0  0  0  0  0  0  0  0
   -3.2723    0.1823   -2.4921 H   0  0  0  0  0  0  0  0  0  0  0  0
    0.9582    0.9898   -1.3812 H   0  0  0  0  0  0  0  0  0  0  0  0
    2.6043    0.1657    1.0707 H   0  0  0  0  0  0  0  0  0  0  0  0
    3.7039    0.9989   -1.0574 H   0  0  0  0  0  0  0  0  0  0  0  0
    2.9429   -0.4408   -1.8901 H   0  0  0  0  0  0  0  0  0  0  0  0
    4.9045   -1.3901   -1.3201 H   0  0  0  0  0  0  0  0  0  0  0  0
    5.2477   -0.3110    0.0552 H   0  0  0  0  0  0  0  0  0  0  0  0
    3.8137   -1.5751    1.4751 H   0  0  0  0  0  0  0  0  0  0  0  0
    4.8903   -3.6872    1.4577 H   0  0  0  0  0  0  0  0  0  0  0  0
    5.9315   -2.8880    0.2258 H   0  0  0  0  0  0  0  0  0  0  0  0
    4.5988   -3.9094   -0.3528 H   0  0  0  0  0  0  0  0  0  0  0  0
    2.3243   -3.3949    0.4002 H   0  0  0  0  0  0  0  0  0  0  0  0
    2.8578   -2.6815   -1.2078 H   0  0  0  0  0  0  0  0  0  0  0  0
    1.0014   -1.6366    0.8883 H   0  0  0  0  0  0  0  0  0  0  0  0
    0.9913   -1.4505   -0.9624 H   0  0  0  0  0  0  0  0  0  0  0  0
    2.5138    2.6566   -0.9845 H   0  0  0  0  0  0  0  0  0  0  0  0
    2.5096    2.3415    0.8412 H   0  0  0  0  0  0  0  0  0  0  0  0
    0.3962    3.4733   -1.0652 H   0  0  0  0  0  0  0  0  0  0  0  0
   -1.1481    2.8546    0.3891 H   0  0  0  0  0  0  0  0  0  0  0  0
   -3.9161   -2.9381    0.2525 H   0  0  0  0  0  0  0  0  0  0  0  0
   -4.6703   -3.5079   -1.1562 H   0  0  0  0  0  0  0  0  0  0  0  0
   -5.1601   -1.7083    1.3515 H   0  0  0  0  0  0  0  0  0  0  0  0
   -6.3529   -1.0807   -2.6765 H   0  0  0  0  0  0  0  0  0  0  0  0
   -4.4228    0.9688   -0.5383 H   0  0  0  0  0  0  0  0  0  0  0  0
   -3.1797   -1.2631    1.1559 H   0  0  0  0  0  0  0  0  0  0  0  0
   -4.1986    0.1219    1.6181 H   0  0  0  0  0  0  0  0  0  0  0  0
   -2.5787    1.7156    1.2541 H   0  0  0  0  0  0  0  0  0  0  0  0
   -1.7774    0.4191    2.1892 H   0  0  0  0  0  0  0  0  0  0  0  0
   -0.9814   -0.5840    0.0647 H   0  0  0  0  0  0  0  0  0  0  0  0
   -1.0344    1.0989   -1.9712 H   0  0  0  0  0  0  0  0  0  0  0  0
   -2.3075    1.9334   -1.0132 H   0  0  0  0  0  0  0  0  0  0  0  0
   -2.3954   -1.0906   -1.4875 H   0  0  0  0  0  0  0  0  0  0  0  0
   -3.2723    0.1823   -2.4921 H   0  0  0  0  0  0  0  0  0  0  0  0
    0.9582    0.9898   -1.3812 H   0  0  0  0  0  0  0  0  0  0  0  0
    2.6043    0.1657    1.0707 H   0  0  0  0  0  0  0  0  0  0  0  0
    3.7039    0.9989   -1.0574 H   0  0  0  0  0  0  0  0  0  0  0  0
    2.9429   -0.4408   -1.8901 H   0  0  0  0  0  0  0  0  0  0  0  0
    4.9045   -1.3901   -1.3201 H   0  0  0  0  0  0  0  0  0  0  0  0
    5.2477   -0.3110    0.0552 H   0  0  0  0  0  0  0  0  0  0  0  0
    3.8137   -1.5751    1.4751 H   0  0  0  0  0  0  0  0  0  0  0  0
    4.8903   -3.6872    1.4577 H   0  0  0  0  0  0  0  0  0  0  0  0
    5.9315   -2.8880    0.2258 H   0  0  0  0  0  0  0  0  0  0  0  0
    4.5988   -3.9094   -0.3528 H   0  0  0  0  0  0  0  0  0  0  0  0
    2.3243   -3.3949    0.4002 H   0  0  0  0  0  0  0  0  0  0  0  0
    2.8578   -2.6815   -1.2078 H   0  0  0  0  0  0  0  0  0  0  0  0
    1.0014   -1.6366    0.8883 H   0  0  0  0  0  0  0  0  0  0  0  0
    0.9913   -1.4505   -0.9624 H   0  0  0  0  0  0  0  0  0  0  0  0
    2.5138    2.6566   -0.9845 H   0  0  0  0  0  0  0  0  0  0  0  0
    2.5096    2.3415    0.8412 H   0  0  0  0  0  0  0  0  0  0  0  0
    0.3962    3.4733   -1.0652 H   0  0  0  0  0  0  0  0  0  0  0  0
   -1.1481    2.8546    0.3891 H   0  0  0  0  0  0  0  0  0  0  0  0
   -3.9161   -2.9381    0.2525 H   0  0  0  0  0  0  0  0  0  0  0  0
   -4.6703   -3.5079   -1.1562 H   0  0  0  0  0  0  0  0  0  0  0  0
   -5.1601   -1.7083    1.3515 H   0  0  0  0  0  0  0  0  0  0  0  0
   -6.3529   -1.0807   -2.6765 H   0  0  0  0  0  0  0  0  0  0  0  0
  1  2  1  0
  2  3  1  0
  3  4  1  0
  4  5  1  0
  5  6  1  0
  2  7  1  0
  6  7  1  0
  5  8  1  0
  8  9  1  0
  9 10  1  0
 10 11  1  0
 11 12  1  0
 12 13  1  0
 13 14  1  0
 13 15  1  0
 10 16  1  0
 15 16  1  0
  9 17  1  0
 17 18  1  0
 18 19  1  0
 19 20  1  0
 19 21  1  0
 19 22  1  0
  8 23  1  0
 18 23  1  0
  1 24  1  0
  1 25  1  0
  1 26  1  0
 27 28  1  0
 28 29  1  0
 29 30  1  0
 30 31  1  0
 31 32  1  0
 28 33  1  0
 32 33  1  0
 31 34  1  0
 34 35  1  0
 35 36  1  0
 36 37  1  0
 37 38  1  0
 38 39  1  0
 39 40  1  0
 39 41  1  0
 36 42  1  0
 41 42  1  0
 35 43  1  0
 43 44  1  0
 44 45  1  0
 45 46  1  0
 45 47  1  0
 45 48  1  0
 34 49  1  0
 44 49  1  0
 27 50  1  0
 27 51  1  0
 27 52  1  0
  2 53  1  0
  3 54  1  0
  3 55  1  0
  4 56  1  0
  4 57  1  0
  5 58  1  0
  6 59  1  0
  6 60  1  0
  7 61  1  0
  7 62  1  0
  9 63  1  0
 10 64  1  0
 11 65  1  0
 11 66  1  0
 12 67  1  0
 12 68  1  0
 13 69  1  0
 14 70  1  0
 14 71  1  0
 14 72  1  0
 15 73  1  0
 15 74  1  0
 16 75  1  0
 16 76  1  0
 17 77  1  0
 17 78  1  0
 18 79  1  0
 23 80  1  0
 24 81  1  0
 24 82  1  0
 25 83  1  0
 26 84  1  0
 28 85  1  0
 29 86  1  0
 29 87  1  0
 30 88  1  0
 30 89  1  0
 31 90  1  0
 32 91  1  0
 32 92  1  0
 33 93  1  0
 33 94  1  0
 35 95  1  0
 36 96  1  0
 37 97  1  0
 37 98  1  0
 38 99  1  0
 38100  1  0
 39101  1  0
 40102  1  0
 40103  1  0
 40104  1  0
 41105  1  0
 41106  1  0
 42107  1  0
 42108  1  0
 43109  1  0
 43110  1  0
 44111  1  0
 49112  1  0
 50113  1  0
 50114  1  0
 51115  1  0
 52116  1  0
M  END
>  <PDBID>  (1) 
5JW1

>  <PDB ID>  (1) 
5JW1

>  <Generic Name>  (1) 
Celecoxib

>  <Brand Name>  (1) 
Accel-celecoxib#Act Celecoxib#Ag-celecoxib#Apo-celecoxib#Auro-celecoxib#Bio-celecoxib#Celebrex#Celecoxib#Celecoxib 100 mg#Celecoxib 200 mg#Celecoxib 400 mg#Celecoxib 50 mg#Dom-celecoxib#Gd-celecoxib#Ipg-celecoxib#Jamp-celecoxib#Lupin-celecoxib#Mar-celecoxib#Mint-celecoxib#Mylan-celecoxib#PMS-celecoxib#Priva-celecoxib#Ran-celecoxib#Rbx-celecoxib#Riva-celecox#Riva-celecoxib#Sandoz Celecoxib#Sdz Celecoxib#Teva-celecoxib#Articox#Articoxib#Artiflex#Artilog#Artix#Artrixib#Blockten#Caditar#Cefinix#Celact#Celebra#Onsenal#Valdyne

>  <DrugBank ID>  (1) 
DB00482

>  <ATC Codes>  (1) 
L01XX33#M01AH01

>  <Ligand ID>  (1) 
CEL

>  <Target Name>  (1) 
Prostaglandin G/H synthase 2

>  <UniProt ID>  (1) 
P35354

>  <PDB ID.1>  (1) 
5JW1

>  <Seq. Identity>  (1) 
85%

$$$$
