PDB_DB00205_01
     RDKit          3D

 84 86  0  0  0  0  0  0  0  0999 V2000
   -2.1408    1.0388   -0.9019 N   0  0  0  0  0  0  0  0  0  0  0  0
   -2.0052    1.4035    0.5158 C   0  0  0  0  0  0  0  0  0  0  0  0
   -0.8040    0.6852   -1.3372 C   0  0  0  0  0  0  0  0  0  0  0  0
   -0.1905   -0.3844   -0.4628 C   0  0  0  0  0  0  0  0  0  0  0  0
   -1.0761   -0.8321    0.6347 C   0  0  0  0  0  0  0  0  0  0  0  0
   -1.8577    0.1951    1.2539 N   0  0  0  0  0  0  0  0  0  0  0  0
    1.1766    0.0656   -0.0555 C   0  0  0  0  0  0  0  0  0  0  0  0
    2.0754    0.2847   -1.2546 C   0  0  0  0  0  0  0  0  0  0  0  0
    3.1983    1.1816   -0.8094 C   0  0  0  0  0  0  0  0  0  0  0  0
    3.7988    0.7617    0.5011 C   0  0  0  0  0  0  0  0  0  0  0  0
    3.3389   -0.5712    0.9909 C   0  0  0  0  0  0  0  0  0  0  0  0
    1.8862   -0.8387    0.8829 C   0  0  0  0  0  0  0  0  0  0  0  0
   -0.8967    0.2870   -2.7292 N   0  0  0  0  0  0  0  0  0  0  0  0
   -3.2567    2.0310    0.8995 N   0  0  0  0  0  0  0  0  0  0  0  0
   -2.0776   -1.8751    0.1107 C   0  0  0  0  0  0  0  0  0  0  0  0
   -2.9267   -2.2570    1.3186 C   0  0  0  0  0  0  0  0  0  0  0  0
    5.5644    0.6869    0.2699 Cl  0  0  0  0  0  0  0  0  0  0  0  0
   -2.1408    1.0388   -0.9019 N   0  0  0  0  0  0  0  0  0  0  0  0
   -2.0052    1.4035    0.5158 C   0  0  0  0  0  0  0  0  0  0  0  0
   -0.8040    0.6852   -1.3372 C   0  0  0  0  0  0  0  0  0  0  0  0
   -0.1905   -0.3844   -0.4628 C   0  0  0  0  0  0  0  0  0  0  0  0
   -1.0761   -0.8321    0.6347 C   0  0  0  0  0  0  0  0  0  0  0  0
   -1.8577    0.1951    1.2539 N   0  0  0  0  0  0  0  0  0  0  0  0
    1.1766    0.0656   -0.0555 C   0  0  0  0  0  0  0  0  0  0  0  0
    2.0754    0.2847   -1.2546 C   0  0  0  0  0  0  0  0  0  0  0  0
    3.1983    1.1816   -0.8094 C   0  0  0  0  0  0  0  0  0  0  0  0
    3.7988    0.7617    0.5011 C   0  0  0  0  0  0  0  0  0  0  0  0
    3.3389   -0.5712    0.9909 C   0  0  0  0  0  0  0  0  0  0  0  0
    1.8862   -0.8387    0.8829 C   0  0  0  0  0  0  0  0  0  0  0  0
   -0.8967    0.2870   -2.7292 N   0  0  0  0  0  0  0  0  0  0  0  0
   -3.2567    2.0310    0.8995 N   0  0  0  0  0  0  0  0  0  0  0  0
   -2.0776   -1.8751    0.1107 C   0  0  0  0  0  0  0  0  0  0  0  0
   -2.9267   -2.2570    1.3186 C   0  0  0  0  0  0  0  0  0  0  0  0
    5.5644    0.6869    0.2699 Cl  0  0  0  0  0  0  0  0  0  0  0  0
   -2.4219    1.9219   -1.3822 H   0  0  0  0  0  0  0  0  0  0  0  0
   -1.1601    2.1061    0.6574 H   0  0  0  0  0  0  0  0  0  0  0  0
   -0.2168    1.6332   -1.3087 H   0  0  0  0  0  0  0  0  0  0  0  0
   -0.0384   -1.2777   -1.1416 H   0  0  0  0  0  0  0  0  0  0  0  0
   -0.5150   -1.3557    1.4267 H   0  0  0  0  0  0  0  0  0  0  0  0
   -1.6958    0.3040    2.2626 H   0  0  0  0  0  0  0  0  0  0  0  0
    1.1081    1.0749    0.4480 H   0  0  0  0  0  0  0  0  0  0  0  0
    2.4478   -0.7125   -1.5730 H   0  0  0  0  0  0  0  0  0  0  0  0
    1.4747    0.7694   -2.0382 H   0  0  0  0  0  0  0  0  0  0  0  0
    3.9407    1.2124   -1.6355 H   0  0  0  0  0  0  0  0  0  0  0  0
    2.7886    2.2091   -0.7176 H   0  0  0  0  0  0  0  0  0  0  0  0
    3.6194    1.5438    1.2726 H   0  0  0  0  0  0  0  0  0  0  0  0
    3.9593   -1.3622    0.4757 H   0  0  0  0  0  0  0  0  0  0  0  0
    3.6304   -0.6503    2.0680 H   0  0  0  0  0  0  0  0  0  0  0  0
    1.7649   -1.8914    0.4902 H   0  0  0  0  0  0  0  0  0  0  0  0
    1.3895   -0.8316    1.8969 H   0  0  0  0  0  0  0  0  0  0  0  0
   -1.7543   -0.2738   -2.9290 H   0  0  0  0  0  0  0  0  0  0  0  0
   -0.8477    1.0665   -3.3925 H   0  0  0  0  0  0  0  0  0  0  0  0
   -3.9465    1.3161    1.2262 H   0  0  0  0  0  0  0  0  0  0  0  0
   -3.6798    2.5401    0.0973 H   0  0  0  0  0  0  0  0  0  0  0  0
   -1.5487   -2.7672   -0.2764 H   0  0  0  0  0  0  0  0  0  0  0  0
   -2.7595   -1.4372   -0.6309 H   0  0  0  0  0  0  0  0  0  0  0  0
   -2.2490   -2.3485    2.1966 H   0  0  0  0  0  0  0  0  0  0  0  0
   -3.4475   -3.2238    1.1528 H   0  0  0  0  0  0  0  0  0  0  0  0
   -3.6491   -1.4281    1.5272 H   0  0  0  0  0  0  0  0  0  0  0  0
   -2.4219    1.9219   -1.3822 H   0  0  0  0  0  0  0  0  0  0  0  0
   -1.1601    2.1061    0.6574 H   0  0  0  0  0  0  0  0  0  0  0  0
   -0.2168    1.6332   -1.3087 H   0  0  0  0  0  0  0  0  0  0  0  0
   -0.0384   -1.2777   -1.1416 H   0  0  0  0  0  0  0  0  0  0  0  0
   -0.5150   -1.3557    1.4267 H   0  0  0  0  0  0  0  0  0  0  0  0
   -1.6958    0.3040    2.2626 H   0  0  0  0  0  0  0  0  0  0  0  0
    1.1081    1.0749    0.4480 H   0  0  0  0  0  0  0  0  0  0  0  0
    2.4478   -0.7125   -1.5730 H   0  0  0  0  0  0  0  0  0  0  0  0
    1.4747    0.7694   -2.0382 H   0  0  0  0  0  0  0  0  0  0  0  0
    3.9407    1.2124   -1.6355 H   0  0  0  0  0  0  0  0  0  0  0  0
    2.7886    2.2091   -0.7176 H   0  0  0  0  0  0  0  0  0  0  0  0
    3.6194    1.5438    1.2726 H   0  0  0  0  0  0  0  0  0  0  0  0
    3.9593   -1.3622    0.4757 H   0  0  0  0  0  0  0  0  0  0  0  0
    3.6304   -0.6503    2.0680 H   0  0  0  0  0  0  0  0  0  0  0  0
    1.7649   -1.8914    0.4902 H   0  0  0  0  0  0  0  0  0  0  0  0
    1.3895   -0.8316    1.8969 H   0  0  0  0  0  0  0  0  0  0  0  0
   -1.7543   -0.2738   -2.9290 H   0  0  0  0  0  0  0  0  0  0  0  0
   -0.8477    1.0665   -3.3925 H   0  0  0  0  0  0  0  0  0  0  0  0
   -3.9465    1.3161    1.2262 H   0  0  0  0  0  0  0  0  0  0  0  0
   -3.6798    2.5401    0.0973 H   0  0  0  0  0  0  0  0  0  0  0  0
   -1.5487   -2.7672   -0.2764 H   0  0  0  0  0  0  0  0  0  0  0  0
   -2.7595   -1.4372   -0.6309 H   0  0  0  0  0  0  0  0  0  0  0  0
   -2.2490   -2.3485    2.1966 H   0  0  0  0  0  0  0  0  0  0  0  0
   -3.4475   -3.2238    1.1528 H   0  0  0  0  0  0  0  0  0  0  0  0
   -3.6491   -1.4281    1.5272 H   0  0  0  0  0  0  0  0  0  0  0  0
  1  2  1  0
  1  3  1  0
  3  4  1  0
  4  5  1  0
  2  6  1  0
  5  6  1  0
  4  7  1  0
  7  8  1  0
  8  9  1  0
  9 10  1  0
 10 11  1  0
  7 12  1  0
 11 12  1  0
  3 13  1  0
  2 14  1  0
  5 15  1  0
 15 16  1  0
 10 17  1  0
 18 19  1  0
 18 20  1  0
 20 21  1  0
 21 22  1  0
 19 23  1  0
 22 23  1  0
 21 24  1  0
 24 25  1  0
 25 26  1  0
 26 27  1  0
 27 28  1  0
 24 29  1  0
 28 29  1  0
 20 30  1  0
 19 31  1  0
 22 32  1  0
 32 33  1  0
 27 34  1  0
  1 35  1  0
  2 36  1  0
  3 37  1  0
  4 38  1  0
  5 39  1  0
  6 40  1  0
  7 41  1  0
  8 42  1  0
  8 43  1  0
  9 44  1  0
  9 45  1  0
 10 46  1  0
 11 47  1  0
 11 48  1  0
 12 49  1  0
 12 50  1  0
 13 51  1  0
 13 52  1  0
 14 53  1  0
 14 54  1  0
 15 55  1  0
 15 56  1  0
 16 57  1  0
 16 58  1  0
 16 59  1  0
 18 60  1  0
 19 61  1  0
 20 62  1  0
 21 63  1  0
 22 64  1  0
 23 65  1  0
 24 66  1  0
 25 67  1  0
 25 68  1  0
 26 69  1  0
 26 70  1  0
 27 71  1  0
 28 72  1  0
 28 73  1  0
 29 74  1  0
 29 75  1  0
 30 76  1  0
 30 77  1  0
 31 78  1  0
 31 79  1  0
 32 80  1  0
 32 81  1  0
 33 82  1  0
 33 83  1  0
 33 84  1  0
M  END
>  <PDBID>  (1) 
3QFX

>  <PDB ID>  (1) 
3QFX

>  <Generic Name>  (1) 
Pyrimethamine

>  <Brand Name>  (1) 
Daraprim#Fansidar Tablets#Pyrimethamine Leucovorin

>  <DrugBank ID>  (1) 
DB00205

>  <ATC Codes>  (1) 
P01BF04#P01BD01#P01BD51

>  <Ligand ID>  (1) 
CP6

>  <Target Name>  (1) 
Dihydrofolate reductase

>  <UniProt ID>  (1) 
P00374

>  <PDB ID.1>  (1) 
3QFX

>  <Seq. Identity>  (1) 
32%

$$$$
