PDB_DB00509_04
     RDKit          3D

 49 50  0  0  0  0  0  0  0  0999 V2000
   -2.1101    0.0751    0.4523 C   0  0  2  0  0  0  0  0  0  0  0  0
   -1.7742    1.2413   -0.4023 C   0  0  0  0  0  0  0  0  0  0  0  0
   -0.2779    1.4870   -0.3242 C   0  0  2  0  0  0  0  0  0  0  0  0
    0.5168    0.2284   -0.2090 C   0  0  0  0  0  0  0  0  0  0  0  0
   -0.2020   -0.9849   -0.7731 C   0  0  0  0  0  0  0  0  0  0  0  0
   -1.5329   -1.2115   -0.1056 C   0  0  0  0  0  0  0  0  0  0  0  0
   -3.5576   -0.1001    0.7457 C   0  0  0  0  0  0  0  0  0  0  0  0
   -4.4158   -0.2922   -0.4744 C   0  0  1  0  0  0  0  0  0  0  0  0
   -5.8636   -0.4599   -0.0587 C   0  0  0  0  0  0  0  0  0  0  0  0
    2.8165    0.0897   -0.0075 C   0  0  0  0  0  0  0  0  0  0  0  0
    3.6074   -1.1013   -0.4564 C   0  0  0  0  0  0  0  0  0  0  0  0
    4.9356   -1.2315    0.2100 C   0  0  0  0  0  0  0  0  0  0  0  0
    5.6986    0.0408    0.3529 C   0  0  0  0  0  0  0  0  0  0  0  0
    5.0498    1.1606   -0.3906 C   0  0  0  0  0  0  0  0  0  0  0  0
    3.6262    1.3667    0.0156 C   0  0  0  0  0  0  0  0  0  0  0  0
   -4.3713    0.9454   -1.2694 N   0  0  0  0  0  0  0  0  0  0  0  0
    1.7393    0.2957   -0.8521 O   0  0  0  0  0  0  0  0  0  0  0  0
    5.9084    0.4156    1.6781 O   0  0  0  0  0  0  0  0  0  0  0  0
   -6.6914   -0.5610   -1.1636 O   0  0  0  0  0  0  0  0  0  0  0  0
   -6.0077   -1.5822    0.7791 O   0  0  0  0  0  0  0  0  0  0  0  0
    0.1034    2.8119    1.3180 I   0  0  0  0  0  0  0  0  0  0  0  0
    6.0758   -2.6858   -0.8904 I   0  0  0  0  0  0  0  0  0  0  0  0
   -0.3847   -0.8532   -2.8896 I   0  0  0  0  0  0  0  0  0  0  0  0
    5.2819    0.9658   -2.5012 I   0  0  0  0  0  0  0  0  0  0  0  0
   -1.5964    0.2261    1.4425 H   0  0  0  0  0  0  0  0  0  0  0  0
   -2.0055    1.0991   -1.4766 H   0  0  0  0  0  0  0  0  0  0  0  0
   -2.2706    2.1356   -0.0208 H   0  0  0  0  0  0  0  0  0  0  0  0
    0.0301    2.0352   -1.2375 H   0  0  0  0  0  0  0  0  0  0  0  0
    0.6349    0.0170    0.8899 H   0  0  0  0  0  0  0  0  0  0  0  0
    0.4384   -1.8640   -0.5537 H   0  0  0  0  0  0  0  0  0  0  0  0
   -2.1966   -1.6807   -0.8600 H   0  0  0  0  0  0  0  0  0  0  0  0
   -1.4234   -1.9560    0.7100 H   0  0  0  0  0  0  0  0  0  0  0  0
   -3.9752    0.7560    1.3149 H   0  0  0  0  0  0  0  0  0  0  0  0
   -3.7012   -0.9928    1.3887 H   0  0  0  0  0  0  0  0  0  0  0  0
   -4.1510   -1.1479   -1.0903 H   0  0  0  0  0  0  0  0  0  0  0  0
   -6.1430    0.4427    0.5206 H   0  0  0  0  0  0  0  0  0  0  0  0
    2.3984   -0.0829    1.0091 H   0  0  0  0  0  0  0  0  0  0  0  0
    3.6863   -1.1411   -1.5637 H   0  0  0  0  0  0  0  0  0  0  0  0
    3.0080   -2.0092   -0.1771 H   0  0  0  0  0  0  0  0  0  0  0  0
    4.8082   -1.6563    1.2471 H   0  0  0  0  0  0  0  0  0  0  0  0
    6.7148   -0.1104   -0.0986 H   0  0  0  0  0  0  0  0  0  0  0  0
    5.6033    2.1032   -0.1060 H   0  0  0  0  0  0  0  0  0  0  0  0
    3.2002    2.1472   -0.6689 H   0  0  0  0  0  0  0  0  0  0  0  0
    3.6037    1.8455    1.0297 H   0  0  0  0  0  0  0  0  0  0  0  0
   -4.9614    0.7499   -2.1287 H   0  0  0  0  0  0  0  0  0  0  0  0
   -4.9139    1.7059   -0.7654 H   0  0  0  0  0  0  0  0  0  0  0  0
    6.8470    0.6605    1.8481 H   0  0  0  0  0  0  0  0  0  0  0  0
   -6.2381   -0.9803   -1.9435 H   0  0  0  0  0  0  0  0  0  0  0  0
   -5.5672   -2.3621    0.3280 H   0  0  0  0  0  0  0  0  0  0  0  0
  1  2  1  0
  2  3  1  0
  3  4  1  0
  4  5  1  0
  1  6  1  0
  5  6  1  0
  1  7  1  0
  7  8  1  0
  8  9  1  0
 10 11  1  0
 11 12  1  0
 12 13  1  0
 13 14  1  0
 10 15  1  0
 14 15  1  0
  8 16  1  0
  4 17  1  0
 10 17  1  0
 13 18  1  0
  9 19  1  0
  9 20  1  0
  3 21  1  0
 12 22  1  0
  5 23  1  0
 14 24  1  0
  1 25  1  1
  2 26  1  0
  2 27  1  0
  3 28  1  6
  4 29  1  0
  5 30  1  0
  6 31  1  0
  6 32  1  0
  7 33  1  0
  7 34  1  0
  8 35  1  6
  9 36  1  0
 10 37  1  0
 11 38  1  0
 11 39  1  0
 12 40  1  0
 13 41  1  0
 14 42  1  0
 15 43  1  0
 15 44  1  0
 16 45  1  0
 16 46  1  0
 18 47  1  0
 19 48  1  0
 20 49  1  0
M  END
>  <PDBID>  (1) 
1Y0X

>  <PDB ID>  (1) 
1Y0X

>  <Generic Name>  (1) 
Dextrothyroxine

>  <Brand Name>  (1) 
Choloxin - Tab 4mg#Choloxin Tab 2mg#Choloxin Tablet 4mg#Choloxin#Dynothel#Eulipos#Lisolipin

>  <DrugBank ID>  (1) 
DB00509

>  <ATC Codes>  (1) 
C10AX01

>  <Ligand ID>  (1) 
T44

>  <Target Name>  (1) 
Thyroid hormone receptor beta

>  <UniProt ID>  (1) 
P10828

>  <PDB ID.1>  (1) 
1Y0X

>  <Seq. Identity>  (1) 
100%

$$$$
