PDB_DB00218_08
     RDKit          3D

390414  0  0  0  0  0  0  0  0999 V2000
    0.1304    2.1765    1.2370 F   0  0  0  0  0  0  0  0  0  0  0  0
    0.4504   -2.0716   -0.4245 O   0  0  0  0  0  0  0  0  0  0  0  0
   -2.1993    1.7857    2.3941 O   0  0  0  0  0  0  0  0  0  0  0  0
   -4.5670    2.7572   -0.9512 O   0  0  0  0  0  0  0  0  0  0  0  0
   -5.3365    1.0710    0.3245 O   0  0  0  0  0  0  0  0  0  0  0  0
    1.8011    0.2316   -0.7607 N   0  0  0  0  0  0  0  0  0  0  0  0
    4.9836   -0.5619   -0.8141 N   0  0  0  0  0  0  0  0  0  0  0  0
   -2.7787   -0.9316   -0.4593 N   0  0  0  0  0  0  0  0  0  0  0  0
    3.7773    1.2883    0.0993 C   0  0  2  0  0  0  0  0  0  0  0  0
    3.9665   -0.1816    0.1681 C   0  0  1  0  0  0  0  0  0  0  0  0
    2.4985    1.4971   -0.6308 C   0  0  0  0  0  0  0  0  0  0  0  0
    2.5960   -0.7750   -0.1805 C   0  0  0  0  0  0  0  0  0  0  0  0
    4.9724    1.9660   -0.5223 C   0  0  0  0  0  0  0  0  0  0  0  0
   -3.9068   -1.7035   -0.1076 C   0  0  0  0  0  0  0  0  0  0  0  0
    6.2742    1.3190   -0.1622 C   0  0  0  0  0  0  0  0  0  0  0  0
   -4.5659   -2.4843   -1.2688 C   0  0  0  0  0  0  0  0  0  0  0  0
   -3.7210   -3.2386   -0.3420 C   0  0  0  0  0  0  0  0  0  0  0  0
    6.2459   -0.1796   -0.2209 C   0  0  0  0  0  0  0  0  0  0  0  0
    0.4349    0.3159   -0.2615 C   0  0  1  0  0  0  0  0  0  0  0  0
   -1.5850   -1.1183    0.3049 C   0  0  1  0  0  0  0  0  0  0  0  0
   -0.3277   -0.9105   -0.5102 C   0  0  2  0  0  0  0  0  0  0  0  0
   -1.6972   -0.3363    1.5730 C   0  0  0  0  0  0  0  0  0  0  0  0
    0.4748    0.8326    1.1299 C   0  0  0  0  0  0  0  0  0  0  0  0
   -3.0467    0.3939   -0.9133 C   0  0  0  0  0  0  0  0  0  0  0  0
   -0.3519    0.1046    2.1179 C   0  0  0  0  0  0  0  0  0  0  0  0
   -3.0028    1.3766    0.2349 C   0  0  2  0  0  0  0  0  0  0  0  0
   -2.7077    0.7769    1.5409 C   0  0  0  0  0  0  0  0  0  0  0  0
   -4.3466    2.0743    0.2472 C   0  0  0  0  0  0  0  0  0  0  0  0
    0.3745   -2.7621   -1.6267 C   0  0  0  0  0  0  0  0  0  0  0  0
    0.6308    2.5597    1.0767 F   0  0  0  0  0  0  0  0  0  0  0  0
    0.2431   -1.8556   -0.7615 O   0  0  0  0  0  0  0  0  0  0  0  0
   -3.3405    2.8939   -0.1530 O   0  0  0  0  0  0  0  0  0  0  0  0
   -5.7200    2.3679   -0.4094 O   0  0  0  0  0  0  0  0  0  0  0  0
   -6.3282    0.6511    0.9846 O   0  0  0  0  0  0  0  0  0  0  0  0
    1.9290   -0.1032    0.4844 N   0  0  0  0  0  0  0  0  0  0  0  0
    5.2094   -0.8583   -0.6512 N   0  0  0  0  0  0  0  0  0  0  0  0
   -2.3578   -0.9449    0.6588 N   0  0  0  0  0  0  0  0  0  0  0  0
    4.1362    0.7298    0.8787 C   0  0  2  0  0  0  0  0  0  0  0  0
    4.1686   -0.6426    0.3050 C   0  0  1  0  0  0  0  0  0  0  0  0
    2.6735    1.0969    0.9199 C   0  0  0  0  0  0  0  0  0  0  0  0
    2.7745   -0.8496   -0.3229 C   0  0  0  0  0  0  0  0  0  0  0  0
    4.9208    1.6502   -0.0327 C   0  0  0  0  0  0  0  0  0  0  0  0
   -2.5285   -2.3050    0.9429 C   0  0  0  0  0  0  0  0  0  0  0  0
    6.3457    1.1699   -0.0777 C   0  0  0  0  0  0  0  0  0  0  0  0
   -3.4514   -2.9687   -0.1409 C   0  0  0  0  0  0  0  0  0  0  0  0
   -2.1920   -3.5530    0.3514 C   0  0  0  0  0  0  0  0  0  0  0  0
    6.4464   -0.3341   -0.1055 C   0  0  0  0  0  0  0  0  0  0  0  0
    0.6887    0.4250   -0.0519 C   0  0  1  0  0  0  0  0  0  0  0  0
   -1.6987   -0.4111   -0.4355 C   0  0  0  0  0  0  0  0  0  0  0  0
   -0.2357   -0.5623   -0.6733 C   0  0  2  0  0  0  0  0  0  0  0  0
   -1.8034    1.1324   -0.2853 C   0  0  2  0  0  0  0  0  0  0  0  0
    0.1518    1.2466    1.1000 C   0  0  0  0  0  0  0  0  0  0  0  0
   -3.6728   -0.3450    0.8890 C   0  0  0  0  0  0  0  0  0  0  0  0
   -1.3456    1.3998    1.1051 C   0  0  0  0  0  0  0  0  0  0  0  0
   -4.1648    0.6232   -0.1014 C   0  0  2  0  0  0  0  0  0  0  0  0
   -3.1713    1.5964   -0.6341 C   0  0  0  0  0  0  0  0  0  0  0  0
   -5.2709    1.4569    0.5453 C   0  0  0  0  0  0  0  0  0  0  0  0
    0.4991   -2.2992   -2.0605 C   0  0  0  0  0  0  0  0  0  0  0  0
    0.9772    1.6744    1.8551 F   0  0  0  0  0  0  0  0  0  0  0  0
   -0.2329   -2.1990    0.2831 O   0  0  0  0  0  0  0  0  0  0  0  0
   -2.9017    2.2733    2.0267 O   0  0  0  0  0  0  0  0  0  0  0  0
   -5.5073    2.3131   -0.9742 O   0  0  0  0  0  0  0  0  0  0  0  0
   -5.7775    0.7036    0.5326 O   0  0  0  0  0  0  0  0  0  0  0  0
    1.5929    0.6258   -0.6852 N   0  0  0  0  0  0  0  0  0  0  0  0
    4.9686   -0.1974   -1.4004 N   0  0  0  0  0  0  0  0  0  0  0  0
   -2.5290   -0.7291   -0.6854 N   0  0  0  0  0  0  0  0  0  0  0  0
    3.6256    0.9690    0.3029 C   0  0  2  0  0  0  0  0  0  0  0  0
    3.7421   -0.2502   -0.6178 C   0  0  1  0  0  0  0  0  0  0  0  0
    2.4797    1.6892   -0.3731 C   0  0  0  0  0  0  0  0  0  0  0  0
    2.5134   -0.1648   -1.5337 C   0  0  0  0  0  0  0  0  0  0  0  0
    4.8595    1.8268    0.1110 C   0  0  0  0  0  0  0  0  0  0  0  0
   -3.0372   -1.7721    0.1124 C   0  0  0  0  0  0  0  0  0  0  0  0
    6.1354    1.0626    0.2689 C   0  0  0  0  0  0  0  0  0  0  0  0
   -4.4171   -2.2713   -0.2144 C   0  0  0  0  0  0  0  0  0  0  0  0
   -3.2770   -3.1766   -0.5001 C   0  0  0  0  0  0  0  0  0  0  0  0
    6.0609   -0.2579   -0.4456 C   0  0  0  0  0  0  0  0  0  0  0  0
    1.0861   -0.1917    0.3184 C   0  0  2  0  0  0  0  0  0  0  0  0
   -1.3200   -0.0984   -0.3065 C   0  0  2  0  0  0  0  0  0  0  0  0
   -0.1148   -0.9618   -0.2935 C   0  0  0  0  0  0  0  0  0  0  0  0
   -1.4537    0.7554    0.9454 C   0  0  2  0  0  0  0  0  0  0  0  0
    0.7931    0.3356    1.6582 C   0  0  0  0  0  0  0  0  0  0  0  0
   -3.4842    0.2986   -1.0505 C   0  0  0  0  0  0  0  0  0  0  0  0
   -0.6821    0.1105    2.0438 C   0  0  0  0  0  0  0  0  0  0  0  0
   -3.5654    1.3951   -0.0272 C   0  0  0  0  0  0  0  0  0  0  0  0
   -2.8921    1.0729    1.2767 C   0  0  0  0  0  0  0  0  0  0  0  0
   -4.9791    1.8348    0.2406 C   0  0  0  0  0  0  0  0  0  0  0  0
    0.0754   -3.2395   -0.6095 C   0  0  0  0  0  0  0  0  0  0  0  0
   -0.7024    2.4477   -0.5775 F   0  0  0  0  0  0  0  0  0  0  0  0
    0.2153   -1.4583   -1.2008 O   0  0  0  0  0  0  0  0  0  0  0  0
   -2.5191    2.6562    1.2546 O   0  0  0  0  0  0  0  0  0  0  0  0
   -5.7508    1.1820   -1.0823 O   0  0  0  0  0  0  0  0  0  0  0  0
   -5.5725    0.1750    0.9068 O   0  0  0  0  0  0  0  0  0  0  0  0
    1.9096    0.1113    0.2981 N   0  0  0  0  0  0  0  0  0  0  0  0
    5.1463   -1.0804   -0.7680 N   0  0  0  0  0  0  0  0  0  0  0  0
   -2.4978   -1.1833   -0.0488 N   0  0  0  0  0  0  0  0  0  0  0  0
    4.2005    0.7269    0.5525 C   0  0  2  0  0  0  0  0  0  0  0  0
    4.0916   -0.7004    0.1436 C   0  0  1  0  0  0  0  0  0  0  0  0
    2.8169    1.2618    0.4696 C   0  0  0  0  0  0  0  0  0  0  0  0
    2.7304   -0.7108   -0.5711 C   0  0  0  0  0  0  0  0  0  0  0  0
    5.1029    1.4207   -0.4780 C   0  0  0  0  0  0  0  0  0  0  0  0
   -3.2010   -1.9704    0.9219 C   0  0  0  0  0  0  0  0  0  0  0  0
    6.4959    0.9003   -0.4331 C   0  0  0  0  0  0  0  0  0  0  0  0
   -4.3477   -2.8363    0.3616 C   0  0  0  0  0  0  0  0  0  0  0  0
   -3.1242   -3.4938    0.8782 C   0  0  0  0  0  0  0  0  0  0  0  0
    6.4234   -0.6131   -0.2703 C   0  0  0  0  0  0  0  0  0  0  0  0
    0.7545    0.6512   -0.3939 C   0  0  1  0  0  0  0  0  0  0  0  0
   -1.2866   -0.5847    0.4713 C   0  0  1  0  0  0  0  0  0  0  0  0
   -0.3376   -0.3343   -0.6566 C   0  0  2  0  0  0  0  0  0  0  0  0
   -1.5548    0.5270    1.3965 C   0  0  0  0  0  0  0  0  0  0  0  0
    0.1949    1.8734    0.2920 C   0  0  2  0  0  0  0  0  0  0  0  0
   -3.3265   -0.2529   -0.7663 C   0  0  0  0  0  0  0  0  0  0  0  0
   -0.3724    1.4586    1.5937 C   0  0  0  0  0  0  0  0  0  0  0  0
   -3.5552    1.0432   -0.0837 C   0  0  2  0  0  0  0  0  0  0  0  0
   -2.8392    1.2762    1.1899 C   0  0  0  0  0  0  0  0  0  0  0  0
   -5.0716    1.1970    0.1302 C   0  0  0  0  0  0  0  0  0  0  0  0
   -0.0813   -1.7320   -2.5075 C   0  0  0  0  0  0  0  0  0  0  0  0
    0.6357    2.6796    0.8210 F   0  0  0  0  0  0  0  0  0  0  0  0
   -0.0701    0.0837   -2.5364 O   0  0  0  0  0  0  0  0  0  0  0  0
   -3.8899    2.6251   -0.4175 O   0  0  0  0  0  0  0  0  0  0  0  0
   -5.8983    1.9304    0.9061 O   0  0  0  0  0  0  0  0  0  0  0  0
   -5.2472    0.5340    2.6188 O   0  0  0  0  0  0  0  0  0  0  0  0
    1.6770    0.0656    0.3599 N   0  0  0  0  0  0  0  0  0  0  0  0
    4.8701   -1.5141    0.0932 N   0  0  0  0  0  0  0  0  0  0  0  0
   -1.9681   -0.8699    0.4150 N   0  0  0  0  0  0  0  0  0  0  0  0
    3.8532    0.3851    1.2399 C   0  0  2  0  0  0  0  0  0  0  0  0
    3.6718   -0.9970    0.6761 C   0  0  1  0  0  0  0  0  0  0  0  0
    2.5294    1.0810    0.9678 C   0  0  0  0  0  0  0  0  0  0  0  0
    2.5576   -0.7833   -0.3650 C   0  0  0  0  0  0  0  0  0  0  0  0
    4.9582    1.1103    0.4615 C   0  0  0  0  0  0  0  0  0  0  0  0
   -2.1043   -2.2893    0.4579 C   0  0  0  0  0  0  0  0  0  0  0  0
    6.2577    0.3943    0.7293 C   0  0  0  0  0  0  0  0  0  0  0  0
   -3.2637   -2.7947   -0.4302 C   0  0  0  0  0  0  0  0  0  0  0  0
   -1.8423   -3.2442   -0.5922 C   0  0  0  0  0  0  0  0  0  0  0  0
    6.0011   -1.0787    0.9096 C   0  0  0  0  0  0  0  0  0  0  0  0
    0.6462    0.7162   -0.4390 C   0  0  1  0  0  0  0  0  0  0  0  0
   -1.6340   -0.2688   -0.7863 C   0  0  0  0  0  0  0  0  0  0  0  0
   -0.1851   -0.2769   -1.1944 C   0  0  0  0  0  0  0  0  0  0  0  0
   -2.1337    1.1409   -0.8856 C   0  0  2  0  0  0  0  0  0  0  0  0
   -0.1580    1.5588    0.5110 C   0  0  0  0  0  0  0  0  0  0  0  0
   -2.9462   -0.2494    1.2415 C   0  0  0  0  0  0  0  0  0  0  0  0
   -1.4296    2.1029   -0.0178 C   0  0  0  0  0  0  0  0  0  0  0  0
   -4.0638    0.4107    0.5282 C   0  0  2  0  0  0  0  0  0  0  0  0
   -3.6220    1.2773   -0.6182 C   0  0  0  0  0  0  0  0  0  0  0  0
   -4.8287    1.2733    1.5033 C   0  0  0  0  0  0  0  0  0  0  0  0
    0.5162   -0.8443   -3.3387 C   0  0  0  0  0  0  0  0  0  0  0  0
    1.1896    2.6453    1.2786 F   0  0  0  0  0  0  0  0  0  0  0  0
    0.1335   -0.7239   -1.8747 O   0  0  0  0  0  0  0  0  0  0  0  0
   -3.6040    2.3712    1.5160 O   0  0  0  0  0  0  0  0  0  0  0  0
   -6.4594    1.0787   -1.0388 O   0  0  0  0  0  0  0  0  0  0  0  0
   -6.1199    0.1606    0.9768 O   0  0  0  0  0  0  0  0  0  0  0  0
    2.0079    0.1303    0.5884 N   0  0  0  0  0  0  0  0  0  0  0  0
    5.0093   -1.0565   -0.9292 N   0  0  0  0  0  0  0  0  0  0  0  0
   -2.5198   -0.8146   -0.5660 N   0  0  0  0  0  0  0  0  0  0  0  0
    4.3707    0.4901    0.7611 C   0  0  2  0  0  0  0  0  0  0  0  0
    4.1518   -0.8824    0.2311 C   0  0  1  0  0  0  0  0  0  0  0  0
    3.0094    1.1252    0.9218 C   0  0  0  0  0  0  0  0  0  0  0  0
    2.7011   -0.8869   -0.1225 C   0  0  0  0  0  0  0  0  0  0  0  0
    5.2721    1.3357   -0.1493 C   0  0  0  0  0  0  0  0  0  0  0  0
   -2.5625   -1.6358    0.5674 C   0  0  0  0  0  0  0  0  0  0  0  0
    6.6089    0.6775   -0.2252 C   0  0  0  0  0  0  0  0  0  0  0  0
   -3.7390   -2.3832    1.0321 C   0  0  0  0  0  0  0  0  0  0  0  0
   -2.7882   -3.1477    0.2332 C   0  0  0  0  0  0  0  0  0  0  0  0
    6.3805   -0.7985   -0.4735 C   0  0  0  0  0  0  0  0  0  0  0  0
    0.9080    0.6989   -0.1642 C   0  0  0  0  0  0  0  0  0  0  0  0
   -1.5390    0.2279   -0.6247 C   0  0  2  0  0  0  0  0  0  0  0  0
   -0.1000   -0.2928   -0.5567 C   0  0  1  0  0  0  0  0  0  0  0  0
   -1.8977    1.2792    0.3502 C   0  0  0  0  0  0  0  0  0  0  0  0
    0.3623    1.9359    0.5012 C   0  0  0  0  0  0  0  0  0  0  0  0
   -3.7970   -0.2777   -0.9915 C   0  0  0  0  0  0  0  0  0  0  0  0
   -0.8096    1.4592    1.3806 C   0  0  0  0  0  0  0  0  0  0  0  0
   -4.1971    0.9547   -0.2547 C   0  0  0  0  0  0  0  0  0  0  0  0
   -3.2772    1.1292    0.9374 C   0  0  2  0  0  0  0  0  0  0  0  0
   -5.6369    1.0813    0.0891 C   0  0  0  0  0  0  0  0  0  0  0  0
    0.1552   -2.0667   -2.0694 C   0  0  0  0  0  0  0  0  0  0  0  0
   -2.8839    2.5225    2.3648 H   0  0  0  0  0  0  0  0  0  0  0  0
   -5.5520    2.8152   -1.0920 H   0  0  0  0  0  0  0  0  0  0  0  0
   -5.5146    0.8286    1.2599 H   0  0  0  0  0  0  0  0  0  0  0  0
    4.8706   -0.1138   -1.7191 H   0  0  0  0  0  0  0  0  0  0  0  0
    3.7488    1.6538    1.1644 H   0  0  0  0  0  0  0  0  0  0  0  0
    4.3357   -0.5288    1.1538 H   0  0  0  0  0  0  0  0  0  0  0  0
    2.7767    1.8912   -1.6535 H   0  0  0  0  0  0  0  0  0  0  0  0
    1.9229    2.2675   -0.1118 H   0  0  0  0  0  0  0  0  0  0  0  0
    2.1966   -1.1604    0.8018 H   0  0  0  0  0  0  0  0  0  0  0  0
    2.8569   -1.6165   -0.8616 H   0  0  0  0  0  0  0  0  0  0  0  0
    5.0545    3.0300   -0.1502 H   0  0  0  0  0  0  0  0  0  0  0  0
    4.8800    1.9855   -1.6102 H   0  0  0  0  0  0  0  0  0  0  0  0
   -4.5236   -1.4718    0.7780 H   0  0  0  0  0  0  0  0  0  0  0  0
    7.0499    1.7397   -0.8681 H   0  0  0  0  0  0  0  0  0  0  0  0
    6.6005    1.6796    0.8409 H   0  0  0  0  0  0  0  0  0  0  0  0
   -4.2132   -2.2590   -2.2936 H   0  0  0  0  0  0  0  0  0  0  0  0
   -5.6708   -2.5887   -1.1872 H   0  0  0  0  0  0  0  0  0  0  0  0
   -4.2390   -3.9099    0.4091 H   0  0  0  0  0  0  0  0  0  0  0  0
   -2.7159   -3.5983   -0.6288 H   0  0  0  0  0  0  0  0  0  0  0  0
    6.2374   -0.5479    0.8255 H   0  0  0  0  0  0  0  0  0  0  0  0
    7.1062   -0.6173   -0.7296 H   0  0  0  0  0  0  0  0  0  0  0  0
   -0.0373    1.1437   -0.8718 H   0  0  0  0  0  0  0  0  0  0  0  0
   -1.6150   -2.2124    0.5691 H   0  0  0  0  0  0  0  0  0  0  0  0
   -0.7000   -0.9066   -1.5657 H   0  0  0  0  0  0  0  0  0  0  0  0
   -2.0763   -1.0278    2.4008 H   0  0  0  0  0  0  0  0  0  0  0  0
    1.5293    0.8117    1.5389 H   0  0  0  0  0  0  0  0  0  0  0  0
   -2.2598    0.6922   -1.6394 H   0  0  0  0  0  0  0  0  0  0  0  0
   -4.0082    0.3807   -1.4498 H   0  0  0  0  0  0  0  0  0  0  0  0
   -0.5981    0.7568    2.9936 H   0  0  0  0  0  0  0  0  0  0  0  0
    0.2006   -0.7807    2.5503 H   0  0  0  0  0  0  0  0  0  0  0  0
   -2.2501    2.1880    0.0267 H   0  0  0  0  0  0  0  0  0  0  0  0
   -3.6674    0.4867    2.0201 H   0  0  0  0  0  0  0  0  0  0  0  0
   -4.5201    2.7322    1.0904 H   0  0  0  0  0  0  0  0  0  0  0  0
    0.7575   -2.2386   -2.5104 H   0  0  0  0  0  0  0  0  0  0  0  0
   -0.7183   -2.9538   -1.8751 H   0  0  0  0  0  0  0  0  0  0  0  0
    0.7998   -3.7854   -1.4612 H   0  0  0  0  0  0  0  0  0  0  0  0
   -2.7379    3.4829   -0.7107 H   0  0  0  0  0  0  0  0  0  0  0  0
   -5.6876    1.9485   -1.3200 H   0  0  0  0  0  0  0  0  0  0  0  0
   -7.2031    1.0911    0.7464 H   0  0  0  0  0  0  0  0  0  0  0  0
    5.0582   -0.4489   -1.5804 H   0  0  0  0  0  0  0  0  0  0  0  0
    4.5934    0.8007    1.8860 H   0  0  0  0  0  0  0  0  0  0  0  0
    4.3344   -1.3528    1.1454 H   0  0  0  0  0  0  0  0  0  0  0  0
    2.5331    1.8607    0.1177 H   0  0  0  0  0  0  0  0  0  0  0  0
    2.4272    1.4228    1.9220 H   0  0  0  0  0  0  0  0  0  0  0  0
    2.9046   -0.5453   -1.3619 H   0  0  0  0  0  0  0  0  0  0  0  0
    2.6065   -1.9426   -0.1600 H   0  0  0  0  0  0  0  0  0  0  0  0
    4.9051    2.6916    0.2991 H   0  0  0  0  0  0  0  0  0  0  0  0
    4.5103    1.6229   -1.0657 H   0  0  0  0  0  0  0  0  0  0  0  0
   -3.0130   -2.3906    1.9791 H   0  0  0  0  0  0  0  0  0  0  0  0
    6.8638    1.5496   -0.9991 H   0  0  0  0  0  0  0  0  0  0  0  0
    6.9074    1.6223    0.7843 H   0  0  0  0  0  0  0  0  0  0  0  0
   -4.4481   -3.2956    0.1831 H   0  0  0  0  0  0  0  0  0  0  0  0
   -3.4086   -2.5713   -1.1500 H   0  0  0  0  0  0  0  0  0  0  0  0
   -2.3752   -4.4909    0.9820 H   0  0  0  0  0  0  0  0  0  0  0  0
   -1.4143   -3.8198   -0.3901 H   0  0  0  0  0  0  0  0  0  0  0  0
    6.6134   -0.6593    0.9454 H   0  0  0  0  0  0  0  0  0  0  0  0
    7.3309   -0.6843   -0.6751 H   0  0  0  0  0  0  0  0  0  0  0  0
    1.0617    1.2170   -0.7822 H   0  0  0  0  0  0  0  0  0  0  0  0
   -2.3271   -0.6150   -1.3311 H   0  0  0  0  0  0  0  0  0  0  0  0
   -0.1941   -0.2516   -1.7917 H   0  0  0  0  0  0  0  0  0  0  0  0
   -1.0993    1.6105   -1.0012 H   0  0  0  0  0  0  0  0  0  0  0  0
    0.5050    0.8606    2.1041 H   0  0  0  0  0  0  0  0  0  0  0  0
   -4.4099   -1.2145    0.7993 H   0  0  0  0  0  0  0  0  0  0  0  0
   -3.8632   -0.0644    1.9440 H   0  0  0  0  0  0  0  0  0  0  0  0
   -1.6766    2.4146    1.4692 H   0  0  0  0  0  0  0  0  0  0  0  0
   -1.6828    0.6977    1.8782 H   0  0  0  0  0  0  0  0  0  0  0  0
   -4.6707    0.1364   -0.9839 H   0  0  0  0  0  0  0  0  0  0  0  0
   -3.2241    1.6816   -1.7474 H   0  0  0  0  0  0  0  0  0  0  0  0
   -4.8308    2.0385    1.3768 H   0  0  0  0  0  0  0  0  0  0  0  0
    1.2313   -1.7025   -2.5939 H   0  0  0  0  0  0  0  0  0  0  0  0
   -0.4790   -2.3027   -2.5923 H   0  0  0  0  0  0  0  0  0  0  0  0
    0.8231   -3.3654   -1.9458 H   0  0  0  0  0  0  0  0  0  0  0  0
   -2.4543    2.9575    1.4731 H   0  0  0  0  0  0  0  0  0  0  0  0
   -5.0100    1.8695   -1.6977 H   0  0  0  0  0  0  0  0  0  0  0  0
   -5.2494    0.1582    1.1629 H   0  0  0  0  0  0  0  0  0  0  0  0
    5.0172    0.5922   -2.0482 H   0  0  0  0  0  0  0  0  0  0  0  0
    3.4390    0.6986    1.3392 H   0  0  0  0  0  0  0  0  0  0  0  0
    3.7757   -1.1951   -0.0547 H   0  0  0  0  0  0  0  0  0  0  0  0
    2.9116    2.0327   -1.3666 H   0  0  0  0  0  0  0  0  0  0  0  0
    2.1160    2.5732    0.1040 H   0  0  0  0  0  0  0  0  0  0  0  0
    2.1418   -1.1500   -1.7792 H   0  0  0  0  0  0  0  0  0  0  0  0
    2.7691    0.4842   -2.3803 H   0  0  0  0  0  0  0  0  0  0  0  0
    4.8617    2.6656    0.8208 H   0  0  0  0  0  0  0  0  0  0  0  0
    4.8078    2.2758   -0.9138 H   0  0  0  0  0  0  0  0  0  0  0  0
   -2.7899   -1.8659    1.1912 H   0  0  0  0  0  0  0  0  0  0  0  0
    6.9434    1.6642   -0.2403 H   0  0  0  0  0  0  0  0  0  0  0  0
    6.4677    0.9707    1.3181 H   0  0  0  0  0  0  0  0  0  0  0  0
   -5.0932   -2.5905    0.6279 H   0  0  0  0  0  0  0  0  0  0  0  0
   -4.9828   -1.9612   -1.0876 H   0  0  0  0  0  0  0  0  0  0  0  0
   -3.1375   -4.0591    0.1181 H   0  0  0  0  0  0  0  0  0  0  0  0
   -2.9458   -3.3017   -1.5594 H   0  0  0  0  0  0  0  0  0  0  0  0
    5.8076   -1.0291    0.3120 H   0  0  0  0  0  0  0  0  0  0  0  0
    7.0150   -0.5577   -0.9189 H   0  0  0  0  0  0  0  0  0  0  0  0
    1.8201   -1.0449    0.4850 H   0  0  0  0  0  0  0  0  0  0  0  0
   -1.1268    0.6601   -1.1354 H   0  0  0  0  0  0  0  0  0  0  0  0
    0.1719   -1.1501   -1.3727 H   0  0  0  0  0  0  0  0  0  0  0  0
   -0.9604    1.7627    0.7859 H   0  0  0  0  0  0  0  0  0  0  0  0
    1.3553   -0.1711    2.5002 H   0  0  0  0  0  0  0  0  0  0  0  0
   -3.0837    0.7567   -1.9932 H   0  0  0  0  0  0  0  0  0  0  0  0
   -4.4851   -0.0443   -1.2786 H   0  0  0  0  0  0  0  0  0  0  0  0
   -0.8427    0.6957    2.9806 H   0  0  0  0  0  0  0  0  0  0  0  0
   -0.8888   -0.9218    2.2733 H   0  0  0  0  0  0  0  0  0  0  0  0
   -3.0362    2.3280   -0.4034 H   0  0  0  0  0  0  0  0  0  0  0  0
   -3.3820    0.3345    1.9006 H   0  0  0  0  0  0  0  0  0  0  0  0
   -5.0611    2.5928    1.0181 H   0  0  0  0  0  0  0  0  0  0  0  0
    1.1143   -3.1701   -0.9890 H   0  0  0  0  0  0  0  0  0  0  0  0
   -0.5645   -3.0713   -1.5164 H   0  0  0  0  0  0  0  0  0  0  0  0
   -0.1797   -4.2196   -0.2100 H   0  0  0  0  0  0  0  0  0  0  0  0
   -3.3369    3.1886    1.4311 H   0  0  0  0  0  0  0  0  0  0  0  0
   -6.0595    0.2707   -1.3339 H   0  0  0  0  0  0  0  0  0  0  0  0
   -6.0204    0.5117    1.7080 H   0  0  0  0  0  0  0  0  0  0  0  0
    4.9743   -0.7310   -1.7233 H   0  0  0  0  0  0  0  0  0  0  0  0
    4.7001    0.8762    1.5257 H   0  0  0  0  0  0  0  0  0  0  0  0
    4.0113   -1.3998    1.0028 H   0  0  0  0  0  0  0  0  0  0  0  0
    2.7288    1.8850   -0.4356 H   0  0  0  0  0  0  0  0  0  0  0  0
    2.5927    1.8045    1.4038 H   0  0  0  0  0  0  0  0  0  0  0  0
    2.4372   -1.7773   -0.5664 H   0  0  0  0  0  0  0  0  0  0  0  0
    2.8178   -0.2858   -1.5820 H   0  0  0  0  0  0  0  0  0  0  0  0
    5.0247    2.5115   -0.2654 H   0  0  0  0  0  0  0  0  0  0  0  0
    4.6210    1.2709   -1.4827 H   0  0  0  0  0  0  0  0  0  0  0  0
   -3.4033   -1.5522    1.9288 H   0  0  0  0  0  0  0  0  0  0  0  0
    6.9945    1.1678   -1.4032 H   0  0  0  0  0  0  0  0  0  0  0  0
    7.0176    1.3699    0.4260 H   0  0  0  0  0  0  0  0  0  0  0  0
   -5.2785   -2.8948    0.9896 H   0  0  0  0  0  0  0  0  0  0  0  0
   -4.5701   -2.7943   -0.7160 H   0  0  0  0  0  0  0  0  0  0  0  0
   -3.1904   -4.0490    1.8306 H   0  0  0  0  0  0  0  0  0  0  0  0
   -2.4147   -3.8544    0.0968 H   0  0  0  0  0  0  0  0  0  0  0  0
    6.5045   -0.8029    0.8230 H   0  0  0  0  0  0  0  0  0  0  0  0
    7.2649   -1.0288   -0.8388 H   0  0  0  0  0  0  0  0  0  0  0  0
    1.1572    1.0149   -1.3645 H   0  0  0  0  0  0  0  0  0  0  0  0
   -0.8133   -1.4326    1.0584 H   0  0  0  0  0  0  0  0  0  0  0  0
   -0.9406    0.1099   -1.4875 H   0  0  0  0  0  0  0  0  0  0  0  0
   -1.6613    0.0976    2.4468 H   0  0  0  0  0  0  0  0  0  0  0  0
    0.9691    2.6417    0.4850 H   0  0  0  0  0  0  0  0  0  0  0  0
   -2.9328   -0.1104   -1.8174 H   0  0  0  0  0  0  0  0  0  0  0  0
   -4.2962   -0.8058   -0.9530 H   0  0  0  0  0  0  0  0  0  0  0  0
   -0.7274    2.3113    2.2226 H   0  0  0  0  0  0  0  0  0  0  0  0
    0.4106    0.9380    2.1688 H   0  0  0  0  0  0  0  0  0  0  0  0
   -3.3208    1.8671   -0.8236 H   0  0  0  0  0  0  0  0  0  0  0  0
   -3.5750    1.1514    2.0232 H   0  0  0  0  0  0  0  0  0  0  0  0
   -5.2643    2.1704    0.6128 H   0  0  0  0  0  0  0  0  0  0  0  0
    0.4557   -2.6734   -2.7617 H   0  0  0  0  0  0  0  0  0  0  0  0
    0.3343   -0.9760   -3.2242 H   0  0  0  0  0  0  0  0  0  0  0  0
   -1.1522   -1.9484   -2.7031 H   0  0  0  0  0  0  0  0  0  0  0  0
   -3.5466    3.1125   -1.2047 H   0  0  0  0  0  0  0  0  0  0  0  0
   -6.0084    1.5839   -0.0157 H   0  0  0  0  0  0  0  0  0  0  0  0
   -6.0830    0.0998    2.3690 H   0  0  0  0  0  0  0  0  0  0  0  0
    4.9626   -1.1684   -0.8706 H   0  0  0  0  0  0  0  0  0  0  0  0
    4.1344    0.3961    2.3031 H   0  0  0  0  0  0  0  0  0  0  0  0
    3.3159   -1.6746    1.4890 H   0  0  0  0  0  0  0  0  0  0  0  0
    2.6987    1.9426    0.2734 H   0  0  0  0  0  0  0  0  0  0  0  0
    2.1515    1.4098    1.9533 H   0  0  0  0  0  0  0  0  0  0  0  0
    2.1053   -1.7661   -0.5847 H   0  0  0  0  0  0  0  0  0  0  0  0
    3.0324   -0.3110   -1.2445 H   0  0  0  0  0  0  0  0  0  0  0  0
    5.0479    2.1317    0.9046 H   0  0  0  0  0  0  0  0  0  0  0  0
    4.7051    1.1382   -0.6189 H   0  0  0  0  0  0  0  0  0  0  0  0
   -2.1437   -2.6845    1.5136 H   0  0  0  0  0  0  0  0  0  0  0  0
    6.9674    0.5596   -0.1296 H   0  0  0  0  0  0  0  0  0  0  0  0
    6.7754    0.8033    1.6271 H   0  0  0  0  0  0  0  0  0  0  0  0
   -3.9973   -3.4685    0.0566 H   0  0  0  0  0  0  0  0  0  0  0  0
   -3.6407   -2.1637   -1.2355 H   0  0  0  0  0  0  0  0  0  0  0  0
   -1.3054   -2.9907   -1.5260 H   0  0  0  0  0  0  0  0  0  0  0  0
   -1.6815   -4.3059   -0.3097 H   0  0  0  0  0  0  0  0  0  0  0  0
    5.7214   -1.2895    1.9731 H   0  0  0  0  0  0  0  0  0  0  0  0
    6.9448   -1.6011    0.6206 H   0  0  0  0  0  0  0  0  0  0  0  0
    1.1909    1.4169   -1.1042 H   0  0  0  0  0  0  0  0  0  0  0  0
   -2.1696   -0.8257   -1.6219 H   0  0  0  0  0  0  0  0  0  0  0  0
    0.2416   -1.2825   -1.0310 H   0  0  0  0  0  0  0  0  0  0  0  0
   -1.9491    1.4735   -1.9567 H   0  0  0  0  0  0  0  0  0  0  0  0
   -0.2254    1.0064    1.4616 H   0  0  0  0  0  0  0  0  0  0  0  0
   -3.4139   -1.0601    1.8778 H   0  0  0  0  0  0  0  0  0  0  0  0
   -2.4714    0.4130    1.9861 H   0  0  0  0  0  0  0  0  0  0  0  0
   -1.2642    3.0701   -0.5970 H   0  0  0  0  0  0  0  0  0  0  0  0
   -2.0214    2.4537    0.8594 H   0  0  0  0  0  0  0  0  0  0  0  0
   -4.7984   -0.3771    0.1882 H   0  0  0  0  0  0  0  0  0  0  0  0
   -4.1494    0.9360   -1.5233 H   0  0  0  0  0  0  0  0  0  0  0  0
   -4.1315    2.0382    1.8937 H   0  0  0  0  0  0  0  0  0  0  0  0
    0.5310   -0.4073   -4.3799 H   0  0  0  0  0  0  0  0  0  0  0  0
   -0.0041   -1.8140   -3.4085 H   0  0  0  0  0  0  0  0  0  0  0  0
    1.5896   -0.9532   -3.0821 H   0  0  0  0  0  0  0  0  0  0  0  0
   -3.6692    2.3364    2.4873 H   0  0  0  0  0  0  0  0  0  0  0  0
   -5.9876    1.5083   -1.7820 H   0  0  0  0  0  0  0  0  0  0  0  0
   -6.5583   -0.6199    0.5683 H   0  0  0  0  0  0  0  0  0  0  0  0
    4.7893   -0.4282   -1.7077 H   0  0  0  0  0  0  0  0  0  0  0  0
    4.9355    0.4084    1.7142 H   0  0  0  0  0  0  0  0  0  0  0  0
    4.4499   -1.6881    0.9458 H   0  0  0  0  0  0  0  0  0  0  0  0
    3.0034    1.9839    0.2000 H   0  0  0  0  0  0  0  0  0  0  0  0
    2.9555    1.4382    1.9828 H   0  0  0  0  0  0  0  0  0  0  0  0
    2.3068   -1.8715    0.2803 H   0  0  0  0  0  0  0  0  0  0  0  0
    2.5928   -0.8152   -1.2262 H   0  0  0  0  0  0  0  0  0  0  0  0
    5.3253    2.3319    0.3687 H   0  0  0  0  0  0  0  0  0  0  0  0
    4.7990    1.5266   -1.1233 H   0  0  0  0  0  0  0  0  0  0  0  0
   -1.7767   -1.4651    1.3584 H   0  0  0  0  0  0  0  0  0  0  0  0
    7.2003    1.1612   -1.0426 H   0  0  0  0  0  0  0  0  0  0  0  0
    7.1893    0.8675    0.7051 H   0  0  0  0  0  0  0  0  0  0  0  0
   -4.7716   -2.2225    0.6459 H   0  0  0  0  0  0  0  0  0  0  0  0
   -3.7954   -2.6751    2.1230 H   0  0  0  0  0  0  0  0  0  0  0  0
   -2.0400   -3.8400    0.6690 H   0  0  0  0  0  0  0  0  0  0  0  0
   -3.0673   -3.3980   -0.7909 H   0  0  0  0  0  0  0  0  0  0  0  0
    6.5418   -1.3033    0.5040 H   0  0  0  0  0  0  0  0  0  0  0  0
    7.1322   -1.1456   -1.1791 H   0  0  0  0  0  0  0  0  0  0  0  0
    1.4123    1.0993   -1.1053 H   0  0  0  0  0  0  0  0  0  0  0  0
   -1.6309    0.6811   -1.6414 H   0  0  0  0  0  0  0  0  0  0  0  0
   -0.0670   -1.1945    0.0736 H   0  0  0  0  0  0  0  0  0  0  0  0
   -1.9394    2.3062   -0.1493 H   0  0  0  0  0  0  0  0  0  0  0  0
   -0.0355    2.6215   -0.2843 H   0  0  0  0  0  0  0  0  0  0  0  0
   -3.6537   -0.0417   -2.0907 H   0  0  0  0  0  0  0  0  0  0  0  0
   -4.6030   -1.0292   -0.9821 H   0  0  0  0  0  0  0  0  0  0  0  0
   -1.0676    2.2439    2.1173 H   0  0  0  0  0  0  0  0  0  0  0  0
   -0.5234    0.5050    1.8087 H   0  0  0  0  0  0  0  0  0  0  0  0
   -3.9661    1.8485   -0.9126 H   0  0  0  0  0  0  0  0  0  0  0  0
   -3.3787    0.3898    1.7187 H   0  0  0  0  0  0  0  0  0  0  0  0
   -5.7828    2.0967    0.5647 H   0  0  0  0  0  0  0  0  0  0  0  0
    0.3670   -2.3238   -3.1518 H   0  0  0  0  0  0  0  0  0  0  0  0
   -0.8314   -2.5417   -1.7792 H   0  0  0  0  0  0  0  0  0  0  0  0
    0.9326   -2.5651   -1.4879 H   0  0  0  0  0  0  0  0  0  0  0  0
  7 10  1  0
  9 10  1  0
  6 11  1  0
  9 11  1  0
  6 12  1  0
 10 12  1  0
  9 13  1  0
  8 14  1  0
 13 15  1  0
 14 16  1  0
 14 17  1  0
 16 17  1  0
  7 18  1  0
 15 18  1  0
  6 19  1  0
  8 20  1  0
  2 21  1  0
 19 21  1  0
 20 21  1  0
 20 22  1  0
  1 23  1  0
 19 23  1  0
  8 24  1  0
 22 25  1  0
 23 25  1  0
 24 26  1  0
 22 27  1  0
 26 27  1  0
 27  3  1  0
  4 28  1  0
 26 28  1  0
 28  5  1  0
  2 29  1  0
 36 39  1  0
 38 39  1  0
 35 40  1  0
 38 40  1  0
 35 41  1  0
 39 41  1  0
 38 42  1  0
 37 43  1  0
 42 44  1  0
 43 45  1  0
 43 46  1  0
 45 46  1  0
 36 47  1  0
 44 47  1  0
 35 48  1  0
 37 49  1  0
 31 50  1  0
 48 50  1  0
 49 50  1  0
 49 51  1  0
 30 52  1  0
 48 52  1  0
 37 53  1  0
 51 54  1  0
 52 54  1  0
 53 55  1  0
 51 56  1  0
 55 56  1  0
 56 32  1  0
 33 57  1  0
 55 57  1  0
 57 34  1  0
 31 58  1  0
 65 68  1  0
 67 68  1  0
 64 69  1  0
 67 69  1  0
 64 70  1  0
 68 70  1  0
 67 71  1  0
 66 72  1  0
 71 73  1  0
 72 74  1  0
 72 75  1  0
 74 75  1  0
 65 76  1  0
 73 76  1  0
 64 77  1  0
 66 78  1  0
 60 79  1  0
 77 79  1  0
 78 79  1  0
 78 80  1  0
 59 81  1  0
 77 81  1  0
 66 82  1  0
 80 83  1  0
 81 83  1  0
 82 84  1  0
 80 85  1  0
 84 85  1  0
 85 61  1  0
 62 86  1  0
 84 86  1  0
 86 63  1  0
 60 87  1  0
 94 97  1  0
 96 97  1  0
 93 98  1  0
 96 98  1  0
 93 99  1  0
 97 99  1  0
 96100  1  0
 95101  1  0
100102  1  0
101103  1  0
101104  1  0
103104  1  0
 94105  1  0
102105  1  0
 93106  1  0
 95107  1  0
 89108  1  0
106108  1  0
107108  1  0
107109  1  0
 88110  1  0
106110  1  0
 95111  1  0
109112  1  0
110112  1  0
111113  1  0
109114  1  0
113114  1  0
114 90  1  0
 91115  1  0
113115  1  0
115 92  1  0
 89116  1  0
123126  1  0
125126  1  0
122127  1  0
125127  1  0
122128  1  0
126128  1  0
125129  1  0
124130  1  0
129131  1  0
130132  1  0
130133  1  0
132133  1  0
123134  1  0
131134  1  0
122135  1  0
124136  1  0
118137  1  0
135137  1  0
136137  1  0
136138  1  0
117139  1  0
135139  1  0
124140  1  0
138141  1  0
139141  1  0
140142  1  0
138143  1  0
142143  1  0
143119  1  0
120144  1  0
142144  1  0
144121  1  0
118145  1  0
152155  1  0
154155  1  0
151156  1  0
154156  1  0
151157  1  0
155157  1  0
154158  1  0
153159  1  0
158160  1  0
159161  1  0
159162  1  0
161162  1  0
152163  1  0
160163  1  0
151164  1  0
153165  1  0
147166  1  0
164166  1  0
165166  1  0
165167  1  0
146168  1  0
164168  1  0
153169  1  0
167170  1  0
168170  1  0
169171  1  0
167172  1  0
171172  1  0
172148  1  0
149173  1  0
171173  1  0
173150  1  0
147174  1  0
  3175  1  0
  4176  1  0
  5177  1  0
  7178  1  0
  9179  1  1
 10180  1  1
 11181  1  0
 11182  1  0
 12183  1  0
 12184  1  0
 13185  1  0
 13186  1  0
 14187  1  0
 15188  1  0
 15189  1  0
 16190  1  0
 16191  1  0
 17192  1  0
 17193  1  0
 18194  1  0
 18195  1  0
 19196  1  6
 20197  1  1
 21198  1  6
 22199  1  0
 23200  1  0
 24201  1  0
 24202  1  0
 25203  1  0
 25204  1  0
 26205  1  6
 27206  1  0
 28207  1  0
 29208  1  0
 29209  1  0
 29210  1  0
 32211  1  0
 33212  1  0
 34213  1  0
 36214  1  0
 38215  1  1
 39216  1  1
 40217  1  0
 40218  1  0
 41219  1  0
 41220  1  0
 42221  1  0
 42222  1  0
 43223  1  0
 44224  1  0
 44225  1  0
 45226  1  0
 45227  1  0
 46228  1  0
 46229  1  0
 47230  1  0
 47231  1  0
 48232  1  6
 49233  1  0
 50234  1  6
 51235  1  6
 52236  1  0
 53237  1  0
 53238  1  0
 54239  1  0
 54240  1  0
 55241  1  6
 56242  1  0
 57243  1  0
 58244  1  0
 58245  1  0
 58246  1  0
 61247  1  0
 62248  1  0
 63249  1  0
 65250  1  0
 67251  1  1
 68252  1  1
 69253  1  0
 69254  1  0
 70255  1  0
 70256  1  0
 71257  1  0
 71258  1  0
 72259  1  0
 73260  1  0
 73261  1  0
 74262  1  0
 74263  1  0
 75264  1  0
 75265  1  0
 76266  1  0
 76267  1  0
 77268  1  1
 78269  1  6
 79270  1  0
 80271  1  6
 81272  1  0
 82273  1  0
 82274  1  0
 83275  1  0
 83276  1  0
 84277  1  0
 85278  1  0
 86279  1  0
 87280  1  0
 87281  1  0
 87282  1  0
 90283  1  0
 91284  1  0
 92285  1  0
 94286  1  0
 96287  1  1
 97288  1  1
 98289  1  0
 98290  1  0
 99291  1  0
 99292  1  0
100293  1  0
100294  1  0
101295  1  0
102296  1  0
102297  1  0
103298  1  0
103299  1  0
104300  1  0
104301  1  0
105302  1  0
105303  1  0
106304  1  6
107305  1  1
108306  1  6
109307  1  0
110308  1  1
111309  1  0
111310  1  0
112311  1  0
112312  1  0
113313  1  6
114314  1  0
115315  1  0
116316  1  0
116317  1  0
116318  1  0
119319  1  0
120320  1  0
121321  1  0
123322  1  0
125323  1  1
126324  1  1
127325  1  0
127326  1  0
128327  1  0
128328  1  0
129329  1  0
129330  1  0
130331  1  0
131332  1  0
131333  1  0
132334  1  0
132335  1  0
133336  1  0
133337  1  0
134338  1  0
134339  1  0
135340  1  6
136341  1  0
137342  1  0
138343  1  6
139344  1  0
140345  1  0
140346  1  0
141347  1  0
141348  1  0
142349  1  6
143350  1  0
144351  1  0
145352  1  0
145353  1  0
145354  1  0
148355  1  0
149356  1  0
150357  1  0
152358  1  0
154359  1  1
155360  1  1
156361  1  0
156362  1  0
157363  1  0
157364  1  0
158365  1  0
158366  1  0
159367  1  0
160368  1  0
160369  1  0
161370  1  0
161371  1  0
162372  1  0
162373  1  0
163374  1  0
163375  1  0
164376  1  0
165377  1  6
166378  1  1
167379  1  0
168380  1  0
169381  1  0
169382  1  0
170383  1  0
170384  1  0
171385  1  0
172386  1  1
173387  1  0
174388  1  0
174389  1  0
174390  1  0
M  END
>  <PDBID>  (1) 
5CDQ

>  <PDB ID>  (1) 
5CDQ

>  <Generic Name>  (1) 
Moxifloxacin

>  <Brand Name>  (1) 
Act Moxifloxacin#Apo-moxifloxacin#Auro-moxifloxacin#Avelox#Avelox Abc Pack#Avelox I.V.#Bio-moxifloxacin#Dom-moxifloxacin#Ipg-moxifloxacin#Jamp-moxifloxacin#Jamp-moxifloxacin Tablets#Mar-moxifloxacin#Med-moxifloxacin#Moxeza#Moxifloxacin#Moxifloxacin Hydrochloride#Moxifloxacin Injection#Mylan-moxifloxacin#Mylan-moxifloxacin HCl Ophthalmic Solution#PHL-moxifloxacin#PMS-moxifloxacin#Priva-moxifloxacin#Riva-moxifloxacin#Sandoz Moxifloxacin#Teva-moxifloxacin#Torrent-moxifloxacin#Vigamox

>  <DrugBank ID>  (1) 
DB00218

>  <ATC Codes>  (1) 
J01MA14#S01AE07

>  <Ligand ID>  (1) 
MFX

>  <Target Name>  (1) 
DNA gyrase subunit A

>  <UniProt ID>  (1) 
P43700

>  <PDB ID.1>  (1) 
5CDQ

>  <Seq. Identity>  (1) 
53%

$$$$
