PDB_DB00196_03
     RDKit          3D

 48 50  0  0  0  0  0  0  0  0999 V2000
    0.4409   -0.8891   -1.0626 O   0  0  0  0  0  0  0  0  0  0  0  0
    0.0625   -0.1946    0.0832 C   0  0  0  0  0  0  0  0  0  0  0  0
   -0.9105   -1.1023    0.8179 C   0  0  0  0  0  0  0  0  0  0  0  0
    1.2905   -0.2109    1.0252 C   0  0  0  0  0  0  0  0  0  0  0  0
   -0.4609    1.1266   -0.1717 C   0  0  0  0  0  0  0  0  0  0  0  0
   -2.0293   -1.5697    0.0932 N   0  0  0  0  0  0  0  0  0  0  0  0
   -2.8536   -2.4037    0.9486 C   0  0  0  0  0  0  0  0  0  0  0  0
   -1.6368   -2.3925   -0.9724 N   0  0  0  0  0  0  0  0  0  0  0  0
   -3.4727   -3.3168    0.0285 N   0  0  0  0  0  0  0  0  0  0  0  0
   -2.3282   -3.6445   -0.8378 C   0  0  0  0  0  0  0  0  0  0  0  0
    2.4710    0.3418    0.4709 N   0  0  0  0  0  0  0  0  0  0  0  0
    3.5308    0.2682    1.4597 C   0  0  0  0  0  0  0  0  0  0  0  0
    2.9918   -0.4376   -0.5883 N   0  0  0  0  0  0  0  0  0  0  0  0
    3.8326   -1.1669    1.4253 N   0  0  0  0  0  0  0  0  0  0  0  0
    3.8987   -1.3805   -0.0096 C   0  0  0  0  0  0  0  0  0  0  0  0
    0.5004    2.0765   -0.8858 C   0  0  0  0  0  0  0  0  0  0  0  0
   -1.7503    1.3396   -0.8588 C   0  0  0  0  0  0  0  0  0  0  0  0
    0.1242    3.4819   -0.5118 C   0  0  0  0  0  0  0  0  0  0  0  0
   -1.3101    3.8111   -0.8148 C   0  0  0  0  0  0  0  0  0  0  0  0
   -1.6268    4.9462   -0.0694 F   0  0  0  0  0  0  0  0  0  0  0  0
   -2.2608    2.7408   -0.4213 C   0  0  0  0  0  0  0  0  0  0  0  0
   -2.7568    0.4698   -0.7209 F   0  0  0  0  0  0  0  0  0  0  0  0
    0.7072   -0.2193   -1.7465 H   0  0  0  0  0  0  0  0  0  0  0  0
   -1.2481   -0.6169    1.7774 H   0  0  0  0  0  0  0  0  0  0  0  0
   -0.3554   -2.0171    1.2019 H   0  0  0  0  0  0  0  0  0  0  0  0
    1.0169    0.1691    2.0193 H   0  0  0  0  0  0  0  0  0  0  0  0
    1.4779   -1.3157    1.1769 H   0  0  0  0  0  0  0  0  0  0  0  0
   -0.5862    1.6394    0.8540 H   0  0  0  0  0  0  0  0  0  0  0  0
   -2.2087   -2.9051    1.7069 H   0  0  0  0  0  0  0  0  0  0  0  0
   -3.6197   -1.7589    1.4683 H   0  0  0  0  0  0  0  0  0  0  0  0
   -1.7984   -1.9351   -1.8979 H   0  0  0  0  0  0  0  0  0  0  0  0
   -3.7721   -4.1625    0.5781 H   0  0  0  0  0  0  0  0  0  0  0  0
   -1.6692   -4.3198   -0.2238 H   0  0  0  0  0  0  0  0  0  0  0  0
   -2.6413   -4.1011   -1.7807 H   0  0  0  0  0  0  0  0  0  0  0  0
    3.1483    0.5950    2.4291 H   0  0  0  0  0  0  0  0  0  0  0  0
    4.4116    0.8431    1.1052 H   0  0  0  0  0  0  0  0  0  0  0  0
    3.5357    0.2138   -1.2039 H   0  0  0  0  0  0  0  0  0  0  0  0
    4.7286   -1.3014    1.9061 H   0  0  0  0  0  0  0  0  0  0  0  0
    3.6689   -2.4347   -0.2570 H   0  0  0  0  0  0  0  0  0  0  0  0
    4.9633   -1.1663   -0.3080 H   0  0  0  0  0  0  0  0  0  0  0  0
    0.3116    1.9479   -1.9927 H   0  0  0  0  0  0  0  0  0  0  0  0
    1.5460    1.9559   -0.6398 H   0  0  0  0  0  0  0  0  0  0  0  0
   -1.5345    1.4475   -1.9680 H   0  0  0  0  0  0  0  0  0  0  0  0
    0.3983    3.6376    0.5457 H   0  0  0  0  0  0  0  0  0  0  0  0
    0.7487    4.1666   -1.1431 H   0  0  0  0  0  0  0  0  0  0  0  0
   -1.4059    4.1156   -1.8773 H   0  0  0  0  0  0  0  0  0  0  0  0
   -3.2502    2.9307   -0.8532 H   0  0  0  0  0  0  0  0  0  0  0  0
   -2.3199    2.6984    0.6957 H   0  0  0  0  0  0  0  0  0  0  0  0
  2  1  1  0
  2  3  1  0
  2  4  1  0
  2  5  1  0
  3  6  1  0
  6  7  1  0
  6  8  1  0
  7  9  1  0
  8 10  1  0
  9 10  1  0
  4 11  1  0
 11 12  1  0
 11 13  1  0
 12 14  1  0
 13 15  1  0
 15 14  1  0
  5 16  1  0
  5 17  1  0
 16 18  1  0
 18 19  1  0
 19 20  1  0
 17 21  1  0
 19 21  1  0
 17 22  1  0
  1 23  1  0
  3 24  1  0
  3 25  1  0
  4 26  1  0
  4 27  1  0
  5 28  1  0
  7 29  1  0
  7 30  1  0
  8 31  1  0
  9 32  1  0
 10 33  1  0
 10 34  1  0
 12 35  1  0
 12 36  1  0
 13 37  1  0
 14 38  1  0
 15 39  1  0
 15 40  1  0
 16 41  1  0
 16 42  1  0
 17 43  1  0
 18 44  1  0
 18 45  1  0
 19 46  1  0
 21 47  1  0
 21 48  1  0
M  END
>  <PDBID>  (1) 
5ESM

>  <PDB ID>  (1) 
5ESM

>  <Generic Name>  (1) 
Fluconazole

>  <Brand Name>  (1) 
Act Fluconazole#Apo-fluconazole#Apo-fluconazole-150#Canesoral#Canesoral Combi-pak#Clotrimaderm-fluconazole Combi-pack#Clotrimazole-fluconazole Combi-pack#Co Fluconazole-150#Diflucan#Diflucan Inj 2mg/ml#Diflucan One#Diflucan Pws 50mg/5ml#Diflucan Tab 100mg#Diflucan Tab 50mg#Dom-fluconazole#Fluconazole#Fluconazole 150#Fluconazole In Sodium Chloride Injection USP#Fluconazole Injection#Fluconazole Injection Sdz#Fluconazole Omega#Fluconazole-150#Jamp-fluconazole#Mar-fluconazole-150#Monicure#Monicure Combo#Mylan-fluconazole#Novo-fluconazole#Novo-fluconazole-150#Nu-fluconazole-150#PHL-fluconazole#PMS-fluconazole#PMS-fluconazole-150#Priva-fluconazole#Pro-fluconazole#Riva-fluconazole#Taro-fluconazole#Teva-fluconazole#Elazor#Flucazol#Flucostat#Flunizol#Pritenzol#Trican#Triflucan

>  <DrugBank ID>  (1) 
DB00196

>  <ATC Codes>  (1) 
D01AC15#J02AC01#J01RA07

>  <Ligand ID>  (1) 
TPF

>  <Target Name>  (1) 
Lanosterol 14-alpha demethylase

>  <UniProt ID>  (1) 
P10613

>  <PDB ID.1>  (1) 
5ESM

>  <Seq. Identity>  (1) 
65%

$$$$
