PDB_DB00196_02
     RDKit          3D

 48 50  0  0  0  0  0  0  0  0999 V2000
    0.1265    0.9049    1.5459 O   0  0  0  0  0  0  0  0  0  0  0  0
    0.3452    0.1430    0.3427 C   0  0  0  0  0  0  0  0  0  0  0  0
   -0.2757    0.9489   -0.7198 C   0  0  0  0  0  0  0  0  0  0  0  0
   -0.2138   -1.1878    0.6088 C   0  0  0  0  0  0  0  0  0  0  0  0
    1.8528    0.0391    0.2481 C   0  0  0  0  0  0  0  0  0  0  0  0
   -1.6646    1.2491   -0.4549 N   0  0  0  0  0  0  0  0  0  0  0  0
   -1.8925    2.1248    0.6482 C   0  0  0  0  0  0  0  0  0  0  0  0
   -2.3226    1.7486   -1.5577 N   0  0  0  0  0  0  0  0  0  0  0  0
   -3.1321    2.8428    0.3356 N   0  0  0  0  0  0  0  0  0  0  0  0
   -3.2320    2.7757   -1.0862 C   0  0  0  0  0  0  0  0  0  0  0  0
   -1.5793   -1.3977    0.8437 N   0  0  0  0  0  0  0  0  0  0  0  0
   -2.4744   -1.3921   -0.2509 C   0  0  0  0  0  0  0  0  0  0  0  0
   -1.9088   -2.4323    1.7123 N   0  0  0  0  0  0  0  0  0  0  0  0
   -2.9166   -2.8171   -0.3451 N   0  0  0  0  0  0  0  0  0  0  0  0
   -2.9447   -3.1962    1.0472 C   0  0  0  0  0  0  0  0  0  0  0  0
    2.5671    1.3439    0.1933 C   0  0  0  0  0  0  0  0  0  0  0  0
    2.3424   -0.7992   -0.8999 C   0  0  0  0  0  0  0  0  0  0  0  0
    3.9787    1.1777   -0.3762 C   0  0  0  0  0  0  0  0  0  0  0  0
    4.5864   -0.1270    0.0139 C   0  0  0  0  0  0  0  0  0  0  0  0
    4.7262   -0.1410    1.3946 F   0  0  0  0  0  0  0  0  0  0  0  0
    3.7466   -1.2682   -0.4881 C   0  0  0  0  0  0  0  0  0  0  0  0
    2.3577   -0.0845   -2.0706 F   0  0  0  0  0  0  0  0  0  0  0  0
    0.9094    0.9120    2.1158 H   0  0  0  0  0  0  0  0  0  0  0  0
    0.2031    1.9158   -0.9567 H   0  0  0  0  0  0  0  0  0  0  0  0
   -0.2888    0.4083   -1.7162 H   0  0  0  0  0  0  0  0  0  0  0  0
    0.0646   -1.9331   -0.2220 H   0  0  0  0  0  0  0  0  0  0  0  0
    0.3278   -1.6842    1.4966 H   0  0  0  0  0  0  0  0  0  0  0  0
    2.1690   -0.4759    1.1876 H   0  0  0  0  0  0  0  0  0  0  0  0
   -2.0992    1.5329    1.5885 H   0  0  0  0  0  0  0  0  0  0  0  0
   -1.0618    2.8390    0.7845 H   0  0  0  0  0  0  0  0  0  0  0  0
   -2.7697    1.0698   -2.1847 H   0  0  0  0  0  0  0  0  0  0  0  0
   -3.9402    2.3406    0.8199 H   0  0  0  0  0  0  0  0  0  0  0  0
   -4.2770    2.5882   -1.3568 H   0  0  0  0  0  0  0  0  0  0  0  0
   -2.9702    3.7713   -1.5309 H   0  0  0  0  0  0  0  0  0  0  0  0
   -3.3818   -0.8370   -0.0393 H   0  0  0  0  0  0  0  0  0  0  0  0
   -2.0206   -1.2381   -1.2599 H   0  0  0  0  0  0  0  0  0  0  0  0
   -1.1212   -3.0158    2.0201 H   0  0  0  0  0  0  0  0  0  0  0  0
   -3.8265   -2.8848   -0.8134 H   0  0  0  0  0  0  0  0  0  0  0  0
   -3.9629   -3.0040    1.4238 H   0  0  0  0  0  0  0  0  0  0  0  0
   -2.7417   -4.2947    1.0941 H   0  0  0  0  0  0  0  0  0  0  0  0
    2.7487    1.7645    1.2309 H   0  0  0  0  0  0  0  0  0  0  0  0
    2.1073    2.1275   -0.4089 H   0  0  0  0  0  0  0  0  0  0  0  0
    1.7868   -1.7213   -1.0996 H   0  0  0  0  0  0  0  0  0  0  0  0
    4.6492    1.9759    0.0676 H   0  0  0  0  0  0  0  0  0  0  0  0
    4.0065    1.3778   -1.4785 H   0  0  0  0  0  0  0  0  0  0  0  0
    5.6242   -0.1719   -0.3986 H   0  0  0  0  0  0  0  0  0  0  0  0
    4.1800   -1.7887   -1.3598 H   0  0  0  0  0  0  0  0  0  0  0  0
    3.6123   -2.0296    0.3108 H   0  0  0  0  0  0  0  0  0  0  0  0
  2  1  1  0
  2  3  1  0
  2  4  1  0
  2  5  1  0
  3  6  1  0
  6  7  1  0
  6  8  1  0
  7  9  1  0
  8 10  1  0
  9 10  1  0
  4 11  1  0
 11 12  1  0
 11 13  1  0
 12 14  1  0
 13 15  1  0
 15 14  1  0
  5 16  1  0
  5 17  1  0
 16 18  1  0
 18 19  1  0
 19 20  1  0
 17 21  1  0
 19 21  1  0
 17 22  1  0
  1 23  1  0
  3 24  1  0
  3 25  1  0
  4 26  1  0
  4 27  1  0
  5 28  1  0
  7 29  1  0
  7 30  1  0
  8 31  1  0
  9 32  1  0
 10 33  1  0
 10 34  1  0
 12 35  1  0
 12 36  1  0
 13 37  1  0
 14 38  1  0
 15 39  1  0
 15 40  1  0
 16 41  1  0
 16 42  1  0
 17 43  1  0
 18 44  1  0
 18 45  1  0
 19 46  1  0
 21 47  1  0
 21 48  1  0
M  END
>  <PDBID>  (1) 
5ESM

>  <PDB ID>  (1) 
5ESM

>  <Generic Name>  (1) 
Fluconazole

>  <Brand Name>  (1) 
Act Fluconazole#Apo-fluconazole#Apo-fluconazole-150#Canesoral#Canesoral Combi-pak#Clotrimaderm-fluconazole Combi-pack#Clotrimazole-fluconazole Combi-pack#Co Fluconazole-150#Diflucan#Diflucan Inj 2mg/ml#Diflucan One#Diflucan Pws 50mg/5ml#Diflucan Tab 100mg#Diflucan Tab 50mg#Dom-fluconazole#Fluconazole#Fluconazole 150#Fluconazole In Sodium Chloride Injection USP#Fluconazole Injection#Fluconazole Injection Sdz#Fluconazole Omega#Fluconazole-150#Jamp-fluconazole#Mar-fluconazole-150#Monicure#Monicure Combo#Mylan-fluconazole#Novo-fluconazole#Novo-fluconazole-150#Nu-fluconazole-150#PHL-fluconazole#PMS-fluconazole#PMS-fluconazole-150#Priva-fluconazole#Pro-fluconazole#Riva-fluconazole#Taro-fluconazole#Teva-fluconazole#Elazor#Flucazol#Flucostat#Flunizol#Pritenzol#Trican#Triflucan

>  <DrugBank ID>  (1) 
DB00196

>  <ATC Codes>  (1) 
D01AC15#J02AC01#J01RA07

>  <Ligand ID>  (1) 
TPF

>  <Target Name>  (1) 
Lanosterol 14-alpha demethylase

>  <UniProt ID>  (1) 
P10613

>  <PDB ID.1>  (1) 
5ESM

>  <Seq. Identity>  (1) 
65%

$$$$
