PDB_DB00820_09
     RDKit          3D

132142  0  0  0  0  0  0  0  0999 V2000
   -3.6662   -3.3285   -1.2960 C   0  0  0  0  0  0  0  0  0  0  0  0
   -4.0507   -3.1283    0.1558 C   0  0  0  0  0  0  0  0  0  0  0  0
   -3.8827   -1.6865    0.5931 C   0  0  0  0  0  0  0  0  0  0  0  0
   -2.6269   -1.0761    0.0104 C   0  0  0  0  0  0  0  0  0  0  0  0
   -1.7799   -0.4071    1.0716 C   0  0  0  0  0  0  0  0  0  0  0  0
   -0.3916   -0.8052    0.7242 C   0  0  0  0  0  0  0  0  0  0  0  0
   -0.4665   -1.5380   -0.5199 N   0  0  0  0  0  0  0  0  0  0  0  0
   -1.7211   -2.2393   -0.3413 C   0  0  0  0  0  0  0  0  0  0  0  0
   -2.2179   -2.9320   -1.5500 C   0  0  0  0  0  0  0  0  0  0  0  0
    0.5576    0.4124    0.6358 C   0  0  2  0  0  0  0  0  0  0  0  0
   -0.0326    1.3316   -0.2581 N   0  0  0  0  0  0  0  0  0  0  0  0
    0.6468    2.2528   -1.0132 C   0  0  0  0  0  0  0  0  0  0  0  0
    1.6215    1.7968   -1.8919 O   0  0  0  0  0  0  0  0  0  0  0  0
   -0.3083    2.9584   -2.0160 C   0  0  0  0  0  0  0  0  0  0  0  0
   -1.3825    3.6073   -1.3457 N   0  0  0  0  0  0  0  0  0  0  0  0
   -2.1184    2.5629   -0.6697 C   0  0  0  0  0  0  0  0  0  0  0  0
   -3.2906    2.9947   -0.1095 O   0  0  0  0  0  0  0  0  0  0  0  0
   -1.1818    1.9528    0.3490 C   0  0  1  0  0  0  0  0  0  0  0  0
   -2.0039    1.0588    1.2102 C   0  0  0  0  0  0  0  0  0  0  0  0
   -1.0336    4.7206   -0.5329 C   0  0  0  0  0  0  0  0  0  0  0  0
    1.9159   -0.1025    0.3973 C   0  0  0  0  0  0  0  0  0  0  0  0
    2.9987    0.9179    0.5886 C   0  0  0  0  0  0  0  0  0  0  0  0
    4.2445    0.4904   -0.2046 C   0  0  0  0  0  0  0  0  0  0  0  0
    4.3273   -0.9872   -0.1086 C   0  0  0  0  0  0  0  0  0  0  0  0
    5.6213   -1.4896   -0.0216 O   0  0  0  0  0  0  0  0  0  0  0  0
    5.5638   -2.5991    0.8208 C   0  0  0  0  0  0  0  0  0  0  0  0
    4.2643   -2.7170    1.2964 O   0  0  0  0  0  0  0  0  0  0  0  0
    3.8087   -1.4021    1.2685 C   0  0  0  0  0  0  0  0  0  0  0  0
    2.2978   -1.3008    1.2742 C   0  0  0  0  0  0  0  0  0  0  0  0
   -3.6662   -3.3285   -1.2960 C   0  0  0  0  0  0  0  0  0  0  0  0
   -4.0507   -3.1283    0.1558 C   0  0  0  0  0  0  0  0  0  0  0  0
   -3.8827   -1.6865    0.5931 C   0  0  0  0  0  0  0  0  0  0  0  0
   -2.6269   -1.0761    0.0104 C   0  0  0  0  0  0  0  0  0  0  0  0
   -1.7799   -0.4071    1.0716 C   0  0  0  0  0  0  0  0  0  0  0  0
   -0.3916   -0.8052    0.7242 C   0  0  0  0  0  0  0  0  0  0  0  0
   -0.4665   -1.5380   -0.5199 N   0  0  0  0  0  0  0  0  0  0  0  0
   -1.7211   -2.2393   -0.3413 C   0  0  0  0  0  0  0  0  0  0  0  0
   -2.2179   -2.9320   -1.5500 C   0  0  0  0  0  0  0  0  0  0  0  0
    0.5576    0.4124    0.6358 C   0  0  2  0  0  0  0  0  0  0  0  0
   -0.0326    1.3316   -0.2581 N   0  0  0  0  0  0  0  0  0  0  0  0
    0.6468    2.2528   -1.0132 C   0  0  0  0  0  0  0  0  0  0  0  0
    1.6215    1.7968   -1.8919 O   0  0  0  0  0  0  0  0  0  0  0  0
   -0.3083    2.9584   -2.0160 C   0  0  0  0  0  0  0  0  0  0  0  0
   -1.3825    3.6073   -1.3457 N   0  0  0  0  0  0  0  0  0  0  0  0
   -2.1184    2.5629   -0.6697 C   0  0  0  0  0  0  0  0  0  0  0  0
   -3.2906    2.9947   -0.1095 O   0  0  0  0  0  0  0  0  0  0  0  0
   -1.1818    1.9528    0.3490 C   0  0  1  0  0  0  0  0  0  0  0  0
   -2.0039    1.0588    1.2102 C   0  0  0  0  0  0  0  0  0  0  0  0
   -1.0336    4.7206   -0.5329 C   0  0  0  0  0  0  0  0  0  0  0  0
    1.9159   -0.1025    0.3973 C   0  0  0  0  0  0  0  0  0  0  0  0
    2.9987    0.9179    0.5886 C   0  0  0  0  0  0  0  0  0  0  0  0
    4.2445    0.4904   -0.2046 C   0  0  0  0  0  0  0  0  0  0  0  0
    4.3273   -0.9872   -0.1086 C   0  0  0  0  0  0  0  0  0  0  0  0
    5.6213   -1.4896   -0.0216 O   0  0  0  0  0  0  0  0  0  0  0  0
    5.5638   -2.5991    0.8208 C   0  0  0  0  0  0  0  0  0  0  0  0
    4.2643   -2.7170    1.2964 O   0  0  0  0  0  0  0  0  0  0  0  0
    3.8087   -1.4021    1.2685 C   0  0  0  0  0  0  0  0  0  0  0  0
    2.2978   -1.3008    1.2742 C   0  0  0  0  0  0  0  0  0  0  0  0
   -3.7287   -4.4250   -1.4828 H   0  0  0  0  0  0  0  0  0  0  0  0
   -4.3701   -2.8400   -1.9720 H   0  0  0  0  0  0  0  0  0  0  0  0
   -3.5249   -3.8415    0.8107 H   0  0  0  0  0  0  0  0  0  0  0  0
   -5.1345   -3.3521    0.2251 H   0  0  0  0  0  0  0  0  0  0  0  0
   -3.9241   -1.6575    1.6815 H   0  0  0  0  0  0  0  0  0  0  0  0
   -4.7439   -1.1297    0.1553 H   0  0  0  0  0  0  0  0  0  0  0  0
   -2.8386   -0.4381   -0.8637 H   0  0  0  0  0  0  0  0  0  0  0  0
   -2.1257   -0.8840    2.0383 H   0  0  0  0  0  0  0  0  0  0  0  0
    0.0028   -1.4209    1.5489 H   0  0  0  0  0  0  0  0  0  0  0  0
   -0.5668   -0.8841   -1.3111 H   0  0  0  0  0  0  0  0  0  0  0  0
   -1.6675   -2.8989    0.5483 H   0  0  0  0  0  0  0  0  0  0  0  0
   -1.5786   -3.8047   -1.7762 H   0  0  0  0  0  0  0  0  0  0  0  0
   -2.1624   -2.2275   -2.4101 H   0  0  0  0  0  0  0  0  0  0  0  0
    0.5038    0.8532    1.6545 H   0  0  0  0  0  0  0  0  0  0  0  0
    0.9894    3.1323   -0.3904 H   0  0  0  0  0  0  0  0  0  0  0  0
    2.3013    2.4880   -2.0824 H   0  0  0  0  0  0  0  0  0  0  0  0
   -0.6630    2.2709   -2.7813 H   0  0  0  0  0  0  0  0  0  0  0  0
    0.3253    3.7272   -2.5031 H   0  0  0  0  0  0  0  0  0  0  0  0
   -2.3550    1.8077   -1.4312 H   0  0  0  0  0  0  0  0  0  0  0  0
   -3.1879    3.3906    0.7877 H   0  0  0  0  0  0  0  0  0  0  0  0
   -0.7971    2.8305    0.9506 H   0  0  0  0  0  0  0  0  0  0  0  0
   -3.0938    1.2309    1.0803 H   0  0  0  0  0  0  0  0  0  0  0  0
   -1.8005    1.3288    2.2798 H   0  0  0  0  0  0  0  0  0  0  0  0
   -1.4592    4.7031    0.4916 H   0  0  0  0  0  0  0  0  0  0  0  0
   -1.4928    5.6354   -1.0124 H   0  0  0  0  0  0  0  0  0  0  0  0
    0.0563    4.9402   -0.5130 H   0  0  0  0  0  0  0  0  0  0  0  0
    2.0092   -0.5859   -0.6393 H   0  0  0  0  0  0  0  0  0  0  0  0
    3.2641    0.8312    1.7087 H   0  0  0  0  0  0  0  0  0  0  0  0
    2.7505    1.9584    0.4933 H   0  0  0  0  0  0  0  0  0  0  0  0
    4.0603    0.7836   -1.2512 H   0  0  0  0  0  0  0  0  0  0  0  0
    5.1353    1.0113    0.1942 H   0  0  0  0  0  0  0  0  0  0  0  0
    3.7827   -1.5425   -0.8752 H   0  0  0  0  0  0  0  0  0  0  0  0
    5.8282   -3.5119    0.2122 H   0  0  0  0  0  0  0  0  0  0  0  0
    6.2421   -2.4995    1.6913 H   0  0  0  0  0  0  0  0  0  0  0  0
    4.2979   -0.8772    2.0850 H   0  0  0  0  0  0  0  0  0  0  0  0
    1.9975   -1.1546    2.3214 H   0  0  0  0  0  0  0  0  0  0  0  0
    1.9555   -2.2661    0.8483 H   0  0  0  0  0  0  0  0  0  0  0  0
   -3.7287   -4.4250   -1.4828 H   0  0  0  0  0  0  0  0  0  0  0  0
   -4.3701   -2.8400   -1.9720 H   0  0  0  0  0  0  0  0  0  0  0  0
   -3.5249   -3.8415    0.8107 H   0  0  0  0  0  0  0  0  0  0  0  0
   -5.1345   -3.3521    0.2251 H   0  0  0  0  0  0  0  0  0  0  0  0
   -3.9241   -1.6575    1.6815 H   0  0  0  0  0  0  0  0  0  0  0  0
   -4.7439   -1.1297    0.1553 H   0  0  0  0  0  0  0  0  0  0  0  0
   -2.8386   -0.4381   -0.8637 H   0  0  0  0  0  0  0  0  0  0  0  0
   -2.1257   -0.8840    2.0383 H   0  0  0  0  0  0  0  0  0  0  0  0
    0.0028   -1.4209    1.5489 H   0  0  0  0  0  0  0  0  0  0  0  0
   -0.5668   -0.8841   -1.3111 H   0  0  0  0  0  0  0  0  0  0  0  0
   -1.6675   -2.8989    0.5483 H   0  0  0  0  0  0  0  0  0  0  0  0
   -1.5786   -3.8047   -1.7762 H   0  0  0  0  0  0  0  0  0  0  0  0
   -2.1624   -2.2275   -2.4101 H   0  0  0  0  0  0  0  0  0  0  0  0
    0.5038    0.8532    1.6545 H   0  0  0  0  0  0  0  0  0  0  0  0
    0.9894    3.1323   -0.3904 H   0  0  0  0  0  0  0  0  0  0  0  0
    2.3013    2.4880   -2.0824 H   0  0  0  0  0  0  0  0  0  0  0  0
   -0.6630    2.2709   -2.7813 H   0  0  0  0  0  0  0  0  0  0  0  0
    0.3253    3.7272   -2.5031 H   0  0  0  0  0  0  0  0  0  0  0  0
   -2.3550    1.8077   -1.4312 H   0  0  0  0  0  0  0  0  0  0  0  0
   -3.1879    3.3906    0.7877 H   0  0  0  0  0  0  0  0  0  0  0  0
   -0.7971    2.8305    0.9506 H   0  0  0  0  0  0  0  0  0  0  0  0
   -3.0938    1.2309    1.0803 H   0  0  0  0  0  0  0  0  0  0  0  0
   -1.8005    1.3288    2.2798 H   0  0  0  0  0  0  0  0  0  0  0  0
   -1.4592    4.7031    0.4916 H   0  0  0  0  0  0  0  0  0  0  0  0
   -1.4928    5.6354   -1.0124 H   0  0  0  0  0  0  0  0  0  0  0  0
    0.0563    4.9402   -0.5130 H   0  0  0  0  0  0  0  0  0  0  0  0
    2.0092   -0.5859   -0.6393 H   0  0  0  0  0  0  0  0  0  0  0  0
    3.2641    0.8312    1.7087 H   0  0  0  0  0  0  0  0  0  0  0  0
    2.7505    1.9584    0.4933 H   0  0  0  0  0  0  0  0  0  0  0  0
    4.0603    0.7836   -1.2512 H   0  0  0  0  0  0  0  0  0  0  0  0
    5.1353    1.0113    0.1942 H   0  0  0  0  0  0  0  0  0  0  0  0
    3.7827   -1.5425   -0.8752 H   0  0  0  0  0  0  0  0  0  0  0  0
    5.8282   -3.5119    0.2122 H   0  0  0  0  0  0  0  0  0  0  0  0
    6.2421   -2.4995    1.6913 H   0  0  0  0  0  0  0  0  0  0  0  0
    4.2979   -0.8772    2.0850 H   0  0  0  0  0  0  0  0  0  0  0  0
    1.9975   -1.1546    2.3214 H   0  0  0  0  0  0  0  0  0  0  0  0
    1.9555   -2.2661    0.8483 H   0  0  0  0  0  0  0  0  0  0  0  0
  1  2  1  0
  2  3  1  0
  3  4  1  0
  4  5  1  0
  5  6  1  0
  6  7  1  0
  4  8  1  0
  7  8  1  0
  1  9  1  0
  8  9  1  0
  6 10  1  0
 10 11  1  0
 11 12  1  0
 12 13  1  0
 12 14  1  0
 14 15  1  0
 15 16  1  0
 16 17  1  0
 11 18  1  0
 16 18  1  0
  5 19  1  0
 18 19  1  0
 15 20  1  0
 10 21  1  0
 21 22  1  0
 22 23  1  0
 23 24  1  0
 24 25  1  0
 25 26  1  0
 26 27  1  0
 24 28  1  0
 27 28  1  0
 21 29  1  0
 28 29  1  0
 30 31  1  0
 31 32  1  0
 32 33  1  0
 33 34  1  0
 34 35  1  0
 35 36  1  0
 33 37  1  0
 36 37  1  0
 30 38  1  0
 37 38  1  0
 35 39  1  0
 39 40  1  0
 40 41  1  0
 41 42  1  0
 41 43  1  0
 43 44  1  0
 44 45  1  0
 45 46  1  0
 40 47  1  0
 45 47  1  0
 34 48  1  0
 47 48  1  0
 44 49  1  0
 39 50  1  0
 50 51  1  0
 51 52  1  0
 52 53  1  0
 53 54  1  0
 54 55  1  0
 55 56  1  0
 53 57  1  0
 56 57  1  0
 50 58  1  0
 57 58  1  0
  1 59  1  0
  1 60  1  0
  2 61  1  0
  2 62  1  0
  3 63  1  0
  3 64  1  0
  4 65  1  0
  5 66  1  0
  6 67  1  0
  7 68  1  0
  8 69  1  0
  9 70  1  0
  9 71  1  0
 10 72  1  1
 12 73  1  0
 13 74  1  0
 14 75  1  0
 14 76  1  0
 16 77  1  0
 17 78  1  0
 18 79  1  1
 19 80  1  0
 19 81  1  0
 20 82  1  0
 20 83  1  0
 20 84  1  0
 21 85  1  0
 22 86  1  0
 22 87  1  0
 23 88  1  0
 23 89  1  0
 24 90  1  0
 26 91  1  0
 26 92  1  0
 28 93  1  0
 29 94  1  0
 29 95  1  0
 30 96  1  0
 30 97  1  0
 31 98  1  0
 31 99  1  0
 32100  1  0
 32101  1  0
 33102  1  0
 34103  1  0
 35104  1  0
 36105  1  0
 37106  1  0
 38107  1  0
 38108  1  0
 39109  1  1
 41110  1  0
 42111  1  0
 43112  1  0
 43113  1  0
 45114  1  0
 46115  1  0
 47116  1  1
 48117  1  0
 48118  1  0
 49119  1  0
 49120  1  0
 49121  1  0
 50122  1  0
 51123  1  0
 51124  1  0
 52125  1  0
 52126  1  0
 53127  1  0
 55128  1  0
 55129  1  0
 57130  1  0
 58131  1  0
 58132  1  0
M  END
>  <PDBID>  (1) 
1UDU

>  <PDB ID>  (1) 
1UDU

>  <Generic Name>  (1) 
Tadalafil

>  <Brand Name>  (1) 
Act Tadalafil#Adcirca#Apo-tadalafil#Apo-tadalafil Pah#Auro-tadalafil#Cialis#Dom-tadalafil#Ipg-tadalafil#Jamp-tadalafil#Mar-tadalafil#Mint-tadalafil#Mylan-tadalafil#PMS-tadalafil#Priva-tadalafil#Ran-tadalafil#Riva-tadalafil#Tadalafil#Teva-tadalafil

>  <DrugBank ID>  (1) 
DB00820

>  <ATC Codes>  (1) 
G04BE08

>  <Ligand ID>  (1) 
CIA

>  <Target Name>  (1) 
cGMP-specific 3',5'-cyclic phosphodiesterase

>  <UniProt ID>  (1) 
O76074

>  <PDB ID.1>  (1) 
1UDU

>  <Seq. Identity>  (1) 
94%

$$$$
