PDB_DB08912_06
     RDKit          3D

316328  0  0  0  0  0  0  0  0999 V2000
   -4.6666   -3.3701   -0.0253 C   0  0  0  0  0  0  0  0  0  0  0  0
   -3.1109   -1.5421   -0.2475 C   0  0  2  0  0  0  0  0  0  0  0  0
   -3.8745   -2.3900    0.6500 N   0  0  0  0  0  0  0  0  0  0  0  0
   -2.1254   -2.4077   -0.9733 C   0  0  0  0  0  0  0  0  0  0  0  0
   -4.2084   -3.6416   -1.3743 N   0  0  0  0  0  0  0  0  0  0  0  0
   -2.7594   -3.6910   -1.4401 C   0  0  0  0  0  0  0  0  0  0  0  0
   -4.6803   -4.5717    0.7869 N   0  0  0  0  0  0  0  0  0  0  0  0
   -2.4352   -0.4937    0.6102 C   0  0  0  0  0  0  0  0  0  0  0  0
   -3.7518    0.4499    1.4789 S   0  0  0  0  0  0  0  0  0  0  0  0
   -3.5338    2.0130    0.5432 C   0  0  1  0  0  0  0  0  0  0  0  0
   -2.7591    1.5756   -0.5495 N   0  0  0  0  0  0  0  0  0  0  0  0
   -1.7978    0.5899   -0.1859 C   0  0  0  0  0  0  0  0  0  0  0  0
   -4.9426    2.4346    0.1171 C   0  0  0  0  0  0  0  0  0  0  0  0
   -4.8092    3.7247   -0.6616 C   0  0  0  0  0  0  0  0  0  0  0  0
   -5.6313    1.3737   -0.6931 C   0  0  0  0  0  0  0  0  0  0  0  0
   -5.7158    2.7432    1.3899 C   0  0  0  0  0  0  0  0  0  0  0  0
   -0.5131    1.1327    0.3433 C   0  0  2  0  0  0  0  0  0  0  0  0
    1.8945    0.5655    0.7869 C   0  0  2  0  0  0  0  0  0  0  0  0
    0.5250    0.0612    0.4088 C   0  0  0  0  0  0  0  0  0  0  0  0
    1.7804    1.9451    1.3882 C   0  0  0  0  0  0  0  0  0  0  0  0
   -0.6394    1.9214    1.6181 C   0  0  0  0  0  0  0  0  0  0  0  0
    0.6613    1.8464    2.4351 C   0  0  0  0  0  0  0  0  0  0  0  0
    0.6473   -0.4670   -0.8817 F   0  0  0  0  0  0  0  0  0  0  0  0
    2.8411    0.4863   -0.2872 N   0  0  0  0  0  0  0  0  0  0  0  0
    4.2731    0.8961   -0.2530 S   0  0  0  0  0  0  0  0  0  0  0  0
    5.5156   -0.2416   -0.1848 C   0  0  0  0  0  0  0  0  0  0  0  0
    6.4901   -2.3538   -1.0450 C   0  0  0  0  0  0  0  0  0  0  0  0
    5.5089   -1.2392   -1.3497 C   0  0  0  0  0  0  0  0  0  0  0  0
    7.8622   -1.8308   -0.7108 C   0  0  0  0  0  0  0  0  0  0  0  0
    6.9145    0.3466   -0.1664 C   0  0  0  0  0  0  0  0  0  0  0  0
    7.8335   -0.7652    0.3511 C   0  0  0  0  0  0  0  0  0  0  0  0
    7.0053    1.4802    0.5876 F   0  0  0  0  0  0  0  0  0  0  0  0
    5.9853   -0.5658   -2.4529 F   0  0  0  0  0  0  0  0  0  0  0  0
    4.6235    1.7086   -1.7908 O   0  0  0  0  0  0  0  0  0  0  0  0
    4.7146    2.1094    0.8091 O   0  0  0  0  0  0  0  0  0  0  0  0
   -4.1836   -2.9865    0.4707 C   0  0  0  0  0  0  0  0  0  0  0  0
   -2.0740   -1.7555    0.3487 C   0  0  0  0  0  0  0  0  0  0  0  0
   -2.8161   -2.9126    0.8159 N   0  0  0  0  0  0  0  0  0  0  0  0
   -2.3456   -1.5352   -1.1240 C   0  0  0  0  0  0  0  0  0  0  0  0
   -4.5136   -2.4327   -0.8405 N   0  0  0  0  0  0  0  0  0  0  0  0
   -3.2791   -2.6174   -1.6223 C   0  0  0  0  0  0  0  0  0  0  0  0
   -4.4870   -4.4296    0.3293 N   0  0  0  0  0  0  0  0  0  0  0  0
   -2.3707   -0.6234    1.2151 C   0  0  0  0  0  0  0  0  0  0  0  0
   -4.1858   -0.2644    1.0441 S   0  0  0  0  0  0  0  0  0  0  0  0
   -3.9458    1.5024    0.5940 C   0  0  1  0  0  0  0  0  0  0  0  0
   -2.6380    1.3976   -0.0258 N   0  0  0  0  0  0  0  0  0  0  0  0
   -1.8817    0.7167    1.0362 C   0  0  2  0  0  0  0  0  0  0  0  0
   -5.0064    2.0134   -0.3032 C   0  0  0  0  0  0  0  0  0  0  0  0
   -4.7010    3.4668   -0.6003 C   0  0  0  0  0  0  0  0  0  0  0  0
   -5.1921    1.2290   -1.5661 C   0  0  0  0  0  0  0  0  0  0  0  0
   -6.3195    1.9871    0.4517 C   0  0  0  0  0  0  0  0  0  0  0  0
   -0.4687    1.1008    0.9620 C   0  0  2  0  0  0  0  0  0  0  0  0
    1.7324    1.3443   -0.0562 C   0  0  0  0  0  0  0  0  0  0  0  0
    0.4073    0.5903   -0.1019 C   0  0  0  0  0  0  0  0  0  0  0  0
    1.7553    2.4404    0.9750 C   0  0  0  0  0  0  0  0  0  0  0  0
    0.2662    0.9139    2.2969 C   0  0  0  0  0  0  0  0  0  0  0  0
    1.3443    1.9589    2.3426 C   0  0  0  0  0  0  0  0  0  0  0  0
   -0.1215    0.7071   -1.3743 F   0  0  0  0  0  0  0  0  0  0  0  0
    2.8608    0.4803    0.1637 N   0  0  0  0  0  0  0  0  0  0  0  0
    4.2730    0.8001    0.2561 S   0  0  0  0  0  0  0  0  0  0  0  0
    5.3231   -0.5057   -0.1787 C   0  0  0  0  0  0  0  0  0  0  0  0
    6.1259   -2.1157   -1.8163 C   0  0  0  0  0  0  0  0  0  0  0  0
    5.1622   -0.9584   -1.5858 C   0  0  0  0  0  0  0  0  0  0  0  0
    7.5616   -1.6279   -1.6143 C   0  0  0  0  0  0  0  0  0  0  0  0
    6.7534   -0.0537    0.0581 C   0  0  0  0  0  0  0  0  0  0  0  0
    7.6873   -1.2147   -0.1484 C   0  0  0  0  0  0  0  0  0  0  0  0
    6.8895    0.4318    1.3604 F   0  0  0  0  0  0  0  0  0  0  0  0
    3.8847   -1.4574   -1.7665 F   0  0  0  0  0  0  0  0  0  0  0  0
    4.9394    2.1160    0.1562 O   0  0  0  0  0  0  0  0  0  0  0  0
    4.6748    0.4845    2.1948 O   0  0  0  0  0  0  0  0  0  0  0  0
   -4.4451   -3.2913    0.7631 C   0  0  0  0  0  0  0  0  0  0  0  0
   -3.1218   -1.7385   -0.3897 C   0  0  2  0  0  0  0  0  0  0  0  0
   -3.9731   -1.9214    0.7472 N   0  0  0  0  0  0  0  0  0  0  0  0
   -1.9485   -2.6881   -0.2958 C   0  0  0  0  0  0  0  0  0  0  0  0
   -3.9566   -4.0938   -0.3143 N   0  0  0  0  0  0  0  0  0  0  0  0
   -2.5110   -4.0949   -0.4128 C   0  0  0  0  0  0  0  0  0  0  0  0
   -4.2411   -3.9103    2.0608 N   0  0  0  0  0  0  0  0  0  0  0  0
   -2.6947   -0.2963   -0.5754 C   0  0  1  0  0  0  0  0  0  0  0  0
   -4.2673    0.6356   -0.8043 S   0  0  0  0  0  0  0  0  0  0  0  0
   -4.2308    1.3789    0.8470 C   0  0  0  0  0  0  0  0  0  0  0  0
   -2.9108    1.2507    1.2819 N   0  0  0  0  0  0  0  0  0  0  0  0
   -2.1103    0.3140    0.6260 C   0  0  0  0  0  0  0  0  0  0  0  0
   -4.7969    2.7594    0.7741 C   0  0  0  0  0  0  0  0  0  0  0  0
   -4.8029    3.4592    2.1172 C   0  0  0  0  0  0  0  0  0  0  0  0
   -4.0484    3.6399   -0.1971 C   0  0  0  0  0  0  0  0  0  0  0  0
   -6.2648    2.7305    0.3297 C   0  0  0  0  0  0  0  0  0  0  0  0
   -0.7530    0.9850    0.3454 C   0  0  2  0  0  0  0  0  0  0  0  0
    1.6398    0.6172    0.0036 C   0  0  2  0  0  0  0  0  0  0  0  0
    0.2504   -0.0033   -0.2059 C   0  0  0  0  0  0  0  0  0  0  0  0
    1.4807    2.1003   -0.0751 C   0  0  0  0  0  0  0  0  0  0  0  0
   -0.1303    1.4796    1.6395 C   0  0  0  0  0  0  0  0  0  0  0  0
    0.8594    2.5653    1.2405 C   0  0  0  0  0  0  0  0  0  0  0  0
    0.1267   -0.1857   -1.5576 F   0  0  0  0  0  0  0  0  0  0  0  0
    2.5752    0.1153   -1.0165 N   0  0  0  0  0  0  0  0  0  0  0  0
    3.9597    0.4944   -1.1247 S   0  0  0  0  0  0  0  0  0  0  0  0
    5.2805   -0.4998   -0.9474 C   0  0  0  0  0  0  0  0  0  0  0  0
    6.5683   -2.4953   -1.4576 C   0  0  0  0  0  0  0  0  0  0  0  0
    5.4466   -1.6042   -1.9489 C   0  0  0  0  0  0  0  0  0  0  0  0
    7.8294   -1.7591   -1.1658 C   0  0  0  0  0  0  0  0  0  0  0  0
    6.5727    0.3308   -1.0222 C   0  0  0  0  0  0  0  0  0  0  0  0
    7.6487   -0.4926   -0.3921 C   0  0  0  0  0  0  0  0  0  0  0  0
    6.4111    1.5676   -0.4675 F   0  0  0  0  0  0  0  0  0  0  0  0
    4.3209   -2.3739   -2.1003 F   0  0  0  0  0  0  0  0  0  0  0  0
    4.4129    1.8687   -1.8528 O   0  0  0  0  0  0  0  0  0  0  0  0
    4.3033    1.2581    0.7615 O   0  0  0  0  0  0  0  0  0  0  0  0
   -4.3672   -3.3161    1.3628 C   0  0  0  0  0  0  0  0  0  0  0  0
   -3.2269   -1.9044   -0.1063 C   0  0  2  0  0  0  0  0  0  0  0  0
   -4.0031   -1.9388    1.0919 N   0  0  0  0  0  0  0  0  0  0  0  0
   -2.0863   -2.8834    0.0205 C   0  0  0  0  0  0  0  0  0  0  0  0
   -4.1319   -4.2065    0.2699 N   0  0  0  0  0  0  0  0  0  0  0  0
   -2.7343   -4.2699   -0.1170 C   0  0  0  0  0  0  0  0  0  0  0  0
   -3.8106   -3.7872    2.6108 N   0  0  0  0  0  0  0  0  0  0  0  0
   -2.7882   -0.5291   -0.5155 C   0  0  1  0  0  0  0  0  0  0  0  0
   -4.3212    0.4332   -0.7758 S   0  0  0  0  0  0  0  0  0  0  0  0
   -4.1713    1.4105    0.7437 C   0  0  1  0  0  0  0  0  0  0  0  0
   -2.9216    1.1187    1.2326 N   0  0  0  0  0  0  0  0  0  0  0  0
   -2.1143    0.2457    0.5454 C   0  0  2  0  0  0  0  0  0  0  0  0
   -4.4753    2.8367    0.3895 C   0  0  0  0  0  0  0  0  0  0  0  0
   -4.3948    3.7845    1.5388 C   0  0  0  0  0  0  0  0  0  0  0  0
   -3.6246    3.3074   -0.7707 C   0  0  0  0  0  0  0  0  0  0  0  0
   -5.9281    2.8597   -0.1066 C   0  0  0  0  0  0  0  0  0  0  0  0
   -0.8835    1.0117    0.0309 C   0  0  2  0  0  0  0  0  0  0  0  0
    1.5410    0.6147   -0.2360 C   0  0  2  0  0  0  0  0  0  0  0  0
    0.1446    0.0562   -0.5429 C   0  0  0  0  0  0  0  0  0  0  0  0
    1.4854    2.1331   -0.4177 C   0  0  0  0  0  0  0  0  0  0  0  0
   -0.2211    1.6523    1.2477 C   0  0  0  0  0  0  0  0  0  0  0  0
    0.6813    2.7427    0.7384 C   0  0  0  0  0  0  0  0  0  0  0  0
    0.0312    0.0702   -1.9199 F   0  0  0  0  0  0  0  0  0  0  0  0
    2.5237    0.1041   -1.1757 N   0  0  0  0  0  0  0  0  0  0  0  0
    4.0005    0.6947   -0.8490 S   0  0  0  0  0  0  0  0  0  0  0  0
    5.2008   -0.4792   -0.7268 C   0  0  0  0  0  0  0  0  0  0  0  0
    6.4069   -2.3638   -1.6904 C   0  0  0  0  0  0  0  0  0  0  0  0
    5.4095   -1.2488   -1.9852 C   0  0  0  0  0  0  0  0  0  0  0  0
    7.7171   -1.8170   -1.1702 C   0  0  0  0  0  0  0  0  0  0  0  0
    6.5240    0.1661   -0.3450 C   0  0  2  0  0  0  0  0  0  0  0  0
    7.5236   -0.8968    0.0137 C   0  0  0  0  0  0  0  0  0  0  0  0
    6.3804    1.0407    0.7111 F   0  0  0  0  0  0  0  0  0  0  0  0
    4.2782   -1.8016   -2.5026 F   0  0  0  0  0  0  0  0  0  0  0  0
    4.4552    1.9819   -1.5294 O   0  0  0  0  0  0  0  0  0  0  0  0
    3.8491    1.1109    0.9345 O   0  0  0  0  0  0  0  0  0  0  0  0
   -5.7149   -3.0011   -0.0788 H   0  0  0  0  0  0  0  0  0  0  0  0
   -3.7968   -1.0868   -0.9899 H   0  0  0  0  0  0  0  0  0  0  0  0
   -3.1566   -2.8613    1.2733 H   0  0  0  0  0  0  0  0  0  0  0  0
   -1.7865   -1.8337   -1.8783 H   0  0  0  0  0  0  0  0  0  0  0  0
   -1.2596   -2.6830   -0.3245 H   0  0  0  0  0  0  0  0  0  0  0  0
   -4.6142   -2.9691   -2.0569 H   0  0  0  0  0  0  0  0  0  0  0  0
   -2.4493   -4.5578   -0.7866 H   0  0  0  0  0  0  0  0  0  0  0  0
   -2.4627   -3.9588   -2.4543 H   0  0  0  0  0  0  0  0  0  0  0  0
   -5.6235   -4.9580    0.9423 H   0  0  0  0  0  0  0  0  0  0  0  0
   -3.9709   -5.2700    0.4713 H   0  0  0  0  0  0  0  0  0  0  0  0
   -1.7896   -1.0115    1.3074 H   0  0  0  0  0  0  0  0  0  0  0  0
   -3.1510    2.8190    1.1564 H   0  0  0  0  0  0  0  0  0  0  0  0
   -2.3058    2.2868   -1.1282 H   0  0  0  0  0  0  0  0  0  0  0  0
   -1.5371    0.0893   -1.1783 H   0  0  0  0  0  0  0  0  0  0  0  0
   -5.6495    4.3903   -0.4369 H   0  0  0  0  0  0  0  0  0  0  0  0
   -4.7581    3.5149   -1.7688 H   0  0  0  0  0  0  0  0  0  0  0  0
   -3.8521    4.2576   -0.4070 H   0  0  0  0  0  0  0  0  0  0  0  0
   -5.3479    1.4331   -1.7658 H   0  0  0  0  0  0  0  0  0  0  0  0
   -6.7299    1.6351   -0.6753 H   0  0  0  0  0  0  0  0  0  0  0  0
   -5.5545    0.3750   -0.2681 H   0  0  0  0  0  0  0  0  0  0  0  0
   -6.6370    3.3040    1.1509 H   0  0  0  0  0  0  0  0  0  0  0  0
   -5.0379    3.3199    2.0569 H   0  0  0  0  0  0  0  0  0  0  0  0
   -5.9184    1.7760    1.9137 H   0  0  0  0  0  0  0  0  0  0  0  0
   -0.1519    1.8728   -0.4328 H   0  0  0  0  0  0  0  0  0  0  0  0
    2.2696   -0.1002    1.6017 H   0  0  0  0  0  0  0  0  0  0  0  0
    0.1885   -0.7567    1.0472 H   0  0  0  0  0  0  0  0  0  0  0  0
    2.6771    2.2528    1.9445 H   0  0  0  0  0  0  0  0  0  0  0  0
    1.4408    2.6944    0.6545 H   0  0  0  0  0  0  0  0  0  0  0  0
   -1.4310    1.5925    2.2864 H   0  0  0  0  0  0  0  0  0  0  0  0
   -0.7801    3.0065    1.4247 H   0  0  0  0  0  0  0  0  0  0  0  0
    0.7236    0.8946    2.9975 H   0  0  0  0  0  0  0  0  0  0  0  0
    0.7727    2.7340    3.0868 H   0  0  0  0  0  0  0  0  0  0  0  0
    2.2794    0.5059   -1.1893 H   0  0  0  0  0  0  0  0  0  0  0  0
    5.4249   -0.8660    0.7301 H   0  0  0  0  0  0  0  0  0  0  0  0
    6.1206   -3.0398   -0.2521 H   0  0  0  0  0  0  0  0  0  0  0  0
    6.5919   -2.9652   -1.9688 H   0  0  0  0  0  0  0  0  0  0  0  0
    4.5247   -1.6923   -1.4977 H   0  0  0  0  0  0  0  0  0  0  0  0
    8.4537   -2.6789   -0.3116 H   0  0  0  0  0  0  0  0  0  0  0  0
    8.3774   -1.4571   -1.6035 H   0  0  0  0  0  0  0  0  0  0  0  0
    7.2326    0.5132   -1.2239 H   0  0  0  0  0  0  0  0  0  0  0  0
    7.3699   -1.1846    1.2600 H   0  0  0  0  0  0  0  0  0  0  0  0
    8.8655   -0.4080    0.5006 H   0  0  0  0  0  0  0  0  0  0  0  0
    4.0283    2.5112   -1.6847 H   0  0  0  0  0  0  0  0  0  0  0  0
    5.0042    1.7279    1.6825 H   0  0  0  0  0  0  0  0  0  0  0  0
   -4.9067   -2.6639    1.2618 H   0  0  0  0  0  0  0  0  0  0  0  0
   -1.0132   -2.1137    0.3849 H   0  0  0  0  0  0  0  0  0  0  0  0
   -2.7280   -2.9236    1.8616 H   0  0  0  0  0  0  0  0  0  0  0  0
   -2.7951   -0.5450   -1.3430 H   0  0  0  0  0  0  0  0  0  0  0  0
   -1.4327   -1.6187   -1.7573 H   0  0  0  0  0  0  0  0  0  0  0  0
   -5.2958   -2.9450   -1.2940 H   0  0  0  0  0  0  0  0  0  0  0  0
   -2.8949   -3.6189   -1.3442 H   0  0  0  0  0  0  0  0  0  0  0  0
   -3.4803   -2.5341   -2.7015 H   0  0  0  0  0  0  0  0  0  0  0  0
   -5.2677   -4.5770   -0.3465 H   0  0  0  0  0  0  0  0  0  0  0  0
   -3.6315   -4.9555    0.0881 H   0  0  0  0  0  0  0  0  0  0  0  0
   -2.2651   -0.9327    2.2834 H   0  0  0  0  0  0  0  0  0  0  0  0
   -3.8675    2.1366    1.4758 H   0  0  0  0  0  0  0  0  0  0  0  0
   -2.2106    2.3044   -0.2351 H   0  0  0  0  0  0  0  0  0  0  0  0
   -2.2497    1.2906    1.9604 H   0  0  0  0  0  0  0  0  0  0  0  0
   -4.6668    4.0109    0.3874 H   0  0  0  0  0  0  0  0  0  0  0  0
   -5.5247    3.9477   -1.1684 H   0  0  0  0  0  0  0  0  0  0  0  0
   -3.7391    3.5953   -1.1343 H   0  0  0  0  0  0  0  0  0  0  0  0
   -6.1045    1.6582   -2.0758 H   0  0  0  0  0  0  0  0  0  0  0  0
   -4.3698    1.3097   -2.2806 H   0  0  0  0  0  0  0  0  0  0  0  0
   -5.4750    0.1919   -1.3045 H   0  0  0  0  0  0  0  0  0  0  0  0
   -7.1377    2.4807   -0.0845 H   0  0  0  0  0  0  0  0  0  0  0  0
   -6.1340    2.5847    1.3920 H   0  0  0  0  0  0  0  0  0  0  0  0
   -6.5362    0.9596    0.7664 H   0  0  0  0  0  0  0  0  0  0  0  0
   -0.5000    2.2290    0.8488 H   0  0  0  0  0  0  0  0  0  0  0  0
    1.9048    1.8356   -1.0600 H   0  0  0  0  0  0  0  0  0  0  0  0
    0.6853   -0.4607    0.1355 H   0  0  0  0  0  0  0  0  0  0  0  0
    2.8087    2.7803    1.0575 H   0  0  0  0  0  0  0  0  0  0  0  0
    1.1934    3.3490    0.6516 H   0  0  0  0  0  0  0  0  0  0  0  0
    0.7506   -0.0891    2.2299 H   0  0  0  0  0  0  0  0  0  0  0  0
   -0.4267    0.9894    3.1506 H   0  0  0  0  0  0  0  0  0  0  0  0
    2.2368    1.5602    2.8539 H   0  0  0  0  0  0  0  0  0  0  0  0
    0.9878    2.8443    2.9066 H   0  0  0  0  0  0  0  0  0  0  0  0
    2.4792   -0.5124    0.1147 H   0  0  0  0  0  0  0  0  0  0  0  0
    5.1819   -1.4170    0.4746 H   0  0  0  0  0  0  0  0  0  0  0  0
    6.0004   -2.5778   -2.7946 H   0  0  0  0  0  0  0  0  0  0  0  0
    5.9460   -2.8301   -0.9640 H   0  0  0  0  0  0  0  0  0  0  0  0
    5.3429   -0.1504   -2.3132 H   0  0  0  0  0  0  0  0  0  0  0  0
    8.2474   -2.4608   -1.7714 H   0  0  0  0  0  0  0  0  0  0  0  0
    7.7849   -0.7359   -2.2167 H   0  0  0  0  0  0  0  0  0  0  0  0
    6.9698    0.7711   -0.6490 H   0  0  0  0  0  0  0  0  0  0  0  0
    7.3787   -2.0367    0.5053 H   0  0  0  0  0  0  0  0  0  0  0  0
    8.7083   -0.8624    0.0678 H   0  0  0  0  0  0  0  0  0  0  0  0
    4.7214    2.9163   -0.3789 H   0  0  0  0  0  0  0  0  0  0  0  0
    4.2139   -0.3749    2.1699 H   0  0  0  0  0  0  0  0  0  0  0  0
   -5.5624   -3.2272    0.6366 H   0  0  0  0  0  0  0  0  0  0  0  0
   -3.7179   -2.0909   -1.2823 H   0  0  0  0  0  0  0  0  0  0  0  0
   -3.4051   -1.7977    1.6118 H   0  0  0  0  0  0  0  0  0  0  0  0
   -1.2632   -2.4558   -1.1349 H   0  0  0  0  0  0  0  0  0  0  0  0
   -1.4597   -2.6171    0.6787 H   0  0  0  0  0  0  0  0  0  0  0  0
   -4.4464   -3.9941   -1.2084 H   0  0  0  0  0  0  0  0  0  0  0  0
   -2.0481   -4.8050    0.2768 H   0  0  0  0  0  0  0  0  0  0  0  0
   -2.2764   -4.4410   -1.4521 H   0  0  0  0  0  0  0  0  0  0  0  0
   -5.0464   -4.5110    2.3461 H   0  0  0  0  0  0  0  0  0  0  0  0
   -3.3895   -4.5395    2.0631 H   0  0  0  0  0  0  0  0  0  0  0  0
   -2.1648   -0.2109   -1.5178 H   0  0  0  0  0  0  0  0  0  0  0  0
   -4.9023    0.7671    1.4867 H   0  0  0  0  0  0  0  0  0  0  0  0
   -2.4981    2.2194    1.3356 H   0  0  0  0  0  0  0  0  0  0  0  0
   -1.8564   -0.5074    1.3459 H   0  0  0  0  0  0  0  0  0  0  0  0
   -5.2285    2.8147    2.9164 H   0  0  0  0  0  0  0  0  0  0  0  0
   -5.5109    4.3173    2.0161 H   0  0  0  0  0  0  0  0  0  0  0  0
   -3.8287    3.8900    2.3852 H   0  0  0  0  0  0  0  0  0  0  0  0
   -3.8916    4.6462    0.2265 H   0  0  0  0  0  0  0  0  0  0  0  0
   -3.0584    3.1302   -0.3887 H   0  0  0  0  0  0  0  0  0  0  0  0
   -4.6373    3.7110   -1.1293 H   0  0  0  0  0  0  0  0  0  0  0  0
   -6.5645    3.7028   -0.0908 H   0  0  0  0  0  0  0  0  0  0  0  0
   -6.9069    2.5651    1.2377 H   0  0  0  0  0  0  0  0  0  0  0  0
   -6.3983    1.9026   -0.3929 H   0  0  0  0  0  0  0  0  0  0  0  0
   -0.9704    1.8305   -0.3214 H   0  0  0  0  0  0  0  0  0  0  0  0
    2.0544    0.3164    0.9641 H   0  0  0  0  0  0  0  0  0  0  0  0
    0.2307   -0.9093    0.3952 H   0  0  0  0  0  0  0  0  0  0  0  0
    2.4455    2.6428   -0.1637 H   0  0  0  0  0  0  0  0  0  0  0  0
    0.8767    2.4176   -0.9506 H   0  0  0  0  0  0  0  0  0  0  0  0
    0.4135    0.6155    2.1259 H   0  0  0  0  0  0  0  0  0  0  0  0
   -0.8289    1.8291    2.3899 H   0  0  0  0  0  0  0  0  0  0  0  0
    1.6502    2.5756    2.0200 H   0  0  0  0  0  0  0  0  0  0  0  0
    0.3297    3.5203    1.1300 H   0  0  0  0  0  0  0  0  0  0  0  0
    2.1913   -0.8501   -1.2523 H   0  0  0  0  0  0  0  0  0  0  0  0
    5.3235   -0.9859    0.0497 H   0  0  0  0  0  0  0  0  0  0  0  0
    6.2767   -3.0611   -0.5434 H   0  0  0  0  0  0  0  0  0  0  0  0
    6.8174   -3.2851   -2.2217 H   0  0  0  0  0  0  0  0  0  0  0  0
    5.7897   -1.1532   -2.9019 H   0  0  0  0  0  0  0  0  0  0  0  0
    8.4705   -2.4353   -0.5360 H   0  0  0  0  0  0  0  0  0  0  0  0
    8.4439   -1.5286   -2.0597 H   0  0  0  0  0  0  0  0  0  0  0  0
    6.8222    0.4257   -2.1083 H   0  0  0  0  0  0  0  0  0  0  0  0
    7.3551   -0.6651    0.6706 H   0  0  0  0  0  0  0  0  0  0  0  0
    8.6219    0.0372   -0.3740 H   0  0  0  0  0  0  0  0  0  0  0  0
    5.1900    1.7009   -2.4667 H   0  0  0  0  0  0  0  0  0  0  0  0
    4.0798    0.3915    1.1326 H   0  0  0  0  0  0  0  0  0  0  0  0
   -5.4861   -3.2998    1.5187 H   0  0  0  0  0  0  0  0  0  0  0  0
   -3.8786   -2.2976   -0.9364 H   0  0  0  0  0  0  0  0  0  0  0  0
   -3.4388   -1.5881    1.8963 H   0  0  0  0  0  0  0  0  0  0  0  0
   -1.3620   -2.7435   -0.7951 H   0  0  0  0  0  0  0  0  0  0  0  0
   -1.5993   -2.8697    1.0040 H   0  0  0  0  0  0  0  0  0  0  0  0
   -4.7846   -4.1055   -0.5172 H   0  0  0  0  0  0  0  0  0  0  0  0
   -2.1985   -5.0343    0.4471 H   0  0  0  0  0  0  0  0  0  0  0  0
   -2.7136   -4.5565   -1.1918 H   0  0  0  0  0  0  0  0  0  0  0  0
   -4.5041   -4.3443    3.1571 H   0  0  0  0  0  0  0  0  0  0  0  0
   -2.9812   -4.4127    2.4257 H   0  0  0  0  0  0  0  0  0  0  0  0
   -2.2514   -0.5881   -1.4651 H   0  0  0  0  0  0  0  0  0  0  0  0
   -4.9676    1.0299    1.4437 H   0  0  0  0  0  0  0  0  0  0  0  0
   -2.8205    1.0742    2.2775 H   0  0  0  0  0  0  0  0  0  0  0  0
   -1.6673   -0.5047    1.2682 H   0  0  0  0  0  0  0  0  0  0  0  0
   -5.2656    3.8025    2.1954 H   0  0  0  0  0  0  0  0  0  0  0  0
   -4.3048    4.8233    1.1067 H   0  0  0  0  0  0  0  0  0  0  0  0
   -3.4256    3.6271    2.0745 H   0  0  0  0  0  0  0  0  0  0  0  0
   -4.2333    4.0242   -1.3898 H   0  0  0  0  0  0  0  0  0  0  0  0
   -2.7258    3.8572   -0.4046 H   0  0  0  0  0  0  0  0  0  0  0  0
   -3.3116    2.5074   -1.4428 H   0  0  0  0  0  0  0  0  0  0  0  0
   -6.0418    3.7106   -0.8075 H   0  0  0  0  0  0  0  0  0  0  0  0
   -6.5870    3.1047    0.7727 H   0  0  0  0  0  0  0  0  0  0  0  0
   -6.2420    1.8995   -0.5153 H   0  0  0  0  0  0  0  0  0  0  0  0
   -1.1515    1.7964   -0.6751 H   0  0  0  0  0  0  0  0  0  0  0  0
    1.8723    0.3279    0.7656 H   0  0  0  0  0  0  0  0  0  0  0  0
    0.0724   -0.9481   -0.1058 H   0  0  0  0  0  0  0  0  0  0  0  0
    0.9710    2.3416   -1.3562 H   0  0  0  0  0  0  0  0  0  0  0  0
    2.4954    2.5412   -0.3459 H   0  0  0  0  0  0  0  0  0  0  0  0
   -1.0499    2.1049    1.8645 H   0  0  0  0  0  0  0  0  0  0  0  0
    0.2778    0.9280    1.8915 H   0  0  0  0  0  0  0  0  0  0  0  0
    0.0284    3.5621    0.3731 H   0  0  0  0  0  0  0  0  0  0  0  0
    1.3467    3.1598    1.5078 H   0  0  0  0  0  0  0  0  0  0  0  0
    2.5021   -0.9256   -1.2622 H   0  0  0  0  0  0  0  0  0  0  0  0
    4.9641   -1.2046    0.0906 H   0  0  0  0  0  0  0  0  0  0  0  0
    6.0049   -3.0463   -0.9165 H   0  0  0  0  0  0  0  0  0  0  0  0
    6.6457   -2.8964   -2.6411 H   0  0  0  0  0  0  0  0  0  0  0  0
    5.9312   -0.5753   -2.7138 H   0  0  0  0  0  0  0  0  0  0  0  0
    8.2965   -2.6906   -0.8009 H   0  0  0  0  0  0  0  0  0  0  0  0
    8.2973   -1.2770   -1.9231 H   0  0  0  0  0  0  0  0  0  0  0  0
    6.9164    0.7102   -1.2308 H   0  0  0  0  0  0  0  0  0  0  0  0
    7.1715   -1.4083    0.9166 H   0  0  0  0  0  0  0  0  0  0  0  0
    8.4869   -0.4148    0.2270 H   0  0  0  0  0  0  0  0  0  0  0  0
    4.9373    2.6638   -0.9669 H   0  0  0  0  0  0  0  0  0  0  0  0
    3.8265    0.2021    1.3377 H   0  0  0  0  0  0  0  0  0  0  0  0
  1  3  1  0
  2  3  1  0
  2  4  1  0
  1  5  1  0
  4  6  1  0
  5  6  1  0
  1  7  1  0
  2  8  1  0
  8  9  1  0
  9 10  1  0
 10 11  1  0
  8 12  1  0
 11 12  1  0
 10 13  1  0
 13 14  1  0
 13 15  1  0
 13 16  1  0
 12 17  1  0
 17 19  1  0
 18 19  1  0
 18 20  1  0
 17 21  1  0
 20 22  1  0
 21 22  1  0
 19 23  1  0
 18 24  1  0
 24 25  1  0
 25 26  1  0
 26 28  1  0
 27 28  1  0
 27 29  1  0
 26 30  1  0
 29 31  1  0
 30 31  1  0
 30 32  1  0
 28 33  1  0
 25 34  1  0
 25 35  1  0
 36 38  1  0
 37 38  1  0
 37 39  1  0
 36 40  1  0
 39 41  1  0
 40 41  1  0
 36 42  1  0
 37 43  1  0
 43 44  1  0
 44 45  1  0
 45 46  1  0
 43 47  1  0
 46 47  1  0
 45 48  1  0
 48 49  1  0
 48 50  1  0
 48 51  1  0
 47 52  1  0
 52 54  1  0
 53 54  1  0
 53 55  1  0
 52 56  1  0
 55 57  1  0
 56 57  1  0
 54 58  1  0
 53 59  1  0
 59 60  1  0
 60 61  1  0
 61 63  1  0
 62 63  1  0
 62 64  1  0
 61 65  1  0
 64 66  1  0
 65 66  1  0
 65 67  1  0
 63 68  1  0
 60 69  1  0
 60 70  1  0
 71 73  1  0
 72 73  1  0
 72 74  1  0
 71 75  1  0
 74 76  1  0
 75 76  1  0
 71 77  1  0
 72 78  1  0
 78 79  1  0
 79 80  1  0
 80 81  1  0
 78 82  1  0
 81 82  1  0
 80 83  1  0
 83 84  1  0
 83 85  1  0
 83 86  1  0
 82 87  1  0
 87 89  1  0
 88 89  1  0
 88 90  1  0
 87 91  1  0
 90 92  1  0
 91 92  1  0
 89 93  1  0
 88 94  1  0
 94 95  1  0
 95 96  1  0
 96 98  1  0
 97 98  1  0
 97 99  1  0
 96100  1  0
 99101  1  0
100101  1  0
100102  1  0
 98103  1  0
 95104  1  0
 95105  1  0
106108  1  0
107108  1  0
107109  1  0
106110  1  0
109111  1  0
110111  1  0
106112  1  0
107113  1  0
113114  1  0
114115  1  0
115116  1  0
113117  1  0
116117  1  0
115118  1  0
118119  1  0
118120  1  0
118121  1  0
117122  1  0
122124  1  0
123124  1  0
123125  1  0
122126  1  0
125127  1  0
126127  1  0
124128  1  0
123129  1  0
129130  1  0
130131  1  0
131133  1  0
132133  1  0
132134  1  0
131135  1  0
134136  1  0
135136  1  0
135137  1  0
133138  1  0
130139  1  0
130140  1  0
  1141  1  0
  2142  1  6
  3143  1  0
  4144  1  0
  4145  1  0
  5146  1  0
  6147  1  0
  6148  1  0
  7149  1  0
  7150  1  0
  8151  1  0
 10152  1  1
 11153  1  0
 12154  1  0
 14155  1  0
 14156  1  0
 14157  1  0
 15158  1  0
 15159  1  0
 15160  1  0
 16161  1  0
 16162  1  0
 16163  1  0
 17164  1  6
 18165  1  1
 19166  1  0
 20167  1  0
 20168  1  0
 21169  1  0
 21170  1  0
 22171  1  0
 22172  1  0
 24173  1  0
 26174  1  0
 27175  1  0
 27176  1  0
 28177  1  0
 29178  1  0
 29179  1  0
 30180  1  0
 31181  1  0
 31182  1  0
 34183  1  0
 35184  1  0
 36185  1  0
 37186  1  0
 38187  1  0
 39188  1  0
 39189  1  0
 40190  1  0
 41191  1  0
 41192  1  0
 42193  1  0
 42194  1  0
 43195  1  0
 45196  1  1
 46197  1  0
 47198  1  1
 49199  1  0
 49200  1  0
 49201  1  0
 50202  1  0
 50203  1  0
 50204  1  0
 51205  1  0
 51206  1  0
 51207  1  0
 52208  1  6
 53209  1  0
 54210  1  0
 55211  1  0
 55212  1  0
 56213  1  0
 56214  1  0
 57215  1  0
 57216  1  0
 59217  1  0
 61218  1  0
 62219  1  0
 62220  1  0
 63221  1  0
 64222  1  0
 64223  1  0
 65224  1  0
 66225  1  0
 66226  1  0
 69227  1  0
 70228  1  0
 71229  1  0
 72230  1  6
 73231  1  0
 74232  1  0
 74233  1  0
 75234  1  0
 76235  1  0
 76236  1  0
 77237  1  0
 77238  1  0
 78239  1  6
 80240  1  0
 81241  1  0
 82242  1  0
 84243  1  0
 84244  1  0
 84245  1  0
 85246  1  0
 85247  1  0
 85248  1  0
 86249  1  0
 86250  1  0
 86251  1  0
 87252  1  6
 88253  1  1
 89254  1  0
 90255  1  0
 90256  1  0
 91257  1  0
 91258  1  0
 92259  1  0
 92260  1  0
 94261  1  0
 96262  1  0
 97263  1  0
 97264  1  0
 98265  1  0
 99266  1  0
 99267  1  0
100268  1  0
101269  1  0
101270  1  0
104271  1  0
105272  1  0
106273  1  0
107274  1  6
108275  1  0
109276  1  0
109277  1  0
110278  1  0
111279  1  0
111280  1  0
112281  1  0
112282  1  0
113283  1  6
115284  1  1
116285  1  0
117286  1  1
119287  1  0
119288  1  0
119289  1  0
120290  1  0
120291  1  0
120292  1  0
121293  1  0
121294  1  0
121295  1  0
122296  1  6
123297  1  1
124298  1  0
125299  1  0
125300  1  0
126301  1  0
126302  1  0
127303  1  0
127304  1  0
129305  1  0
131306  1  0
132307  1  0
132308  1  0
133309  1  0
134310  1  0
134311  1  0
135312  1  6
136313  1  0
136314  1  0
139315  1  0
140316  1  0
M  END
>  <PDBID>  (1) 
5HIE

>  <PDB ID>  (1) 
5HIE

>  <Generic Name>  (1) 
Dabrafenib

>  <Brand Name>  (1) 
Tafinlar

>  <DrugBank ID>  (1) 
DB08912

>  <ATC Codes>  (1) 
L01XE23

>  <Ligand ID>  (1) 
P06

>  <Target Name>  (1) 
RAF proto-oncogene serine/threonine-protein kinase

>  <UniProt ID>  (1) 
P04049

>  <PDB ID.1>  (1) 
5HIE

>  <Seq. Identity>  (1) 
77%

$$$$
