PDB_DB00127_08
     RDKit          3D

 80 78  0  0  0  0  0  0  0  0999 V2000
   -5.0543    2.0332   -0.7306 N   0  0  0  0  0  0  0  0  0  0  0  0
   -4.8193    1.1781    0.4197 C   0  0  0  0  0  0  0  0  0  0  0  0
   -4.5836   -0.2297   -0.1044 C   0  0  0  0  0  0  0  0  0  0  0  0
   -3.3552   -0.1546   -0.9851 C   0  0  0  0  0  0  0  0  0  0  0  0
   -2.2508    0.3105   -0.1894 N   0  0  0  0  0  0  0  0  0  0  0  0
   -1.8613   -0.6718    0.7586 C   0  0  0  0  0  0  0  0  0  0  0  0
   -0.7558   -0.3176    1.6837 C   0  0  0  0  0  0  0  0  0  0  0  0
    0.5518    0.0263    1.0377 C   0  0  0  0  0  0  0  0  0  0  0  0
    1.0259   -1.1326    0.2160 C   0  0  0  0  0  0  0  0  0  0  0  0
    2.2853   -0.8314   -0.4119 N   0  0  0  0  0  0  0  0  0  0  0  0
    3.3670   -0.7496    0.5131 C   0  0  0  0  0  0  0  0  0  0  0  0
    4.7106   -0.5155   -0.1129 C   0  0  0  0  0  0  0  0  0  0  0  0
    4.8264    0.7513   -0.8986 C   0  0  0  0  0  0  0  0  0  0  0  0
    6.1704    0.8455   -1.4455 N   0  0  0  0  0  0  0  0  0  0  0  0
   -5.0543    2.0332   -0.7306 N   0  0  0  0  0  0  0  0  0  0  0  0
   -4.8193    1.1781    0.4197 C   0  0  0  0  0  0  0  0  0  0  0  0
   -4.5836   -0.2297   -0.1044 C   0  0  0  0  0  0  0  0  0  0  0  0
   -3.3552   -0.1546   -0.9851 C   0  0  0  0  0  0  0  0  0  0  0  0
   -2.2508    0.3105   -0.1894 N   0  0  0  0  0  0  0  0  0  0  0  0
   -1.8613   -0.6718    0.7586 C   0  0  0  0  0  0  0  0  0  0  0  0
   -0.7558   -0.3176    1.6837 C   0  0  0  0  0  0  0  0  0  0  0  0
    0.5518    0.0263    1.0377 C   0  0  0  0  0  0  0  0  0  0  0  0
    1.0259   -1.1326    0.2160 C   0  0  0  0  0  0  0  0  0  0  0  0
    2.2853   -0.8314   -0.4119 N   0  0  0  0  0  0  0  0  0  0  0  0
    3.3670   -0.7496    0.5131 C   0  0  0  0  0  0  0  0  0  0  0  0
    4.7106   -0.5155   -0.1129 C   0  0  0  0  0  0  0  0  0  0  0  0
    4.8264    0.7513   -0.8986 C   0  0  0  0  0  0  0  0  0  0  0  0
    6.1704    0.8455   -1.4455 N   0  0  0  0  0  0  0  0  0  0  0  0
   -5.8870    2.6421   -0.4727 H   0  0  0  0  0  0  0  0  0  0  0  0
   -5.3476    1.4186   -1.5210 H   0  0  0  0  0  0  0  0  0  0  0  0
   -5.5964    1.2511    1.1800 H   0  0  0  0  0  0  0  0  0  0  0  0
   -3.8681    1.5841    0.8805 H   0  0  0  0  0  0  0  0  0  0  0  0
   -4.5383   -0.9885    0.6665 H   0  0  0  0  0  0  0  0  0  0  0  0
   -5.4242   -0.5260   -0.7863 H   0  0  0  0  0  0  0  0  0  0  0  0
   -3.0753   -1.1891   -1.3471 H   0  0  0  0  0  0  0  0  0  0  0  0
   -3.5557    0.4808   -1.8835 H   0  0  0  0  0  0  0  0  0  0  0  0
   -1.4863    0.7269   -0.7533 H   0  0  0  0  0  0  0  0  0  0  0  0
   -2.7512   -0.9021    1.4086 H   0  0  0  0  0  0  0  0  0  0  0  0
   -1.6349   -1.6194    0.2147 H   0  0  0  0  0  0  0  0  0  0  0  0
   -0.5539   -1.2388    2.3058 H   0  0  0  0  0  0  0  0  0  0  0  0
   -1.1065    0.4880    2.3813 H   0  0  0  0  0  0  0  0  0  0  0  0
    1.2815    0.2160    1.8511 H   0  0  0  0  0  0  0  0  0  0  0  0
    0.3769    0.9419    0.4252 H   0  0  0  0  0  0  0  0  0  0  0  0
    1.1589   -1.9911    0.9238 H   0  0  0  0  0  0  0  0  0  0  0  0
    0.2517   -1.4481   -0.5296 H   0  0  0  0  0  0  0  0  0  0  0  0
    2.4512   -1.5281   -1.1661 H   0  0  0  0  0  0  0  0  0  0  0  0
    3.4375   -1.7610    1.0156 H   0  0  0  0  0  0  0  0  0  0  0  0
    3.1664    0.0270    1.2613 H   0  0  0  0  0  0  0  0  0  0  0  0
    5.4618   -0.4983    0.7038 H   0  0  0  0  0  0  0  0  0  0  0  0
    5.0053   -1.3414   -0.7993 H   0  0  0  0  0  0  0  0  0  0  0  0
    4.6829    1.6166   -0.2547 H   0  0  0  0  0  0  0  0  0  0  0  0
    4.1000    0.6846   -1.7448 H   0  0  0  0  0  0  0  0  0  0  0  0
    6.2889    1.8042   -1.8301 H   0  0  0  0  0  0  0  0  0  0  0  0
    6.9055    0.6076   -0.7673 H   0  0  0  0  0  0  0  0  0  0  0  0
   -5.8870    2.6421   -0.4727 H   0  0  0  0  0  0  0  0  0  0  0  0
   -5.3476    1.4186   -1.5210 H   0  0  0  0  0  0  0  0  0  0  0  0
   -5.5964    1.2511    1.1800 H   0  0  0  0  0  0  0  0  0  0  0  0
   -3.8681    1.5841    0.8805 H   0  0  0  0  0  0  0  0  0  0  0  0
   -4.5383   -0.9885    0.6665 H   0  0  0  0  0  0  0  0  0  0  0  0
   -5.4242   -0.5260   -0.7863 H   0  0  0  0  0  0  0  0  0  0  0  0
   -3.0753   -1.1891   -1.3471 H   0  0  0  0  0  0  0  0  0  0  0  0
   -3.5557    0.4808   -1.8835 H   0  0  0  0  0  0  0  0  0  0  0  0
   -1.4863    0.7269   -0.7533 H   0  0  0  0  0  0  0  0  0  0  0  0
   -2.7512   -0.9021    1.4086 H   0  0  0  0  0  0  0  0  0  0  0  0
   -1.6349   -1.6194    0.2147 H   0  0  0  0  0  0  0  0  0  0  0  0
   -0.5539   -1.2388    2.3058 H   0  0  0  0  0  0  0  0  0  0  0  0
   -1.1065    0.4880    2.3813 H   0  0  0  0  0  0  0  0  0  0  0  0
    1.2815    0.2160    1.8511 H   0  0  0  0  0  0  0  0  0  0  0  0
    0.3769    0.9419    0.4252 H   0  0  0  0  0  0  0  0  0  0  0  0
    1.1589   -1.9911    0.9238 H   0  0  0  0  0  0  0  0  0  0  0  0
    0.2517   -1.4481   -0.5296 H   0  0  0  0  0  0  0  0  0  0  0  0
    2.4512   -1.5281   -1.1661 H   0  0  0  0  0  0  0  0  0  0  0  0
    3.4375   -1.7610    1.0156 H   0  0  0  0  0  0  0  0  0  0  0  0
    3.1664    0.0270    1.2613 H   0  0  0  0  0  0  0  0  0  0  0  0
    5.4618   -0.4983    0.7038 H   0  0  0  0  0  0  0  0  0  0  0  0
    5.0053   -1.3414   -0.7993 H   0  0  0  0  0  0  0  0  0  0  0  0
    4.6829    1.6166   -0.2547 H   0  0  0  0  0  0  0  0  0  0  0  0
    4.1000    0.6846   -1.7448 H   0  0  0  0  0  0  0  0  0  0  0  0
    6.2889    1.8042   -1.8301 H   0  0  0  0  0  0  0  0  0  0  0  0
    6.9055    0.6076   -0.7673 H   0  0  0  0  0  0  0  0  0  0  0  0
  1  2  1  0
  2  3  1  0
  3  4  1  0
  4  5  1  0
  5  6  1  0
  6  7  1  0
  7  8  1  0
  8  9  1  0
  9 10  1  0
 10 11  1  0
 11 12  1  0
 12 13  1  0
 13 14  1  0
 15 16  1  0
 16 17  1  0
 17 18  1  0
 18 19  1  0
 19 20  1  0
 20 21  1  0
 21 22  1  0
 22 23  1  0
 23 24  1  0
 24 25  1  0
 25 26  1  0
 26 27  1  0
 27 28  1  0
  1 29  1  0
  1 30  1  0
  2 31  1  0
  2 32  1  0
  3 33  1  0
  3 34  1  0
  4 35  1  0
  4 36  1  0
  5 37  1  0
  6 38  1  0
  6 39  1  0
  7 40  1  0
  7 41  1  0
  8 42  1  0
  8 43  1  0
  9 44  1  0
  9 45  1  0
 10 46  1  0
 11 47  1  0
 11 48  1  0
 12 49  1  0
 12 50  1  0
 13 51  1  0
 13 52  1  0
 14 53  1  0
 14 54  1  0
 15 55  1  0
 15 56  1  0
 16 57  1  0
 16 58  1  0
 17 59  1  0
 17 60  1  0
 18 61  1  0
 18 62  1  0
 19 63  1  0
 20 64  1  0
 20 65  1  0
 21 66  1  0
 21 67  1  0
 22 68  1  0
 22 69  1  0
 23 70  1  0
 23 71  1  0
 24 72  1  0
 25 73  1  0
 25 74  1  0
 26 75  1  0
 26 76  1  0
 27 77  1  0
 27 78  1  0
 28 79  1  0
 28 80  1  0
M  END
>  <PDBID>  (1) 
3KU9

>  <PDB ID>  (1) 
3KU9

>  <Generic Name>  (1) 
Spermine

>  <Brand Name>  (1) 
nan

>  <DrugBank ID>  (1) 
DB00127

>  <ATC Codes>  (1) 
nan

>  <Ligand ID>  (1) 
SPM

>  <Target Name>  (1) 
Spermine oxidase

>  <UniProt ID>  (1) 
Q9NWM0

>  <PDB ID.1>  (1) 
3KU9

>  <Seq. Identity>  (1) 
31%

$$$$
