PDB_DB00299_06
     RDKit          3D

 82 84  0  0  0  0  0  0  0  0999 V2000
    2.5265    1.1914    0.8819 C   0  0  0  0  0  0  0  0  0  0  0  0
    1.1893   -0.4587   -0.1365 C   0  0  0  0  0  0  0  0  0  0  0  0
    2.3113   -0.2841   -1.1887 C   0  0  0  0  0  0  0  0  0  0  0  0
   -4.2049   -0.5245   -0.1366 C   0  0  0  0  0  0  0  0  0  0  0  0
   -3.9834    0.2776   -1.2434 O   0  0  0  0  0  0  0  0  0  0  0  0
   -3.1403    1.1410    1.3311 C   0  0  0  0  0  0  0  0  0  0  0  0
   -2.1302    1.2946    2.2966 O   0  0  0  0  0  0  0  0  0  0  0  0
   -3.1414   -0.3033    0.8944 C   0  0  0  0  0  0  0  0  0  0  0  0
   -1.7902   -0.8377    0.5471 C   0  0  0  0  0  0  0  0  0  0  0  0
   -1.1796   -0.2626   -0.6986 C   0  0  0  0  0  0  0  0  0  0  0  0
    0.0875   -0.7881   -0.9360 N   0  0  0  0  0  0  0  0  0  0  0  0
    1.1760    0.8046    0.5404 N   0  0  0  0  0  0  0  0  0  0  0  0
    2.4589    1.6238    2.2903 N   0  0  0  0  0  0  0  0  0  0  0  0
    3.4598    0.0872    0.8584 N   0  0  0  0  0  0  0  0  0  0  0  0
    3.5743   -0.5276   -0.4439 C   0  0  0  0  0  0  0  0  0  0  0  0
    4.7085   -0.0966   -1.1275 O   0  0  0  0  0  0  0  0  0  0  0  0
    1.9735   -1.2741   -2.1530 N   0  0  0  0  0  0  0  0  0  0  0  0
    0.5069   -1.0861   -2.2566 C   0  0  0  0  0  0  0  0  0  0  0  0
    2.5265    1.1914    0.8819 C   0  0  0  0  0  0  0  0  0  0  0  0
    1.1893   -0.4587   -0.1365 C   0  0  0  0  0  0  0  0  0  0  0  0
    2.3113   -0.2841   -1.1887 C   0  0  0  0  0  0  0  0  0  0  0  0
   -4.2049   -0.5245   -0.1366 C   0  0  0  0  0  0  0  0  0  0  0  0
   -3.9834    0.2776   -1.2434 O   0  0  0  0  0  0  0  0  0  0  0  0
   -3.1403    1.1410    1.3311 C   0  0  0  0  0  0  0  0  0  0  0  0
   -2.1302    1.2946    2.2966 O   0  0  0  0  0  0  0  0  0  0  0  0
   -3.1414   -0.3033    0.8944 C   0  0  0  0  0  0  0  0  0  0  0  0
   -1.7902   -0.8377    0.5471 C   0  0  0  0  0  0  0  0  0  0  0  0
   -1.1796   -0.2626   -0.6986 C   0  0  0  0  0  0  0  0  0  0  0  0
    0.0875   -0.7881   -0.9360 N   0  0  0  0  0  0  0  0  0  0  0  0
    1.1760    0.8046    0.5404 N   0  0  0  0  0  0  0  0  0  0  0  0
    2.4589    1.6238    2.2903 N   0  0  0  0  0  0  0  0  0  0  0  0
    3.4598    0.0872    0.8584 N   0  0  0  0  0  0  0  0  0  0  0  0
    3.5743   -0.5276   -0.4439 C   0  0  0  0  0  0  0  0  0  0  0  0
    4.7085   -0.0966   -1.1275 O   0  0  0  0  0  0  0  0  0  0  0  0
    1.9735   -1.2741   -2.1530 N   0  0  0  0  0  0  0  0  0  0  0  0
    0.5069   -1.0861   -2.2566 C   0  0  0  0  0  0  0  0  0  0  0  0
    2.8940    2.0551    0.3138 H   0  0  0  0  0  0  0  0  0  0  0  0
    1.5089   -1.2316    0.6025 H   0  0  0  0  0  0  0  0  0  0  0  0
    2.2232    0.7567   -1.5811 H   0  0  0  0  0  0  0  0  0  0  0  0
   -4.3019   -1.6040   -0.4010 H   0  0  0  0  0  0  0  0  0  0  0  0
   -5.1855   -0.2555    0.3525 H   0  0  0  0  0  0  0  0  0  0  0  0
   -4.3694   -0.0845   -2.0741 H   0  0  0  0  0  0  0  0  0  0  0  0
   -4.1255    1.3673    1.7907 H   0  0  0  0  0  0  0  0  0  0  0  0
   -2.9796    1.8401    0.4878 H   0  0  0  0  0  0  0  0  0  0  0  0
   -2.2337    2.2087    2.6892 H   0  0  0  0  0  0  0  0  0  0  0  0
   -3.4642   -0.8783    1.8181 H   0  0  0  0  0  0  0  0  0  0  0  0
   -1.1354   -0.7568    1.4271 H   0  0  0  0  0  0  0  0  0  0  0  0
   -1.9478   -1.9624    0.4242 H   0  0  0  0  0  0  0  0  0  0  0  0
   -1.1572    0.8649   -0.5656 H   0  0  0  0  0  0  0  0  0  0  0  0
   -1.8252   -0.4325   -1.5969 H   0  0  0  0  0  0  0  0  0  0  0  0
    0.5242    0.8458    1.3245 H   0  0  0  0  0  0  0  0  0  0  0  0
    2.0928    0.7848    2.7988 H   0  0  0  0  0  0  0  0  0  0  0  0
    3.4291    1.7690    2.6869 H   0  0  0  0  0  0  0  0  0  0  0  0
    4.4005    0.4973    1.0878 H   0  0  0  0  0  0  0  0  0  0  0  0
    3.6924   -1.6193   -0.2907 H   0  0  0  0  0  0  0  0  0  0  0  0
    4.7630   -0.5756   -1.9988 H   0  0  0  0  0  0  0  0  0  0  0  0
    2.4144   -1.1148   -3.0900 H   0  0  0  0  0  0  0  0  0  0  0  0
    0.2540   -0.3382   -3.0230 H   0  0  0  0  0  0  0  0  0  0  0  0
    0.1262   -2.1127   -2.5020 H   0  0  0  0  0  0  0  0  0  0  0  0
    2.8940    2.0551    0.3138 H   0  0  0  0  0  0  0  0  0  0  0  0
    1.5089   -1.2316    0.6025 H   0  0  0  0  0  0  0  0  0  0  0  0
    2.2232    0.7567   -1.5811 H   0  0  0  0  0  0  0  0  0  0  0  0
   -4.3019   -1.6040   -0.4010 H   0  0  0  0  0  0  0  0  0  0  0  0
   -5.1855   -0.2555    0.3525 H   0  0  0  0  0  0  0  0  0  0  0  0
   -4.3694   -0.0845   -2.0741 H   0  0  0  0  0  0  0  0  0  0  0  0
   -4.1255    1.3673    1.7907 H   0  0  0  0  0  0  0  0  0  0  0  0
   -2.9796    1.8401    0.4878 H   0  0  0  0  0  0  0  0  0  0  0  0
   -2.2337    2.2087    2.6892 H   0  0  0  0  0  0  0  0  0  0  0  0
   -3.4642   -0.8783    1.8181 H   0  0  0  0  0  0  0  0  0  0  0  0
   -1.1354   -0.7568    1.4271 H   0  0  0  0  0  0  0  0  0  0  0  0
   -1.9478   -1.9624    0.4242 H   0  0  0  0  0  0  0  0  0  0  0  0
   -1.1572    0.8649   -0.5656 H   0  0  0  0  0  0  0  0  0  0  0  0
   -1.8252   -0.4325   -1.5969 H   0  0  0  0  0  0  0  0  0  0  0  0
    0.5242    0.8458    1.3245 H   0  0  0  0  0  0  0  0  0  0  0  0
    2.0928    0.7848    2.7988 H   0  0  0  0  0  0  0  0  0  0  0  0
    3.4291    1.7690    2.6869 H   0  0  0  0  0  0  0  0  0  0  0  0
    4.4005    0.4973    1.0878 H   0  0  0  0  0  0  0  0  0  0  0  0
    3.6924   -1.6193   -0.2907 H   0  0  0  0  0  0  0  0  0  0  0  0
    4.7630   -0.5756   -1.9988 H   0  0  0  0  0  0  0  0  0  0  0  0
    2.4144   -1.1148   -3.0900 H   0  0  0  0  0  0  0  0  0  0  0  0
    0.2540   -0.3382   -3.0230 H   0  0  0  0  0  0  0  0  0  0  0  0
    0.1262   -2.1127   -2.5020 H   0  0  0  0  0  0  0  0  0  0  0  0
  2  3  1  0
  4  5  1  0
  6  7  1  0
  4  8  1  0
  6  8  1  0
  8  9  1  0
  9 10  1  0
  2 11  1  0
 10 11  1  0
  1 12  1  0
  2 12  1  0
  1 13  1  0
  1 14  1  0
  3 15  1  0
 14 15  1  0
 15 16  1  0
  3 17  1  0
 11 18  1  0
 17 18  1  0
 20 21  1  0
 22 23  1  0
 24 25  1  0
 22 26  1  0
 24 26  1  0
 26 27  1  0
 27 28  1  0
 20 29  1  0
 28 29  1  0
 19 30  1  0
 20 30  1  0
 19 31  1  0
 19 32  1  0
 21 33  1  0
 32 33  1  0
 33 34  1  0
 21 35  1  0
 29 36  1  0
 35 36  1  0
  1 37  1  0
  2 38  1  0
  3 39  1  0
  4 40  1  0
  4 41  1  0
  5 42  1  0
  6 43  1  0
  6 44  1  0
  7 45  1  0
  8 46  1  0
  9 47  1  0
  9 48  1  0
 10 49  1  0
 10 50  1  0
 12 51  1  0
 13 52  1  0
 13 53  1  0
 14 54  1  0
 15 55  1  0
 16 56  1  0
 17 57  1  0
 18 58  1  0
 18 59  1  0
 19 60  1  0
 20 61  1  0
 21 62  1  0
 22 63  1  0
 22 64  1  0
 23 65  1  0
 24 66  1  0
 24 67  1  0
 25 68  1  0
 26 69  1  0
 27 70  1  0
 27 71  1  0
 28 72  1  0
 28 73  1  0
 30 74  1  0
 31 75  1  0
 31 76  1  0
 32 77  1  0
 33 78  1  0
 34 79  1  0
 35 80  1  0
 36 81  1  0
 36 82  1  0
M  END
>  <PDBID>  (1) 
1KI3

>  <PDB ID>  (1) 
1KI3

>  <Generic Name>  (1) 
Penciclovir

>  <Brand Name>  (1) 
Denavir#Penciclovir

>  <DrugBank ID>  (1) 
DB00299

>  <ATC Codes>  (1) 
D06BB06#J05AB13

>  <Ligand ID>  (1) 
PE2

>  <Target Name>  (1) 
Thymidine kinase

>  <UniProt ID>  (1) 
P06478

>  <PDB ID.1>  (1) 
1KI3

>  <Seq. Identity>  (1) 
98%

$$$$
