PDB_DB01254_04
     RDKit          3D

154160  0  0  0  0  0  0  0  0999 V2000
    2.4743    0.1249   -1.2197 C   0  0  0  0  0  0  0  0  0  0  0  0
    2.9835   -1.1711   -0.7276 C   0  0  0  0  0  0  0  0  0  0  0  0
    3.6660   -1.1225    0.6115 C   0  0  0  0  0  0  0  0  0  0  0  0
   -7.4620   -0.2232    0.2152 N   0  0  0  0  0  0  0  0  0  0  0  0
    8.6907   -0.3133   -0.6964 C   0  0  0  0  0  0  0  0  0  0  0  0
    8.3642    0.3154    0.6208 C   0  0  0  0  0  0  0  0  0  0  0  0
    7.1224   -0.1804    1.2713 C   0  0  0  0  0  0  0  0  0  0  0  0
    7.2310   -1.3517    2.1473 C   0  0  0  0  0  0  0  0  0  0  0  0
   -1.8130    0.3595   -0.9650 C   0  0  0  0  0  0  0  0  0  0  0  0
   -3.2153    0.3059   -0.4789 C   0  0  0  0  0  0  0  0  0  0  0  0
   -3.6628    1.5087    0.3233 C   0  0  0  0  0  0  0  0  0  0  0  0
   -1.8663    2.7665   -0.5832 C   0  0  0  0  0  0  0  0  0  0  0  0
   -1.1501    3.1769    0.6850 C   0  0  0  0  0  0  0  0  0  0  0  0
   -5.8656    1.4092   -0.6517 C   0  0  0  0  0  0  0  0  0  0  0  0
   -5.5220    0.4820    1.5014 C   0  0  0  0  0  0  0  0  0  0  0  0
   -7.4987   -1.6411    0.5671 C   0  0  0  0  0  0  0  0  0  0  0  0
   -8.0305   -2.4930   -0.5621 C   0  0  0  0  0  0  0  0  0  0  0  0
   -0.9320   -0.5493   -0.2343 N   0  0  0  0  0  0  0  0  0  0  0  0
    0.3092   -0.6104   -0.9178 C   0  0  1  0  0  0  0  0  0  0  0  0
    1.2260    0.4602   -0.6080 N   0  0  0  0  0  0  0  0  0  0  0  0
    1.3453   -2.0439   -0.5131 S   0  0  0  0  0  0  0  0  0  0  0  0
    4.7349   -0.2962    0.7700 N   0  0  0  0  0  0  0  0  0  0  0  0
    5.9804   -0.2565    0.2208 C   0  0  2  0  0  0  0  0  0  0  0  0
    6.4397   -1.1896   -0.8246 C   0  0  0  0  0  0  0  0  0  0  0  0
    7.5115   -0.4166   -1.6401 C   0  0  0  0  0  0  0  0  0  0  0  0
    7.4249   -2.5646   -0.1911 Cl  0  0  0  0  0  0  0  0  0  0  0  0
    3.8754   -2.4804    0.9672 O   0  0  0  0  0  0  0  0  0  0  0  0
   -3.3023    2.6927   -0.3695 N   0  0  0  0  0  0  0  0  0  0  0  0
   -1.2942    1.6426   -1.2242 N   0  0  0  0  0  0  0  0  0  0  0  0
   -5.0619    1.4435    0.5532 N   0  0  0  0  0  0  0  0  0  0  0  0
   -6.4716    0.0178   -0.8212 C   0  0  0  0  0  0  0  0  0  0  0  0
   -7.0420    0.4769    1.4338 C   0  0  0  0  0  0  0  0  0  0  0  0
   -9.3377   -2.1328   -0.9375 O   0  0  0  0  0  0  0  0  0  0  0  0
    1.3672   -1.3911   -0.5014 C   0  0  0  0  0  0  0  0  0  0  0  0
    2.1269   -1.5347    0.7980 C   0  0  0  0  0  0  0  0  0  0  0  0
    3.5975   -1.7771    0.4901 C   0  0  0  0  0  0  0  0  0  0  0  0
   -6.5277   -0.5096   -0.1101 N   0  0  0  0  0  0  0  0  0  0  0  0
    8.3154   -0.3374   -0.6184 C   0  0  0  0  0  0  0  0  0  0  0  0
    7.5538    0.5244    0.3492 C   0  0  0  0  0  0  0  0  0  0  0  0
    6.2812   -0.2346    0.7277 C   0  0  0  0  0  0  0  0  0  0  0  0
    6.5749   -1.4519    1.5299 C   0  0  0  0  0  0  0  0  0  0  0  0
   -0.8562    2.2172   -0.5253 C   0  0  0  0  0  0  0  0  0  0  0  0
   -1.8387    1.1715   -0.9149 C   0  0  0  0  0  0  0  0  0  0  0  0
   -3.2554    1.7245   -1.0147 C   0  0  2  0  0  0  0  0  0  0  0  0
   -2.6561    3.3996    0.6018 C   0  0  0  0  0  0  0  0  0  0  0  0
   -2.3083    3.2010    2.0584 C   0  0  0  0  0  0  0  0  0  0  0  0
   -5.3928    0.8544   -1.6690 C   0  0  0  0  0  0  0  0  0  0  0  0
   -4.1854   -0.0459    0.2323 C   0  0  0  0  0  0  0  0  0  0  0  0
   -7.5587   -1.3266    0.3625 C   0  0  0  0  0  0  0  0  0  0  0  0
   -7.3789   -2.8080    0.1590 C   0  0  0  0  0  0  0  0  0  0  0  0
    0.0831    1.8248    0.4899 N   0  0  0  0  0  0  0  0  0  0  0  0
    0.9478    0.8145    0.0505 C   0  0  2  0  0  0  0  0  0  0  0  0
    0.2821   -0.4432   -0.2241 N   0  0  0  0  0  0  0  0  0  0  0  0
    2.0349    0.2009    1.4169 S   0  0  0  0  0  0  0  0  0  0  0  0
    4.0910   -0.7015   -0.2262 N   0  0  0  0  0  0  0  0  0  0  0  0
    5.4268   -0.4657   -0.4952 C   0  0  0  0  0  0  0  0  0  0  0  0
    6.1696   -1.3852   -1.4116 C   0  0  0  0  0  0  0  0  0  0  0  0
    7.4400   -0.6188   -1.8156 C   0  0  0  0  0  0  0  0  0  0  0  0
    5.2813   -1.6263   -2.9535 Cl  0  0  0  0  0  0  0  0  0  0  0  0
    3.6681   -3.0246   -0.0818 O   0  0  0  0  0  0  0  0  0  0  0  0
   -3.6260    2.4436    0.1769 N   0  0  0  0  0  0  0  0  0  0  0  0
   -1.4786    3.4597   -0.1903 N   0  0  0  0  0  0  0  0  0  0  0  0
   -4.1394    0.5531   -1.0577 N   0  0  0  0  0  0  0  0  0  0  0  0
   -6.2880   -0.3824   -1.4904 C   0  0  0  0  0  0  0  0  0  0  0  0
   -5.5660   -0.0068    0.7932 C   0  0  0  0  0  0  0  0  0  0  0  0
   -7.2622   -3.1308   -1.2046 O   0  0  0  0  0  0  0  0  0  0  0  0
    3.1388    0.9972   -1.0989 H   0  0  0  0  0  0  0  0  0  0  0  0
    2.2894    0.0312   -2.3299 H   0  0  0  0  0  0  0  0  0  0  0  0
    3.4809   -1.7627   -1.4889 H   0  0  0  0  0  0  0  0  0  0  0  0
    2.8357   -0.8123    1.3204 H   0  0  0  0  0  0  0  0  0  0  0  0
    9.1451   -1.3151   -0.5780 H   0  0  0  0  0  0  0  0  0  0  0  0
    9.4478    0.3305   -1.1939 H   0  0  0  0  0  0  0  0  0  0  0  0
    9.2234    0.1964    1.2934 H   0  0  0  0  0  0  0  0  0  0  0  0
    8.3213    1.4305    0.4196 H   0  0  0  0  0  0  0  0  0  0  0  0
    6.7567    0.6875    1.9153 H   0  0  0  0  0  0  0  0  0  0  0  0
    7.2073   -1.0574    3.2454 H   0  0  0  0  0  0  0  0  0  0  0  0
    6.4367   -2.1139    2.0762 H   0  0  0  0  0  0  0  0  0  0  0  0
    8.2685   -1.7940    2.0622 H   0  0  0  0  0  0  0  0  0  0  0  0
   -1.8495   -0.1541   -2.0004 H   0  0  0  0  0  0  0  0  0  0  0  0
   -3.3714   -0.6095    0.1176 H   0  0  0  0  0  0  0  0  0  0  0  0
   -3.8629    0.3236   -1.4162 H   0  0  0  0  0  0  0  0  0  0  0  0
   -3.1640    1.4061    1.3203 H   0  0  0  0  0  0  0  0  0  0  0  0
   -1.7133    3.6439   -1.2858 H   0  0  0  0  0  0  0  0  0  0  0  0
   -1.2693    2.4788    1.5164 H   0  0  0  0  0  0  0  0  0  0  0  0
   -0.0711    3.3001    0.4520 H   0  0  0  0  0  0  0  0  0  0  0  0
   -1.5827    4.1453    1.0083 H   0  0  0  0  0  0  0  0  0  0  0  0
   -6.7166    2.1026   -0.5014 H   0  0  0  0  0  0  0  0  0  0  0  0
   -5.3284    1.7388   -1.5393 H   0  0  0  0  0  0  0  0  0  0  0  0
   -5.2750    0.8160    2.5497 H   0  0  0  0  0  0  0  0  0  0  0  0
   -5.1448   -0.5334    1.3329 H   0  0  0  0  0  0  0  0  0  0  0  0
   -8.0834   -1.7734    1.4912 H   0  0  0  0  0  0  0  0  0  0  0  0
   -6.4340   -1.9433    0.7003 H   0  0  0  0  0  0  0  0  0  0  0  0
   -8.1156   -3.5280   -0.1562 H   0  0  0  0  0  0  0  0  0  0  0  0
   -7.3442   -2.5533   -1.4113 H   0  0  0  0  0  0  0  0  0  0  0  0
   -1.3706   -1.4613   -0.1151 H   0  0  0  0  0  0  0  0  0  0  0  0
    0.1503   -0.6736   -2.0405 H   0  0  0  0  0  0  0  0  0  0  0  0
    0.9074    1.3348   -1.0018 H   0  0  0  0  0  0  0  0  0  0  0  0
    4.7559    0.1635    1.7410 H   0  0  0  0  0  0  0  0  0  0  0  0
    6.0904    0.7971   -0.2267 H   0  0  0  0  0  0  0  0  0  0  0  0
    5.7320   -1.5283   -1.5700 H   0  0  0  0  0  0  0  0  0  0  0  0
    7.1420    0.6276   -1.8103 H   0  0  0  0  0  0  0  0  0  0  0  0
    7.7906   -0.9382   -2.5487 H   0  0  0  0  0  0  0  0  0  0  0  0
    3.1625   -3.0107    0.5361 H   0  0  0  0  0  0  0  0  0  0  0  0
   -3.6086    3.5830    0.0342 H   0  0  0  0  0  0  0  0  0  0  0  0
   -1.0431    1.8216   -2.2368 H   0  0  0  0  0  0  0  0  0  0  0  0
   -5.7276   -0.7957   -0.7001 H   0  0  0  0  0  0  0  0  0  0  0  0
   -6.8695   -0.0392   -1.8386 H   0  0  0  0  0  0  0  0  0  0  0  0
   -7.4363    1.5123    1.3178 H   0  0  0  0  0  0  0  0  0  0  0  0
   -7.4687   -0.0185    2.3179 H   0  0  0  0  0  0  0  0  0  0  0  0
   -9.2835   -1.1984   -1.2587 H   0  0  0  0  0  0  0  0  0  0  0  0
    1.9511   -1.0473   -1.3463 H   0  0  0  0  0  0  0  0  0  0  0  0
    0.8963   -2.3444   -0.7247 H   0  0  0  0  0  0  0  0  0  0  0  0
    1.6890   -2.2457    1.4852 H   0  0  0  0  0  0  0  0  0  0  0  0
    4.0845   -1.8304    1.4944 H   0  0  0  0  0  0  0  0  0  0  0  0
    8.5842   -1.2825   -0.1254 H   0  0  0  0  0  0  0  0  0  0  0  0
    9.2010    0.2071   -1.0131 H   0  0  0  0  0  0  0  0  0  0  0  0
    8.0922    0.7223    1.2863 H   0  0  0  0  0  0  0  0  0  0  0  0
    7.2099    1.4460   -0.1540 H   0  0  0  0  0  0  0  0  0  0  0  0
    5.7050    0.4825    1.3672 H   0  0  0  0  0  0  0  0  0  0  0  0
    7.6950   -1.4677    1.6994 H   0  0  0  0  0  0  0  0  0  0  0  0
    6.1617   -1.3554    2.5564 H   0  0  0  0  0  0  0  0  0  0  0  0
    6.3594   -2.4153    1.0446 H   0  0  0  0  0  0  0  0  0  0  0  0
   -0.2808    2.4436   -1.4951 H   0  0  0  0  0  0  0  0  0  0  0  0
   -1.8809    0.3909   -0.1442 H   0  0  0  0  0  0  0  0  0  0  0  0
   -1.6309    0.6891   -1.8914 H   0  0  0  0  0  0  0  0  0  0  0  0
   -3.3670    2.3481   -1.9082 H   0  0  0  0  0  0  0  0  0  0  0  0
   -3.1191    4.4387    0.5412 H   0  0  0  0  0  0  0  0  0  0  0  0
   -2.4991    2.1325    2.3206 H   0  0  0  0  0  0  0  0  0  0  0  0
   -3.0391    3.7776    2.6633 H   0  0  0  0  0  0  0  0  0  0  0  0
   -1.2696    3.5233    2.2862 H   0  0  0  0  0  0  0  0  0  0  0  0
   -5.8943    1.7406   -1.2716 H   0  0  0  0  0  0  0  0  0  0  0  0
   -5.2345    0.9204   -2.7808 H   0  0  0  0  0  0  0  0  0  0  0  0
   -3.5214    0.4429    0.9834 H   0  0  0  0  0  0  0  0  0  0  0  0
   -3.8479   -1.1027    0.1681 H   0  0  0  0  0  0  0  0  0  0  0  0
   -8.5712   -1.0714   -0.0090 H   0  0  0  0  0  0  0  0  0  0  0  0
   -7.6194   -1.1892    1.4826 H   0  0  0  0  0  0  0  0  0  0  0  0
   -8.3191   -3.2943    0.4991 H   0  0  0  0  0  0  0  0  0  0  0  0
   -6.5737   -3.2352    0.7712 H   0  0  0  0  0  0  0  0  0  0  0  0
   -0.4001    1.4908    1.3651 H   0  0  0  0  0  0  0  0  0  0  0  0
    1.6116    1.1124   -0.7968 H   0  0  0  0  0  0  0  0  0  0  0  0
   -0.0750   -0.7653    0.7266 H   0  0  0  0  0  0  0  0  0  0  0  0
    3.6393    0.1998    0.0856 H   0  0  0  0  0  0  0  0  0  0  0  0
    5.4713    0.5418   -1.0288 H   0  0  0  0  0  0  0  0  0  0  0  0
    6.5189   -2.3183   -0.9801 H   0  0  0  0  0  0  0  0  0  0  0  0
    7.0698    0.3496   -2.2107 H   0  0  0  0  0  0  0  0  0  0  0  0
    7.9344   -1.2048   -2.5908 H   0  0  0  0  0  0  0  0  0  0  0  0
    3.9922   -3.6680    0.5826 H   0  0  0  0  0  0  0  0  0  0  0  0
   -4.5466    2.9004   -0.0013 H   0  0  0  0  0  0  0  0  0  0  0  0
   -0.7737    4.0436    0.3172 H   0  0  0  0  0  0  0  0  0  0  0  0
   -5.7429   -1.2142   -1.9770 H   0  0  0  0  0  0  0  0  0  0  0  0
   -7.2268   -0.2345   -2.0943 H   0  0  0  0  0  0  0  0  0  0  0  0
   -5.7914    1.0248    1.1684 H   0  0  0  0  0  0  0  0  0  0  0  0
   -5.5617   -0.6508    1.7110 H   0  0  0  0  0  0  0  0  0  0  0  0
   -8.0034   -2.6183   -1.6510 H   0  0  0  0  0  0  0  0  0  0  0  0
  1  2  1  0
  2  3  1  0
  5  6  1  0
  6  7  1  0
  7  8  1  0
  9 10  1  0
 10 11  1  0
 12 13  1  0
  4 16  1  0
 16 17  1  0
  9 18  1  0
 18 19  1  0
  1 20  1  0
 19 20  1  0
  2 21  1  0
 19 21  1  0
  3 22  1  0
  7 23  1  0
 22 23  1  0
 23 24  1  0
  5 25  1  0
 24 25  1  0
 24 26  1  0
  3 27  1  0
 11 28  1  0
 12 28  1  0
  9 29  1  0
 12 29  1  0
 11 30  1  0
 14 30  1  0
 15 30  1  0
  4 31  1  0
 14 31  1  0
  4 32  1  0
 15 32  1  0
 17 33  1  0
 34 35  1  0
 35 36  1  0
 38 39  1  0
 39 40  1  0
 40 41  1  0
 42 43  1  0
 43 44  1  0
 45 46  1  0
 37 49  1  0
 49 50  1  0
 42 51  1  0
 51 52  1  0
 34 53  1  0
 52 53  1  0
 35 54  1  0
 52 54  1  0
 36 55  1  0
 40 56  1  0
 55 56  1  0
 56 57  1  0
 38 58  1  0
 57 58  1  0
 57 59  1  0
 36 60  1  0
 44 61  1  0
 45 61  1  0
 42 62  1  0
 45 62  1  0
 44 63  1  0
 47 63  1  0
 48 63  1  0
 37 64  1  0
 47 64  1  0
 37 65  1  0
 48 65  1  0
 50 66  1  0
  1 67  1  0
  1 68  1  0
  2 69  1  0
  3 70  1  0
  5 71  1  0
  5 72  1  0
  6 73  1  0
  6 74  1  0
  7 75  1  0
  8 76  1  0
  8 77  1  0
  8 78  1  0
  9 79  1  0
 10 80  1  0
 10 81  1  0
 11 82  1  0
 12 83  1  0
 13 84  1  0
 13 85  1  0
 13 86  1  0
 14 87  1  0
 14 88  1  0
 15 89  1  0
 15 90  1  0
 16 91  1  0
 16 92  1  0
 17 93  1  0
 17 94  1  0
 18 95  1  0
 19 96  1  6
 20 97  1  0
 22 98  1  0
 23 99  1  6
 24100  1  0
 25101  1  0
 25102  1  0
 27103  1  0
 28104  1  0
 29105  1  0
 31106  1  0
 31107  1  0
 32108  1  0
 32109  1  0
 33110  1  0
 34111  1  0
 34112  1  0
 35113  1  0
 36114  1  0
 38115  1  0
 38116  1  0
 39117  1  0
 39118  1  0
 40119  1  0
 41120  1  0
 41121  1  0
 41122  1  0
 42123  1  0
 43124  1  0
 43125  1  0
 44126  1  6
 45127  1  0
 46128  1  0
 46129  1  0
 46130  1  0
 47131  1  0
 47132  1  0
 48133  1  0
 48134  1  0
 49135  1  0
 49136  1  0
 50137  1  0
 50138  1  0
 51139  1  0
 52140  1  6
 53141  1  0
 55142  1  0
 56143  1  0
 57144  1  0
 58145  1  0
 58146  1  0
 60147  1  0
 61148  1  0
 62149  1  0
 64150  1  0
 64151  1  0
 65152  1  0
 65153  1  0
 66154  1  0
M  END
>  <PDBID>  (1) 
2GQG

>  <PDB ID>  (1) 
2GQG

>  <Generic Name>  (1) 
Dasatinib

>  <Brand Name>  (1) 
Sprycel

>  <DrugBank ID>  (1) 
DB01254

>  <ATC Codes>  (1) 
L01XE06

>  <Ligand ID>  (1) 
1N1

>  <Target Name>  (1) 
Tyrosine-protein kinase ABL1

>  <UniProt ID>  (1) 
P00519

>  <PDB ID.1>  (1) 
2GQG

>  <Seq. Identity>  (1) 
96%

$$$$
