PDB_DB00819_06
     RDKit          3D

 27 27  0  0  0  0  0  0  0  0999 V2000
    1.4427   -0.5812   -0.2326 C   0  0  2  0  0  0  0  0  0  0  0  0
   -0.7256    1.0421   -0.4661 C   0  0  2  0  0  0  0  0  0  0  0  0
   -2.9082    0.4017    0.2289 C   0  0  0  0  0  0  0  0  0  0  0  0
   -4.0906   -0.4549   -0.1258 C   0  0  0  0  0  0  0  0  0  0  0  0
    3.9399    0.2374   -0.8357 N   0  0  0  0  0  0  0  0  0  0  0  0
   -0.2070    0.6304    0.8265 N   0  0  0  0  0  0  0  0  0  0  0  0
    0.3410   -0.6171    0.7132 N   0  0  0  0  0  0  0  0  0  0  0  0
   -1.8858    0.2379   -0.7637 N   0  0  0  0  0  0  0  0  0  0  0  0
    3.5192   -1.5102    1.1394 O   0  0  0  0  0  0  0  0  0  0  0  0
    2.8602    0.9925    1.5245 O   0  0  0  0  0  0  0  0  0  0  0  0
   -2.4841    0.1339    1.5176 O   0  0  0  0  0  0  0  0  0  0  0  0
    2.8917    0.0441    0.3013 S   0  0  0  0  0  0  0  0  0  0  0  0
    0.7003    0.5165   -1.5088 S   0  0  0  0  0  0  0  0  0  0  0  0
    1.5563   -1.5754   -0.7040 H   0  0  0  0  0  0  0  0  0  0  0  0
   -0.8755    2.1143   -0.5253 H   0  0  0  0  0  0  0  0  0  0  0  0
   -3.2648    1.4700    0.2324 H   0  0  0  0  0  0  0  0  0  0  0  0
   -4.8968    0.0936   -0.6346 H   0  0  0  0  0  0  0  0  0  0  0  0
   -3.7545   -1.2515   -0.8273 H   0  0  0  0  0  0  0  0  0  0  0  0
   -4.4763   -0.9375    0.8148 H   0  0  0  0  0  0  0  0  0  0  0  0
    3.7202    0.0872   -1.8459 H   0  0  0  0  0  0  0  0  0  0  0  0
    4.9552    0.2037   -0.6785 H   0  0  0  0  0  0  0  0  0  0  0  0
    0.3741    1.3472    1.2864 H   0  0  0  0  0  0  0  0  0  0  0  0
    0.7216   -0.9002    1.6200 H   0  0  0  0  0  0  0  0  0  0  0  0
   -1.5779   -0.7654   -0.7300 H   0  0  0  0  0  0  0  0  0  0  0  0
    3.4655   -2.0787    0.3199 H   0  0  0  0  0  0  0  0  0  0  0  0
    2.9692    1.9423    1.3643 H   0  0  0  0  0  0  0  0  0  0  0  0
   -2.3100   -0.8227    1.6898 H   0  0  0  0  0  0  0  0  0  0  0  0
  3  4  1  0
  2  6  1  0
  1  7  1  0
  6  7  1  0
  2  8  1  0
  3  8  1  0
  3 11  1  0
  1 12  1  0
  5 12  1  0
 12  9  1  0
 10 12  1  0
  1 13  1  0
  2 13  1  0
  1 14  1  6
  2 15  1  1
  3 16  1  0
  4 17  1  0
  4 18  1  0
  4 19  1  0
  5 20  1  0
  5 21  1  0
  6 22  1  0
  7 23  1  0
  8 24  1  0
  9 25  1  0
 10 26  1  0
 11 27  1  0
M  END
>  <PDBID>  (1) 
1AZM

>  <PDB ID>  (1) 
1AZM

>  <Generic Name>  (1) 
Acetazolamide

>  <Brand Name>  (1) 
Acetazolam#Acetazolamide#Acetazolamide for Injection, USP#Diamox IV 500mg#Diamox Pws 500mg/vial#Diamox Sequels#Diamox Src 500mg#Diamox Tab 250mg#Diamox Tablets 250mg#Novo-zolamide Tab 250mg#Acemit#Acemox#Acetak#Acetamide#Acetazolamax#Azm#Azol#Azomid#Carbinib#Defiltran#Diabo#Diacarb#Diamox#Diamox Depot#Diazomid#Diluran#Diuramid#Défiltran#Edemox#Glaumox#Glaupax#Glupax#Huma-Zolamide#Iopar-SR#Medene#Oculten#Uramox#Zolmide#Ödemin

>  <DrugBank ID>  (1) 
DB00819

>  <ATC Codes>  (1) 
S01EC01

>  <Ligand ID>  (1) 
AZM

>  <Target Name>  (1) 
Carbonic anhydrase 1

>  <UniProt ID>  (1) 
P00915

>  <PDB ID.1>  (1) 
1AZM

>  <Seq. Identity>  (1) 
100%

$$$$
