PDB_DB00615_02
     RDKit          3D

294304  0  0  0  0  0  0  0  0999 V2000
    0.9253    1.4859   -1.6863 C   0  0  0  0  0  0  0  0  0  0  0  0
    2.1367    2.2117   -1.2809 C   0  0  0  0  0  0  0  0  0  0  0  0
    3.3766    1.4546   -1.0443 C   0  0  0  0  0  0  0  0  0  0  0  0
    3.3908    0.0356   -1.5211 C   0  0  2  0  0  0  0  0  0  0  0  0
    2.2279   -2.0975   -1.6091 C   0  0  0  0  0  0  0  0  0  0  0  0
    1.3025   -2.5285   -2.7116 C   0  0  0  0  0  0  0  0  0  0  0  0
    1.2907   -1.6144   -3.8833 C   0  0  0  0  0  0  0  0  0  0  0  0
    1.3233   -0.1545   -3.5567 C   0  0  0  0  0  0  0  0  0  0  0  0
    1.0497    0.0643   -2.0812 C   0  0  0  0  0  0  0  0  0  0  0  0
    2.0669   -0.6438   -1.2520 C   0  0  0  0  0  0  0  0  0  0  0  0
    1.6678   -2.8973   -0.4316 C   0  0  2  0  0  0  0  0  0  0  0  0
    0.2441   -3.1805   -0.8472 C   0  0  2  0  0  0  0  0  0  0  0  0
   -0.0057   -4.6583   -0.6797 C   0  0  0  0  0  0  0  0  0  0  0  0
    2.4643   -1.9322   -4.7996 C   0  0  0  0  0  0  0  0  0  0  0  0
    1.7702    4.4089   -0.3283 C   0  0  0  0  0  0  0  0  0  0  0  0
    0.9090    5.0968    0.7093 C   0  0  0  0  0  0  0  0  0  0  0  0
   -0.5425    4.8780    0.3232 C   0  0  0  0  0  0  0  0  0  0  0  0
   -1.4022    4.5163    1.4908 C   0  0  0  0  0  0  0  0  0  0  0  0
   -2.8312    4.9101    1.2226 C   0  0  0  0  0  0  0  0  0  0  0  0
   -3.4688    4.0544    0.1303 C   0  0  1  0  0  0  0  0  0  0  0  0
   -4.0228    2.8473    0.7767 C   0  0  1  0  0  0  0  0  0  0  0  0
   -4.9567    2.0265   -0.1187 C   0  0  2  0  0  0  0  0  0  0  0  0
   -5.3026    0.8054    0.7069 C   0  0  2  0  0  0  0  0  0  0  0  0
   -6.3839   -0.0381    0.1986 C   0  0  2  0  0  0  0  0  0  0  0  0
   -6.2558   -1.5365    0.3936 C   0  0  1  0  0  0  0  0  0  0  0  0
   -5.2216   -2.2107   -0.3839 C   0  0  1  0  0  0  0  0  0  0  0  0
   -4.1518   -2.8471    0.4717 C   0  0  2  0  0  0  0  0  0  0  0  0
   -2.8365   -2.0876    0.4472 C   0  0  0  0  0  0  0  0  0  0  0  0
   -1.6494   -3.0453    0.5038 C   0  0  0  0  0  0  0  0  0  0  0  0
    1.2206    4.5728    2.0884 C   0  0  0  0  0  0  0  0  0  0  0  0
   -4.4912    4.9254   -0.5535 C   0  0  0  0  0  0  0  0  0  0  0  0
   -4.3117    1.7752   -1.4168 C   0  0  0  0  0  0  0  0  0  0  0  0
   -6.8274    0.2328   -1.2358 C   0  0  0  0  0  0  0  0  0  0  0  0
   -5.8651   -3.3873   -1.1513 C   0  0  0  0  0  0  0  0  0  0  0  0
   -7.2704   -2.4426    2.2656 C   0  0  0  0  0  0  0  0  0  0  0  0
   -6.9997   -3.8525    2.7114 C   0  0  0  0  0  0  0  0  0  0  0  0
   -3.9769   -5.1238    0.9354 C   0  0  0  0  0  0  0  0  0  0  0  0
    4.7924    0.3188    0.3049 C   0  0  0  0  0  0  0  0  0  0  0  0
    4.9175   -0.2986    1.6907 C   0  0  0  0  0  0  0  0  0  0  0  0
    6.1316    0.8859   -0.1366 C   0  0  0  0  0  0  0  0  0  0  0  0
    5.9295    0.5019    2.4414 C   0  0  0  0  0  0  0  0  0  0  0  0
    7.1935   -0.0448    0.4974 C   0  0  0  0  0  0  0  0  0  0  0  0
    7.7230   -0.9850    2.5800 C   0  0  0  0  0  0  0  0  0  0  0  0
    9.1412   -1.3681    2.3872 C   0  0  0  0  0  0  0  0  0  0  0  0
   10.0422   -0.2371    2.9168 C   0  0  0  0  0  0  0  0  0  0  0  0
    9.6053   -1.7144    1.0271 C   0  0  0  0  0  0  0  0  0  0  0  0
    1.8610    3.0067   -0.0753 N   0  0  0  0  0  0  0  0  0  0  0  0
    3.7398    1.2936    0.3502 N   0  0  0  0  0  0  0  0  0  0  0  0
    4.3625   -0.6270   -0.6723 N   0  0  0  0  0  0  0  0  0  0  0  0
    7.2790    0.2193    1.9248 N   0  0  0  0  0  0  0  0  0  0  0  0
    0.2559    2.1475   -2.7472 O   0  0  0  0  0  0  0  0  0  0  0  0
    0.2801    0.4956   -4.2432 O   0  0  0  0  0  0  0  0  0  0  0  0
    0.0825   -2.7932   -2.1492 O   0  0  0  0  0  0  0  0  0  0  0  0
    1.7210   -2.1818    0.7545 O   0  0  0  0  0  0  0  0  0  0  0  0
   -0.5785   -2.4095   -0.0646 O   0  0  0  0  0  0  0  0  0  0  0  0
   -3.8081   -4.1392    0.0014 O   0  0  0  0  0  0  0  0  0  0  0  0
   -6.1490   -1.8766    1.7366 O   0  0  0  0  0  0  0  0  0  0  0  0
   -7.8549   -1.6796    3.2764 O   0  0  0  0  0  0  0  0  0  0  0  0
   -5.6393    1.3583    1.9786 O   0  0  0  0  0  0  0  0  0  0  0  0
   -2.9793    1.9968    1.1344 O   0  0  0  0  0  0  0  0  0  0  0  0
    1.2875    4.7174   -1.5919 O   0  0  0  0  0  0  0  0  0  0  0  0
    1.8421    1.8025   -2.4499 C   0  0  0  0  0  0  0  0  0  0  0  0
    2.4065    2.4364   -1.1697 C   0  0  0  0  0  0  0  0  0  0  0  0
    2.8594    1.2837   -0.3019 C   0  0  1  0  0  0  0  0  0  0  0  0
    3.3610    0.1308   -1.1644 C   0  0  2  0  0  0  0  0  0  0  0  0
    1.8396   -1.8583   -1.6240 C   0  0  0  0  0  0  0  0  0  0  0  0
    0.3233   -1.8817   -1.9107 C   0  0  0  0  0  0  0  0  0  0  0  0
    0.0196   -1.4433   -3.2772 C   0  0  0  0  0  0  0  0  0  0  0  0
    0.4171    0.0385   -3.3637 C   0  0  0  0  0  0  0  0  0  0  0  0
    1.1790    0.4755   -2.1427 C   0  0  0  0  0  0  0  0  0  0  0  0
    2.3269   -0.5394   -1.9580 C   0  0  1  0  0  0  0  0  0  0  0  0
    1.8449   -2.4307   -0.2946 C   0  0  0  0  0  0  0  0  0  0  0  0
    0.5154   -3.2116   -0.2600 C   0  0  2  0  0  0  0  0  0  0  0  0
    0.6847   -4.5867    0.2813 C   0  0  0  0  0  0  0  0  0  0  0  0
    0.7012   -2.2669   -4.3311 C   0  0  0  0  0  0  0  0  0  0  0  0
    1.4186    4.4996   -0.3885 C   0  0  0  0  0  0  0  0  0  0  0  0
    0.8219    4.9095    0.9465 C   0  0  0  0  0  0  0  0  0  0  0  0
   -0.6320    5.2912    0.8320 C   0  0  0  0  0  0  0  0  0  0  0  0
   -1.5396    4.3411    1.5524 C   0  0  0  0  0  0  0  0  0  0  0  0
   -2.9023    4.2403    0.9013 C   0  0  0  0  0  0  0  0  0  0  0  0
   -2.8072    3.4483   -0.3651 C   0  0  1  0  0  0  0  0  0  0  0  0
   -3.1256    1.9888   -0.1964 C   0  0  1  0  0  0  0  0  0  0  0  0
   -4.6427    1.7369   -0.1266 C   0  0  2  0  0  0  0  0  0  0  0  0
   -4.8231    0.6755    0.9080 C   0  0  2  0  0  0  0  0  0  0  0  0
   -6.1218    0.0221    1.0538 C   0  0  2  0  0  0  0  0  0  0  0  0
   -6.2351   -1.4071    0.6041 C   0  0  1  0  0  0  0  0  0  0  0  0
   -5.0953   -2.0004   -0.1111 C   0  0  1  0  0  0  0  0  0  0  0  0
   -4.0714   -2.7048    0.7288 C   0  0  2  0  0  0  0  0  0  0  0  0
   -2.7624   -2.6755   -0.0841 C   0  0  0  0  0  0  0  0  0  0  0  0
   -1.5760   -3.1041    0.7107 C   0  0  0  0  0  0  0  0  0  0  0  0
    1.6606    6.0090    1.5305 C   0  0  0  0  0  0  0  0  0  0  0  0
   -3.6332    4.1173   -1.4271 C   0  0  0  0  0  0  0  0  0  0  0  0
   -5.1121    1.4578   -1.4868 C   0  0  0  0  0  0  0  0  0  0  0  0
   -7.2202    0.8986    0.4835 C   0  0  0  0  0  0  0  0  0  0  0  0
   -5.5839   -3.0564   -1.1222 C   0  0  0  0  0  0  0  0  0  0  0  0
   -7.8690   -2.8455    1.4649 C   0  0  0  0  0  0  0  0  0  0  0  0
   -7.8599   -4.3571    1.4098 C   0  0  0  0  0  0  0  0  0  0  0  0
   -4.4636   -4.4798    2.1905 C   0  0  0  0  0  0  0  0  0  0  0  0
    4.8747    0.3850    0.4687 C   0  0  0  0  0  0  0  0  0  0  0  0
    5.2194   -0.0840    1.8541 C   0  0  0  0  0  0  0  0  0  0  0  0
    6.1372    0.7310   -0.2454 C   0  0  0  0  0  0  0  0  0  0  0  0
    6.7240   -0.1930    2.0835 C   0  0  0  0  0  0  0  0  0  0  0  0
    7.0884   -0.4423   -0.2997 C   0  0  0  0  0  0  0  0  0  0  0  0
    8.3101   -1.8574    1.2448 C   0  0  0  0  0  0  0  0  0  0  0  0
    9.6058   -1.5494    1.9307 C   0  0  0  0  0  0  0  0  0  0  0  0
    9.4488   -1.0068    3.3083 C   0  0  0  0  0  0  0  0  0  0  0  0
   10.4516   -0.5734    1.1343 C   0  0  0  0  0  0  0  0  0  0  0  0
    1.2549    3.0910   -0.5462 N   0  0  0  0  0  0  0  0  0  0  0  0
    4.0180    1.5766    0.4845 N   0  0  0  0  0  0  0  0  0  0  0  0
    4.0993   -0.6419   -0.2278 N   0  0  0  0  0  0  0  0  0  0  0  0
    7.4107   -0.8097    1.0328 N   0  0  0  0  0  0  0  0  0  0  0  0
    2.8248    1.7251   -3.4062 O   0  0  0  0  0  0  0  0  0  0  0  0
   -0.6711    0.8170   -3.6587 O   0  0  0  0  0  0  0  0  0  0  0  0
    0.0697   -3.2086   -1.6067 O   0  0  0  0  0  0  0  0  0  0  0  0
    1.8653   -1.6584    0.8119 O   0  0  0  0  0  0  0  0  0  0  0  0
   -0.4156   -2.4336    0.4285 O   0  0  0  0  0  0  0  0  0  0  0  0
   -4.4741   -4.0232    0.9042 O   0  0  0  0  0  0  0  0  0  0  0  0
   -6.6513   -2.2756    1.6005 O   0  0  0  0  0  0  0  0  0  0  0  0
   -8.8009   -2.4912    2.4325 O   0  0  0  0  0  0  0  0  0  0  0  0
   -4.5270    1.3405    2.1335 O   0  0  0  0  0  0  0  0  0  0  0  0
   -2.5437    1.2815   -1.2366 O   0  0  0  0  0  0  0  0  0  0  0  0
    0.7007    5.1437   -1.3896 O   0  0  0  0  0  0  0  0  0  0  0  0
    0.1632    1.5261   -0.8492 H   0  0  0  0  0  0  0  0  0  0  0  0
    2.3533    2.9902   -2.0741 H   0  0  0  0  0  0  0  0  0  0  0  0
    4.2710    1.9543   -1.5240 H   0  0  0  0  0  0  0  0  0  0  0  0
    3.7256   -0.0738   -2.5511 H   0  0  0  0  0  0  0  0  0  0  0  0
    3.2784   -2.4016   -1.7646 H   0  0  0  0  0  0  0  0  0  0  0  0
    1.7033   -3.5215   -3.0770 H   0  0  0  0  0  0  0  0  0  0  0  0
    0.3661   -1.8602   -4.4841 H   0  0  0  0  0  0  0  0  0  0  0  0
    2.2554    0.3376   -3.8988 H   0  0  0  0  0  0  0  0  0  0  0  0
    0.0666   -0.4626   -1.8942 H   0  0  0  0  0  0  0  0  0  0  0  0
    1.8053   -0.4929   -0.1924 H   0  0  0  0  0  0  0  0  0  0  0  0
    2.2367   -3.8394   -0.2755 H   0  0  0  0  0  0  0  0  0  0  0  0
   -0.0929   -4.9326    0.3891 H   0  0  0  0  0  0  0  0  0  0  0  0
    0.9189   -5.1737   -1.0375 H   0  0  0  0  0  0  0  0  0  0  0  0
   -0.8349   -5.0215   -1.3039 H   0  0  0  0  0  0  0  0  0  0  0  0
    3.0968   -2.7459   -4.3628 H   0  0  0  0  0  0  0  0  0  0  0  0
    2.1428   -2.2980   -5.7957 H   0  0  0  0  0  0  0  0  0  0  0  0
    3.0806   -1.0139   -4.9923 H   0  0  0  0  0  0  0  0  0  0  0  0
    2.8072    4.8361   -0.1875 H   0  0  0  0  0  0  0  0  0  0  0  0
    1.1210    6.1979    0.7341 H   0  0  0  0  0  0  0  0  0  0  0  0
   -0.6221    4.0414   -0.4267 H   0  0  0  0  0  0  0  0  0  0  0  0
   -0.9335    5.7839   -0.1465 H   0  0  0  0  0  0  0  0  0  0  0  0
   -1.0899    5.1119    2.3962 H   0  0  0  0  0  0  0  0  0  0  0  0
   -1.2789    3.4711    1.7701 H   0  0  0  0  0  0  0  0  0  0  0  0
   -3.4064    4.7391    2.1544 H   0  0  0  0  0  0  0  0  0  0  0  0
   -2.8899    5.9809    1.0031 H   0  0  0  0  0  0  0  0  0  0  0  0
   -2.6387    3.8028   -0.5601 H   0  0  0  0  0  0  0  0  0  0  0  0
   -4.5824    3.0487    1.7156 H   0  0  0  0  0  0  0  0  0  0  0  0
   -5.8928    2.6417   -0.1741 H   0  0  0  0  0  0  0  0  0  0  0  0
   -4.3304    0.3159    0.9177 H   0  0  0  0  0  0  0  0  0  0  0  0
   -7.3178    0.2164    0.7980 H   0  0  0  0  0  0  0  0  0  0  0  0
   -7.2848   -1.9263    0.1006 H   0  0  0  0  0  0  0  0  0  0  0  0
   -4.7787   -1.6147   -1.2160 H   0  0  0  0  0  0  0  0  0  0  0  0
   -4.5007   -2.9684    1.5053 H   0  0  0  0  0  0  0  0  0  0  0  0
   -2.8144   -1.4526    1.3602 H   0  0  0  0  0  0  0  0  0  0  0  0
   -2.8266   -1.4276   -0.4223 H   0  0  0  0  0  0  0  0  0  0  0  0
   -1.8965   -4.0321    0.1192 H   0  0  0  0  0  0  0  0  0  0  0  0
   -1.3921   -3.1866    1.5953 H   0  0  0  0  0  0  0  0  0  0  0  0
    0.9346    5.3059    2.8869 H   0  0  0  0  0  0  0  0  0  0  0  0
    2.3175    4.4517    2.1874 H   0  0  0  0  0  0  0  0  0  0  0  0
    0.7700    3.5902    2.3007 H   0  0  0  0  0  0  0  0  0  0  0  0
   -4.3061    4.8580   -1.6462 H   0  0  0  0  0  0  0  0  0  0  0  0
   -5.5297    4.6734   -0.2640 H   0  0  0  0  0  0  0  0  0  0  0  0
   -4.3615    6.0044   -0.2917 H   0  0  0  0  0  0  0  0  0  0  0  0
   -3.2252    2.0642   -1.4187 H   0  0  0  0  0  0  0  0  0  0  0  0
   -4.7325    2.3988   -2.2611 H   0  0  0  0  0  0  0  0  0  0  0  0
   -4.3217    0.7433   -1.7898 H   0  0  0  0  0  0  0  0  0  0  0  0
   -6.3500   -0.5059   -1.9440 H   0  0  0  0  0  0  0  0  0  0  0  0
   -6.7153    1.2680   -1.5403 H   0  0  0  0  0  0  0  0  0  0  0  0
   -7.9292    0.0008   -1.3538 H   0  0  0  0  0  0  0  0  0  0  0  0
   -6.3712   -4.0892   -0.4662 H   0  0  0  0  0  0  0  0  0  0  0  0
   -6.5950   -2.9007   -1.8559 H   0  0  0  0  0  0  0  0  0  0  0  0
   -5.0734   -3.8305   -1.7692 H   0  0  0  0  0  0  0  0  0  0  0  0
   -8.0610   -2.5082    1.4600 H   0  0  0  0  0  0  0  0  0  0  0  0
   -7.6125   -4.1355    3.6008 H   0  0  0  0  0  0  0  0  0  0  0  0
   -7.1786   -4.5861    1.8714 H   0  0  0  0  0  0  0  0  0  0  0  0
   -5.9534   -4.0020    3.0281 H   0  0  0  0  0  0  0  0  0  0  0  0
   -3.3484   -4.9187    1.8270 H   0  0  0  0  0  0  0  0  0  0  0  0
   -3.5656   -6.0673    0.4617 H   0  0  0  0  0  0  0  0  0  0  0  0
   -5.0379   -5.2797    1.1310 H   0  0  0  0  0  0  0  0  0  0  0  0
    5.2130   -1.3469    1.6741 H   0  0  0  0  0  0  0  0  0  0  0  0
    3.9391   -0.2147    2.2447 H   0  0  0  0  0  0  0  0  0  0  0  0
    6.2345    1.9197    0.2242 H   0  0  0  0  0  0  0  0  0  0  0  0
    6.2879    0.7866   -1.2286 H   0  0  0  0  0  0  0  0  0  0  0  0
    5.9668    0.2747    3.5241 H   0  0  0  0  0  0  0  0  0  0  0  0
    5.7939    1.6090    2.2964 H   0  0  0  0  0  0  0  0  0  0  0  0
    6.7856   -1.0565    0.3108 H   0  0  0  0  0  0  0  0  0  0  0  0
    8.0916    0.1154   -0.0715 H   0  0  0  0  0  0  0  0  0  0  0  0
    7.4988   -0.9347    3.6741 H   0  0  0  0  0  0  0  0  0  0  0  0
    7.1066   -1.8764    2.2400 H   0  0  0  0  0  0  0  0  0  0  0  0
    9.4211   -2.2392    3.0646 H   0  0  0  0  0  0  0  0  0  0  0  0
    9.6598    0.0235    3.9222 H   0  0  0  0  0  0  0  0  0  0  0  0
   10.0205    0.6259    2.2457 H   0  0  0  0  0  0  0  0  0  0  0  0
   11.0924   -0.5811    2.9993 H   0  0  0  0  0  0  0  0  0  0  0  0
    8.8253   -2.1532    0.4050 H   0  0  0  0  0  0  0  0  0  0  0  0
   10.4295   -2.5022    1.1321 H   0  0  0  0  0  0  0  0  0  0  0  0
   10.1250   -0.8309    0.5845 H   0  0  0  0  0  0  0  0  0  0  0  0
    2.5732    2.8545    0.6627 H   0  0  0  0  0  0  0  0  0  0  0  0
    2.9309    0.8535    0.8340 H   0  0  0  0  0  0  0  0  0  0  0  0
    5.1301   -1.0815   -1.2065 H   0  0  0  0  0  0  0  0  0  0  0  0
    0.9551    2.5616   -3.3245 H   0  0  0  0  0  0  0  0  0  0  0  0
   -0.0490   -0.1105   -4.9692 H   0  0  0  0  0  0  0  0  0  0  0  0
    2.0513   -2.7167    1.5187 H   0  0  0  0  0  0  0  0  0  0  0  0
   -8.7984   -1.9433    3.3358 H   0  0  0  0  0  0  0  0  0  0  0  0
   -6.6291    1.3413    2.0021 H   0  0  0  0  0  0  0  0  0  0  0  0
   -2.3476    1.8260    0.3931 H   0  0  0  0  0  0  0  0  0  0  0  0
    2.0217    5.1013   -2.1152 H   0  0  0  0  0  0  0  0  0  0  0  0
    1.0495    2.4749   -2.8455 H   0  0  0  0  0  0  0  0  0  0  0  0
    3.2018    3.1311   -1.4362 H   0  0  0  0  0  0  0  0  0  0  0  0
    2.0421    1.0294    0.3569 H   0  0  0  0  0  0  0  0  0  0  0  0
    4.1397    0.6290   -1.8228 H   0  0  0  0  0  0  0  0  0  0  0  0
    2.2238   -2.6568   -2.3366 H   0  0  0  0  0  0  0  0  0  0  0  0
   -0.1653   -1.2752   -1.1520 H   0  0  0  0  0  0  0  0  0  0  0  0
   -1.0635   -1.5066   -3.4496 H   0  0  0  0  0  0  0  0  0  0  0  0
    1.1308    0.1088   -4.2286 H   0  0  0  0  0  0  0  0  0  0  0  0
    0.5888    0.6081   -1.2455 H   0  0  0  0  0  0  0  0  0  0  0  0
    2.7189   -0.5975   -3.0284 H   0  0  0  0  0  0  0  0  0  0  0  0
    2.6271   -3.2337   -0.2029 H   0  0  0  0  0  0  0  0  0  0  0  0
    1.7411   -4.9592    0.1711 H   0  0  0  0  0  0  0  0  0  0  0  0
    0.0641   -5.3571   -0.2336 H   0  0  0  0  0  0  0  0  0  0  0  0
    0.4719   -4.6692    1.3663 H   0  0  0  0  0  0  0  0  0  0  0  0
   -0.0094   -2.5478   -5.1625 H   0  0  0  0  0  0  0  0  0  0  0  0
    1.0942   -3.2337   -3.9561 H   0  0  0  0  0  0  0  0  0  0  0  0
    1.5300   -1.7260   -4.8306 H   0  0  0  0  0  0  0  0  0  0  0  0
    2.4977    4.7349   -0.4161 H   0  0  0  0  0  0  0  0  0  0  0  0
    0.8649    4.0544    1.6645 H   0  0  0  0  0  0  0  0  0  0  0  0
   -0.8893    5.3859   -0.2535 H   0  0  0  0  0  0  0  0  0  0  0  0
   -0.7885    6.3056    1.2581 H   0  0  0  0  0  0  0  0  0  0  0  0
   -1.7133    4.7317    2.5816 H   0  0  0  0  0  0  0  0  0  0  0  0
   -1.1430    3.3184    1.6483 H   0  0  0  0  0  0  0  0  0  0  0  0
   -3.6424    3.8873    1.6183 H   0  0  0  0  0  0  0  0  0  0  0  0
   -3.1926    5.2920    0.6386 H   0  0  0  0  0  0  0  0  0  0  0  0
   -1.7451    3.5016   -0.7070 H   0  0  0  0  0  0  0  0  0  0  0  0
   -2.6241    1.6601    0.7422 H   0  0  0  0  0  0  0  0  0  0  0  0
   -5.0466    2.7344    0.1988 H   0  0  0  0  0  0  0  0  0  0  0  0
   -3.9661   -0.0640    0.8541 H   0  0  0  0  0  0  0  0  0  0  0  0
   -6.3606   -0.0285    2.1637 H   0  0  0  0  0  0  0  0  0  0  0  0
   -7.1086   -1.4096   -0.1266 H   0  0  0  0  0  0  0  0  0  0  0  0
   -4.5294   -1.2796   -0.7496 H   0  0  0  0  0  0  0  0  0  0  0  0
   -3.8964   -2.2771    1.7246 H   0  0  0  0  0  0  0  0  0  0  0  0
   -2.6456   -1.6183   -0.3983 H   0  0  0  0  0  0  0  0  0  0  0  0
   -2.9075   -3.3726   -0.9154 H   0  0  0  0  0  0  0  0  0  0  0  0
   -1.3716   -4.1973    0.6418 H   0  0  0  0  0  0  0  0  0  0  0  0
   -1.7866   -2.9263    1.8057 H   0  0  0  0  0  0  0  0  0  0  0  0
    1.4437    7.0099    1.1168 H   0  0  0  0  0  0  0  0  0  0  0  0
    2.7307    5.7815    1.2917 H   0  0  0  0  0  0  0  0  0  0  0  0
    1.5855    5.9868    2.6374 H   0  0  0  0  0  0  0  0  0  0  0  0
   -3.5745    3.6064   -2.4084 H   0  0  0  0  0  0  0  0  0  0  0  0
   -4.6643    4.3377   -1.0990 H   0  0  0  0  0  0  0  0  0  0  0  0
   -3.1610    5.1282   -1.6009 H   0  0  0  0  0  0  0  0  0  0  0  0
   -4.2613    1.3150   -2.2179 H   0  0  0  0  0  0  0  0  0  0  0  0
   -5.6831    2.3283   -1.9286 H   0  0  0  0  0  0  0  0  0  0  0  0
   -5.7568    0.5839   -1.6287 H   0  0  0  0  0  0  0  0  0  0  0  0
   -7.7657    0.3595   -0.3469 H   0  0  0  0  0  0  0  0  0  0  0  0
   -6.8829    1.8947    0.1658 H   0  0  0  0  0  0  0  0  0  0  0  0
   -8.0464    1.1008    1.2275 H   0  0  0  0  0  0  0  0  0  0  0  0
   -5.3468   -4.0780   -0.7999 H   0  0  0  0  0  0  0  0  0  0  0  0
   -6.6877   -2.8799   -1.2438 H   0  0  0  0  0  0  0  0  0  0  0  0
   -5.1608   -2.8874   -2.1325 H   0  0  0  0  0  0  0  0  0  0  0  0
   -8.3233   -2.4938    0.4952 H   0  0  0  0  0  0  0  0  0  0  0  0
   -8.8589   -4.7779    1.2361 H   0  0  0  0  0  0  0  0  0  0  0  0
   -7.1392   -4.7221    0.6522 H   0  0  0  0  0  0  0  0  0  0  0  0
   -7.4694   -4.6894    2.4144 H   0  0  0  0  0  0  0  0  0  0  0  0
   -4.8248   -5.5504    2.1457 H   0  0  0  0  0  0  0  0  0  0  0  0
   -3.3880   -4.5914    2.4803 H   0  0  0  0  0  0  0  0  0  0  0  0
   -5.0523   -3.9481    2.9226 H   0  0  0  0  0  0  0  0  0  0  0  0
    4.7894   -1.0710    2.0671 H   0  0  0  0  0  0  0  0  0  0  0  0
    4.8489    0.6629    2.5930 H   0  0  0  0  0  0  0  0  0  0  0  0
    6.6506    1.5145    0.3589 H   0  0  0  0  0  0  0  0  0  0  0  0
    6.0322    1.1204   -1.2523 H   0  0  0  0  0  0  0  0  0  0  0  0
    6.8384   -0.7321    3.0224 H   0  0  0  0  0  0  0  0  0  0  0  0
    7.1555    0.8364    2.2325 H   0  0  0  0  0  0  0  0  0  0  0  0
    8.0199   -0.0493   -0.8029 H   0  0  0  0  0  0  0  0  0  0  0  0
    6.7391   -1.2614   -0.9526 H   0  0  0  0  0  0  0  0  0  0  0  0
    7.8362   -2.7754    1.7123 H   0  0  0  0  0  0  0  0  0  0  0  0
    8.6071   -2.2537    0.2177 H   0  0  0  0  0  0  0  0  0  0  0  0
   10.2471   -2.4725    2.0267 H   0  0  0  0  0  0  0  0  0  0  0  0
    8.7920   -1.6840    3.9175 H   0  0  0  0  0  0  0  0  0  0  0  0
    9.0779    0.0194    3.3273 H   0  0  0  0  0  0  0  0  0  0  0  0
   10.4356   -1.0326    3.8751 H   0  0  0  0  0  0  0  0  0  0  0  0
   10.5722   -0.8554    0.0893 H   0  0  0  0  0  0  0  0  0  0  0  0
   11.4714   -0.6050    1.5983 H   0  0  0  0  0  0  0  0  0  0  0  0
   10.0753    0.4587    1.2394 H   0  0  0  0  0  0  0  0  0  0  0  0
    1.0838    2.6520    0.3733 H   0  0  0  0  0  0  0  0  0  0  0  0
    3.7987    1.7759    1.4873 H   0  0  0  0  0  0  0  0  0  0  0  0
    4.7221   -1.3234   -0.6765 H   0  0  0  0  0  0  0  0  0  0  0  0
    3.4756    2.4618   -3.2621 H   0  0  0  0  0  0  0  0  0  0  0  0
   -0.8892    0.6900   -4.6198 H   0  0  0  0  0  0  0  0  0  0  0  0
    2.2149   -2.1885    1.5763 H   0  0  0  0  0  0  0  0  0  0  0  0
   -9.7384   -2.5357    2.0781 H   0  0  0  0  0  0  0  0  0  0  0  0
   -5.3175    1.8865    2.3873 H   0  0  0  0  0  0  0  0  0  0  0  0
   -1.8470    0.6615   -0.9306 H   0  0  0  0  0  0  0  0  0  0  0  0
    1.0393    4.8373   -2.2770 H   0  0  0  0  0  0  0  0  0  0  0  0
  1  2  1  0
  2  3  1  0
  3  4  1  0
  5  6  1  0
  6  7  1  0
  7  8  1  0
  1  9  1  0
  8  9  1  0
  4 10  1  0
  5 10  1  0
  9 10  1  0
  5 11  1  0
 11 12  1  0
 12 13  1  6
  7 14  1  0
 15 16  1  0
 16 17  1  0
 17 18  1  0
 18 19  1  0
 19 20  1  0
 20 21  1  0
 21 22  1  0
 22 23  1  0
 23 24  1  0
 24 25  1  0
 25 26  1  0
 26 27  1  0
 27 28  1  0
 28 29  1  0
 16 30  1  0
 20 31  1  0
 22 32  1  0
 24 33  1  0
 26 34  1  0
 35 36  1  0
 38 39  1  0
 38 40  1  0
 39 41  1  0
 40 42  1  0
 43 44  1  0
 44 45  1  0
 44 46  1  0
  2 47  1  0
 15 47  1  0
  3 48  1  0
 38 48  1  0
  4 49  1  0
 38 49  1  0
 41 50  1  0
 42 50  1  0
 43 50  1  0
  1 51  1  0
  8 52  1  0
  6 53  1  0
 12 53  1  0
 11 54  1  0
 12 55  1  0
 29 55  1  0
 27 56  1  0
 37 56  1  0
 25 57  1  0
 35 57  1  0
 35 58  1  0
 23 59  1  0
 21 60  1  0
 15 61  1  0
 62 63  1  0
 63 64  1  0
 64 65  1  0
 66 67  1  0
 67 68  1  0
 68 69  1  0
 62 70  1  0
 69 70  1  0
 65 71  1  0
 66 71  1  0
 70 71  1  0
 66 72  1  0
 72 73  1  0
 73 74  1  1
 68 75  1  0
 76 77  1  0
 77 78  1  0
 78 79  1  0
 79 80  1  0
 80 81  1  0
 81 82  1  0
 82 83  1  0
 83 84  1  0
 84 85  1  0
 85 86  1  0
 86 87  1  0
 87 88  1  0
 88 89  1  0
 89 90  1  0
 77 91  1  0
 81 92  1  0
 83 93  1  0
 85 94  1  0
 87 95  1  0
 96 97  1  0
 99100  1  0
 99101  1  0
100102  1  0
101103  1  0
104105  1  0
105106  1  0
105107  1  0
 63108  1  0
 76108  1  0
 64109  1  0
 99109  1  0
 65110  1  0
 99110  1  0
102111  1  0
103111  1  0
104111  1  0
 62112  1  0
 69113  1  0
 67114  1  0
 73114  1  0
 72115  1  0
 73116  1  0
 90116  1  0
 88117  1  0
 98117  1  0
 86118  1  0
 96118  1  0
 96119  1  0
 84120  1  0
 82121  1  0
 76122  1  0
  1123  1  0
  2124  1  0
  3125  1  0
  4126  1  6
  5127  1  0
  6128  1  0
  7129  1  0
  8130  1  0
  9131  1  0
 10132  1  0
 11133  1  1
 13134  1  0
 13135  1  0
 13136  1  0
 14137  1  0
 14138  1  0
 14139  1  0
 15140  1  0
 16141  1  0
 17142  1  0
 17143  1  0
 18144  1  0
 18145  1  0
 19146  1  0
 19147  1  0
 20148  1  6
 21149  1  1
 22150  1  6
 23151  1  1
 24152  1  1
 25153  1  6
 26154  1  6
 27155  1  1
 28156  1  0
 28157  1  0
 29158  1  0
 29159  1  0
 30160  1  0
 30161  1  0
 30162  1  0
 31163  1  0
 31164  1  0
 31165  1  0
 32166  1  0
 32167  1  0
 32168  1  0
 33169  1  0
 33170  1  0
 33171  1  0
 34172  1  0
 34173  1  0
 34174  1  0
 35175  1  0
 36176  1  0
 36177  1  0
 36178  1  0
 37179  1  0
 37180  1  0
 37181  1  0
 39182  1  0
 39183  1  0
 40184  1  0
 40185  1  0
 41186  1  0
 41187  1  0
 42188  1  0
 42189  1  0
 43190  1  0
 43191  1  0
 44192  1  0
 45193  1  0
 45194  1  0
 45195  1  0
 46196  1  0
 46197  1  0
 46198  1  0
 47199  1  0
 48200  1  0
 49201  1  0
 51202  1  0
 52203  1  0
 54204  1  0
 58205  1  0
 59206  1  0
 60207  1  0
 61208  1  0
 62209  1  0
 63210  1  0
 64211  1  1
 65212  1  6
 66213  1  0
 67214  1  0
 68215  1  0
 69216  1  0
 70217  1  0
 71218  1  6
 72219  1  0
 74220  1  0
 74221  1  0
 74222  1  0
 75223  1  0
 75224  1  0
 75225  1  0
 76226  1  0
 77227  1  0
 78228  1  0
 78229  1  0
 79230  1  0
 79231  1  0
 80232  1  0
 80233  1  0
 81234  1  6
 82235  1  1
 83236  1  1
 84237  1  6
 85238  1  1
 86239  1  6
 87240  1  6
 88241  1  1
 89242  1  0
 89243  1  0
 90244  1  0
 90245  1  0
 91246  1  0
 91247  1  0
 91248  1  0
 92249  1  0
 92250  1  0
 92251  1  0
 93252  1  0
 93253  1  0
 93254  1  0
 94255  1  0
 94256  1  0
 94257  1  0
 95258  1  0
 95259  1  0
 95260  1  0
 96261  1  0
 97262  1  0
 97263  1  0
 97264  1  0
 98265  1  0
 98266  1  0
 98267  1  0
100268  1  0
100269  1  0
101270  1  0
101271  1  0
102272  1  0
102273  1  0
103274  1  0
103275  1  0
104276  1  0
104277  1  0
105278  1  0
106279  1  0
106280  1  0
106281  1  0
107282  1  0
107283  1  0
107284  1  0
108285  1  0
109286  1  0
110287  1  0
112288  1  0
113289  1  0
115290  1  0
119291  1  0
120292  1  0
121293  1  0
122294  1  0
M  END
>  <PDBID>  (1) 
2A68

>  <PDB ID>  (1) 
2A68

>  <Generic Name>  (1) 
Rifabutin

>  <Brand Name>  (1) 
Mycobutin#Rifabutin#Ansatipin#Ansatipine#Ributin

>  <DrugBank ID>  (1) 
DB00615

>  <ATC Codes>  (1) 
J04AB04

>  <Ligand ID>  (1) 
RBT

>  <Target Name>  (1) 
DNA-directed RNA polymerase subunit beta

>  <UniProt ID>  (1) 
P0A8V2

>  <PDB ID.1>  (1) 
2A68

>  <Seq. Identity>  (1) 
51%

$$$$
