PDB_DB00741_06
     RDKit          3D

372390  0  0  0  0  0  0  0  0999 V2000
   -2.7496    1.7930    0.3210 C   0  0  0  0  0  0  0  0  0  0  0  0
   -4.0047    2.0159   -0.4821 C   0  0  0  0  0  0  0  0  0  0  0  0
   -5.0679    0.9845   -0.1825 C   0  0  0  0  0  0  0  0  0  0  0  0
   -4.5311   -0.3687   -0.5545 C   0  0  0  0  0  0  0  0  0  0  0  0
   -3.0472   -0.4154   -0.7010 C   0  0  2  0  0  0  0  0  0  0  0  0
   -2.6027   -1.8638   -0.6758 C   0  0  0  0  0  0  0  0  0  0  0  0
   -1.1362   -1.9346   -0.9350 C   0  0  0  0  0  0  0  0  0  0  0  0
   -0.3098   -1.1339    0.0496 C   0  0  2  0  0  0  0  0  0  0  0  0
   -0.8431    0.3056    0.0336 C   0  0  1  0  0  0  0  0  0  0  0  0
   -2.3073    0.3648    0.3561 C   0  0  1  0  0  0  0  0  0  0  0  0
    1.4164    1.2112    0.3311 C   0  0  0  0  0  0  0  0  0  0  0  0
    0.0156    1.0942    0.9569 C   0  0  2  0  0  0  0  0  0  0  0  0
    2.0202   -0.1361    0.2787 C   0  0  1  0  0  0  0  0  0  0  0  0
    1.0638   -1.0708   -0.4728 C   0  0  1  0  0  0  0  0  0  0  0  0
    1.8478   -2.3512   -0.3652 C   0  0  0  0  0  0  0  0  0  0  0  0
    3.2390   -1.8783   -0.6957 C   0  0  0  0  0  0  0  0  0  0  0  0
    3.1955   -0.3240   -0.6201 C   0  0  2  0  0  0  0  0  0  0  0  0
    2.3474   -0.7024    1.6413 C   0  0  0  0  0  0  0  0  0  0  0  0
   -2.6604   -0.2127    1.6922 C   0  0  0  0  0  0  0  0  0  0  0  0
    4.5111    0.1932   -0.1796 C   0  0  0  0  0  0  0  0  0  0  0  0
    4.6133    1.6752   -0.5400 C   0  0  0  0  0  0  0  0  0  0  0  0
   -6.1614    1.2892   -1.0155 O   0  0  0  0  0  0  0  0  0  0  0  0
    0.1123    0.5571    2.2389 O   0  0  0  0  0  0  0  0  0  0  0  0
    2.9546    0.0527   -1.9410 O   0  0  0  0  0  0  0  0  0  0  0  0
    5.4809   -0.4573   -1.0160 O   0  0  0  0  0  0  0  0  0  0  0  0
    5.9325    2.1287   -0.3080 O   0  0  0  0  0  0  0  0  0  0  0  0
   -2.7496    1.7930    0.3210 C   0  0  0  0  0  0  0  0  0  0  0  0
   -4.0047    2.0159   -0.4821 C   0  0  0  0  0  0  0  0  0  0  0  0
   -5.0679    0.9845   -0.1825 C   0  0  0  0  0  0  0  0  0  0  0  0
   -4.5311   -0.3687   -0.5545 C   0  0  0  0  0  0  0  0  0  0  0  0
   -3.0472   -0.4154   -0.7010 C   0  0  2  0  0  0  0  0  0  0  0  0
   -2.6027   -1.8638   -0.6758 C   0  0  0  0  0  0  0  0  0  0  0  0
   -1.1362   -1.9346   -0.9350 C   0  0  0  0  0  0  0  0  0  0  0  0
   -0.3098   -1.1339    0.0496 C   0  0  2  0  0  0  0  0  0  0  0  0
   -0.8431    0.3056    0.0336 C   0  0  1  0  0  0  0  0  0  0  0  0
   -2.3073    0.3648    0.3561 C   0  0  1  0  0  0  0  0  0  0  0  0
    1.4164    1.2112    0.3311 C   0  0  0  0  0  0  0  0  0  0  0  0
    0.0156    1.0942    0.9569 C   0  0  2  0  0  0  0  0  0  0  0  0
    2.0202   -0.1361    0.2787 C   0  0  1  0  0  0  0  0  0  0  0  0
    1.0638   -1.0708   -0.4728 C   0  0  1  0  0  0  0  0  0  0  0  0
    1.8478   -2.3512   -0.3652 C   0  0  0  0  0  0  0  0  0  0  0  0
    3.2390   -1.8783   -0.6957 C   0  0  0  0  0  0  0  0  0  0  0  0
    3.1955   -0.3240   -0.6201 C   0  0  2  0  0  0  0  0  0  0  0  0
    2.3474   -0.7024    1.6413 C   0  0  0  0  0  0  0  0  0  0  0  0
   -2.6604   -0.2127    1.6922 C   0  0  0  0  0  0  0  0  0  0  0  0
    4.5111    0.1932   -0.1796 C   0  0  0  0  0  0  0  0  0  0  0  0
    4.6133    1.6752   -0.5400 C   0  0  0  0  0  0  0  0  0  0  0  0
   -6.1614    1.2892   -1.0155 O   0  0  0  0  0  0  0  0  0  0  0  0
    0.1123    0.5571    2.2389 O   0  0  0  0  0  0  0  0  0  0  0  0
    2.9546    0.0527   -1.9410 O   0  0  0  0  0  0  0  0  0  0  0  0
    5.4809   -0.4573   -1.0160 O   0  0  0  0  0  0  0  0  0  0  0  0
    5.9325    2.1287   -0.3080 O   0  0  0  0  0  0  0  0  0  0  0  0
   -2.7496    1.7930    0.3210 C   0  0  0  0  0  0  0  0  0  0  0  0
   -4.0047    2.0159   -0.4821 C   0  0  0  0  0  0  0  0  0  0  0  0
   -5.0679    0.9845   -0.1825 C   0  0  0  0  0  0  0  0  0  0  0  0
   -4.5311   -0.3687   -0.5545 C   0  0  0  0  0  0  0  0  0  0  0  0
   -3.0472   -0.4154   -0.7010 C   0  0  2  0  0  0  0  0  0  0  0  0
   -2.6027   -1.8638   -0.6758 C   0  0  0  0  0  0  0  0  0  0  0  0
   -1.1362   -1.9346   -0.9350 C   0  0  0  0  0  0  0  0  0  0  0  0
   -0.3098   -1.1339    0.0496 C   0  0  2  0  0  0  0  0  0  0  0  0
   -0.8431    0.3056    0.0336 C   0  0  1  0  0  0  0  0  0  0  0  0
   -2.3073    0.3648    0.3561 C   0  0  1  0  0  0  0  0  0  0  0  0
    1.4164    1.2112    0.3311 C   0  0  0  0  0  0  0  0  0  0  0  0
    0.0156    1.0942    0.9569 C   0  0  2  0  0  0  0  0  0  0  0  0
    2.0202   -0.1361    0.2787 C   0  0  1  0  0  0  0  0  0  0  0  0
    1.0638   -1.0708   -0.4728 C   0  0  1  0  0  0  0  0  0  0  0  0
    1.8478   -2.3512   -0.3652 C   0  0  0  0  0  0  0  0  0  0  0  0
    3.2390   -1.8783   -0.6957 C   0  0  0  0  0  0  0  0  0  0  0  0
    3.1955   -0.3240   -0.6201 C   0  0  2  0  0  0  0  0  0  0  0  0
    2.3474   -0.7024    1.6413 C   0  0  0  0  0  0  0  0  0  0  0  0
   -2.6604   -0.2127    1.6922 C   0  0  0  0  0  0  0  0  0  0  0  0
    4.5111    0.1932   -0.1796 C   0  0  0  0  0  0  0  0  0  0  0  0
    4.6133    1.6752   -0.5400 C   0  0  0  0  0  0  0  0  0  0  0  0
   -6.1614    1.2892   -1.0155 O   0  0  0  0  0  0  0  0  0  0  0  0
    0.1123    0.5571    2.2389 O   0  0  0  0  0  0  0  0  0  0  0  0
    2.9546    0.0527   -1.9410 O   0  0  0  0  0  0  0  0  0  0  0  0
    5.4809   -0.4573   -1.0160 O   0  0  0  0  0  0  0  0  0  0  0  0
    5.9325    2.1287   -0.3080 O   0  0  0  0  0  0  0  0  0  0  0  0
   -2.7496    1.7930    0.3210 C   0  0  0  0  0  0  0  0  0  0  0  0
   -4.0047    2.0159   -0.4821 C   0  0  0  0  0  0  0  0  0  0  0  0
   -5.0679    0.9845   -0.1825 C   0  0  0  0  0  0  0  0  0  0  0  0
   -4.5311   -0.3687   -0.5545 C   0  0  0  0  0  0  0  0  0  0  0  0
   -3.0472   -0.4154   -0.7010 C   0  0  2  0  0  0  0  0  0  0  0  0
   -2.6027   -1.8638   -0.6758 C   0  0  0  0  0  0  0  0  0  0  0  0
   -1.1362   -1.9346   -0.9350 C   0  0  0  0  0  0  0  0  0  0  0  0
   -0.3098   -1.1339    0.0496 C   0  0  2  0  0  0  0  0  0  0  0  0
   -0.8431    0.3056    0.0336 C   0  0  1  0  0  0  0  0  0  0  0  0
   -2.3073    0.3648    0.3561 C   0  0  1  0  0  0  0  0  0  0  0  0
    1.4164    1.2112    0.3311 C   0  0  0  0  0  0  0  0  0  0  0  0
    0.0156    1.0942    0.9569 C   0  0  2  0  0  0  0  0  0  0  0  0
    2.0202   -0.1361    0.2787 C   0  0  1  0  0  0  0  0  0  0  0  0
    1.0638   -1.0708   -0.4728 C   0  0  1  0  0  0  0  0  0  0  0  0
    1.8478   -2.3512   -0.3652 C   0  0  0  0  0  0  0  0  0  0  0  0
    3.2390   -1.8783   -0.6957 C   0  0  0  0  0  0  0  0  0  0  0  0
    3.1955   -0.3240   -0.6201 C   0  0  2  0  0  0  0  0  0  0  0  0
    2.3474   -0.7024    1.6413 C   0  0  0  0  0  0  0  0  0  0  0  0
   -2.6604   -0.2127    1.6922 C   0  0  0  0  0  0  0  0  0  0  0  0
    4.5111    0.1932   -0.1796 C   0  0  0  0  0  0  0  0  0  0  0  0
    4.6133    1.6752   -0.5400 C   0  0  0  0  0  0  0  0  0  0  0  0
   -6.1614    1.2892   -1.0155 O   0  0  0  0  0  0  0  0  0  0  0  0
    0.1123    0.5571    2.2389 O   0  0  0  0  0  0  0  0  0  0  0  0
    2.9546    0.0527   -1.9410 O   0  0  0  0  0  0  0  0  0  0  0  0
    5.4809   -0.4573   -1.0160 O   0  0  0  0  0  0  0  0  0  0  0  0
    5.9325    2.1287   -0.3080 O   0  0  0  0  0  0  0  0  0  0  0  0
   -2.7496    1.7930    0.3210 C   0  0  0  0  0  0  0  0  0  0  0  0
   -4.0047    2.0159   -0.4821 C   0  0  0  0  0  0  0  0  0  0  0  0
   -5.0679    0.9845   -0.1825 C   0  0  0  0  0  0  0  0  0  0  0  0
   -4.5311   -0.3687   -0.5545 C   0  0  0  0  0  0  0  0  0  0  0  0
   -3.0472   -0.4154   -0.7010 C   0  0  2  0  0  0  0  0  0  0  0  0
   -2.6027   -1.8638   -0.6758 C   0  0  0  0  0  0  0  0  0  0  0  0
   -1.1362   -1.9346   -0.9350 C   0  0  0  0  0  0  0  0  0  0  0  0
   -0.3098   -1.1339    0.0496 C   0  0  2  0  0  0  0  0  0  0  0  0
   -0.8431    0.3056    0.0336 C   0  0  1  0  0  0  0  0  0  0  0  0
   -2.3073    0.3648    0.3561 C   0  0  1  0  0  0  0  0  0  0  0  0
    1.4164    1.2112    0.3311 C   0  0  0  0  0  0  0  0  0  0  0  0
    0.0156    1.0942    0.9569 C   0  0  2  0  0  0  0  0  0  0  0  0
    2.0202   -0.1361    0.2787 C   0  0  1  0  0  0  0  0  0  0  0  0
    1.0638   -1.0708   -0.4728 C   0  0  1  0  0  0  0  0  0  0  0  0
    1.8478   -2.3512   -0.3652 C   0  0  0  0  0  0  0  0  0  0  0  0
    3.2390   -1.8783   -0.6957 C   0  0  0  0  0  0  0  0  0  0  0  0
    3.1955   -0.3240   -0.6201 C   0  0  2  0  0  0  0  0  0  0  0  0
    2.3474   -0.7024    1.6413 C   0  0  0  0  0  0  0  0  0  0  0  0
   -2.6604   -0.2127    1.6922 C   0  0  0  0  0  0  0  0  0  0  0  0
    4.5111    0.1932   -0.1796 C   0  0  0  0  0  0  0  0  0  0  0  0
    4.6133    1.6752   -0.5400 C   0  0  0  0  0  0  0  0  0  0  0  0
   -6.1614    1.2892   -1.0155 O   0  0  0  0  0  0  0  0  0  0  0  0
    0.1123    0.5571    2.2389 O   0  0  0  0  0  0  0  0  0  0  0  0
    2.9546    0.0527   -1.9410 O   0  0  0  0  0  0  0  0  0  0  0  0
    5.4809   -0.4573   -1.0160 O   0  0  0  0  0  0  0  0  0  0  0  0
    5.9325    2.1287   -0.3080 O   0  0  0  0  0  0  0  0  0  0  0  0
   -2.7496    1.7930    0.3210 C   0  0  0  0  0  0  0  0  0  0  0  0
   -4.0047    2.0159   -0.4821 C   0  0  0  0  0  0  0  0  0  0  0  0
   -5.0679    0.9845   -0.1825 C   0  0  0  0  0  0  0  0  0  0  0  0
   -4.5311   -0.3687   -0.5545 C   0  0  0  0  0  0  0  0  0  0  0  0
   -3.0472   -0.4154   -0.7010 C   0  0  2  0  0  0  0  0  0  0  0  0
   -2.6027   -1.8638   -0.6758 C   0  0  0  0  0  0  0  0  0  0  0  0
   -1.1362   -1.9346   -0.9350 C   0  0  0  0  0  0  0  0  0  0  0  0
   -0.3098   -1.1339    0.0496 C   0  0  2  0  0  0  0  0  0  0  0  0
   -0.8431    0.3056    0.0336 C   0  0  1  0  0  0  0  0  0  0  0  0
   -2.3073    0.3648    0.3561 C   0  0  1  0  0  0  0  0  0  0  0  0
    1.4164    1.2112    0.3311 C   0  0  0  0  0  0  0  0  0  0  0  0
    0.0156    1.0942    0.9569 C   0  0  2  0  0  0  0  0  0  0  0  0
    2.0202   -0.1361    0.2787 C   0  0  1  0  0  0  0  0  0  0  0  0
    1.0638   -1.0708   -0.4728 C   0  0  1  0  0  0  0  0  0  0  0  0
    1.8478   -2.3512   -0.3652 C   0  0  0  0  0  0  0  0  0  0  0  0
    3.2390   -1.8783   -0.6957 C   0  0  0  0  0  0  0  0  0  0  0  0
    3.1955   -0.3240   -0.6201 C   0  0  2  0  0  0  0  0  0  0  0  0
    2.3474   -0.7024    1.6413 C   0  0  0  0  0  0  0  0  0  0  0  0
   -2.6604   -0.2127    1.6922 C   0  0  0  0  0  0  0  0  0  0  0  0
    4.5111    0.1932   -0.1796 C   0  0  0  0  0  0  0  0  0  0  0  0
    4.6133    1.6752   -0.5400 C   0  0  0  0  0  0  0  0  0  0  0  0
   -6.1614    1.2892   -1.0155 O   0  0  0  0  0  0  0  0  0  0  0  0
    0.1123    0.5571    2.2389 O   0  0  0  0  0  0  0  0  0  0  0  0
    2.9546    0.0527   -1.9410 O   0  0  0  0  0  0  0  0  0  0  0  0
    5.4809   -0.4573   -1.0160 O   0  0  0  0  0  0  0  0  0  0  0  0
    5.9325    2.1287   -0.3080 O   0  0  0  0  0  0  0  0  0  0  0  0
   -2.9656    2.1658    1.3626 H   0  0  0  0  0  0  0  0  0  0  0  0
   -1.9817    2.4883   -0.0849 H   0  0  0  0  0  0  0  0  0  0  0  0
   -4.4160    3.0125   -0.1671 H   0  0  0  0  0  0  0  0  0  0  0  0
   -3.7843    2.0071   -1.5489 H   0  0  0  0  0  0  0  0  0  0  0  0
   -5.4244    1.0467    0.8600 H   0  0  0  0  0  0  0  0  0  0  0  0
   -4.9689   -0.6832   -1.5462 H   0  0  0  0  0  0  0  0  0  0  0  0
   -4.9280   -1.1243    0.1707 H   0  0  0  0  0  0  0  0  0  0  0  0
   -2.7499   -0.0077   -1.6913 H   0  0  0  0  0  0  0  0  0  0  0  0
   -3.1180   -2.3628   -1.5221 H   0  0  0  0  0  0  0  0  0  0  0  0
   -2.8229   -2.3617    0.2761 H   0  0  0  0  0  0  0  0  0  0  0  0
   -0.7804   -2.9654   -1.0327 H   0  0  0  0  0  0  0  0  0  0  0  0
   -0.9508   -1.4535   -1.9399 H   0  0  0  0  0  0  0  0  0  0  0  0
   -0.4036   -1.5860    1.0578 H   0  0  0  0  0  0  0  0  0  0  0  0
   -0.7022    0.6723   -0.9874 H   0  0  0  0  0  0  0  0  0  0  0  0
    1.9290    1.9108    1.0365 H   0  0  0  0  0  0  0  0  0  0  0  0
    1.2967    1.6057   -0.6862 H   0  0  0  0  0  0  0  0  0  0  0  0
   -0.3238    2.1425    1.0856 H   0  0  0  0  0  0  0  0  0  0  0  0
    1.0515   -0.7743   -1.5280 H   0  0  0  0  0  0  0  0  0  0  0  0
    1.8605   -2.7243    0.6781 H   0  0  0  0  0  0  0  0  0  0  0  0
    1.4777   -3.1184   -1.0737 H   0  0  0  0  0  0  0  0  0  0  0  0
    3.5021   -2.2124   -1.7156 H   0  0  0  0  0  0  0  0  0  0  0  0
    4.0163   -2.2083   -0.0081 H   0  0  0  0  0  0  0  0  0  0  0  0
    3.2573   -1.3274    1.6515 H   0  0  0  0  0  0  0  0  0  0  0  0
    2.6013    0.1884    2.2869 H   0  0  0  0  0  0  0  0  0  0  0  0
    1.5277   -1.2946    2.0856 H   0  0  0  0  0  0  0  0  0  0  0  0
   -3.0590    0.5769    2.3922 H   0  0  0  0  0  0  0  0  0  0  0  0
   -3.4984   -0.9653    1.6192 H   0  0  0  0  0  0  0  0  0  0  0  0
   -1.8453   -0.7189    2.2101 H   0  0  0  0  0  0  0  0  0  0  0  0
    4.7981   -0.0175    0.8381 H   0  0  0  0  0  0  0  0  0  0  0  0
    4.0053    2.2443    0.1757 H   0  0  0  0  0  0  0  0  0  0  0  0
    4.4073    1.8416   -1.5992 H   0  0  0  0  0  0  0  0  0  0  0  0
   -5.7914    1.2499   -1.9432 H   0  0  0  0  0  0  0  0  0  0  0  0
   -0.0520    1.2246    2.9523 H   0  0  0  0  0  0  0  0  0  0  0  0
    3.3843   -0.5633   -2.5799 H   0  0  0  0  0  0  0  0  0  0  0  0
    6.1819    0.1795   -1.2783 H   0  0  0  0  0  0  0  0  0  0  0  0
    5.9408    3.0965   -0.1084 H   0  0  0  0  0  0  0  0  0  0  0  0
   -2.9656    2.1658    1.3626 H   0  0  0  0  0  0  0  0  0  0  0  0
   -1.9817    2.4883   -0.0849 H   0  0  0  0  0  0  0  0  0  0  0  0
   -4.4160    3.0125   -0.1671 H   0  0  0  0  0  0  0  0  0  0  0  0
   -3.7843    2.0071   -1.5489 H   0  0  0  0  0  0  0  0  0  0  0  0
   -5.4244    1.0467    0.8600 H   0  0  0  0  0  0  0  0  0  0  0  0
   -4.9689   -0.6832   -1.5462 H   0  0  0  0  0  0  0  0  0  0  0  0
   -4.9280   -1.1243    0.1707 H   0  0  0  0  0  0  0  0  0  0  0  0
   -2.7499   -0.0077   -1.6913 H   0  0  0  0  0  0  0  0  0  0  0  0
   -3.1180   -2.3628   -1.5221 H   0  0  0  0  0  0  0  0  0  0  0  0
   -2.8229   -2.3617    0.2761 H   0  0  0  0  0  0  0  0  0  0  0  0
   -0.7804   -2.9654   -1.0327 H   0  0  0  0  0  0  0  0  0  0  0  0
   -0.9508   -1.4535   -1.9399 H   0  0  0  0  0  0  0  0  0  0  0  0
   -0.4036   -1.5860    1.0578 H   0  0  0  0  0  0  0  0  0  0  0  0
   -0.7022    0.6723   -0.9874 H   0  0  0  0  0  0  0  0  0  0  0  0
    1.9290    1.9108    1.0365 H   0  0  0  0  0  0  0  0  0  0  0  0
    1.2967    1.6057   -0.6862 H   0  0  0  0  0  0  0  0  0  0  0  0
   -0.3238    2.1425    1.0856 H   0  0  0  0  0  0  0  0  0  0  0  0
    1.0515   -0.7743   -1.5280 H   0  0  0  0  0  0  0  0  0  0  0  0
    1.8605   -2.7243    0.6781 H   0  0  0  0  0  0  0  0  0  0  0  0
    1.4777   -3.1184   -1.0737 H   0  0  0  0  0  0  0  0  0  0  0  0
    3.5021   -2.2124   -1.7156 H   0  0  0  0  0  0  0  0  0  0  0  0
    4.0163   -2.2083   -0.0081 H   0  0  0  0  0  0  0  0  0  0  0  0
    3.2573   -1.3274    1.6515 H   0  0  0  0  0  0  0  0  0  0  0  0
    2.6013    0.1884    2.2869 H   0  0  0  0  0  0  0  0  0  0  0  0
    1.5277   -1.2946    2.0856 H   0  0  0  0  0  0  0  0  0  0  0  0
   -3.0590    0.5769    2.3922 H   0  0  0  0  0  0  0  0  0  0  0  0
   -3.4984   -0.9653    1.6192 H   0  0  0  0  0  0  0  0  0  0  0  0
   -1.8453   -0.7189    2.2101 H   0  0  0  0  0  0  0  0  0  0  0  0
    4.7981   -0.0175    0.8381 H   0  0  0  0  0  0  0  0  0  0  0  0
    4.0053    2.2443    0.1757 H   0  0  0  0  0  0  0  0  0  0  0  0
    4.4073    1.8416   -1.5992 H   0  0  0  0  0  0  0  0  0  0  0  0
   -5.7914    1.2499   -1.9432 H   0  0  0  0  0  0  0  0  0  0  0  0
   -0.0520    1.2246    2.9523 H   0  0  0  0  0  0  0  0  0  0  0  0
    3.3843   -0.5633   -2.5799 H   0  0  0  0  0  0  0  0  0  0  0  0
    6.1819    0.1795   -1.2783 H   0  0  0  0  0  0  0  0  0  0  0  0
    5.9408    3.0965   -0.1084 H   0  0  0  0  0  0  0  0  0  0  0  0
   -2.9656    2.1658    1.3626 H   0  0  0  0  0  0  0  0  0  0  0  0
   -1.9817    2.4883   -0.0849 H   0  0  0  0  0  0  0  0  0  0  0  0
   -4.4160    3.0125   -0.1671 H   0  0  0  0  0  0  0  0  0  0  0  0
   -3.7843    2.0071   -1.5489 H   0  0  0  0  0  0  0  0  0  0  0  0
   -5.4244    1.0467    0.8600 H   0  0  0  0  0  0  0  0  0  0  0  0
   -4.9689   -0.6832   -1.5462 H   0  0  0  0  0  0  0  0  0  0  0  0
   -4.9280   -1.1243    0.1707 H   0  0  0  0  0  0  0  0  0  0  0  0
   -2.7499   -0.0077   -1.6913 H   0  0  0  0  0  0  0  0  0  0  0  0
   -3.1180   -2.3628   -1.5221 H   0  0  0  0  0  0  0  0  0  0  0  0
   -2.8229   -2.3617    0.2761 H   0  0  0  0  0  0  0  0  0  0  0  0
   -0.7804   -2.9654   -1.0327 H   0  0  0  0  0  0  0  0  0  0  0  0
   -0.9508   -1.4535   -1.9399 H   0  0  0  0  0  0  0  0  0  0  0  0
   -0.4036   -1.5860    1.0578 H   0  0  0  0  0  0  0  0  0  0  0  0
   -0.7022    0.6723   -0.9874 H   0  0  0  0  0  0  0  0  0  0  0  0
    1.9290    1.9108    1.0365 H   0  0  0  0  0  0  0  0  0  0  0  0
    1.2967    1.6057   -0.6862 H   0  0  0  0  0  0  0  0  0  0  0  0
   -0.3238    2.1425    1.0856 H   0  0  0  0  0  0  0  0  0  0  0  0
    1.0515   -0.7743   -1.5280 H   0  0  0  0  0  0  0  0  0  0  0  0
    1.8605   -2.7243    0.6781 H   0  0  0  0  0  0  0  0  0  0  0  0
    1.4777   -3.1184   -1.0737 H   0  0  0  0  0  0  0  0  0  0  0  0
    3.5021   -2.2124   -1.7156 H   0  0  0  0  0  0  0  0  0  0  0  0
    4.0163   -2.2083   -0.0081 H   0  0  0  0  0  0  0  0  0  0  0  0
    3.2573   -1.3274    1.6515 H   0  0  0  0  0  0  0  0  0  0  0  0
    2.6013    0.1884    2.2869 H   0  0  0  0  0  0  0  0  0  0  0  0
    1.5277   -1.2946    2.0856 H   0  0  0  0  0  0  0  0  0  0  0  0
   -3.0590    0.5769    2.3922 H   0  0  0  0  0  0  0  0  0  0  0  0
   -3.4984   -0.9653    1.6192 H   0  0  0  0  0  0  0  0  0  0  0  0
   -1.8453   -0.7189    2.2101 H   0  0  0  0  0  0  0  0  0  0  0  0
    4.7981   -0.0175    0.8381 H   0  0  0  0  0  0  0  0  0  0  0  0
    4.0053    2.2443    0.1757 H   0  0  0  0  0  0  0  0  0  0  0  0
    4.4073    1.8416   -1.5992 H   0  0  0  0  0  0  0  0  0  0  0  0
   -5.7914    1.2499   -1.9432 H   0  0  0  0  0  0  0  0  0  0  0  0
   -0.0520    1.2246    2.9523 H   0  0  0  0  0  0  0  0  0  0  0  0
    3.3843   -0.5633   -2.5799 H   0  0  0  0  0  0  0  0  0  0  0  0
    6.1819    0.1795   -1.2783 H   0  0  0  0  0  0  0  0  0  0  0  0
    5.9408    3.0965   -0.1084 H   0  0  0  0  0  0  0  0  0  0  0  0
   -2.9656    2.1658    1.3626 H   0  0  0  0  0  0  0  0  0  0  0  0
   -1.9817    2.4883   -0.0849 H   0  0  0  0  0  0  0  0  0  0  0  0
   -4.4160    3.0125   -0.1671 H   0  0  0  0  0  0  0  0  0  0  0  0
   -3.7843    2.0071   -1.5489 H   0  0  0  0  0  0  0  0  0  0  0  0
   -5.4244    1.0467    0.8600 H   0  0  0  0  0  0  0  0  0  0  0  0
   -4.9689   -0.6832   -1.5462 H   0  0  0  0  0  0  0  0  0  0  0  0
   -4.9280   -1.1243    0.1707 H   0  0  0  0  0  0  0  0  0  0  0  0
   -2.7499   -0.0077   -1.6913 H   0  0  0  0  0  0  0  0  0  0  0  0
   -3.1180   -2.3628   -1.5221 H   0  0  0  0  0  0  0  0  0  0  0  0
   -2.8229   -2.3617    0.2761 H   0  0  0  0  0  0  0  0  0  0  0  0
   -0.7804   -2.9654   -1.0327 H   0  0  0  0  0  0  0  0  0  0  0  0
   -0.9508   -1.4535   -1.9399 H   0  0  0  0  0  0  0  0  0  0  0  0
   -0.4036   -1.5860    1.0578 H   0  0  0  0  0  0  0  0  0  0  0  0
   -0.7022    0.6723   -0.9874 H   0  0  0  0  0  0  0  0  0  0  0  0
    1.9290    1.9108    1.0365 H   0  0  0  0  0  0  0  0  0  0  0  0
    1.2967    1.6057   -0.6862 H   0  0  0  0  0  0  0  0  0  0  0  0
   -0.3238    2.1425    1.0856 H   0  0  0  0  0  0  0  0  0  0  0  0
    1.0515   -0.7743   -1.5280 H   0  0  0  0  0  0  0  0  0  0  0  0
    1.8605   -2.7243    0.6781 H   0  0  0  0  0  0  0  0  0  0  0  0
    1.4777   -3.1184   -1.0737 H   0  0  0  0  0  0  0  0  0  0  0  0
    3.5021   -2.2124   -1.7156 H   0  0  0  0  0  0  0  0  0  0  0  0
    4.0163   -2.2083   -0.0081 H   0  0  0  0  0  0  0  0  0  0  0  0
    3.2573   -1.3274    1.6515 H   0  0  0  0  0  0  0  0  0  0  0  0
    2.6013    0.1884    2.2869 H   0  0  0  0  0  0  0  0  0  0  0  0
    1.5277   -1.2946    2.0856 H   0  0  0  0  0  0  0  0  0  0  0  0
   -3.0590    0.5769    2.3922 H   0  0  0  0  0  0  0  0  0  0  0  0
   -3.4984   -0.9653    1.6192 H   0  0  0  0  0  0  0  0  0  0  0  0
   -1.8453   -0.7189    2.2101 H   0  0  0  0  0  0  0  0  0  0  0  0
    4.7981   -0.0175    0.8381 H   0  0  0  0  0  0  0  0  0  0  0  0
    4.0053    2.2443    0.1757 H   0  0  0  0  0  0  0  0  0  0  0  0
    4.4073    1.8416   -1.5992 H   0  0  0  0  0  0  0  0  0  0  0  0
   -5.7914    1.2499   -1.9432 H   0  0  0  0  0  0  0  0  0  0  0  0
   -0.0520    1.2246    2.9523 H   0  0  0  0  0  0  0  0  0  0  0  0
    3.3843   -0.5633   -2.5799 H   0  0  0  0  0  0  0  0  0  0  0  0
    6.1819    0.1795   -1.2783 H   0  0  0  0  0  0  0  0  0  0  0  0
    5.9408    3.0965   -0.1084 H   0  0  0  0  0  0  0  0  0  0  0  0
   -2.9656    2.1658    1.3626 H   0  0  0  0  0  0  0  0  0  0  0  0
   -1.9817    2.4883   -0.0849 H   0  0  0  0  0  0  0  0  0  0  0  0
   -4.4160    3.0125   -0.1671 H   0  0  0  0  0  0  0  0  0  0  0  0
   -3.7843    2.0071   -1.5489 H   0  0  0  0  0  0  0  0  0  0  0  0
   -5.4244    1.0467    0.8600 H   0  0  0  0  0  0  0  0  0  0  0  0
   -4.9689   -0.6832   -1.5462 H   0  0  0  0  0  0  0  0  0  0  0  0
   -4.9280   -1.1243    0.1707 H   0  0  0  0  0  0  0  0  0  0  0  0
   -2.7499   -0.0077   -1.6913 H   0  0  0  0  0  0  0  0  0  0  0  0
   -3.1180   -2.3628   -1.5221 H   0  0  0  0  0  0  0  0  0  0  0  0
   -2.8229   -2.3617    0.2761 H   0  0  0  0  0  0  0  0  0  0  0  0
   -0.7804   -2.9654   -1.0327 H   0  0  0  0  0  0  0  0  0  0  0  0
   -0.9508   -1.4535   -1.9399 H   0  0  0  0  0  0  0  0  0  0  0  0
   -0.4036   -1.5860    1.0578 H   0  0  0  0  0  0  0  0  0  0  0  0
   -0.7022    0.6723   -0.9874 H   0  0  0  0  0  0  0  0  0  0  0  0
    1.9290    1.9108    1.0365 H   0  0  0  0  0  0  0  0  0  0  0  0
    1.2967    1.6057   -0.6862 H   0  0  0  0  0  0  0  0  0  0  0  0
   -0.3238    2.1425    1.0856 H   0  0  0  0  0  0  0  0  0  0  0  0
    1.0515   -0.7743   -1.5280 H   0  0  0  0  0  0  0  0  0  0  0  0
    1.8605   -2.7243    0.6781 H   0  0  0  0  0  0  0  0  0  0  0  0
    1.4777   -3.1184   -1.0737 H   0  0  0  0  0  0  0  0  0  0  0  0
    3.5021   -2.2124   -1.7156 H   0  0  0  0  0  0  0  0  0  0  0  0
    4.0163   -2.2083   -0.0081 H   0  0  0  0  0  0  0  0  0  0  0  0
    3.2573   -1.3274    1.6515 H   0  0  0  0  0  0  0  0  0  0  0  0
    2.6013    0.1884    2.2869 H   0  0  0  0  0  0  0  0  0  0  0  0
    1.5277   -1.2946    2.0856 H   0  0  0  0  0  0  0  0  0  0  0  0
   -3.0590    0.5769    2.3922 H   0  0  0  0  0  0  0  0  0  0  0  0
   -3.4984   -0.9653    1.6192 H   0  0  0  0  0  0  0  0  0  0  0  0
   -1.8453   -0.7189    2.2101 H   0  0  0  0  0  0  0  0  0  0  0  0
    4.7981   -0.0175    0.8381 H   0  0  0  0  0  0  0  0  0  0  0  0
    4.0053    2.2443    0.1757 H   0  0  0  0  0  0  0  0  0  0  0  0
    4.4073    1.8416   -1.5992 H   0  0  0  0  0  0  0  0  0  0  0  0
   -5.7914    1.2499   -1.9432 H   0  0  0  0  0  0  0  0  0  0  0  0
   -0.0520    1.2246    2.9523 H   0  0  0  0  0  0  0  0  0  0  0  0
    3.3843   -0.5633   -2.5799 H   0  0  0  0  0  0  0  0  0  0  0  0
    6.1819    0.1795   -1.2783 H   0  0  0  0  0  0  0  0  0  0  0  0
    5.9408    3.0965   -0.1084 H   0  0  0  0  0  0  0  0  0  0  0  0
   -2.9656    2.1658    1.3626 H   0  0  0  0  0  0  0  0  0  0  0  0
   -1.9817    2.4883   -0.0849 H   0  0  0  0  0  0  0  0  0  0  0  0
   -4.4160    3.0125   -0.1671 H   0  0  0  0  0  0  0  0  0  0  0  0
   -3.7843    2.0071   -1.5489 H   0  0  0  0  0  0  0  0  0  0  0  0
   -5.4244    1.0467    0.8600 H   0  0  0  0  0  0  0  0  0  0  0  0
   -4.9689   -0.6832   -1.5462 H   0  0  0  0  0  0  0  0  0  0  0  0
   -4.9280   -1.1243    0.1707 H   0  0  0  0  0  0  0  0  0  0  0  0
   -2.7499   -0.0077   -1.6913 H   0  0  0  0  0  0  0  0  0  0  0  0
   -3.1180   -2.3628   -1.5221 H   0  0  0  0  0  0  0  0  0  0  0  0
   -2.8229   -2.3617    0.2761 H   0  0  0  0  0  0  0  0  0  0  0  0
   -0.7804   -2.9654   -1.0327 H   0  0  0  0  0  0  0  0  0  0  0  0
   -0.9508   -1.4535   -1.9399 H   0  0  0  0  0  0  0  0  0  0  0  0
   -0.4036   -1.5860    1.0578 H   0  0  0  0  0  0  0  0  0  0  0  0
   -0.7022    0.6723   -0.9874 H   0  0  0  0  0  0  0  0  0  0  0  0
    1.9290    1.9108    1.0365 H   0  0  0  0  0  0  0  0  0  0  0  0
    1.2967    1.6057   -0.6862 H   0  0  0  0  0  0  0  0  0  0  0  0
   -0.3238    2.1425    1.0856 H   0  0  0  0  0  0  0  0  0  0  0  0
    1.0515   -0.7743   -1.5280 H   0  0  0  0  0  0  0  0  0  0  0  0
    1.8605   -2.7243    0.6781 H   0  0  0  0  0  0  0  0  0  0  0  0
    1.4777   -3.1184   -1.0737 H   0  0  0  0  0  0  0  0  0  0  0  0
    3.5021   -2.2124   -1.7156 H   0  0  0  0  0  0  0  0  0  0  0  0
    4.0163   -2.2083   -0.0081 H   0  0  0  0  0  0  0  0  0  0  0  0
    3.2573   -1.3274    1.6515 H   0  0  0  0  0  0  0  0  0  0  0  0
    2.6013    0.1884    2.2869 H   0  0  0  0  0  0  0  0  0  0  0  0
    1.5277   -1.2946    2.0856 H   0  0  0  0  0  0  0  0  0  0  0  0
   -3.0590    0.5769    2.3922 H   0  0  0  0  0  0  0  0  0  0  0  0
   -3.4984   -0.9653    1.6192 H   0  0  0  0  0  0  0  0  0  0  0  0
   -1.8453   -0.7189    2.2101 H   0  0  0  0  0  0  0  0  0  0  0  0
    4.7981   -0.0175    0.8381 H   0  0  0  0  0  0  0  0  0  0  0  0
    4.0053    2.2443    0.1757 H   0  0  0  0  0  0  0  0  0  0  0  0
    4.4073    1.8416   -1.5992 H   0  0  0  0  0  0  0  0  0  0  0  0
   -5.7914    1.2499   -1.9432 H   0  0  0  0  0  0  0  0  0  0  0  0
   -0.0520    1.2246    2.9523 H   0  0  0  0  0  0  0  0  0  0  0  0
    3.3843   -0.5633   -2.5799 H   0  0  0  0  0  0  0  0  0  0  0  0
    6.1819    0.1795   -1.2783 H   0  0  0  0  0  0  0  0  0  0  0  0
    5.9408    3.0965   -0.1084 H   0  0  0  0  0  0  0  0  0  0  0  0
  1  2  1  0
  2  3  1  0
  3  4  1  0
  4  5  1  0
  5  6  1  0
  6  7  1  0
  7  8  1  0
  8  9  1  0
  1 10  1  0
  5 10  1  0
  9 10  1  0
  9 12  1  0
 11 12  1  0
 11 13  1  0
  8 14  1  0
 13 14  1  0
 14 15  1  0
 15 16  1  0
 13 17  1  0
 16 17  1  0
 13 18  1  1
 10 19  1  1
 17 20  1  0
 20 21  1  0
  3 22  1  0
 12 23  1  0
 17 24  1  6
 20 25  1  0
 21 26  1  0
 27 28  1  0
 28 29  1  0
 29 30  1  0
 30 31  1  0
 31 32  1  0
 32 33  1  0
 33 34  1  0
 34 35  1  0
 27 36  1  0
 31 36  1  0
 35 36  1  0
 35 38  1  0
 37 38  1  0
 37 39  1  0
 34 40  1  0
 39 40  1  0
 40 41  1  0
 41 42  1  0
 39 43  1  0
 42 43  1  0
 39 44  1  1
 36 45  1  1
 43 46  1  0
 46 47  1  0
 29 48  1  0
 38 49  1  0
 43 50  1  6
 46 51  1  0
 47 52  1  0
 53 54  1  0
 54 55  1  0
 55 56  1  0
 56 57  1  0
 57 58  1  0
 58 59  1  0
 59 60  1  0
 60 61  1  0
 53 62  1  0
 57 62  1  0
 61 62  1  0
 61 64  1  0
 63 64  1  0
 63 65  1  0
 60 66  1  0
 65 66  1  0
 66 67  1  0
 67 68  1  0
 65 69  1  0
 68 69  1  0
 65 70  1  1
 62 71  1  1
 69 72  1  0
 72 73  1  0
 55 74  1  0
 64 75  1  0
 69 76  1  6
 72 77  1  0
 73 78  1  0
 79 80  1  0
 80 81  1  0
 81 82  1  0
 82 83  1  0
 83 84  1  0
 84 85  1  0
 85 86  1  0
 86 87  1  0
 79 88  1  0
 83 88  1  0
 87 88  1  0
 87 90  1  0
 89 90  1  0
 89 91  1  0
 86 92  1  0
 91 92  1  0
 92 93  1  0
 93 94  1  0
 91 95  1  0
 94 95  1  0
 91 96  1  1
 88 97  1  1
 95 98  1  0
 98 99  1  0
 81100  1  0
 90101  1  0
 95102  1  6
 98103  1  0
 99104  1  0
105106  1  0
106107  1  0
107108  1  0
108109  1  0
109110  1  0
110111  1  0
111112  1  0
112113  1  0
105114  1  0
109114  1  0
113114  1  0
113116  1  0
115116  1  0
115117  1  0
112118  1  0
117118  1  0
118119  1  0
119120  1  0
117121  1  0
120121  1  0
117122  1  1
114123  1  1
121124  1  0
124125  1  0
107126  1  0
116127  1  0
121128  1  6
124129  1  0
125130  1  0
131132  1  0
132133  1  0
133134  1  0
134135  1  0
135136  1  0
136137  1  0
137138  1  0
138139  1  0
131140  1  0
135140  1  0
139140  1  0
139142  1  0
141142  1  0
141143  1  0
138144  1  0
143144  1  0
144145  1  0
145146  1  0
143147  1  0
146147  1  0
143148  1  1
140149  1  1
147150  1  0
150151  1  0
133152  1  0
142153  1  0
147154  1  6
150155  1  0
151156  1  0
  1157  1  0
  1158  1  0
  2159  1  0
  2160  1  0
  3161  1  0
  4162  1  0
  4163  1  0
  5164  1  6
  6165  1  0
  6166  1  0
  7167  1  0
  7168  1  0
  8169  1  1
  9170  1  6
 11171  1  0
 11172  1  0
 12173  1  1
 14174  1  6
 15175  1  0
 15176  1  0
 16177  1  0
 16178  1  0
 18179  1  0
 18180  1  0
 18181  1  0
 19182  1  0
 19183  1  0
 19184  1  0
 20185  1  0
 21186  1  0
 21187  1  0
 22188  1  0
 23189  1  0
 24190  1  0
 25191  1  0
 26192  1  0
 27193  1  0
 27194  1  0
 28195  1  0
 28196  1  0
 29197  1  0
 30198  1  0
 30199  1  0
 31200  1  6
 32201  1  0
 32202  1  0
 33203  1  0
 33204  1  0
 34205  1  1
 35206  1  6
 37207  1  0
 37208  1  0
 38209  1  1
 40210  1  6
 41211  1  0
 41212  1  0
 42213  1  0
 42214  1  0
 44215  1  0
 44216  1  0
 44217  1  0
 45218  1  0
 45219  1  0
 45220  1  0
 46221  1  0
 47222  1  0
 47223  1  0
 48224  1  0
 49225  1  0
 50226  1  0
 51227  1  0
 52228  1  0
 53229  1  0
 53230  1  0
 54231  1  0
 54232  1  0
 55233  1  0
 56234  1  0
 56235  1  0
 57236  1  6
 58237  1  0
 58238  1  0
 59239  1  0
 59240  1  0
 60241  1  1
 61242  1  6
 63243  1  0
 63244  1  0
 64245  1  1
 66246  1  6
 67247  1  0
 67248  1  0
 68249  1  0
 68250  1  0
 70251  1  0
 70252  1  0
 70253  1  0
 71254  1  0
 71255  1  0
 71256  1  0
 72257  1  0
 73258  1  0
 73259  1  0
 74260  1  0
 75261  1  0
 76262  1  0
 77263  1  0
 78264  1  0
 79265  1  0
 79266  1  0
 80267  1  0
 80268  1  0
 81269  1  0
 82270  1  0
 82271  1  0
 83272  1  6
 84273  1  0
 84274  1  0
 85275  1  0
 85276  1  0
 86277  1  1
 87278  1  6
 89279  1  0
 89280  1  0
 90281  1  1
 92282  1  6
 93283  1  0
 93284  1  0
 94285  1  0
 94286  1  0
 96287  1  0
 96288  1  0
 96289  1  0
 97290  1  0
 97291  1  0
 97292  1  0
 98293  1  0
 99294  1  0
 99295  1  0
100296  1  0
101297  1  0
102298  1  0
103299  1  0
104300  1  0
105301  1  0
105302  1  0
106303  1  0
106304  1  0
107305  1  0
108306  1  0
108307  1  0
109308  1  6
110309  1  0
110310  1  0
111311  1  0
111312  1  0
112313  1  1
113314  1  6
115315  1  0
115316  1  0
116317  1  1
118318  1  6
119319  1  0
119320  1  0
120321  1  0
120322  1  0
122323  1  0
122324  1  0
122325  1  0
123326  1  0
123327  1  0
123328  1  0
124329  1  0
125330  1  0
125331  1  0
126332  1  0
127333  1  0
128334  1  0
129335  1  0
130336  1  0
131337  1  0
131338  1  0
132339  1  0
132340  1  0
133341  1  0
134342  1  0
134343  1  0
135344  1  6
136345  1  0
136346  1  0
137347  1  0
137348  1  0
138349  1  1
139350  1  6
141351  1  0
141352  1  0
142353  1  1
144354  1  6
145355  1  0
145356  1  0
146357  1  0
146358  1  0
148359  1  0
148360  1  0
148361  1  0
149362  1  0
149363  1  0
149364  1  0
150365  1  0
151366  1  0
151367  1  0
152368  1  0
153369  1  0
154370  1  0
155371  1  0
156372  1  0
M  END
>  <PDBID>  (1) 
4P6X

>  <PDB ID>  (1) 
4P6X

>  <Generic Name>  (1) 
Hydrocortisone

>  <Brand Name>  (1) 
1 Hydrocortisone Maximum Strength#999 Itch Relieving#A-hydrocort#A-hydrocort Inj 1000mg/8ml#A-hydrocort Inj 100mg/2ml#A-hydrocort Inj 250mg/2ml#A-hydrocort Inj 500mg/4ml#Acella Hydrocortisone Acetate - Pramoxine Singles#Acetasol HC#Actinac Pwr#Actinac Pws#Advanced Anti-itch Therapy#Advanced Hydrocortisone#Aftate Hydrocortisone Cream#Ala Quin#Ala Scalp#Alacort#Alcortin#Alocane#Alocort 1% - Crm#Ana Cool Rapid Soothing Cooling Formula#Ana-lex#Analpram Advanced#Analpram E#Analpram E Cream 2.5% Kit Hydrocortisone Acetate 2.5% Pramoxine Hydrochloride 1%#Analpram HC#Anodan-HC 10mg Suppositories#Anodan-HC Ointment#Anti Itch#Anti Itch Maximum Strength#Anti Itch Maximum Strength Plus#Anti-itch#Anti-itch Feminine Care#Anti-itch Scalp Relief Maximum Strength#Anti-itch Scherer Labs#Antibiotic Ear (neo/polym/hc)#Anucort-HC#Anugesic-HC Ointment#Anugesic-HC Suppositories#Anusol HC#Anusol-HC Ointment#Anusol-HC Suppositories#Aquacort Lotion 2.5%#Atopalm Maximum Strength Anti-itch#Atopalm Moisturizing Hydrocortisone#Avedana Hydrocortisone Cream With Aloe#Aveeno Hydrocortisone Anti Itch#Aveeno Hydrocortisone Anti-itch Cream#Barriere HC 1%#Berkley and Jensen Anti Itch#Berkley and Jensen Hydrocortisone#Biocorneum HC Advanced Scar Supervision Anti-itch#Bioelements Immediate Comfort#Bioelements Immediate Comfort Hydrocortisone#Blue-emu Anti-itch Cream#Budpak Anti-itch#Caldecort#Calmurid HC Crm#Care One Hydrocortisone Maximum Strength#Careall Hydrocortisone Maximum Strength#Careone Anti Itch#Cerave Anti-itch#Cicatricure Ultra Moisturizing#Cipro HC#Cipro HC Otic Suspension#Colocort#Coly-mycin S#Cooling Itch Relief Well At Walgreens#Cortacet Crm 0.5%#Cortaid 12-hour Advanced Anti-itch#Cortaid Intensive Therapy Cooling#Cortaid Maximum Strength#Cortamed Ont 25 mg/g#Cortate Crm 1%#Cortate Ont 1%#Cortef#Cortef Tablets 10mg#Cortef Tablets 20 mg#Cortenema#Cortenema Sus 100mg/60ml#Corticreme 0.1%#Corticreme 0.5%#Corticreme 1%#Cortifoam#Cortiment-10  Sup 10mg#Cortiment-40 Sup 40mg#Cortisil Mdx#Cortisone#Cortisone Cream Intensive Healing#Cortisone Maximum Strength#Cortisone Plus Aloe Maximum Strength#Cortisporin#Cortisporin-TC#Cortizone 10#Cortizone 10 Anti-itch for Diabetics Skin#Cortizone 10 Cooling Cream Anti-itch#Cortizone 10 Cooling Relief#Cortizone 10 Creme Ultra Moisturizing#Cortizone 10 Easy Relief#Cortizone 10 Hydratensive Healing Anti Itch#Cortizone 10 Hydratensive Soothing Anti Itch#Cortizone 10 Intensive Healing#Cortizone 10 Intensive Healing Feminine Itch Relief#Cortizone 10 Intensive Healing for Eczema#Cortizone 10 Plus#Cortizone 10 Poison Ivy Relief Pads#Cortizone 10 for Psoriasis#Cortomycin#Cvs Anti-itch Hydrocortisone#Cvs Cools Itch Fast#Cvs Cortisone#Cvs Health Maxium Strentgh Cortisone#Cvs Hydrocortisone With Aloe#Cvs Pharmacy Anti-itch#Dermacort Anti-itch#Dermaquest Skin Therapy Post-skin Resurfacing Balm#Dermarest Dricort 0.5% Hydrocortisone Anti-itch#Dermarest Eczema Medicated#Dermazene#Dermoscribe Ichybum#Dermoscribe Seborrheic Dermatitis#Dg Health Hydrocortisone#Dg Health Hydrocortisone Maximum Strength#Dr H Stabilizer#Dr. Sheffield Hydrocortisone Anti Itch#Dr. Throwers Hydrotet#Duane Reade#Duane Reade Hydrocortisone#Duane Reade Hydrocortisone Plus 12 Moisturizers#Eczema Skin Mushatts N9#Egozinc-HC#Emo Cort Cream 2.5%#Emo Cort Lotion 2.5%#Emo Cort Sol 2.5% USP#Epifoam#Equaline Anti Itch#Equaline Anti Itch Maximum Strength#Equate Hydrocortisone#Exchange Select Hydrocortisone#Face Values Hydrocortisone With Aloe#Family Care Hydrocortisone#Family Wellness#Family Wellness Hydrocortisone#Family Wellness Maximum Strength Hydrocortisone#First Dukes Mouthwash Compounding#First Marys Mouthwash Compounding#Fixmyskin Healing Balm Fragrance-free#Fixmyskin Healing Balm Unflavored#Fixmyskin Healing Balm Vanilla Flavor#Fixmyskin Healing Balm Vanilla Fragrance#Formu Care Anti Itch Maximum Strength#Fucidin H#Fulton Street Market Anti Itch#Gadaderm Hydrocortisone#Genuine Hydrocortisone#Good Neighbor Pharmacy Anti Itch#Good Neighbor Pharmacy Hydrocortisone#Good Neighbor Pharmacy Hydrocortisone Plus 12 Moisturizers#Good Neighbor Pharmacy Hydrocortisone With Aloe#Good Neighbor Pharmacy Hydrocortisone With Aloe for Sensitive Skin#Good Sense Anti Itch#Grx Hicort#H-releve Anti-itch#Healerz for Itches#Health Mart Pharmacy Hydrocortisone Maximum Strength Plus 12 Moisturizers#Health Mart Pharmacy Hydrocortisone Maximum Strength With Aloe#Healthy Accents Cortisone Maximum Strength#Hem-easy Relief Herbal Anti-itch Maximum Itch Relief#Hemmorex-HC#Home Papkit#Hycort Retention Enema 100mg/60ml#Hydro Skin#Hydrocortisone#Hydrocortisone 1 Anti Itch#Hydrocortisone 1 Plus 10#Hydrocortisone 1%#Hydrocortisone 1% In Absorbase#Hydrocortisone 1% With Healing Aloe#Hydrocortisone Acetate#Hydrocortisone Acetate Antipruritic (anti-itch)#Hydrocortisone Acetate Pramoxine HCl#Hydrocortisone Acetate and Pramoxine Hydrochloride#Hydrocortisone Acetate, Iodoquinol#Hydrocortisone Anti Itch#Hydrocortisone Anti-itch#Hydrocortisone Anti-itch Plus#Hydrocortisone Butyrate#Hydrocortisone Butyrate Cream (lipid) 0.1%#Hydrocortisone Cream 0.5%#Hydrocortisone Cream 0.5% USP#Hydrocortisone Cream 1%#Hydrocortisone Cream Intensive Healing#Hydrocortisone Cream USP 0.5%#Hydrocortisone Crm 0.5%#Hydrocortisone Crm 1%#Hydrocortisone D#Hydrocortisone HC#Hydrocortisone Intensive Healing Formula#Hydrocortisone Iodoquinol#Hydrocortisone Maximum Strength#Hydrocortisone Maximum Strength Plus 12 Moisturizers#Hydrocortisone Maximum Strength With Aloe#Hydrocortisone Ointment 0.5%#Hydrocortisone Ointment 1%#Hydrocortisone Plus#Hydrocortisone Plus 10 Moisturizers#Hydrocortisone Plus 12 Moisturizers#Hydrocortisone Plus 12 Moisturizers Maximum Strength#Hydrocortisone Regular Strength#Hydrocortisone Sodium Succinate Injection#Hydrocortisone Sodium Succinate for Injection#Hydrocortisone Ultra Strength#Hydrocortisone Valerate#Hydrocortisone With Aloe#Hydrocortisone With Aloe Maximum Strength#Hydrocortisone and Acetic Acid#Hydroskin#Hydroval Cream 0.2%#Hydroval Ointment 0.2%#Immediate Comfort Bioelements#Instant Cooling Itch Relief Cvs#Intensive Healing Anti Itch#Irritated Skin Treatment#Itch Stuff#Itch and Rash Cream#Jamp Hydrocortisone Cream USP 0.5%#Jampzinc-HC#Kaiser Permanente Hydrocortisone#Kera HC#Kirkland Signature Hydrocortisone Plus Maximum Strength#Lanacort Crm 0.5%#Leader Hydrocortisone#Leader Hydrocortisone With Aloe#Lidocaine HCl - Hydrocortisone Acetate#Lidocaine HCl - Hydrocortisone Acetate With Aloe#Lidocaine HCl and Hydrocortisone Acetate#Lidocaine Hydrochloride and Hydrocortisone Acetate#Lincoln#Live Better Hydrocortisone With Aloe#Locoid#Locoid Lipocream#Loesch Anti-itch Therapy#Loesch HC-10 Anti-itch Therapy#Lucky Supersoft Maximum Strength#Makesense Maximum Strength#Market Basket Anti-itch Cream Plus#Maximum Strength Cortizone 10 Quick Shot 360 Continuous#Maximum Strength Hydrocortisone#Maximum Strength Hydrocortisone Cream#Maximum Strength Hydrocortisone Cream With Aloe#Maximum-H#Medi-cortisone With Aloe#Medi-first#Medpride#Meijer Anti Itch#Meijer Anti Itch Cream Plus#Meijer Anti-itch With Aloe#Meijer Hydrocortisone#Meijer Hydrocortisone Plus 12 Moisturizers#Meijer Intense Healing#Meijer Itch and Rash Relief#Members Mark Hydrocortisone#Micort HC#Monistat Complete Care Instant Itch Relief#Natureplex Hydrocortisone Hydro#Neo Polycin HC#Neo-cortef 0.5%  Ointment#Neo-cortef 1%  Ointment#Neo-cortef Eye Ear Drops Sterile Suspension#Neo-poly-bac Hydro#Neo-polycin HC#Neomycin and Polymyxin B Sulfates and Bacitracin Zinc With Hydrocortisone Acetate#Neomycin and Polymyxin B Sulfates and Hydrocortisone#Neomycin and Polymyxin B Sulfates, Bacitracin Zinc and Hydrocortisone#Neomycin and Polymyxin B Sulfates, Bacitracin Zinc, and Hydrocortisone#Neomycin, Polymyxin B Sulfates and Hydrocortisone#Neosporin Eczema Essentials Anti Itch#Novacort#Nu-derm Tolereen Anti-pruritic#Nucort#Odan-spor-HC#Olp Hydrocortisone 1%#Ophthocort Ont#Otizol HC Liq#Our Family Hydrocortisone With Aloe#Pandel#Pediaderm HC#Pentamycetin/hc#Piyanping Antiitch#Poison Oak#Poli-A#Post Peel Protectant Vitality Institute#Post Treatment Balm#Pramcort#Pramosone#Pramosone Cream#Pramosone E#Pramosone E Cream 2.5% Hydrocortisone Acetate 2.5% Pramoxine Hydrochloride 1%#Pramox HC Cream#Pramox HC Lotion#Pramoxine-HC#Premier Value Hydrocortisone#Premier Value Hydrocortisone Plus 12 Moisturizers#Preparation H Hydrocortisone#Proactiv Solution Anti-itch Scalp#Procort#Procto-med HC#Procto-pak#Proctocort#Proctocream HC#Proctodan-HC Ointment#Proctodan-HC Suppositories#Proctofoam HC#Proctol Ointment#Proctol Suppositories#Proctosedyl Ointment#Proctosedyl Sup#Proctosedyl Suppositories#Proctosol-HC#Proctosone Ont#Proctosone Sup#Proctozone HC#Proctozone-HC#Procure#Procure Hydrocortisone Plus Calendula#Psoriasin Itch Control#Publix Hydro#Publix Hydro Plus#Quadrydern#Quality Choice Anti Itch With Aloe#Quality Choice Hydrocortisone#Quality Choice Hydrocortisone Maximum Strength#Quality Choice Maximum Strength Anti Itch#Ratio-hemcort-HC#Ratio-proctosone#Rectacort - HC#Rectocort Ont#Rectocort Sup#Rectogel HC#Regular Strength Hydrocortisone Cream#Rexall Anti Itch Maximum Strength Relief#Rexall Hydrocortisone 1#Rexall Hydrocortisone Plus Moisturizers#Rite Aid Anti-itch#Riva-sol HC Ointment#Rivasol-HC Suppositories#Rodan and Fields Soothe#Rugby Hydroskin#Safeway Hydrocortisone Plus 12 Moisturizers#Sandoz Anuzinc HC#Sandoz Anuzinc HC Plus#Sandoz Anuzinc HC Plus Suppositories#Sandoz Anuzinc HC Suppositories#Sandoz Cortimyxin#Sandoz Proctomyxin HC#Sandoz Proctomyxin HC Suppositories#Sarna HC#Scalpicin Anti-itch Maximum Strength#Scalpicin Maximum Strength#Scalpicin Scalp Itch Medication Maximum Strength#Scarguard Md#Scarguard Md Physicians Formula#Schein Hydrocortisone#Selsun Blue Scalp Itch Treatment#Shopko Hydrocortisone#Shopko Hydrocortisone Intensive Healing Formula#Shopko Hydrocortisone Maximum Strength#Shopko Hydrocortisone Plus 12 Moisturizers Maximum Strength#Shopko Hydrocortisone With Aloe#Shopko Maximum Strength#Shoprite Hydrocortisone#Signature Care Anti Itch#Signature Care Hydrocortisone#Smart Sense Anti Itch#Smart Sense Anti Itch Maximum Strength#Smart Sense Hydrocortisone#Solu-cortef#Solu-cortef 1 Gm Act-O-vial#Solu-cortef 100 Mg Act-O-vial#Solu-cortef 250 Mg Act-O-vial#Solu-cortef 500 Mg Act-O-vial#Soothe Rodan Fields#Sopamycetin/hc Ointment#Sopamycetin/hc Ont#Sopamycetin/hc Susp#Sterex Crm Plus#Sterex Lot Plus#Sunmark Hydrocortisone#Sunmark Hydrocortisone Plus 12 Moisturizers#Sunmark Hydrocortisone With Aloe Maximum Strength#Tecnu Corticool#Texacort#Texacort Solution 1%#Thera Plus#Ti-U-lac HC Lotion#Topcare Hydrocortisone#Topcare Hydrocortisone 1% With Aloe#Topcare Hydrocortisone Intensive Healing Formula#Topcare Hydrocortisone Plus 12 Moisturizers#Topiderm HC 2%#Triple Antibiotic HC#Truelipids Anti-itch Barrier#Up and Up Anti Itch#Up and Up Anti Itch Maximum Strength#Up and Up Hydrocortisone#Up and Up Hydrocortisone One Per Cent#Uremol HC#Vagisil Anti-itch Creme Maximum Strength Sensitive Skin Formula#Vagisil Satin#Vanicream HC Anti-itch#Vanoxide HC#Vioform + Hydrocortisone#Vioform Hydrocortisone#Vioform Hydrocortisone Mild#Vosol HC#Vytone#Walgreens Hydrocortisone Plus 12 Moisturizers#Westcort#Westcort Crm 0.2%#Westcort Ont 0.2%#Western Family Hydrocortisone#Western Family Hydrocortisone Plus 12 Moisturizers#Winco Maximum Strength Hydrocortisone#Xerese#Yes To Coconut Eczema Relief#Zims Advanced Crack Creme With Hydrocortisone#Zims Advanced Hydrocortisone Continuous With Organic Arnica and Aloe#Acticort#Aeroseb HC#Ala-Scalp#Algicirtis#Aquanil HC#Beta-HC#Cetacort#Cortaid#Delacort#Ficortril#Genacort#Glycort#Komed HC#Lacticare HC#Lubricort#Medicort#Meusicort#Micort-HC#Mildison#Nogenic HC#Nutracort#Nystaform-HC#Otocort#Penecort#Permicort#Polcort H#Preparation H Hydrocortisone Cream#Prepcort#Prevex HC#Proctocort#Proctocream#Protocort#Remederm HC#Sanatison#Scalpicin Capilar#Schericur#Sigmacort#Synacort#Systral Hydrocort#Timocort

>  <DrugBank ID>  (1) 
DB00741

>  <ATC Codes>  (1) 
S03CA04#S01CB03#S01CA03#S02BA01#S02CA03#D07AB02#D07AA02#D07BB04#C05AA01#D07AC16#D07CA01#S01BA02#S01BB01#A01AC03#D07BA04#D07XA01#H02AB09#A07EA02#R01AD60

>  <Ligand ID>  (1) 
HCY

>  <Target Name>  (1) 
Glucocorticoid receptor

>  <UniProt ID>  (1) 
P04150

>  <PDB ID.1>  (1) 
4P6X

>  <Seq. Identity>  (1) 
97%

$$$$
