PDB_DB08912_04
     RDKit          3D

316328  0  0  0  0  0  0  0  0999 V2000
   -5.0434    3.2818   -0.8092 C   0  0  0  0  0  0  0  0  0  0  0  0
   -3.3859    1.7913   -0.1062 C   0  0  2  0  0  0  0  0  0  0  0  0
   -4.0556    2.3349   -1.2732 N   0  0  0  0  0  0  0  0  0  0  0  0
   -2.4463    2.8578    0.4639 C   0  0  0  0  0  0  0  0  0  0  0  0
   -4.4622    4.1939    0.1232 N   0  0  0  0  0  0  0  0  0  0  0  0
   -3.0345    4.2334    0.1450 C   0  0  0  0  0  0  0  0  0  0  0  0
   -5.6382    4.0143   -1.9172 N   0  0  0  0  0  0  0  0  0  0  0  0
   -2.5723    0.5588   -0.3924 C   0  0  0  0  0  0  0  0  0  0  0  0
   -3.6453   -0.7193   -1.1792 S   0  0  0  0  0  0  0  0  0  0  0  0
   -2.9410   -2.1045   -0.2437 C   0  0  1  0  0  0  0  0  0  0  0  0
   -2.3446   -1.5125    0.8585 N   0  0  0  0  0  0  0  0  0  0  0  0
   -2.1186   -0.1565    0.8043 C   0  0  0  0  0  0  0  0  0  0  0  0
   -3.9504   -3.1851    0.0225 C   0  0  0  0  0  0  0  0  0  0  0  0
   -3.2583   -4.2823    0.8031 C   0  0  0  0  0  0  0  0  0  0  0  0
   -5.1391   -2.7237    0.8102 C   0  0  0  0  0  0  0  0  0  0  0  0
   -4.4114   -3.7928   -1.2888 C   0  0  0  0  0  0  0  0  0  0  0  0
   -0.6388    0.1429    1.0543 C   0  0  2  0  0  0  0  0  0  0  0  0
    1.6490   -0.4930    0.4827 C   0  0  2  0  0  0  0  0  0  0  0  0
    0.2446   -0.2130   -0.0863 C   0  0  0  0  0  0  0  0  0  0  0  0
    1.8677    0.5255    1.5544 C   0  0  0  0  0  0  0  0  0  0  0  0
   -0.1941   -0.6223    2.3227 C   0  0  0  0  0  0  0  0  0  0  0  0
    1.0810    0.0476    2.7845 C   0  0  0  0  0  0  0  0  0  0  0  0
    0.4502    0.8406   -0.9751 F   0  0  0  0  0  0  0  0  0  0  0  0
    2.5646   -0.3901   -0.6346 N   0  0  0  0  0  0  0  0  0  0  0  0
    4.1673   -0.8475    0.0165 S   0  0  0  0  0  0  0  0  0  0  0  0
    5.1229    0.5820   -0.2172 C   0  0  0  0  0  0  0  0  0  0  0  0
    5.9012    0.2243   -2.5898 C   0  0  0  0  0  0  0  0  0  0  0  0
    5.1163    1.0679   -1.6480 C   0  0  0  0  0  0  0  0  0  0  0  0
    7.1712   -0.3127   -2.0256 C   0  0  0  0  0  0  0  0  0  0  0  0
    6.5102    0.4418    0.2965 C   0  0  0  0  0  0  0  0  0  0  0  0
    7.5810    0.2601   -0.7159 C   0  0  0  0  0  0  0  0  0  0  0  0
    6.8254    1.5875    1.0400 F   0  0  0  0  0  0  0  0  0  0  0  0
    3.7768    1.1180   -2.0471 F   0  0  0  0  0  0  0  0  0  0  0  0
    3.9931   -1.3375    1.4290 O   0  0  0  0  0  0  0  0  0  0  0  0
    4.6953   -1.9592   -1.0271 O   0  0  0  0  0  0  0  0  0  0  0  0
   -3.4751    4.0345   -1.0382 C   0  0  0  0  0  0  0  0  0  0  0  0
   -3.8853    1.7021   -0.5833 C   0  0  0  0  0  0  0  0  0  0  0  0
   -2.9517    2.8142   -0.4911 N   0  0  0  0  0  0  0  0  0  0  0  0
   -4.2045    1.4707   -2.0092 C   0  0  0  0  0  0  0  0  0  0  0  0
   -4.4393    3.8277   -2.1003 N   0  0  0  0  0  0  0  0  0  0  0  0
   -3.9641    2.6987   -2.8818 C   0  0  0  0  0  0  0  0  0  0  0  0
   -4.1890    4.7177    0.0461 N   0  0  0  0  0  0  0  0  0  0  0  0
   -3.3058    0.5513    0.1681 C   0  0  0  0  0  0  0  0  0  0  0  0
   -4.4835   -0.8368    0.0638 S   0  0  0  0  0  0  0  0  0  0  0  0
   -3.3626   -1.9211   -0.8744 C   0  0  1  0  0  0  0  0  0  0  0  0
   -2.1248   -1.4713   -0.3218 N   0  0  0  0  0  0  0  0  0  0  0  0
   -2.0728   -0.0395   -0.3666 C   0  0  2  0  0  0  0  0  0  0  0  0
   -3.5670   -3.3711   -0.4895 C   0  0  0  0  0  0  0  0  0  0  0  0
   -2.6647   -4.2955   -1.2376 C   0  0  0  0  0  0  0  0  0  0  0  0
   -3.4592   -3.5446    1.0008 C   0  0  0  0  0  0  0  0  0  0  0  0
   -5.0065   -3.7157   -0.8680 C   0  0  0  0  0  0  0  0  0  0  0  0
   -0.8175    0.3635    0.3926 C   0  0  2  0  0  0  0  0  0  0  0  0
    1.5030   -0.3723    0.6493 C   0  0  0  0  0  0  0  0  0  0  0  0
    0.3319   -0.3269   -0.3145 C   0  0  0  0  0  0  0  0  0  0  0  0
    1.4761    0.8570    1.5214 C   0  0  0  0  0  0  0  0  0  0  0  0
   -0.7980   -0.0948    1.8117 C   0  0  0  0  0  0  0  0  0  0  0  0
    0.3171    0.6862    2.5115 C   0  0  0  0  0  0  0  0  0  0  0  0
    0.6478    0.2564   -1.5120 F   0  0  0  0  0  0  0  0  0  0  0  0
    2.7171   -0.4961   -0.1324 N   0  0  0  0  0  0  0  0  0  0  0  0
    4.0677   -0.6303    0.9905 S   0  0  0  0  0  0  0  0  0  0  0  0
    5.0376    0.7710    0.6777 C   0  0  0  0  0  0  0  0  0  0  0  0
    6.5392   -0.0479   -1.1780 C   0  0  0  0  0  0  0  0  0  0  0  0
    5.4527    0.8867   -0.7635 C   0  0  0  0  0  0  0  0  0  0  0  0
    7.6474   -0.2052   -0.1855 C   0  0  0  0  0  0  0  0  0  0  0  0
    6.2294    0.8434    1.5885 C   0  0  0  0  0  0  0  0  0  0  0  0
    7.5441    0.8747    0.8410 C   0  0  0  0  0  0  0  0  0  0  0  0
    6.1863    1.9635    2.4000 F   0  0  0  0  0  0  0  0  0  0  0  0
    5.8270    2.2152   -0.9741 F   0  0  0  0  0  0  0  0  0  0  0  0
    4.9776   -1.8992    0.3673 O   0  0  0  0  0  0  0  0  0  0  0  0
    3.5790   -0.8856    2.3488 O   0  0  0  0  0  0  0  0  0  0  0  0
   -5.2336    3.3826    1.0144 C   0  0  0  0  0  0  0  0  0  0  0  0
   -3.5448    1.9350    0.3693 C   0  0  2  0  0  0  0  0  0  0  0  0
   -4.8655    1.9564    1.0260 N   0  0  0  0  0  0  0  0  0  0  0  0
   -3.5055    2.7385   -0.8670 C   0  0  0  0  0  0  0  0  0  0  0  0
   -5.7488    3.6105   -0.3070 N   0  0  0  0  0  0  0  0  0  0  0  0
   -4.8228    3.2906   -1.3314 C   0  0  0  0  0  0  0  0  0  0  0  0
   -6.1642    3.7146    2.0422 N   0  0  0  0  0  0  0  0  0  0  0  0
   -3.1329    0.5283    0.2786 C   0  0  1  0  0  0  0  0  0  0  0  0
   -4.3222   -0.4902   -0.7021 S   0  0  0  0  0  0  0  0  0  0  0  0
   -3.0385   -1.6431   -1.3510 C   0  0  0  0  0  0  0  0  0  0  0  0
   -1.9321   -1.2658   -0.4497 N   0  0  0  0  0  0  0  0  0  0  0  0
   -1.9136    0.2086   -0.4979 C   0  0  0  0  0  0  0  0  0  0  0  0
   -3.4380   -3.0602   -1.1484 C   0  0  0  0  0  0  0  0  0  0  0  0
   -2.3424   -3.9398   -1.7009 C   0  0  0  0  0  0  0  0  0  0  0  0
   -3.6983   -3.4092    0.2873 C   0  0  0  0  0  0  0  0  0  0  0  0
   -4.6752   -3.3163   -1.9923 C   0  0  0  0  0  0  0  0  0  0  0  0
   -0.6543    0.7348    0.0839 C   0  0  2  0  0  0  0  0  0  0  0  0
    1.6528   -0.0634    0.2187 C   0  0  2  0  0  0  0  0  0  0  0  0
    0.5638    0.4218   -0.7429 C   0  0  0  0  0  0  0  0  0  0  0  0
    1.8100    1.0232    1.2888 C   0  0  0  0  0  0  0  0  0  0  0  0
   -0.5316    0.3370    1.5179 C   0  0  0  0  0  0  0  0  0  0  0  0
    0.6672    0.8654    2.2341 C   0  0  0  0  0  0  0  0  0  0  0  0
    1.0113    1.5097   -1.4685 F   0  0  0  0  0  0  0  0  0  0  0  0
    2.9074   -0.1892   -0.4804 N   0  0  0  0  0  0  0  0  0  0  0  0
    4.1316   -0.7922    0.5763 S   0  0  0  0  0  0  0  0  0  0  0  0
    5.3980    0.3459    0.5170 C   0  0  0  0  0  0  0  0  0  0  0  0
    6.7147   -0.5075   -1.4627 C   0  0  0  0  0  0  0  0  0  0  0  0
    5.9407    0.6233   -0.8656 C   0  0  0  0  0  0  0  0  0  0  0  0
    7.6841   -1.1079   -0.5003 C   0  0  0  0  0  0  0  0  0  0  0  0
    6.5577    0.0292    1.4234 C   0  0  0  0  0  0  0  0  0  0  0  0
    7.8517   -0.1876    0.6753 C   0  0  0  0  0  0  0  0  0  0  0  0
    6.2798   -1.0915    2.2136 F   0  0  0  0  0  0  0  0  0  0  0  0
    4.9566    1.0857   -1.7085 F   0  0  0  0  0  0  0  0  0  0  0  0
    3.5688   -1.2414    1.8598 O   0  0  0  0  0  0  0  0  0  0  0  0
    4.6836   -2.1602   -0.2951 O   0  0  0  0  0  0  0  0  0  0  0  0
   -4.3654    3.7674    0.1500 C   0  0  0  0  0  0  0  0  0  0  0  0
   -3.0687    1.8298   -0.0158 C   0  0  2  0  0  0  0  0  0  0  0  0
   -4.3375    2.3636    0.5043 N   0  0  0  0  0  0  0  0  0  0  0  0
   -2.9571    2.0130   -1.5006 C   0  0  0  0  0  0  0  0  0  0  0  0
   -4.6224    3.8109   -1.2925 N   0  0  0  0  0  0  0  0  0  0  0  0
   -3.4942    3.3085   -2.0031 C   0  0  0  0  0  0  0  0  0  0  0  0
   -5.4106    4.4698    0.8708 N   0  0  0  0  0  0  0  0  0  0  0  0
   -3.0273    0.3900    0.3723 C   0  0  1  0  0  0  0  0  0  0  0  0
   -4.4674   -0.4926   -0.3696 S   0  0  0  0  0  0  0  0  0  0  0  0
   -3.5240   -1.9977   -0.8685 C   0  0  1  0  0  0  0  0  0  0  0  0
   -2.3112   -1.7720   -0.0640 N   0  0  0  0  0  0  0  0  0  0  0  0
   -1.9317   -0.3972   -0.3089 C   0  0  2  0  0  0  0  0  0  0  0  0
   -4.3155   -3.1562   -0.3559 C   0  0  0  0  0  0  0  0  0  0  0  0
   -3.6934   -4.4951   -0.6718 C   0  0  0  0  0  0  0  0  0  0  0  0
   -4.5239   -2.9712    1.1331 C   0  0  0  0  0  0  0  0  0  0  0  0
   -5.6788   -3.1227   -1.0183 C   0  0  0  0  0  0  0  0  0  0  0  0
   -0.5800   -0.0568    0.1782 C   0  0  2  0  0  0  0  0  0  0  0  0
    1.7488   -0.7480    0.3472 C   0  0  2  0  0  0  0  0  0  0  0  0
    0.4928   -0.8322   -0.5065 C   0  0  0  0  0  0  0  0  0  0  0  0
    1.8181    0.6688    0.9023 C   0  0  0  0  0  0  0  0  0  0  0  0
   -0.4015   -0.1446    1.6703 C   0  0  0  0  0  0  0  0  0  0  0  0
    0.8084    0.7308    2.0261 C   0  0  0  0  0  0  0  0  0  0  0  0
    0.7556   -0.3427   -1.7926 F   0  0  0  0  0  0  0  0  0  0  0  0
    2.9235   -1.1399   -0.3542 N   0  0  0  0  0  0  0  0  0  0  0  0
    4.2612   -1.1266    0.5021 S   0  0  0  0  0  0  0  0  0  0  0  0
    5.5418   -0.2181   -0.0989 C   0  0  0  0  0  0  0  0  0  0  0  0
    6.5402    1.9646   -0.7493 C   0  0  0  0  0  0  0  0  0  0  0  0
    5.3078    1.2467   -0.2456 C   0  0  0  0  0  0  0  0  0  0  0  0
    7.6836    1.0348   -1.0387 C   0  0  0  0  0  0  0  0  0  0  0  0
    6.7758   -0.4199    0.7741 C   0  0  2  0  0  0  0  0  0  0  0  0
    8.0100    0.1666    0.1717 C   0  0  0  0  0  0  0  0  0  0  0  0
    6.8943   -1.8032    0.9461 F   0  0  0  0  0  0  0  0  0  0  0  0
    4.2249    1.4894   -1.0852 F   0  0  0  0  0  0  0  0  0  0  0  0
    4.8932   -2.7577    0.3619 O   0  0  0  0  0  0  0  0  0  0  0  0
    4.0665   -0.9347    2.0313 O   0  0  0  0  0  0  0  0  0  0  0  0
   -5.8582    2.7393   -0.2384 H   0  0  0  0  0  0  0  0  0  0  0  0
   -4.1330    1.5658    0.6568 H   0  0  0  0  0  0  0  0  0  0  0  0
   -4.6015    1.5333   -1.7061 H   0  0  0  0  0  0  0  0  0  0  0  0
   -1.4640    2.8371   -0.0369 H   0  0  0  0  0  0  0  0  0  0  0  0
   -2.3031    2.7763    1.5402 H   0  0  0  0  0  0  0  0  0  0  0  0
   -4.8037    5.1560   -0.0893 H   0  0  0  0  0  0  0  0  0  0  0  0
   -2.5862    4.5846   -0.8030 H   0  0  0  0  0  0  0  0  0  0  0  0
   -2.7044    4.9174    0.9489 H   0  0  0  0  0  0  0  0  0  0  0  0
   -5.7228    4.9940   -1.6319 H   0  0  0  0  0  0  0  0  0  0  0  0
   -4.9913    3.9336   -2.7194 H   0  0  0  0  0  0  0  0  0  0  0  0
   -1.8223    0.7969   -1.1568 H   0  0  0  0  0  0  0  0  0  0  0  0
   -2.1591   -2.5709   -0.9075 H   0  0  0  0  0  0  0  0  0  0  0  0
   -2.1727   -2.0338    1.7069 H   0  0  0  0  0  0  0  0  0  0  0  0
   -2.6245    0.3367    1.7021 H   0  0  0  0  0  0  0  0  0  0  0  0
   -3.8959   -5.1864    0.8898 H   0  0  0  0  0  0  0  0  0  0  0  0
   -2.8728   -3.9473    1.7796 H   0  0  0  0  0  0  0  0  0  0  0  0
   -2.3565   -4.6251    0.2200 H   0  0  0  0  0  0  0  0  0  0  0  0
   -5.5667   -3.4993    1.4783 H   0  0  0  0  0  0  0  0  0  0  0  0
   -4.8976   -1.8586    1.4580 H   0  0  0  0  0  0  0  0  0  0  0  0
   -5.9480   -2.4717    0.0865 H   0  0  0  0  0  0  0  0  0  0  0  0
   -3.5166   -4.0910   -1.8552 H   0  0  0  0  0  0  0  0  0  0  0  0
   -4.9424   -4.7375   -1.0293 H   0  0  0  0  0  0  0  0  0  0  0  0
   -5.0432   -3.0949   -1.8694 H   0  0  0  0  0  0  0  0  0  0  0  0
   -0.5375    1.1980    1.3355 H   0  0  0  0  0  0  0  0  0  0  0  0
    1.6134   -1.4921    0.9391 H   0  0  0  0  0  0  0  0  0  0  0  0
   -0.0428   -1.1103   -0.6371 H   0  0  0  0  0  0  0  0  0  0  0  0
    1.4812    1.5042    1.1994 H   0  0  0  0  0  0  0  0  0  0  0  0
    2.9135    0.6645    1.8118 H   0  0  0  0  0  0  0  0  0  0  0  0
   -0.0746   -1.6744    2.0713 H   0  0  0  0  0  0  0  0  0  0  0  0
   -0.9879   -0.5160    3.0903 H   0  0  0  0  0  0  0  0  0  0  0  0
    1.7516   -0.6693    3.2945 H   0  0  0  0  0  0  0  0  0  0  0  0
    0.8644    0.9109    3.4270 H   0  0  0  0  0  0  0  0  0  0  0  0
    2.2935   -1.1221   -1.3225 H   0  0  0  0  0  0  0  0  0  0  0  0
    4.6274    1.4181    0.3618 H   0  0  0  0  0  0  0  0  0  0  0  0
    5.2455   -0.6352   -2.9166 H   0  0  0  0  0  0  0  0  0  0  0  0
    6.0796    0.7944   -3.5474 H   0  0  0  0  0  0  0  0  0  0  0  0
    5.4647    2.1216   -1.6282 H   0  0  0  0  0  0  0  0  0  0  0  0
    7.1944   -1.4435   -2.0295 H   0  0  0  0  0  0  0  0  0  0  0  0
    7.9974   -0.0578   -2.7571 H   0  0  0  0  0  0  0  0  0  0  0  0
    6.5077   -0.3765    1.0719 H   0  0  0  0  0  0  0  0  0  0  0  0
    8.1703    1.1917   -0.8974 H   0  0  0  0  0  0  0  0  0  0  0  0
    8.3283   -0.4614   -0.2674 H   0  0  0  0  0  0  0  0  0  0  0  0
    4.5735   -1.0484    2.1509 H   0  0  0  0  0  0  0  0  0  0  0  0
    4.0847   -2.7032   -1.2418 H   0  0  0  0  0  0  0  0  0  0  0  0
   -2.7120    4.7220   -1.4018 H   0  0  0  0  0  0  0  0  0  0  0  0
   -4.8078    2.0635   -0.0887 H   0  0  0  0  0  0  0  0  0  0  0  0
   -2.5667    2.9609    0.4477 H   0  0  0  0  0  0  0  0  0  0  0  0
   -5.2961    1.2813   -2.0953 H   0  0  0  0  0  0  0  0  0  0  0  0
   -3.7242    0.5686   -2.4457 H   0  0  0  0  0  0  0  0  0  0  0  0
   -5.3676    3.5510   -1.7076 H   0  0  0  0  0  0  0  0  0  0  0  0
   -4.5041    2.5520   -3.8235 H   0  0  0  0  0  0  0  0  0  0  0  0
   -2.8868    2.8703   -3.0582 H   0  0  0  0  0  0  0  0  0  0  0  0
   -4.4651    5.6763   -0.2033 H   0  0  0  0  0  0  0  0  0  0  0  0
   -5.1005    4.1841    0.1763 H   0  0  0  0  0  0  0  0  0  0  0  0
   -3.1840    0.8312    1.2273 H   0  0  0  0  0  0  0  0  0  0  0  0
   -3.4405   -1.7610   -1.9553 H   0  0  0  0  0  0  0  0  0  0  0  0
   -2.0223   -1.8719    0.6237 H   0  0  0  0  0  0  0  0  0  0  0  0
   -1.8467    0.2351   -1.4381 H   0  0  0  0  0  0  0  0  0  0  0  0
   -3.2120   -5.2584   -1.4570 H   0  0  0  0  0  0  0  0  0  0  0  0
   -1.7736   -4.6284   -0.6371 H   0  0  0  0  0  0  0  0  0  0  0  0
   -2.3262   -3.9206   -2.2197 H   0  0  0  0  0  0  0  0  0  0  0  0
   -3.8703   -2.6174    1.4879 H   0  0  0  0  0  0  0  0  0  0  0  0
   -2.4267   -3.7546    1.3127 H   0  0  0  0  0  0  0  0  0  0  0  0
   -4.1489   -4.3743    1.2941 H   0  0  0  0  0  0  0  0  0  0  0  0
   -5.2025   -3.2765   -1.8612 H   0  0  0  0  0  0  0  0  0  0  0  0
   -5.2040   -4.7915   -0.7957 H   0  0  0  0  0  0  0  0  0  0  0  0
   -5.6497   -3.2009   -0.0992 H   0  0  0  0  0  0  0  0  0  0  0  0
   -0.6913    1.4689    0.3560 H   0  0  0  0  0  0  0  0  0  0  0  0
    1.4674   -1.2596    1.3136 H   0  0  0  0  0  0  0  0  0  0  0  0
    0.0114   -1.3911   -0.4522 H   0  0  0  0  0  0  0  0  0  0  0  0
    1.2565    1.7526    0.8705 H   0  0  0  0  0  0  0  0  0  0  0  0
    2.4099    1.0830    2.0281 H   0  0  0  0  0  0  0  0  0  0  0  0
   -0.4800   -1.1740    1.9128 H   0  0  0  0  0  0  0  0  0  0  0  0
   -1.7144    0.0378    2.3818 H   0  0  0  0  0  0  0  0  0  0  0  0
   -0.0261    1.6377    2.9171 H   0  0  0  0  0  0  0  0  0  0  0  0
    0.7178    0.0740    3.3661 H   0  0  0  0  0  0  0  0  0  0  0  0
    2.6385   -1.3857   -0.6619 H   0  0  0  0  0  0  0  0  0  0  0  0
    4.4096    1.6812    0.8783 H   0  0  0  0  0  0  0  0  0  0  0  0
    6.1228   -1.0515   -1.4801 H   0  0  0  0  0  0  0  0  0  0  0  0
    6.9833    0.3795   -2.1260 H   0  0  0  0  0  0  0  0  0  0  0  0
    4.5709    0.6856   -1.4179 H   0  0  0  0  0  0  0  0  0  0  0  0
    7.6327   -1.1802    0.3432 H   0  0  0  0  0  0  0  0  0  0  0  0
    8.6538   -0.1275   -0.6530 H   0  0  0  0  0  0  0  0  0  0  0  0
    6.1783   -0.0338    2.2841 H   0  0  0  0  0  0  0  0  0  0  0  0
    8.3438    0.8001    1.6197 H   0  0  0  0  0  0  0  0  0  0  0  0
    7.6573    1.8672    0.3646 H   0  0  0  0  0  0  0  0  0  0  0  0
    4.4096   -2.7226    0.3588 H   0  0  0  0  0  0  0  0  0  0  0  0
    3.8771   -0.5631    3.2243 H   0  0  0  0  0  0  0  0  0  0  0  0
   -4.3123    4.0091    1.1215 H   0  0  0  0  0  0  0  0  0  0  0  0
   -2.8796    2.4338    1.1268 H   0  0  0  0  0  0  0  0  0  0  0  0
   -4.7176    1.7144    2.0316 H   0  0  0  0  0  0  0  0  0  0  0  0
   -3.1007    2.1460   -1.7413 H   0  0  0  0  0  0  0  0  0  0  0  0
   -2.8008    3.6042   -0.7969 H   0  0  0  0  0  0  0  0  0  0  0  0
   -6.6384    3.0333   -0.3798 H   0  0  0  0  0  0  0  0  0  0  0  0
   -5.3134    2.5711   -2.0351 H   0  0  0  0  0  0  0  0  0  0  0  0
   -4.6567    4.2152   -1.9410 H   0  0  0  0  0  0  0  0  0  0  0  0
   -6.0514    4.7412    2.2485 H   0  0  0  0  0  0  0  0  0  0  0  0
   -7.1597    3.5659    1.8134 H   0  0  0  0  0  0  0  0  0  0  0  0
   -3.0952    0.0163    1.2565 H   0  0  0  0  0  0  0  0  0  0  0  0
   -2.8118   -1.4443   -2.3934 H   0  0  0  0  0  0  0  0  0  0  0  0
   -1.0852   -1.6979   -0.8220 H   0  0  0  0  0  0  0  0  0  0  0  0
   -2.0147    0.4240   -1.5963 H   0  0  0  0  0  0  0  0  0  0  0  0
   -2.7239   -4.9217   -2.0415 H   0  0  0  0  0  0  0  0  0  0  0  0
   -1.5041   -4.0468   -0.9553 H   0  0  0  0  0  0  0  0  0  0  0  0
   -1.8635   -3.4718   -2.6041 H   0  0  0  0  0  0  0  0  0  0  0  0
   -4.3511   -4.3172    0.2963 H   0  0  0  0  0  0  0  0  0  0  0  0
   -4.1858   -2.5807    0.8441 H   0  0  0  0  0  0  0  0  0  0  0  0
   -2.7764   -3.6897    0.8362 H   0  0  0  0  0  0  0  0  0  0  0  0
   -4.3815   -3.7050   -2.9895 H   0  0  0  0  0  0  0  0  0  0  0  0
   -5.3092   -4.1099   -1.5326 H   0  0  0  0  0  0  0  0  0  0  0  0
   -5.3052   -2.4167   -2.0675 H   0  0  0  0  0  0  0  0  0  0  0  0
   -0.7323    1.8632    0.0820 H   0  0  0  0  0  0  0  0  0  0  0  0
    1.2970   -1.0094    0.6419 H   0  0  0  0  0  0  0  0  0  0  0  0
    0.3142   -0.3860   -1.4528 H   0  0  0  0  0  0  0  0  0  0  0  0
    1.6610    1.9848    0.7411 H   0  0  0  0  0  0  0  0  0  0  0  0
    2.7978    0.9347    1.7339 H   0  0  0  0  0  0  0  0  0  0  0  0
   -0.5917   -0.7547    1.6871 H   0  0  0  0  0  0  0  0  0  0  0  0
   -1.4239    0.7738    2.0511 H   0  0  0  0  0  0  0  0  0  0  0  0
    0.9470    0.1796    3.0769 H   0  0  0  0  0  0  0  0  0  0  0  0
    0.4632    1.8506    2.7319 H   0  0  0  0  0  0  0  0  0  0  0  0
    2.7867   -0.7759   -1.3105 H   0  0  0  0  0  0  0  0  0  0  0  0
    4.9838    1.3394    0.8637 H   0  0  0  0  0  0  0  0  0  0  0  0
    6.0645   -1.2781   -1.9534 H   0  0  0  0  0  0  0  0  0  0  0  0
    7.2910   -0.0669   -2.3305 H   0  0  0  0  0  0  0  0  0  0  0  0
    6.6568    1.4875   -0.7390 H   0  0  0  0  0  0  0  0  0  0  0  0
    7.4292   -2.1418   -0.1877 H   0  0  0  0  0  0  0  0  0  0  0  0
    8.6846   -1.1929   -0.9869 H   0  0  0  0  0  0  0  0  0  0  0  0
    6.7501    0.8485    2.1448 H   0  0  0  0  0  0  0  0  0  0  0  0
    8.2577    0.7738    0.3063 H   0  0  0  0  0  0  0  0  0  0  0  0
    8.5839   -0.6262    1.3963 H   0  0  0  0  0  0  0  0  0  0  0  0
    4.0295   -1.2445    2.7125 H   0  0  0  0  0  0  0  0  0  0  0  0
    3.9726   -2.5075   -0.8750 H   0  0  0  0  0  0  0  0  0  0  0  0
   -3.3900    4.1958    0.3834 H   0  0  0  0  0  0  0  0  0  0  0  0
   -2.2710    2.3635    0.5062 H   0  0  0  0  0  0  0  0  0  0  0  0
   -5.1237    1.8990   -0.0318 H   0  0  0  0  0  0  0  0  0  0  0  0
   -3.4404    1.1396   -2.0273 H   0  0  0  0  0  0  0  0  0  0  0  0
   -1.8801    1.9545   -1.7640 H   0  0  0  0  0  0  0  0  0  0  0  0
   -5.4282    3.1646   -1.4545 H   0  0  0  0  0  0  0  0  0  0  0  0
   -3.8192    3.1356   -3.0709 H   0  0  0  0  0  0  0  0  0  0  0  0
   -2.7111    4.1105   -2.0746 H   0  0  0  0  0  0  0  0  0  0  0  0
   -5.1729    5.4722    0.8978 H   0  0  0  0  0  0  0  0  0  0  0  0
   -6.3583    4.2432    0.5431 H   0  0  0  0  0  0  0  0  0  0  0  0
   -3.1000    0.2429    1.4463 H   0  0  0  0  0  0  0  0  0  0  0  0
   -3.3203   -2.0033   -1.9380 H   0  0  0  0  0  0  0  0  0  0  0  0
   -1.6395   -2.4774   -0.3732 H   0  0  0  0  0  0  0  0  0  0  0  0
   -1.9864   -0.1397   -1.3899 H   0  0  0  0  0  0  0  0  0  0  0  0
   -4.5198   -5.2480   -0.6397 H   0  0  0  0  0  0  0  0  0  0  0  0
   -2.9399   -4.6999    0.1350 H   0  0  0  0  0  0  0  0  0  0  0  0
   -3.2394   -4.4825   -1.6702 H   0  0  0  0  0  0  0  0  0  0  0  0
   -4.2533   -3.9191    1.6200 H   0  0  0  0  0  0  0  0  0  0  0  0
   -3.8675   -2.1759    1.5449 H   0  0  0  0  0  0  0  0  0  0  0  0
   -5.5622   -2.7246    1.3912 H   0  0  0  0  0  0  0  0  0  0  0  0
   -5.6385   -3.3495   -2.0903 H   0  0  0  0  0  0  0  0  0  0  0  0
   -6.2987   -3.9035   -0.5288 H   0  0  0  0  0  0  0  0  0  0  0  0
   -6.1771   -2.1554   -0.7977 H   0  0  0  0  0  0  0  0  0  0  0  0
   -0.4031    1.0290   -0.0822 H   0  0  0  0  0  0  0  0  0  0  0  0
    1.6033   -1.4392    1.1998 H   0  0  0  0  0  0  0  0  0  0  0  0
    0.2909   -1.9104   -0.6421 H   0  0  0  0  0  0  0  0  0  0  0  0
    1.5931    1.4009    0.0987 H   0  0  0  0  0  0  0  0  0  0  0  0
    2.8508    0.8696    1.2331 H   0  0  0  0  0  0  0  0  0  0  0  0
   -0.2627   -1.1853    1.9770 H   0  0  0  0  0  0  0  0  0  0  0  0
   -1.2354    0.2685    2.2516 H   0  0  0  0  0  0  0  0  0  0  0  0
    0.4661    1.7723    2.1773 H   0  0  0  0  0  0  0  0  0  0  0  0
    1.2801    0.2829    2.9152 H   0  0  0  0  0  0  0  0  0  0  0  0
    2.9304   -0.8974   -1.3640 H   0  0  0  0  0  0  0  0  0  0  0  0
    5.8435   -0.6032   -1.1166 H   0  0  0  0  0  0  0  0  0  0  0  0
    6.3197    2.5204   -1.6816 H   0  0  0  0  0  0  0  0  0  0  0  0
    6.9228    2.7104    0.0000 H   0  0  0  0  0  0  0  0  0  0  0  0
    5.0366    1.7176    0.7292 H   0  0  0  0  0  0  0  0  0  0  0  0
    8.5766    1.6305   -1.2600 H   0  0  0  0  0  0  0  0  0  0  0  0
    7.4952    0.3436   -1.8797 H   0  0  0  0  0  0  0  0  0  0  0  0
    6.5501    0.0245    1.7791 H   0  0  0  0  0  0  0  0  0  0  0  0
    8.5905    0.7511    0.9358 H   0  0  0  0  0  0  0  0  0  0  0  0
    8.6608   -0.6548   -0.2000 H   0  0  0  0  0  0  0  0  0  0  0  0
    4.3558   -3.3294    0.9632 H   0  0  0  0  0  0  0  0  0  0  0  0
    4.6369   -0.2694    2.5147 H   0  0  0  0  0  0  0  0  0  0  0  0
  1  3  1  0
  2  3  1  0
  2  4  1  0
  1  5  1  0
  4  6  1  0
  5  6  1  0
  1  7  1  0
  2  8  1  0
  8  9  1  0
  9 10  1  0
 10 11  1  0
  8 12  1  0
 11 12  1  0
 10 13  1  0
 13 14  1  0
 13 15  1  0
 13 16  1  0
 12 17  1  0
 17 19  1  0
 18 19  1  0
 18 20  1  0
 17 21  1  0
 20 22  1  0
 21 22  1  0
 19 23  1  0
 18 24  1  0
 24 25  1  0
 25 26  1  0
 26 28  1  0
 27 28  1  0
 27 29  1  0
 26 30  1  0
 29 31  1  0
 30 31  1  0
 30 32  1  0
 28 33  1  0
 25 34  1  0
 25 35  1  0
 36 38  1  0
 37 38  1  0
 37 39  1  0
 36 40  1  0
 39 41  1  0
 40 41  1  0
 36 42  1  0
 37 43  1  0
 43 44  1  0
 44 45  1  0
 45 46  1  0
 43 47  1  0
 46 47  1  0
 45 48  1  0
 48 49  1  0
 48 50  1  0
 48 51  1  0
 47 52  1  0
 52 54  1  0
 53 54  1  0
 53 55  1  0
 52 56  1  0
 55 57  1  0
 56 57  1  0
 54 58  1  0
 53 59  1  0
 59 60  1  0
 60 61  1  0
 61 63  1  0
 62 63  1  0
 62 64  1  0
 61 65  1  0
 64 66  1  0
 65 66  1  0
 65 67  1  0
 63 68  1  0
 60 69  1  0
 60 70  1  0
 71 73  1  0
 72 73  1  0
 72 74  1  0
 71 75  1  0
 74 76  1  0
 75 76  1  0
 71 77  1  0
 72 78  1  0
 78 79  1  0
 79 80  1  0
 80 81  1  0
 78 82  1  0
 81 82  1  0
 80 83  1  0
 83 84  1  0
 83 85  1  0
 83 86  1  0
 82 87  1  0
 87 89  1  0
 88 89  1  0
 88 90  1  0
 87 91  1  0
 90 92  1  0
 91 92  1  0
 89 93  1  0
 88 94  1  0
 94 95  1  0
 95 96  1  0
 96 98  1  0
 97 98  1  0
 97 99  1  0
 96100  1  0
 99101  1  0
100101  1  0
100102  1  0
 98103  1  0
 95104  1  0
 95105  1  0
106108  1  0
107108  1  0
107109  1  0
106110  1  0
109111  1  0
110111  1  0
106112  1  0
107113  1  0
113114  1  0
114115  1  0
115116  1  0
113117  1  0
116117  1  0
115118  1  0
118119  1  0
118120  1  0
118121  1  0
117122  1  0
122124  1  0
123124  1  0
123125  1  0
122126  1  0
125127  1  0
126127  1  0
124128  1  0
123129  1  0
129130  1  0
130131  1  0
131133  1  0
132133  1  0
132134  1  0
131135  1  0
134136  1  0
135136  1  0
135137  1  0
133138  1  0
130139  1  0
130140  1  0
  1141  1  0
  2142  1  1
  3143  1  0
  4144  1  0
  4145  1  0
  5146  1  0
  6147  1  0
  6148  1  0
  7149  1  0
  7150  1  0
  8151  1  0
 10152  1  6
 11153  1  0
 12154  1  0
 14155  1  0
 14156  1  0
 14157  1  0
 15158  1  0
 15159  1  0
 15160  1  0
 16161  1  0
 16162  1  0
 16163  1  0
 17164  1  1
 18165  1  1
 19166  1  0
 20167  1  0
 20168  1  0
 21169  1  0
 21170  1  0
 22171  1  0
 22172  1  0
 24173  1  0
 26174  1  0
 27175  1  0
 27176  1  0
 28177  1  0
 29178  1  0
 29179  1  0
 30180  1  0
 31181  1  0
 31182  1  0
 34183  1  0
 35184  1  0
 36185  1  0
 37186  1  0
 38187  1  0
 39188  1  0
 39189  1  0
 40190  1  0
 41191  1  0
 41192  1  0
 42193  1  0
 42194  1  0
 43195  1  0
 45196  1  6
 46197  1  0
 47198  1  6
 49199  1  0
 49200  1  0
 49201  1  0
 50202  1  0
 50203  1  0
 50204  1  0
 51205  1  0
 51206  1  0
 51207  1  0
 52208  1  1
 53209  1  0
 54210  1  0
 55211  1  0
 55212  1  0
 56213  1  0
 56214  1  0
 57215  1  0
 57216  1  0
 59217  1  0
 61218  1  0
 62219  1  0
 62220  1  0
 63221  1  0
 64222  1  0
 64223  1  0
 65224  1  0
 66225  1  0
 66226  1  0
 69227  1  0
 70228  1  0
 71229  1  0
 72230  1  1
 73231  1  0
 74232  1  0
 74233  1  0
 75234  1  0
 76235  1  0
 76236  1  0
 77237  1  0
 77238  1  0
 78239  1  1
 80240  1  0
 81241  1  0
 82242  1  0
 84243  1  0
 84244  1  0
 84245  1  0
 85246  1  0
 85247  1  0
 85248  1  0
 86249  1  0
 86250  1  0
 86251  1  0
 87252  1  1
 88253  1  1
 89254  1  0
 90255  1  0
 90256  1  0
 91257  1  0
 91258  1  0
 92259  1  0
 92260  1  0
 94261  1  0
 96262  1  0
 97263  1  0
 97264  1  0
 98265  1  0
 99266  1  0
 99267  1  0
100268  1  0
101269  1  0
101270  1  0
104271  1  0
105272  1  0
106273  1  0
107274  1  1
108275  1  0
109276  1  0
109277  1  0
110278  1  0
111279  1  0
111280  1  0
112281  1  0
112282  1  0
113283  1  1
115284  1  6
116285  1  0
117286  1  6
119287  1  0
119288  1  0
119289  1  0
120290  1  0
120291  1  0
120292  1  0
121293  1  0
121294  1  0
121295  1  0
122296  1  6
123297  1  1
124298  1  0
125299  1  0
125300  1  0
126301  1  0
126302  1  0
127303  1  0
127304  1  0
129305  1  0
131306  1  0
132307  1  0
132308  1  0
133309  1  0
134310  1  0
134311  1  0
135312  1  1
136313  1  0
136314  1  0
139315  1  0
140316  1  0
M  END
>  <PDBID>  (1) 
5HIE

>  <PDB ID>  (1) 
5HIE

>  <Generic Name>  (1) 
Dabrafenib

>  <Brand Name>  (1) 
Tafinlar

>  <DrugBank ID>  (1) 
DB08912

>  <ATC Codes>  (1) 
L01XE23

>  <Ligand ID>  (1) 
P06

>  <Target Name>  (1) 
RAF proto-oncogene serine/threonine-protein kinase

>  <UniProt ID>  (1) 
P04049

>  <PDB ID.1>  (1) 
5HIE

>  <Seq. Identity>  (1) 
77%

$$$$
