PDB_DB00421_05
     RDKit          3D

138146  0  0  0  0  0  0  0  0999 V2000
    3.2743    1.3123   -1.0894 C   0  0  0  0  0  0  0  0  0  0  0  0
    1.7644   -1.6772    0.5312 C   0  0  0  0  0  0  0  0  0  0  0  0
    2.0824   -0.5540   -0.3730 C   0  0  1  0  0  0  0  0  0  0  0  0
   -1.8016   -1.4022    0.2045 C   0  0  1  0  0  0  0  0  0  0  0  0
    1.2253    0.6595   -0.0229 C   0  0  1  0  0  0  0  0  0  0  0  0
   -2.2514   -2.5963    1.0033 C   0  0  0  0  0  0  0  0  0  0  0  0
    0.4828   -1.5835    1.2953 C   0  0  0  0  0  0  0  0  0  0  0  0
    1.8077    1.6957   -0.9252 C   0  0  0  0  0  0  0  0  0  0  0  0
    3.4499    0.0153   -0.3053 C   0  0  2  0  0  0  0  0  0  0  0  0
    1.8411   -0.9636   -1.8224 C   0  0  0  0  0  0  0  0  0  0  0  0
   -1.6530   -1.8594   -1.2246 C   0  0  0  0  0  0  0  0  0  0  0  0
   -3.6118   -3.0921    0.6697 C   0  0  0  0  0  0  0  0  0  0  0  0
    3.9402    0.3733    1.0560 C   0  0  0  0  0  0  0  0  0  0  0  0
    5.3594   -0.1775    1.0406 C   0  0  0  0  0  0  0  0  0  0  0  0
    5.5888   -0.3889   -0.4363 C   0  0  0  0  0  0  0  0  0  0  0  0
   -1.5640    4.1705   -0.3157 C   0  0  0  0  0  0  0  0  0  0  0  0
   -1.6426    5.3289    0.6379 C   0  0  0  0  0  0  0  0  0  0  0  0
   -4.6322   -2.0639    0.3355 C   0  0  0  0  0  0  0  0  0  0  0  0
   -4.1151   -0.9258   -0.4978 C   0  0  0  0  0  0  0  0  0  0  0  0
   -2.9020   -0.3764    0.2441 C   0  0  2  0  0  0  0  0  0  0  0  0
   -2.5683    0.9772   -0.2268 C   0  0  0  0  0  0  0  0  0  0  0  0
   -1.1593    1.3022   -0.5496 C   0  0  2  0  0  0  0  0  0  0  0  0
   -0.1606    0.2239   -0.3490 C   0  0  2  0  0  0  0  0  0  0  0  0
   -0.5839   -0.7322    0.7570 C   0  0  1  0  0  0  0  0  0  0  0  0
    6.5418   -1.3618   -0.7014 O   0  0  0  0  0  0  0  0  0  0  0  0
    4.3625   -0.8370   -0.8946 O   0  0  0  0  0  0  0  0  0  0  0  0
   -2.8709    3.7503   -0.6098 O   0  0  0  0  0  0  0  0  0  0  0  0
   -5.6302   -2.6802   -0.4371 O   0  0  0  0  0  0  0  0  0  0  0  0
   -0.5988    2.7820    0.3692 S   0  0  0  0  0  0  0  0  0  0  0  0
    3.2743    1.3123   -1.0894 C   0  0  0  0  0  0  0  0  0  0  0  0
    1.7644   -1.6772    0.5312 C   0  0  0  0  0  0  0  0  0  0  0  0
    2.0824   -0.5540   -0.3730 C   0  0  1  0  0  0  0  0  0  0  0  0
   -1.8016   -1.4022    0.2045 C   0  0  1  0  0  0  0  0  0  0  0  0
    1.2253    0.6595   -0.0229 C   0  0  1  0  0  0  0  0  0  0  0  0
   -2.2514   -2.5963    1.0033 C   0  0  0  0  0  0  0  0  0  0  0  0
    0.4828   -1.5835    1.2953 C   0  0  0  0  0  0  0  0  0  0  0  0
    1.8077    1.6957   -0.9252 C   0  0  0  0  0  0  0  0  0  0  0  0
    3.4499    0.0153   -0.3053 C   0  0  2  0  0  0  0  0  0  0  0  0
    1.8411   -0.9636   -1.8224 C   0  0  0  0  0  0  0  0  0  0  0  0
   -1.6530   -1.8594   -1.2246 C   0  0  0  0  0  0  0  0  0  0  0  0
   -3.6118   -3.0921    0.6697 C   0  0  0  0  0  0  0  0  0  0  0  0
    3.9402    0.3733    1.0560 C   0  0  0  0  0  0  0  0  0  0  0  0
    5.3594   -0.1775    1.0406 C   0  0  0  0  0  0  0  0  0  0  0  0
    5.5888   -0.3889   -0.4363 C   0  0  0  0  0  0  0  0  0  0  0  0
   -1.5640    4.1705   -0.3157 C   0  0  0  0  0  0  0  0  0  0  0  0
   -1.6426    5.3289    0.6379 C   0  0  0  0  0  0  0  0  0  0  0  0
   -4.6322   -2.0639    0.3355 C   0  0  0  0  0  0  0  0  0  0  0  0
   -4.1151   -0.9258   -0.4978 C   0  0  0  0  0  0  0  0  0  0  0  0
   -2.9020   -0.3764    0.2441 C   0  0  2  0  0  0  0  0  0  0  0  0
   -2.5683    0.9772   -0.2268 C   0  0  0  0  0  0  0  0  0  0  0  0
   -1.1593    1.3022   -0.5496 C   0  0  2  0  0  0  0  0  0  0  0  0
   -0.1606    0.2239   -0.3490 C   0  0  2  0  0  0  0  0  0  0  0  0
   -0.5839   -0.7322    0.7570 C   0  0  1  0  0  0  0  0  0  0  0  0
    6.5418   -1.3618   -0.7014 O   0  0  0  0  0  0  0  0  0  0  0  0
    4.3625   -0.8370   -0.8946 O   0  0  0  0  0  0  0  0  0  0  0  0
   -2.8709    3.7503   -0.6098 O   0  0  0  0  0  0  0  0  0  0  0  0
   -5.6302   -2.6802   -0.4371 O   0  0  0  0  0  0  0  0  0  0  0  0
   -0.5988    2.7820    0.3692 S   0  0  0  0  0  0  0  0  0  0  0  0
    3.9573    2.0783   -0.6960 H   0  0  0  0  0  0  0  0  0  0  0  0
    3.5131    1.0588   -2.1461 H   0  0  0  0  0  0  0  0  0  0  0  0
    1.7757   -2.6193   -0.0766 H   0  0  0  0  0  0  0  0  0  0  0  0
    2.6373   -1.8068    1.2231 H   0  0  0  0  0  0  0  0  0  0  0  0
    1.4080    0.8867    1.0369 H   0  0  0  0  0  0  0  0  0  0  0  0
   -1.5592   -3.4324    0.7224 H   0  0  0  0  0  0  0  0  0  0  0  0
   -2.1011   -2.4626    2.1029 H   0  0  0  0  0  0  0  0  0  0  0  0
    0.7701   -1.2554    2.3303 H   0  0  0  0  0  0  0  0  0  0  0  0
    0.1426   -2.6386    1.4621 H   0  0  0  0  0  0  0  0  0  0  0  0
    1.2913    1.8221   -1.8853 H   0  0  0  0  0  0  0  0  0  0  0  0
    1.8111    2.7053   -0.4414 H   0  0  0  0  0  0  0  0  0  0  0  0
    1.5151   -0.1262   -2.4518 H   0  0  0  0  0  0  0  0  0  0  0  0
    1.1677   -1.8479   -1.8614 H   0  0  0  0  0  0  0  0  0  0  0  0
    2.8160   -1.3245   -2.2324 H   0  0  0  0  0  0  0  0  0  0  0  0
   -0.6819   -2.3371   -1.4368 H   0  0  0  0  0  0  0  0  0  0  0  0
   -1.9158   -1.0590   -1.9618 H   0  0  0  0  0  0  0  0  0  0  0  0
   -2.4206   -2.6553   -1.4052 H   0  0  0  0  0  0  0  0  0  0  0  0
   -3.5889   -3.8346   -0.1680 H   0  0  0  0  0  0  0  0  0  0  0  0
   -3.9925   -3.6736    1.5476 H   0  0  0  0  0  0  0  0  0  0  0  0
    3.3410   -0.0143    1.8889 H   0  0  0  0  0  0  0  0  0  0  0  0
    4.0541    1.4777    1.1994 H   0  0  0  0  0  0  0  0  0  0  0  0
    5.4335   -1.1538    1.5552 H   0  0  0  0  0  0  0  0  0  0  0  0
    6.1032    0.5531    1.3879 H   0  0  0  0  0  0  0  0  0  0  0  0
    5.8589    0.5289   -0.9766 H   0  0  0  0  0  0  0  0  0  0  0  0
   -1.1090    4.4351   -1.2940 H   0  0  0  0  0  0  0  0  0  0  0  0
   -1.8981    6.2282    0.0264 H   0  0  0  0  0  0  0  0  0  0  0  0
   -2.5095    5.1716    1.3191 H   0  0  0  0  0  0  0  0  0  0  0  0
   -0.7125    5.4707    1.2076 H   0  0  0  0  0  0  0  0  0  0  0  0
   -5.1394   -1.6334    1.2304 H   0  0  0  0  0  0  0  0  0  0  0  0
   -3.8997   -1.1871   -1.5397 H   0  0  0  0  0  0  0  0  0  0  0  0
   -4.8609   -0.1135   -0.5067 H   0  0  0  0  0  0  0  0  0  0  0  0
   -3.2290   -0.3538    1.3172 H   0  0  0  0  0  0  0  0  0  0  0  0
   -2.9181    1.7173    0.5399 H   0  0  0  0  0  0  0  0  0  0  0  0
   -3.2126    1.2114   -1.1143 H   0  0  0  0  0  0  0  0  0  0  0  0
   -1.0758    1.6197   -1.6225 H   0  0  0  0  0  0  0  0  0  0  0  0
   -0.1293   -0.3863   -1.2784 H   0  0  0  0  0  0  0  0  0  0  0  0
   -0.9404   -0.0515    1.5748 H   0  0  0  0  0  0  0  0  0  0  0  0
    6.3950   -2.1806   -0.1472 H   0  0  0  0  0  0  0  0  0  0  0  0
   -3.5440    4.4349   -0.3924 H   0  0  0  0  0  0  0  0  0  0  0  0
   -6.5280   -2.5714   -0.0637 H   0  0  0  0  0  0  0  0  0  0  0  0
    3.9573    2.0783   -0.6960 H   0  0  0  0  0  0  0  0  0  0  0  0
    3.5131    1.0588   -2.1461 H   0  0  0  0  0  0  0  0  0  0  0  0
    1.7757   -2.6193   -0.0766 H   0  0  0  0  0  0  0  0  0  0  0  0
    2.6373   -1.8068    1.2231 H   0  0  0  0  0  0  0  0  0  0  0  0
    1.4080    0.8867    1.0369 H   0  0  0  0  0  0  0  0  0  0  0  0
   -1.5592   -3.4324    0.7224 H   0  0  0  0  0  0  0  0  0  0  0  0
   -2.1011   -2.4626    2.1029 H   0  0  0  0  0  0  0  0  0  0  0  0
    0.7701   -1.2554    2.3303 H   0  0  0  0  0  0  0  0  0  0  0  0
    0.1426   -2.6386    1.4621 H   0  0  0  0  0  0  0  0  0  0  0  0
    1.2913    1.8221   -1.8853 H   0  0  0  0  0  0  0  0  0  0  0  0
    1.8111    2.7053   -0.4414 H   0  0  0  0  0  0  0  0  0  0  0  0
    1.5151   -0.1262   -2.4518 H   0  0  0  0  0  0  0  0  0  0  0  0
    1.1677   -1.8479   -1.8614 H   0  0  0  0  0  0  0  0  0  0  0  0
    2.8160   -1.3245   -2.2324 H   0  0  0  0  0  0  0  0  0  0  0  0
   -0.6819   -2.3371   -1.4368 H   0  0  0  0  0  0  0  0  0  0  0  0
   -1.9158   -1.0590   -1.9618 H   0  0  0  0  0  0  0  0  0  0  0  0
   -2.4206   -2.6553   -1.4052 H   0  0  0  0  0  0  0  0  0  0  0  0
   -3.5889   -3.8346   -0.1680 H   0  0  0  0  0  0  0  0  0  0  0  0
   -3.9925   -3.6736    1.5476 H   0  0  0  0  0  0  0  0  0  0  0  0
    3.3410   -0.0143    1.8889 H   0  0  0  0  0  0  0  0  0  0  0  0
    4.0541    1.4777    1.1994 H   0  0  0  0  0  0  0  0  0  0  0  0
    5.4335   -1.1538    1.5552 H   0  0  0  0  0  0  0  0  0  0  0  0
    6.1032    0.5531    1.3879 H   0  0  0  0  0  0  0  0  0  0  0  0
    5.8589    0.5289   -0.9766 H   0  0  0  0  0  0  0  0  0  0  0  0
   -1.1090    4.4351   -1.2940 H   0  0  0  0  0  0  0  0  0  0  0  0
   -1.8981    6.2282    0.0264 H   0  0  0  0  0  0  0  0  0  0  0  0
   -2.5095    5.1716    1.3191 H   0  0  0  0  0  0  0  0  0  0  0  0
   -0.7125    5.4707    1.2076 H   0  0  0  0  0  0  0  0  0  0  0  0
   -5.1394   -1.6334    1.2304 H   0  0  0  0  0  0  0  0  0  0  0  0
   -3.8997   -1.1871   -1.5397 H   0  0  0  0  0  0  0  0  0  0  0  0
   -4.8609   -0.1135   -0.5067 H   0  0  0  0  0  0  0  0  0  0  0  0
   -3.2290   -0.3538    1.3172 H   0  0  0  0  0  0  0  0  0  0  0  0
   -2.9181    1.7173    0.5399 H   0  0  0  0  0  0  0  0  0  0  0  0
   -3.2126    1.2114   -1.1143 H   0  0  0  0  0  0  0  0  0  0  0  0
   -1.0758    1.6197   -1.6225 H   0  0  0  0  0  0  0  0  0  0  0  0
   -0.1293   -0.3863   -1.2784 H   0  0  0  0  0  0  0  0  0  0  0  0
   -0.9404   -0.0515    1.5748 H   0  0  0  0  0  0  0  0  0  0  0  0
    6.3950   -2.1806   -0.1472 H   0  0  0  0  0  0  0  0  0  0  0  0
   -3.5440    4.4349   -0.3924 H   0  0  0  0  0  0  0  0  0  0  0  0
   -6.5280   -2.5714   -0.0637 H   0  0  0  0  0  0  0  0  0  0  0  0
  2  3  1  0
  3  5  1  0
  4  6  1  0
  2  7  1  0
  1  8  1  0
  5  8  1  0
  1  9  1  0
  3  9  1  0
  3 10  1  6
  4 11  1  6
  6 12  1  0
  9 13  1  0
 13 14  1  0
 14 15  1  0
 16 17  1  0
 12 18  1  0
 18 19  1  0
  4 20  1  0
 19 20  1  0
 20 21  1  0
 21 22  1  0
  5 23  1  0
 22 23  1  0
  4 24  1  0
  7 24  1  0
 23 24  1  0
 15 25  1  0
  9 26  1  6
 15 26  1  0
 16 27  1  0
 18 28  1  0
 16 29  1  0
 22 29  1  0
 31 32  1  0
 32 34  1  0
 33 35  1  0
 31 36  1  0
 30 37  1  0
 34 37  1  0
 30 38  1  0
 32 38  1  0
 32 39  1  6
 33 40  1  6
 35 41  1  0
 38 42  1  0
 42 43  1  0
 43 44  1  0
 45 46  1  0
 41 47  1  0
 47 48  1  0
 33 49  1  0
 48 49  1  0
 49 50  1  0
 50 51  1  0
 34 52  1  0
 51 52  1  0
 33 53  1  0
 36 53  1  0
 52 53  1  0
 44 54  1  0
 38 55  1  6
 44 55  1  0
 45 56  1  0
 47 57  1  0
 45 58  1  0
 51 58  1  0
  1 59  1  0
  1 60  1  0
  2 61  1  0
  2 62  1  0
  5 63  1  1
  6 64  1  0
  6 65  1  0
  7 66  1  0
  7 67  1  0
  8 68  1  0
  8 69  1  0
 10 70  1  0
 10 71  1  0
 10 72  1  0
 11 73  1  0
 11 74  1  0
 11 75  1  0
 12 76  1  0
 12 77  1  0
 13 78  1  0
 13 79  1  0
 14 80  1  0
 14 81  1  0
 15 82  1  0
 16 83  1  0
 17 84  1  0
 17 85  1  0
 17 86  1  0
 18 87  1  0
 19 88  1  0
 19 89  1  0
 20 90  1  1
 21 91  1  0
 21 92  1  0
 22 93  1  6
 23 94  1  6
 24 95  1  1
 25 96  1  0
 27 97  1  0
 28 98  1  0
 30 99  1  0
 30100  1  0
 31101  1  0
 31102  1  0
 34103  1  1
 35104  1  0
 35105  1  0
 36106  1  0
 36107  1  0
 37108  1  0
 37109  1  0
 39110  1  0
 39111  1  0
 39112  1  0
 40113  1  0
 40114  1  0
 40115  1  0
 41116  1  0
 41117  1  0
 42118  1  0
 42119  1  0
 43120  1  0
 43121  1  0
 44122  1  0
 45123  1  0
 46124  1  0
 46125  1  0
 46126  1  0
 47127  1  0
 48128  1  0
 48129  1  0
 49130  1  1
 50131  1  0
 50132  1  0
 51133  1  6
 52134  1  6
 53135  1  1
 54136  1  0
 56137  1  0
 57138  1  0
M  END
>  <PDBID>  (1) 
2AB2

>  <PDB ID>  (1) 
2AB2

>  <Generic Name>  (1) 
Spironolactone

>  <Brand Name>  (1) 
Aldactazide#Aldactazide 25#Aldactazide 50#Aldactone#Aldactone 100 mg#Aldactone 25 mg#Apo-spirozide Tab#Ntp-spironolactone#Spironolactone#Spironolactone and Hydrochlorothiazide#Teva-spironolactone#Teva-spironolactone/hctz#Osyrol#Spiresis#Spiretic#Spiroctan#Uractone#Verospiron#Xenalon

>  <DrugBank ID>  (1) 
DB00421

>  <ATC Codes>  (1) 
C03DA01

>  <Ligand ID>  (1) 
SNL

>  <Target Name>  (1) 
Mineralocorticoid receptor

>  <UniProt ID>  (1) 
P08235

>  <PDB ID.1>  (1) 
2AB2

>  <Seq. Identity>  (1) 
99%

$$$$
