PDB_DB01128_01
     RDKit          3D

 63 64  0  0  0  0  0  0  0  0999 V2000
    4.4905    1.3565   -1.2262 C   0  0  0  0  0  0  0  0  0  0  0  0
    5.9697    1.5948   -1.4440 C   0  0  0  0  0  0  0  0  0  0  0  0
    6.8260    0.5254   -0.8010 C   0  0  0  0  0  0  0  0  0  0  0  0
    6.9546   -0.5810   -1.6249 F   0  0  0  0  0  0  0  0  0  0  0  0
    6.2701    0.0357    0.4954 C   0  0  0  0  0  0  0  0  0  0  0  0
    5.3148    1.0243    1.0761 C   0  0  0  0  0  0  0  0  0  0  0  0
    4.0760    1.1787    0.1729 C   0  0  0  0  0  0  0  0  0  0  0  0
    3.1490   -0.3431    0.4020 S   0  0  0  0  0  0  0  0  0  0  0  0
    3.7155   -1.4387   -0.3777 O   0  0  0  0  0  0  0  0  0  0  0  0
    3.2076   -0.5085    2.0687 O   0  0  0  0  0  0  0  0  0  0  0  0
    1.4691    0.0490    0.0578 C   0  0  0  0  0  0  0  0  0  0  0  0
    0.6678   -1.2248    0.1533 C   0  0  1  0  0  0  0  0  0  0  0  0
    1.2802   -2.0366   -0.8565 O   0  0  0  0  0  0  0  0  0  0  0  0
    0.6929   -1.9672    1.4244 C   0  0  0  0  0  0  0  0  0  0  0  0
   -0.7717   -1.0620   -0.3643 C   0  0  1  0  0  0  0  0  0  0  0  0
   -1.2011   -2.3641   -0.6412 O   0  0  0  0  0  0  0  0  0  0  0  0
   -1.6157   -0.4403    0.5367 N   0  0  0  0  0  0  0  0  0  0  0  0
   -2.4286    0.6787    0.2058 C   0  0  2  0  0  0  0  0  0  0  0  0
   -3.5153    0.8229    1.2696 C   0  0  0  0  0  0  0  0  0  0  0  0
   -3.0130    0.6910   -1.1728 C   0  0  0  0  0  0  0  0  0  0  0  0
   -4.1432   -0.2778   -1.3802 C   0  0  0  0  0  0  0  0  0  0  0  0
   -5.2166   -0.0026   -0.3911 C   0  0  0  0  0  0  0  0  0  0  0  0
   -6.0499    1.2125   -0.7317 C   0  0  0  0  0  0  0  0  0  0  0  0
   -6.7127    1.0774   -2.0114 N   0  0  0  0  0  0  0  0  0  0  0  0
   -4.7372    0.0422    1.0300 C   0  0  0  0  0  0  0  0  0  0  0  0
   -4.6847   -1.3886    1.5546 C   0  0  0  0  0  0  0  0  0  0  0  0
   -5.9046   -2.0252    1.2645 F   0  0  0  0  0  0  0  0  0  0  0  0
   -3.6404   -2.1107    1.0505 F   0  0  0  0  0  0  0  0  0  0  0  0
   -4.5716   -1.4419    2.9328 F   0  0  0  0  0  0  0  0  0  0  0  0
    4.2195    0.5087   -1.9092 H   0  0  0  0  0  0  0  0  0  0  0  0
    3.9859    2.2510   -1.6830 H   0  0  0  0  0  0  0  0  0  0  0  0
    6.1452    1.4815   -2.5503 H   0  0  0  0  0  0  0  0  0  0  0  0
    6.2626    2.6130   -1.0961 H   0  0  0  0  0  0  0  0  0  0  0  0
    7.8608    0.9261   -0.6633 H   0  0  0  0  0  0  0  0  0  0  0  0
    7.1094   -0.1275    1.2243 H   0  0  0  0  0  0  0  0  0  0  0  0
    5.8124   -0.9814    0.3885 H   0  0  0  0  0  0  0  0  0  0  0  0
    5.7825    1.9965    1.2143 H   0  0  0  0  0  0  0  0  0  0  0  0
    4.9278    0.6185    2.0493 H   0  0  0  0  0  0  0  0  0  0  0  0
    3.4728    2.0147    0.6151 H   0  0  0  0  0  0  0  0  0  0  0  0
    3.8857   -2.3889   -0.1573 H   0  0  0  0  0  0  0  0  0  0  0  0
    2.8331    0.3227    2.4851 H   0  0  0  0  0  0  0  0  0  0  0  0
    1.1007    0.8477    0.7234 H   0  0  0  0  0  0  0  0  0  0  0  0
    1.3993    0.3545   -1.0204 H   0  0  0  0  0  0  0  0  0  0  0  0
    1.2037   -1.5002   -1.6845 H   0  0  0  0  0  0  0  0  0  0  0  0
    1.1990   -1.3969    2.2109 H   0  0  0  0  0  0  0  0  0  0  0  0
    1.2244   -2.9603    1.3431 H   0  0  0  0  0  0  0  0  0  0  0  0
   -0.3477   -2.1899    1.8248 H   0  0  0  0  0  0  0  0  0  0  0  0
   -0.6139   -0.4998   -1.3330 H   0  0  0  0  0  0  0  0  0  0  0  0
   -1.2797   -2.5399   -1.5978 H   0  0  0  0  0  0  0  0  0  0  0  0
   -1.0468   -0.1382    1.3892 H   0  0  0  0  0  0  0  0  0  0  0  0
   -1.8140    1.5959    0.2926 H   0  0  0  0  0  0  0  0  0  0  0  0
   -3.0357    0.4275    2.2177 H   0  0  0  0  0  0  0  0  0  0  0  0
   -3.7090    1.8883    1.4760 H   0  0  0  0  0  0  0  0  0  0  0  0
   -2.2503    0.5153   -1.9231 H   0  0  0  0  0  0  0  0  0  0  0  0
   -3.4019    1.7160   -1.3639 H   0  0  0  0  0  0  0  0  0  0  0  0
   -3.8101   -1.3363   -1.3551 H   0  0  0  0  0  0  0  0  0  0  0  0
   -4.5806   -0.0567   -2.3960 H   0  0  0  0  0  0  0  0  0  0  0  0
   -5.9464   -0.8661   -0.4336 H   0  0  0  0  0  0  0  0  0  0  0  0
   -5.4914    2.1535   -0.7360 H   0  0  0  0  0  0  0  0  0  0  0  0
   -6.8650    1.3139    0.0425 H   0  0  0  0  0  0  0  0  0  0  0  0
   -7.0037    0.1085   -2.1918 H   0  0  0  0  0  0  0  0  0  0  0  0
   -7.5359    1.7227   -2.0533 H   0  0  0  0  0  0  0  0  0  0  0  0
   -5.5702    0.5293    1.6189 H   0  0  0  0  0  0  0  0  0  0  0  0
  1  2  1  0
  2  3  1  0
  3  4  1  0
  3  5  1  0
  5  6  1  0
  1  7  1  0
  6  7  1  0
  7  8  1  0
  8  9  1  0
  8 10  1  0
  8 11  1  0
 11 12  1  0
 12 13  1  6
 12 14  1  0
 12 15  1  0
 15 16  1  0
 15 17  1  0
 17 18  1  0
 18 19  1  0
 18 20  1  0
 20 21  1  0
 21 22  1  0
 22 23  1  0
 23 24  1  0
 19 25  1  0
 22 25  1  0
 25 26  1  0
 26 27  1  0
 26 28  1  0
 26 29  1  0
  1 30  1  0
  1 31  1  0
  2 32  1  0
  2 33  1  0
  3 34  1  0
  5 35  1  0
  5 36  1  0
  6 37  1  0
  6 38  1  0
  7 39  1  0
  9 40  1  0
 10 41  1  0
 11 42  1  0
 11 43  1  0
 13 44  1  0
 14 45  1  0
 14 46  1  0
 14 47  1  0
 15 48  1  6
 16 49  1  0
 17 50  1  0
 18 51  1  6
 19 52  1  0
 19 53  1  0
 20 54  1  0
 20 55  1  0
 21 56  1  0
 21 57  1  0
 22 58  1  0
 23 59  1  0
 23 60  1  0
 24 61  1  0
 24 62  1  0
 25 63  1  0
M  END
>  <PDBID>  (1) 
1Z95

>  <PDB ID>  (1) 
1Z95

>  <Generic Name>  (1) 
Bicalutamide

>  <Brand Name>  (1) 
Accel-bicalutamide Tablets USP#Ach-bicalutamide#Act Bicalutamide#Ag-bicalutamide#Apo-bicalutamide#Ava-bicalutamide#Bicalutamide#Bicalutamide Tablets#Casodex#Dom-bicalutamide#Jamp-bicalutamide#Med-bicalutamide#Mylan-bicalutamide#Ntp-bicalutamide#Nu-bicalutamide#PHL-bicalutamide#PMS-bicalutamide#Pro-bicalutamide - 50#Ran-bicalutamide#Ratio-bicalutamide#Sandoz Bicalutamide#Teva-bicalutamide#Van-bicalutamide

>  <DrugBank ID>  (1) 
DB01128

>  <ATC Codes>  (1) 
L02BB03

>  <Ligand ID>  (1) 
0U9,198

>  <Target Name>  (1) 
Androgen receptor

>  <UniProt ID>  (1) 
P10275

>  <PDB ID.1>  (1) 
1Z95

>  <Seq. Identity>  (1) 
100%

$$$$
