PDB_DB01232_08
     RDKit          3D

123127  0  0  0  0  0  0  0  0999 V2000
    4.5446   -0.6291    1.0218 C   0  0  0  0  0  0  0  0  0  0  0  0
    4.4748   -1.9750    0.8070 O   0  0  0  0  0  0  0  0  0  0  0  0
    5.9257    1.3131    1.0433 N   0  0  0  0  0  0  0  0  0  0  0  0
    5.9588   -0.1100    0.8612 C   0  0  2  0  0  0  0  0  0  0  0  0
    6.5002   -0.5754   -0.4600 C   0  0  0  0  0  0  0  0  0  0  0  0
    7.3462    0.5290   -1.1129 C   0  0  0  0  0  0  0  0  0  0  0  0
    9.3565    1.8467   -0.3855 C   0  0  0  0  0  0  0  0  0  0  0  0
    9.3503    3.3358   -0.1833 C   0  0  0  0  0  0  0  0  0  0  0  0
    7.9604    3.8383   -0.5509 C   0  0  0  0  0  0  0  0  0  0  0  0
    6.9987    3.3535    0.4811 C   0  0  0  0  0  0  0  0  0  0  0  0
    8.1225    1.1428    0.0593 C   0  0  0  0  0  0  0  0  0  0  0  0
    7.2084    1.9427    0.9390 C   0  0  0  0  0  0  0  0  0  0  0  0
    3.6433    0.2247    0.3515 N   0  0  0  0  0  0  0  0  0  0  0  0
    2.3306   -0.3545    0.0893 C   0  0  2  0  0  0  0  0  0  0  0  0
    1.6288   -0.7591    1.3358 C   0  0  0  0  0  0  0  0  0  0  0  0
    1.3840    0.3683    2.1741 O   0  0  0  0  0  0  0  0  0  0  0  0
    2.4040   -1.2774   -1.0469 C   0  0  0  0  0  0  0  0  0  0  0  0
    2.8897   -0.4299   -2.2549 C   0  0  1  0  0  0  0  0  0  0  0  0
    2.9948   -1.2438   -3.3801 O   0  0  0  0  0  0  0  0  0  0  0  0
    1.8510    0.5586   -2.5603 N   0  0  0  0  0  0  0  0  0  0  0  0
   -1.5592   -0.7438    1.1681 C   0  0  1  0  0  0  0  0  0  0  0  0
   -1.8149   -0.9345    2.5177 O   0  0  0  0  0  0  0  0  0  0  0  0
   -0.5487   -1.8118    0.7140 C   0  0  1  0  0  0  0  0  0  0  0  0
    0.6838   -1.7561    1.3536 N   0  0  0  0  0  0  0  0  0  0  0  0
   -1.1536   -3.1584    1.1633 C   0  0  0  0  0  0  0  0  0  0  0  0
   -0.4177   -4.3639    0.7850 C   0  0  0  0  0  0  0  0  0  0  0  0
   -0.2575   -4.5519   -0.7333 C   0  0  0  0  0  0  0  0  0  0  0  0
    0.8656   -4.7349    1.4018 C   0  0  0  0  0  0  0  0  0  0  0  0
   -0.3408   -6.0312   -1.0398 C   0  0  0  0  0  0  0  0  0  0  0  0
    1.5849   -5.8392    0.5942 C   0  0  0  0  0  0  0  0  0  0  0  0
    0.6337   -6.7336   -0.1371 C   0  0  0  0  0  0  0  0  0  0  0  0
   -3.9273   -0.1431    0.6967 N   0  0  0  0  0  0  0  0  0  0  0  0
   -2.8215   -0.9583    0.4046 C   0  0  0  0  0  0  0  0  0  0  0  0
   -4.0220    1.1803    0.2530 C   0  0  2  0  0  0  0  0  0  0  0  0
   -4.9112    2.0429    1.1686 C   0  0  0  0  0  0  0  0  0  0  0  0
   -4.3802    2.2298    2.4203 O   0  0  0  0  0  0  0  0  0  0  0  0
   -4.5381    1.3299   -1.1654 C   0  0  0  0  0  0  0  0  0  0  0  0
   -5.0920    0.0679   -1.7540 C   0  0  2  0  0  0  0  0  0  0  0  0
   -5.9340    0.3649   -2.9579 C   0  0  0  0  0  0  0  0  0  0  0  0
   -7.3722    0.6429   -2.6917 C   0  0  0  0  0  0  0  0  0  0  0  0
   -7.9343   -0.5987   -2.0105 C   0  0  0  0  0  0  0  0  0  0  0  0
   -7.2632   -0.6301   -0.6538 C   0  0  0  0  0  0  0  0  0  0  0  0
   -5.7714   -0.8435   -0.7933 C   0  0  2  0  0  0  0  0  0  0  0  0
   -5.1831   -0.8922    0.5750 C   0  0  0  0  0  0  0  0  0  0  0  0
   -5.3905    3.2035    0.5544 N   0  0  0  0  0  0  0  0  0  0  0  0
   -5.2676    4.4747    1.1566 C   0  0  0  0  0  0  0  0  0  0  0  0
   -3.8682    4.9503    1.3726 C   0  0  0  0  0  0  0  0  0  0  0  0
   -6.1289    4.5954    2.4253 C   0  0  0  0  0  0  0  0  0  0  0  0
   -5.9317    5.4796    0.1743 C   0  0  0  0  0  0  0  0  0  0  0  0
    4.3647   -0.4707    2.1588 H   0  0  0  0  0  0  0  0  0  0  0  0
    5.3299   -2.4367    0.6417 H   0  0  0  0  0  0  0  0  0  0  0  0
    5.3453    1.6938    0.2368 H   0  0  0  0  0  0  0  0  0  0  0  0
    6.6139   -0.5493    1.6847 H   0  0  0  0  0  0  0  0  0  0  0  0
    5.7444   -0.8770   -1.1743 H   0  0  0  0  0  0  0  0  0  0  0  0
    7.2414   -1.4184   -0.3172 H   0  0  0  0  0  0  0  0  0  0  0  0
    6.7366    1.2674   -1.6457 H   0  0  0  0  0  0  0  0  0  0  0  0
    8.1090    0.0891   -1.7893 H   0  0  0  0  0  0  0  0  0  0  0  0
   10.2693    1.4481    0.1006 H   0  0  0  0  0  0  0  0  0  0  0  0
    9.4948    1.6546   -1.4787 H   0  0  0  0  0  0  0  0  0  0  0  0
   10.0553    3.8265   -0.8660 H   0  0  0  0  0  0  0  0  0  0  0  0
    9.5138    3.6185    0.8948 H   0  0  0  0  0  0  0  0  0  0  0  0
    7.6796    3.5771   -1.5764 H   0  0  0  0  0  0  0  0  0  0  0  0
    7.9935    4.9512   -0.5271 H   0  0  0  0  0  0  0  0  0  0  0  0
    5.9670    3.4721    0.0360 H   0  0  0  0  0  0  0  0  0  0  0  0
    6.9967    4.0368    1.3753 H   0  0  0  0  0  0  0  0  0  0  0  0
    8.4519    0.2586    0.6804 H   0  0  0  0  0  0  0  0  0  0  0  0
    7.6773    1.9657    1.9516 H   0  0  0  0  0  0  0  0  0  0  0  0
    3.5250    1.0930    0.9160 H   0  0  0  0  0  0  0  0  0  0  0  0
    1.7553    0.5649   -0.2902 H   0  0  0  0  0  0  0  0  0  0  0  0
    2.5225   -1.2021    1.9599 H   0  0  0  0  0  0  0  0  0  0  0  0
    1.5907    1.1795    1.6142 H   0  0  0  0  0  0  0  0  0  0  0  0
    1.4407   -1.6895   -1.4199 H   0  0  0  0  0  0  0  0  0  0  0  0
    3.0988   -2.1092   -1.0087 H   0  0  0  0  0  0  0  0  0  0  0  0
    3.8039    0.1094   -2.0222 H   0  0  0  0  0  0  0  0  0  0  0  0
    3.3875   -0.7090   -4.1248 H   0  0  0  0  0  0  0  0  0  0  0  0
    1.9601    1.4402   -2.0540 H   0  0  0  0  0  0  0  0  0  0  0  0
    0.9174    0.1456   -2.6232 H   0  0  0  0  0  0  0  0  0  0  0  0
   -1.1998    0.2642    0.9318 H   0  0  0  0  0  0  0  0  0  0  0  0
   -2.3618   -0.2437    2.9223 H   0  0  0  0  0  0  0  0  0  0  0  0
   -0.6026   -1.8201   -0.3706 H   0  0  0  0  0  0  0  0  0  0  0  0
    0.5638   -2.1017    2.3825 H   0  0  0  0  0  0  0  0  0  0  0  0
   -1.1609   -3.1052    2.3144 H   0  0  0  0  0  0  0  0  0  0  0  0
   -2.2062   -3.2854    0.9041 H   0  0  0  0  0  0  0  0  0  0  0  0
   -1.1339   -5.2368    1.0439 H   0  0  0  0  0  0  0  0  0  0  0  0
    0.7640   -4.2169   -1.0179 H   0  0  0  0  0  0  0  0  0  0  0  0
   -0.9898   -3.9774   -1.3117 H   0  0  0  0  0  0  0  0  0  0  0  0
    0.6909   -5.2091    2.4140 H   0  0  0  0  0  0  0  0  0  0  0  0
    1.6239   -3.9853    1.5627 H   0  0  0  0  0  0  0  0  0  0  0  0
   -1.3709   -6.4174   -0.8334 H   0  0  0  0  0  0  0  0  0  0  0  0
   -0.1436   -6.1572   -2.1238 H   0  0  0  0  0  0  0  0  0  0  0  0
    2.1374   -6.4820    1.3096 H   0  0  0  0  0  0  0  0  0  0  0  0
    2.3541   -5.3665   -0.0431 H   0  0  0  0  0  0  0  0  0  0  0  0
    1.2641   -7.3821   -0.8151 H   0  0  0  0  0  0  0  0  0  0  0  0
    0.1615   -7.4385    0.5841 H   0  0  0  0  0  0  0  0  0  0  0  0
   -2.5161   -0.7889   -0.7165 H   0  0  0  0  0  0  0  0  0  0  0  0
   -3.1894   -2.0083    0.3487 H   0  0  0  0  0  0  0  0  0  0  0  0
   -3.0091    1.6488    0.3187 H   0  0  0  0  0  0  0  0  0  0  0  0
   -5.8265    1.3455    1.3924 H   0  0  0  0  0  0  0  0  0  0  0  0
   -3.4497    1.8974    2.5266 H   0  0  0  0  0  0  0  0  0  0  0  0
   -3.7213    1.6974   -1.8253 H   0  0  0  0  0  0  0  0  0  0  0  0
   -5.3241    2.1362   -1.2385 H   0  0  0  0  0  0  0  0  0  0  0  0
   -4.2293   -0.5471   -2.1916 H   0  0  0  0  0  0  0  0  0  0  0  0
   -5.9089   -0.5449   -3.6276 H   0  0  0  0  0  0  0  0  0  0  0  0
   -5.4980    1.2025   -3.5496 H   0  0  0  0  0  0  0  0  0  0  0  0
   -7.5599    1.5027   -2.0540 H   0  0  0  0  0  0  0  0  0  0  0  0
   -7.8737    0.7686   -3.6638 H   0  0  0  0  0  0  0  0  0  0  0  0
   -9.0039   -0.4547   -1.8642 H   0  0  0  0  0  0  0  0  0  0  0  0
   -7.7269   -1.4899   -2.6041 H   0  0  0  0  0  0  0  0  0  0  0  0
   -7.5338    0.2817   -0.1235 H   0  0  0  0  0  0  0  0  0  0  0  0
   -7.6765   -1.4918   -0.0982 H   0  0  0  0  0  0  0  0  0  0  0  0
   -5.6812   -1.8997   -1.2160 H   0  0  0  0  0  0  0  0  0  0  0  0
   -5.8481   -0.5839    1.3813 H   0  0  0  0  0  0  0  0  0  0  0  0
   -4.8740   -1.9510    0.8582 H   0  0  0  0  0  0  0  0  0  0  0  0
   -6.3808    3.0712    0.2231 H   0  0  0  0  0  0  0  0  0  0  0  0
   -3.9388    6.0664    1.5556 H   0  0  0  0  0  0  0  0  0  0  0  0
   -3.2971    4.8195    0.4433 H   0  0  0  0  0  0  0  0  0  0  0  0
   -3.3913    4.5420    2.2656 H   0  0  0  0  0  0  0  0  0  0  0  0
   -7.0240    5.2256    2.2528 H   0  0  0  0  0  0  0  0  0  0  0  0
   -6.5170    3.6071    2.7507 H   0  0  0  0  0  0  0  0  0  0  0  0
   -5.5323    4.9979    3.2440 H   0  0  0  0  0  0  0  0  0  0  0  0
   -5.1642    5.8733   -0.5310 H   0  0  0  0  0  0  0  0  0  0  0  0
   -6.3219    6.3533    0.7304 H   0  0  0  0  0  0  0  0  0  0  0  0
   -6.7700    5.0177   -0.3658 H   0  0  0  0  0  0  0  0  0  0  0  0
  1  2  1  0
  1  4  1  0
  3  4  1  0
  4  5  1  0
  5  6  1  0
  7  8  1  0
  8  9  1  0
  9 10  1  0
  6 11  1  0
  7 11  1  0
  3 12  1  0
 10 12  1  0
 11 12  1  0
  1 13  1  0
 13 14  1  0
 14 15  1  0
 15 16  1  0
 14 17  1  0
 17 18  1  0
 18 19  1  0
 18 20  1  0
 21 22  1  0
 21 23  1  0
 15 24  1  0
 23 24  1  0
 23 25  1  0
 25 26  1  0
 26 27  1  0
 26 28  1  0
 27 29  1  0
 28 30  1  0
 29 31  1  0
 30 31  1  0
 21 33  1  0
 32 33  1  0
 32 34  1  0
 34 35  1  0
 35 36  1  0
 34 37  1  0
 37 38  1  0
 38 39  1  0
 39 40  1  0
 40 41  1  0
 41 42  1  0
 38 43  1  0
 42 43  1  0
 32 44  1  0
 43 44  1  0
 35 45  1  0
 46 45  1  0
 46 47  1  0
 46 48  1  0
 46 49  1  0
  1 50  1  0
  2 51  1  0
  3 52  1  0
  4 53  1  1
  5 54  1  0
  5 55  1  0
  6 56  1  0
  6 57  1  0
  7 58  1  0
  7 59  1  0
  8 60  1  0
  8 61  1  0
  9 62  1  0
  9 63  1  0
 10 64  1  0
 10 65  1  0
 11 66  1  0
 12 67  1  0
 13 68  1  0
 14 69  1  6
 15 70  1  0
 16 71  1  0
 17 72  1  0
 17 73  1  0
 18 74  1  1
 19 75  1  0
 20 76  1  0
 20 77  1  0
 21 78  1  1
 22 79  1  0
 23 80  1  6
 24 81  1  0
 25 82  1  0
 25 83  1  0
 26 84  1  0
 27 85  1  0
 27 86  1  0
 28 87  1  0
 28 88  1  0
 29 89  1  0
 29 90  1  0
 30 91  1  0
 30 92  1  0
 31 93  1  0
 31 94  1  0
 33 95  1  0
 33 96  1  0
 34 97  1  6
 35 98  1  0
 36 99  1  0
 37100  1  0
 37101  1  0
 38102  1  6
 39103  1  0
 39104  1  0
 40105  1  0
 40106  1  0
 41107  1  0
 41108  1  0
 42109  1  0
 42110  1  0
 43111  1  6
 44112  1  0
 44113  1  0
 45114  1  0
 47115  1  0
 47116  1  0
 47117  1  0
 48118  1  0
 48119  1  0
 48120  1  0
 49121  1  0
 49122  1  0
 49123  1  0
M  END
>  <PDBID>  (1) 
1HXB

>  <PDB ID>  (1) 
1HXB

>  <Generic Name>  (1) 
Saquinavir

>  <Brand Name>  (1) 
Fortovase Roche#Invirase#Invirase - Cap 200mg#Fortovase#ROC

>  <DrugBank ID>  (1) 
DB01232

>  <ATC Codes>  (1) 
J05AE01

>  <Ligand ID>  (1) 
ROC

>  <Target Name>  (1) 
Pol polyprotein

>  <UniProt ID>  (1) 
Q72874

>  <PDB ID.1>  (1) 
1HXB

>  <Seq. Identity>  (1) 
100%

$$$$
