PDB_DB00503_06
     RDKit          3D

124127  0  0  0  0  0  0  0  0999 V2000
   -6.4876    3.7369   -0.7516 C   0  0  0  0  0  0  0  0  0  0  0  0
   -5.2126    4.3744   -0.1684 C   0  0  0  0  0  0  0  0  0  0  0  0
   -6.0298    5.9827    0.2939 S   0  0  0  0  0  0  0  0  0  0  0  0
   -7.6872    5.2620    0.6012 C   0  0  0  0  0  0  0  0  0  0  0  0
   -7.4926    3.8913    0.2333 N   0  0  0  0  0  0  0  0  0  0  0  0
   -4.8013    3.6684    1.1028 C   0  0  0  0  0  0  0  0  0  0  0  0
   -4.5507    2.3845    0.9412 O   0  0  0  0  0  0  0  0  0  0  0  0
   -3.5928    1.8300    0.2132 C   0  0  0  0  0  0  0  0  0  0  0  0
   -4.0388    1.2154   -0.9889 O   0  0  0  0  0  0  0  0  0  0  0  0
   -2.7335    0.9042    0.8955 N   0  0  0  0  0  0  0  0  0  0  0  0
   -3.3234   -0.2975    1.3971 C   0  0  2  0  0  0  0  0  0  0  0  0
   -2.5447   -1.4690    0.9187 C   0  0  2  0  0  0  0  0  0  0  0  0
   -1.9474   -1.5655   -0.4074 C   0  0  0  0  0  0  0  0  0  0  0  0
   -0.8536   -0.6046   -0.7792 C   0  0  2  0  0  0  0  0  0  0  0  0
   -4.8016   -0.3757    1.2238 C   0  0  0  0  0  0  0  0  0  0  0  0
   -5.4325   -1.6142    1.8056 C   0  0  0  0  0  0  0  0  0  0  0  0
   -5.2307   -1.7304    3.2922 C   0  0  0  0  0  0  0  0  0  0  0  0
   -6.4340   -2.4499    3.8915 C   0  0  0  0  0  0  0  0  0  0  0  0
   -7.5216   -1.4128    4.0849 C   0  0  0  0  0  0  0  0  0  0  0  0
   -7.4970   -0.5633    2.8142 C   0  0  0  0  0  0  0  0  0  0  0  0
   -6.9648   -1.3587    1.6493 C   0  0  0  0  0  0  0  0  0  0  0  0
   -3.0834   -2.7209    1.3282 O   0  0  0  0  0  0  0  0  0  0  0  0
   -0.3633   -0.7331   -2.1662 C   0  0  0  0  0  0  0  0  0  0  0  0
    0.2059   -1.9053   -2.7966 C   0  0  0  0  0  0  0  0  0  0  0  0
   -0.6795   -3.1080   -2.8809 C   0  0  0  0  0  0  0  0  0  0  0  0
   -0.4910   -3.9178   -4.1620 C   0  0  0  0  0  0  0  0  0  0  0  0
   -0.8226   -3.1629   -5.4008 C   0  0  0  0  0  0  0  0  0  0  0  0
   -0.7236   -1.6616   -5.1350 C   0  0  0  0  0  0  0  0  0  0  0  0
    0.4820   -1.4808   -4.2793 C   0  0  0  0  0  0  0  0  0  0  0  0
    0.0204   -0.2510    0.2516 N   0  0  0  0  0  0  0  0  0  0  0  0
    3.2389   -0.4935    0.2058 N   0  0  0  0  0  0  0  0  0  0  0  0
    2.2355   -1.4712    0.3974 C   0  0  2  0  0  0  0  0  0  0  0  0
    0.9254   -0.9790    0.9567 C   0  0  1  0  0  0  0  0  0  0  0  0
    1.2432   -0.3194    2.1797 O   0  0  0  0  0  0  0  0  0  0  0  0
    2.7940   -2.5446    1.3590 C   0  0  0  0  0  0  0  0  0  0  0  0
    4.0083   -3.1476    0.7322 C   0  0  0  0  0  0  0  0  0  0  0  0
    2.9885   -2.0574    2.7438 C   0  0  0  0  0  0  0  0  0  0  0  0
    3.0203    0.5479   -0.7266 C   0  0  1  0  0  0  0  0  0  0  0  0
    4.1722    1.4633   -0.6010 N   0  0  0  0  0  0  0  0  0  0  0  0
    5.3582    0.6811   -0.8585 C   0  0  0  0  0  0  0  0  0  0  0  0
    3.0362   -0.0060   -2.0119 O   0  0  0  0  0  0  0  0  0  0  0  0
    6.6334    1.4391   -0.6721 C   0  0  0  0  0  0  0  0  0  0  0  0
    6.6446    2.6169   -1.6287 C   0  0  0  0  0  0  0  0  0  0  0  0
    8.4683    2.9316   -1.5750 S   0  0  0  0  0  0  0  0  0  0  0  0
    8.9557    1.2624   -1.0356 C   0  0  0  0  0  0  0  0  0  0  0  0
    7.7157    0.5747   -1.0083 N   0  0  0  0  0  0  0  0  0  0  0  0
    9.7565    1.2461    0.2191 C   0  0  0  0  0  0  0  0  0  0  0  0
   11.0189    2.0493    0.0013 C   0  0  0  0  0  0  0  0  0  0  0  0
    9.0632    1.7807    1.4321 C   0  0  0  0  0  0  0  0  0  0  0  0
    4.1499    2.0922    0.6952 C   0  0  0  0  0  0  0  0  0  0  0  0
   -6.7622    4.2990   -1.6661 H   0  0  0  0  0  0  0  0  0  0  0  0
   -6.3073    2.6752   -0.8962 H   0  0  0  0  0  0  0  0  0  0  0  0
   -4.4418    4.5159   -0.9089 H   0  0  0  0  0  0  0  0  0  0  0  0
   -7.9245    5.2942    1.6891 H   0  0  0  0  0  0  0  0  0  0  0  0
   -8.4572    5.7472   -0.0205 H   0  0  0  0  0  0  0  0  0  0  0  0
   -7.4687    3.2310    1.0175 H   0  0  0  0  0  0  0  0  0  0  0  0
   -3.9508    4.2861    1.5051 H   0  0  0  0  0  0  0  0  0  0  0  0
   -5.6945    3.7878    1.7881 H   0  0  0  0  0  0  0  0  0  0  0  0
   -2.9195    2.6433   -0.1966 H   0  0  0  0  0  0  0  0  0  0  0  0
   -4.1739    1.9244   -1.6384 H   0  0  0  0  0  0  0  0  0  0  0  0
   -2.0898    1.3304    1.5663 H   0  0  0  0  0  0  0  0  0  0  0  0
   -3.1795   -0.2575    2.5277 H   0  0  0  0  0  0  0  0  0  0  0  0
   -1.6244   -1.4370    1.6569 H   0  0  0  0  0  0  0  0  0  0  0  0
   -2.7103   -1.4535   -1.2483 H   0  0  0  0  0  0  0  0  0  0  0  0
   -1.6088   -2.6330   -0.5160 H   0  0  0  0  0  0  0  0  0  0  0  0
   -1.4902    0.3915   -0.8904 H   0  0  0  0  0  0  0  0  0  0  0  0
   -5.1781   -0.2963    0.1985 H   0  0  0  0  0  0  0  0  0  0  0  0
   -5.2915    0.4612    1.7808 H   0  0  0  0  0  0  0  0  0  0  0  0
   -5.2400   -2.5390    1.2712 H   0  0  0  0  0  0  0  0  0  0  0  0
   -4.3585   -2.3031    3.6160 H   0  0  0  0  0  0  0  0  0  0  0  0
   -5.2538   -0.7010    3.7455 H   0  0  0  0  0  0  0  0  0  0  0  0
   -6.7912   -3.1965    3.1811 H   0  0  0  0  0  0  0  0  0  0  0  0
   -6.1401   -2.9593    4.8342 H   0  0  0  0  0  0  0  0  0  0  0  0
   -7.1858   -0.7566    4.9111 H   0  0  0  0  0  0  0  0  0  0  0  0
   -8.5038   -1.8782    4.2572 H   0  0  0  0  0  0  0  0  0  0  0  0
   -8.5395   -0.3122    2.5744 H   0  0  0  0  0  0  0  0  0  0  0  0
   -6.9511    0.3856    2.9544 H   0  0  0  0  0  0  0  0  0  0  0  0
   -7.1270   -0.7455    0.7431 H   0  0  0  0  0  0  0  0  0  0  0  0
   -7.5033   -2.2931    1.5126 H   0  0  0  0  0  0  0  0  0  0  0  0
   -2.5092   -3.4513    1.0530 H   0  0  0  0  0  0  0  0  0  0  0  0
   -1.2027   -0.3773   -2.9062 H   0  0  0  0  0  0  0  0  0  0  0  0
    0.3605    0.1474   -2.3142 H   0  0  0  0  0  0  0  0  0  0  0  0
    1.2515   -2.2022   -2.5000 H   0  0  0  0  0  0  0  0  0  0  0  0
   -0.4692   -3.8466   -2.0692 H   0  0  0  0  0  0  0  0  0  0  0  0
   -1.7412   -2.8554   -2.8541 H   0  0  0  0  0  0  0  0  0  0  0  0
    0.4672   -4.4267   -4.2166 H   0  0  0  0  0  0  0  0  0  0  0  0
   -1.2639   -4.7377   -4.0818 H   0  0  0  0  0  0  0  0  0  0  0  0
   -1.8135   -3.3587   -5.8080 H   0  0  0  0  0  0  0  0  0  0  0  0
   -0.0667   -3.4404   -6.1930 H   0  0  0  0  0  0  0  0  0  0  0  0
   -1.6376   -1.2351   -4.7232 H   0  0  0  0  0  0  0  0  0  0  0  0
   -0.5195   -1.1570   -6.1038 H   0  0  0  0  0  0  0  0  0  0  0  0
    0.8503   -0.4265   -4.2632 H   0  0  0  0  0  0  0  0  0  0  0  0
    1.3027   -2.0948   -4.6994 H   0  0  0  0  0  0  0  0  0  0  0  0
    0.0081    0.7960    0.4830 H   0  0  0  0  0  0  0  0  0  0  0  0
    3.7501   -0.1372    1.0090 H   0  0  0  0  0  0  0  0  0  0  0  0
    2.0876   -1.9697   -0.6014 H   0  0  0  0  0  0  0  0  0  0  0  0
    0.4370   -1.9511    1.4045 H   0  0  0  0  0  0  0  0  0  0  0  0
    1.0125    0.6359    2.0706 H   0  0  0  0  0  0  0  0  0  0  0  0
    2.0083   -3.3686    1.4151 H   0  0  0  0  0  0  0  0  0  0  0  0
    4.9427   -2.7474    1.1403 H   0  0  0  0  0  0  0  0  0  0  0  0
    3.9160   -3.0057   -0.3858 H   0  0  0  0  0  0  0  0  0  0  0  0
    3.9620   -4.2641    0.8653 H   0  0  0  0  0  0  0  0  0  0  0  0
    2.0243   -2.1068    3.2981 H   0  0  0  0  0  0  0  0  0  0  0  0
    3.7331   -2.7272    3.2717 H   0  0  0  0  0  0  0  0  0  0  0  0
    3.3935   -1.0367    2.7451 H   0  0  0  0  0  0  0  0  0  0  0  0
    2.1269    1.1459   -0.5159 H   0  0  0  0  0  0  0  0  0  0  0  0
    5.3794   -0.2513   -0.2245 H   0  0  0  0  0  0  0  0  0  0  0  0
    5.2618    0.3187   -1.9136 H   0  0  0  0  0  0  0  0  0  0  0  0
    3.2789    0.7613   -2.6049 H   0  0  0  0  0  0  0  0  0  0  0  0
    6.6480    1.7783    0.3871 H   0  0  0  0  0  0  0  0  0  0  0  0
    6.3406    2.3079   -2.6278 H   0  0  0  0  0  0  0  0  0  0  0  0
    6.0871    3.4793   -1.2135 H   0  0  0  0  0  0  0  0  0  0  0  0
    9.5874    0.7770   -1.8462 H   0  0  0  0  0  0  0  0  0  0  0  0
    7.7332   -0.2026   -0.3321 H   0  0  0  0  0  0  0  0  0  0  0  0
   10.0890    0.1830    0.3898 H   0  0  0  0  0  0  0  0  0  0  0  0
   10.8811    2.6729   -0.9018 H   0  0  0  0  0  0  0  0  0  0  0  0
   11.8967    1.3873   -0.1929 H   0  0  0  0  0  0  0  0  0  0  0  0
   11.2567    2.6797    0.8861 H   0  0  0  0  0  0  0  0  0  0  0  0
    8.6125    2.7630    1.2983 H   0  0  0  0  0  0  0  0  0  0  0  0
    8.3852    0.9899    1.8223 H   0  0  0  0  0  0  0  0  0  0  0  0
    9.8147    1.9113    2.2707 H   0  0  0  0  0  0  0  0  0  0  0  0
    3.1177    2.1319    1.1432 H   0  0  0  0  0  0  0  0  0  0  0  0
    4.4286    3.1805    0.5745 H   0  0  0  0  0  0  0  0  0  0  0  0
    4.8641    1.5862    1.3901 H   0  0  0  0  0  0  0  0  0  0  0  0
  1  2  1  0
  2  3  1  0
  3  4  1  0
  1  5  1  0
  4  5  1  0
  2  6  1  0
  6  7  1  0
  7  8  1  0
  8  9  1  0
  8 10  1  0
 10 11  1  0
 11 12  1  0
 12 13  1  0
 13 14  1  0
 11 15  1  0
 15 16  1  0
 16 17  1  0
 17 18  1  0
 18 19  1  0
 19 20  1  0
 16 21  1  0
 20 21  1  0
 12 22  1  0
 14 23  1  0
 23 24  1  0
 24 25  1  0
 25 26  1  0
 26 27  1  0
 27 28  1  0
 24 29  1  0
 28 29  1  0
 14 30  1  0
 31 32  1  0
 30 33  1  0
 32 33  1  0
 33 34  1  0
 32 35  1  0
 35 36  1  0
 35 37  1  0
 31 38  1  0
 38 39  1  0
 39 40  1  0
 38 41  1  0
 40 42  1  0
 42 43  1  0
 43 44  1  0
 44 45  1  0
 42 46  1  0
 45 46  1  0
 45 47  1  0
 47 48  1  0
 47 49  1  0
 39 50  1  0
  1 51  1  0
  1 52  1  0
  2 53  1  0
  4 54  1  0
  4 55  1  0
  5 56  1  0
  6 57  1  0
  6 58  1  0
  8 59  1  0
  9 60  1  0
 10 61  1  0
 11 62  1  1
 12 63  1  1
 13 64  1  0
 13 65  1  0
 14 66  1  6
 15 67  1  0
 15 68  1  0
 16 69  1  0
 17 70  1  0
 17 71  1  0
 18 72  1  0
 18 73  1  0
 19 74  1  0
 19 75  1  0
 20 76  1  0
 20 77  1  0
 21 78  1  0
 21 79  1  0
 22 80  1  0
 23 81  1  0
 23 82  1  0
 24 83  1  0
 25 84  1  0
 25 85  1  0
 26 86  1  0
 26 87  1  0
 27 88  1  0
 27 89  1  0
 28 90  1  0
 28 91  1  0
 29 92  1  0
 29 93  1  0
 30 94  1  0
 31 95  1  0
 32 96  1  6
 33 97  1  1
 34 98  1  0
 35 99  1  0
 36100  1  0
 36101  1  0
 36102  1  0
 37103  1  0
 37104  1  0
 37105  1  0
 38106  1  1
 40107  1  0
 40108  1  0
 41109  1  0
 42110  1  0
 43111  1  0
 43112  1  0
 45113  1  0
 46114  1  0
 47115  1  0
 48116  1  0
 48117  1  0
 48118  1  0
 49119  1  0
 49120  1  0
 49121  1  0
 50122  1  0
 50123  1  0
 50124  1  0
M  END
>  <PDBID>  (1) 
1HXW

>  <PDB ID>  (1) 
1HXW

>  <Generic Name>  (1) 
Ritonavir

>  <Brand Name>  (1) 
Holkira Pak#Kaletra#Lopinavir-ritonavir#Norvir#Norvir Sec#Technivie#Viekira Pak#Viekira XR#Busvir#Empetus#Normune

>  <DrugBank ID>  (1) 
DB00503

>  <ATC Codes>  (1) 
J05AX67#J05AR10#J05AE03#J05AX66

>  <Ligand ID>  (1) 
RIT

>  <Target Name>  (1) 
Pol polyprotein

>  <UniProt ID>  (1) 
Q72874

>  <PDB ID.1>  (1) 
1HXW

>  <Seq. Identity>  (1) 
98%

$$$$
