PDB_DB00205_07
     RDKit          3D

 84 86  0  0  0  0  0  0  0  0999 V2000
   -2.1035   -1.7448   -0.2045 N   0  0  0  0  0  0  0  0  0  0  0  0
   -2.9416   -0.5987   -0.1631 C   0  0  0  0  0  0  0  0  0  0  0  0
   -0.7217   -1.4994    0.1676 C   0  0  0  0  0  0  0  0  0  0  0  0
   -0.4312   -0.0665   -0.1681 C   0  0  0  0  0  0  0  0  0  0  0  0
   -1.2147    0.7544    0.8369 C   0  0  0  0  0  0  0  0  0  0  0  0
   -2.5954    0.3690    0.8336 N   0  0  0  0  0  0  0  0  0  0  0  0
    0.9996    0.3243   -0.2291 C   0  0  0  0  0  0  0  0  0  0  0  0
    1.8291   -0.3295   -1.2650 C   0  0  0  0  0  0  0  0  0  0  0  0
    3.0428   -1.0544   -0.7969 C   0  0  0  0  0  0  0  0  0  0  0  0
    3.8368   -0.3367    0.2509 C   0  0  0  0  0  0  0  0  0  0  0  0
    3.0867    0.7841    0.9109 C   0  0  0  0  0  0  0  0  0  0  0  0
    1.6643    0.2636    1.1574 C   0  0  0  0  0  0  0  0  0  0  0  0
    0.1221   -2.4761   -0.4178 N   0  0  0  0  0  0  0  0  0  0  0  0
   -4.3034   -1.0602    0.1428 N   0  0  0  0  0  0  0  0  0  0  0  0
   -1.1135    2.2214    0.5991 C   0  0  0  0  0  0  0  0  0  0  0  0
   -1.6444    2.5950   -0.7854 C   0  0  0  0  0  0  0  0  0  0  0  0
    5.3541    0.3284   -0.3950 Cl  0  0  0  0  0  0  0  0  0  0  0  0
   -2.1035   -1.7448   -0.2045 N   0  0  0  0  0  0  0  0  0  0  0  0
   -2.9416   -0.5987   -0.1631 C   0  0  0  0  0  0  0  0  0  0  0  0
   -0.7217   -1.4994    0.1676 C   0  0  0  0  0  0  0  0  0  0  0  0
   -0.4312   -0.0665   -0.1681 C   0  0  0  0  0  0  0  0  0  0  0  0
   -1.2147    0.7544    0.8369 C   0  0  0  0  0  0  0  0  0  0  0  0
   -2.5954    0.3690    0.8336 N   0  0  0  0  0  0  0  0  0  0  0  0
    0.9996    0.3243   -0.2291 C   0  0  0  0  0  0  0  0  0  0  0  0
    1.8291   -0.3295   -1.2650 C   0  0  0  0  0  0  0  0  0  0  0  0
    3.0428   -1.0544   -0.7969 C   0  0  0  0  0  0  0  0  0  0  0  0
    3.8368   -0.3367    0.2509 C   0  0  0  0  0  0  0  0  0  0  0  0
    3.0867    0.7841    0.9109 C   0  0  0  0  0  0  0  0  0  0  0  0
    1.6643    0.2636    1.1574 C   0  0  0  0  0  0  0  0  0  0  0  0
    0.1221   -2.4761   -0.4178 N   0  0  0  0  0  0  0  0  0  0  0  0
   -4.3034   -1.0602    0.1428 N   0  0  0  0  0  0  0  0  0  0  0  0
   -1.1135    2.2214    0.5991 C   0  0  0  0  0  0  0  0  0  0  0  0
   -1.6444    2.5950   -0.7854 C   0  0  0  0  0  0  0  0  0  0  0  0
    5.3541    0.3284   -0.3950 Cl  0  0  0  0  0  0  0  0  0  0  0  0
   -2.4994   -2.5952    0.2438 H   0  0  0  0  0  0  0  0  0  0  0  0
   -2.9915   -0.1560   -1.1891 H   0  0  0  0  0  0  0  0  0  0  0  0
   -0.6981   -1.5623    1.2989 H   0  0  0  0  0  0  0  0  0  0  0  0
   -0.8663    0.1642   -1.1845 H   0  0  0  0  0  0  0  0  0  0  0  0
   -0.8119    0.5267    1.8432 H   0  0  0  0  0  0  0  0  0  0  0  0
   -3.2753    1.1136    0.9765 H   0  0  0  0  0  0  0  0  0  0  0  0
    1.0030    1.4363   -0.4495 H   0  0  0  0  0  0  0  0  0  0  0  0
    2.1727    0.4269   -2.0481 H   0  0  0  0  0  0  0  0  0  0  0  0
    1.2082   -1.0271   -1.8592 H   0  0  0  0  0  0  0  0  0  0  0  0
    3.7289   -1.1583   -1.6913 H   0  0  0  0  0  0  0  0  0  0  0  0
    2.8643   -2.0969   -0.4734 H   0  0  0  0  0  0  0  0  0  0  0  0
    4.1332   -1.0474    1.0667 H   0  0  0  0  0  0  0  0  0  0  0  0
    3.0196    1.6147    0.1600 H   0  0  0  0  0  0  0  0  0  0  0  0
    3.5832    1.0878    1.8332 H   0  0  0  0  0  0  0  0  0  0  0  0
    1.7046   -0.7705    1.5004 H   0  0  0  0  0  0  0  0  0  0  0  0
    1.1688    0.9653    1.8232 H   0  0  0  0  0  0  0  0  0  0  0  0
   -0.3939   -3.0102   -1.1352 H   0  0  0  0  0  0  0  0  0  0  0  0
    0.5246   -3.1304    0.2912 H   0  0  0  0  0  0  0  0  0  0  0  0
   -4.3255   -2.0661    0.3896 H   0  0  0  0  0  0  0  0  0  0  0  0
   -4.9640   -0.8640   -0.6184 H   0  0  0  0  0  0  0  0  0  0  0  0
   -1.7624    2.8110    1.3106 H   0  0  0  0  0  0  0  0  0  0  0  0
   -0.1128    2.6587    0.7140 H   0  0  0  0  0  0  0  0  0  0  0  0
   -2.6724    2.2124   -0.9298 H   0  0  0  0  0  0  0  0  0  0  0  0
   -0.9492    2.2707   -1.5731 H   0  0  0  0  0  0  0  0  0  0  0  0
   -1.6545    3.7222   -0.8240 H   0  0  0  0  0  0  0  0  0  0  0  0
   -2.4994   -2.5952    0.2438 H   0  0  0  0  0  0  0  0  0  0  0  0
   -2.9915   -0.1560   -1.1891 H   0  0  0  0  0  0  0  0  0  0  0  0
   -0.6981   -1.5623    1.2989 H   0  0  0  0  0  0  0  0  0  0  0  0
   -0.8663    0.1642   -1.1845 H   0  0  0  0  0  0  0  0  0  0  0  0
   -0.8119    0.5267    1.8432 H   0  0  0  0  0  0  0  0  0  0  0  0
   -3.2753    1.1136    0.9765 H   0  0  0  0  0  0  0  0  0  0  0  0
    1.0030    1.4363   -0.4495 H   0  0  0  0  0  0  0  0  0  0  0  0
    2.1727    0.4269   -2.0481 H   0  0  0  0  0  0  0  0  0  0  0  0
    1.2082   -1.0271   -1.8592 H   0  0  0  0  0  0  0  0  0  0  0  0
    3.7289   -1.1583   -1.6913 H   0  0  0  0  0  0  0  0  0  0  0  0
    2.8643   -2.0969   -0.4734 H   0  0  0  0  0  0  0  0  0  0  0  0
    4.1332   -1.0474    1.0667 H   0  0  0  0  0  0  0  0  0  0  0  0
    3.0196    1.6147    0.1600 H   0  0  0  0  0  0  0  0  0  0  0  0
    3.5832    1.0878    1.8332 H   0  0  0  0  0  0  0  0  0  0  0  0
    1.7046   -0.7705    1.5004 H   0  0  0  0  0  0  0  0  0  0  0  0
    1.1688    0.9653    1.8232 H   0  0  0  0  0  0  0  0  0  0  0  0
   -0.3939   -3.0102   -1.1352 H   0  0  0  0  0  0  0  0  0  0  0  0
    0.5246   -3.1304    0.2912 H   0  0  0  0  0  0  0  0  0  0  0  0
   -4.3255   -2.0661    0.3896 H   0  0  0  0  0  0  0  0  0  0  0  0
   -4.9640   -0.8640   -0.6184 H   0  0  0  0  0  0  0  0  0  0  0  0
   -1.7624    2.8110    1.3106 H   0  0  0  0  0  0  0  0  0  0  0  0
   -0.1128    2.6587    0.7140 H   0  0  0  0  0  0  0  0  0  0  0  0
   -2.6724    2.2124   -0.9298 H   0  0  0  0  0  0  0  0  0  0  0  0
   -0.9492    2.2707   -1.5731 H   0  0  0  0  0  0  0  0  0  0  0  0
   -1.6545    3.7222   -0.8240 H   0  0  0  0  0  0  0  0  0  0  0  0
  1  2  1  0
  1  3  1  0
  3  4  1  0
  4  5  1  0
  2  6  1  0
  5  6  1  0
  4  7  1  0
  7  8  1  0
  8  9  1  0
  9 10  1  0
 10 11  1  0
  7 12  1  0
 11 12  1  0
  3 13  1  0
  2 14  1  0
  5 15  1  0
 15 16  1  0
 10 17  1  0
 18 19  1  0
 18 20  1  0
 20 21  1  0
 21 22  1  0
 19 23  1  0
 22 23  1  0
 21 24  1  0
 24 25  1  0
 25 26  1  0
 26 27  1  0
 27 28  1  0
 24 29  1  0
 28 29  1  0
 20 30  1  0
 19 31  1  0
 22 32  1  0
 32 33  1  0
 27 34  1  0
  1 35  1  0
  2 36  1  0
  3 37  1  0
  4 38  1  0
  5 39  1  0
  6 40  1  0
  7 41  1  0
  8 42  1  0
  8 43  1  0
  9 44  1  0
  9 45  1  0
 10 46  1  0
 11 47  1  0
 11 48  1  0
 12 49  1  0
 12 50  1  0
 13 51  1  0
 13 52  1  0
 14 53  1  0
 14 54  1  0
 15 55  1  0
 15 56  1  0
 16 57  1  0
 16 58  1  0
 16 59  1  0
 18 60  1  0
 19 61  1  0
 20 62  1  0
 21 63  1  0
 22 64  1  0
 23 65  1  0
 24 66  1  0
 25 67  1  0
 25 68  1  0
 26 69  1  0
 26 70  1  0
 27 71  1  0
 28 72  1  0
 28 73  1  0
 29 74  1  0
 29 75  1  0
 30 76  1  0
 30 77  1  0
 31 78  1  0
 31 79  1  0
 32 80  1  0
 32 81  1  0
 33 82  1  0
 33 83  1  0
 33 84  1  0
M  END
>  <PDBID>  (1) 
3QFX

>  <PDB ID>  (1) 
3QFX

>  <Generic Name>  (1) 
Pyrimethamine

>  <Brand Name>  (1) 
Daraprim#Fansidar Tablets#Pyrimethamine Leucovorin

>  <DrugBank ID>  (1) 
DB00205

>  <ATC Codes>  (1) 
P01BF04#P01BD01#P01BD51

>  <Ligand ID>  (1) 
CP6

>  <Target Name>  (1) 
Dihydrofolate reductase

>  <UniProt ID>  (1) 
P00374

>  <PDB ID.1>  (1) 
3QFX

>  <Seq. Identity>  (1) 
32%

$$$$
