PDB_DB06228_04
     RDKit          3D

 63 66  0  0  0  0  0  0  0  0999 V2000
   -5.6576    1.0874   -1.1818 C   0  0  0  0  0  0  0  0  0  0  0  0
   -4.7716    1.0783   -0.0494 N   0  0  0  0  0  0  0  0  0  0  0  0
   -7.0211    1.6018   -0.9868 C   0  0  0  0  0  0  0  0  0  0  0  0
   -5.4564    1.1600    1.2170 C   0  0  0  0  0  0  0  0  0  0  0  0
   -7.5588    1.4185    0.2774 O   0  0  0  0  0  0  0  0  0  0  0  0
   -6.6621    2.0933    1.1393 C   0  0  0  0  0  0  0  0  0  0  0  0
   -1.2205   -0.9050   -0.0292 C   0  0  0  0  0  0  0  0  0  0  0  0
   -1.7733   -0.2447   -1.2727 C   0  0  0  0  0  0  0  0  0  0  0  0
   -1.8386   -0.2275    1.1394 C   0  0  0  0  0  0  0  0  0  0  0  0
   -3.2493   -0.2680   -1.3834 C   0  0  0  0  0  0  0  0  0  0  0  0
   -3.3165   -0.5492    1.1174 C   0  0  0  0  0  0  0  0  0  0  0  0
   -4.0386   -0.2060   -0.1223 C   0  0  0  0  0  0  0  0  0  0  0  0
   -6.0146   -0.0811    1.6018 O   0  0  0  0  0  0  0  0  0  0  0  0
    0.1841   -0.9188   -0.1062 N   0  0  0  0  0  0  0  0  0  0  0  0
    0.7740   -1.6680   -1.1590 C   0  0  0  0  0  0  0  0  0  0  0  0
    0.9417   -1.0656    1.0775 C   0  0  0  0  0  0  0  0  0  0  0  0
    1.7786   -2.4601   -0.6063 O   0  0  0  0  0  0  0  0  0  0  0  0
    2.0997   -1.9059    0.6291 C   0  0  1  0  0  0  0  0  0  0  0  0
    1.3094   -0.8079   -2.1145 O   0  0  0  0  0  0  0  0  0  0  0  0
    3.3620   -1.0403    0.5105 C   0  0  0  0  0  0  0  0  0  0  0  0
    4.4732   -1.7832    0.0864 N   0  0  0  0  0  0  0  0  0  0  0  0
    5.6844   -1.2054   -0.2637 C   0  0  0  0  0  0  0  0  0  0  0  0
    8.0618    0.1331   -0.0924 S   0  0  0  0  0  0  0  0  0  0  0  0
    7.5497    1.8062   -0.5623 C   0  0  0  0  0  0  0  0  0  0  0  0
    6.4710   -0.4189    0.7181 C   0  0  0  0  0  0  0  0  0  0  0  0
    6.0826    1.7948   -0.2227 C   0  0  0  0  0  0  0  0  0  0  0  0
    5.9394    0.9605    1.0320 C   0  0  0  0  0  0  0  0  0  0  0  0
    6.5621   -2.2651   -0.6781 O   0  0  0  0  0  0  0  0  0  0  0  0
    8.4418    3.0355    0.3547 Cl  0  0  0  0  0  0  0  0  0  0  0  0
   -5.7129    0.1005   -1.6976 H   0  0  0  0  0  0  0  0  0  0  0  0
   -5.1683    1.7669   -1.9451 H   0  0  0  0  0  0  0  0  0  0  0  0
   -7.0776    2.7149   -1.1722 H   0  0  0  0  0  0  0  0  0  0  0  0
   -7.7311    1.1611   -1.7170 H   0  0  0  0  0  0  0  0  0  0  0  0
   -4.8118    1.5956    2.0064 H   0  0  0  0  0  0  0  0  0  0  0  0
   -6.3937    3.0278    0.6465 H   0  0  0  0  0  0  0  0  0  0  0  0
   -7.0792    2.2041    2.1571 H   0  0  0  0  0  0  0  0  0  0  0  0
   -1.5617   -1.9832   -0.0070 H   0  0  0  0  0  0  0  0  0  0  0  0
   -1.3689    0.8082   -1.2548 H   0  0  0  0  0  0  0  0  0  0  0  0
   -1.3205   -0.7725   -2.1380 H   0  0  0  0  0  0  0  0  0  0  0  0
   -1.7397    0.8800    1.0634 H   0  0  0  0  0  0  0  0  0  0  0  0
   -1.4660   -0.6080    2.1249 H   0  0  0  0  0  0  0  0  0  0  0  0
   -3.5199    0.5850   -2.0782 H   0  0  0  0  0  0  0  0  0  0  0  0
   -3.5249   -1.1723   -2.0062 H   0  0  0  0  0  0  0  0  0  0  0  0
   -3.7325   -0.1138    2.0218 H   0  0  0  0  0  0  0  0  0  0  0  0
   -3.3717   -1.6665    1.2676 H   0  0  0  0  0  0  0  0  0  0  0  0
   -4.8804   -0.9578   -0.2363 H   0  0  0  0  0  0  0  0  0  0  0  0
   -6.6001    0.1583    2.3896 H   0  0  0  0  0  0  0  0  0  0  0  0
    0.0142   -2.3019   -1.7052 H   0  0  0  0  0  0  0  0  0  0  0  0
    0.4115   -1.4725    1.9574 H   0  0  0  0  0  0  0  0  0  0  0  0
    1.3428   -0.0703    1.4064 H   0  0  0  0  0  0  0  0  0  0  0  0
    2.3075   -2.7119    1.3469 H   0  0  0  0  0  0  0  0  0  0  0  0
    1.2172    0.1234   -1.8220 H   0  0  0  0  0  0  0  0  0  0  0  0
    3.1653   -0.1228   -0.0379 H   0  0  0  0  0  0  0  0  0  0  0  0
    3.5460   -0.7563    1.5995 H   0  0  0  0  0  0  0  0  0  0  0  0
    4.5219   -2.7617    0.3794 H   0  0  0  0  0  0  0  0  0  0  0  0
    5.5726   -0.5448   -1.1779 H   0  0  0  0  0  0  0  0  0  0  0  0
    7.6999    1.9222   -1.6589 H   0  0  0  0  0  0  0  0  0  0  0  0
    6.7505   -0.9352    1.6372 H   0  0  0  0  0  0  0  0  0  0  0  0
    5.8212    2.8360    0.0669 H   0  0  0  0  0  0  0  0  0  0  0  0
    5.4563    1.4606   -1.0448 H   0  0  0  0  0  0  0  0  0  0  0  0
    6.6422    1.3923    1.7863 H   0  0  0  0  0  0  0  0  0  0  0  0
    4.9107    0.9926    1.3285 H   0  0  0  0  0  0  0  0  0  0  0  0
    6.5450   -2.9269    0.0438 H   0  0  0  0  0  0  0  0  0  0  0  0
  1  2  1  0
  1  3  1  0
  2  4  1  0
  3  5  1  0
  4  6  1  0
  5  6  1  0
  7  8  1  0
  7  9  1  0
  8 10  1  0
  9 11  1  0
  2 12  1  0
 10 12  1  0
 11 12  1  0
  4 13  1  0
  7 14  1  0
 14 15  1  0
 14 16  1  0
 15 17  1  0
 16 18  1  0
 17 18  1  0
 15 19  1  0
 18 20  1  0
 20 21  1  0
 21 22  1  0
 23 24  1  0
 22 25  1  0
 23 25  1  0
 24 26  1  0
 25 27  1  0
 26 27  1  0
 22 28  1  0
 24 29  1  0
  1 30  1  0
  1 31  1  0
  3 32  1  0
  3 33  1  0
  4 34  1  0
  6 35  1  0
  6 36  1  0
  7 37  1  0
  8 38  1  0
  8 39  1  0
  9 40  1  0
  9 41  1  0
 10 42  1  0
 10 43  1  0
 11 44  1  0
 11 45  1  0
 12 46  1  0
 13 47  1  0
 15 48  1  0
 16 49  1  0
 16 50  1  0
 18 51  1  1
 19 52  1  0
 20 53  1  0
 20 54  1  0
 21 55  1  0
 22 56  1  0
 24 57  1  0
 25 58  1  0
 26 59  1  0
 26 60  1  0
 27 61  1  0
 27 62  1  0
 28 63  1  0
M  END
>  <PDBID>  (1) 
2W26

>  <PDB ID>  (1) 
2W26

>  <Generic Name>  (1) 
Rivaroxaban

>  <Brand Name>  (1) 
Xarelto

>  <DrugBank ID>  (1) 
DB06228

>  <ATC Codes>  (1) 
B01AF01

>  <Ligand ID>  (1) 
RIV

>  <Target Name>  (1) 
Coagulation factor X

>  <UniProt ID>  (1) 
P00742

>  <PDB ID.1>  (1) 
2W26

>  <Seq. Identity>  (1) 
100%

$$$$
