PDB_DB11363_00
     RDKit          3D

 90 95  0  0  0  0  0  0  0  0999 V2000
   -5.9198   -0.8432   -1.4138 C   0  0  0  0  0  0  0  0  0  0  0  0
   -7.1491    0.3358    0.4379 C   0  0  0  0  0  0  0  0  0  0  0  0
   -7.1225   -0.8395   -0.5123 C   0  0  0  0  0  0  0  0  0  0  0  0
   -3.4904   -1.2524   -0.9026 C   0  0  0  0  0  0  0  0  0  0  0  0
   -3.0367   -1.6752    0.4721 C   0  0  0  0  0  0  0  0  0  0  0  0
    1.3974    0.1176   -0.6913 C   0  0  0  0  0  0  0  0  0  0  0  0
   -0.5652    0.8970   -1.8746 C   0  0  0  0  0  0  0  0  0  0  0  0
   -1.4918    0.2801   -0.8920 C   0  0  0  0  0  0  0  0  0  0  0  0
   -1.5577   -1.7312    0.6155 C   0  0  0  0  0  0  0  0  0  0  0  0
   -1.2694   -1.9962    2.1028 C   0  0  0  0  0  0  0  0  0  0  0  0
   -1.0023   -2.8749   -0.1462 C   0  0  0  0  0  0  0  0  0  0  0  0
    0.1667    2.7310    0.6793 C   0  0  0  0  0  0  0  0  0  0  0  0
    5.4743    0.4347    0.5668 C   0  0  0  0  0  0  0  0  0  0  0  0
    4.4692   -0.3695    1.3061 C   0  0  0  0  0  0  0  0  0  0  0  0
   -7.4008    2.7162    0.6540 N   0  0  0  0  0  0  0  0  0  0  0  0
   -7.3844    1.6342   -0.2899 C   0  0  0  0  0  0  0  0  0  0  0  0
   -5.8821    0.3893    1.2950 C   0  0  0  0  0  0  0  0  0  0  0  0
   -4.9800   -0.6760    0.8127 C   0  0  0  0  0  0  0  0  0  0  0  0
   -4.6931   -0.4009   -0.6724 C   0  0  0  0  0  0  0  0  0  0  0  0
   -3.6609   -0.6855    1.3539 N   0  0  0  0  0  0  0  0  0  0  0  0
   -0.8995   -0.3832    0.2797 C   0  0  0  0  0  0  0  0  0  0  0  0
   -2.4201   -0.6300   -1.7179 C   0  0  0  0  0  0  0  0  0  0  0  0
   -3.0584    0.2582   -2.6218 O   0  0  0  0  0  0  0  0  0  0  0  0
    0.5594   -0.5577    0.3399 C   0  0  0  0  0  0  0  0  0  0  0  0
    0.7899    1.3014   -1.3383 C   0  0  0  0  0  0  0  0  0  0  0  0
    0.8155    2.5956   -0.6349 C   0  0  0  0  0  0  0  0  0  0  0  0
    2.7325    0.3454   -0.1776 N   0  0  0  0  0  0  0  0  0  0  0  0
    3.6674    0.8401   -1.1243 C   0  0  0  0  0  0  0  0  0  0  0  0
    4.8464    1.4426   -0.3456 C   0  0  0  0  0  0  0  0  0  0  0  0
    3.2879   -0.8139    0.4364 C   0  0  0  0  0  0  0  0  0  0  0  0
    6.4707   -0.3911   -0.0757 N   0  0  0  0  0  0  0  0  0  0  0  0
    7.3465    0.4028   -0.9270 C   0  0  0  0  0  0  0  0  0  0  0  0
    8.6421   -0.3586   -1.1093 C   0  0  0  0  0  0  0  0  0  0  0  0
    9.3739   -0.2434    0.0693 O   0  0  0  0  0  0  0  0  0  0  0  0
    8.5465   -0.0624    1.1756 C   0  0  0  0  0  0  0  0  0  0  0  0
    7.3214   -0.9491    0.9579 C   0  0  0  0  0  0  0  0  0  0  0  0
   -6.0977   -0.3073   -2.3468 H   0  0  0  0  0  0  0  0  0  0  0  0
   -5.7501   -1.9211   -1.7029 H   0  0  0  0  0  0  0  0  0  0  0  0
   -8.0129    0.1703    1.1189 H   0  0  0  0  0  0  0  0  0  0  0  0
   -8.0159   -0.7486   -1.1546 H   0  0  0  0  0  0  0  0  0  0  0  0
   -7.2474   -1.7844    0.0596 H   0  0  0  0  0  0  0  0  0  0  0  0
   -3.8217   -2.1870   -1.4334 H   0  0  0  0  0  0  0  0  0  0  0  0
   -3.4561   -2.6442    0.7497 H   0  0  0  0  0  0  0  0  0  0  0  0
    1.5538   -0.6344   -1.5286 H   0  0  0  0  0  0  0  0  0  0  0  0
   -0.4187    0.2251   -2.7683 H   0  0  0  0  0  0  0  0  0  0  0  0
   -0.9878    1.8386   -2.3380 H   0  0  0  0  0  0  0  0  0  0  0  0
   -2.2067    1.1119   -0.5929 H   0  0  0  0  0  0  0  0  0  0  0  0
   -0.2054   -2.3377    2.1339 H   0  0  0  0  0  0  0  0  0  0  0  0
   -1.9158   -2.8115    2.4384 H   0  0  0  0  0  0  0  0  0  0  0  0
   -1.3737   -1.0585    2.6767 H   0  0  0  0  0  0  0  0  0  0  0  0
   -0.3780   -2.6277   -1.0173 H   0  0  0  0  0  0  0  0  0  0  0  0
   -0.4501   -3.6080    0.5135 H   0  0  0  0  0  0  0  0  0  0  0  0
   -1.8466   -3.5011   -0.5640 H   0  0  0  0  0  0  0  0  0  0  0  0
    0.5457    2.0930    1.4828 H   0  0  0  0  0  0  0  0  0  0  0  0
    0.3878    3.7859    1.0329 H   0  0  0  0  0  0  0  0  0  0  0  0
   -0.9493    2.6986    0.6754 H   0  0  0  0  0  0  0  0  0  0  0  0
    6.0434    1.0328    1.3406 H   0  0  0  0  0  0  0  0  0  0  0  0
    4.8455   -1.2758    1.7750 H   0  0  0  0  0  0  0  0  0  0  0  0
    4.0263    0.2619    2.1226 H   0  0  0  0  0  0  0  0  0  0  0  0
   -7.6869    2.3184    1.5766 H   0  0  0  0  0  0  0  0  0  0  0  0
   -6.4533    3.0973    0.7528 H   0  0  0  0  0  0  0  0  0  0  0  0
   -6.6409    1.7787   -1.1044 H   0  0  0  0  0  0  0  0  0  0  0  0
   -8.3694    1.5759   -0.7630 H   0  0  0  0  0  0  0  0  0  0  0  0
   -6.1315    0.1686    2.3726 H   0  0  0  0  0  0  0  0  0  0  0  0
   -5.3966    1.3647    1.2592 H   0  0  0  0  0  0  0  0  0  0  0  0
   -5.4135   -1.6872    0.9467 H   0  0  0  0  0  0  0  0  0  0  0  0
   -4.4946    0.6820   -0.7717 H   0  0  0  0  0  0  0  0  0  0  0  0
   -3.5819   -0.9253    2.3464 H   0  0  0  0  0  0  0  0  0  0  0  0
   -1.1935    0.2366    1.1883 H   0  0  0  0  0  0  0  0  0  0  0  0
   -1.8511   -1.3147   -2.3645 H   0  0  0  0  0  0  0  0  0  0  0  0
   -3.1219    1.1738   -2.2206 H   0  0  0  0  0  0  0  0  0  0  0  0
    0.9819   -0.2514    1.3460 H   0  0  0  0  0  0  0  0  0  0  0  0
    0.8129   -1.6620    0.3148 H   0  0  0  0  0  0  0  0  0  0  0  0
    1.3858    1.4651   -2.2973 H   0  0  0  0  0  0  0  0  0  0  0  0
    1.8481    2.9976   -0.5537 H   0  0  0  0  0  0  0  0  0  0  0  0
    0.3039    3.3350   -1.3253 H   0  0  0  0  0  0  0  0  0  0  0  0
    3.3401    1.6201   -1.8053 H   0  0  0  0  0  0  0  0  0  0  0  0
    4.0935   -0.0471   -1.6823 H   0  0  0  0  0  0  0  0  0  0  0  0
    4.4064    2.2480    0.2834 H   0  0  0  0  0  0  0  0  0  0  0  0
    5.5421    1.8258   -1.1148 H   0  0  0  0  0  0  0  0  0  0  0  0
    2.6482   -1.3835    1.1044 H   0  0  0  0  0  0  0  0  0  0  0  0
    3.6833   -1.5494   -0.3216 H   0  0  0  0  0  0  0  0  0  0  0  0
    6.8845    0.4815   -1.9329 H   0  0  0  0  0  0  0  0  0  0  0  0
    7.6000    1.3858   -0.4960 H   0  0  0  0  0  0  0  0  0  0  0  0
    9.2168    0.1776   -1.9047 H   0  0  0  0  0  0  0  0  0  0  0  0
    8.4585   -1.4185   -1.3808 H   0  0  0  0  0  0  0  0  0  0  0  0
    8.2873    0.9800    1.3766 H   0  0  0  0  0  0  0  0  0  0  0  0
    9.0641   -0.4346    2.0987 H   0  0  0  0  0  0  0  0  0  0  0  0
    7.7318   -1.9418    0.6504 H   0  0  0  0  0  0  0  0  0  0  0  0
    6.8537   -1.0561    1.9346 H   0  0  0  0  0  0  0  0  0  0  0  0
  1  3  1  0
  2  3  1  0
  4  5  1  0
  7  8  1  0
  5  9  1  0
  9 10  1  0
  9 11  1  0
 13 14  1  0
  2 16  1  0
 15 16  1  0
  2 17  1  0
 17 18  1  0
  1 19  1  0
  4 19  1  0
 18 19  1  0
  5 20  1  0
 18 20  1  0
  8 21  1  0
  9 21  1  0
  4 22  1  0
  8 22  1  0
 22 23  1  0
  6 24  1  0
 21 24  1  0
  6 25  1  0
  7 25  1  0
 12 26  1  0
 25 26  1  0
  6 27  1  0
 27 28  1  0
 13 29  1  0
 28 29  1  0
 14 30  1  0
 27 30  1  0
 13 31  1  0
 31 32  1  0
 32 33  1  0
 33 34  1  0
 34 35  1  0
 31 36  1  0
 35 36  1  0
  1 37  1  0
  1 38  1  0
  2 39  1  0
  3 40  1  0
  3 41  1  0
  4 42  1  0
  5 43  1  0
  6 44  1  0
  7 45  1  0
  7 46  1  0
  8 47  1  0
 10 48  1  0
 10 49  1  0
 10 50  1  0
 11 51  1  0
 11 52  1  0
 11 53  1  0
 12 54  1  0
 12 55  1  0
 12 56  1  0
 13 57  1  0
 14 58  1  0
 14 59  1  0
 15 60  1  0
 15 61  1  0
 16 62  1  0
 16 63  1  0
 17 64  1  0
 17 65  1  0
 18 66  1  0
 19 67  1  0
 20 68  1  0
 21 69  1  0
 22 70  1  0
 23 71  1  0
 24 72  1  0
 24 73  1  0
 25 74  1  0
 26 75  1  0
 26 76  1  0
 28 77  1  0
 28 78  1  0
 29 79  1  0
 29 80  1  0
 30 81  1  0
 30 82  1  0
 32 83  1  0
 32 84  1  0
 33 85  1  0
 33 86  1  0
 35 87  1  0
 35 88  1  0
 36 89  1  0
 36 90  1  0
M  END
>  <PDBID>  (1) 
3AOX

>  <PDB ID>  (1) 
3AOX

>  <Generic Name>  (1) 
Alectinib

>  <Brand Name>  (1) 
Alecensa#Alecensaro

>  <DrugBank ID>  (1) 
DB11363

>  <ATC Codes>  (1) 
nan

>  <Ligand ID>  (1) 
EMH

>  <Target Name>  (1) 
ALK tyrosine kinase receptor

>  <UniProt ID>  (1) 
Q9UM73

>  <PDB ID.1>  (1) 
3AOX

>  <Seq. Identity>  (1) 
100%

$$$$
