PDB_DB08809_00
     RDKit          3D

 10  9  0  0  0  0  0  0  0  0999 V2000
    0.9745    0.1081   -0.2254 C   0  0  0  0  0  0  0  0  0  0  0  0
   -0.5476   -0.0724   -0.1772 C   0  0  0  0  0  0  0  0  0  0  0  0
   -0.9069   -0.8560    0.8972 O   0  0  0  0  0  0  0  0  0  0  0  0
    1.4253    0.8966    1.3077 Cl  0  0  0  0  0  0  0  0  0  0  0  0
    1.7762   -1.4792   -0.2961 Cl  0  0  0  0  0  0  0  0  0  0  0  0
   -1.0825    1.1917    0.0135 O   0  0  0  0  0  0  0  0  0  0  0  0
    1.2684    0.7564   -1.0465 H   0  0  0  0  0  0  0  0  0  0  0  0
   -0.9167   -0.5257   -1.1068 H   0  0  0  0  0  0  0  0  0  0  0  0
   -0.1811   -1.4431    1.2230 H   0  0  0  0  0  0  0  0  0  0  0  0
   -1.8096    1.4236   -0.5895 H   0  0  0  0  0  0  0  0  0  0  0  0
  1  2  1  0
  2  3  1  0
  1  4  1  0
  1  5  1  0
  2  6  1  0
  1  7  1  0
  2  8  1  0
  3  9  1  0
  6 10  1  0
M  END
>  <PDBID>  (1) 
2Q8H

>  <PDB ID>  (1) 
2Q8H

>  <Generic Name>  (1) 
Dichloroacetic Acid

>  <Brand Name>  (1) 
Bichloracetic Acid 100%

>  <DrugBank ID>  (1) 
DB08809

>  <ATC Codes>  (1) 
nan

>  <Ligand ID>  (1) 
TF4

>  <Target Name>  (1) 
[Pyruvate dehydrogenase (acetyl-transferring)] kinase isozyme 1, mitochondrial

>  <UniProt ID>  (1) 
Q15118

>  <PDB ID.1>  (1) 
2Q8H

>  <Seq. Identity>  (1) 
100%

$$$$
