PDB_DB01041_04
     RDKit          3D

172180  0  0  0  0  0  0  0  0999 V2000
    2.0285   -1.3095   -1.5279 O   0  0  0  0  0  0  0  0  0  0  0  0
    2.2375    0.0597   -1.3742 C   0  0  0  0  0  0  0  0  0  0  0  0
    3.6860    0.2426   -1.3118 N   0  0  0  0  0  0  0  0  0  0  0  0
    4.1710    0.2448    0.0406 C   0  0  0  0  0  0  0  0  0  0  0  0
    5.4897   -0.1737    0.0491 O   0  0  0  0  0  0  0  0  0  0  0  0
    3.3922   -0.6908    0.9389 C   0  0  0  0  0  0  0  0  0  0  0  0
    1.9688   -0.1906    1.1177 C   0  0  0  0  0  0  0  0  0  0  0  0
    1.5952    0.5813   -0.1050 C   0  0  2  0  0  0  0  0  0  0  0  0
    0.2019    0.7434   -0.3070 N   0  0  0  0  0  0  0  0  0  0  0  0
   -4.2003   -0.7004   -0.4331 C   0  0  0  0  0  0  0  0  0  0  0  0
   -2.8591   -1.1075   -0.9222 C   0  0  0  0  0  0  0  0  0  0  0  0
   -1.8899   -0.0039   -0.7691 C   0  0  0  0  0  0  0  0  0  0  0  0
   -1.8570    0.2981    0.7401 C   0  0  0  0  0  0  0  0  0  0  0  0
   -0.2415   -0.2929   -2.3884 O   0  0  0  0  0  0  0  0  0  0  0  0
   -0.6652    2.3341    1.2274 O   0  0  0  0  0  0  0  0  0  0  0  0
   -3.0863    1.0842    0.9850 C   0  0  0  0  0  0  0  0  0  0  0  0
   -4.2841    0.2711    0.6537 C   0  0  0  0  0  0  0  0  0  0  0  0
   -0.5617    1.0139    0.8804 C   0  0  2  0  0  0  0  0  0  0  0  0
   -0.4488   -0.3511   -1.0056 C   0  0  0  0  0  0  0  0  0  0  0  0
    2.0285   -1.3095   -1.5279 O   0  0  0  0  0  0  0  0  0  0  0  0
    2.2375    0.0597   -1.3742 C   0  0  0  0  0  0  0  0  0  0  0  0
    3.6860    0.2426   -1.3118 N   0  0  0  0  0  0  0  0  0  0  0  0
    4.1710    0.2448    0.0406 C   0  0  0  0  0  0  0  0  0  0  0  0
    5.4897   -0.1737    0.0491 O   0  0  0  0  0  0  0  0  0  0  0  0
    3.3922   -0.6908    0.9389 C   0  0  0  0  0  0  0  0  0  0  0  0
    1.9688   -0.1906    1.1177 C   0  0  0  0  0  0  0  0  0  0  0  0
    1.5952    0.5813   -0.1050 C   0  0  2  0  0  0  0  0  0  0  0  0
    0.2019    0.7434   -0.3070 N   0  0  0  0  0  0  0  0  0  0  0  0
   -4.2003   -0.7004   -0.4331 C   0  0  0  0  0  0  0  0  0  0  0  0
   -2.8591   -1.1075   -0.9222 C   0  0  0  0  0  0  0  0  0  0  0  0
   -1.8899   -0.0039   -0.7691 C   0  0  0  0  0  0  0  0  0  0  0  0
   -1.8570    0.2981    0.7401 C   0  0  0  0  0  0  0  0  0  0  0  0
   -0.2415   -0.2929   -2.3884 O   0  0  0  0  0  0  0  0  0  0  0  0
   -0.6652    2.3341    1.2274 O   0  0  0  0  0  0  0  0  0  0  0  0
   -3.0863    1.0842    0.9850 C   0  0  0  0  0  0  0  0  0  0  0  0
   -4.2841    0.2711    0.6537 C   0  0  0  0  0  0  0  0  0  0  0  0
   -0.5617    1.0139    0.8804 C   0  0  2  0  0  0  0  0  0  0  0  0
   -0.4488   -0.3511   -1.0056 C   0  0  0  0  0  0  0  0  0  0  0  0
    2.2269   -1.5365   -1.3505 O   0  0  0  0  0  0  0  0  0  0  0  0
    2.2349   -0.1620   -1.1992 C   0  0  0  0  0  0  0  0  0  0  0  0
    3.5922    0.3802   -1.1324 N   0  0  0  0  0  0  0  0  0  0  0  0
    4.3863   -0.2534   -0.1142 C   0  0  0  0  0  0  0  0  0  0  0  0
    5.5675    0.4978   -0.0058 O   0  0  0  0  0  0  0  0  0  0  0  0
    3.7289   -0.2349    1.2339 C   0  0  0  0  0  0  0  0  0  0  0  0
    2.2565   -0.5047    1.1983 C   0  0  0  0  0  0  0  0  0  0  0  0
    1.5478    0.2345    0.0663 C   0  0  2  0  0  0  0  0  0  0  0  0
    0.1751   -0.0711    0.1682 N   0  0  0  0  0  0  0  0  0  0  0  0
   -4.3267   -0.4805   -0.4941 C   0  0  0  0  0  0  0  0  0  0  0  0
   -3.0016   -0.9159   -1.0251 C   0  0  0  0  0  0  0  0  0  0  0  0
   -1.9716    0.1360   -0.7952 C   0  0  0  0  0  0  0  0  0  0  0  0
   -1.9555    0.3204    0.7211 C   0  0  0  0  0  0  0  0  0  0  0  0
   -0.4723   -1.6006   -1.4802 O   0  0  0  0  0  0  0  0  0  0  0  0
   -0.4126    2.1373    0.3222 O   0  0  0  0  0  0  0  0  0  0  0  0
   -3.1357    1.1644    1.0172 C   0  0  0  0  0  0  0  0  0  0  0  0
   -4.3376    0.2873    0.7678 C   0  0  0  0  0  0  0  0  0  0  0  0
   -0.6095    0.9087    0.9226 C   0  0  0  0  0  0  0  0  0  0  0  0
   -0.5523   -0.2835   -1.0432 C   0  0  0  0  0  0  0  0  0  0  0  0
    2.0285   -1.3095   -1.5279 O   0  0  0  0  0  0  0  0  0  0  0  0
    2.2375    0.0597   -1.3742 C   0  0  0  0  0  0  0  0  0  0  0  0
    3.6860    0.2426   -1.3118 N   0  0  0  0  0  0  0  0  0  0  0  0
    4.1710    0.2448    0.0406 C   0  0  0  0  0  0  0  0  0  0  0  0
    5.4897   -0.1737    0.0491 O   0  0  0  0  0  0  0  0  0  0  0  0
    3.3922   -0.6908    0.9389 C   0  0  0  0  0  0  0  0  0  0  0  0
    1.9688   -0.1906    1.1177 C   0  0  0  0  0  0  0  0  0  0  0  0
    1.5952    0.5813   -0.1050 C   0  0  2  0  0  0  0  0  0  0  0  0
    0.2019    0.7434   -0.3070 N   0  0  0  0  0  0  0  0  0  0  0  0
   -4.2003   -0.7004   -0.4331 C   0  0  0  0  0  0  0  0  0  0  0  0
   -2.8591   -1.1075   -0.9222 C   0  0  0  0  0  0  0  0  0  0  0  0
   -1.8899   -0.0039   -0.7691 C   0  0  0  0  0  0  0  0  0  0  0  0
   -1.8570    0.2981    0.7401 C   0  0  0  0  0  0  0  0  0  0  0  0
   -0.2415   -0.2929   -2.3884 O   0  0  0  0  0  0  0  0  0  0  0  0
   -0.6652    2.3341    1.2274 O   0  0  0  0  0  0  0  0  0  0  0  0
   -3.0863    1.0842    0.9850 C   0  0  0  0  0  0  0  0  0  0  0  0
   -4.2841    0.2711    0.6537 C   0  0  0  0  0  0  0  0  0  0  0  0
   -0.5617    1.0139    0.8804 C   0  0  2  0  0  0  0  0  0  0  0  0
   -0.4488   -0.3511   -1.0056 C   0  0  0  0  0  0  0  0  0  0  0  0
    2.8322   -1.8062   -1.7919 H   0  0  0  0  0  0  0  0  0  0  0  0
    1.8814    0.6632   -2.2124 H   0  0  0  0  0  0  0  0  0  0  0  0
    4.1572   -0.5328   -1.8336 H   0  0  0  0  0  0  0  0  0  0  0  0
    4.1307    1.2849    0.4079 H   0  0  0  0  0  0  0  0  0  0  0  0
    5.5950   -1.1049    0.3415 H   0  0  0  0  0  0  0  0  0  0  0  0
    3.9267   -0.6831    1.9259 H   0  0  0  0  0  0  0  0  0  0  0  0
    3.4283   -1.7074    0.5310 H   0  0  0  0  0  0  0  0  0  0  0  0
    1.3343   -1.0682    1.3036 H   0  0  0  0  0  0  0  0  0  0  0  0
    2.0134    0.5059    2.0059 H   0  0  0  0  0  0  0  0  0  0  0  0
    2.0316    1.6167    0.0291 H   0  0  0  0  0  0  0  0  0  0  0  0
   -4.7923   -0.3702   -1.3381 H   0  0  0  0  0  0  0  0  0  0  0  0
   -4.7321   -1.6475   -0.1146 H   0  0  0  0  0  0  0  0  0  0  0  0
   -2.9308   -1.4895   -1.9694 H   0  0  0  0  0  0  0  0  0  0  0  0
   -2.4916   -1.9775   -0.3155 H   0  0  0  0  0  0  0  0  0  0  0  0
   -2.1530    0.9074   -1.3283 H   0  0  0  0  0  0  0  0  0  0  0  0
   -1.9215   -0.6639    1.2852 H   0  0  0  0  0  0  0  0  0  0  0  0
   -1.0563   -0.0895   -2.8939 H   0  0  0  0  0  0  0  0  0  0  0  0
    0.2655    2.7001    1.2695 H   0  0  0  0  0  0  0  0  0  0  0  0
   -3.0700    1.9575    0.2681 H   0  0  0  0  0  0  0  0  0  0  0  0
   -3.1853    1.4905    1.9990 H   0  0  0  0  0  0  0  0  0  0  0  0
   -4.6307   -0.2100    1.6166 H   0  0  0  0  0  0  0  0  0  0  0  0
   -5.1189    0.9994    0.4209 H   0  0  0  0  0  0  0  0  0  0  0  0
   -0.0056    0.5050    1.7245 H   0  0  0  0  0  0  0  0  0  0  0  0
   -0.1851   -1.3325   -0.5725 H   0  0  0  0  0  0  0  0  0  0  0  0
    2.8322   -1.8062   -1.7919 H   0  0  0  0  0  0  0  0  0  0  0  0
    1.8814    0.6632   -2.2124 H   0  0  0  0  0  0  0  0  0  0  0  0
    4.1572   -0.5328   -1.8336 H   0  0  0  0  0  0  0  0  0  0  0  0
    4.1307    1.2849    0.4079 H   0  0  0  0  0  0  0  0  0  0  0  0
    5.5950   -1.1049    0.3415 H   0  0  0  0  0  0  0  0  0  0  0  0
    3.9267   -0.6831    1.9259 H   0  0  0  0  0  0  0  0  0  0  0  0
    3.4283   -1.7074    0.5310 H   0  0  0  0  0  0  0  0  0  0  0  0
    1.3343   -1.0682    1.3036 H   0  0  0  0  0  0  0  0  0  0  0  0
    2.0134    0.5059    2.0059 H   0  0  0  0  0  0  0  0  0  0  0  0
    2.0316    1.6167    0.0291 H   0  0  0  0  0  0  0  0  0  0  0  0
   -4.7923   -0.3702   -1.3381 H   0  0  0  0  0  0  0  0  0  0  0  0
   -4.7321   -1.6475   -0.1146 H   0  0  0  0  0  0  0  0  0  0  0  0
   -2.9308   -1.4895   -1.9694 H   0  0  0  0  0  0  0  0  0  0  0  0
   -2.4916   -1.9775   -0.3155 H   0  0  0  0  0  0  0  0  0  0  0  0
   -2.1530    0.9074   -1.3283 H   0  0  0  0  0  0  0  0  0  0  0  0
   -1.9215   -0.6639    1.2852 H   0  0  0  0  0  0  0  0  0  0  0  0
   -1.0563   -0.0895   -2.8939 H   0  0  0  0  0  0  0  0  0  0  0  0
    0.2655    2.7001    1.2695 H   0  0  0  0  0  0  0  0  0  0  0  0
   -3.0700    1.9575    0.2681 H   0  0  0  0  0  0  0  0  0  0  0  0
   -3.1853    1.4905    1.9990 H   0  0  0  0  0  0  0  0  0  0  0  0
   -4.6307   -0.2100    1.6166 H   0  0  0  0  0  0  0  0  0  0  0  0
   -5.1189    0.9994    0.4209 H   0  0  0  0  0  0  0  0  0  0  0  0
   -0.0056    0.5050    1.7245 H   0  0  0  0  0  0  0  0  0  0  0  0
   -0.1851   -1.3325   -0.5725 H   0  0  0  0  0  0  0  0  0  0  0  0
    3.0904   -1.9213   -1.6080 H   0  0  0  0  0  0  0  0  0  0  0  0
    1.8116    0.2730   -2.1171 H   0  0  0  0  0  0  0  0  0  0  0  0
    4.0744    0.2711   -2.0435 H   0  0  0  0  0  0  0  0  0  0  0  0
    4.6106   -1.3020   -0.3905 H   0  0  0  0  0  0  0  0  0  0  0  0
    5.4928    1.2053    0.6904 H   0  0  0  0  0  0  0  0  0  0  0  0
    3.8956    0.6893    1.8063 H   0  0  0  0  0  0  0  0  0  0  0  0
    4.2000   -1.0561    1.8316 H   0  0  0  0  0  0  0  0  0  0  0  0
    2.0108   -1.5924    1.1066 H   0  0  0  0  0  0  0  0  0  0  0  0
    1.8496   -0.2031    2.1955 H   0  0  0  0  0  0  0  0  0  0  0  0
    1.7459    1.3184    0.2598 H   0  0  0  0  0  0  0  0  0  0  0  0
   -4.9050    0.0760   -1.2738 H   0  0  0  0  0  0  0  0  0  0  0  0
   -4.9205   -1.4158   -0.3243 H   0  0  0  0  0  0  0  0  0  0  0  0
   -3.1183   -1.0366   -2.1321 H   0  0  0  0  0  0  0  0  0  0  0  0
   -2.6567   -1.8977   -0.6547 H   0  0  0  0  0  0  0  0  0  0  0  0
   -2.2697    1.0536   -1.3234 H   0  0  0  0  0  0  0  0  0  0  0  0
   -1.9981   -0.6630    1.2034 H   0  0  0  0  0  0  0  0  0  0  0  0
   -0.3533   -1.6080   -2.4697 H   0  0  0  0  0  0  0  0  0  0  0  0
   -1.0968    2.3929   -0.3286 H   0  0  0  0  0  0  0  0  0  0  0  0
   -3.1293    2.0748    0.3745 H   0  0  0  0  0  0  0  0  0  0  0  0
   -3.1198    1.4188    2.1013 H   0  0  0  0  0  0  0  0  0  0  0  0
   -4.4295   -0.3779    1.6617 H   0  0  0  0  0  0  0  0  0  0  0  0
   -5.2557    0.9265    0.7838 H   0  0  0  0  0  0  0  0  0  0  0  0
   -0.2818    0.9583    1.9785 H   0  0  0  0  0  0  0  0  0  0  0  0
   -0.1876    0.3922   -1.8585 H   0  0  0  0  0  0  0  0  0  0  0  0
    2.8322   -1.8062   -1.7919 H   0  0  0  0  0  0  0  0  0  0  0  0
    1.8814    0.6632   -2.2124 H   0  0  0  0  0  0  0  0  0  0  0  0
    4.1572   -0.5328   -1.8336 H   0  0  0  0  0  0  0  0  0  0  0  0
    4.1307    1.2849    0.4079 H   0  0  0  0  0  0  0  0  0  0  0  0
    5.5950   -1.1049    0.3415 H   0  0  0  0  0  0  0  0  0  0  0  0
    3.9267   -0.6831    1.9259 H   0  0  0  0  0  0  0  0  0  0  0  0
    3.4283   -1.7074    0.5310 H   0  0  0  0  0  0  0  0  0  0  0  0
    1.3343   -1.0682    1.3036 H   0  0  0  0  0  0  0  0  0  0  0  0
    2.0134    0.5059    2.0059 H   0  0  0  0  0  0  0  0  0  0  0  0
    2.0316    1.6167    0.0291 H   0  0  0  0  0  0  0  0  0  0  0  0
   -4.7923   -0.3702   -1.3381 H   0  0  0  0  0  0  0  0  0  0  0  0
   -4.7321   -1.6475   -0.1146 H   0  0  0  0  0  0  0  0  0  0  0  0
   -2.9308   -1.4895   -1.9694 H   0  0  0  0  0  0  0  0  0  0  0  0
   -2.4916   -1.9775   -0.3155 H   0  0  0  0  0  0  0  0  0  0  0  0
   -2.1530    0.9074   -1.3283 H   0  0  0  0  0  0  0  0  0  0  0  0
   -1.9215   -0.6639    1.2852 H   0  0  0  0  0  0  0  0  0  0  0  0
   -1.0563   -0.0895   -2.8939 H   0  0  0  0  0  0  0  0  0  0  0  0
    0.2655    2.7001    1.2695 H   0  0  0  0  0  0  0  0  0  0  0  0
   -3.0700    1.9575    0.2681 H   0  0  0  0  0  0  0  0  0  0  0  0
   -3.1853    1.4905    1.9990 H   0  0  0  0  0  0  0  0  0  0  0  0
   -4.6307   -0.2100    1.6166 H   0  0  0  0  0  0  0  0  0  0  0  0
   -5.1189    0.9994    0.4209 H   0  0  0  0  0  0  0  0  0  0  0  0
   -0.0056    0.5050    1.7245 H   0  0  0  0  0  0  0  0  0  0  0  0
   -0.1851   -1.3325   -0.5725 H   0  0  0  0  0  0  0  0  0  0  0  0
  1  2  1  0
  2  3  1  0
  3  4  1  0
  4  5  1  0
  4  6  1  0
  6  7  1  0
  2  8  1  0
  7  8  1  0
  8  9  1  0
 10 11  1  0
 11 12  1  0
 12 13  1  0
 13 16  1  0
 10 17  1  0
 16 17  1  0
  9 18  1  0
 13 18  1  0
 15 18  1  0
  9 19  1  0
 12 19  1  0
 14 19  1  0
 20 21  1  0
 21 22  1  0
 22 23  1  0
 23 24  1  0
 23 25  1  0
 25 26  1  0
 21 27  1  0
 26 27  1  0
 27 28  1  0
 29 30  1  0
 30 31  1  0
 31 32  1  0
 32 35  1  0
 29 36  1  0
 35 36  1  0
 28 37  1  0
 32 37  1  0
 34 37  1  0
 28 38  1  0
 31 38  1  0
 33 38  1  0
 39 40  1  0
 40 41  1  0
 41 42  1  0
 42 43  1  0
 42 44  1  0
 44 45  1  0
 40 46  1  0
 45 46  1  0
 46 47  1  0
 48 49  1  0
 49 50  1  0
 50 51  1  0
 51 54  1  0
 48 55  1  0
 54 55  1  0
 47 56  1  0
 51 56  1  0
 53 56  1  0
 47 57  1  0
 50 57  1  0
 52 57  1  0
 58 59  1  0
 59 60  1  0
 60 61  1  0
 61 62  1  0
 61 63  1  0
 63 64  1  0
 59 65  1  0
 64 65  1  0
 65 66  1  0
 67 68  1  0
 68 69  1  0
 69 70  1  0
 70 73  1  0
 67 74  1  0
 73 74  1  0
 66 75  1  0
 70 75  1  0
 72 75  1  0
 66 76  1  0
 69 76  1  0
 71 76  1  0
  1 77  1  0
  2 78  1  0
  3 79  1  0
  4 80  1  0
  5 81  1  0
  6 82  1  0
  6 83  1  0
  7 84  1  0
  7 85  1  0
  8 86  1  1
 10 87  1  0
 10 88  1  0
 11 89  1  0
 11 90  1  0
 12 91  1  0
 13 92  1  0
 14 93  1  0
 15 94  1  0
 16 95  1  0
 16 96  1  0
 17 97  1  0
 17 98  1  0
 18 99  1  1
 19100  1  0
 20101  1  0
 21102  1  0
 22103  1  0
 23104  1  0
 24105  1  0
 25106  1  0
 25107  1  0
 26108  1  0
 26109  1  0
 27110  1  1
 29111  1  0
 29112  1  0
 30113  1  0
 30114  1  0
 31115  1  0
 32116  1  0
 33117  1  0
 34118  1  0
 35119  1  0
 35120  1  0
 36121  1  0
 36122  1  0
 37123  1  1
 38124  1  0
 39125  1  0
 40126  1  0
 41127  1  0
 42128  1  0
 43129  1  0
 44130  1  0
 44131  1  0
 45132  1  0
 45133  1  0
 46134  1  1
 48135  1  0
 48136  1  0
 49137  1  0
 49138  1  0
 50139  1  0
 51140  1  0
 52141  1  0
 53142  1  0
 54143  1  0
 54144  1  0
 55145  1  0
 55146  1  0
 56147  1  0
 57148  1  0
 58149  1  0
 59150  1  0
 60151  1  0
 61152  1  0
 62153  1  0
 63154  1  0
 63155  1  0
 64156  1  0
 64157  1  0
 65158  1  1
 67159  1  0
 67160  1  0
 68161  1  0
 68162  1  0
 69163  1  0
 70164  1  0
 71165  1  0
 72166  1  0
 73167  1  0
 73168  1  0
 74169  1  0
 74170  1  0
 75171  1  1
 76172  1  0
M  END
>  <PDBID>  (1) 
4TZC

>  <PDB ID>  (1) 
4TZC

>  <Generic Name>  (1) 
Thalidomide

>  <Brand Name>  (1) 
Thalomid#Contergan#Distaval#K-17#Pro-ban M#Sedalis#Softenon#Talimol#Thaled

>  <DrugBank ID>  (1) 
DB01041

>  <ATC Codes>  (1) 
L04AX02

>  <Ligand ID>  (1) 
EF2

>  <Target Name>  (1) 
Protein cereblon

>  <UniProt ID>  (1) 
Q96SW2

>  <PDB ID.1>  (1) 
4TZC

>  <Seq. Identity>  (1) 
97%

$$$$
