PDB_DB00218_09
     RDKit          3D

390414  0  0  0  0  0  0  0  0999 V2000
    1.8068    0.8005    2.2861 F   0  0  0  0  0  0  0  0  0  0  0  0
   -0.1745   -0.7777   -1.5173 O   0  0  0  0  0  0  0  0  0  0  0  0
   -1.9599    2.5788    1.0370 O   0  0  0  0  0  0  0  0  0  0  0  0
   -5.9253    1.3628   -0.4421 O   0  0  0  0  0  0  0  0  0  0  0  0
   -4.9649    3.1028    0.7334 O   0  0  0  0  0  0  0  0  0  0  0  0
    1.8709    0.2332   -0.6078 N   0  0  0  0  0  0  0  0  0  0  0  0
    4.8479   -1.4231   -0.3225 N   0  0  0  0  0  0  0  0  0  0  0  0
   -2.5940   -1.0161   -0.2799 N   0  0  0  0  0  0  0  0  0  0  0  0
    4.0347    0.8347    0.0605 C   0  0  2  0  0  0  0  0  0  0  0  0
    3.8236   -0.6271    0.3468 C   0  0  1  0  0  0  0  0  0  0  0  0
    2.8855    1.2150   -0.8329 C   0  0  0  0  0  0  0  0  0  0  0  0
    2.4810   -1.0025   -0.2650 C   0  0  0  0  0  0  0  0  0  0  0  0
    5.3840    1.0077   -0.6013 C   0  0  0  0  0  0  0  0  0  0  0  0
   -2.8375   -2.4440   -0.0874 C   0  0  0  0  0  0  0  0  0  0  0  0
    6.3868    0.2908    0.2962 C   0  0  0  0  0  0  0  0  0  0  0  0
   -3.0394   -3.3098   -1.2771 C   0  0  0  0  0  0  0  0  0  0  0  0
   -4.1637   -3.0352   -0.2956 C   0  0  0  0  0  0  0  0  0  0  0  0
    6.1341   -1.1941    0.2841 C   0  0  0  0  0  0  0  0  0  0  0  0
    0.7504    0.6405    0.1505 C   0  0  1  0  0  0  0  0  0  0  0  0
   -1.4320   -0.5611    0.4349 C   0  0  1  0  0  0  0  0  0  0  0  0
   -0.5188    0.1373   -0.5131 C   0  0  2  0  0  0  0  0  0  0  0  0
   -1.7673    0.2723    1.6436 C   0  0  0  0  0  0  0  0  0  0  0  0
    0.7502    0.2658    1.5930 C   0  0  0  0  0  0  0  0  0  0  0  0
   -3.8040   -0.3362    0.0934 C   0  0  0  0  0  0  0  0  0  0  0  0
   -0.5090    0.8396    2.2323 C   0  0  0  0  0  0  0  0  0  0  0  0
   -3.6360    1.1578    0.2088 C   0  0  2  0  0  0  0  0  0  0  0  0
   -2.6836    1.4269    1.3373 C   0  0  0  0  0  0  0  0  0  0  0  0
   -5.0115    1.7227    0.5456 C   0  0  0  0  0  0  0  0  0  0  0  0
   -0.1921   -0.1992   -2.7778 C   0  0  0  0  0  0  0  0  0  0  0  0
    0.9449    0.1598    2.8375 F   0  0  0  0  0  0  0  0  0  0  0  0
   -0.0779   -0.6709   -1.5640 O   0  0  0  0  0  0  0  0  0  0  0  0
   -3.2031    3.1293    1.0151 O   0  0  0  0  0  0  0  0  0  0  0  0
   -6.4502    0.6188    0.4042 O   0  0  0  0  0  0  0  0  0  0  0  0
   -5.7839    2.4847    1.4498 O   0  0  0  0  0  0  0  0  0  0  0  0
    1.9144   -0.2019    0.1832 N   0  0  0  0  0  0  0  0  0  0  0  0
    4.9212   -1.6025    0.0787 N   0  0  0  0  0  0  0  0  0  0  0  0
   -2.4267   -0.6832    0.1556 N   0  0  0  0  0  0  0  0  0  0  0  0
    4.0269    0.6401    0.0648 C   0  0  2  0  0  0  0  0  0  0  0  0
    4.1210   -0.6646    0.8217 C   0  0  1  0  0  0  0  0  0  0  0  0
    2.7294    0.5088   -0.7275 C   0  0  0  0  0  0  0  0  0  0  0  0
    2.6576   -1.0960    0.9370 C   0  0  0  0  0  0  0  0  0  0  0  0
    5.1882    0.8385   -0.8537 C   0  0  0  0  0  0  0  0  0  0  0  0
   -2.0851   -1.9332   -0.3466 C   0  0  0  0  0  0  0  0  0  0  0  0
    6.4582    0.2840   -0.2245 C   0  0  0  0  0  0  0  0  0  0  0  0
   -2.2021   -2.3672   -1.7488 C   0  0  0  0  0  0  0  0  0  0  0  0
   -3.2014   -2.8743   -0.7639 C   0  0  0  0  0  0  0  0  0  0  0  0
    6.3030   -1.1654    0.1538 C   0  0  0  0  0  0  0  0  0  0  0  0
    0.6677    0.2928    0.5474 C   0  0  1  0  0  0  0  0  0  0  0  0
   -1.7127    0.4737   -0.2359 C   0  0  0  0  0  0  0  0  0  0  0  0
   -0.2687    0.3148   -0.6279 C   0  0  2  0  0  0  0  0  0  0  0  0
   -1.6895    1.3556    1.0266 C   0  0  2  0  0  0  0  0  0  0  0  0
    0.0850   -0.2483    1.8217 C   0  0  0  0  0  0  0  0  0  0  0  0
   -3.8452   -0.3740    0.1299 C   0  0  0  0  0  0  0  0  0  0  0  0
   -1.2312    0.3962    2.1215 C   0  0  0  0  0  0  0  0  0  0  0  0
   -4.1182    1.0589    0.4581 C   0  0  2  0  0  0  0  0  0  0  0  0
   -3.1056    1.7464    1.3053 C   0  0  0  0  0  0  0  0  0  0  0  0
   -5.4515    1.1357    1.2230 C   0  0  0  0  0  0  0  0  0  0  0  0
    0.1718   -0.2321   -2.8367 C   0  0  0  0  0  0  0  0  0  0  0  0
    1.2248    1.0102    2.2527 F   0  0  0  0  0  0  0  0  0  0  0  0
   -0.2301   -1.0899   -1.6658 O   0  0  0  0  0  0  0  0  0  0  0  0
   -3.0179    3.3157    0.1209 O   0  0  0  0  0  0  0  0  0  0  0  0
   -6.4027    0.7812    0.2168 O   0  0  0  0  0  0  0  0  0  0  0  0
   -5.7083    2.9092    0.4387 O   0  0  0  0  0  0  0  0  0  0  0  0
    1.9080   -0.4234    0.1435 N   0  0  0  0  0  0  0  0  0  0  0  0
    5.0808   -1.3854   -0.3705 N   0  0  0  0  0  0  0  0  0  0  0  0
   -2.5793   -0.7756    0.0881 N   0  0  0  0  0  0  0  0  0  0  0  0
    3.9203    0.5463    0.5402 C   0  0  2  0  0  0  0  0  0  0  0  0
    4.0892   -0.9726    0.6070 C   0  0  1  0  0  0  0  0  0  0  0  0
    2.6012    0.6868   -0.2465 C   0  0  0  0  0  0  0  0  0  0  0  0
    2.7241   -1.5412    0.2824 C   0  0  0  0  0  0  0  0  0  0  0  0
    5.0550    1.1915   -0.1972 C   0  0  0  0  0  0  0  0  0  0  0  0
   -2.3931   -2.1391    0.0280 C   0  0  0  0  0  0  0  0  0  0  0  0
    6.3622    0.5760    0.2968 C   0  0  0  0  0  0  0  0  0  0  0  0
   -2.3503   -2.8040   -1.3536 C   0  0  0  0  0  0  0  0  0  0  0  0
   -3.5510   -2.9999   -0.4834 C   0  0  0  0  0  0  0  0  0  0  0  0
    6.3689   -0.9168    0.0961 C   0  0  0  0  0  0  0  0  0  0  0  0
    0.5568   -0.4874    0.5005 C   0  0  2  0  0  0  0  0  0  0  0  0
   -1.7095    0.1921   -0.3785 C   0  0  2  0  0  0  0  0  0  0  0  0
   -0.2851   -0.1327   -0.6703 C   0  0  0  0  0  0  0  0  0  0  0  0
   -1.6307    1.4309    0.5481 C   0  0  2  0  0  0  0  0  0  0  0  0
    0.1890    0.1818    1.7860 C   0  0  0  0  0  0  0  0  0  0  0  0
   -3.8241   -0.2405    0.5095 C   0  0  0  0  0  0  0  0  0  0  0  0
   -1.0600    0.9699    1.8377 C   0  0  0  0  0  0  0  0  0  0  0  0
   -4.0321    1.2087    0.1249 C   0  0  0  0  0  0  0  0  0  0  0  0
   -2.9717    2.0508    0.7516 C   0  0  0  0  0  0  0  0  0  0  0  0
   -5.3829    1.5990    0.7395 C   0  0  0  0  0  0  0  0  0  0  0  0
    0.2706   -0.5748   -2.8509 C   0  0  0  0  0  0  0  0  0  0  0  0
    1.4837    0.2395    2.9746 F   0  0  0  0  0  0  0  0  0  0  0  0
   -0.1217   -0.4696   -1.3584 O   0  0  0  0  0  0  0  0  0  0  0  0
   -1.8017    2.5425    1.1731 O   0  0  0  0  0  0  0  0  0  0  0  0
   -5.9932    1.7255   -0.2169 O   0  0  0  0  0  0  0  0  0  0  0  0
   -4.7667    3.2800    0.8765 O   0  0  0  0  0  0  0  0  0  0  0  0
    1.8931   -0.2663    0.1639 N   0  0  0  0  0  0  0  0  0  0  0  0
    5.1291   -1.3404   -0.0938 N   0  0  0  0  0  0  0  0  0  0  0  0
   -2.7380   -0.9056   -0.2334 N   0  0  0  0  0  0  0  0  0  0  0  0
    3.8827    0.7068   -0.5371 C   0  0  2  0  0  0  0  0  0  0  0  0
    4.2112   -0.3759    0.4489 C   0  0  1  0  0  0  0  0  0  0  0  0
    2.4458    0.4108   -0.9480 C   0  0  0  0  0  0  0  0  0  0  0  0
    2.8770   -0.9935    0.8113 C   0  0  0  0  0  0  0  0  0  0  0  0
    4.8118    0.6467   -1.7042 C   0  0  0  0  0  0  0  0  0  0  0  0
   -3.0675   -2.3132   -0.1698 C   0  0  0  0  0  0  0  0  0  0  0  0
    6.2297    0.6188   -1.1099 C   0  0  0  0  0  0  0  0  0  0  0  0
   -2.1619   -3.3602   -0.6991 C   0  0  0  0  0  0  0  0  0  0  0  0
   -3.4496   -3.0159   -1.4346 C   0  0  0  0  0  0  0  0  0  0  0  0
    6.3857   -0.7039   -0.4167 C   0  0  0  0  0  0  0  0  0  0  0  0
    0.7242    0.1950    0.7528 C   0  0  1  0  0  0  0  0  0  0  0  0
   -1.5781   -0.6263    0.5518 C   0  0  1  0  0  0  0  0  0  0  0  0
   -0.4658    0.0917   -0.1600 C   0  0  2  0  0  0  0  0  0  0  0  0
   -1.9683    0.1981    1.7569 C   0  0  0  0  0  0  0  0  0  0  0  0
    0.4611   -0.2272    2.1703 C   0  0  2  0  0  0  0  0  0  0  0  0
   -3.9091   -0.1778    0.1175 C   0  0  0  0  0  0  0  0  0  0  0  0
   -0.7891    0.5411    2.6186 C   0  0  0  0  0  0  0  0  0  0  0  0
   -3.6881    1.2985    0.3022 C   0  0  2  0  0  0  0  0  0  0  0  0
   -2.6797    1.4866    1.3924 C   0  0  0  0  0  0  0  0  0  0  0  0
   -5.0084    1.9153    0.7198 C   0  0  0  0  0  0  0  0  0  0  0  0
   -0.3792    0.2008   -2.5048 C   0  0  0  0  0  0  0  0  0  0  0  0
    0.9440    0.0057    2.8039 F   0  0  0  0  0  0  0  0  0  0  0  0
   -0.1276   -0.9327   -1.5363 O   0  0  0  0  0  0  0  0  0  0  0  0
   -3.0933    3.2245    0.6369 O   0  0  0  0  0  0  0  0  0  0  0  0
   -6.4299    0.7299    0.5701 O   0  0  0  0  0  0  0  0  0  0  0  0
   -5.5975    2.7297    1.1059 O   0  0  0  0  0  0  0  0  0  0  0  0
    1.9146   -0.3117    0.2052 N   0  0  0  0  0  0  0  0  0  0  0  0
    4.9487   -1.5170    0.0452 N   0  0  0  0  0  0  0  0  0  0  0  0
   -2.4659   -0.7016    0.1349 N   0  0  0  0  0  0  0  0  0  0  0  0
    4.0040    0.6652    0.1892 C   0  0  2  0  0  0  0  0  0  0  0  0
    4.1135   -0.6846    0.8758 C   0  0  1  0  0  0  0  0  0  0  0  0
    2.7513    0.4353   -0.6737 C   0  0  0  0  0  0  0  0  0  0  0  0
    2.6659   -1.2052    0.9416 C   0  0  0  0  0  0  0  0  0  0  0  0
    5.1962    0.9465   -0.6798 C   0  0  0  0  0  0  0  0  0  0  0  0
   -2.1965   -1.9866   -0.3005 C   0  0  0  0  0  0  0  0  0  0  0  0
    6.4748    0.3891   -0.0520 C   0  0  0  0  0  0  0  0  0  0  0  0
   -2.3808   -2.4294   -1.7545 C   0  0  0  0  0  0  0  0  0  0  0  0
   -3.3330   -2.9016   -0.6971 C   0  0  0  0  0  0  0  0  0  0  0  0
    6.3118   -1.0868    0.1972 C   0  0  0  0  0  0  0  0  0  0  0  0
    0.6518    0.1480    0.5051 C   0  0  1  0  0  0  0  0  0  0  0  0
   -1.7035    0.3955   -0.2992 C   0  0  0  0  0  0  0  0  0  0  0  0
   -0.2667    0.1422   -0.6859 C   0  0  0  0  0  0  0  0  0  0  0  0
   -1.6042    1.3943    0.8652 C   0  0  2  0  0  0  0  0  0  0  0  0
    0.0186   -0.3004    1.7933 C   0  0  0  0  0  0  0  0  0  0  0  0
   -3.8297   -0.3725    0.4010 C   0  0  0  0  0  0  0  0  0  0  0  0
   -1.1811    0.5727    2.0767 C   0  0  0  0  0  0  0  0  0  0  0  0
   -4.0419    1.1004    0.4213 C   0  0  2  0  0  0  0  0  0  0  0  0
   -2.9996    1.9087    1.1252 C   0  0  0  0  0  0  0  0  0  0  0  0
   -5.3530    1.3467    1.1814 C   0  0  0  0  0  0  0  0  0  0  0  0
    0.1693   -0.5678   -2.8377 C   0  0  0  0  0  0  0  0  0  0  0  0
    1.6248    2.1232    1.3083 F   0  0  0  0  0  0  0  0  0  0  0  0
   -0.2527    0.0969   -1.7848 O   0  0  0  0  0  0  0  0  0  0  0  0
   -2.8150    2.9734   -0.6512 O   0  0  0  0  0  0  0  0  0  0  0  0
   -6.4421    0.8636   -0.3398 O   0  0  0  0  0  0  0  0  0  0  0  0
   -5.6758    1.7056    1.5950 O   0  0  0  0  0  0  0  0  0  0  0  0
    1.9448   -0.0225   -0.5139 N   0  0  0  0  0  0  0  0  0  0  0  0
    5.0694   -1.3726   -0.7089 N   0  0  0  0  0  0  0  0  0  0  0  0
   -2.5557   -0.7045    0.7619 N   0  0  0  0  0  0  0  0  0  0  0  0
    4.0172    0.4544    0.3810 C   0  0  2  0  0  0  0  0  0  0  0  0
    3.9692   -1.0476    0.1682 C   0  0  1  0  0  0  0  0  0  0  0  0
    2.9633    0.9016   -0.5827 C   0  0  0  0  0  0  0  0  0  0  0  0
    2.6210   -1.2917   -0.4584 C   0  0  0  0  0  0  0  0  0  0  0  0
    5.3843    1.0236    0.1243 C   0  0  0  0  0  0  0  0  0  0  0  0
   -2.3088   -2.0461    0.9551 C   0  0  0  0  0  0  0  0  0  0  0  0
    6.4871    0.1151    0.6343 C   0  0  0  0  0  0  0  0  0  0  0  0
   -2.3041   -3.0915   -0.0950 C   0  0  0  0  0  0  0  0  0  0  0  0
   -3.4381   -3.0628    0.8802 C   0  0  0  0  0  0  0  0  0  0  0  0
    6.2832   -1.2778    0.1131 C   0  0  0  0  0  0  0  0  0  0  0  0
    0.8396    0.0307    0.3418 C   0  0  0  0  0  0  0  0  0  0  0  0
   -1.6890    0.1247   -0.0156 C   0  0  2  0  0  0  0  0  0  0  0  0
   -0.3682   -0.3724   -0.4404 C   0  0  1  0  0  0  0  0  0  0  0  0
   -1.7400    1.4394    0.7220 C   0  0  0  0  0  0  0  0  0  0  0  0
    0.5916    1.3193    1.0706 C   0  0  0  0  0  0  0  0  0  0  0  0
   -3.9278   -0.2981    0.5057 C   0  0  0  0  0  0  0  0  0  0  0  0
   -0.5051    2.1787    0.3941 C   0  0  0  0  0  0  0  0  0  0  0  0
   -4.0714    1.0726   -0.0653 C   0  0  0  0  0  0  0  0  0  0  0  0
   -3.0554    2.0863    0.3957 C   0  0  2  0  0  0  0  0  0  0  0  0
   -5.4556    1.6417    0.2163 C   0  0  0  0  0  0  0  0  0  0  0  0
   -0.4837   -0.8531   -2.7307 C   0  0  0  0  0  0  0  0  0  0  0  0
   -2.5673    3.2196    0.5983 H   0  0  0  0  0  0  0  0  0  0  0  0
   -6.6742    2.0232   -0.4736 H   0  0  0  0  0  0  0  0  0  0  0  0
   -5.0581    3.5906   -0.1331 H   0  0  0  0  0  0  0  0  0  0  0  0
    4.8299   -1.2823   -1.3485 H   0  0  0  0  0  0  0  0  0  0  0  0
    4.0703    1.4587    0.9869 H   0  0  0  0  0  0  0  0  0  0  0  0
    3.8867   -0.8771    1.4169 H   0  0  0  0  0  0  0  0  0  0  0  0
    3.2468    1.0800   -1.8827 H   0  0  0  0  0  0  0  0  0  0  0  0
    2.5264    2.2424   -0.6918 H   0  0  0  0  0  0  0  0  0  0  0  0
    1.8908   -1.6690    0.3746 H   0  0  0  0  0  0  0  0  0  0  0  0
    2.6418   -1.5678   -1.2195 H   0  0  0  0  0  0  0  0  0  0  0  0
    5.4142    0.6486   -1.6390 H   0  0  0  0  0  0  0  0  0  0  0  0
    5.6435    2.0951   -0.5448 H   0  0  0  0  0  0  0  0  0  0  0  0
   -2.2844   -2.8277    0.8106 H   0  0  0  0  0  0  0  0  0  0  0  0
    7.4264    0.5662    0.0730 H   0  0  0  0  0  0  0  0  0  0  0  0
    6.1616    0.6384    1.3358 H   0  0  0  0  0  0  0  0  0  0  0  0
   -2.5427   -4.3066   -1.2131 H   0  0  0  0  0  0  0  0  0  0  0  0
   -3.0487   -2.8167   -2.2659 H   0  0  0  0  0  0  0  0  0  0  0  0
   -4.4740   -3.9086    0.3120 H   0  0  0  0  0  0  0  0  0  0  0  0
   -5.0124   -2.4957   -0.7371 H   0  0  0  0  0  0  0  0  0  0  0  0
    6.9028   -1.7698   -0.2492 H   0  0  0  0  0  0  0  0  0  0  0  0
    6.0745   -1.6127    1.3197 H   0  0  0  0  0  0  0  0  0  0  0  0
    0.7004    1.7622    0.1116 H   0  0  0  0  0  0  0  0  0  0  0  0
   -0.9171   -1.4792    0.8107 H   0  0  0  0  0  0  0  0  0  0  0  0
   -1.0450    0.9672   -1.0437 H   0  0  0  0  0  0  0  0  0  0  0  0
   -2.3101   -0.3889    2.3661 H   0  0  0  0  0  0  0  0  0  0  0  0
    0.7300   -0.8104    1.7992 H   0  0  0  0  0  0  0  0  0  0  0  0
   -4.5678   -0.5064   -0.6954 H   0  0  0  0  0  0  0  0  0  0  0  0
   -4.1100   -0.7126    1.0877 H   0  0  0  0  0  0  0  0  0  0  0  0
   -0.4683    0.5196    3.3043 H   0  0  0  0  0  0  0  0  0  0  0  0
   -0.4867    1.9503    2.2247 H   0  0  0  0  0  0  0  0  0  0  0  0
   -3.3401    1.6145   -0.7494 H   0  0  0  0  0  0  0  0  0  0  0  0
   -3.2898    1.6406    2.2488 H   0  0  0  0  0  0  0  0  0  0  0  0
   -5.3952    1.2798    1.4972 H   0  0  0  0  0  0  0  0  0  0  0  0
    0.5933    0.5868   -2.8731 H   0  0  0  0  0  0  0  0  0  0  0  0
    0.0890   -0.9980   -3.4962 H   0  0  0  0  0  0  0  0  0  0  0  0
   -1.1792    0.1819   -3.0810 H   0  0  0  0  0  0  0  0  0  0  0  0
   -2.7076    3.2340    0.1450 H   0  0  0  0  0  0  0  0  0  0  0  0
   -6.7240    1.3015   -0.2373 H   0  0  0  0  0  0  0  0  0  0  0  0
   -5.7160    2.9984    0.5877 H   0  0  0  0  0  0  0  0  0  0  0  0
    4.6571   -1.5562   -0.9289 H   0  0  0  0  0  0  0  0  0  0  0  0
    3.8699    1.4924    0.7626 H   0  0  0  0  0  0  0  0  0  0  0  0
    4.5931   -0.5344    1.8194 H   0  0  0  0  0  0  0  0  0  0  0  0
    2.9577   -0.1457   -1.6095 H   0  0  0  0  0  0  0  0  0  0  0  0
    2.3476    1.5013   -1.0363 H   0  0  0  0  0  0  0  0  0  0  0  0
    2.4691   -1.2559    1.9863 H   0  0  0  0  0  0  0  0  0  0  0  0
    2.6253   -2.1045    0.4161 H   0  0  0  0  0  0  0  0  0  0  0  0
    5.0083    0.3888   -1.8467 H   0  0  0  0  0  0  0  0  0  0  0  0
    5.3778    1.9240   -1.0202 H   0  0  0  0  0  0  0  0  0  0  0  0
   -1.2779   -2.4638    0.2466 H   0  0  0  0  0  0  0  0  0  0  0  0
    7.2780    0.4315   -0.9323 H   0  0  0  0  0  0  0  0  0  0  0  0
    6.6286    0.8916    0.7054 H   0  0  0  0  0  0  0  0  0  0  0  0
   -1.4782   -3.1191   -2.1194 H   0  0  0  0  0  0  0  0  0  0  0  0
   -2.6060   -1.7243   -2.5589 H   0  0  0  0  0  0  0  0  0  0  0  0
   -4.2322   -2.5373   -0.8766 H   0  0  0  0  0  0  0  0  0  0  0  0
   -3.1519   -3.9365   -0.4227 H   0  0  0  0  0  0  0  0  0  0  0  0
    6.9726   -1.8208   -0.4583 H   0  0  0  0  0  0  0  0  0  0  0  0
    6.6533   -1.3044    1.2003 H   0  0  0  0  0  0  0  0  0  0  0  0
    0.8600    1.3996    0.8309 H   0  0  0  0  0  0  0  0  0  0  0  0
   -2.2598    1.0128   -1.0222 H   0  0  0  0  0  0  0  0  0  0  0  0
   -0.0523    1.2770   -1.1985 H   0  0  0  0  0  0  0  0  0  0  0  0
   -0.9908    2.1774    0.9673 H   0  0  0  0  0  0  0  0  0  0  0  0
   -0.0023   -1.3224    1.8988 H   0  0  0  0  0  0  0  0  0  0  0  0
   -4.2789   -0.5665   -0.8863 H   0  0  0  0  0  0  0  0  0  0  0  0
   -4.3627   -1.0134    0.8612 H   0  0  0  0  0  0  0  0  0  0  0  0
   -1.2709    0.9158    3.1012 H   0  0  0  0  0  0  0  0  0  0  0  0
   -2.0654   -0.3673    2.1817 H   0  0  0  0  0  0  0  0  0  0  0  0
   -4.3405    1.6379   -0.4892 H   0  0  0  0  0  0  0  0  0  0  0  0
   -3.3942    1.6377    2.3805 H   0  0  0  0  0  0  0  0  0  0  0  0
   -5.3656    0.6395    2.1959 H   0  0  0  0  0  0  0  0  0  0  0  0
    1.0539    0.3947   -2.9509 H   0  0  0  0  0  0  0  0  0  0  0  0
    0.2893   -1.1626   -3.4735 H   0  0  0  0  0  0  0  0  0  0  0  0
   -0.7007    0.3545   -3.2201 H   0  0  0  0  0  0  0  0  0  0  0  0
   -2.0813    3.5575   -0.1307 H   0  0  0  0  0  0  0  0  0  0  0  0
   -7.1292    0.7934    0.8921 H   0  0  0  0  0  0  0  0  0  0  0  0
   -5.4296    3.1064   -0.5017 H   0  0  0  0  0  0  0  0  0  0  0  0
    4.8496   -1.0257   -1.3084 H   0  0  0  0  0  0  0  0  0  0  0  0
    3.8601    0.9488    1.5453 H   0  0  0  0  0  0  0  0  0  0  0  0
    4.3774   -1.3219    1.6033 H   0  0  0  0  0  0  0  0  0  0  0  0
    2.9400    0.6319   -1.3033 H   0  0  0  0  0  0  0  0  0  0  0  0
    2.1604    1.6772   -0.1069 H   0  0  0  0  0  0  0  0  0  0  0  0
    2.3978   -2.3237    0.9983 H   0  0  0  0  0  0  0  0  0  0  0  0
    2.8156   -2.0531   -0.7140 H   0  0  0  0  0  0  0  0  0  0  0  0
    4.9725    1.1032   -1.2997 H   0  0  0  0  0  0  0  0  0  0  0  0
    5.0799    2.2684    0.0690 H   0  0  0  0  0  0  0  0  0  0  0  0
   -1.8282   -2.6970    0.8354 H   0  0  0  0  0  0  0  0  0  0  0  0
    7.1909    1.0322   -0.3047 H   0  0  0  0  0  0  0  0  0  0  0  0
    6.5216    0.8739    1.3501 H   0  0  0  0  0  0  0  0  0  0  0  0
   -1.6723   -3.6662   -1.5114 H   0  0  0  0  0  0  0  0  0  0  0  0
   -2.5684   -2.2012   -2.2486 H   0  0  0  0  0  0  0  0  0  0  0  0
   -4.5058   -2.5745   -0.7731 H   0  0  0  0  0  0  0  0  0  0  0  0
   -3.6604   -4.0364   -0.0907 H   0  0  0  0  0  0  0  0  0  0  0  0
    7.2020   -1.2748   -0.5425 H   0  0  0  0  0  0  0  0  0  0  0  0
    6.5421   -1.3686    1.1093 H   0  0  0  0  0  0  0  0  0  0  0  0
    0.3688   -1.5961    0.6733 H   0  0  0  0  0  0  0  0  0  0  0  0
   -2.1316    0.6201   -1.3094 H   0  0  0  0  0  0  0  0  0  0  0  0
    0.1521    0.8139   -1.1165 H   0  0  0  0  0  0  0  0  0  0  0  0
   -0.9323    2.1468    0.0621 H   0  0  0  0  0  0  0  0  0  0  0  0
    0.1177   -0.5815    2.6222 H   0  0  0  0  0  0  0  0  0  0  0  0
   -4.6736   -0.7932    0.0079 H   0  0  0  0  0  0  0  0  0  0  0  0
   -3.9208   -0.3236    1.6023 H   0  0  0  0  0  0  0  0  0  0  0  0
   -0.9025    1.9209    2.4457 H   0  0  0  0  0  0  0  0  0  0  0  0
   -1.8666    0.4660    2.4621 H   0  0  0  0  0  0  0  0  0  0  0  0
   -4.1090    1.3141   -0.9642 H   0  0  0  0  0  0  0  0  0  0  0  0
   -3.2041    2.1837    1.8311 H   0  0  0  0  0  0  0  0  0  0  0  0
   -5.3425    1.4890    1.8441 H   0  0  0  0  0  0  0  0  0  0  0  0
    1.2968   -0.1804   -2.7671 H   0  0  0  0  0  0  0  0  0  0  0  0
    0.2977   -1.3491   -3.6418 H   0  0  0  0  0  0  0  0  0  0  0  0
   -0.4066    0.2528   -3.2061 H   0  0  0  0  0  0  0  0  0  0  0  0
   -2.2626    3.4133    1.2435 H   0  0  0  0  0  0  0  0  0  0  0  0
   -6.7949    2.2326    0.0561 H   0  0  0  0  0  0  0  0  0  0  0  0
   -4.8778    3.7840    0.0303 H   0  0  0  0  0  0  0  0  0  0  0  0
    4.7174   -1.8572   -0.9106 H   0  0  0  0  0  0  0  0  0  0  0  0
    3.9837    1.7108   -0.0659 H   0  0  0  0  0  0  0  0  0  0  0  0
    4.7139    0.0867    1.3237 H   0  0  0  0  0  0  0  0  0  0  0  0
    2.3851   -0.1743   -1.8640 H   0  0  0  0  0  0  0  0  0  0  0  0
    1.9466    1.3986   -1.1002 H   0  0  0  0  0  0  0  0  0  0  0  0
    2.7942   -1.2232    1.8763 H   0  0  0  0  0  0  0  0  0  0  0  0
    2.9005   -2.0227    0.3290 H   0  0  0  0  0  0  0  0  0  0  0  0
    4.6470   -0.2079   -2.3664 H   0  0  0  0  0  0  0  0  0  0  0  0
    4.7673    1.5719   -2.3207 H   0  0  0  0  0  0  0  0  0  0  0  0
   -3.7087   -2.5855    0.6973 H   0  0  0  0  0  0  0  0  0  0  0  0
    6.9885    0.8442   -1.8611 H   0  0  0  0  0  0  0  0  0  0  0  0
    6.2114    1.4266   -0.3189 H   0  0  0  0  0  0  0  0  0  0  0  0
   -2.2110   -4.3486   -0.2029 H   0  0  0  0  0  0  0  0  0  0  0  0
   -1.2027   -3.1308   -1.1925 H   0  0  0  0  0  0  0  0  0  0  0  0
   -3.2934   -2.5647   -2.4153 H   0  0  0  0  0  0  0  0  0  0  0  0
   -4.2883   -3.7436   -1.4223 H   0  0  0  0  0  0  0  0  0  0  0  0
    6.9960   -1.4284   -1.0115 H   0  0  0  0  0  0  0  0  0  0  0  0
    6.9311   -0.5721    0.5398 H   0  0  0  0  0  0  0  0  0  0  0  0
    0.9270    1.3273    0.8988 H   0  0  0  0  0  0  0  0  0  0  0  0
   -1.1573   -1.5808    0.9196 H   0  0  0  0  0  0  0  0  0  0  0  0
   -0.8643    1.0999   -0.3834 H   0  0  0  0  0  0  0  0  0  0  0  0
   -2.6982   -0.4621    2.3244 H   0  0  0  0  0  0  0  0  0  0  0  0
    0.2776   -1.2675    2.3584 H   0  0  0  0  0  0  0  0  0  0  0  0
   -4.6586   -0.3019   -0.6917 H   0  0  0  0  0  0  0  0  0  0  0  0
   -4.3518   -0.5521    1.0751 H   0  0  0  0  0  0  0  0  0  0  0  0
   -0.5882    1.6136    2.7047 H   0  0  0  0  0  0  0  0  0  0  0  0
   -1.0004    0.1537    3.6492 H   0  0  0  0  0  0  0  0  0  0  0  0
   -3.4234    1.7489   -0.6574 H   0  0  0  0  0  0  0  0  0  0  0  0
   -3.2378    1.7627    2.3385 H   0  0  0  0  0  0  0  0  0  0  0  0
   -5.2854    1.5311    1.7252 H   0  0  0  0  0  0  0  0  0  0  0  0
   -0.0074   -0.4692   -3.3416 H   0  0  0  0  0  0  0  0  0  0  0  0
   -1.4549    0.3412   -2.7513 H   0  0  0  0  0  0  0  0  0  0  0  0
    0.2108    1.1233   -2.6515 H   0  0  0  0  0  0  0  0  0  0  0  0
   -2.7592    3.2396   -0.3048 H   0  0  0  0  0  0  0  0  0  0  0  0
   -6.7450    1.2896   -0.1682 H   0  0  0  0  0  0  0  0  0  0  0  0
   -5.6630    2.9697    0.1429 H   0  0  0  0  0  0  0  0  0  0  0  0
    4.6779   -1.3422   -0.9504 H   0  0  0  0  0  0  0  0  0  0  0  0
    3.8401    1.4384    0.9431 H   0  0  0  0  0  0  0  0  0  0  0  0
    4.5669   -0.5796    1.8661 H   0  0  0  0  0  0  0  0  0  0  0  0
    3.0909   -0.1894   -1.5168 H   0  0  0  0  0  0  0  0  0  0  0  0
    2.3308    1.4105   -0.9718 H   0  0  0  0  0  0  0  0  0  0  0  0
    2.4636   -1.4286    1.9740 H   0  0  0  0  0  0  0  0  0  0  0  0
    2.7008   -2.1940    0.3815 H   0  0  0  0  0  0  0  0  0  0  0  0
    5.0756    0.5142   -1.7041 H   0  0  0  0  0  0  0  0  0  0  0  0
    5.3182    2.0358   -0.7991 H   0  0  0  0  0  0  0  0  0  0  0  0
   -1.3491   -2.5935    0.1631 H   0  0  0  0  0  0  0  0  0  0  0  0
    7.2958    0.6055   -0.7526 H   0  0  0  0  0  0  0  0  0  0  0  0
    6.6484    0.9599    0.9055 H   0  0  0  0  0  0  0  0  0  0  0  0
   -1.7387   -3.1894   -2.1932 H   0  0  0  0  0  0  0  0  0  0  0  0
   -2.7281   -1.6607   -2.4777 H   0  0  0  0  0  0  0  0  0  0  0  0
   -4.3580   -2.5781   -0.8476 H   0  0  0  0  0  0  0  0  0  0  0  0
   -3.2944   -3.9766   -0.3816 H   0  0  0  0  0  0  0  0  0  0  0  0
    6.9414   -1.6410   -0.5295 H   0  0  0  0  0  0  0  0  0  0  0  0
    6.6833   -1.3420    1.2090 H   0  0  0  0  0  0  0  0  0  0  0  0
    0.8064    1.2815    0.7202 H   0  0  0  0  0  0  0  0  0  0  0  0
   -2.2371    0.9305   -1.1050 H   0  0  0  0  0  0  0  0  0  0  0  0
   -0.0027    1.0474   -1.3209 H   0  0  0  0  0  0  0  0  0  0  0  0
   -0.9502    2.2347    0.6454 H   0  0  0  0  0  0  0  0  0  0  0  0
   -0.2926   -1.3327    1.8534 H   0  0  0  0  0  0  0  0  0  0  0  0
   -4.4879   -0.7426   -0.4475 H   0  0  0  0  0  0  0  0  0  0  0  0
   -4.2140   -0.8100    1.3411 H   0  0  0  0  0  0  0  0  0  0  0  0
   -0.9978    1.2877    2.9334 H   0  0  0  0  0  0  0  0  0  0  0  0
   -2.0785   -0.0020    2.3889 H   0  0  0  0  0  0  0  0  0  0  0  0
   -4.2384    1.5054   -0.6129 H   0  0  0  0  0  0  0  0  0  0  0  0
   -3.2345    1.9721    2.2046 H   0  0  0  0  0  0  0  0  0  0  0  0
   -5.2566    1.0298    2.2268 H   0  0  0  0  0  0  0  0  0  0  0  0
    1.1036   -0.0085   -2.8744 H   0  0  0  0  0  0  0  0  0  0  0  0
    0.1512   -1.4427   -3.5268 H   0  0  0  0  0  0  0  0  0  0  0  0
   -0.6294    0.1646   -3.1677 H   0  0  0  0  0  0  0  0  0  0  0  0
   -3.4492    2.7963   -1.4215 H   0  0  0  0  0  0  0  0  0  0  0  0
   -6.9423    0.3878    0.3596 H   0  0  0  0  0  0  0  0  0  0  0  0
   -5.5024    2.6138    1.9585 H   0  0  0  0  0  0  0  0  0  0  0  0
    5.1827   -0.6432   -1.4537 H   0  0  0  0  0  0  0  0  0  0  0  0
    3.7942    0.6016    1.4458 H   0  0  0  0  0  0  0  0  0  0  0  0
    4.1310   -1.6014    1.1156 H   0  0  0  0  0  0  0  0  0  0  0  0
    3.4676    0.7508   -1.5992 H   0  0  0  0  0  0  0  0  0  0  0  0
    2.7645    1.9741   -0.5921 H   0  0  0  0  0  0  0  0  0  0  0  0
    2.1095   -2.0374    0.1633 H   0  0  0  0  0  0  0  0  0  0  0  0
    2.8167   -1.6132   -1.5040 H   0  0  0  0  0  0  0  0  0  0  0  0
    5.5239    1.3058   -0.9414 H   0  0  0  0  0  0  0  0  0  0  0  0
    5.4721    1.9812    0.7107 H   0  0  0  0  0  0  0  0  0  0  0  0
   -1.6751   -2.2548    1.8885 H   0  0  0  0  0  0  0  0  0  0  0  0
    7.4390    0.5526    0.2799 H   0  0  0  0  0  0  0  0  0  0  0  0
    6.5157    0.1612    1.7337 H   0  0  0  0  0  0  0  0  0  0  0  0
   -1.5936   -3.9356   -0.0054 H   0  0  0  0  0  0  0  0  0  0  0  0
   -2.5731   -2.8270   -1.1151 H   0  0  0  0  0  0  0  0  0  0  0  0
   -4.4449   -2.7818    0.6058 H   0  0  0  0  0  0  0  0  0  0  0  0
   -3.4380   -3.9012    1.6268 H   0  0  0  0  0  0  0  0  0  0  0  0
    7.1758   -1.6747   -0.4091 H   0  0  0  0  0  0  0  0  0  0  0  0
    6.0842   -1.9321    1.0072 H   0  0  0  0  0  0  0  0  0  0  0  0
    1.0227   -0.7203    1.1504 H   0  0  0  0  0  0  0  0  0  0  0  0
   -2.2913    0.3219   -0.9634 H   0  0  0  0  0  0  0  0  0  0  0  0
   -0.4687   -1.4604   -0.5441 H   0  0  0  0  0  0  0  0  0  0  0  0
   -1.6985    1.1934    1.8300 H   0  0  0  0  0  0  0  0  0  0  0  0
    0.1506    1.0532    2.0692 H   0  0  0  0  0  0  0  0  0  0  0  0
   -4.3014   -0.9988   -0.2966 H   0  0  0  0  0  0  0  0  0  0  0  0
   -4.5529   -0.3657    1.4171 H   0  0  0  0  0  0  0  0  0  0  0  0
   -0.4160    3.1669    0.9144 H   0  0  0  0  0  0  0  0  0  0  0  0
   -0.3386    2.2327   -0.6894 H   0  0  0  0  0  0  0  0  0  0  0  0
   -4.0344    1.0500   -1.2025 H   0  0  0  0  0  0  0  0  0  0  0  0
   -3.3927    2.6728    1.2610 H   0  0  0  0  0  0  0  0  0  0  0  0
   -5.5227    2.6967   -0.1512 H   0  0  0  0  0  0  0  0  0  0  0  0
    0.2264   -1.6916   -2.6442 H   0  0  0  0  0  0  0  0  0  0  0  0
   -1.5148   -1.3041   -2.6027 H   0  0  0  0  0  0  0  0  0  0  0  0
   -0.4332   -0.4797   -3.7777 H   0  0  0  0  0  0  0  0  0  0  0  0
  7 10  1  0
  9 10  1  0
  6 11  1  0
  9 11  1  0
  6 12  1  0
 10 12  1  0
  9 13  1  0
  8 14  1  0
 13 15  1  0
 14 16  1  0
 14 17  1  0
 16 17  1  0
  7 18  1  0
 15 18  1  0
  6 19  1  0
  8 20  1  0
  2 21  1  0
 19 21  1  0
 20 21  1  0
 20 22  1  0
  1 23  1  0
 19 23  1  0
  8 24  1  0
 22 25  1  0
 23 25  1  0
 24 26  1  0
 22 27  1  0
 26 27  1  0
 27  3  1  0
  4 28  1  0
 26 28  1  0
 28  5  1  0
  2 29  1  0
 36 39  1  0
 38 39  1  0
 35 40  1  0
 38 40  1  0
 35 41  1  0
 39 41  1  0
 38 42  1  0
 37 43  1  0
 42 44  1  0
 43 45  1  0
 43 46  1  0
 45 46  1  0
 36 47  1  0
 44 47  1  0
 35 48  1  0
 37 49  1  0
 31 50  1  0
 48 50  1  0
 49 50  1  0
 49 51  1  0
 30 52  1  0
 48 52  1  0
 37 53  1  0
 51 54  1  0
 52 54  1  0
 53 55  1  0
 51 56  1  0
 55 56  1  0
 56 32  1  0
 33 57  1  0
 55 57  1  0
 57 34  1  0
 31 58  1  0
 65 68  1  0
 67 68  1  0
 64 69  1  0
 67 69  1  0
 64 70  1  0
 68 70  1  0
 67 71  1  0
 66 72  1  0
 71 73  1  0
 72 74  1  0
 72 75  1  0
 74 75  1  0
 65 76  1  0
 73 76  1  0
 64 77  1  0
 66 78  1  0
 60 79  1  0
 77 79  1  0
 78 79  1  0
 78 80  1  0
 59 81  1  0
 77 81  1  0
 66 82  1  0
 80 83  1  0
 81 83  1  0
 82 84  1  0
 80 85  1  0
 84 85  1  0
 85 61  1  0
 62 86  1  0
 84 86  1  0
 86 63  1  0
 60 87  1  0
 94 97  1  0
 96 97  1  0
 93 98  1  0
 96 98  1  0
 93 99  1  0
 97 99  1  0
 96100  1  0
 95101  1  0
100102  1  0
101103  1  0
101104  1  0
103104  1  0
 94105  1  0
102105  1  0
 93106  1  0
 95107  1  0
 89108  1  0
106108  1  0
107108  1  0
107109  1  0
 88110  1  0
106110  1  0
 95111  1  0
109112  1  0
110112  1  0
111113  1  0
109114  1  0
113114  1  0
114 90  1  0
 91115  1  0
113115  1  0
115 92  1  0
 89116  1  0
123126  1  0
125126  1  0
122127  1  0
125127  1  0
122128  1  0
126128  1  0
125129  1  0
124130  1  0
129131  1  0
130132  1  0
130133  1  0
132133  1  0
123134  1  0
131134  1  0
122135  1  0
124136  1  0
118137  1  0
135137  1  0
136137  1  0
136138  1  0
117139  1  0
135139  1  0
124140  1  0
138141  1  0
139141  1  0
140142  1  0
138143  1  0
142143  1  0
143119  1  0
120144  1  0
142144  1  0
144121  1  0
118145  1  0
152155  1  0
154155  1  0
151156  1  0
154156  1  0
151157  1  0
155157  1  0
154158  1  0
153159  1  0
158160  1  0
159161  1  0
159162  1  0
161162  1  0
152163  1  0
160163  1  0
151164  1  0
153165  1  0
147166  1  0
164166  1  0
165166  1  0
165167  1  0
146168  1  0
164168  1  0
153169  1  0
167170  1  0
168170  1  0
169171  1  0
167172  1  0
171172  1  0
172148  1  0
149173  1  0
171173  1  0
173150  1  0
147174  1  0
  3175  1  0
  4176  1  0
  5177  1  0
  7178  1  0
  9179  1  1
 10180  1  1
 11181  1  0
 11182  1  0
 12183  1  0
 12184  1  0
 13185  1  0
 13186  1  0
 14187  1  0
 15188  1  0
 15189  1  0
 16190  1  0
 16191  1  0
 17192  1  0
 17193  1  0
 18194  1  0
 18195  1  0
 19196  1  1
 20197  1  1
 21198  1  6
 22199  1  0
 23200  1  0
 24201  1  0
 24202  1  0
 25203  1  0
 25204  1  0
 26205  1  6
 27206  1  0
 28207  1  0
 29208  1  0
 29209  1  0
 29210  1  0
 32211  1  0
 33212  1  0
 34213  1  0
 36214  1  0
 38215  1  1
 39216  1  1
 40217  1  0
 40218  1  0
 41219  1  0
 41220  1  0
 42221  1  0
 42222  1  0
 43223  1  0
 44224  1  0
 44225  1  0
 45226  1  0
 45227  1  0
 46228  1  0
 46229  1  0
 47230  1  0
 47231  1  0
 48232  1  1
 49233  1  0
 50234  1  6
 51235  1  6
 52236  1  0
 53237  1  0
 53238  1  0
 54239  1  0
 54240  1  0
 55241  1  6
 56242  1  0
 57243  1  0
 58244  1  0
 58245  1  0
 58246  1  0
 61247  1  0
 62248  1  0
 63249  1  0
 65250  1  0
 67251  1  1
 68252  1  1
 69253  1  0
 69254  1  0
 70255  1  0
 70256  1  0
 71257  1  0
 71258  1  0
 72259  1  0
 73260  1  0
 73261  1  0
 74262  1  0
 74263  1  0
 75264  1  0
 75265  1  0
 76266  1  0
 76267  1  0
 77268  1  1
 78269  1  6
 79270  1  0
 80271  1  6
 81272  1  0
 82273  1  0
 82274  1  0
 83275  1  0
 83276  1  0
 84277  1  0
 85278  1  0
 86279  1  0
 87280  1  0
 87281  1  0
 87282  1  0
 90283  1  0
 91284  1  0
 92285  1  0
 94286  1  0
 96287  1  1
 97288  1  1
 98289  1  0
 98290  1  0
 99291  1  0
 99292  1  0
100293  1  0
100294  1  0
101295  1  0
102296  1  0
102297  1  0
103298  1  0
103299  1  0
104300  1  0
104301  1  0
105302  1  0
105303  1  0
106304  1  1
107305  1  1
108306  1  6
109307  1  0
110308  1  6
111309  1  0
111310  1  0
112311  1  0
112312  1  0
113313  1  6
114314  1  0
115315  1  0
116316  1  0
116317  1  0
116318  1  0
119319  1  0
120320  1  0
121321  1  0
123322  1  0
125323  1  1
126324  1  1
127325  1  0
127326  1  0
128327  1  0
128328  1  0
129329  1  0
129330  1  0
130331  1  0
131332  1  0
131333  1  0
132334  1  0
132335  1  0
133336  1  0
133337  1  0
134338  1  0
134339  1  0
135340  1  1
136341  1  0
137342  1  0
138343  1  6
139344  1  0
140345  1  0
140346  1  0
141347  1  0
141348  1  0
142349  1  6
143350  1  0
144351  1  0
145352  1  0
145353  1  0
145354  1  0
148355  1  0
149356  1  0
150357  1  0
152358  1  0
154359  1  1
155360  1  1
156361  1  0
156362  1  0
157363  1  0
157364  1  0
158365  1  0
158366  1  0
159367  1  0
160368  1  0
160369  1  0
161370  1  0
161371  1  0
162372  1  0
162373  1  0
163374  1  0
163375  1  0
164376  1  0
165377  1  6
166378  1  6
167379  1  0
168380  1  0
169381  1  0
169382  1  0
170383  1  0
170384  1  0
171385  1  0
172386  1  1
173387  1  0
174388  1  0
174389  1  0
174390  1  0
M  END
>  <PDBID>  (1) 
5CDQ

>  <PDB ID>  (1) 
5CDQ

>  <Generic Name>  (1) 
Moxifloxacin

>  <Brand Name>  (1) 
Act Moxifloxacin#Apo-moxifloxacin#Auro-moxifloxacin#Avelox#Avelox Abc Pack#Avelox I.V.#Bio-moxifloxacin#Dom-moxifloxacin#Ipg-moxifloxacin#Jamp-moxifloxacin#Jamp-moxifloxacin Tablets#Mar-moxifloxacin#Med-moxifloxacin#Moxeza#Moxifloxacin#Moxifloxacin Hydrochloride#Moxifloxacin Injection#Mylan-moxifloxacin#Mylan-moxifloxacin HCl Ophthalmic Solution#PHL-moxifloxacin#PMS-moxifloxacin#Priva-moxifloxacin#Riva-moxifloxacin#Sandoz Moxifloxacin#Teva-moxifloxacin#Torrent-moxifloxacin#Vigamox

>  <DrugBank ID>  (1) 
DB00218

>  <ATC Codes>  (1) 
J01MA14#S01AE07

>  <Ligand ID>  (1) 
MFX

>  <Target Name>  (1) 
DNA gyrase subunit A

>  <UniProt ID>  (1) 
P43700

>  <PDB ID.1>  (1) 
5CDQ

>  <Seq. Identity>  (1) 
53%

$$$$
