PDB_DB00625_00
     RDKit          3D

 42 44  0  0  0  0  0  0  0  0999 V2000
    2.0360   -3.8716    0.9253 Cl  0  0  0  0  0  0  0  0  0  0  0  0
   -0.3943    0.3862    2.4177 F   0  0  0  0  0  0  0  0  0  0  0  0
   -1.1921    2.2569    1.5423 F   0  0  0  0  0  0  0  0  0  0  0  0
    0.9593    1.9855    1.7490 F   0  0  0  0  0  0  0  0  0  0  0  0
    1.2736    3.0605   -2.1222 O   0  0  0  0  0  0  0  0  0  0  0  0
   -0.0520    1.7289   -0.9138 O   0  0  0  0  0  0  0  0  0  0  0  0
    2.2758    1.7900   -0.4875 N   0  0  0  0  0  0  0  0  0  0  0  0
    2.2442    0.3549   -0.4246 C   0  0  1  0  0  0  0  0  0  0  0  0
    3.2798   -0.0398    0.6037 C   0  0  0  0  0  0  0  0  0  0  0  0
    3.2358   -1.4677    1.0084 C   0  0  0  0  0  0  0  0  0  0  0  0
    2.1591   -2.2376    0.2726 C   0  0  0  0  0  0  0  0  0  0  0  0
    0.8632   -1.4699    0.6123 C   0  0  0  0  0  0  0  0  0  0  0  0
    0.9012   -0.2448   -0.2351 C   0  0  0  0  0  0  0  0  0  0  0  0
   -0.2145    0.7568    0.0596 C   0  0  2  0  0  0  0  0  0  0  0  0
   -1.4828    0.0026   -0.2340 C   0  0  0  0  0  0  0  0  0  0  0  0
   -2.7327    0.7981   -0.2801 C   0  0  0  0  0  0  0  0  0  0  0  0
   -3.9140   -0.0999   -0.5885 C   0  0  0  0  0  0  0  0  0  0  0  0
   -4.2906   -1.2230    0.2920 C   0  0  0  0  0  0  0  0  0  0  0  0
   -3.7119   -1.4883   -1.0591 C   0  0  0  0  0  0  0  0  0  0  0  0
   -0.2120    1.3048    1.4107 C   0  0  0  0  0  0  0  0  0  0  0  0
    1.0926    2.4412   -0.8632 C   0  0  0  0  0  0  0  0  0  0  0  0
    2.1554    3.5337   -2.0580 H   0  0  0  0  0  0  0  0  0  0  0  0
    3.0770    2.1375   -1.0607 H   0  0  0  0  0  0  0  0  0  0  0  0
    2.7096    0.0304   -1.4125 H   0  0  0  0  0  0  0  0  0  0  0  0
    4.2985    0.1388    0.1450 H   0  0  0  0  0  0  0  0  0  0  0  0
    3.2623    0.6542    1.4626 H   0  0  0  0  0  0  0  0  0  0  0  0
    2.9325   -1.4980    2.0969 H   0  0  0  0  0  0  0  0  0  0  0  0
    4.2131   -1.9860    0.9712 H   0  0  0  0  0  0  0  0  0  0  0  0
    2.3395   -2.2145   -0.8178 H   0  0  0  0  0  0  0  0  0  0  0  0
    0.9030   -1.3326    1.6878 H   0  0  0  0  0  0  0  0  0  0  0  0
   -0.0098   -2.1134    0.3472 H   0  0  0  0  0  0  0  0  0  0  0  0
    0.5928   -0.6319   -1.2650 H   0  0  0  0  0  0  0  0  0  0  0  0
   -1.5343   -0.8481    0.4906 H   0  0  0  0  0  0  0  0  0  0  0  0
   -1.4026   -0.5136   -1.2460 H   0  0  0  0  0  0  0  0  0  0  0  0
   -2.6626    1.5104   -1.1558 H   0  0  0  0  0  0  0  0  0  0  0  0
   -2.9334    1.4377    0.5882 H   0  0  0  0  0  0  0  0  0  0  0  0
   -4.7844    0.4740   -1.0134 H   0  0  0  0  0  0  0  0  0  0  0  0
   -3.6800   -1.4436    1.2086 H   0  0  0  0  0  0  0  0  0  0  0  0
   -5.3620   -1.4566    0.4453 H   0  0  0  0  0  0  0  0  0  0  0  0
   -2.7321   -1.9786   -1.1344 H   0  0  0  0  0  0  0  0  0  0  0  0
   -4.4348   -1.9343   -1.8062 H   0  0  0  0  0  0  0  0  0  0  0  0
    0.9288    3.3106   -0.1590 H   0  0  0  0  0  0  0  0  0  0  0  0
  7  8  1  0
  8  9  1  0
  9 10  1  0
  1 11  1  0
 10 11  1  0
 11 12  1  0
  8 13  1  0
 12 13  1  0
  6 14  1  0
 13 14  1  0
 14 15  1  6
 15 16  1  0
 16 17  1  0
 17 18  1  0
 17 19  1  0
 18 19  1  0
 20  2  1  0
  3 20  1  0
  4 20  1  0
 14 20  1  0
  5 21  1  0
  6 21  1  0
  7 21  1  0
  5 22  1  0
  7 23  1  0
  8 24  1  6
  9 25  1  0
  9 26  1  0
 10 27  1  0
 10 28  1  0
 11 29  1  0
 12 30  1  0
 12 31  1  0
 13 32  1  0
 15 33  1  0
 15 34  1  0
 16 35  1  0
 16 36  1  0
 17 37  1  0
 18 38  1  0
 18 39  1  0
 19 40  1  0
 19 41  1  0
 21 42  1  0
M  END
>  <PDBID>  (1) 
1JKH

>  <PDB ID>  (1) 
1JKH

>  <Generic Name>  (1) 
Efavirenz

>  <Brand Name>  (1) 
Atripla#Auro-efavirenz#Mylan-efavirenz#Sustiva#Sustiva 100mg#Sustiva 200mg#Sustiva 50mg#Sustiva Tablets#Teva-efavirenz#E.F#Efavir#Efavirenz#Efcure#Efferven#Estiva#Evirenz#Stocrin#Viranz

>  <DrugBank ID>  (1) 
DB00625

>  <ATC Codes>  (1) 
J05AR06#J05AG03#J05AR11

>  <Ligand ID>  (1) 
EFZ

>  <Target Name>  (1) 
Reverse transcriptase/RNaseH

>  <UniProt ID>  (1) 
Q72547

>  <PDB ID.1>  (1) 
1JKH

>  <Seq. Identity>  (1) 
96%

$$$$
