PDB_DB00323_03
     RDKit          3D

 47 48  0  0  0  0  0  0  0  0999 V2000
    0.2855    0.5253    2.2251 O   0  0  0  0  0  0  0  0  0  0  0  0
    0.2002   -0.4277    1.2264 C   0  0  1  0  0  0  0  0  0  0  0  0
   -1.1234   -0.4474    0.5054 C   0  0  1  0  0  0  0  0  0  0  0  0
   -2.1690   -0.7541    1.5705 C   0  0  0  0  0  0  0  0  0  0  0  0
   -3.4398   -1.0571    0.8068 C   0  0  0  0  0  0  0  0  0  0  0  0
   -3.2608   -2.0343   -0.1522 O   0  0  0  0  0  0  0  0  0  0  0  0
   -1.4734    0.7747   -0.2424 C   0  0  0  0  0  0  0  0  0  0  0  0
   -2.8984    1.2103   -0.1716 C   0  0  0  0  0  0  0  0  0  0  0  0
   -3.2089    1.8890   -1.4166 N   0  0  0  0  0  0  0  0  0  0  0  0
   -3.0625    1.1603   -2.5117 O   0  0  0  0  0  0  0  0  0  0  0  0
   -4.3951    2.5223   -1.3743 O   0  0  0  0  0  0  0  0  0  0  0  0
   -3.9226    0.2036    0.1434 C   0  0  0  0  0  0  0  0  0  0  0  0
   -4.7131   -0.1971   -0.9562 O   0  0  0  0  0  0  0  0  0  0  0  0
    1.4049   -0.4571    0.3168 C   0  0  0  0  0  0  0  0  0  0  0  0
    2.6233   -0.7879    1.1959 C   0  0  0  0  0  0  0  0  0  0  0  0
    3.7527   -1.2475    0.2988 C   0  0  0  0  0  0  0  0  0  0  0  0
    3.8277   -0.3226   -0.8747 C   0  0  0  0  0  0  0  0  0  0  0  0
    5.3121   -0.0488   -1.1381 C   0  0  0  0  0  0  0  0  0  0  0  0
    3.1931    1.0246   -0.6119 C   0  0  0  0  0  0  0  0  0  0  0  0
    1.7169    0.8917   -0.2947 C   0  0  0  0  0  0  0  0  0  0  0  0
   -1.8171   -1.6124    2.1491 H   0  0  0  0  0  0  0  0  0  0  0  0
   -2.8076   -2.8446    0.1851 H   0  0  0  0  0  0  0  0  0  0  0  0
   -1.1986    0.6066   -1.3220 H   0  0  0  0  0  0  0  0  0  0  0  0
   -5.3698   -0.8370   -0.5728 H   0  0  0  0  0  0  0  0  0  0  0  0
    2.9423    0.1636    1.6710 H   0  0  0  0  0  0  0  0  0  0  0  0
    4.6875   -1.2658    0.9035 H   0  0  0  0  0  0  0  0  0  0  0  0
    5.8583    0.0968   -0.1787 H   0  0  0  0  0  0  0  0  0  0  0  0
    5.7917   -0.9109   -1.6496 H   0  0  0  0  0  0  0  0  0  0  0  0
    5.4483    0.8345   -1.7741 H   0  0  0  0  0  0  0  0  0  0  0  0
    3.2754    1.6153   -1.5456 H   0  0  0  0  0  0  0  0  0  0  0  0
    1.1188    1.1234   -1.1925 H   0  0  0  0  0  0  0  0  0  0  0  0
    1.0316    0.2318    2.8306 H   0  0  0  0  0  0  0  0  0  0  0  0
    0.2163   -1.4300    1.7901 H   0  0  0  0  0  0  0  0  0  0  0  0
   -1.0850   -1.3348   -0.1805 H   0  0  0  0  0  0  0  0  0  0  0  0
   -2.3283    0.1630    2.1429 H   0  0  0  0  0  0  0  0  0  0  0  0
   -4.1700   -1.4528    1.5446 H   0  0  0  0  0  0  0  0  0  0  0  0
   -0.8318    1.6118    0.0975 H   0  0  0  0  0  0  0  0  0  0  0  0
   -2.9595    2.0316    0.6088 H   0  0  0  0  0  0  0  0  0  0  0  0
   -2.9024    0.2216   -2.3481 H   0  0  0  0  0  0  0  0  0  0  0  0
   -4.8096    2.5345   -0.4840 H   0  0  0  0  0  0  0  0  0  0  0  0
   -4.6911    0.6308    0.8586 H   0  0  0  0  0  0  0  0  0  0  0  0
    1.3349   -1.2262   -0.4595 H   0  0  0  0  0  0  0  0  0  0  0  0
    2.3723   -1.5158    1.9662 H   0  0  0  0  0  0  0  0  0  0  0  0
    3.5812   -2.2999   -0.0339 H   0  0  0  0  0  0  0  0  0  0  0  0
    3.4212   -0.7813   -1.7860 H   0  0  0  0  0  0  0  0  0  0  0  0
    3.7312    1.5678    0.1672 H   0  0  0  0  0  0  0  0  0  0  0  0
    1.5106    1.6582    0.4792 H   0  0  0  0  0  0  0  0  0  0  0  0
  1  2  1  0
  2  3  1  0
  3  4  1  0
  4  5  1  0
  5  6  1  0
  3  7  1  0
  7  8  1  0
  8  9  1  0
  9 10  1  0
  9 11  1  0
  5 12  1  0
  8 12  1  0
 12 13  1  0
  2 14  1  0
 14 15  1  0
 15 16  1  0
 16 17  1  0
 17 18  1  0
 17 19  1  0
 14 20  1  0
 19 20  1  0
  4 21  1  0
  6 22  1  0
  7 23  1  0
 24 13  1  0
 15 25  1  0
 16 26  1  0
 18 27  1  0
 18 28  1  0
 18 29  1  0
 19 30  1  0
 20 31  1  0
  1 32  1  0
  2 33  1  1
  3 34  1  6
  4 35  1  0
  5 36  1  0
  7 37  1  0
  8 38  1  0
 10 39  1  0
 11 40  1  0
 12 41  1  0
 14 42  1  0
 15 43  1  0
 16 44  1  0
 17 45  1  0
 19 46  1  0
 20 47  1  0
M  END
>  <PDBID>  (1) 
3S68

>  <PDB ID>  (1) 
3S68

>  <Generic Name>  (1) 
Tolcapone

>  <Brand Name>  (1) 
Tasmar#Tolcapone#Sen De Ning

>  <DrugBank ID>  (1) 
DB00323

>  <ATC Codes>  (1) 
N04BX01

>  <Ligand ID>  (1) 
TCW

>  <Target Name>  (1) 
Catechol O-methyltransferase

>  <UniProt ID>  (1) 
P21964

>  <PDB ID.1>  (1) 
3S68

>  <Seq. Identity>  (1) 
81%

$$$$
