PDB_DB00703_09
     RDKit          3D

 30 30  0  0  0  0  0  0  0  0999 V2000
   -4.0506    0.9476   -0.7051 N   0  0  0  0  0  0  0  0  0  0  0  0
   -2.5104    0.8760   -1.0284 S   0  0  0  0  0  0  0  0  0  0  0  0
   -1.7669    2.2603   -0.3409 O   0  0  0  0  0  0  0  0  0  0  0  0
   -2.1203    0.8690   -2.5906 O   0  0  0  0  0  0  0  0  0  0  0  0
   -1.8325   -0.4716   -0.1753 C   0  0  1  0  0  0  0  0  0  0  0  0
   -0.4010   -1.0120   -1.2811 S   0  0  0  0  0  0  0  0  0  0  0  0
    0.8528   -0.8949    0.0804 C   0  0  2  0  0  0  0  0  0  0  0  0
   -0.0476   -0.9571    1.1882 N   0  0  0  0  0  0  0  0  0  0  0  0
   -0.4479   -2.3389    1.4030 C   0  0  0  0  0  0  0  0  0  0  0  0
   -1.1589   -0.1872    0.9887 N   0  0  0  0  0  0  0  0  0  0  0  0
    1.5288    0.3534   -0.1122 N   0  0  0  0  0  0  0  0  0  0  0  0
    2.9590    0.2827   -0.0126 C   0  0  0  0  0  0  0  0  0  0  0  0
    3.5127    0.4332   -1.2866 O   0  0  0  0  0  0  0  0  0  0  0  0
    3.5046    1.2788    0.9684 C   0  0  0  0  0  0  0  0  0  0  0  0
   -4.6758    1.4897   -1.3466 H   0  0  0  0  0  0  0  0  0  0  0  0
   -4.5486    0.1205   -0.2888 H   0  0  0  0  0  0  0  0  0  0  0  0
   -2.3116    2.4992    0.4582 H   0  0  0  0  0  0  0  0  0  0  0  0
   -2.4477    0.0466   -3.0028 H   0  0  0  0  0  0  0  0  0  0  0  0
   -2.5567   -1.3057   -0.2415 H   0  0  0  0  0  0  0  0  0  0  0  0
    1.5065   -1.7657    0.0522 H   0  0  0  0  0  0  0  0  0  0  0  0
   -0.3342   -2.5751    2.4723 H   0  0  0  0  0  0  0  0  0  0  0  0
   -1.5159   -2.4820    1.1117 H   0  0  0  0  0  0  0  0  0  0  0  0
    0.2219   -3.0119    0.8187 H   0  0  0  0  0  0  0  0  0  0  0  0
   -1.0482    0.8168    1.2274 H   0  0  0  0  0  0  0  0  0  0  0  0
    1.2171    0.8933   -0.9253 H   0  0  0  0  0  0  0  0  0  0  0  0
    3.2408   -0.7444    0.3694 H   0  0  0  0  0  0  0  0  0  0  0  0
    4.2346   -0.2104   -1.4182 H   0  0  0  0  0  0  0  0  0  0  0  0
    2.7128    1.9937    1.3155 H   0  0  0  0  0  0  0  0  0  0  0  0
    4.2559    1.9618    0.4700 H   0  0  0  0  0  0  0  0  0  0  0  0
    4.0272    0.8342    1.8316 H   0  0  0  0  0  0  0  0  0  0  0  0
  1  2  1  0
  2  3  1  0
  2  4  1  0
  2  5  1  0
  5  6  1  0
  6  7  1  0
  7  8  1  0
  8  9  1  0
  5 10  1  0
  8 10  1  0
  7 11  1  0
 11 12  1  0
 12 13  1  0
 12 14  1  0
  1 15  1  0
  1 16  1  0
  3 17  1  0
  4 18  1  0
  5 19  1  1
  7 20  1  1
  9 21  1  0
  9 22  1  0
  9 23  1  0
 10 24  1  0
 11 25  1  0
 12 26  1  0
 13 27  1  0
 14 28  1  0
 14 29  1  0
 14 30  1  0
M  END
>  <PDBID>  (1) 
1BZM

>  <PDB ID>  (1) 
1BZM

>  <Generic Name>  (1) 
Methazolamide

>  <Brand Name>  (1) 
Methazolamide#Neptazane#Neptazane Tablets 25mg#Neptazane Tablets 25mg USP#Neptazane Tablets 50mg#Naptazane

>  <DrugBank ID>  (1) 
DB00703

>  <ATC Codes>  (1) 
S01EC05

>  <Ligand ID>  (1) 
MZM

>  <Target Name>  (1) 
Carbonic anhydrase 1

>  <UniProt ID>  (1) 
P00915

>  <PDB ID.1>  (1) 
1BZM

>  <Seq. Identity>  (1) 
100%

$$$$
