PDB_DB01132_03
     RDKit          3D

122126  0  0  0  0  0  0  0  0999 V2000
   -7.2684   -1.3876   -1.0859 O   0  0  0  0  0  0  0  0  0  0  0  0
   -6.7609   -0.1597   -0.7590 C   0  0  1  0  0  0  0  0  0  0  0  0
   -7.6024    0.4221    0.2733 N   0  0  0  0  0  0  0  0  0  0  0  0
   -5.3554   -0.2517   -0.1440 C   0  0  2  0  0  0  0  0  0  0  0  0
   -5.3035    1.4163    0.6313 S   0  0  0  0  0  0  0  0  0  0  0  0
   -7.0991    1.7902    0.4793 C   0  0  0  0  0  0  0  0  0  0  0  0
   -7.2886    2.5853   -0.6225 O   0  0  0  0  0  0  0  0  0  0  0  0
   -4.3938   -0.3575   -1.2807 C   0  0  0  0  0  0  0  0  0  0  0  0
    5.7435   -1.0038    0.4705 C   0  0  0  0  0  0  0  0  0  0  0  0
   -2.9620   -0.4569   -0.8630 C   0  0  0  0  0  0  0  0  0  0  0  0
   -2.6423   -1.6314   -0.0088 C   0  0  0  0  0  0  0  0  0  0  0  0
   -1.8485   -1.3257    1.2157 C   0  0  0  0  0  0  0  0  0  0  0  0
   -0.6978   -0.4034    0.9963 C   0  0  0  0  0  0  0  0  0  0  0  0
   -0.9557    0.6360   -0.0692 C   0  0  0  0  0  0  0  0  0  0  0  0
   -2.4741    0.7952   -0.1547 C   0  0  0  0  0  0  0  0  0  0  0  0
    0.4950   -1.0192    0.7148 O   0  0  0  0  0  0  0  0  0  0  0  0
    1.4757   -0.7462    1.6652 C   0  0  0  0  0  0  0  0  0  0  0  0
    2.7788   -1.4371    1.3301 C   0  0  0  0  0  0  0  0  0  0  0  0
    6.8257    2.5671   -0.2658 C   0  0  0  0  0  0  0  0  0  0  0  0
    6.5712    1.3439    0.5706 C   0  0  0  0  0  0  0  0  0  0  0  0
    6.0184    0.2552   -0.3251 C   0  0  0  0  0  0  0  0  0  0  0  0
    4.7009    0.6789   -0.9536 C   0  0  0  0  0  0  0  0  0  0  0  0
    3.5899    0.4201   -0.0501 N   0  0  0  0  0  0  0  0  0  0  0  0
    4.6271   -1.7523   -0.2255 C   0  0  0  0  0  0  0  0  0  0  0  0
    3.3264   -1.0061   -0.0014 C   0  0  0  0  0  0  0  0  0  0  0  0
   -6.9879   -1.5782   -1.3763 O   0  0  0  0  0  0  0  0  0  0  0  0
   -6.8600   -0.6257   -0.3973 C   0  0  0  0  0  0  0  0  0  0  0  0
   -7.1159    0.6703   -1.0016 N   0  0  0  0  0  0  0  0  0  0  0  0
   -5.4160   -0.5575    0.1264 C   0  0  2  0  0  0  0  0  0  0  0  0
   -5.5154    1.1006    0.9159 S   0  0  0  0  0  0  0  0  0  0  0  0
   -7.0638    1.6483    0.0875 C   0  0  0  0  0  0  0  0  0  0  0  0
   -6.8167    2.9153   -0.4077 O   0  0  0  0  0  0  0  0  0  0  0  0
   -4.5229   -0.5621   -1.0557 C   0  0  0  0  0  0  0  0  0  0  0  0
    5.8070   -0.9753    0.3911 C   0  0  0  0  0  0  0  0  0  0  0  0
   -3.0640   -0.5007   -0.7523 C   0  0  0  0  0  0  0  0  0  0  0  0
   -2.5590   -1.6339    0.0732 C   0  0  0  0  0  0  0  0  0  0  0  0
   -1.8209   -1.2158    1.3124 C   0  0  0  0  0  0  0  0  0  0  0  0
   -0.6834   -0.2684    1.0307 C   0  0  0  0  0  0  0  0  0  0  0  0
   -1.0929    0.7287   -0.0381 C   0  0  0  0  0  0  0  0  0  0  0  0
   -2.6244    0.7988   -0.1229 C   0  0  0  0  0  0  0  0  0  0  0  0
    0.4911   -0.9182    0.7173 O   0  0  0  0  0  0  0  0  0  0  0  0
    1.4725   -0.6209    1.6512 C   0  0  0  0  0  0  0  0  0  0  0  0
    2.7745   -1.2852    1.3838 C   0  0  0  0  0  0  0  0  0  0  0  0
    6.9486    2.5869   -0.3169 C   0  0  0  0  0  0  0  0  0  0  0  0
    6.6600    1.3080    0.4245 C   0  0  0  0  0  0  0  0  0  0  0  0
    6.0474    0.2511   -0.4655 C   0  0  0  0  0  0  0  0  0  0  0  0
    4.7136    0.6821   -1.0209 C   0  0  0  0  0  0  0  0  0  0  0  0
    3.6282    0.4893   -0.0767 N   0  0  0  0  0  0  0  0  0  0  0  0
    4.6216   -1.7133   -0.2441 C   0  0  0  0  0  0  0  0  0  0  0  0
    3.3753   -0.9106    0.0487 C   0  0  0  0  0  0  0  0  0  0  0  0
   -6.5806   -1.9729   -1.5012 H   0  0  0  0  0  0  0  0  0  0  0  0
   -6.6651    0.5362   -1.6176 H   0  0  0  0  0  0  0  0  0  0  0  0
   -8.5627    0.4130   -0.0780 H   0  0  0  0  0  0  0  0  0  0  0  0
   -5.2940   -1.0449    0.5994 H   0  0  0  0  0  0  0  0  0  0  0  0
   -7.4908    2.1763    1.4178 H   0  0  0  0  0  0  0  0  0  0  0  0
   -6.4464    3.0980   -0.7950 H   0  0  0  0  0  0  0  0  0  0  0  0
   -4.5026    0.5526   -1.9046 H   0  0  0  0  0  0  0  0  0  0  0  0
   -4.6481   -1.2201   -1.8924 H   0  0  0  0  0  0  0  0  0  0  0  0
    5.4448   -0.6732    1.4871 H   0  0  0  0  0  0  0  0  0  0  0  0
    6.6557   -1.6313    0.5677 H   0  0  0  0  0  0  0  0  0  0  0  0
   -2.3505   -0.5355   -1.7939 H   0  0  0  0  0  0  0  0  0  0  0  0
   -2.0803   -2.4169   -0.5813 H   0  0  0  0  0  0  0  0  0  0  0  0
   -3.5901   -2.1297    0.3021 H   0  0  0  0  0  0  0  0  0  0  0  0
   -2.5254   -0.9794    2.0407 H   0  0  0  0  0  0  0  0  0  0  0  0
   -1.4224   -2.3005    1.5919 H   0  0  0  0  0  0  0  0  0  0  0  0
   -0.5512    0.1759    1.9551 H   0  0  0  0  0  0  0  0  0  0  0  0
   -0.4461    1.5852    0.1025 H   0  0  0  0  0  0  0  0  0  0  0  0
   -0.6425    0.2066   -1.0512 H   0  0  0  0  0  0  0  0  0  0  0  0
   -2.7538    1.7134   -0.6801 H   0  0  0  0  0  0  0  0  0  0  0  0
   -2.8310    0.7616    0.9006 H   0  0  0  0  0  0  0  0  0  0  0  0
    1.1205   -1.1537    2.6323 H   0  0  0  0  0  0  0  0  0  0  0  0
    1.6855    0.3401    1.7355 H   0  0  0  0  0  0  0  0  0  0  0  0
    2.6420   -2.5390    1.2848 H   0  0  0  0  0  0  0  0  0  0  0  0
    3.5451   -1.2244    2.0964 H   0  0  0  0  0  0  0  0  0  0  0  0
    7.1694    2.2477   -1.2614 H   0  0  0  0  0  0  0  0  0  0  0  0
    5.8995    3.2071   -0.3378 H   0  0  0  0  0  0  0  0  0  0  0  0
    7.5922    3.2415    0.2044 H   0  0  0  0  0  0  0  0  0  0  0  0
    7.5111    0.9930    0.9947 H   0  0  0  0  0  0  0  0  0  0  0  0
    5.8498    1.6158    1.3740 H   0  0  0  0  0  0  0  0  0  0  0  0
    6.7807    0.0463   -1.1003 H   0  0  0  0  0  0  0  0  0  0  0  0
    4.5245    0.0891   -1.8736 H   0  0  0  0  0  0  0  0  0  0  0  0
    4.6778    1.7780   -1.1597 H   0  0  0  0  0  0  0  0  0  0  0  0
    2.7571    0.9246   -0.4720 H   0  0  0  0  0  0  0  0  0  0  0  0
    4.8762   -1.8372   -1.3009 H   0  0  0  0  0  0  0  0  0  0  0  0
    4.5650   -2.7911    0.1947 H   0  0  0  0  0  0  0  0  0  0  0  0
    2.5866   -1.2239   -0.7990 H   0  0  0  0  0  0  0  0  0  0  0  0
   -6.9226   -1.1861   -2.2798 H   0  0  0  0  0  0  0  0  0  0  0  0
   -7.5173   -0.8322    0.4647 H   0  0  0  0  0  0  0  0  0  0  0  0
   -8.0811    0.6598   -1.3415 H   0  0  0  0  0  0  0  0  0  0  0  0
   -5.2435   -1.3378    0.8596 H   0  0  0  0  0  0  0  0  0  0  0  0
   -7.9238    1.5849    0.7533 H   0  0  0  0  0  0  0  0  0  0  0  0
   -5.9582    3.3059   -0.0696 H   0  0  0  0  0  0  0  0  0  0  0  0
   -4.7687    0.3435   -1.6728 H   0  0  0  0  0  0  0  0  0  0  0  0
   -4.7186   -1.4599   -1.6542 H   0  0  0  0  0  0  0  0  0  0  0  0
    5.4849   -0.6103    1.3897 H   0  0  0  0  0  0  0  0  0  0  0  0
    6.6982   -1.6226    0.4469 H   0  0  0  0  0  0  0  0  0  0  0  0
   -2.5287   -0.5492   -1.7470 H   0  0  0  0  0  0  0  0  0  0  0  0
   -1.9589   -2.3526   -0.5228 H   0  0  0  0  0  0  0  0  0  0  0  0
   -3.4470   -2.2330    0.4306 H   0  0  0  0  0  0  0  0  0  0  0  0
   -2.5219   -0.7148    2.0101 H   0  0  0  0  0  0  0  0  0  0  0  0
   -1.4373   -2.1325    1.7999 H   0  0  0  0  0  0  0  0  0  0  0  0
   -0.5221    0.3224    1.9551 H   0  0  0  0  0  0  0  0  0  0  0  0
   -0.7478    1.7535    0.1778 H   0  0  0  0  0  0  0  0  0  0  0  0
   -0.7175    0.4553   -1.0420 H   0  0  0  0  0  0  0  0  0  0  0  0
   -2.8584    1.6290   -0.8083 H   0  0  0  0  0  0  0  0  0  0  0  0
   -2.9727    0.9381    0.9045 H   0  0  0  0  0  0  0  0  0  0  0  0
    1.0928   -0.9707    2.6337 H   0  0  0  0  0  0  0  0  0  0  0  0
    1.5351    0.4819    1.7240 H   0  0  0  0  0  0  0  0  0  0  0  0
    2.6677   -2.3775    1.5025 H   0  0  0  0  0  0  0  0  0  0  0  0
    3.4966   -0.9565    2.1593 H   0  0  0  0  0  0  0  0  0  0  0  0
    6.0221    3.1075   -0.5804 H   0  0  0  0  0  0  0  0  0  0  0  0
    7.5926    2.4051   -1.1946 H   0  0  0  0  0  0  0  0  0  0  0  0
    7.5491    3.2266    0.3820 H   0  0  0  0  0  0  0  0  0  0  0  0
    7.5864    0.9060    0.8419 H   0  0  0  0  0  0  0  0  0  0  0  0
    5.9442    1.5015    1.2391 H   0  0  0  0  0  0  0  0  0  0  0  0
    6.7468   -0.0615   -1.2682 H   0  0  0  0  0  0  0  0  0  0  0  0
    4.5122    0.0318   -1.9120 H   0  0  0  0  0  0  0  0  0  0  0  0
    4.7360    1.7212   -1.4101 H   0  0  0  0  0  0  0  0  0  0  0  0
    2.8051    1.0028   -0.4682 H   0  0  0  0  0  0  0  0  0  0  0  0
    4.7799   -1.8992   -1.3118 H   0  0  0  0  0  0  0  0  0  0  0  0
    4.5757   -2.6938    0.2717 H   0  0  0  0  0  0  0  0  0  0  0  0
    2.6240   -1.2003   -0.7299 H   0  0  0  0  0  0  0  0  0  0  0  0
  1  2  1  0
  2  3  1  0
  2  4  1  0
  4  5  1  0
  3  6  1  0
  5  6  1  0
  6  7  1  0
  4  8  1  0
  8 10  1  0
 10 11  1  0
 11 12  1  0
 12 13  1  0
 13 14  1  0
 10 15  1  0
 14 15  1  0
 13 16  1  0
 16 17  1  0
 17 18  1  0
 19 20  1  0
  9 21  1  0
 20 21  1  0
 21 22  1  0
 22 23  1  0
  9 24  1  0
 18 25  1  0
 23 25  1  0
 24 25  1  0
 26 27  1  0
 27 28  1  0
 27 29  1  0
 29 30  1  0
 28 31  1  0
 30 31  1  0
 31 32  1  0
 29 33  1  0
 33 35  1  0
 35 36  1  0
 36 37  1  0
 37 38  1  0
 38 39  1  0
 35 40  1  0
 39 40  1  0
 38 41  1  0
 41 42  1  0
 42 43  1  0
 44 45  1  0
 34 46  1  0
 45 46  1  0
 46 47  1  0
 47 48  1  0
 34 49  1  0
 43 50  1  0
 48 50  1  0
 49 50  1  0
  1 51  1  0
  2 52  1  6
  3 53  1  0
  4 54  1  1
  6 55  1  0
  7 56  1  0
  8 57  1  0
  8 58  1  0
  9 59  1  0
  9 60  1  0
 10 61  1  0
 11 62  1  0
 11 63  1  0
 12 64  1  0
 12 65  1  0
 13 66  1  0
 14 67  1  0
 14 68  1  0
 15 69  1  0
 15 70  1  0
 17 71  1  0
 17 72  1  0
 18 73  1  0
 18 74  1  0
 19 75  1  0
 19 76  1  0
 19 77  1  0
 20 78  1  0
 20 79  1  0
 21 80  1  0
 22 81  1  0
 22 82  1  0
 23 83  1  0
 24 84  1  0
 24 85  1  0
 25 86  1  0
 26 87  1  0
 27 88  1  0
 28 89  1  0
 29 90  1  1
 31 91  1  0
 32 92  1  0
 33 93  1  0
 33 94  1  0
 34 95  1  0
 34 96  1  0
 35 97  1  0
 36 98  1  0
 36 99  1  0
 37100  1  0
 37101  1  0
 38102  1  0
 39103  1  0
 39104  1  0
 40105  1  0
 40106  1  0
 42107  1  0
 42108  1  0
 43109  1  0
 43110  1  0
 44111  1  0
 44112  1  0
 44113  1  0
 45114  1  0
 45115  1  0
 46116  1  0
 47117  1  0
 47118  1  0
 48119  1  0
 49120  1  0
 49121  1  0
 50122  1  0
M  END
>  <PDBID>  (1) 
2XKW

>  <PDB ID>  (1) 
2XKW

>  <Generic Name>  (1) 
Pioglitazone

>  <Brand Name>  (1) 
Accel Pioglitazone#Ach-pioglitazone#Act Pioglitazone#Actoplus Met#Actoplus Met XR#Actos#Actos (15mg)#Actos (30mg)#Actos (45mg)#Ag-pioglitazone#Alogliptin and Pioglitazone#Apo-pioglitazone#Auro-pioglitazone#Ava-pioglitazone#Dom-pioglitazone#Duetact#Jamp-pioglitazone#Mint-pioglitazone#Mylan-pioglitazone#Oseni#PHL-pioglitazone#PMS-pioglitazone#Pioglitazole and Metformin Hydrochloride#Pioglitazone#Pioglitazone HCl#Pioglitazone HCl and Metformin HCl#Pioglitazone Hydrochloride#Pioglitazone Hydrochloride and Glimepiride#Pioglitazone Hydrochloride and Metformin Hydrochloride#Pioglitazone and Glimepiride#Pioglitazone and Metformin#Pioglitazone and Metformin Hydrochloride#Pioglitazone and Metformin Hydrocholride#Pioglitazonehydrochloride#Pro-pioglitazone#Ran-pioglitazone#Ratio-pioglitazone#Sandoz Pioglitazone#Teva-pioglitazone#Torrent-pioglitazone#Van-pioglitazone#Zym-pioglitazone#Actost#Glustin

>  <DrugBank ID>  (1) 
DB01132

>  <ATC Codes>  (1) 
A10BD12#A10BD09#A10BG03#A10BD06#A10BD05

>  <Ligand ID>  (1) 
8N6,P1B

>  <Target Name>  (1) 
Peroxisome proliferator-activated receptor gamma

>  <UniProt ID>  (1) 
P37231

>  <PDB ID.1>  (1) 
2XKW

>  <Seq. Identity>  (1) 
95%

$$$$
