PDB_DB06243_01
     RDKit          3D

 76 72  0  0  0  0  0  0  0  0999 V2000
   -1.7892   -0.1929   -0.3778 C   0  0  2  0  0  0  0  0  0  0  0  0
   -2.0494    1.2423   -0.7052 C   0  0  0  0  0  0  0  0  0  0  0  0
   -2.9016   -0.7703    0.3319 N   0  0  0  0  0  0  0  0  0  0  0  0
   -0.5480   -0.4130    0.4240 C   0  0  0  0  0  0  0  0  0  0  0  0
    0.7072    0.0626   -0.2644 C   0  0  0  0  0  0  0  0  0  0  0  0
    1.8654   -0.2281    0.6667 C   0  0  0  0  0  0  0  0  0  0  0  0
    3.1261    0.2024    0.0768 N   0  0  0  0  0  0  0  0  0  0  0  0
   -1.8066   -0.3397   -0.3475 C   0  0  0  0  0  0  0  0  0  0  0  0
   -2.1452    1.0986   -0.6851 C   0  0  0  0  0  0  0  0  0  0  0  0
   -2.8878   -0.8341    0.4929 N   0  0  0  0  0  0  0  0  0  0  0  0
   -0.5372   -0.4291    0.4249 C   0  0  0  0  0  0  0  0  0  0  0  0
    0.6592    0.1156   -0.2825 C   0  0  0  0  0  0  0  0  0  0  0  0
    1.8457   -0.0715    0.6751 C   0  0  0  0  0  0  0  0  0  0  0  0
    3.0691    0.4149    0.1128 N   0  0  0  0  0  0  0  0  0  0  0  0
   -1.7892   -0.1929   -0.3778 C   0  0  2  0  0  0  0  0  0  0  0  0
   -2.0494    1.2423   -0.7052 C   0  0  0  0  0  0  0  0  0  0  0  0
   -2.9016   -0.7703    0.3319 N   0  0  0  0  0  0  0  0  0  0  0  0
   -0.5480   -0.4130    0.4240 C   0  0  0  0  0  0  0  0  0  0  0  0
    0.7072    0.0626   -0.2644 C   0  0  0  0  0  0  0  0  0  0  0  0
    1.8654   -0.2281    0.6667 C   0  0  0  0  0  0  0  0  0  0  0  0
    3.1261    0.2024    0.0768 N   0  0  0  0  0  0  0  0  0  0  0  0
   -1.7892   -0.1929   -0.3778 C   0  0  2  0  0  0  0  0  0  0  0  0
   -2.0494    1.2423   -0.7052 C   0  0  0  0  0  0  0  0  0  0  0  0
   -2.9016   -0.7703    0.3319 N   0  0  0  0  0  0  0  0  0  0  0  0
   -0.5480   -0.4130    0.4240 C   0  0  0  0  0  0  0  0  0  0  0  0
    0.7072    0.0626   -0.2644 C   0  0  0  0  0  0  0  0  0  0  0  0
    1.8654   -0.2281    0.6667 C   0  0  0  0  0  0  0  0  0  0  0  0
    3.1261    0.2024    0.0768 N   0  0  0  0  0  0  0  0  0  0  0  0
   -1.6678   -0.7664   -1.3387 H   0  0  0  0  0  0  0  0  0  0  0  0
   -1.2259    1.9105   -0.3292 H   0  0  0  0  0  0  0  0  0  0  0  0
   -2.9600    1.5850   -0.1360 H   0  0  0  0  0  0  0  0  0  0  0  0
   -3.0775   -1.7696    0.0999 H   0  0  0  0  0  0  0  0  0  0  0  0
   -0.4428   -1.5136    0.5793 H   0  0  0  0  0  0  0  0  0  0  0  0
   -0.6319    0.0621    1.4101 H   0  0  0  0  0  0  0  0  0  0  0  0
    0.6722    1.1270   -0.5295 H   0  0  0  0  0  0  0  0  0  0  0  0
    0.8196   -0.5001   -1.2283 H   0  0  0  0  0  0  0  0  0  0  0  0
    1.7124    0.4291    1.5616 H   0  0  0  0  0  0  0  0  0  0  0  0
    1.8987   -1.2886    0.9219 H   0  0  0  0  0  0  0  0  0  0  0  0
    3.0892    1.2070   -0.1673 H   0  0  0  0  0  0  0  0  0  0  0  0
    3.4035   -0.3855   -0.7420 H   0  0  0  0  0  0  0  0  0  0  0  0
   -1.7595   -0.9618   -1.2672 H   0  0  0  0  0  0  0  0  0  0  0  0
   -1.2751    1.5417   -1.1711 H   0  0  0  0  0  0  0  0  0  0  0  0
   -2.3551    1.6471    0.2495 H   0  0  0  0  0  0  0  0  0  0  0  0
   -3.5123   -1.4383   -0.0690 H   0  0  0  0  0  0  0  0  0  0  0  0
   -0.3452   -1.4838    0.6708 H   0  0  0  0  0  0  0  0  0  0  0  0
   -0.6558    0.1428    1.3736 H   0  0  0  0  0  0  0  0  0  0  0  0
    0.6141    1.2002   -0.4817 H   0  0  0  0  0  0  0  0  0  0  0  0
    0.8499   -0.3766   -1.2572 H   0  0  0  0  0  0  0  0  0  0  0  0
    1.6147    0.5381    1.5779 H   0  0  0  0  0  0  0  0  0  0  0  0
    1.9222   -1.1126    1.0058 H   0  0  0  0  0  0  0  0  0  0  0  0
    3.7667   -0.3661    0.1003 H   0  0  0  0  0  0  0  0  0  0  0  0
    2.9382    0.7145   -0.8684 H   0  0  0  0  0  0  0  0  0  0  0  0
   -1.6678   -0.7664   -1.3387 H   0  0  0  0  0  0  0  0  0  0  0  0
   -1.2259    1.9105   -0.3292 H   0  0  0  0  0  0  0  0  0  0  0  0
   -2.9600    1.5850   -0.1360 H   0  0  0  0  0  0  0  0  0  0  0  0
   -3.0775   -1.7696    0.0999 H   0  0  0  0  0  0  0  0  0  0  0  0
   -0.4428   -1.5136    0.5793 H   0  0  0  0  0  0  0  0  0  0  0  0
   -0.6319    0.0621    1.4101 H   0  0  0  0  0  0  0  0  0  0  0  0
    0.6722    1.1270   -0.5295 H   0  0  0  0  0  0  0  0  0  0  0  0
    0.8196   -0.5001   -1.2283 H   0  0  0  0  0  0  0  0  0  0  0  0
    1.7124    0.4291    1.5616 H   0  0  0  0  0  0  0  0  0  0  0  0
    1.8987   -1.2886    0.9219 H   0  0  0  0  0  0  0  0  0  0  0  0
    3.0892    1.2070   -0.1673 H   0  0  0  0  0  0  0  0  0  0  0  0
    3.4035   -0.3855   -0.7420 H   0  0  0  0  0  0  0  0  0  0  0  0
   -1.6678   -0.7664   -1.3387 H   0  0  0  0  0  0  0  0  0  0  0  0
   -1.2259    1.9105   -0.3292 H   0  0  0  0  0  0  0  0  0  0  0  0
   -2.9600    1.5850   -0.1360 H   0  0  0  0  0  0  0  0  0  0  0  0
   -3.0775   -1.7696    0.0999 H   0  0  0  0  0  0  0  0  0  0  0  0
   -0.4428   -1.5136    0.5793 H   0  0  0  0  0  0  0  0  0  0  0  0
   -0.6319    0.0621    1.4101 H   0  0  0  0  0  0  0  0  0  0  0  0
    0.6722    1.1270   -0.5295 H   0  0  0  0  0  0  0  0  0  0  0  0
    0.8196   -0.5001   -1.2283 H   0  0  0  0  0  0  0  0  0  0  0  0
    1.7124    0.4291    1.5616 H   0  0  0  0  0  0  0  0  0  0  0  0
    1.8987   -1.2886    0.9219 H   0  0  0  0  0  0  0  0  0  0  0  0
    3.0892    1.2070   -0.1673 H   0  0  0  0  0  0  0  0  0  0  0  0
    3.4035   -0.3855   -0.7420 H   0  0  0  0  0  0  0  0  0  0  0  0
  1  2  1  0
  1  3  1  0
  1  4  1  0
  4  5  1  0
  5  6  1  0
  6  7  1  0
  8  9  1  0
  8 10  1  0
  8 11  1  0
 11 12  1  0
 12 13  1  0
 13 14  1  0
 15 16  1  0
 15 17  1  0
 15 18  1  0
 18 19  1  0
 19 20  1  0
 20 21  1  0
 22 23  1  0
 22 24  1  0
 22 25  1  0
 25 26  1  0
 26 27  1  0
 27 28  1  0
  1 29  1  6
  2 30  1  0
  2 31  1  0
  3 32  1  0
  4 33  1  0
  4 34  1  0
  5 35  1  0
  5 36  1  0
  6 37  1  0
  6 38  1  0
  7 39  1  0
  7 40  1  0
  8 41  1  0
  9 42  1  0
  9 43  1  0
 10 44  1  0
 11 45  1  0
 11 46  1  0
 12 47  1  0
 12 48  1  0
 13 49  1  0
 13 50  1  0
 14 51  1  0
 14 52  1  0
 15 53  1  6
 16 54  1  0
 16 55  1  0
 17 56  1  0
 18 57  1  0
 18 58  1  0
 19 59  1  0
 19 60  1  0
 20 61  1  0
 20 62  1  0
 21 63  1  0
 21 64  1  0
 22 65  1  6
 23 66  1  0
 23 67  1  0
 24 68  1  0
 25 69  1  0
 25 70  1  0
 26 71  1  0
 26 72  1  0
 27 73  1  0
 27 74  1  0
 28 75  1  0
 28 76  1  0
M  END
>  <PDBID>  (1) 
2TOD

>  <PDB ID>  (1) 
2TOD

>  <Generic Name>  (1) 
Eflornithine

>  <Brand Name>  (1) 
Vaniqa

>  <DrugBank ID>  (1) 
DB06243

>  <ATC Codes>  (1) 
D11AX16#P01CX03

>  <Ligand ID>  (1) 
DMO

>  <Target Name>  (1) 
Ornithine decarboxylase

>  <UniProt ID>  (1) 
P11926

>  <PDB ID.1>  (1) 
2TOD

>  <Seq. Identity>  (1) 
65%

$$$$
