PDB_DB00320_05
     RDKit          3D

100107  0  0  0  0  0  0  0  0999 V2000
   -3.6069    0.4985    1.0701 C   0  0  0  0  0  0  0  0  0  0  0  0
   -4.7768    0.7131    0.1626 C   0  0  2  0  0  0  0  0  0  0  0  0
   -6.0095    1.0401    0.9797 C   0  0  2  0  0  0  0  0  0  0  0  0
   -7.1955    1.3548    0.1271 C   0  0  2  0  0  0  0  0  0  0  0  0
   -5.8231    2.1438    1.9558 C   0  0  0  0  0  0  0  0  0  0  0  0
   -7.0238    2.1078    2.9058 C   0  0  0  0  0  0  0  0  0  0  0  0
   -8.0662    1.1306    2.4771 C   0  0  0  0  0  0  0  0  0  0  0  0
   -8.4218    1.1736    1.0196 C   0  0  0  0  0  0  0  0  0  0  0  0
   -9.0102   -0.0810    0.6585 N   0  0  0  0  0  0  0  0  0  0  0  0
   -8.2897   -0.6395   -0.4413 C   0  0  0  0  0  0  0  0  0  0  0  0
   -7.4291    0.4316   -1.0126 C   0  0  0  0  0  0  0  0  0  0  0  0
   -6.1671   -0.0656   -1.6700 C   0  0  0  0  0  0  0  0  0  0  0  0
   -5.1561   -0.4970   -0.6612 C   0  0  1  0  0  0  0  0  0  0  0  0
   -4.0367   -1.1927   -1.2094 N   0  0  0  0  0  0  0  0  0  0  0  0
   -3.7789   -0.9468   -2.5834 C   0  0  0  0  0  0  0  0  0  0  0  0
   -2.9198   -1.3067   -0.3490 C   0  0  0  0  0  0  0  0  0  0  0  0
   -2.4225    0.0283    0.1871 C   0  0  2  0  0  0  0  0  0  0  0  0
   -1.2300   -0.2694    1.0691 C   0  0  0  0  0  0  0  0  0  0  0  0
   -0.9388    0.9177    1.7698 O   0  0  0  0  0  0  0  0  0  0  0  0
   -0.1436   -0.8737    0.4744 N   0  0  0  0  0  0  0  0  0  0  0  0
    0.7350   -0.3606   -0.4594 C   0  0  2  0  0  0  0  0  0  0  0  0
    0.0441    0.1011   -1.7381 C   0  0  0  0  0  0  0  0  0  0  0  0
    1.5440   -1.4954   -0.8511 O   0  0  0  0  0  0  0  0  0  0  0  0
    1.6912    0.7155   -0.0756 C   0  0  0  0  0  0  0  0  0  0  0  0
    1.4378    1.3077    1.1558 O   0  0  0  0  0  0  0  0  0  0  0  0
    2.9439    0.0462    0.0318 N   0  0  0  0  0  0  0  0  0  0  0  0
    2.8258   -1.2718   -0.3886 C   0  0  1  0  0  0  0  0  0  0  0  0
    2.9559   -2.1320    0.7416 O   0  0  0  0  0  0  0  0  0  0  0  0
    3.7625   -1.8008   -1.4147 C   0  0  2  0  0  0  0  0  0  0  0  0
    4.2827   -3.1805   -1.2031 C   0  0  0  0  0  0  0  0  0  0  0  0
    5.4237   -3.1919   -2.2376 C   0  0  0  0  0  0  0  0  0  0  0  0
    5.7363   -1.7076   -2.4919 C   0  0  0  0  0  0  0  0  0  0  0  0
    5.0143   -1.0489   -1.4631 N   0  0  0  0  0  0  0  0  0  0  0  0
    4.6219    0.3017   -1.6943 C   0  0  0  0  0  0  0  0  0  0  0  0
    5.4770    1.1209   -2.3497 O   0  0  0  0  0  0  0  0  0  0  0  0
    4.0994    0.8280   -0.3923 C   0  0  2  0  0  0  0  0  0  0  0  0
    5.0474    0.8007    0.7366 C   0  0  0  0  0  0  0  0  0  0  0  0
    6.3280    1.4932    0.7567 C   0  0  0  0  0  0  0  0  0  0  0  0
    7.3740    1.1304   -0.2069 C   0  0  0  0  0  0  0  0  0  0  0  0
    8.7561    1.0329    0.5035 C   0  0  0  0  0  0  0  0  0  0  0  0
    8.6143   -0.0927    1.4906 C   0  0  0  0  0  0  0  0  0  0  0  0
    7.6617    0.3506    2.5672 C   0  0  0  0  0  0  0  0  0  0  0  0
    6.8841    1.5796    2.1937 C   0  0  0  0  0  0  0  0  0  0  0  0
   -3.7897   -0.2065    1.8773 H   0  0  0  0  0  0  0  0  0  0  0  0
   -3.2832    1.5022    1.4247 H   0  0  0  0  0  0  0  0  0  0  0  0
   -4.5651    1.5476   -0.5238 H   0  0  0  0  0  0  0  0  0  0  0  0
   -6.2301    0.1043    1.5709 H   0  0  0  0  0  0  0  0  0  0  0  0
   -7.1996    2.4310   -0.1867 H   0  0  0  0  0  0  0  0  0  0  0  0
   -5.9448    3.1108    1.3851 H   0  0  0  0  0  0  0  0  0  0  0  0
   -4.8785    2.1710    2.4954 H   0  0  0  0  0  0  0  0  0  0  0  0
   -7.4112    3.1090    3.1271 H   0  0  0  0  0  0  0  0  0  0  0  0
   -6.5978    1.7109    3.8751 H   0  0  0  0  0  0  0  0  0  0  0  0
   -9.0079    1.4000    3.0403 H   0  0  0  0  0  0  0  0  0  0  0  0
   -7.8369    0.0808    2.8285 H   0  0  0  0  0  0  0  0  0  0  0  0
   -9.1713    1.9707    0.8497 H   0  0  0  0  0  0  0  0  0  0  0  0
  -10.0229   -0.0520    0.5025 H   0  0  0  0  0  0  0  0  0  0  0  0
   -9.0369   -0.9340   -1.2362 H   0  0  0  0  0  0  0  0  0  0  0  0
   -7.7548   -1.5737   -0.1986 H   0  0  0  0  0  0  0  0  0  0  0  0
   -8.0014    0.9839   -1.8128 H   0  0  0  0  0  0  0  0  0  0  0  0
   -6.4378   -0.8554   -2.3748 H   0  0  0  0  0  0  0  0  0  0  0  0
   -5.7653    0.7961   -2.2727 H   0  0  0  0  0  0  0  0  0  0  0  0
   -5.6654   -1.2085    0.0428 H   0  0  0  0  0  0  0  0  0  0  0  0
   -4.6115   -1.4108   -3.1901 H   0  0  0  0  0  0  0  0  0  0  0  0
   -3.6598    0.1208   -2.8599 H   0  0  0  0  0  0  0  0  0  0  0  0
   -2.8376   -1.4493   -2.8840 H   0  0  0  0  0  0  0  0  0  0  0  0
   -2.1380   -1.9230   -0.7940 H   0  0  0  0  0  0  0  0  0  0  0  0
   -3.2559   -1.8620    0.5768 H   0  0  0  0  0  0  0  0  0  0  0  0
   -2.2593    0.7191   -0.6029 H   0  0  0  0  0  0  0  0  0  0  0  0
   -1.6340   -0.9545    1.8733 H   0  0  0  0  0  0  0  0  0  0  0  0
   -1.2689    1.7142    1.2571 H   0  0  0  0  0  0  0  0  0  0  0  0
    0.0831   -1.8332    0.8577 H   0  0  0  0  0  0  0  0  0  0  0  0
   -0.7857   -0.5194   -2.0674 H   0  0  0  0  0  0  0  0  0  0  0  0
   -0.2716    1.1557   -1.7022 H   0  0  0  0  0  0  0  0  0  0  0  0
    0.8266   -0.0280   -2.5632 H   0  0  0  0  0  0  0  0  0  0  0  0
    1.8158    1.4882   -0.8767 H   0  0  0  0  0  0  0  0  0  0  0  0
    1.8556    0.7723    1.8513 H   0  0  0  0  0  0  0  0  0  0  0  0
    2.6577   -3.0577    0.4896 H   0  0  0  0  0  0  0  0  0  0  0  0
    3.3302   -1.7403   -2.4394 H   0  0  0  0  0  0  0  0  0  0  0  0
    3.5671   -3.9810   -1.3852 H   0  0  0  0  0  0  0  0  0  0  0  0
    4.7449   -3.2180   -0.1863 H   0  0  0  0  0  0  0  0  0  0  0  0
    6.2905   -3.7557   -1.9032 H   0  0  0  0  0  0  0  0  0  0  0  0
    4.9523   -3.5789   -3.1732 H   0  0  0  0  0  0  0  0  0  0  0  0
    5.4858   -1.4126   -3.5125 H   0  0  0  0  0  0  0  0  0  0  0  0
    6.8329   -1.5933   -2.2535 H   0  0  0  0  0  0  0  0  0  0  0  0
    3.6901    0.2507   -2.4002 H   0  0  0  0  0  0  0  0  0  0  0  0
    4.9953    1.9041   -2.7059 H   0  0  0  0  0  0  0  0  0  0  0  0
    3.6996    1.8762   -0.5693 H   0  0  0  0  0  0  0  0  0  0  0  0
    4.4609    1.1511    1.6582 H   0  0  0  0  0  0  0  0  0  0  0  0
    5.1762   -0.3195    1.0136 H   0  0  0  0  0  0  0  0  0  0  0  0
    6.1057    2.6131    0.5500 H   0  0  0  0  0  0  0  0  0  0  0  0
    7.5778    1.8771   -1.0200 H   0  0  0  0  0  0  0  0  0  0  0  0
    7.2692    0.1372   -0.6574 H   0  0  0  0  0  0  0  0  0  0  0  0
    9.0616    1.9891    0.9243 H   0  0  0  0  0  0  0  0  0  0  0  0
    9.4918    0.7294   -0.2616 H   0  0  0  0  0  0  0  0  0  0  0  0
    9.5967   -0.3331    1.9275 H   0  0  0  0  0  0  0  0  0  0  0  0
    8.2404   -0.9736    0.9274 H   0  0  0  0  0  0  0  0  0  0  0  0
    6.9836   -0.4790    2.9045 H   0  0  0  0  0  0  0  0  0  0  0  0
    8.2592    0.6135    3.4648 H   0  0  0  0  0  0  0  0  0  0  0  0
    5.9949    1.6447    2.8505 H   0  0  0  0  0  0  0  0  0  0  0  0
    7.4626    2.5097    2.3273 H   0  0  0  0  0  0  0  0  0  0  0  0
  1  2  1  0
  2  3  1  0
  3  4  1  0
  3  5  1  0
  5  6  1  0
  6  7  1  0
  4  8  1  0
  7  8  1  0
  8  9  1  0
  9 10  1  0
  4 11  1  0
 10 11  1  0
 11 12  1  0
  2 13  1  0
 12 13  1  0
 13 14  1  0
 14 15  1  0
 14 16  1  0
  1 17  1  0
 16 17  1  0
 17 18  1  0
 18 19  1  0
 18 20  1  0
 21 20  1  1
 21 22  1  0
 21 23  1  0
 21 24  1  0
 24 25  1  0
 24 26  1  0
 23 27  1  0
 26 27  1  0
 27 28  1  1
 27 29  1  0
 29 30  1  0
 30 31  1  0
 31 32  1  0
 29 33  1  0
 32 33  1  0
 33 34  1  0
 34 35  1  0
 26 36  1  0
 34 36  1  0
 36 37  1  0
 37 38  1  0
 38 39  1  0
 39 40  1  0
 40 41  1  0
 41 42  1  0
 38 43  1  0
 42 43  1  0
  1 44  1  0
  1 45  1  0
  2 46  1  6
  3 47  1  1
  4 48  1  6
  5 49  1  0
  5 50  1  0
  6 51  1  0
  6 52  1  0
  7 53  1  0
  7 54  1  0
  8 55  1  0
  9 56  1  0
 10 57  1  0
 10 58  1  0
 11 59  1  0
 12 60  1  0
 12 61  1  0
 13 62  1  1
 15 63  1  0
 15 64  1  0
 15 65  1  0
 16 66  1  0
 16 67  1  0
 17 68  1  6
 18 69  1  0
 19 70  1  0
 20 71  1  0
 22 72  1  0
 22 73  1  0
 22 74  1  0
 24 75  1  0
 25 76  1  0
 28 77  1  0
 29 78  1  6
 30 79  1  0
 30 80  1  0
 31 81  1  0
 31 82  1  0
 32 83  1  0
 32 84  1  0
 34 85  1  0
 35 86  1  0
 36 87  1  6
 37 88  1  0
 37 89  1  0
 38 90  1  0
 39 91  1  0
 39 92  1  0
 40 93  1  0
 40 94  1  0
 41 95  1  0
 41 96  1  0
 42 97  1  0
 42 98  1  0
 43 99  1  0
 43100  1  0
M  END
>  <PDBID>  (1) 
4IAQ

>  <PDB ID>  (1) 
4IAQ

>  <Generic Name>  (1) 
Dihydroergotamine

>  <Brand Name>  (1) 
D.H.E. 45#Dihydroergotamine (dhe), 1mg/ml#Dihydroergotamine Mesylate#Dihydroergotamine Mesylate Injection USP#Migranal#Migranal Nasal Spray 4mg/ml#PMS-dihydroergotamine#Dihydergot#Ergont#Ergotonin#Ikaran#Orstanorm#Verladyn

>  <DrugBank ID>  (1) 
DB00320

>  <ATC Codes>  (1) 
N02CA01#N02CA51

>  <Ligand ID>  (1) 
2GM

>  <Target Name>  (1) 
5-hydroxytryptamine receptor 1D

>  <UniProt ID>  (1) 
P28221

>  <PDB ID.1>  (1) 
4IAQ

>  <Seq. Identity>  (1) 
55%

$$$$
