PDB_DB00481_08
     RDKit          3D

166174  0  0  0  0  0  0  0  0999 V2000
   -1.4255    2.0096   -0.4413 C   0  0  0  0  0  0  0  0  0  0  0  0
   -2.0259    3.3216   -1.0155 C   0  0  0  0  0  0  0  0  0  0  0  0
   -3.3313    3.6643   -0.3919 C   0  0  0  0  0  0  0  0  0  0  0  0
   -4.4393    3.3539   -1.1964 O   0  0  0  0  0  0  0  0  0  0  0  0
   -3.5123    3.2714    1.0288 C   0  0  0  0  0  0  0  0  0  0  0  0
   -3.0245    1.8931    1.3143 C   0  0  0  0  0  0  0  0  0  0  0  0
   -4.3634    0.7603    1.8358 S   0  0  0  0  0  0  0  0  0  0  0  0
   -3.6988   -0.7091    1.0036 C   0  0  1  0  0  0  0  0  0  0  0  0
   -4.7236   -1.3460    0.1271 C   0  0  0  0  0  0  0  0  0  0  0  0
   -5.9340   -1.7724    0.9510 C   0  0  0  0  0  0  0  0  0  0  0  0
   -7.1264   -1.7412    0.0328 C   0  0  0  0  0  0  0  0  0  0  0  0
   -6.7126   -2.2260   -1.3326 C   0  0  0  0  0  0  0  0  0  0  0  0
   -6.5845   -1.1883   -2.2536 O   0  0  0  0  0  0  0  0  0  0  0  0
   -5.5366   -3.1461   -1.2959 C   0  0  0  0  0  0  0  0  0  0  0  0
   -4.2967   -2.4960   -0.6884 C   0  0  0  0  0  0  0  0  0  0  0  0
   -2.5739    1.2014    0.0616 C   0  0  0  0  0  0  0  0  0  0  0  0
   -2.4682   -0.2320    0.2521 C   0  0  0  0  0  0  0  0  0  0  0  0
   -1.2913   -0.8182    0.9431 C   0  0  0  0  0  0  0  0  0  0  0  0
   -1.4988   -2.2408    0.8877 O   0  0  0  0  0  0  0  0  0  0  0  0
    0.0545   -0.5829    0.3293 C   0  0  0  0  0  0  0  0  0  0  0  0
    0.2202   -1.0938   -1.0548 C   0  0  0  0  0  0  0  0  0  0  0  0
    1.5694   -0.5812   -1.5617 C   0  0  0  0  0  0  0  0  0  0  0  0
    2.6555   -0.7382   -0.5223 C   0  0  0  0  0  0  0  0  0  0  0  0
    2.2099   -1.8828    0.3915 C   0  0  0  0  0  0  0  0  0  0  0  0
    1.0442   -1.4017    1.1885 C   0  0  0  0  0  0  0  0  0  0  0  0
    3.8039   -1.1637   -1.1609 O   0  0  0  0  0  0  0  0  0  0  0  0
    4.9410   -0.4272   -0.8900 C   0  0  0  0  0  0  0  0  0  0  0  0
    5.2596   -0.5001    0.5591 C   0  0  0  0  0  0  0  0  0  0  0  0
    6.4376    0.2356    0.9382 N   0  0  0  0  0  0  0  0  0  0  0  0
    7.6553   -0.2927    0.4493 C   0  0  0  0  0  0  0  0  0  0  0  0
    8.3476    0.5083   -0.6115 C   0  0  0  0  0  0  0  0  0  0  0  0
    8.4048    1.9815   -0.1978 C   0  0  0  0  0  0  0  0  0  0  0  0
    6.9490    2.4229   -0.1009 C   0  0  0  0  0  0  0  0  0  0  0  0
    6.2927    1.6391    0.9823 C   0  0  0  0  0  0  0  0  0  0  0  0
   -1.0427    1.7868   -1.1492 C   0  0  0  0  0  0  0  0  0  0  0  0
   -1.6090    3.0408   -1.6689 C   0  0  0  0  0  0  0  0  0  0  0  0
   -2.5630    3.0180   -2.7914 C   0  0  0  0  0  0  0  0  0  0  0  0
   -2.4731    4.2018   -3.5254 O   0  0  0  0  0  0  0  0  0  0  0  0
   -2.3004    1.8073   -3.6581 C   0  0  0  0  0  0  0  0  0  0  0  0
   -2.5678    0.6379   -2.7538 C   0  0  0  0  0  0  0  0  0  0  0  0
   -3.8989    1.0837   -1.5712 S   0  0  0  0  0  0  0  0  0  0  0  0
   -3.1643    0.2214   -0.0685 C   0  0  1  0  0  0  0  0  0  0  0  0
   -4.3243   -0.4296    0.5364 C   0  0  0  0  0  0  0  0  0  0  0  0
   -4.1772   -1.1833    1.8062 C   0  0  0  0  0  0  0  0  0  0  0  0
   -5.4607   -0.9361    2.6009 C   0  0  0  0  0  0  0  0  0  0  0  0
   -6.6594   -0.9514    1.6845 C   0  0  0  0  0  0  0  0  0  0  0  0
   -7.2465    0.3164    1.5542 O   0  0  0  0  0  0  0  0  0  0  0  0
   -6.4509   -1.6054    0.3720 C   0  0  0  0  0  0  0  0  0  0  0  0
   -5.1952   -1.2700   -0.3687 C   0  0  0  0  0  0  0  0  0  0  0  0
   -1.4418    0.4918   -1.7239 C   0  0  0  0  0  0  0  0  0  0  0  0
   -2.0912   -0.4824   -0.7364 C   0  0  1  0  0  0  0  0  0  0  0  0
   -1.1802   -1.4332   -0.1555 C   0  0  2  0  0  0  0  0  0  0  0  0
   -1.9118   -2.5673    0.3334 O   0  0  0  0  0  0  0  0  0  0  0  0
   -0.1436   -1.1354    0.8292 C   0  0  0  0  0  0  0  0  0  0  0  0
    0.9491   -0.1835    0.4602 C   0  0  0  0  0  0  0  0  0  0  0  0
    2.2970   -0.6101    1.0855 C   0  0  0  0  0  0  0  0  0  0  0  0
    2.8459   -1.8306    0.3895 C   0  0  0  0  0  0  0  0  0  0  0  0
    1.6329   -2.7320    0.1350 C   0  0  0  0  0  0  0  0  0  0  0  0
    0.5842   -2.4538    1.1840 C   0  0  0  0  0  0  0  0  0  0  0  0
    3.4920   -1.4508   -0.7585 O   0  0  0  0  0  0  0  0  0  0  0  0
    4.7937   -1.8678   -0.8533 C   0  0  0  0  0  0  0  0  0  0  0  0
    5.7006   -1.3722    0.2462 C   0  0  0  0  0  0  0  0  0  0  0  0
    5.8129    0.0245    0.3413 N   0  0  0  0  0  0  0  0  0  0  0  0
    6.4645    0.7321   -0.6818 C   0  0  0  0  0  0  0  0  0  0  0  0
    6.1169    2.1990   -0.7542 C   0  0  0  0  0  0  0  0  0  0  0  0
    6.3835    2.8136    0.5904 C   0  0  0  0  0  0  0  0  0  0  0  0
    5.5186    2.1072    1.6058 C   0  0  0  0  0  0  0  0  0  0  0  0
    5.7472    0.6191    1.6180 C   0  0  0  0  0  0  0  0  0  0  0  0
   -0.7757    2.4042    0.3726 H   0  0  0  0  0  0  0  0  0  0  0  0
   -0.8532    1.5774   -1.2680 H   0  0  0  0  0  0  0  0  0  0  0  0
   -1.3106    4.1492   -0.8677 H   0  0  0  0  0  0  0  0  0  0  0  0
   -2.1750    3.1930   -2.1111 H   0  0  0  0  0  0  0  0  0  0  0  0
   -3.3560    4.8103   -0.3833 H   0  0  0  0  0  0  0  0  0  0  0  0
   -4.1128    3.3553   -2.1326 H   0  0  0  0  0  0  0  0  0  0  0  0
   -4.6306    3.3247    1.2411 H   0  0  0  0  0  0  0  0  0  0  0  0
   -3.0000    3.9685    1.7380 H   0  0  0  0  0  0  0  0  0  0  0  0
   -2.2158    1.9109    2.0822 H   0  0  0  0  0  0  0  0  0  0  0  0
   -3.4122   -1.4215    1.7931 H   0  0  0  0  0  0  0  0  0  0  0  0
   -5.1037   -0.5525   -0.5645 H   0  0  0  0  0  0  0  0  0  0  0  0
   -6.0642   -1.1111    1.8417 H   0  0  0  0  0  0  0  0  0  0  0  0
   -5.7811   -2.8383    1.2432 H   0  0  0  0  0  0  0  0  0  0  0  0
   -7.9051   -2.4003    0.4904 H   0  0  0  0  0  0  0  0  0  0  0  0
   -7.5168   -0.6833    0.0001 H   0  0  0  0  0  0  0  0  0  0  0  0
   -7.5778   -2.8477   -1.7080 H   0  0  0  0  0  0  0  0  0  0  0  0
   -7.5029   -0.9068   -2.5046 H   0  0  0  0  0  0  0  0  0  0  0  0
   -5.8419   -4.0554   -0.7241 H   0  0  0  0  0  0  0  0  0  0  0  0
   -5.3499   -3.4988   -2.3322 H   0  0  0  0  0  0  0  0  0  0  0  0
   -3.6733   -2.2066   -1.5739 H   0  0  0  0  0  0  0  0  0  0  0  0
   -3.7982   -3.3136   -0.1312 H   0  0  0  0  0  0  0  0  0  0  0  0
   -3.4119    1.3959   -0.6857 H   0  0  0  0  0  0  0  0  0  0  0  0
   -2.5470   -0.7419   -0.7439 H   0  0  0  0  0  0  0  0  0  0  0  0
   -1.2302   -0.6193    2.0318 H   0  0  0  0  0  0  0  0  0  0  0  0
   -1.7556   -2.6059    1.7461 H   0  0  0  0  0  0  0  0  0  0  0  0
    0.3973    0.4428    0.4234 H   0  0  0  0  0  0  0  0  0  0  0  0
   -0.5159   -0.7394   -1.7854 H   0  0  0  0  0  0  0  0  0  0  0  0
    0.2064   -2.2082   -1.1166 H   0  0  0  0  0  0  0  0  0  0  0  0
    1.4912    0.5015   -1.8009 H   0  0  0  0  0  0  0  0  0  0  0  0
    1.8346   -1.1241   -2.4716 H   0  0  0  0  0  0  0  0  0  0  0  0
    2.7676    0.1470    0.1142 H   0  0  0  0  0  0  0  0  0  0  0  0
    3.0393   -2.1429    1.0750 H   0  0  0  0  0  0  0  0  0  0  0  0
    1.9779   -2.7382   -0.2609 H   0  0  0  0  0  0  0  0  0  0  0  0
    0.4779   -2.3044    1.5024 H   0  0  0  0  0  0  0  0  0  0  0  0
    1.3148   -0.8635    2.0964 H   0  0  0  0  0  0  0  0  0  0  0  0
    5.7633   -0.9182   -1.4786 H   0  0  0  0  0  0  0  0  0  0  0  0
    4.7494    0.6030   -1.2550 H   0  0  0  0  0  0  0  0  0  0  0  0
    5.4511   -1.5661    0.8138 H   0  0  0  0  0  0  0  0  0  0  0  0
    4.4199   -0.1746    1.1848 H   0  0  0  0  0  0  0  0  0  0  0  0
    8.3605   -0.4691    1.2997 H   0  0  0  0  0  0  0  0  0  0  0  0
    7.4547   -1.3029    0.0261 H   0  0  0  0  0  0  0  0  0  0  0  0
    9.4101    0.1687   -0.6570 H   0  0  0  0  0  0  0  0  0  0  0  0
    7.8799    0.3978   -1.6023 H   0  0  0  0  0  0  0  0  0  0  0  0
    8.9529    2.5335   -0.9629 H   0  0  0  0  0  0  0  0  0  0  0  0
    8.8297    2.0349    0.8138 H   0  0  0  0  0  0  0  0  0  0  0  0
    6.4628    2.3710   -1.0745 H   0  0  0  0  0  0  0  0  0  0  0  0
    6.9642    3.4902    0.2081 H   0  0  0  0  0  0  0  0  0  0  0  0
    6.7219    2.0042    1.9560 H   0  0  0  0  0  0  0  0  0  0  0  0
    5.2127    1.8884    1.0360 H   0  0  0  0  0  0  0  0  0  0  0  0
   -1.1313    1.8040   -0.0359 H   0  0  0  0  0  0  0  0  0  0  0  0
    0.0829    1.8649   -1.3133 H   0  0  0  0  0  0  0  0  0  0  0  0
   -2.1315    3.6076   -0.8273 H   0  0  0  0  0  0  0  0  0  0  0  0
   -0.7931    3.7825   -1.9503 H   0  0  0  0  0  0  0  0  0  0  0  0
   -3.6290    2.9691   -2.4279 H   0  0  0  0  0  0  0  0  0  0  0  0
   -3.3105    4.4826   -3.9306 H   0  0  0  0  0  0  0  0  0  0  0  0
   -1.2315    1.8643   -3.9733 H   0  0  0  0  0  0  0  0  0  0  0  0
   -2.9802    1.7477   -4.5311 H   0  0  0  0  0  0  0  0  0  0  0  0
   -2.7212   -0.3181   -3.2313 H   0  0  0  0  0  0  0  0  0  0  0  0
   -2.8841    1.0940    0.5596 H   0  0  0  0  0  0  0  0  0  0  0  0
   -5.0277    0.4508    0.8014 H   0  0  0  0  0  0  0  0  0  0  0  0
   -3.2923   -0.8322    2.3520 H   0  0  0  0  0  0  0  0  0  0  0  0
   -4.1507   -2.2913    1.5798 H   0  0  0  0  0  0  0  0  0  0  0  0
   -5.4929   -1.6646    3.4180 H   0  0  0  0  0  0  0  0  0  0  0  0
   -5.3749    0.0769    3.0306 H   0  0  0  0  0  0  0  0  0  0  0  0
   -7.4394   -1.5661    2.2285 H   0  0  0  0  0  0  0  0  0  0  0  0
   -7.8643    0.5199    2.2791 H   0  0  0  0  0  0  0  0  0  0  0  0
   -6.5964   -2.7194    0.4847 H   0  0  0  0  0  0  0  0  0  0  0  0
   -7.3080   -1.2870   -0.2909 H   0  0  0  0  0  0  0  0  0  0  0  0
   -5.3798   -0.7514   -1.3330 H   0  0  0  0  0  0  0  0  0  0  0  0
   -4.7069   -2.2419   -0.6458 H   0  0  0  0  0  0  0  0  0  0  0  0
   -0.6300   -0.0633   -2.2308 H   0  0  0  0  0  0  0  0  0  0  0  0
   -2.6941   -1.1583   -1.5221 H   0  0  0  0  0  0  0  0  0  0  0  0
   -0.6310   -1.9352   -1.0320 H   0  0  0  0  0  0  0  0  0  0  0  0
   -2.4077   -2.9317   -0.4274 H   0  0  0  0  0  0  0  0  0  0  0  0
   -0.5162   -0.7885    1.8238 H   0  0  0  0  0  0  0  0  0  0  0  0
    0.7348    0.8234    0.8910 H   0  0  0  0  0  0  0  0  0  0  0  0
    1.1284   -0.1665   -0.6112 H   0  0  0  0  0  0  0  0  0  0  0  0
    2.2190   -0.7773    2.1614 H   0  0  0  0  0  0  0  0  0  0  0  0
    2.9624    0.2605    0.9021 H   0  0  0  0  0  0  0  0  0  0  0  0
    3.5154   -2.4199    1.0571 H   0  0  0  0  0  0  0  0  0  0  0  0
    1.9219   -3.8037    0.1508 H   0  0  0  0  0  0  0  0  0  0  0  0
    1.2777   -2.4843   -0.8622 H   0  0  0  0  0  0  0  0  0  0  0  0
   -0.1833   -3.2678    1.0796 H   0  0  0  0  0  0  0  0  0  0  0  0
    0.9778   -2.4317    2.2046 H   0  0  0  0  0  0  0  0  0  0  0  0
    4.7720   -2.9957   -0.8108 H   0  0  0  0  0  0  0  0  0  0  0  0
    5.1938   -1.6079   -1.8391 H   0  0  0  0  0  0  0  0  0  0  0  0
    6.7260   -1.7799    0.0097 H   0  0  0  0  0  0  0  0  0  0  0  0
    5.4491   -1.8201    1.2225 H   0  0  0  0  0  0  0  0  0  0  0  0
    7.5714    0.6648   -0.5315 H   0  0  0  0  0  0  0  0  0  0  0  0
    6.2579    0.2845   -1.6620 H   0  0  0  0  0  0  0  0  0  0  0  0
    6.8206    2.6459   -1.5060 H   0  0  0  0  0  0  0  0  0  0  0  0
    5.0958    2.3920   -1.1283 H   0  0  0  0  0  0  0  0  0  0  0  0
    6.0093    3.8660    0.5394 H   0  0  0  0  0  0  0  0  0  0  0  0
    7.4411    2.7895    0.8305 H   0  0  0  0  0  0  0  0  0  0  0  0
    4.4641    2.3872    1.3931 H   0  0  0  0  0  0  0  0  0  0  0  0
    5.7733    2.5116    2.6081 H   0  0  0  0  0  0  0  0  0  0  0  0
    6.7291    0.4439    2.1480 H   0  0  0  0  0  0  0  0  0  0  0  0
    4.9473    0.1640    2.2388 H   0  0  0  0  0  0  0  0  0  0  0  0
  1  2  1  0
  2  3  1  0
  3  4  1  0
  3  5  1  0
  5  6  1  0
  6  7  1  0
  7  8  1  0
  8  9  1  0
  9 10  1  0
 10 11  1  0
 11 12  1  0
 12 13  1  0
 12 14  1  0
  9 15  1  0
 14 15  1  0
  1 16  1  0
  6 16  1  0
  8 17  1  0
 16 17  1  0
 17 18  1  0
 18 19  1  0
 18 20  1  0
 20 21  1  0
 21 22  1  0
 22 23  1  0
 23 24  1  0
 20 25  1  0
 24 25  1  0
 23 26  1  0
 26 27  1  0
 27 28  1  0
 28 29  1  0
 29 30  1  0
 30 31  1  0
 31 32  1  0
 32 33  1  0
 29 34  1  0
 33 34  1  0
 35 36  1  0
 36 37  1  0
 37 38  1  0
 37 39  1  0
 39 40  1  0
 40 41  1  0
 41 42  1  0
 42 43  1  0
 43 44  1  0
 44 45  1  0
 45 46  1  0
 46 47  1  0
 46 48  1  0
 43 49  1  0
 48 49  1  0
 35 50  1  0
 40 50  1  0
 42 51  1  0
 50 51  1  0
 51 52  1  0
 52 53  1  0
 52 54  1  0
 54 55  1  0
 55 56  1  0
 56 57  1  0
 57 58  1  0
 54 59  1  0
 58 59  1  0
 57 60  1  0
 60 61  1  0
 61 62  1  0
 62 63  1  0
 63 64  1  0
 64 65  1  0
 65 66  1  0
 66 67  1  0
 63 68  1  0
 67 68  1  0
  1 69  1  0
  1 70  1  0
  2 71  1  0
  2 72  1  0
  3 73  1  0
  4 74  1  0
  5 75  1  0
  5 76  1  0
  6 77  1  0
  8 78  1  1
  9 79  1  0
 10 80  1  0
 10 81  1  0
 11 82  1  0
 11 83  1  0
 12 84  1  0
 13 85  1  0
 14 86  1  0
 14 87  1  0
 15 88  1  0
 15 89  1  0
 16 90  1  0
 17 91  1  0
 18 92  1  0
 19 93  1  0
 20 94  1  0
 21 95  1  0
 21 96  1  0
 22 97  1  0
 22 98  1  0
 23 99  1  0
 24100  1  0
 24101  1  0
 25102  1  0
 25103  1  0
 27104  1  0
 27105  1  0
 28106  1  0
 28107  1  0
 30108  1  0
 30109  1  0
 31110  1  0
 31111  1  0
 32112  1  0
 32113  1  0
 33114  1  0
 33115  1  0
 34116  1  0
 34117  1  0
 35118  1  0
 35119  1  0
 36120  1  0
 36121  1  0
 37122  1  0
 38123  1  0
 39124  1  0
 39125  1  0
 40126  1  0
 42127  1  1
 43128  1  0
 44129  1  0
 44130  1  0
 45131  1  0
 45132  1  0
 46133  1  0
 47134  1  0
 48135  1  0
 48136  1  0
 49137  1  0
 49138  1  0
 50139  1  0
 51140  1  6
 52141  1  6
 53142  1  0
 54143  1  0
 55144  1  0
 55145  1  0
 56146  1  0
 56147  1  0
 57148  1  0
 58149  1  0
 58150  1  0
 59151  1  0
 59152  1  0
 61153  1  0
 61154  1  0
 62155  1  0
 62156  1  0
 64157  1  0
 64158  1  0
 65159  1  0
 65160  1  0
 66161  1  0
 66162  1  0
 67163  1  0
 67164  1  0
 68165  1  0
 68166  1  0
M  END
>  <PDBID>  (1) 
2QXS

>  <PDB ID>  (1) 
2QXS

>  <Generic Name>  (1) 
Raloxifene

>  <Brand Name>  (1) 
Act Raloxifene#Apo-raloxifene#Evista#Evista (60mg)#PMS-raloxifene#Raloxifene#Raloxifene Hydrochloride#Teva-raloxifene#Keoxifene

>  <DrugBank ID>  (1) 
DB00481

>  <ATC Codes>  (1) 
G03XC01

>  <Ligand ID>  (1) 
RAL

>  <Target Name>  (1) 
Estrogen receptor

>  <UniProt ID>  (1) 
P03372

>  <PDB ID.1>  (1) 
2QXS

>  <Seq. Identity>  (1) 
93%

$$$$
