PDB_DB09079_01
     RDKit          3D

 99103  0  0  0  0  0  0  0  0999 V2000
   -3.4395    0.8620   -0.4485 C   0  0  0  0  0  0  0  0  0  0  0  0
   -3.3505   -0.6572   -0.4548 C   0  0  0  0  0  0  0  0  0  0  0  0
   -2.2118    1.4574    0.0726 C   0  0  0  0  0  0  0  0  0  0  0  0
   -4.7756    1.0417    0.0673 C   0  0  0  0  0  0  0  0  0  0  0  0
   -4.6349   -0.8850   -1.2666 C   0  0  0  0  0  0  0  0  0  0  0  0
   -3.5416   -1.2754    0.8858 C   0  0  0  0  0  0  0  0  0  0  0  0
   -2.1443    2.9624    0.1818 C   0  0  0  0  0  0  0  0  0  0  0  0
   -4.9929   -2.3084   -1.3596 C   0  0  0  0  0  0  0  0  0  0  0  0
   -4.8211   -2.0176    1.1179 C   0  0  0  0  0  0  0  0  0  0  0  0
   -0.3711    0.3254    1.2981 C   0  0  0  0  0  0  0  0  0  0  0  0
   -5.2923   -2.8847   -0.0142 C   0  0  1  0  0  0  0  0  0  0  0  0
   -2.4748    4.9897   -1.3312 C   0  0  0  0  0  0  0  0  0  0  0  0
   -3.7436    4.8733    0.6814 C   0  0  0  0  0  0  0  0  0  0  0  0
    0.1064   -0.7219    0.3735 C   0  0  0  0  0  0  0  0  0  0  0  0
   -6.7952   -3.0351    0.1229 C   0  0  2  0  0  0  0  0  0  0  0  0
    1.5044   -1.1515    0.7809 C   0  0  0  0  0  0  0  0  0  0  0  0
    1.7869    1.3284    0.5336 C   0  0  0  0  0  0  0  0  0  0  0  0
   -7.3642   -3.8422   -0.8317 O   0  0  0  0  0  0  0  0  0  0  0  0
   -7.4568   -1.7967    0.0738 O   0  0  0  0  0  0  0  0  0  0  0  0
    2.4869   -0.0169    0.6669 C   0  0  0  0  0  0  0  0  0  0  0  0
    4.4862   -1.2493    0.2144 C   0  0  1  0  0  0  0  0  0  0  0  0
    4.2798    0.9575   -0.6198 C   0  0  0  0  0  0  0  0  0  0  0  0
    5.7364   -1.2648   -0.5745 C   0  0  0  0  0  0  0  0  0  0  0  0
    7.8142   -2.0821   -1.1965 C   0  0  0  0  0  0  0  0  0  0  0  0
    7.2869   -2.1424    1.0756 C   0  0  0  0  0  0  0  0  0  0  0  0
    9.1644   -2.3403   -0.6217 C   0  0  0  0  0  0  0  0  0  0  0  0
    8.2990   -1.0104    1.1638 C   0  0  0  0  0  0  0  0  0  0  0  0
    9.9825   -0.1880   -0.2809 C   0  0  0  0  0  0  0  0  0  0  0  0
    4.7001   -1.0082    1.5919 O   0  0  0  0  0  0  0  0  0  0  0  0
    6.7170   -2.2546   -0.2286 N   0  0  0  0  0  0  0  0  0  0  0  0
    9.4707   -1.3601    0.3818 N   0  0  0  0  0  0  0  0  0  0  0  0
    3.5766   -0.2044   -0.2132 N   0  0  0  0  0  0  0  0  0  0  0  0
    0.7064    1.3106    1.6125 C   0  0  0  0  0  0  0  0  0  0  0  0
   -1.6530    0.8496    1.2176 N   0  0  0  0  0  0  0  0  0  0  0  0
   -3.0874    3.6114    1.1211 C   0  0  0  0  0  0  0  0  0  0  0  0
   -2.6634    5.7004   -0.0044 C   0  0  0  0  0  0  0  0  0  0  0  0
   -2.1433    3.5608   -1.2211 C   0  0  0  0  0  0  0  0  0  0  0  0
   -8.1339   -4.8469   -0.2428 C   0  0  0  0  0  0  0  0  0  0  0  0
   -5.5497   -0.0586   -0.5556 N   0  0  0  0  0  0  0  0  0  0  0  0
   -5.4435    2.2070   -0.3723 O   0  0  0  0  0  0  0  0  0  0  0  0
   -3.5258    1.0847   -1.5763 H   0  0  0  0  0  0  0  0  0  0  0  0
   -2.4673   -1.0197   -1.0152 H   0  0  0  0  0  0  0  0  0  0  0  0
   -1.4315    1.2371   -0.7406 H   0  0  0  0  0  0  0  0  0  0  0  0
   -4.9710    0.9365    1.1234 H   0  0  0  0  0  0  0  0  0  0  0  0
   -4.4796   -0.4023   -2.2689 H   0  0  0  0  0  0  0  0  0  0  0  0
   -2.6886   -2.0022    1.0457 H   0  0  0  0  0  0  0  0  0  0  0  0
   -3.4594   -0.5611    1.7342 H   0  0  0  0  0  0  0  0  0  0  0  0
   -1.1292    3.1851    0.5283 H   0  0  0  0  0  0  0  0  0  0  0  0
   -4.1001   -2.8606   -1.7729 H   0  0  0  0  0  0  0  0  0  0  0  0
   -5.7918   -2.4680   -2.0950 H   0  0  0  0  0  0  0  0  0  0  0  0
   -5.6139   -1.3493    1.5065 H   0  0  0  0  0  0  0  0  0  0  0  0
   -4.6063   -2.7286    1.9730 H   0  0  0  0  0  0  0  0  0  0  0  0
   -0.4248   -0.2880    2.3235 H   0  0  0  0  0  0  0  0  0  0  0  0
   -4.8722   -3.9070    0.0714 H   0  0  0  0  0  0  0  0  0  0  0  0
   -3.4716    5.0970   -1.8524 H   0  0  0  0  0  0  0  0  0  0  0  0
   -1.7715    5.5879   -1.9346 H   0  0  0  0  0  0  0  0  0  0  0  0
   -4.5902    4.7757   -0.0071 H   0  0  0  0  0  0  0  0  0  0  0  0
   -4.0906    5.4522    1.5510 H   0  0  0  0  0  0  0  0  0  0  0  0
    0.2217   -0.3575   -0.6911 H   0  0  0  0  0  0  0  0  0  0  0  0
   -0.4735   -1.6811    0.3859 H   0  0  0  0  0  0  0  0  0  0  0  0
   -7.0687   -3.4329    1.1440 H   0  0  0  0  0  0  0  0  0  0  0  0
    1.8306   -1.9012   -0.0054 H   0  0  0  0  0  0  0  0  0  0  0  0
    1.5148   -1.6594    1.7702 H   0  0  0  0  0  0  0  0  0  0  0  0
    1.4265    1.5634   -0.4590 H   0  0  0  0  0  0  0  0  0  0  0  0
    2.5215    2.0997    0.8404 H   0  0  0  0  0  0  0  0  0  0  0  0
   -8.0598   -1.7153   -0.6922 H   0  0  0  0  0  0  0  0  0  0  0  0
    2.9646    0.0540    1.7151 H   0  0  0  0  0  0  0  0  0  0  0  0
    3.9090   -2.2001    0.1457 H   0  0  0  0  0  0  0  0  0  0  0  0
    3.5770    1.7933   -0.8758 H   0  0  0  0  0  0  0  0  0  0  0  0
    4.7798    0.7357   -1.6100 H   0  0  0  0  0  0  0  0  0  0  0  0
    5.0700    1.2987    0.0621 H   0  0  0  0  0  0  0  0  0  0  0  0
    5.4639   -1.4537   -1.6407 H   0  0  0  0  0  0  0  0  0  0  0  0
    6.1900   -0.2361   -0.5495 H   0  0  0  0  0  0  0  0  0  0  0  0
    7.7921   -1.0256   -1.5646 H   0  0  0  0  0  0  0  0  0  0  0  0
    7.5740   -2.7456   -2.0566 H   0  0  0  0  0  0  0  0  0  0  0  0
    7.9133   -3.0797    1.2268 H   0  0  0  0  0  0  0  0  0  0  0  0
    6.6038   -2.1376    1.9201 H   0  0  0  0  0  0  0  0  0  0  0  0
    9.8906   -2.2448   -1.4751 H   0  0  0  0  0  0  0  0  0  0  0  0
    9.2116   -3.3952   -0.2682 H   0  0  0  0  0  0  0  0  0  0  0  0
    7.8864   -0.0530    0.8442 H   0  0  0  0  0  0  0  0  0  0  0  0
    8.6132   -0.9533    2.2127 H   0  0  0  0  0  0  0  0  0  0  0  0
    9.0967    0.3546   -0.7115 H   0  0  0  0  0  0  0  0  0  0  0  0
   10.4339    0.5325    0.4357 H   0  0  0  0  0  0  0  0  0  0  0  0
   10.6678   -0.4327   -1.1187 H   0  0  0  0  0  0  0  0  0  0  0  0
    5.2112   -0.1487    1.6732 H   0  0  0  0  0  0  0  0  0  0  0  0
    0.4283    2.3286    1.8474 H   0  0  0  0  0  0  0  0  0  0  0  0
    1.3063    0.9805    2.5383 H   0  0  0  0  0  0  0  0  0  0  0  0
   -1.9403    1.2570    2.1270 H   0  0  0  0  0  0  0  0  0  0  0  0
   -3.8428    2.9631    1.6006 H   0  0  0  0  0  0  0  0  0  0  0  0
   -2.5146    3.9615    2.0667 H   0  0  0  0  0  0  0  0  0  0  0  0
   -3.0966    6.6904   -0.2140 H   0  0  0  0  0  0  0  0  0  0  0  0
   -1.7586    5.7259    0.5967 H   0  0  0  0  0  0  0  0  0  0  0  0
   -2.8772    2.9592   -1.7984 H   0  0  0  0  0  0  0  0  0  0  0  0
   -1.1754    3.3920   -1.7418 H   0  0  0  0  0  0  0  0  0  0  0  0
   -8.9654   -4.4020    0.3673 H   0  0  0  0  0  0  0  0  0  0  0  0
   -8.6474   -5.4664   -1.0159 H   0  0  0  0  0  0  0  0  0  0  0  0
   -7.5810   -5.5218    0.4161 H   0  0  0  0  0  0  0  0  0  0  0  0
   -6.3227    0.3210   -1.1487 H   0  0  0  0  0  0  0  0  0  0  0  0
   -6.3100    2.0283   -0.7817 H   0  0  0  0  0  0  0  0  0  0  0  0
  1  2  1  0
  1  3  1  0
  1  4  1  0
  2  5  1  0
  2  6  1  0
  3  7  1  0
  5  8  1  0
  6  9  1  0
  8 11  1  0
  9 11  1  0
 10 14  1  0
 11 15  1  0
 14 16  1  0
 15 18  1  0
 15 19  1  0
 16 20  1  0
 17 20  1  0
 21 23  1  0
 24 26  1  0
 25 27  1  0
 21 29  1  0
 23 30  1  0
 24 30  1  0
 25 30  1  0
 26 31  1  0
 27 31  1  0
 28 31  1  0
 20 32  1  0
 21 32  1  0
 22 32  1  0
 10 33  1  0
 17 33  1  0
  3 34  1  0
 10 34  1  0
  7 35  1  0
 13 35  1  0
 12 36  1  0
 13 36  1  0
  7 37  1  0
 12 37  1  0
 18 38  1  0
  4 39  1  0
  5 39  1  0
  4 40  1  0
  1 41  1  0
  2 42  1  0
  3 43  1  0
  4 44  1  0
  5 45  1  0
  6 46  1  0
  6 47  1  0
  7 48  1  0
  8 49  1  0
  8 50  1  0
  9 51  1  0
  9 52  1  0
 10 53  1  0
 11 54  1  6
 12 55  1  0
 12 56  1  0
 13 57  1  0
 13 58  1  0
 14 59  1  0
 14 60  1  0
 15 61  1  1
 16 62  1  0
 16 63  1  0
 17 64  1  0
 17 65  1  0
 19 66  1  0
 20 67  1  0
 21 68  1  1
 22 69  1  0
 22 70  1  0
 22 71  1  0
 23 72  1  0
 23 73  1  0
 24 74  1  0
 24 75  1  0
 25 76  1  0
 25 77  1  0
 26 78  1  0
 26 79  1  0
 27 80  1  0
 27 81  1  0
 28 82  1  0
 28 83  1  0
 28 84  1  0
 29 85  1  0
 33 86  1  0
 33 87  1  0
 34 88  1  0
 35 89  1  0
 35 90  1  0
 36 91  1  0
 36 92  1  0
 37 93  1  0
 37 94  1  0
 38 95  1  0
 38 96  1  0
 38 97  1  0
 39 98  1  0
 40 99  1  0
M  END
>  <PDBID>  (1) 
3C7Q

>  <PDB ID>  (1) 
3C7Q

>  <Generic Name>  (1) 
Nintedanib

>  <Brand Name>  (1) 
Ofev#Vargatef

>  <DrugBank ID>  (1) 
DB09079

>  <ATC Codes>  (1) 
L01XE31

>  <Ligand ID>  (1) 
XIN

>  <Target Name>  (1) 
Vascular endothelial growth factor receptor 3

>  <UniProt ID>  (1) 
P35916

>  <PDB ID.1>  (1) 
3C7Q

>  <Seq. Identity>  (1) 
67%

$$$$
