PDB_DB00428_09
     RDKit          3D

 37 37  0  0  0  0  0  0  0  0999 V2000
   -0.2189    0.5995    2.0725 O   0  0  0  0  0  0  0  0  0  0  0  0
    0.6680    0.7350    1.0328 C   0  0  1  0  0  0  0  0  0  0  0  0
    1.9211   -0.1357    1.2621 C   0  0  2  0  0  0  0  0  0  0  0  0
    2.4037    0.0264    2.5480 O   0  0  0  0  0  0  0  0  0  0  0  0
    2.9321    0.3403    0.2526 C   0  0  1  0  0  0  0  0  0  0  0  0
    4.1711   -0.5085    0.1648 C   0  0  0  0  0  0  0  0  0  0  0  0
    3.9754   -1.7257   -0.4768 O   0  0  0  0  0  0  0  0  0  0  0  0
    2.3830    0.6336   -0.9791 O   0  0  0  0  0  0  0  0  0  0  0  0
    1.2373   -0.0947   -1.2463 C   0  0  1  0  0  0  0  0  0  0  0  0
    1.4526   -1.4599   -1.3681 O   0  0  0  0  0  0  0  0  0  0  0  0
    0.1053    0.2211   -0.2646 C   0  0  2  0  0  0  0  0  0  0  0  0
   -0.8611    1.0984   -0.8824 N   0  0  0  0  0  0  0  0  0  0  0  0
   -1.9490    0.3237   -1.4562 C   0  0  0  0  0  0  0  0  0  0  0  0
   -2.5037    1.1764   -2.4478 O   0  0  0  0  0  0  0  0  0  0  0  0
   -3.0110    0.0092   -0.5811 N   0  0  0  0  0  0  0  0  0  0  0  0
   -3.6992    1.1138   -0.0160 C   0  0  0  0  0  0  0  0  0  0  0  0
   -2.9427   -1.0808    0.2143 N   0  0  0  0  0  0  0  0  0  0  0  0
   -4.2378   -1.4251    0.5332 O   0  0  0  0  0  0  0  0  0  0  0  0
   -1.0906    1.0204    1.8958 H   0  0  0  0  0  0  0  0  0  0  0  0
    1.0150    1.8054    0.9233 H   0  0  0  0  0  0  0  0  0  0  0  0
    1.6015   -1.1866    1.0882 H   0  0  0  0  0  0  0  0  0  0  0  0
    2.0505    0.7968    3.0239 H   0  0  0  0  0  0  0  0  0  0  0  0
    3.2941    1.3377    0.6553 H   0  0  0  0  0  0  0  0  0  0  0  0
    4.9384    0.0501   -0.3758 H   0  0  0  0  0  0  0  0  0  0  0  0
    4.5089   -0.7203    1.2041 H   0  0  0  0  0  0  0  0  0  0  0  0
    4.8529   -1.9833   -0.8531 H   0  0  0  0  0  0  0  0  0  0  0  0
    0.8830    0.2421   -2.2403 H   0  0  0  0  0  0  0  0  0  0  0  0
    0.6327   -1.9069   -1.0468 H   0  0  0  0  0  0  0  0  0  0  0  0
   -0.3777   -0.7538   -0.0457 H   0  0  0  0  0  0  0  0  0  0  0  0
   -1.2190    1.8276   -0.2263 H   0  0  0  0  0  0  0  0  0  0  0  0
   -1.5392   -0.5492   -1.9437 H   0  0  0  0  0  0  0  0  0  0  0  0
   -2.6634    0.6036   -3.2579 H   0  0  0  0  0  0  0  0  0  0  0  0
   -4.7397    0.7602    0.2184 H   0  0  0  0  0  0  0  0  0  0  0  0
   -3.2269    1.5064    0.8983 H   0  0  0  0  0  0  0  0  0  0  0  0
   -3.7538    1.9343   -0.7738 H   0  0  0  0  0  0  0  0  0  0  0  0
   -2.4806   -0.9240    1.1356 H   0  0  0  0  0  0  0  0  0  0  0  0
   -4.5122   -0.9551    1.3590 H   0  0  0  0  0  0  0  0  0  0  0  0
  1  2  1  0
  2  3  1  0
  3  4  1  0
  3  5  1  0
  5  6  1  0
  6  7  1  0
  5  8  1  0
  8  9  1  0
  9 10  1  0
  2 11  1  0
  9 11  1  0
 11 12  1  0
 12 13  1  0
 13 14  1  0
 13 15  1  0
 15 16  1  0
 15 17  1  0
 17 18  1  0
  1 19  1  0
  2 20  1  6
  3 21  1  6
  4 22  1  0
  5 23  1  1
  6 24  1  0
  6 25  1  0
  7 26  1  0
  9 27  1  6
 10 28  1  0
 11 29  1  1
 12 30  1  0
 13 31  1  0
 14 32  1  0
 16 33  1  0
 16 34  1  0
 16 35  1  0
 17 36  1  0
 18 37  1  0
M  END
>  <PDBID>  (1) 
2W4X

>  <PDB ID>  (1) 
2W4X

>  <Generic Name>  (1) 
Streptozocin

>  <Brand Name>  (1) 
Zanosar#Zanosar Sterile Powder

>  <DrugBank ID>  (1) 
DB00428

>  <ATC Codes>  (1) 
L01AD04

>  <Ligand ID>  (1) 
STZ

>  <Target Name>  (1) 
O-GlcNAcase BT_4395

>  <UniProt ID>  (1) 
Q89ZI2

>  <PDB ID.1>  (1) 
2W4X

>  <Seq. Identity>  (1) 
100%

$$$$
