PDB_DB08901_03
     RDKit          3D

184192  0  0  0  0  0  0  0  0999 V2000
    6.7931    2.2499   -1.0934 N   0  0  0  0  0  0  0  0  0  0  0  0
   -6.6926    1.6011   -0.1870 N   0  0  0  0  0  0  0  0  0  0  0  0
    4.5484    0.1665   -0.5709 C   0  0  0  0  0  0  0  0  0  0  0  0
    3.2820   -0.6967   -0.6045 C   0  0  0  0  0  0  0  0  0  0  0  0
    3.3717   -1.8962    0.2911 C   0  0  0  0  0  0  0  0  0  0  0  0
    2.1825   -2.7597    0.0502 C   0  0  0  0  0  0  0  0  0  0  0  0
    1.0551   -2.1534   -0.6915 C   0  0  0  0  0  0  0  0  0  0  0  0
    2.0788    0.0907   -0.1441 C   0  0  0  0  0  0  0  0  0  0  0  0
   -2.2000   -0.6081   -0.7494 C   0  0  0  0  0  0  0  0  0  0  0  0
   -3.1529    0.9244    0.8044 C   0  0  0  0  0  0  0  0  0  0  0  0
   -4.6890   -0.7896   -0.2185 C   0  0  0  0  0  0  0  0  0  0  0  0
   -5.3549    1.6350    0.1220 C   0  0  0  0  0  0  0  0  0  0  0  0
   -7.2777    1.0540   -1.3185 C   0  0  0  0  0  0  0  0  0  0  0  0
   -8.2221   -0.0686   -1.0431 C   0  0  0  0  0  0  0  0  0  0  0  0
   -7.6075    1.9680    0.8676 C   0  0  0  0  0  0  0  0  0  0  0  0
    8.6245    0.6041   -1.2977 C   0  0  0  0  0  0  0  0  0  0  0  0
    9.4292   -0.2618   -0.3125 C   0  0  0  0  0  0  0  0  0  0  0  0
    9.3824    0.3325    1.0805 C   0  0  0  0  0  0  0  0  0  0  0  0
    8.0419    0.4889    1.5908 N   0  0  0  0  0  0  0  0  0  0  0  0
    7.1915    0.7993    0.5652 N   0  0  0  0  0  0  0  0  0  0  0  0
    7.9118    1.6029   -0.4142 C   0  0  0  0  0  0  0  0  0  0  0  0
    6.0946    2.7523    0.1001 C   0  0  0  0  0  0  0  0  0  0  0  0
    6.0236    1.5432    0.9462 C   0  0  0  0  0  0  0  0  0  0  0  0
    4.8246    0.6825    0.7870 C   0  0  0  0  0  0  0  0  0  0  0  0
    0.8420   -0.6891   -0.5409 C   0  0  0  0  0  0  0  0  0  0  0  0
    4.6457   -2.6579   -0.0035 C   0  0  0  0  0  0  0  0  0  0  0  0
   -0.1645   -0.4802    0.5734 C   0  0  0  0  0  0  0  0  0  0  0  0
    0.3781   -1.0453    1.7618 O   0  0  0  0  0  0  0  0  0  0  0  0
   -1.4314   -1.0712    0.3785 N   0  0  0  0  0  0  0  0  0  0  0  0
   -2.4702    0.8704   -0.5421 C   0  0  0  0  0  0  0  0  0  0  0  0
   -4.5800    0.4323    0.5552 C   0  0  0  0  0  0  0  0  0  0  0  0
   -3.4753   -1.3941   -0.8481 C   0  0  0  0  0  0  0  0  0  0  0  0
   -5.3239   -1.8661    0.7033 C   0  0  0  0  0  0  0  0  0  0  0  0
   -5.4793   -3.0575    0.0742 F   0  0  0  0  0  0  0  0  0  0  0  0
   -6.4872   -1.4607    1.2589 F   0  0  0  0  0  0  0  0  0  0  0  0
   -4.4312   -2.0944    1.7620 F   0  0  0  0  0  0  0  0  0  0  0  0
   -8.6754    0.9658    1.1195 C   0  0  0  0  0  0  0  0  0  0  0  0
  -10.4637   -0.0132   -0.1523 C   0  0  0  0  0  0  0  0  0  0  0  0
   -9.0476    0.1012    0.0833 N   0  0  0  0  0  0  0  0  0  0  0  0
    7.3021    0.6553   -0.1908 N   0  0  0  0  0  0  0  0  0  0  0  0
   -6.3975    1.4740   -0.2486 N   0  0  0  0  0  0  0  0  0  0  0  0
    4.5517   -0.4139   -0.5131 C   0  0  0  0  0  0  0  0  0  0  0  0
    3.3551   -0.9086   -1.2391 C   0  0  0  0  0  0  0  0  0  0  0  0
    3.2928   -2.4016   -1.4388 C   0  0  0  0  0  0  0  0  0  0  0  0
    2.2420   -2.6211   -2.5065 C   0  0  0  0  0  0  0  0  0  0  0  0
    0.9191   -2.1770   -2.0209 C   0  0  0  0  0  0  0  0  0  0  0  0
    2.1027   -0.5354   -0.4905 C   0  0  0  0  0  0  0  0  0  0  0  0
   -2.1607   -1.1266   -1.3281 C   0  0  0  0  0  0  0  0  0  0  0  0
   -3.9985   -0.3767    0.0886 C   0  0  0  0  0  0  0  0  0  0  0  0
   -4.5008   -1.1219   -2.1729 C   0  0  0  0  0  0  0  0  0  0  0  0
   -5.7784    0.7641   -1.2863 C   0  0  0  0  0  0  0  0  0  0  0  0
   -7.5543    0.9444    0.3622 C   0  0  0  0  0  0  0  0  0  0  0  0
   -8.2563    2.0363    1.1411 C   0  0  0  0  0  0  0  0  0  0  0  0
   -5.6814    2.4565    0.4641 C   0  0  0  0  0  0  0  0  0  0  0  0
    8.0634    2.0825    1.6381 C   0  0  0  0  0  0  0  0  0  0  0  0
    7.6385    2.8121    2.8710 C   0  0  0  0  0  0  0  0  0  0  0  0
    6.1458    2.9513    2.8694 C   0  0  0  0  0  0  0  0  0  0  0  0
    5.5556    1.6397    2.6995 N   0  0  0  0  0  0  0  0  0  0  0  0
    5.8124    1.0864    1.4616 N   0  0  0  0  0  0  0  0  0  0  0  0
    6.9013    1.6699    0.7610 C   0  0  0  0  0  0  0  0  0  0  0  0
    7.1871   -0.5626    0.5568 C   0  0  0  0  0  0  0  0  0  0  0  0
    6.0005   -0.3265    1.4661 C   0  0  0  0  0  0  0  0  0  0  0  0
    4.7292   -0.9432    0.8787 C   0  0  0  0  0  0  0  0  0  0  0  0
    0.8501   -0.9933   -1.1443 C   0  0  0  0  0  0  0  0  0  0  0  0
    4.6133   -2.9723   -1.9033 C   0  0  0  0  0  0  0  0  0  0  0  0
   -0.1390   -1.3223   -0.0033 C   0  0  1  0  0  0  0  0  0  0  0  0
   -0.2371   -0.2694    0.8593 O   0  0  0  0  0  0  0  0  0  0  0  0
   -1.3384   -1.8758   -0.4820 N   0  0  0  0  0  0  0  0  0  0  0  0
   -2.7553    0.0784   -0.6585 C   0  0  0  0  0  0  0  0  0  0  0  0
   -5.1095   -0.5314   -0.9232 C   0  0  0  0  0  0  0  0  0  0  0  0
   -3.3031   -2.0125   -1.8131 C   0  0  0  0  0  0  0  0  0  0  0  0
   -5.4817   -1.9901   -2.9320 C   0  0  0  0  0  0  0  0  0  0  0  0
   -4.8056   -2.4705   -4.0537 F   0  0  0  0  0  0  0  0  0  0  0  0
   -6.5551   -1.2750   -3.4050 F   0  0  0  0  0  0  0  0  0  0  0  0
   -5.9203   -3.0346   -2.1725 F   0  0  0  0  0  0  0  0  0  0  0  0
   -6.0122    2.4528    1.9570 C   0  0  0  0  0  0  0  0  0  0  0  0
   -7.8153    2.4134    3.4676 C   0  0  0  0  0  0  0  0  0  0  0  0
   -7.4147    2.6872    2.0963 N   0  0  0  0  0  0  0  0  0  0  0  0
    7.1875    3.0816   -1.6048 H   0  0  0  0  0  0  0  0  0  0  0  0
    4.4247    0.9145   -1.3560 H   0  0  0  0  0  0  0  0  0  0  0  0
    5.3554   -0.5179   -0.9141 H   0  0  0  0  0  0  0  0  0  0  0  0
    3.1123   -1.0242   -1.6302 H   0  0  0  0  0  0  0  0  0  0  0  0
    3.4154   -1.5618    1.3541 H   0  0  0  0  0  0  0  0  0  0  0  0
    1.7794   -3.0712    1.0603 H   0  0  0  0  0  0  0  0  0  0  0  0
    2.5235   -3.7305   -0.3959 H   0  0  0  0  0  0  0  0  0  0  0  0
    0.0988   -2.7244   -0.4992 H   0  0  0  0  0  0  0  0  0  0  0  0
    1.2389   -2.3405   -1.7917 H   0  0  0  0  0  0  0  0  0  0  0  0
    2.0232    1.0738   -0.6537 H   0  0  0  0  0  0  0  0  0  0  0  0
    2.0434    0.1925    0.9574 H   0  0  0  0  0  0  0  0  0  0  0  0
   -1.5791   -0.6992   -1.6571 H   0  0  0  0  0  0  0  0  0  0  0  0
   -3.2116    1.9393    1.1952 H   0  0  0  0  0  0  0  0  0  0  0  0
   -2.6774    0.2226    1.5069 H   0  0  0  0  0  0  0  0  0  0  0  0
   -5.4338   -0.6868   -1.0235 H   0  0  0  0  0  0  0  0  0  0  0  0
   -5.2052    2.4810    0.8899 H   0  0  0  0  0  0  0  0  0  0  0  0
   -4.8135    2.1129   -0.7790 H   0  0  0  0  0  0  0  0  0  0  0  0
   -6.5859    0.8589   -2.1317 H   0  0  0  0  0  0  0  0  0  0  0  0
   -7.9445    1.8934   -1.7716 H   0  0  0  0  0  0  0  0  0  0  0  0
   -8.9181   -0.0986   -1.9467 H   0  0  0  0  0  0  0  0  0  0  0  0
   -7.7571   -1.0720   -1.0584 H   0  0  0  0  0  0  0  0  0  0  0  0
   -8.0128    2.9696    0.6141 H   0  0  0  0  0  0  0  0  0  0  0  0
   -7.0092    2.0936    1.7944 H   0  0  0  0  0  0  0  0  0  0  0  0
    9.2648    1.0628   -2.0554 H   0  0  0  0  0  0  0  0  0  0  0  0
    7.8421   -0.0730   -1.7162 H   0  0  0  0  0  0  0  0  0  0  0  0
   10.5112   -0.2041   -0.6198 H   0  0  0  0  0  0  0  0  0  0  0  0
    9.0556   -1.2901   -0.2639 H   0  0  0  0  0  0  0  0  0  0  0  0
    9.8870   -0.4015    1.7430 H   0  0  0  0  0  0  0  0  0  0  0  0
    9.9497    1.2857    1.1565 H   0  0  0  0  0  0  0  0  0  0  0  0
    7.7343   -0.3264    2.1676 H   0  0  0  0  0  0  0  0  0  0  0  0
    8.5866    2.3211    0.0529 H   0  0  0  0  0  0  0  0  0  0  0  0
    5.1862    3.2759   -0.1175 H   0  0  0  0  0  0  0  0  0  0  0  0
    6.8056    3.4704    0.5687 H   0  0  0  0  0  0  0  0  0  0  0  0
    6.1615    1.8435    2.0058 H   0  0  0  0  0  0  0  0  0  0  0  0
    3.9303    1.2755    1.1225 H   0  0  0  0  0  0  0  0  0  0  0  0
    4.8722   -0.1681    1.4989 H   0  0  0  0  0  0  0  0  0  0  0  0
    0.3655   -0.2324   -1.4492 H   0  0  0  0  0  0  0  0  0  0  0  0
    5.4659   -2.3489    0.6663 H   0  0  0  0  0  0  0  0  0  0  0  0
    4.4548   -3.7332    0.1919 H   0  0  0  0  0  0  0  0  0  0  0  0
    4.8870   -2.4965   -1.0714 H   0  0  0  0  0  0  0  0  0  0  0  0
   -0.2747    0.6144    0.7637 H   0  0  0  0  0  0  0  0  0  0  0  0
    0.4382   -0.3607    2.4786 H   0  0  0  0  0  0  0  0  0  0  0  0
   -1.5130   -2.0764    0.5677 H   0  0  0  0  0  0  0  0  0  0  0  0
   -3.1603    1.1532   -1.3743 H   0  0  0  0  0  0  0  0  0  0  0  0
   -1.5274    1.4102   -0.5769 H   0  0  0  0  0  0  0  0  0  0  0  0
   -4.9466    0.2597    1.6371 H   0  0  0  0  0  0  0  0  0  0  0  0
   -3.6279   -1.6203   -1.9254 H   0  0  0  0  0  0  0  0  0  0  0  0
   -3.2776   -2.3778   -0.3751 H   0  0  0  0  0  0  0  0  0  0  0  0
   -9.5948    1.5513    1.4267 H   0  0  0  0  0  0  0  0  0  0  0  0
   -8.4610    0.3431    2.0388 H   0  0  0  0  0  0  0  0  0  0  0  0
  -11.0620    0.6337    0.5188 H   0  0  0  0  0  0  0  0  0  0  0  0
  -10.7540   -1.0632    0.0575 H   0  0  0  0  0  0  0  0  0  0  0  0
  -10.7289    0.1642   -1.2263 H   0  0  0  0  0  0  0  0  0  0  0  0
    8.2311    0.8139   -0.6005 H   0  0  0  0  0  0  0  0  0  0  0  0
    5.4671   -0.5416   -1.1367 H   0  0  0  0  0  0  0  0  0  0  0  0
    4.4355    0.6950   -0.4111 H   0  0  0  0  0  0  0  0  0  0  0  0
    3.3484   -0.4467   -2.2487 H   0  0  0  0  0  0  0  0  0  0  0  0
    2.9148   -2.9169   -0.5217 H   0  0  0  0  0  0  0  0  0  0  0  0
    2.2072   -3.7383   -2.6642 H   0  0  0  0  0  0  0  0  0  0  0  0
    2.5906   -2.1338   -3.4385 H   0  0  0  0  0  0  0  0  0  0  0  0
    0.2934   -1.9649   -2.9422 H   0  0  0  0  0  0  0  0  0  0  0  0
    0.3861   -3.0610   -1.5668 H   0  0  0  0  0  0  0  0  0  0  0  0
    2.0875    0.5834   -0.4281 H   0  0  0  0  0  0  0  0  0  0  0  0
    2.1766   -0.8950    0.5551 H   0  0  0  0  0  0  0  0  0  0  0  0
   -1.6046   -0.7212   -2.2206 H   0  0  0  0  0  0  0  0  0  0  0  0
   -4.2531    0.2323    0.9541 H   0  0  0  0  0  0  0  0  0  0  0  0
   -3.7974   -1.4204    0.4796 H   0  0  0  0  0  0  0  0  0  0  0  0
   -4.1267   -0.3461   -2.8699 H   0  0  0  0  0  0  0  0  0  0  0  0
   -5.0054    1.4263   -1.7478 H   0  0  0  0  0  0  0  0  0  0  0  0
   -6.5229    0.6184   -2.1152 H   0  0  0  0  0  0  0  0  0  0  0  0
   -7.3813    0.1057    1.0570 H   0  0  0  0  0  0  0  0  0  0  0  0
   -8.2585    0.6052   -0.4195 H   0  0  0  0  0  0  0  0  0  0  0  0
   -8.7887    2.7327    0.4532 H   0  0  0  0  0  0  0  0  0  0  0  0
   -9.0762    1.5238    1.7255 H   0  0  0  0  0  0  0  0  0  0  0  0
   -6.0511    3.4632    0.1052 H   0  0  0  0  0  0  0  0  0  0  0  0
   -4.5930    2.4971    0.3025 H   0  0  0  0  0  0  0  0  0  0  0  0
    8.7048    2.7475    0.9859 H   0  0  0  0  0  0  0  0  0  0  0  0
    8.7189    1.2555    1.9329 H   0  0  0  0  0  0  0  0  0  0  0  0
    7.9186    2.2500    3.7957 H   0  0  0  0  0  0  0  0  0  0  0  0
    8.0897    3.8267    2.8613 H   0  0  0  0  0  0  0  0  0  0  0  0
    5.8277    3.3115    3.8718 H   0  0  0  0  0  0  0  0  0  0  0  0
    5.7720    3.5865    2.0420 H   0  0  0  0  0  0  0  0  0  0  0  0
    5.7247    0.9907    3.4734 H   0  0  0  0  0  0  0  0  0  0  0  0
    6.5536    2.5693    0.2004 H   0  0  0  0  0  0  0  0  0  0  0  0
    8.1016   -0.8152    1.1345 H   0  0  0  0  0  0  0  0  0  0  0  0
    6.9839   -1.4448   -0.0944 H   0  0  0  0  0  0  0  0  0  0  0  0
    6.1945   -0.7165    2.4735 H   0  0  0  0  0  0  0  0  0  0  0  0
    3.9136   -0.5943    1.5345 H   0  0  0  0  0  0  0  0  0  0  0  0
    4.8241   -2.0258    0.9499 H   0  0  0  0  0  0  0  0  0  0  0  0
    0.3450   -0.1242   -1.6664 H   0  0  0  0  0  0  0  0  0  0  0  0
    5.1758   -2.1638   -2.3898 H   0  0  0  0  0  0  0  0  0  0  0  0
    4.4471   -3.7797   -2.6491 H   0  0  0  0  0  0  0  0  0  0  0  0
    5.2422   -3.3462   -1.0801 H   0  0  0  0  0  0  0  0  0  0  0  0
    0.4189   -2.1425    0.5585 H   0  0  0  0  0  0  0  0  0  0  0  0
    0.2634   -0.3967    1.7004 H   0  0  0  0  0  0  0  0  0  0  0  0
   -1.3514   -2.8936   -0.5266 H   0  0  0  0  0  0  0  0  0  0  0  0
   -3.1195    0.8185   -1.4193 H   0  0  0  0  0  0  0  0  0  0  0  0
   -2.0944    0.5541    0.0645 H   0  0  0  0  0  0  0  0  0  0  0  0
   -5.8182   -1.2656   -0.4835 H   0  0  0  0  0  0  0  0  0  0  0  0
   -3.0302   -2.5410   -2.7377 H   0  0  0  0  0  0  0  0  0  0  0  0
   -3.6163   -2.7417   -1.0584 H   0  0  0  0  0  0  0  0  0  0  0  0
   -5.4895    3.3552    2.3757 H   0  0  0  0  0  0  0  0  0  0  0  0
   -5.6510    1.5473    2.4561 H   0  0  0  0  0  0  0  0  0  0  0  0
   -8.3546    1.4486    3.5531 H   0  0  0  0  0  0  0  0  0  0  0  0
   -6.9289    2.4375    4.1374 H   0  0  0  0  0  0  0  0  0  0  0  0
   -8.4932    3.2391    3.7845 H   0  0  0  0  0  0  0  0  0  0  0  0
  3  4  1  0
  4  5  1  0
  5  6  1  0
  6  7  1  0
  4  8  1  0
  2 12  1  0
  2 13  1  0
 13 14  1  0
  2 15  1  0
 16 17  1  0
 17 18  1  0
 18 19  1  0
 19 20  1  0
  1 21  1  0
 16 21  1  0
 20 21  1  0
  1 22  1  0
 20 23  1  0
 22 23  1  0
  3 24  1  0
 23 24  1  0
  7 25  1  0
  8 25  1  0
  5 26  1  0
 25 27  1  0
 27 28  1  0
  9 29  1  0
 27 29  1  0
  9 30  1  0
 10 30  1  0
 10 31  1  0
 11 31  1  0
 12 31  1  0
  9 32  1  0
 11 32  1  0
 11 33  1  0
 33 34  1  0
 33 35  1  0
 33 36  1  0
 15 37  1  0
 14 39  1  0
 37 39  1  0
 38 39  1  0
 42 43  1  0
 43 44  1  0
 44 45  1  0
 45 46  1  0
 43 47  1  0
 41 51  1  0
 41 52  1  0
 52 53  1  0
 41 54  1  0
 55 56  1  0
 56 57  1  0
 57 58  1  0
 58 59  1  0
 40 60  1  0
 55 60  1  0
 59 60  1  0
 40 61  1  0
 59 62  1  0
 61 62  1  0
 42 63  1  0
 62 63  1  0
 46 64  1  0
 47 64  1  0
 44 65  1  0
 64 66  1  0
 66 67  1  0
 48 68  1  0
 66 68  1  0
 48 69  1  0
 49 69  1  0
 49 70  1  0
 50 70  1  0
 51 70  1  0
 48 71  1  0
 50 71  1  0
 50 72  1  0
 72 73  1  0
 72 74  1  0
 72 75  1  0
 54 76  1  0
 53 78  1  0
 76 78  1  0
 77 78  1  0
  1 79  1  0
  3 80  1  0
  3 81  1  0
  4 82  1  0
  5 83  1  0
  6 84  1  0
  6 85  1  0
  7 86  1  0
  7 87  1  0
  8 88  1  0
  8 89  1  0
  9 90  1  0
 10 91  1  0
 10 92  1  0
 11 93  1  0
 12 94  1  0
 12 95  1  0
 13 96  1  0
 13 97  1  0
 14 98  1  0
 14 99  1  0
 15100  1  0
 15101  1  0
 16102  1  0
 16103  1  0
 17104  1  0
 17105  1  0
 18106  1  0
 18107  1  0
 19108  1  0
 21109  1  0
 22110  1  0
 22111  1  0
 23112  1  0
 24113  1  0
 24114  1  0
 25115  1  0
 26116  1  0
 26117  1  0
 26118  1  0
 27119  1  0
 28120  1  0
 29121  1  0
 30122  1  0
 30123  1  0
 31124  1  0
 32125  1  0
 32126  1  0
 37127  1  0
 37128  1  0
 38129  1  0
 38130  1  0
 38131  1  0
 40132  1  0
 42133  1  0
 42134  1  0
 43135  1  0
 44136  1  0
 45137  1  0
 45138  1  0
 46139  1  0
 46140  1  0
 47141  1  0
 47142  1  0
 48143  1  0
 49144  1  0
 49145  1  0
 50146  1  0
 51147  1  0
 51148  1  0
 52149  1  0
 52150  1  0
 53151  1  0
 53152  1  0
 54153  1  0
 54154  1  0
 55155  1  0
 55156  1  0
 56157  1  0
 56158  1  0
 57159  1  0
 57160  1  0
 58161  1  0
 60162  1  0
 61163  1  0
 61164  1  0
 62165  1  0
 63166  1  0
 63167  1  0
 64168  1  0
 65169  1  0
 65170  1  0
 65171  1  0
 66172  1  1
 67173  1  0
 68174  1  0
 69175  1  0
 69176  1  0
 70177  1  0
 71178  1  0
 71179  1  0
 76180  1  0
 76181  1  0
 77182  1  0
 77183  1  0
 77184  1  0
M  END
>  <PDBID>  (1) 
3IK3

>  <PDB ID>  (1) 
3IK3

>  <Generic Name>  (1) 
Ponatinib

>  <Brand Name>  (1) 
Iclusig

>  <DrugBank ID>  (1) 
DB08901

>  <ATC Codes>  (1) 
L01XE24

>  <Ligand ID>  (1) 
0LI

>  <Target Name>  (1) 
Tyrosine-protein kinase ABL1

>  <UniProt ID>  (1) 
P00519

>  <PDB ID.1>  (1) 
3IK3

>  <Seq. Identity>  (1) 
95%

$$$$
