PDB_DB00410_00
     RDKit          3D

 85 86  0  0  0  0  0  0  0  0999 V2000
    2.0900   -2.2897    0.8273 C   0  0  0  0  0  0  0  0  0  0  0  0
    1.5189   -2.8749    2.0633 C   0  0  0  0  0  0  0  0  0  0  0  0
    0.1197   -2.5053    2.4149 C   0  0  0  0  0  0  0  0  0  0  0  0
   -0.9231   -2.8575    1.4297 C   0  0  0  0  0  0  0  0  0  0  0  0
   -2.2961   -2.4387    1.9040 C   0  0  1  0  0  0  0  0  0  0  0  0
   -2.3758   -0.9857    2.0987 C   0  0  1  0  0  0  0  0  0  0  0  0
   -3.4193   -0.3176    1.2634 C   0  0  1  0  0  0  0  0  0  0  0  0
   -4.6365   -1.1286    1.0895 C   0  0  1  0  0  0  0  0  0  0  0  0
   -5.0962   -1.2852   -0.3448 C   0  0  0  0  0  0  0  0  0  0  0  0
   -5.4259   -0.0098   -0.9982 C   0  0  1  0  0  0  0  0  0  0  0  0
   -6.4681    0.8170   -0.4481 C   0  0  2  0  0  0  0  0  0  0  0  0
   -7.1662    1.9192   -1.1562 C   0  0  2  0  0  0  0  0  0  0  0  0
   -6.2144    3.0056   -1.6016 C   0  0  2  0  0  0  0  0  0  0  0  0
   -6.9760    4.1073   -2.3174 C   0  0  0  0  0  0  0  0  0  0  0  0
   -0.2100   -3.2975    3.6951 C   0  0  0  0  0  0  0  0  0  0  0  0
   -4.5370   -2.5381    1.6813 C   0  0  0  0  0  0  0  0  0  0  0  0
    7.9157    1.8810   -3.7027 C   0  0  0  0  0  0  0  0  0  0  0  0
    9.0513    1.1728   -4.0548 O   0  0  0  0  0  0  0  0  0  0  0  0
    6.8127    1.1333   -4.1070 O   0  0  0  0  0  0  0  0  0  0  0  0
    7.8282    2.1242   -2.2023 C   0  0  0  0  0  0  0  0  0  0  0  0
    6.5473    2.9017   -1.9735 C   0  0  0  0  0  0  0  0  0  0  0  0
    6.2905    3.2280   -0.5639 C   0  0  0  0  0  0  0  0  0  0  0  0
    6.2128    2.1942    0.4564 C   0  0  0  0  0  0  0  0  0  0  0  0
    5.1938    1.1335    0.4686 C   0  0  0  0  0  0  0  0  0  0  0  0
    5.2280    0.2080   -0.6761 C   0  0  0  0  0  0  0  0  0  0  0  0
    4.1717   -0.8975   -0.5763 C   0  0  0  0  0  0  0  0  0  0  0  0
    4.3557   -1.7646    0.6312 C   0  0  0  0  0  0  0  0  0  0  0  0
    3.3977   -2.7706    0.7130 O   0  0  0  0  0  0  0  0  0  0  0  0
    1.3852   -2.7126   -0.3226 O   0  0  0  0  0  0  0  0  0  0  0  0
   -3.3181   -3.0230    1.1533 O   0  0  0  0  0  0  0  0  0  0  0  0
   -3.7343    0.8956    1.9231 O   0  0  0  0  0  0  0  0  0  0  0  0
   -2.6176   -0.6277    3.4420 O   0  0  0  0  0  0  0  0  0  0  0  0
   -5.0462    1.1709   -0.2054 O   0  0  0  0  0  0  0  0  0  0  0  0
   -8.1989    2.5231   -0.1942 C   0  0  0  0  0  0  0  0  0  0  0  0
   -5.2920    2.4215   -2.4850 O   0  0  0  0  0  0  0  0  0  0  0  0
    2.1682   -1.1843    0.8460 H   0  0  0  0  0  0  0  0  0  0  0  0
    2.1846   -2.6085    2.9121 H   0  0  0  0  0  0  0  0  0  0  0  0
    1.6286   -3.9952    1.9736 H   0  0  0  0  0  0  0  0  0  0  0  0
    0.0870   -1.4477    2.7395 H   0  0  0  0  0  0  0  0  0  0  0  0
   -0.7863   -2.4248    0.4210 H   0  0  0  0  0  0  0  0  0  0  0  0
   -0.9936   -3.9676    1.2606 H   0  0  0  0  0  0  0  0  0  0  0  0
   -2.4017   -2.9051    2.9533 H   0  0  0  0  0  0  0  0  0  0  0  0
   -1.3837   -0.4926    1.8670 H   0  0  0  0  0  0  0  0  0  0  0  0
   -2.9668   -0.0508    0.2769 H   0  0  0  0  0  0  0  0  0  0  0  0
   -5.4775   -0.6535    1.6749 H   0  0  0  0  0  0  0  0  0  0  0  0
   -5.9971   -1.9534   -0.3388 H   0  0  0  0  0  0  0  0  0  0  0  0
   -4.3017   -1.8351   -0.9217 H   0  0  0  0  0  0  0  0  0  0  0  0
   -5.1069    0.0729   -2.0600 H   0  0  0  0  0  0  0  0  0  0  0  0
   -6.9611    0.4520    0.4831 H   0  0  0  0  0  0  0  0  0  0  0  0
   -7.6999    1.5409   -2.0662 H   0  0  0  0  0  0  0  0  0  0  0  0
   -5.6623    3.3958   -0.7244 H   0  0  0  0  0  0  0  0  0  0  0  0
   -8.0040    3.7572   -2.5426 H   0  0  0  0  0  0  0  0  0  0  0  0
   -7.0153    5.0139   -1.6792 H   0  0  0  0  0  0  0  0  0  0  0  0
   -6.4654    4.3329   -3.2624 H   0  0  0  0  0  0  0  0  0  0  0  0
    0.7311   -3.4192    4.2682 H   0  0  0  0  0  0  0  0  0  0  0  0
   -0.7072   -4.2337    3.4263 H   0  0  0  0  0  0  0  0  0  0  0  0
   -0.9058   -2.6944    4.3048 H   0  0  0  0  0  0  0  0  0  0  0  0
   -5.3446   -3.1465    1.2771 H   0  0  0  0  0  0  0  0  0  0  0  0
   -4.5001   -2.5308    2.7687 H   0  0  0  0  0  0  0  0  0  0  0  0
    7.9176    2.8701   -4.1982 H   0  0  0  0  0  0  0  0  0  0  0  0
    9.7325    1.3742   -3.3479 H   0  0  0  0  0  0  0  0  0  0  0  0
    6.2465    1.5704   -4.7688 H   0  0  0  0  0  0  0  0  0  0  0  0
    7.8796    1.1873   -1.6423 H   0  0  0  0  0  0  0  0  0  0  0  0
    8.7193    2.7455   -1.8985 H   0  0  0  0  0  0  0  0  0  0  0  0
    5.7293    2.4539   -2.4903 H   0  0  0  0  0  0  0  0  0  0  0  0
    6.7941    3.9102   -2.5337 H   0  0  0  0  0  0  0  0  0  0  0  0
    6.9664    4.0865   -0.2045 H   0  0  0  0  0  0  0  0  0  0  0  0
    5.2678    3.7654   -0.5570 H   0  0  0  0  0  0  0  0  0  0  0  0
    7.2287    1.6452    0.5677 H   0  0  0  0  0  0  0  0  0  0  0  0
    6.1735    2.7177    1.4901 H   0  0  0  0  0  0  0  0  0  0  0  0
    4.1715    1.6269    0.5077 H   0  0  0  0  0  0  0  0  0  0  0  0
    5.2387    0.5983    1.4630 H   0  0  0  0  0  0  0  0  0  0  0  0
    6.2103   -0.2945   -0.7781 H   0  0  0  0  0  0  0  0  0  0  0  0
    4.9651    0.7200   -1.6111 H   0  0  0  0  0  0  0  0  0  0  0  0
    3.2013   -0.4196   -0.6861 H   0  0  0  0  0  0  0  0  0  0  0  0
    4.3203   -1.4982   -1.5189 H   0  0  0  0  0  0  0  0  0  0  0  0
    4.4731   -1.2211    1.5640 H   0  0  0  0  0  0  0  0  0  0  0  0
    5.3325   -2.3101    0.4628 H   0  0  0  0  0  0  0  0  0  0  0  0
    1.6865   -2.2314   -1.1210 H   0  0  0  0  0  0  0  0  0  0  0  0
   -3.0280    1.5535    1.7387 H   0  0  0  0  0  0  0  0  0  0  0  0
   -2.4484    0.3392    3.5777 H   0  0  0  0  0  0  0  0  0  0  0  0
   -8.5410    3.5053   -0.5559 H   0  0  0  0  0  0  0  0  0  0  0  0
   -9.0739    1.8499   -0.1104 H   0  0  0  0  0  0  0  0  0  0  0  0
   -7.7440    2.6915    0.8036 H   0  0  0  0  0  0  0  0  0  0  0  0
   -5.7053    2.1700   -3.3351 H   0  0  0  0  0  0  0  0  0  0  0  0
  1  2  1  0
  2  3  1  0
  3  4  1  0
  4  5  1  0
  5  6  1  0
  6  7  1  0
  7  8  1  0
  8  9  1  0
  9 10  1  0
 10 11  1  0
 11 12  1  0
 12 13  1  0
 13 14  1  0
  3 15  1  0
  8 16  1  0
 17 18  1  0
 17 19  1  0
 17 20  1  0
 20 21  1  0
 21 22  1  0
 22 23  1  0
 23 24  1  0
 24 25  1  0
 25 26  1  0
 26 27  1  0
  1 28  1  0
 27 28  1  0
  1 29  1  0
  5 30  1  0
 16 30  1  0
  7 31  1  0
  6 32  1  0
 10 33  1  0
 11 33  1  0
 12 34  1  0
 13 35  1  0
  1 36  1  0
  2 37  1  0
  2 38  1  0
  3 39  1  0
  4 40  1  0
  4 41  1  0
  5 42  1  1
  6 43  1  6
  7 44  1  6
  8 45  1  1
  9 46  1  0
  9 47  1  0
 10 48  1  6
 11 49  1  1
 12 50  1  6
 13 51  1  1
 14 52  1  0
 14 53  1  0
 14 54  1  0
 15 55  1  0
 15 56  1  0
 15 57  1  0
 16 58  1  0
 16 59  1  0
 17 60  1  0
 18 61  1  0
 19 62  1  0
 20 63  1  0
 20 64  1  0
 21 65  1  0
 21 66  1  0
 22 67  1  0
 22 68  1  0
 23 69  1  0
 23 70  1  0
 24 71  1  0
 24 72  1  0
 25 73  1  0
 25 74  1  0
 26 75  1  0
 26 76  1  0
 27 77  1  0
 27 78  1  0
 29 79  1  0
 31 80  1  0
 32 81  1  0
 34 82  1  0
 34 83  1  0
 34 84  1  0
 35 85  1  0
M  END
>  <PDBID>  (1) 
1FFY

>  <PDB ID>  (1) 
1FFY

>  <Generic Name>  (1) 
Mupirocin

>  <Brand Name>  (1) 
Bactroban#Bactroban Cream#Bactroban Nasal Ointment#Centany#Centany At#Mupirocin#Mupirocin 2%#Mupirocin Calcium#Taro-mupirocin#Bactroban Nasal#Plasimine#Spectroderm#T-Bact#Turixin

>  <DrugBank ID>  (1) 
DB00410

>  <ATC Codes>  (1) 
R01AX06#D06AX09

>  <Ligand ID>  (1) 
MRC

>  <Target Name>  (1) 
Isoleucine--tRNA ligase

>  <UniProt ID>  (1) 
P41972

>  <PDB ID.1>  (1) 
1FFY

>  <Seq. Identity>  (1) 
95%

$$$$
