PDB_DB00390_08
     RDKit          3D

246260  0  0  0  0  0  0  0  0999 V2000
   -3.4008   -0.3331    1.2987 C   0  0  0  0  0  0  0  0  0  0  0  0
   -2.3879   -0.6802    0.2546 C   0  0  0  0  0  0  0  0  0  0  0  0
   -1.4621    0.4600    0.0128 C   0  0  2  0  0  0  0  0  0  0  0  0
   -0.4706    0.5722    0.9816 O   0  0  0  0  0  0  0  0  0  0  0  0
   -2.2059    1.7655    0.0107 C   0  0  0  0  0  0  0  0  0  0  0  0
   -3.6957    1.6570   -0.0937 C   0  0  1  0  0  0  0  0  0  0  0  0
   -4.0716    1.3073   -1.4840 C   0  0  0  0  0  0  0  0  0  0  0  0
   -5.3027    0.4749   -1.6452 C   0  0  0  0  0  0  0  0  0  0  0  0
   -6.2657    0.8145   -0.5411 C   0  0  2  0  0  0  0  0  0  0  0  0
   -5.6755    0.3690    0.7582 C   0  0  1  0  0  0  0  0  0  0  0  0
   -4.2760    0.8318    0.9998 C   0  0  1  0  0  0  0  0  0  0  0  0
   -6.6523    0.7888    1.8437 C   0  0  0  0  0  0  0  0  0  0  0  0
   -7.9508    0.0682    1.6739 C   0  0  1  0  0  0  0  0  0  0  0  0
   -8.8869    0.6710    2.5480 O   0  0  0  0  0  0  0  0  0  0  0  0
   -8.5551    0.1996    0.2814 C   0  0  1  0  0  0  0  0  0  0  0  0
   -7.5565    0.0829   -0.8212 C   0  0  1  0  0  0  0  0  0  0  0  0
   -8.1396    0.6896   -1.9582 O   0  0  0  0  0  0  0  0  0  0  0  0
   -7.3901   -1.3804   -1.0439 C   0  0  0  0  0  0  0  0  0  0  0  0
   -8.4098   -2.0665   -0.1606 C   0  0  0  0  0  0  0  0  0  0  0  0
   -9.4615   -0.9630    0.0904 C   0  0  2  0  0  0  0  0  0  0  0  0
   -9.2238    1.5523    0.2625 C   0  0  0  0  0  0  0  0  0  0  0  0
   -4.2564    1.7362    2.2531 C   0  0  0  0  0  0  0  0  0  0  0  0
    0.7997    0.5216    0.5193 C   0  0  1  0  0  0  0  0  0  0  0  0
    5.8722    0.2689    0.0466 C   0  0  2  0  0  0  0  0  0  0  0  0
   10.9450   -0.3364   -0.5965 C   0  0  2  0  0  0  0  0  0  0  0  0
  -10.3473   -1.0072   -1.0607 C   0  0  1  0  0  0  0  0  0  0  0  0
  -11.1481   -2.3180   -0.9412 C   0  0  0  0  0  0  0  0  0  0  0  0
  -12.4155   -1.9799   -0.4994 O   0  0  0  0  0  0  0  0  0  0  0  0
  -11.4738   -0.0904   -1.2279 C   0  0  0  0  0  0  0  0  0  0  0  0
  -12.4622   -0.6380   -0.2221 C   0  0  0  0  0  0  0  0  0  0  0  0
  -13.7338   -0.1445   -0.5227 O   0  0  0  0  0  0  0  0  0  0  0  0
    1.5998    1.7823    0.7692 C   0  0  0  0  0  0  0  0  0  0  0  0
    6.6854   -0.9750   -0.2616 C   0  0  0  0  0  0  0  0  0  0  0  0
   11.7711    0.1671    0.5264 C   0  0  0  0  0  0  0  0  0  0  0  0
    2.7468    1.7512   -0.2218 C   0  0  2  0  0  0  0  0  0  0  0  0
    2.1382    1.7079   -1.4894 O   0  0  0  0  0  0  0  0  0  0  0  0
    7.6272   -0.6165   -1.4274 C   0  0  2  0  0  0  0  0  0  0  0  0
    8.1822   -1.7708   -1.9481 O   0  0  0  0  0  0  0  0  0  0  0  0
   13.1288   -0.4155    0.6942 C   0  0  2  0  0  0  0  0  0  0  0  0
   14.1279    0.5539    0.8880 O   0  0  0  0  0  0  0  0  0  0  0  0
    3.5241    0.5011    0.0750 C   0  0  2  0  0  0  0  0  0  0  0  0
    4.6978    0.3684   -0.5849 O   0  0  0  0  0  0  0  0  0  0  0  0
    8.7288    0.2114   -0.7826 C   0  0  2  0  0  0  0  0  0  0  0  0
    9.6337   -0.5727   -0.1125 O   0  0  0  0  0  0  0  0  0  0  0  0
   13.5071   -1.4332   -0.3400 C   0  0  2  0  0  0  0  0  0  0  0  0
   13.8434   -0.7273   -1.5170 O   0  0  0  0  0  0  0  0  0  0  0  0
    2.5802   -0.6753   -0.0865 C   0  0  2  0  0  0  0  0  0  0  0  0
    1.5545   -0.5899    0.8895 O   0  0  0  0  0  0  0  0  0  0  0  0
    8.0203    1.0884    0.2534 C   0  0  2  0  0  0  0  0  0  0  0  0
    6.7157    1.3938   -0.1208 O   0  0  0  0  0  0  0  0  0  0  0  0
   12.2841   -2.2554   -0.6829 C   0  0  2  0  0  0  0  0  0  0  0  0
   11.3819   -1.4338   -1.2770 O   0  0  0  0  0  0  0  0  0  0  0  0
    3.3009   -1.9776    0.1526 C   0  0  0  0  0  0  0  0  0  0  0  0
    8.7901    2.4119    0.2709 C   0  0  0  0  0  0  0  0  0  0  0  0
   11.7835   -3.0873    0.4534 C   0  0  0  0  0  0  0  0  0  0  0  0
   -3.4008   -0.3331    1.2987 C   0  0  0  0  0  0  0  0  0  0  0  0
   -2.3879   -0.6802    0.2546 C   0  0  0  0  0  0  0  0  0  0  0  0
   -1.4621    0.4600    0.0128 C   0  0  2  0  0  0  0  0  0  0  0  0
   -0.4706    0.5722    0.9816 O   0  0  0  0  0  0  0  0  0  0  0  0
   -2.2059    1.7655    0.0107 C   0  0  0  0  0  0  0  0  0  0  0  0
   -3.6957    1.6570   -0.0937 C   0  0  1  0  0  0  0  0  0  0  0  0
   -4.0716    1.3073   -1.4840 C   0  0  0  0  0  0  0  0  0  0  0  0
   -5.3027    0.4749   -1.6452 C   0  0  0  0  0  0  0  0  0  0  0  0
   -6.2657    0.8145   -0.5411 C   0  0  2  0  0  0  0  0  0  0  0  0
   -5.6755    0.3690    0.7582 C   0  0  1  0  0  0  0  0  0  0  0  0
   -4.2760    0.8318    0.9998 C   0  0  1  0  0  0  0  0  0  0  0  0
   -6.6523    0.7888    1.8437 C   0  0  0  0  0  0  0  0  0  0  0  0
   -7.9508    0.0682    1.6739 C   0  0  1  0  0  0  0  0  0  0  0  0
   -8.8869    0.6710    2.5480 O   0  0  0  0  0  0  0  0  0  0  0  0
   -8.5551    0.1996    0.2814 C   0  0  1  0  0  0  0  0  0  0  0  0
   -7.5565    0.0829   -0.8212 C   0  0  1  0  0  0  0  0  0  0  0  0
   -8.1396    0.6896   -1.9582 O   0  0  0  0  0  0  0  0  0  0  0  0
   -7.3901   -1.3804   -1.0439 C   0  0  0  0  0  0  0  0  0  0  0  0
   -8.4098   -2.0665   -0.1606 C   0  0  0  0  0  0  0  0  0  0  0  0
   -9.4615   -0.9630    0.0904 C   0  0  2  0  0  0  0  0  0  0  0  0
   -9.2238    1.5523    0.2625 C   0  0  0  0  0  0  0  0  0  0  0  0
   -4.2564    1.7362    2.2531 C   0  0  0  0  0  0  0  0  0  0  0  0
    0.7997    0.5216    0.5193 C   0  0  1  0  0  0  0  0  0  0  0  0
    5.8722    0.2689    0.0466 C   0  0  2  0  0  0  0  0  0  0  0  0
   10.9450   -0.3364   -0.5965 C   0  0  2  0  0  0  0  0  0  0  0  0
  -10.3473   -1.0072   -1.0607 C   0  0  1  0  0  0  0  0  0  0  0  0
  -11.1481   -2.3180   -0.9412 C   0  0  0  0  0  0  0  0  0  0  0  0
  -12.4155   -1.9799   -0.4994 O   0  0  0  0  0  0  0  0  0  0  0  0
  -11.4738   -0.0904   -1.2279 C   0  0  0  0  0  0  0  0  0  0  0  0
  -12.4622   -0.6380   -0.2221 C   0  0  0  0  0  0  0  0  0  0  0  0
  -13.7338   -0.1445   -0.5227 O   0  0  0  0  0  0  0  0  0  0  0  0
    1.5998    1.7823    0.7692 C   0  0  0  0  0  0  0  0  0  0  0  0
    6.6854   -0.9750   -0.2616 C   0  0  0  0  0  0  0  0  0  0  0  0
   11.7711    0.1671    0.5264 C   0  0  0  0  0  0  0  0  0  0  0  0
    2.7468    1.7512   -0.2218 C   0  0  2  0  0  0  0  0  0  0  0  0
    2.1382    1.7079   -1.4894 O   0  0  0  0  0  0  0  0  0  0  0  0
    7.6272   -0.6165   -1.4274 C   0  0  2  0  0  0  0  0  0  0  0  0
    8.1822   -1.7708   -1.9481 O   0  0  0  0  0  0  0  0  0  0  0  0
   13.1288   -0.4155    0.6942 C   0  0  2  0  0  0  0  0  0  0  0  0
   14.1279    0.5539    0.8880 O   0  0  0  0  0  0  0  0  0  0  0  0
    3.5241    0.5011    0.0750 C   0  0  2  0  0  0  0  0  0  0  0  0
    4.6978    0.3684   -0.5849 O   0  0  0  0  0  0  0  0  0  0  0  0
    8.7288    0.2114   -0.7826 C   0  0  2  0  0  0  0  0  0  0  0  0
    9.6337   -0.5727   -0.1125 O   0  0  0  0  0  0  0  0  0  0  0  0
   13.5071   -1.4332   -0.3400 C   0  0  2  0  0  0  0  0  0  0  0  0
   13.8434   -0.7273   -1.5170 O   0  0  0  0  0  0  0  0  0  0  0  0
    2.5802   -0.6753   -0.0865 C   0  0  2  0  0  0  0  0  0  0  0  0
    1.5545   -0.5899    0.8895 O   0  0  0  0  0  0  0  0  0  0  0  0
    8.0203    1.0884    0.2534 C   0  0  2  0  0  0  0  0  0  0  0  0
    6.7157    1.3938   -0.1208 O   0  0  0  0  0  0  0  0  0  0  0  0
   12.2841   -2.2554   -0.6829 C   0  0  2  0  0  0  0  0  0  0  0  0
   11.3819   -1.4338   -1.2770 O   0  0  0  0  0  0  0  0  0  0  0  0
    3.3009   -1.9776    0.1526 C   0  0  0  0  0  0  0  0  0  0  0  0
    8.7901    2.4119    0.2709 C   0  0  0  0  0  0  0  0  0  0  0  0
   11.7835   -3.0873    0.4534 C   0  0  0  0  0  0  0  0  0  0  0  0
   -2.8199   -0.1202    2.2331 H   0  0  0  0  0  0  0  0  0  0  0  0
   -3.9682   -1.2651    1.5241 H   0  0  0  0  0  0  0  0  0  0  0  0
   -1.8038   -1.6079    0.5550 H   0  0  0  0  0  0  0  0  0  0  0  0
   -2.9345   -1.0168   -0.6468 H   0  0  0  0  0  0  0  0  0  0  0  0
   -0.9399    0.3165   -0.9626 H   0  0  0  0  0  0  0  0  0  0  0  0
   -1.8842    2.3193   -0.9245 H   0  0  0  0  0  0  0  0  0  0  0  0
   -1.8757    2.4395    0.8294 H   0  0  0  0  0  0  0  0  0  0  0  0
   -4.0661    2.7153    0.0961 H   0  0  0  0  0  0  0  0  0  0  0  0
   -3.2363    0.8490   -2.0789 H   0  0  0  0  0  0  0  0  0  0  0  0
   -4.2734    2.2681   -2.0555 H   0  0  0  0  0  0  0  0  0  0  0  0
   -5.7307    0.6818   -2.6536 H   0  0  0  0  0  0  0  0  0  0  0  0
   -5.0184   -0.5869   -1.6612 H   0  0  0  0  0  0  0  0  0  0  0  0
   -6.4654    1.9024   -0.5640 H   0  0  0  0  0  0  0  0  0  0  0  0
   -5.7159   -0.7619    0.7752 H   0  0  0  0  0  0  0  0  0  0  0  0
   -6.2238    0.4217    2.8042 H   0  0  0  0  0  0  0  0  0  0  0  0
   -6.7567    1.8792    1.9356 H   0  0  0  0  0  0  0  0  0  0  0  0
   -7.8455   -0.9540    2.0267 H   0  0  0  0  0  0  0  0  0  0  0  0
   -8.4325    1.3005    3.1589 H   0  0  0  0  0  0  0  0  0  0  0  0
   -7.6081    1.4590   -2.2691 H   0  0  0  0  0  0  0  0  0  0  0  0
   -7.5779   -1.5942   -2.1383 H   0  0  0  0  0  0  0  0  0  0  0  0
   -6.4152   -1.8032   -0.8252 H   0  0  0  0  0  0  0  0  0  0  0  0
   -8.8197   -2.8912   -0.7802 H   0  0  0  0  0  0  0  0  0  0  0  0
   -8.0215   -2.5079    0.7454 H   0  0  0  0  0  0  0  0  0  0  0  0
   -9.9673   -1.2202    1.0348 H   0  0  0  0  0  0  0  0  0  0  0  0
   -8.5575    2.2553    0.8543 H   0  0  0  0  0  0  0  0  0  0  0  0
  -10.1804    1.5803    0.7886 H   0  0  0  0  0  0  0  0  0  0  0  0
   -9.2399    2.0203   -0.7490 H   0  0  0  0  0  0  0  0  0  0  0  0
   -4.3875    1.1543    3.1796 H   0  0  0  0  0  0  0  0  0  0  0  0
   -3.2017    2.1412    2.3376 H   0  0  0  0  0  0  0  0  0  0  0  0
   -4.8815    2.6193    2.1420 H   0  0  0  0  0  0  0  0  0  0  0  0
    0.7235    0.4278   -0.6056 H   0  0  0  0  0  0  0  0  0  0  0  0
    5.6978    0.2696    1.1422 H   0  0  0  0  0  0  0  0  0  0  0  0
   10.8238    0.4744   -1.3875 H   0  0  0  0  0  0  0  0  0  0  0  0
   -9.7190   -1.1171   -1.9967 H   0  0  0  0  0  0  0  0  0  0  0  0
  -10.7391   -2.9914   -0.1691 H   0  0  0  0  0  0  0  0  0  0  0  0
  -11.1666   -2.8671   -1.8966 H   0  0  0  0  0  0  0  0  0  0  0  0
  -11.9321   -0.3345   -2.2376 H   0  0  0  0  0  0  0  0  0  0  0  0
  -11.3341    0.9637   -1.2126 H   0  0  0  0  0  0  0  0  0  0  0  0
  -12.1500   -0.4225    0.8185 H   0  0  0  0  0  0  0  0  0  0  0  0
  -14.1110    0.3668    0.2455 H   0  0  0  0  0  0  0  0  0  0  0  0
    0.9727    2.6749    0.6673 H   0  0  0  0  0  0  0  0  0  0  0  0
    2.0549    1.7886    1.7819 H   0  0  0  0  0  0  0  0  0  0  0  0
    7.3581   -1.2566    0.5774 H   0  0  0  0  0  0  0  0  0  0  0  0
    6.1028   -1.8495   -0.5328 H   0  0  0  0  0  0  0  0  0  0  0  0
   11.1842    0.1578    1.5004 H   0  0  0  0  0  0  0  0  0  0  0  0
   11.9299    1.2795    0.3696 H   0  0  0  0  0  0  0  0  0  0  0  0
    3.3223    2.6808   -0.0638 H   0  0  0  0  0  0  0  0  0  0  0  0
    2.8881    1.6171   -2.1512 H   0  0  0  0  0  0  0  0  0  0  0  0
    7.0996    0.0082   -2.1714 H   0  0  0  0  0  0  0  0  0  0  0  0
    8.1145   -1.8110   -2.9474 H   0  0  0  0  0  0  0  0  0  0  0  0
   13.1116   -0.9837    1.6759 H   0  0  0  0  0  0  0  0  0  0  0  0
   14.0025    0.9042    1.8189 H   0  0  0  0  0  0  0  0  0  0  0  0
    3.7482    0.5246    1.1650 H   0  0  0  0  0  0  0  0  0  0  0  0
    9.2017    0.8415   -1.5625 H   0  0  0  0  0  0  0  0  0  0  0  0
   14.3648   -2.0458   -0.0628 H   0  0  0  0  0  0  0  0  0  0  0  0
   13.2368    0.0606   -1.5632 H   0  0  0  0  0  0  0  0  0  0  0  0
    2.0397   -0.6464   -1.0604 H   0  0  0  0  0  0  0  0  0  0  0  0
    8.1084    0.6494    1.2458 H   0  0  0  0  0  0  0  0  0  0  0  0
   12.6393   -2.9726   -1.4821 H   0  0  0  0  0  0  0  0  0  0  0  0
    4.1388   -1.7822    0.8693 H   0  0  0  0  0  0  0  0  0  0  0  0
    3.7720   -2.3657   -0.7713 H   0  0  0  0  0  0  0  0  0  0  0  0
    2.6503   -2.7448    0.6163 H   0  0  0  0  0  0  0  0  0  0  0  0
    9.1164    2.6931    1.2918 H   0  0  0  0  0  0  0  0  0  0  0  0
    8.1704    3.2496   -0.1432 H   0  0  0  0  0  0  0  0  0  0  0  0
    9.7057    2.3773   -0.3489 H   0  0  0  0  0  0  0  0  0  0  0  0
   11.2137   -3.9828    0.0682 H   0  0  0  0  0  0  0  0  0  0  0  0
   11.1278   -2.5758    1.1590 H   0  0  0  0  0  0  0  0  0  0  0  0
   12.6882   -3.5546    0.9437 H   0  0  0  0  0  0  0  0  0  0  0  0
   -2.8199   -0.1202    2.2331 H   0  0  0  0  0  0  0  0  0  0  0  0
   -3.9682   -1.2651    1.5241 H   0  0  0  0  0  0  0  0  0  0  0  0
   -1.8038   -1.6079    0.5550 H   0  0  0  0  0  0  0  0  0  0  0  0
   -2.9345   -1.0168   -0.6468 H   0  0  0  0  0  0  0  0  0  0  0  0
   -0.9399    0.3165   -0.9626 H   0  0  0  0  0  0  0  0  0  0  0  0
   -1.8842    2.3193   -0.9245 H   0  0  0  0  0  0  0  0  0  0  0  0
   -1.8757    2.4395    0.8294 H   0  0  0  0  0  0  0  0  0  0  0  0
   -4.0661    2.7153    0.0961 H   0  0  0  0  0  0  0  0  0  0  0  0
   -3.2363    0.8490   -2.0789 H   0  0  0  0  0  0  0  0  0  0  0  0
   -4.2734    2.2681   -2.0555 H   0  0  0  0  0  0  0  0  0  0  0  0
   -5.7307    0.6818   -2.6536 H   0  0  0  0  0  0  0  0  0  0  0  0
   -5.0184   -0.5869   -1.6612 H   0  0  0  0  0  0  0  0  0  0  0  0
   -6.4654    1.9024   -0.5640 H   0  0  0  0  0  0  0  0  0  0  0  0
   -5.7159   -0.7619    0.7752 H   0  0  0  0  0  0  0  0  0  0  0  0
   -6.2238    0.4217    2.8042 H   0  0  0  0  0  0  0  0  0  0  0  0
   -6.7567    1.8792    1.9356 H   0  0  0  0  0  0  0  0  0  0  0  0
   -7.8455   -0.9540    2.0267 H   0  0  0  0  0  0  0  0  0  0  0  0
   -8.4325    1.3005    3.1589 H   0  0  0  0  0  0  0  0  0  0  0  0
   -7.6081    1.4590   -2.2691 H   0  0  0  0  0  0  0  0  0  0  0  0
   -7.5779   -1.5942   -2.1383 H   0  0  0  0  0  0  0  0  0  0  0  0
   -6.4152   -1.8032   -0.8252 H   0  0  0  0  0  0  0  0  0  0  0  0
   -8.8197   -2.8912   -0.7802 H   0  0  0  0  0  0  0  0  0  0  0  0
   -8.0215   -2.5079    0.7454 H   0  0  0  0  0  0  0  0  0  0  0  0
   -9.9673   -1.2202    1.0348 H   0  0  0  0  0  0  0  0  0  0  0  0
   -8.5575    2.2553    0.8543 H   0  0  0  0  0  0  0  0  0  0  0  0
  -10.1804    1.5803    0.7886 H   0  0  0  0  0  0  0  0  0  0  0  0
   -9.2399    2.0203   -0.7490 H   0  0  0  0  0  0  0  0  0  0  0  0
   -4.3875    1.1543    3.1796 H   0  0  0  0  0  0  0  0  0  0  0  0
   -3.2017    2.1412    2.3376 H   0  0  0  0  0  0  0  0  0  0  0  0
   -4.8815    2.6193    2.1420 H   0  0  0  0  0  0  0  0  0  0  0  0
    0.7235    0.4278   -0.6056 H   0  0  0  0  0  0  0  0  0  0  0  0
    5.6978    0.2696    1.1422 H   0  0  0  0  0  0  0  0  0  0  0  0
   10.8238    0.4744   -1.3875 H   0  0  0  0  0  0  0  0  0  0  0  0
   -9.7190   -1.1171   -1.9967 H   0  0  0  0  0  0  0  0  0  0  0  0
  -10.7391   -2.9914   -0.1691 H   0  0  0  0  0  0  0  0  0  0  0  0
  -11.1666   -2.8671   -1.8966 H   0  0  0  0  0  0  0  0  0  0  0  0
  -11.9321   -0.3345   -2.2376 H   0  0  0  0  0  0  0  0  0  0  0  0
  -11.3341    0.9637   -1.2126 H   0  0  0  0  0  0  0  0  0  0  0  0
  -12.1500   -0.4225    0.8185 H   0  0  0  0  0  0  0  0  0  0  0  0
  -14.1110    0.3668    0.2455 H   0  0  0  0  0  0  0  0  0  0  0  0
    0.9727    2.6749    0.6673 H   0  0  0  0  0  0  0  0  0  0  0  0
    2.0549    1.7886    1.7819 H   0  0  0  0  0  0  0  0  0  0  0  0
    7.3581   -1.2566    0.5774 H   0  0  0  0  0  0  0  0  0  0  0  0
    6.1028   -1.8495   -0.5328 H   0  0  0  0  0  0  0  0  0  0  0  0
   11.1842    0.1578    1.5004 H   0  0  0  0  0  0  0  0  0  0  0  0
   11.9299    1.2795    0.3696 H   0  0  0  0  0  0  0  0  0  0  0  0
    3.3223    2.6808   -0.0638 H   0  0  0  0  0  0  0  0  0  0  0  0
    2.8881    1.6171   -2.1512 H   0  0  0  0  0  0  0  0  0  0  0  0
    7.0996    0.0082   -2.1714 H   0  0  0  0  0  0  0  0  0  0  0  0
    8.1145   -1.8110   -2.9474 H   0  0  0  0  0  0  0  0  0  0  0  0
   13.1116   -0.9837    1.6759 H   0  0  0  0  0  0  0  0  0  0  0  0
   14.0025    0.9042    1.8189 H   0  0  0  0  0  0  0  0  0  0  0  0
    3.7482    0.5246    1.1650 H   0  0  0  0  0  0  0  0  0  0  0  0
    9.2017    0.8415   -1.5625 H   0  0  0  0  0  0  0  0  0  0  0  0
   14.3648   -2.0458   -0.0628 H   0  0  0  0  0  0  0  0  0  0  0  0
   13.2368    0.0606   -1.5632 H   0  0  0  0  0  0  0  0  0  0  0  0
    2.0397   -0.6464   -1.0604 H   0  0  0  0  0  0  0  0  0  0  0  0
    8.1084    0.6494    1.2458 H   0  0  0  0  0  0  0  0  0  0  0  0
   12.6393   -2.9726   -1.4821 H   0  0  0  0  0  0  0  0  0  0  0  0
    4.1388   -1.7822    0.8693 H   0  0  0  0  0  0  0  0  0  0  0  0
    3.7720   -2.3657   -0.7713 H   0  0  0  0  0  0  0  0  0  0  0  0
    2.6503   -2.7448    0.6163 H   0  0  0  0  0  0  0  0  0  0  0  0
    9.1164    2.6931    1.2918 H   0  0  0  0  0  0  0  0  0  0  0  0
    8.1704    3.2496   -0.1432 H   0  0  0  0  0  0  0  0  0  0  0  0
    9.7057    2.3773   -0.3489 H   0  0  0  0  0  0  0  0  0  0  0  0
   11.2137   -3.9828    0.0682 H   0  0  0  0  0  0  0  0  0  0  0  0
   11.1278   -2.5758    1.1590 H   0  0  0  0  0  0  0  0  0  0  0  0
   12.6882   -3.5546    0.9437 H   0  0  0  0  0  0  0  0  0  0  0  0
  1  2  1  0
  2  3  1  0
  3  4  1  0
  3  5  1  0
  5  6  1  0
  6  7  1  0
  7  8  1  0
  8  9  1  0
  9 10  1  0
  1 11  1  0
  6 11  1  0
 10 11  1  0
 10 12  1  0
 12 13  1  0
 13 14  1  0
 13 15  1  0
  9 16  1  0
 15 16  1  0
 16 17  1  6
 16 18  1  0
 18 19  1  0
 15 20  1  0
 19 20  1  0
 15 21  1  1
 11 22  1  1
  4 23  1  0
 20 26  1  0
 26 27  1  0
 27 28  1  0
 26 29  1  0
 28 30  1  0
 29 30  1  0
 30 31  1  0
 23 32  1  0
 24 33  1  0
 25 34  1  0
 32 35  1  0
 35 36  1  0
 33 37  1  0
 37 38  1  0
 34 39  1  0
 39 40  1  0
 35 41  1  0
 24 42  1  0
 41 42  1  0
 37 43  1  0
 25 44  1  0
 43 44  1  0
 39 45  1  0
 45 46  1  0
 41 47  1  0
 23 48  1  0
 47 48  1  0
 43 49  1  0
 24 50  1  0
 49 50  1  0
 45 51  1  0
 25 52  1  0
 51 52  1  0
 47 53  1  0
 49 54  1  0
 51 55  1  0
 56 57  1  0
 57 58  1  0
 58 59  1  0
 58 60  1  0
 60 61  1  0
 61 62  1  0
 62 63  1  0
 63 64  1  0
 64 65  1  0
 56 66  1  0
 61 66  1  0
 65 66  1  0
 65 67  1  0
 67 68  1  0
 68 69  1  0
 68 70  1  0
 64 71  1  0
 70 71  1  0
 71 72  1  6
 71 73  1  0
 73 74  1  0
 70 75  1  0
 74 75  1  0
 70 76  1  1
 66 77  1  1
 59 78  1  0
 75 81  1  0
 81 82  1  0
 82 83  1  0
 81 84  1  0
 83 85  1  0
 84 85  1  0
 85 86  1  0
 78 87  1  0
 79 88  1  0
 80 89  1  0
 87 90  1  0
 90 91  1  0
 88 92  1  0
 92 93  1  0
 89 94  1  0
 94 95  1  0
 90 96  1  0
 79 97  1  0
 96 97  1  0
 92 98  1  0
 80 99  1  0
 98 99  1  0
 94100  1  0
100101  1  0
 96102  1  0
 78103  1  0
102103  1  0
 98104  1  0
 79105  1  0
104105  1  0
100106  1  0
 80107  1  0
106107  1  0
102108  1  0
104109  1  0
106110  1  0
  1111  1  0
  1112  1  0
  2113  1  0
  2114  1  0
  3115  1  6
  5116  1  0
  5117  1  0
  6118  1  1
  7119  1  0
  7120  1  0
  8121  1  0
  8122  1  0
  9123  1  1
 10124  1  6
 12125  1  0
 12126  1  0
 13127  1  1
 14128  1  0
 17129  1  0
 18130  1  0
 18131  1  0
 19132  1  0
 19133  1  0
 20134  1  1
 21135  1  0
 21136  1  0
 21137  1  0
 22138  1  0
 22139  1  0
 22140  1  0
 23141  1  6
 24142  1  1
 25143  1  6
 26144  1  6
 27145  1  0
 27146  1  0
 29147  1  0
 29148  1  0
 30149  1  0
 31150  1  0
 32151  1  0
 32152  1  0
 33153  1  0
 33154  1  0
 34155  1  0
 34156  1  0
 35157  1  6
 36158  1  0
 37159  1  6
 38160  1  0
 39161  1  1
 40162  1  0
 41163  1  1
 43164  1  6
 45165  1  1
 46166  1  0
 47167  1  6
 49168  1  1
 51169  1  6
 53170  1  0
 53171  1  0
 53172  1  0
 54173  1  0
 54174  1  0
 54175  1  0
 55176  1  0
 55177  1  0
 55178  1  0
 56179  1  0
 56180  1  0
 57181  1  0
 57182  1  0
 58183  1  6
 60184  1  0
 60185  1  0
 61186  1  1
 62187  1  0
 62188  1  0
 63189  1  0
 63190  1  0
 64191  1  1
 65192  1  6
 67193  1  0
 67194  1  0
 68195  1  1
 69196  1  0
 72197  1  0
 73198  1  0
 73199  1  0
 74200  1  0
 74201  1  0
 75202  1  1
 76203  1  0
 76204  1  0
 76205  1  0
 77206  1  0
 77207  1  0
 77208  1  0
 78209  1  6
 79210  1  1
 80211  1  6
 81212  1  6
 82213  1  0
 82214  1  0
 84215  1  0
 84216  1  0
 85217  1  0
 86218  1  0
 87219  1  0
 87220  1  0
 88221  1  0
 88222  1  0
 89223  1  0
 89224  1  0
 90225  1  6
 91226  1  0
 92227  1  6
 93228  1  0
 94229  1  1
 95230  1  0
 96231  1  1
 98232  1  6
100233  1  1
101234  1  0
102235  1  6
104236  1  1
106237  1  6
108238  1  0
108239  1  0
108240  1  0
109241  1  0
109242  1  0
109243  1  0
110244  1  0
110245  1  0
110246  1  0
M  END
>  <PDBID>  (1) 
4RET

>  <PDB ID>  (1) 
4RET

>  <Generic Name>  (1) 
Digoxin

>  <Brand Name>  (1) 
Apo-digoxin#Digitek#Digox#Digoxin#Digoxin Injection C.S.D.#Lanoxin#Lanoxin Elx 0.05mg/ml Pediatric#Lanoxin Inj 0.05mg/ml Pediatric#Lanoxin Inj 0.25mg/ml#Lanoxin Tab 0.0625mg#Lanoxin Tab 0.125mg#Lanoxin Tab 0.25mg#Novo-digoxin Tab 0.25mg#PMS-digoxin#Pediatric Digoxin Injection C.S.D.#Toloxin#Agoxin#Cardiacin#Cardiogoxin#Cardioxin#Cardoxin#Celoxin#Centoxin#Digacin#Digocard-G#Digoxina#Eudigox#Lanacordin#Lanacrist#Lanicor#Lanoxicaps#Lenoxin

>  <DrugBank ID>  (1) 
DB00390

>  <ATC Codes>  (1) 
C01AA05

>  <Ligand ID>  (1) 
DGX

>  <Target Name>  (1) 
Sodium/potassium-transporting ATPase subunit alpha-1

>  <UniProt ID>  (1) 
P05023

>  <PDB ID.1>  (1) 
4RET

>  <Seq. Identity>  (1) 
94%

$$$$
