PDB_DB01076_09
     RDKit          3D

408420  0  0  0  0  0  0  0  0999 V2000
   -1.3889    0.4425   -2.8724 C   0  0  0  0  0  0  0  0  0  0  0  0
   -0.5730    1.1154   -1.8361 C   0  0  0  0  0  0  0  0  0  0  0  0
   -0.1444    2.4372   -2.4668 C   0  0  0  0  0  0  0  0  0  0  0  0
   -0.6762    2.6639   -3.8496 C   0  0  0  0  0  0  0  0  0  0  0  0
   -2.1508    2.4997   -3.9541 C   0  0  0  0  0  0  0  0  0  0  0  0
   -2.5986    1.2650   -3.2524 C   0  0  0  0  0  0  0  0  0  0  0  0
   -1.7073    4.5117    2.5317 C   0  0  0  0  0  0  0  0  0  0  0  0
   -1.2926    3.9672    1.1550 C   0  0  0  0  0  0  0  0  0  0  0  0
   -0.2828    2.8559    1.4166 C   0  0  0  0  0  0  0  0  0  0  0  0
    0.9916    3.6169    1.8392 C   0  0  0  0  0  0  0  0  0  0  0  0
    0.6515    5.0001    2.3872 C   0  0  0  0  0  0  0  0  0  0  0  0
   -0.4865    4.7843    3.3803 C   0  0  0  0  0  0  0  0  0  0  0  0
   -0.6483    5.8398    4.2239 F   0  0  0  0  0  0  0  0  0  0  0  0
    0.0485    2.0584    0.2632 C   0  0  0  0  0  0  0  0  0  0  0  0
   -3.6894   -2.4770    0.8645 C   0  0  0  0  0  0  0  0  0  0  0  0
   -5.0469   -1.9241    0.5974 C   0  0  0  0  0  0  0  0  0  0  0  0
   -6.0385   -3.0633    0.8442 C   0  0  0  0  0  0  0  0  0  0  0  0
   -5.4516   -4.3823    0.3720 C   0  0  0  0  0  0  0  0  0  0  0  0
   -4.3672   -4.8291    1.3322 C   0  0  0  0  0  0  0  0  0  0  0  0
   -3.7138   -3.5927    1.8913 C   0  0  0  0  0  0  0  0  0  0  0  0
    5.5462   -4.1723   -2.3568 O   0  0  0  0  0  0  0  0  0  0  0  0
    6.6976   -2.7061   -3.6462 O   0  0  0  0  0  0  0  0  0  0  0  0
    5.9137   -0.5913    0.0161 O   0  0  0  0  0  0  0  0  0  0  0  0
    6.6418   -3.3424   -2.3888 C   0  0  0  0  0  0  0  0  0  0  0  0
    6.7135   -2.3876   -1.2697 C   0  0  0  0  0  0  0  0  0  0  0  0
    5.6076   -1.3921   -1.1181 C   0  0  1  0  0  0  0  0  0  0  0  0
    4.2439   -1.9580   -1.0696 C   0  0  0  0  0  0  0  0  0  0  0  0
    3.1435   -0.9071   -1.0491 C   0  0  1  0  0  0  0  0  0  0  0  0
    3.2527    0.0049    0.1206 C   0  0  0  0  0  0  0  0  0  0  0  0
    2.2002    1.0440    0.3024 C   0  0  0  0  0  0  0  0  0  0  0  0
    0.8923    0.8802    0.5365 N   0  0  0  0  0  0  0  0  0  0  0  0
   -1.1120    1.4017   -0.5117 C   0  0  0  0  0  0  0  0  0  0  0  0
   -1.3371    0.3373    0.5094 C   0  0  0  0  0  0  0  0  0  0  0  0
   -2.4526   -0.5752    0.2525 C   0  0  0  0  0  0  0  0  0  0  0  0
   -2.6955   -1.5458    1.2812 N   0  0  0  0  0  0  0  0  0  0  0  0
   -3.6771    0.0957    0.0728 O   0  0  0  0  0  0  0  0  0  0  0  0
    0.0705   -0.2411    0.6204 C   0  0  0  0  0  0  0  0  0  0  0  0
    0.1414   -1.0549    1.8713 C   0  0  0  0  0  0  0  0  0  0  0  0
   -0.1773   -0.3340    3.1285 C   0  0  0  0  0  0  0  0  0  0  0  0
    1.3706   -1.9371    2.0127 C   0  0  0  0  0  0  0  0  0  0  0  0
    3.1976   -0.1907   -2.2747 O   0  0  0  0  0  0  0  0  0  0  0  0
   -1.3889    0.4425   -2.8724 C   0  0  0  0  0  0  0  0  0  0  0  0
   -0.5730    1.1154   -1.8361 C   0  0  0  0  0  0  0  0  0  0  0  0
   -0.1444    2.4372   -2.4668 C   0  0  0  0  0  0  0  0  0  0  0  0
   -0.6762    2.6639   -3.8496 C   0  0  0  0  0  0  0  0  0  0  0  0
   -2.1508    2.4997   -3.9541 C   0  0  0  0  0  0  0  0  0  0  0  0
   -2.5986    1.2650   -3.2524 C   0  0  0  0  0  0  0  0  0  0  0  0
   -1.7073    4.5117    2.5317 C   0  0  0  0  0  0  0  0  0  0  0  0
   -1.2926    3.9672    1.1550 C   0  0  0  0  0  0  0  0  0  0  0  0
   -0.2828    2.8559    1.4166 C   0  0  0  0  0  0  0  0  0  0  0  0
    0.9916    3.6169    1.8392 C   0  0  0  0  0  0  0  0  0  0  0  0
    0.6515    5.0001    2.3872 C   0  0  0  0  0  0  0  0  0  0  0  0
   -0.4865    4.7843    3.3803 C   0  0  0  0  0  0  0  0  0  0  0  0
   -0.6483    5.8398    4.2239 F   0  0  0  0  0  0  0  0  0  0  0  0
    0.0485    2.0584    0.2632 C   0  0  0  0  0  0  0  0  0  0  0  0
   -3.6894   -2.4770    0.8645 C   0  0  0  0  0  0  0  0  0  0  0  0
   -5.0469   -1.9241    0.5974 C   0  0  0  0  0  0  0  0  0  0  0  0
   -6.0385   -3.0633    0.8442 C   0  0  0  0  0  0  0  0  0  0  0  0
   -5.4516   -4.3823    0.3720 C   0  0  0  0  0  0  0  0  0  0  0  0
   -4.3672   -4.8291    1.3322 C   0  0  0  0  0  0  0  0  0  0  0  0
   -3.7138   -3.5927    1.8913 C   0  0  0  0  0  0  0  0  0  0  0  0
    5.5462   -4.1723   -2.3568 O   0  0  0  0  0  0  0  0  0  0  0  0
    6.6976   -2.7061   -3.6462 O   0  0  0  0  0  0  0  0  0  0  0  0
    5.9137   -0.5913    0.0161 O   0  0  0  0  0  0  0  0  0  0  0  0
    6.6418   -3.3424   -2.3888 C   0  0  0  0  0  0  0  0  0  0  0  0
    6.7135   -2.3876   -1.2697 C   0  0  0  0  0  0  0  0  0  0  0  0
    5.6076   -1.3921   -1.1181 C   0  0  1  0  0  0  0  0  0  0  0  0
    4.2439   -1.9580   -1.0696 C   0  0  0  0  0  0  0  0  0  0  0  0
    3.1435   -0.9071   -1.0491 C   0  0  1  0  0  0  0  0  0  0  0  0
    3.2527    0.0049    0.1206 C   0  0  0  0  0  0  0  0  0  0  0  0
    2.2002    1.0440    0.3024 C   0  0  0  0  0  0  0  0  0  0  0  0
    0.8923    0.8802    0.5365 N   0  0  0  0  0  0  0  0  0  0  0  0
   -1.1120    1.4017   -0.5117 C   0  0  0  0  0  0  0  0  0  0  0  0
   -1.3371    0.3373    0.5094 C   0  0  0  0  0  0  0  0  0  0  0  0
   -2.4526   -0.5752    0.2525 C   0  0  0  0  0  0  0  0  0  0  0  0
   -2.6955   -1.5458    1.2812 N   0  0  0  0  0  0  0  0  0  0  0  0
   -3.6771    0.0957    0.0728 O   0  0  0  0  0  0  0  0  0  0  0  0
    0.0705   -0.2411    0.6204 C   0  0  0  0  0  0  0  0  0  0  0  0
    0.1414   -1.0549    1.8713 C   0  0  0  0  0  0  0  0  0  0  0  0
   -0.1773   -0.3340    3.1285 C   0  0  0  0  0  0  0  0  0  0  0  0
    1.3706   -1.9371    2.0127 C   0  0  0  0  0  0  0  0  0  0  0  0
    3.1976   -0.1907   -2.2747 O   0  0  0  0  0  0  0  0  0  0  0  0
   -1.3889    0.4425   -2.8724 C   0  0  0  0  0  0  0  0  0  0  0  0
   -0.5730    1.1154   -1.8361 C   0  0  0  0  0  0  0  0  0  0  0  0
   -0.1444    2.4372   -2.4668 C   0  0  0  0  0  0  0  0  0  0  0  0
   -0.6762    2.6639   -3.8496 C   0  0  0  0  0  0  0  0  0  0  0  0
   -2.1508    2.4997   -3.9541 C   0  0  0  0  0  0  0  0  0  0  0  0
   -2.5986    1.2650   -3.2524 C   0  0  0  0  0  0  0  0  0  0  0  0
   -1.7073    4.5117    2.5317 C   0  0  0  0  0  0  0  0  0  0  0  0
   -1.2926    3.9672    1.1550 C   0  0  0  0  0  0  0  0  0  0  0  0
   -0.2828    2.8559    1.4166 C   0  0  0  0  0  0  0  0  0  0  0  0
    0.9916    3.6169    1.8392 C   0  0  0  0  0  0  0  0  0  0  0  0
    0.6515    5.0001    2.3872 C   0  0  0  0  0  0  0  0  0  0  0  0
   -0.4865    4.7843    3.3803 C   0  0  0  0  0  0  0  0  0  0  0  0
   -0.6483    5.8398    4.2239 F   0  0  0  0  0  0  0  0  0  0  0  0
    0.0485    2.0584    0.2632 C   0  0  0  0  0  0  0  0  0  0  0  0
   -3.6894   -2.4770    0.8645 C   0  0  0  0  0  0  0  0  0  0  0  0
   -5.0469   -1.9241    0.5974 C   0  0  0  0  0  0  0  0  0  0  0  0
   -6.0385   -3.0633    0.8442 C   0  0  0  0  0  0  0  0  0  0  0  0
   -5.4516   -4.3823    0.3720 C   0  0  0  0  0  0  0  0  0  0  0  0
   -4.3672   -4.8291    1.3322 C   0  0  0  0  0  0  0  0  0  0  0  0
   -3.7138   -3.5927    1.8913 C   0  0  0  0  0  0  0  0  0  0  0  0
    5.5462   -4.1723   -2.3568 O   0  0  0  0  0  0  0  0  0  0  0  0
    6.6976   -2.7061   -3.6462 O   0  0  0  0  0  0  0  0  0  0  0  0
    5.9137   -0.5913    0.0161 O   0  0  0  0  0  0  0  0  0  0  0  0
    6.6418   -3.3424   -2.3888 C   0  0  0  0  0  0  0  0  0  0  0  0
    6.7135   -2.3876   -1.2697 C   0  0  0  0  0  0  0  0  0  0  0  0
    5.6076   -1.3921   -1.1181 C   0  0  1  0  0  0  0  0  0  0  0  0
    4.2439   -1.9580   -1.0696 C   0  0  0  0  0  0  0  0  0  0  0  0
    3.1435   -0.9071   -1.0491 C   0  0  1  0  0  0  0  0  0  0  0  0
    3.2527    0.0049    0.1206 C   0  0  0  0  0  0  0  0  0  0  0  0
    2.2002    1.0440    0.3024 C   0  0  0  0  0  0  0  0  0  0  0  0
    0.8923    0.8802    0.5365 N   0  0  0  0  0  0  0  0  0  0  0  0
   -1.1120    1.4017   -0.5117 C   0  0  0  0  0  0  0  0  0  0  0  0
   -1.3371    0.3373    0.5094 C   0  0  0  0  0  0  0  0  0  0  0  0
   -2.4526   -0.5752    0.2525 C   0  0  0  0  0  0  0  0  0  0  0  0
   -2.6955   -1.5458    1.2812 N   0  0  0  0  0  0  0  0  0  0  0  0
   -3.6771    0.0957    0.0728 O   0  0  0  0  0  0  0  0  0  0  0  0
    0.0705   -0.2411    0.6204 C   0  0  0  0  0  0  0  0  0  0  0  0
    0.1414   -1.0549    1.8713 C   0  0  0  0  0  0  0  0  0  0  0  0
   -0.1773   -0.3340    3.1285 C   0  0  0  0  0  0  0  0  0  0  0  0
    1.3706   -1.9371    2.0127 C   0  0  0  0  0  0  0  0  0  0  0  0
    3.1976   -0.1907   -2.2747 O   0  0  0  0  0  0  0  0  0  0  0  0
   -1.3889    0.4425   -2.8724 C   0  0  0  0  0  0  0  0  0  0  0  0
   -0.5730    1.1154   -1.8361 C   0  0  0  0  0  0  0  0  0  0  0  0
   -0.1444    2.4372   -2.4668 C   0  0  0  0  0  0  0  0  0  0  0  0
   -0.6762    2.6639   -3.8496 C   0  0  0  0  0  0  0  0  0  0  0  0
   -2.1508    2.4997   -3.9541 C   0  0  0  0  0  0  0  0  0  0  0  0
   -2.5986    1.2650   -3.2524 C   0  0  0  0  0  0  0  0  0  0  0  0
   -1.7073    4.5117    2.5317 C   0  0  0  0  0  0  0  0  0  0  0  0
   -1.2926    3.9672    1.1550 C   0  0  0  0  0  0  0  0  0  0  0  0
   -0.2828    2.8559    1.4166 C   0  0  0  0  0  0  0  0  0  0  0  0
    0.9916    3.6169    1.8392 C   0  0  0  0  0  0  0  0  0  0  0  0
    0.6515    5.0001    2.3872 C   0  0  0  0  0  0  0  0  0  0  0  0
   -0.4865    4.7843    3.3803 C   0  0  0  0  0  0  0  0  0  0  0  0
   -0.6483    5.8398    4.2239 F   0  0  0  0  0  0  0  0  0  0  0  0
    0.0485    2.0584    0.2632 C   0  0  0  0  0  0  0  0  0  0  0  0
   -3.6894   -2.4770    0.8645 C   0  0  0  0  0  0  0  0  0  0  0  0
   -5.0469   -1.9241    0.5974 C   0  0  0  0  0  0  0  0  0  0  0  0
   -6.0385   -3.0633    0.8442 C   0  0  0  0  0  0  0  0  0  0  0  0
   -5.4516   -4.3823    0.3720 C   0  0  0  0  0  0  0  0  0  0  0  0
   -4.3672   -4.8291    1.3322 C   0  0  0  0  0  0  0  0  0  0  0  0
   -3.7138   -3.5927    1.8913 C   0  0  0  0  0  0  0  0  0  0  0  0
    5.5462   -4.1723   -2.3568 O   0  0  0  0  0  0  0  0  0  0  0  0
    6.6976   -2.7061   -3.6462 O   0  0  0  0  0  0  0  0  0  0  0  0
    5.9137   -0.5913    0.0161 O   0  0  0  0  0  0  0  0  0  0  0  0
    6.6418   -3.3424   -2.3888 C   0  0  0  0  0  0  0  0  0  0  0  0
    6.7135   -2.3876   -1.2697 C   0  0  0  0  0  0  0  0  0  0  0  0
    5.6076   -1.3921   -1.1181 C   0  0  1  0  0  0  0  0  0  0  0  0
    4.2439   -1.9580   -1.0696 C   0  0  0  0  0  0  0  0  0  0  0  0
    3.1435   -0.9071   -1.0491 C   0  0  1  0  0  0  0  0  0  0  0  0
    3.2527    0.0049    0.1206 C   0  0  0  0  0  0  0  0  0  0  0  0
    2.2002    1.0440    0.3024 C   0  0  0  0  0  0  0  0  0  0  0  0
    0.8923    0.8802    0.5365 N   0  0  0  0  0  0  0  0  0  0  0  0
   -1.1120    1.4017   -0.5117 C   0  0  0  0  0  0  0  0  0  0  0  0
   -1.3371    0.3373    0.5094 C   0  0  0  0  0  0  0  0  0  0  0  0
   -2.4526   -0.5752    0.2525 C   0  0  0  0  0  0  0  0  0  0  0  0
   -2.6955   -1.5458    1.2812 N   0  0  0  0  0  0  0  0  0  0  0  0
   -3.6771    0.0957    0.0728 O   0  0  0  0  0  0  0  0  0  0  0  0
    0.0705   -0.2411    0.6204 C   0  0  0  0  0  0  0  0  0  0  0  0
    0.1414   -1.0549    1.8713 C   0  0  0  0  0  0  0  0  0  0  0  0
   -0.1773   -0.3340    3.1285 C   0  0  0  0  0  0  0  0  0  0  0  0
    1.3706   -1.9371    2.0127 C   0  0  0  0  0  0  0  0  0  0  0  0
    3.1976   -0.1907   -2.2747 O   0  0  0  0  0  0  0  0  0  0  0  0
   -1.5909   -0.6275   -2.7515 H   0  0  0  0  0  0  0  0  0  0  0  0
   -0.7471    0.4454   -3.8132 H   0  0  0  0  0  0  0  0  0  0  0  0
    0.4015    0.5258   -1.7778 H   0  0  0  0  0  0  0  0  0  0  0  0
   -0.6079    3.2523   -1.8351 H   0  0  0  0  0  0  0  0  0  0  0  0
    0.9544    2.5939   -2.4183 H   0  0  0  0  0  0  0  0  0  0  0  0
   -0.4857    3.7730   -4.0395 H   0  0  0  0  0  0  0  0  0  0  0  0
   -0.0760    2.1067   -4.5850 H   0  0  0  0  0  0  0  0  0  0  0  0
   -2.7176    3.4102   -3.6453 H   0  0  0  0  0  0  0  0  0  0  0  0
   -2.3936    2.4096   -5.0584 H   0  0  0  0  0  0  0  0  0  0  0  0
   -3.2619    1.4565   -2.3812 H   0  0  0  0  0  0  0  0  0  0  0  0
   -3.1934    0.6179   -3.9521 H   0  0  0  0  0  0  0  0  0  0  0  0
   -2.3835    3.7528    2.9674 H   0  0  0  0  0  0  0  0  0  0  0  0
   -2.2519    5.4680    2.4398 H   0  0  0  0  0  0  0  0  0  0  0  0
   -0.9101    4.7371    0.4920 H   0  0  0  0  0  0  0  0  0  0  0  0
   -2.2429    3.5851    0.7241 H   0  0  0  0  0  0  0  0  0  0  0  0
   -0.6160    2.3264    2.3094 H   0  0  0  0  0  0  0  0  0  0  0  0
    1.5171    3.1072    2.6604 H   0  0  0  0  0  0  0  0  0  0  0  0
    1.6644    3.7992    0.9848 H   0  0  0  0  0  0  0  0  0  0  0  0
    1.5670    5.3395    2.9254 H   0  0  0  0  0  0  0  0  0  0  0  0
    0.4277    5.7386    1.6226 H   0  0  0  0  0  0  0  0  0  0  0  0
   -0.2536    3.8376    3.9264 H   0  0  0  0  0  0  0  0  0  0  0  0
    0.6803    2.6562   -0.4558 H   0  0  0  0  0  0  0  0  0  0  0  0
   -3.3185   -2.9509   -0.0858 H   0  0  0  0  0  0  0  0  0  0  0  0
   -5.1219   -1.6517   -0.4658 H   0  0  0  0  0  0  0  0  0  0  0  0
   -5.3182   -1.0459    1.2238 H   0  0  0  0  0  0  0  0  0  0  0  0
   -6.9834   -2.9188    0.2888 H   0  0  0  0  0  0  0  0  0  0  0  0
   -6.2162   -3.1501    1.9312 H   0  0  0  0  0  0  0  0  0  0  0  0
   -6.2303   -5.1609    0.2844 H   0  0  0  0  0  0  0  0  0  0  0  0
   -4.9783   -4.2869   -0.6207 H   0  0  0  0  0  0  0  0  0  0  0  0
   -4.7625   -5.4613    2.1605 H   0  0  0  0  0  0  0  0  0  0  0  0
   -3.5870   -5.3885    0.7590 H   0  0  0  0  0  0  0  0  0  0  0  0
   -4.1895   -3.2466    2.8333 H   0  0  0  0  0  0  0  0  0  0  0  0
   -2.6472   -3.8725    2.1352 H   0  0  0  0  0  0  0  0  0  0  0  0
    5.4124   -4.5620   -1.4781 H   0  0  0  0  0  0  0  0  0  0  0  0
    6.9780   -3.3957   -4.2902 H   0  0  0  0  0  0  0  0  0  0  0  0
    6.7870   -0.1852   -0.1673 H   0  0  0  0  0  0  0  0  0  0  0  0
    7.5811   -3.9823   -2.3648 H   0  0  0  0  0  0  0  0  0  0  0  0
    7.6828   -1.8216   -1.3550 H   0  0  0  0  0  0  0  0  0  0  0  0
    6.7349   -3.0015   -0.3111 H   0  0  0  0  0  0  0  0  0  0  0  0
    5.6404   -0.6374   -1.9633 H   0  0  0  0  0  0  0  0  0  0  0  0
    4.0897   -2.6178   -1.9613 H   0  0  0  0  0  0  0  0  0  0  0  0
    4.0839   -2.6414   -0.1936 H   0  0  0  0  0  0  0  0  0  0  0  0
    2.1904   -1.4733   -1.1346 H   0  0  0  0  0  0  0  0  0  0  0  0
    3.5650   -0.5460    1.0061 H   0  0  0  0  0  0  0  0  0  0  0  0
    4.2309    0.6197   -0.1418 H   0  0  0  0  0  0  0  0  0  0  0  0
    2.4048    1.7864   -0.5799 H   0  0  0  0  0  0  0  0  0  0  0  0
    2.6562    1.6895    1.1976 H   0  0  0  0  0  0  0  0  0  0  0  0
   -1.9772    2.0830   -0.6058 H   0  0  0  0  0  0  0  0  0  0  0  0
   -1.5165    0.8494    1.4624 H   0  0  0  0  0  0  0  0  0  0  0  0
   -2.2470   -1.2296   -0.6535 H   0  0  0  0  0  0  0  0  0  0  0  0
   -2.9622   -1.0689    2.1962 H   0  0  0  0  0  0  0  0  0  0  0  0
   -3.6895    0.9507    0.5430 H   0  0  0  0  0  0  0  0  0  0  0  0
    0.2060   -0.9219   -0.2814 H   0  0  0  0  0  0  0  0  0  0  0  0
   -0.6842   -1.8374    1.7538 H   0  0  0  0  0  0  0  0  0  0  0  0
   -0.0962   -1.0271    4.0301 H   0  0  0  0  0  0  0  0  0  0  0  0
    0.6192    0.4365    3.3152 H   0  0  0  0  0  0  0  0  0  0  0  0
   -1.1690    0.1076    3.2234 H   0  0  0  0  0  0  0  0  0  0  0  0
    1.0954   -2.8842    2.5862 H   0  0  0  0  0  0  0  0  0  0  0  0
    2.1666   -1.4789    2.6216 H   0  0  0  0  0  0  0  0  0  0  0  0
    1.7181   -2.2661    1.0254 H   0  0  0  0  0  0  0  0  0  0  0  0
    2.7557    0.6604   -2.1694 H   0  0  0  0  0  0  0  0  0  0  0  0
   -1.5909   -0.6275   -2.7515 H   0  0  0  0  0  0  0  0  0  0  0  0
   -0.7471    0.4454   -3.8132 H   0  0  0  0  0  0  0  0  0  0  0  0
    0.4015    0.5258   -1.7778 H   0  0  0  0  0  0  0  0  0  0  0  0
   -0.6079    3.2523   -1.8351 H   0  0  0  0  0  0  0  0  0  0  0  0
    0.9544    2.5939   -2.4183 H   0  0  0  0  0  0  0  0  0  0  0  0
   -0.4857    3.7730   -4.0395 H   0  0  0  0  0  0  0  0  0  0  0  0
   -0.0760    2.1067   -4.5850 H   0  0  0  0  0  0  0  0  0  0  0  0
   -2.7176    3.4102   -3.6453 H   0  0  0  0  0  0  0  0  0  0  0  0
   -2.3936    2.4096   -5.0584 H   0  0  0  0  0  0  0  0  0  0  0  0
   -3.2619    1.4565   -2.3812 H   0  0  0  0  0  0  0  0  0  0  0  0
   -3.1934    0.6179   -3.9521 H   0  0  0  0  0  0  0  0  0  0  0  0
   -2.3835    3.7528    2.9674 H   0  0  0  0  0  0  0  0  0  0  0  0
   -2.2519    5.4680    2.4398 H   0  0  0  0  0  0  0  0  0  0  0  0
   -0.9101    4.7371    0.4920 H   0  0  0  0  0  0  0  0  0  0  0  0
   -2.2429    3.5851    0.7241 H   0  0  0  0  0  0  0  0  0  0  0  0
   -0.6160    2.3264    2.3094 H   0  0  0  0  0  0  0  0  0  0  0  0
    1.5171    3.1072    2.6604 H   0  0  0  0  0  0  0  0  0  0  0  0
    1.6644    3.7992    0.9848 H   0  0  0  0  0  0  0  0  0  0  0  0
    1.5670    5.3395    2.9254 H   0  0  0  0  0  0  0  0  0  0  0  0
    0.4277    5.7386    1.6226 H   0  0  0  0  0  0  0  0  0  0  0  0
   -0.2536    3.8376    3.9264 H   0  0  0  0  0  0  0  0  0  0  0  0
    0.6803    2.6562   -0.4558 H   0  0  0  0  0  0  0  0  0  0  0  0
   -3.3185   -2.9509   -0.0858 H   0  0  0  0  0  0  0  0  0  0  0  0
   -5.1219   -1.6517   -0.4658 H   0  0  0  0  0  0  0  0  0  0  0  0
   -5.3182   -1.0459    1.2238 H   0  0  0  0  0  0  0  0  0  0  0  0
   -6.9834   -2.9188    0.2888 H   0  0  0  0  0  0  0  0  0  0  0  0
   -6.2162   -3.1501    1.9312 H   0  0  0  0  0  0  0  0  0  0  0  0
   -6.2303   -5.1609    0.2844 H   0  0  0  0  0  0  0  0  0  0  0  0
   -4.9783   -4.2869   -0.6207 H   0  0  0  0  0  0  0  0  0  0  0  0
   -4.7625   -5.4613    2.1605 H   0  0  0  0  0  0  0  0  0  0  0  0
   -3.5870   -5.3885    0.7590 H   0  0  0  0  0  0  0  0  0  0  0  0
   -4.1895   -3.2466    2.8333 H   0  0  0  0  0  0  0  0  0  0  0  0
   -2.6472   -3.8725    2.1352 H   0  0  0  0  0  0  0  0  0  0  0  0
    5.4124   -4.5620   -1.4781 H   0  0  0  0  0  0  0  0  0  0  0  0
    6.9780   -3.3957   -4.2902 H   0  0  0  0  0  0  0  0  0  0  0  0
    6.7870   -0.1852   -0.1673 H   0  0  0  0  0  0  0  0  0  0  0  0
    7.5811   -3.9823   -2.3648 H   0  0  0  0  0  0  0  0  0  0  0  0
    7.6828   -1.8216   -1.3550 H   0  0  0  0  0  0  0  0  0  0  0  0
    6.7349   -3.0015   -0.3111 H   0  0  0  0  0  0  0  0  0  0  0  0
    5.6404   -0.6374   -1.9633 H   0  0  0  0  0  0  0  0  0  0  0  0
    4.0897   -2.6178   -1.9613 H   0  0  0  0  0  0  0  0  0  0  0  0
    4.0839   -2.6414   -0.1936 H   0  0  0  0  0  0  0  0  0  0  0  0
    2.1904   -1.4733   -1.1346 H   0  0  0  0  0  0  0  0  0  0  0  0
    3.5650   -0.5460    1.0061 H   0  0  0  0  0  0  0  0  0  0  0  0
    4.2309    0.6197   -0.1418 H   0  0  0  0  0  0  0  0  0  0  0  0
    2.4048    1.7864   -0.5799 H   0  0  0  0  0  0  0  0  0  0  0  0
    2.6562    1.6895    1.1976 H   0  0  0  0  0  0  0  0  0  0  0  0
   -1.9772    2.0830   -0.6058 H   0  0  0  0  0  0  0  0  0  0  0  0
   -1.5165    0.8494    1.4624 H   0  0  0  0  0  0  0  0  0  0  0  0
   -2.2470   -1.2296   -0.6535 H   0  0  0  0  0  0  0  0  0  0  0  0
   -2.9622   -1.0689    2.1962 H   0  0  0  0  0  0  0  0  0  0  0  0
   -3.6895    0.9507    0.5430 H   0  0  0  0  0  0  0  0  0  0  0  0
    0.2060   -0.9219   -0.2814 H   0  0  0  0  0  0  0  0  0  0  0  0
   -0.6842   -1.8374    1.7538 H   0  0  0  0  0  0  0  0  0  0  0  0
   -0.0962   -1.0271    4.0301 H   0  0  0  0  0  0  0  0  0  0  0  0
    0.6192    0.4365    3.3152 H   0  0  0  0  0  0  0  0  0  0  0  0
   -1.1690    0.1076    3.2234 H   0  0  0  0  0  0  0  0  0  0  0  0
    1.0954   -2.8842    2.5862 H   0  0  0  0  0  0  0  0  0  0  0  0
    2.1666   -1.4789    2.6216 H   0  0  0  0  0  0  0  0  0  0  0  0
    1.7181   -2.2661    1.0254 H   0  0  0  0  0  0  0  0  0  0  0  0
    2.7557    0.6604   -2.1694 H   0  0  0  0  0  0  0  0  0  0  0  0
   -1.5909   -0.6275   -2.7515 H   0  0  0  0  0  0  0  0  0  0  0  0
   -0.7471    0.4454   -3.8132 H   0  0  0  0  0  0  0  0  0  0  0  0
    0.4015    0.5258   -1.7778 H   0  0  0  0  0  0  0  0  0  0  0  0
   -0.6079    3.2523   -1.8351 H   0  0  0  0  0  0  0  0  0  0  0  0
    0.9544    2.5939   -2.4183 H   0  0  0  0  0  0  0  0  0  0  0  0
   -0.4857    3.7730   -4.0395 H   0  0  0  0  0  0  0  0  0  0  0  0
   -0.0760    2.1067   -4.5850 H   0  0  0  0  0  0  0  0  0  0  0  0
   -2.7176    3.4102   -3.6453 H   0  0  0  0  0  0  0  0  0  0  0  0
   -2.3936    2.4096   -5.0584 H   0  0  0  0  0  0  0  0  0  0  0  0
   -3.2619    1.4565   -2.3812 H   0  0  0  0  0  0  0  0  0  0  0  0
   -3.1934    0.6179   -3.9521 H   0  0  0  0  0  0  0  0  0  0  0  0
   -2.3835    3.7528    2.9674 H   0  0  0  0  0  0  0  0  0  0  0  0
   -2.2519    5.4680    2.4398 H   0  0  0  0  0  0  0  0  0  0  0  0
   -0.9101    4.7371    0.4920 H   0  0  0  0  0  0  0  0  0  0  0  0
   -2.2429    3.5851    0.7241 H   0  0  0  0  0  0  0  0  0  0  0  0
   -0.6160    2.3264    2.3094 H   0  0  0  0  0  0  0  0  0  0  0  0
    1.5171    3.1072    2.6604 H   0  0  0  0  0  0  0  0  0  0  0  0
    1.6644    3.7992    0.9848 H   0  0  0  0  0  0  0  0  0  0  0  0
    1.5670    5.3395    2.9254 H   0  0  0  0  0  0  0  0  0  0  0  0
    0.4277    5.7386    1.6226 H   0  0  0  0  0  0  0  0  0  0  0  0
   -0.2536    3.8376    3.9264 H   0  0  0  0  0  0  0  0  0  0  0  0
    0.6803    2.6562   -0.4558 H   0  0  0  0  0  0  0  0  0  0  0  0
   -3.3185   -2.9509   -0.0858 H   0  0  0  0  0  0  0  0  0  0  0  0
   -5.1219   -1.6517   -0.4658 H   0  0  0  0  0  0  0  0  0  0  0  0
   -5.3182   -1.0459    1.2238 H   0  0  0  0  0  0  0  0  0  0  0  0
   -6.9834   -2.9188    0.2888 H   0  0  0  0  0  0  0  0  0  0  0  0
   -6.2162   -3.1501    1.9312 H   0  0  0  0  0  0  0  0  0  0  0  0
   -6.2303   -5.1609    0.2844 H   0  0  0  0  0  0  0  0  0  0  0  0
   -4.9783   -4.2869   -0.6207 H   0  0  0  0  0  0  0  0  0  0  0  0
   -4.7625   -5.4613    2.1605 H   0  0  0  0  0  0  0  0  0  0  0  0
   -3.5870   -5.3885    0.7590 H   0  0  0  0  0  0  0  0  0  0  0  0
   -4.1895   -3.2466    2.8333 H   0  0  0  0  0  0  0  0  0  0  0  0
   -2.6472   -3.8725    2.1352 H   0  0  0  0  0  0  0  0  0  0  0  0
    5.4124   -4.5620   -1.4781 H   0  0  0  0  0  0  0  0  0  0  0  0
    6.9780   -3.3957   -4.2902 H   0  0  0  0  0  0  0  0  0  0  0  0
    6.7870   -0.1852   -0.1673 H   0  0  0  0  0  0  0  0  0  0  0  0
    7.5811   -3.9823   -2.3648 H   0  0  0  0  0  0  0  0  0  0  0  0
    7.6828   -1.8216   -1.3550 H   0  0  0  0  0  0  0  0  0  0  0  0
    6.7349   -3.0015   -0.3111 H   0  0  0  0  0  0  0  0  0  0  0  0
    5.6404   -0.6374   -1.9633 H   0  0  0  0  0  0  0  0  0  0  0  0
    4.0897   -2.6178   -1.9613 H   0  0  0  0  0  0  0  0  0  0  0  0
    4.0839   -2.6414   -0.1936 H   0  0  0  0  0  0  0  0  0  0  0  0
    2.1904   -1.4733   -1.1346 H   0  0  0  0  0  0  0  0  0  0  0  0
    3.5650   -0.5460    1.0061 H   0  0  0  0  0  0  0  0  0  0  0  0
    4.2309    0.6197   -0.1418 H   0  0  0  0  0  0  0  0  0  0  0  0
    2.4048    1.7864   -0.5799 H   0  0  0  0  0  0  0  0  0  0  0  0
    2.6562    1.6895    1.1976 H   0  0  0  0  0  0  0  0  0  0  0  0
   -1.9772    2.0830   -0.6058 H   0  0  0  0  0  0  0  0  0  0  0  0
   -1.5165    0.8494    1.4624 H   0  0  0  0  0  0  0  0  0  0  0  0
   -2.2470   -1.2296   -0.6535 H   0  0  0  0  0  0  0  0  0  0  0  0
   -2.9622   -1.0689    2.1962 H   0  0  0  0  0  0  0  0  0  0  0  0
   -3.6895    0.9507    0.5430 H   0  0  0  0  0  0  0  0  0  0  0  0
    0.2060   -0.9219   -0.2814 H   0  0  0  0  0  0  0  0  0  0  0  0
   -0.6842   -1.8374    1.7538 H   0  0  0  0  0  0  0  0  0  0  0  0
   -0.0962   -1.0271    4.0301 H   0  0  0  0  0  0  0  0  0  0  0  0
    0.6192    0.4365    3.3152 H   0  0  0  0  0  0  0  0  0  0  0  0
   -1.1690    0.1076    3.2234 H   0  0  0  0  0  0  0  0  0  0  0  0
    1.0954   -2.8842    2.5862 H   0  0  0  0  0  0  0  0  0  0  0  0
    2.1666   -1.4789    2.6216 H   0  0  0  0  0  0  0  0  0  0  0  0
    1.7181   -2.2661    1.0254 H   0  0  0  0  0  0  0  0  0  0  0  0
    2.7557    0.6604   -2.1694 H   0  0  0  0  0  0  0  0  0  0  0  0
   -1.5909   -0.6275   -2.7515 H   0  0  0  0  0  0  0  0  0  0  0  0
   -0.7471    0.4454   -3.8132 H   0  0  0  0  0  0  0  0  0  0  0  0
    0.4015    0.5258   -1.7778 H   0  0  0  0  0  0  0  0  0  0  0  0
   -0.6079    3.2523   -1.8351 H   0  0  0  0  0  0  0  0  0  0  0  0
    0.9544    2.5939   -2.4183 H   0  0  0  0  0  0  0  0  0  0  0  0
   -0.4857    3.7730   -4.0395 H   0  0  0  0  0  0  0  0  0  0  0  0
   -0.0760    2.1067   -4.5850 H   0  0  0  0  0  0  0  0  0  0  0  0
   -2.7176    3.4102   -3.6453 H   0  0  0  0  0  0  0  0  0  0  0  0
   -2.3936    2.4096   -5.0584 H   0  0  0  0  0  0  0  0  0  0  0  0
   -3.2619    1.4565   -2.3812 H   0  0  0  0  0  0  0  0  0  0  0  0
   -3.1934    0.6179   -3.9521 H   0  0  0  0  0  0  0  0  0  0  0  0
   -2.3835    3.7528    2.9674 H   0  0  0  0  0  0  0  0  0  0  0  0
   -2.2519    5.4680    2.4398 H   0  0  0  0  0  0  0  0  0  0  0  0
   -0.9101    4.7371    0.4920 H   0  0  0  0  0  0  0  0  0  0  0  0
   -2.2429    3.5851    0.7241 H   0  0  0  0  0  0  0  0  0  0  0  0
   -0.6160    2.3264    2.3094 H   0  0  0  0  0  0  0  0  0  0  0  0
    1.5171    3.1072    2.6604 H   0  0  0  0  0  0  0  0  0  0  0  0
    1.6644    3.7992    0.9848 H   0  0  0  0  0  0  0  0  0  0  0  0
    1.5670    5.3395    2.9254 H   0  0  0  0  0  0  0  0  0  0  0  0
    0.4277    5.7386    1.6226 H   0  0  0  0  0  0  0  0  0  0  0  0
   -0.2536    3.8376    3.9264 H   0  0  0  0  0  0  0  0  0  0  0  0
    0.6803    2.6562   -0.4558 H   0  0  0  0  0  0  0  0  0  0  0  0
   -3.3185   -2.9509   -0.0858 H   0  0  0  0  0  0  0  0  0  0  0  0
   -5.1219   -1.6517   -0.4658 H   0  0  0  0  0  0  0  0  0  0  0  0
   -5.3182   -1.0459    1.2238 H   0  0  0  0  0  0  0  0  0  0  0  0
   -6.9834   -2.9188    0.2888 H   0  0  0  0  0  0  0  0  0  0  0  0
   -6.2162   -3.1501    1.9312 H   0  0  0  0  0  0  0  0  0  0  0  0
   -6.2303   -5.1609    0.2844 H   0  0  0  0  0  0  0  0  0  0  0  0
   -4.9783   -4.2869   -0.6207 H   0  0  0  0  0  0  0  0  0  0  0  0
   -4.7625   -5.4613    2.1605 H   0  0  0  0  0  0  0  0  0  0  0  0
   -3.5870   -5.3885    0.7590 H   0  0  0  0  0  0  0  0  0  0  0  0
   -4.1895   -3.2466    2.8333 H   0  0  0  0  0  0  0  0  0  0  0  0
   -2.6472   -3.8725    2.1352 H   0  0  0  0  0  0  0  0  0  0  0  0
    5.4124   -4.5620   -1.4781 H   0  0  0  0  0  0  0  0  0  0  0  0
    6.9780   -3.3957   -4.2902 H   0  0  0  0  0  0  0  0  0  0  0  0
    6.7870   -0.1852   -0.1673 H   0  0  0  0  0  0  0  0  0  0  0  0
    7.5811   -3.9823   -2.3648 H   0  0  0  0  0  0  0  0  0  0  0  0
    7.6828   -1.8216   -1.3550 H   0  0  0  0  0  0  0  0  0  0  0  0
    6.7349   -3.0015   -0.3111 H   0  0  0  0  0  0  0  0  0  0  0  0
    5.6404   -0.6374   -1.9633 H   0  0  0  0  0  0  0  0  0  0  0  0
    4.0897   -2.6178   -1.9613 H   0  0  0  0  0  0  0  0  0  0  0  0
    4.0839   -2.6414   -0.1936 H   0  0  0  0  0  0  0  0  0  0  0  0
    2.1904   -1.4733   -1.1346 H   0  0  0  0  0  0  0  0  0  0  0  0
    3.5650   -0.5460    1.0061 H   0  0  0  0  0  0  0  0  0  0  0  0
    4.2309    0.6197   -0.1418 H   0  0  0  0  0  0  0  0  0  0  0  0
    2.4048    1.7864   -0.5799 H   0  0  0  0  0  0  0  0  0  0  0  0
    2.6562    1.6895    1.1976 H   0  0  0  0  0  0  0  0  0  0  0  0
   -1.9772    2.0830   -0.6058 H   0  0  0  0  0  0  0  0  0  0  0  0
   -1.5165    0.8494    1.4624 H   0  0  0  0  0  0  0  0  0  0  0  0
   -2.2470   -1.2296   -0.6535 H   0  0  0  0  0  0  0  0  0  0  0  0
   -2.9622   -1.0689    2.1962 H   0  0  0  0  0  0  0  0  0  0  0  0
   -3.6895    0.9507    0.5430 H   0  0  0  0  0  0  0  0  0  0  0  0
    0.2060   -0.9219   -0.2814 H   0  0  0  0  0  0  0  0  0  0  0  0
   -0.6842   -1.8374    1.7538 H   0  0  0  0  0  0  0  0  0  0  0  0
   -0.0962   -1.0271    4.0301 H   0  0  0  0  0  0  0  0  0  0  0  0
    0.6192    0.4365    3.3152 H   0  0  0  0  0  0  0  0  0  0  0  0
   -1.1690    0.1076    3.2234 H   0  0  0  0  0  0  0  0  0  0  0  0
    1.0954   -2.8842    2.5862 H   0  0  0  0  0  0  0  0  0  0  0  0
    2.1666   -1.4789    2.6216 H   0  0  0  0  0  0  0  0  0  0  0  0
    1.7181   -2.2661    1.0254 H   0  0  0  0  0  0  0  0  0  0  0  0
    2.7557    0.6604   -2.1694 H   0  0  0  0  0  0  0  0  0  0  0  0
  1  2  1  0
  2  3  1  0
  3  4  1  0
  4  5  1  0
  1  6  1  0
  5  6  1  0
  7  8  1  0
  8  9  1  0
  9 10  1  0
 10 11  1  0
  7 12  1  0
 11 12  1  0
 12 13  1  0
  9 14  1  0
 15 16  1  0
 16 17  1  0
 17 18  1  0
 18 19  1  0
 15 20  1  0
 19 20  1  0
 21 24  1  0
 22 24  1  0
 24 25  1  0
 23 26  1  0
 25 26  1  0
 26 27  1  0
 27 28  1  0
 28 29  1  0
 29 30  1  0
 14 31  1  0
 30 31  1  0
  2 32  1  0
 14 32  1  0
 32 33  1  0
 33 34  1  0
 15 35  1  0
 34 35  1  0
 34 36  1  0
 31 37  1  0
 33 37  1  0
 37 38  1  0
 38 39  1  0
 38 40  1  0
 28 41  1  0
 42 43  1  0
 43 44  1  0
 44 45  1  0
 45 46  1  0
 42 47  1  0
 46 47  1  0
 48 49  1  0
 49 50  1  0
 50 51  1  0
 51 52  1  0
 48 53  1  0
 52 53  1  0
 53 54  1  0
 50 55  1  0
 56 57  1  0
 57 58  1  0
 58 59  1  0
 59 60  1  0
 56 61  1  0
 60 61  1  0
 62 65  1  0
 63 65  1  0
 65 66  1  0
 64 67  1  0
 66 67  1  0
 67 68  1  0
 68 69  1  0
 69 70  1  0
 70 71  1  0
 55 72  1  0
 71 72  1  0
 43 73  1  0
 55 73  1  0
 73 74  1  0
 74 75  1  0
 56 76  1  0
 75 76  1  0
 75 77  1  0
 72 78  1  0
 74 78  1  0
 78 79  1  0
 79 80  1  0
 79 81  1  0
 69 82  1  0
 83 84  1  0
 84 85  1  0
 85 86  1  0
 86 87  1  0
 83 88  1  0
 87 88  1  0
 89 90  1  0
 90 91  1  0
 91 92  1  0
 92 93  1  0
 89 94  1  0
 93 94  1  0
 94 95  1  0
 91 96  1  0
 97 98  1  0
 98 99  1  0
 99100  1  0
100101  1  0
 97102  1  0
101102  1  0
103106  1  0
104106  1  0
106107  1  0
105108  1  0
107108  1  0
108109  1  0
109110  1  0
110111  1  0
111112  1  0
 96113  1  0
112113  1  0
 84114  1  0
 96114  1  0
114115  1  0
115116  1  0
 97117  1  0
116117  1  0
116118  1  0
113119  1  0
115119  1  0
119120  1  0
120121  1  0
120122  1  0
110123  1  0
124125  1  0
125126  1  0
126127  1  0
127128  1  0
124129  1  0
128129  1  0
130131  1  0
131132  1  0
132133  1  0
133134  1  0
130135  1  0
134135  1  0
135136  1  0
132137  1  0
138139  1  0
139140  1  0
140141  1  0
141142  1  0
138143  1  0
142143  1  0
144147  1  0
145147  1  0
147148  1  0
146149  1  0
148149  1  0
149150  1  0
150151  1  0
151152  1  0
152153  1  0
137154  1  0
153154  1  0
125155  1  0
137155  1  0
155156  1  0
156157  1  0
138158  1  0
157158  1  0
157159  1  0
154160  1  0
156160  1  0
160161  1  0
161162  1  0
161163  1  0
151164  1  0
  1165  1  0
  1166  1  0
  2167  1  0
  3168  1  0
  3169  1  0
  4170  1  0
  4171  1  0
  5172  1  0
  5173  1  0
  6174  1  0
  6175  1  0
  7176  1  0
  7177  1  0
  8178  1  0
  8179  1  0
  9180  1  0
 10181  1  0
 10182  1  0
 11183  1  0
 11184  1  0
 12185  1  0
 14186  1  0
 15187  1  0
 16188  1  0
 16189  1  0
 17190  1  0
 17191  1  0
 18192  1  0
 18193  1  0
 19194  1  0
 19195  1  0
 20196  1  0
 20197  1  0
 21198  1  0
 22199  1  0
 23200  1  0
 24201  1  0
 25202  1  0
 25203  1  0
 26204  1  6
 27205  1  0
 27206  1  0
 28207  1  1
 29208  1  0
 29209  1  0
 30210  1  0
 30211  1  0
 32212  1  0
 33213  1  0
 34214  1  0
 35215  1  0
 36216  1  0
 37217  1  0
 38218  1  0
 39219  1  0
 39220  1  0
 39221  1  0
 40222  1  0
 40223  1  0
 40224  1  0
 41225  1  0
 42226  1  0
 42227  1  0
 43228  1  0
 44229  1  0
 44230  1  0
 45231  1  0
 45232  1  0
 46233  1  0
 46234  1  0
 47235  1  0
 47236  1  0
 48237  1  0
 48238  1  0
 49239  1  0
 49240  1  0
 50241  1  0
 51242  1  0
 51243  1  0
 52244  1  0
 52245  1  0
 53246  1  0
 55247  1  0
 56248  1  0
 57249  1  0
 57250  1  0
 58251  1  0
 58252  1  0
 59253  1  0
 59254  1  0
 60255  1  0
 60256  1  0
 61257  1  0
 61258  1  0
 62259  1  0
 63260  1  0
 64261  1  0
 65262  1  0
 66263  1  0
 66264  1  0
 67265  1  6
 68266  1  0
 68267  1  0
 69268  1  1
 70269  1  0
 70270  1  0
 71271  1  0
 71272  1  0
 73273  1  0
 74274  1  0
 75275  1  0
 76276  1  0
 77277  1  0
 78278  1  0
 79279  1  0
 80280  1  0
 80281  1  0
 80282  1  0
 81283  1  0
 81284  1  0
 81285  1  0
 82286  1  0
 83287  1  0
 83288  1  0
 84289  1  0
 85290  1  0
 85291  1  0
 86292  1  0
 86293  1  0
 87294  1  0
 87295  1  0
 88296  1  0
 88297  1  0
 89298  1  0
 89299  1  0
 90300  1  0
 90301  1  0
 91302  1  0
 92303  1  0
 92304  1  0
 93305  1  0
 93306  1  0
 94307  1  0
 96308  1  0
 97309  1  0
 98310  1  0
 98311  1  0
 99312  1  0
 99313  1  0
100314  1  0
100315  1  0
101316  1  0
101317  1  0
102318  1  0
102319  1  0
103320  1  0
104321  1  0
105322  1  0
106323  1  0
107324  1  0
107325  1  0
108326  1  6
109327  1  0
109328  1  0
110329  1  1
111330  1  0
111331  1  0
112332  1  0
112333  1  0
114334  1  0
115335  1  0
116336  1  0
117337  1  0
118338  1  0
119339  1  0
120340  1  0
121341  1  0
121342  1  0
121343  1  0
122344  1  0
122345  1  0
122346  1  0
123347  1  0
124348  1  0
124349  1  0
125350  1  0
126351  1  0
126352  1  0
127353  1  0
127354  1  0
128355  1  0
128356  1  0
129357  1  0
129358  1  0
130359  1  0
130360  1  0
131361  1  0
131362  1  0
132363  1  0
133364  1  0
133365  1  0
134366  1  0
134367  1  0
135368  1  0
137369  1  0
138370  1  0
139371  1  0
139372  1  0
140373  1  0
140374  1  0
141375  1  0
141376  1  0
142377  1  0
142378  1  0
143379  1  0
143380  1  0
144381  1  0
145382  1  0
146383  1  0
147384  1  0
148385  1  0
148386  1  0
149387  1  6
150388  1  0
150389  1  0
151390  1  1
152391  1  0
152392  1  0
153393  1  0
153394  1  0
155395  1  0
156396  1  0
157397  1  0
158398  1  0
159399  1  0
160400  1  0
161401  1  0
162402  1  0
162403  1  0
162404  1  0
163405  1  0
163406  1  0
163407  1  0
164408  1  0
M  END
>  <PDBID>  (1) 
1HWK

>  <PDB ID>  (1) 
1HWK

>  <Generic Name>  (1) 
Atorvastatin

>  <Brand Name>  (1) 
Ach-atorvastatin Calcium#Act Atorvastatin#Amlodipine Besylate and Atorvastatin Calcium#Amlodipine Besylate/atorvastatin Calcium#Apo-amlodipine-atorvastatin#Apo-atorvastatin#Atorvastatin#Atorvastatin Calcium#Atorvastatin-10#Atorvastatin-20#Atorvastatin-40#Atorvastatin-80#Auro-atorvastatin#Ava-atorvastatin#Caduet#Dom-atorvastatin#Gd-amlodipine/atorvastatin#Gd-atorvastatin#Jamp-atorvastatin#Lipitor#Liptruzet#Mar-atorvastatin#Mylan-amlodipine/atorvastatin#Mylan-atorvastatin#Novo-atorvastatin#Ntp-atorvastatin#PMS-amlodipine-atorvastatin#PMS-atorvastatin#Pendo-amlodipine-atorvastatin#Q-gen Atorvastatin#Ran-atorvastatin#Ratio-atorvastatin#Rbx-atorvastatin#Reddy-atorvastatin#Riva-atorvastatin#Sandoz Atorvastatin#Atogal#Cardyl#Faboxim#Hipolixan#Lipotropic#Liprimar#Lowden#Normalip#Sincol#Sortis#Torvacard#Torvast#Totalip#Tulip#Vastina#Xanator#Xarator#Zurinel

>  <DrugBank ID>  (1) 
DB01076

>  <ATC Codes>  (1) 
C10AA05#C10BA05#C10BX06#C10BX11#C10BX03#C10BX08

>  <Ligand ID>  (1) 
117

>  <Target Name>  (1) 
3-hydroxy-3-methylglutaryl-coenzyme A reductase

>  <UniProt ID>  (1) 
P04035

>  <PDB ID.1>  (1) 
1HWK

>  <Seq. Identity>  (1) 
97%

$$$$
