PDB_DB01026_01
     RDKit          3D

164172  0  0  0  0  0  0  0  0999 V2000
   -6.9407    0.5643    1.5345 C   0  0  0  0  0  0  0  0  0  0  0  0
   -5.7313    1.1619    1.9042 N   0  0  0  0  0  0  0  0  0  0  0  0
   -2.9169    0.8488   -0.4135 O   0  0  0  0  0  0  0  0  0  0  0  0
   -5.5649   -4.8011   -1.8429 Cl  0  0  0  0  0  0  0  0  0  0  0  0
   -7.1007    2.8175    1.1426 C   0  0  0  0  0  0  0  0  0  0  0  0
   -7.5671    1.5462    0.6539 N   0  0  0  0  0  0  0  0  0  0  0  0
   -3.0267   -0.1749    1.5663 O   0  0  0  0  0  0  0  0  0  0  0  0
   -4.5916    0.4402   -2.3899 Cl  0  0  0  0  0  0  0  0  0  0  0  0
   -6.1712    2.5045    2.3238 C   0  0  0  0  0  0  0  0  0  0  0  0
    4.7624    0.2022   -0.2463 N   0  0  0  0  0  0  0  0  0  0  0  0
    0.5732    0.6737   -0.3137 O   0  0  0  0  0  0  0  0  0  0  0  0
   -4.6785    1.3399    0.9870 C   0  0  0  0  0  0  0  0  0  0  0  0
    7.6039   -0.6767   -0.0426 N   0  0  0  0  0  0  0  0  0  0  0  0
    9.0111   -1.0493    1.7056 O   0  0  0  0  0  0  0  0  0  0  0  0
   -3.8352    0.2281    0.5240 C   0  0  1  0  0  0  0  0  0  0  0  0
   -1.7181    0.2210   -0.2386 C   0  0  2  0  0  0  0  0  0  0  0  0
   -1.7154   -0.1513    1.2077 C   0  0  0  0  0  0  0  0  0  0  0  0
   -4.3726   -0.9564   -0.1451 C   0  0  0  0  0  0  0  0  0  0  0  0
   -5.2817   -0.7968   -1.3054 C   0  0  0  0  0  0  0  0  0  0  0  0
   -5.1968   -2.1165   -2.0845 C   0  0  0  0  0  0  0  0  0  0  0  0
   -5.9669   -3.1409   -1.3156 C   0  0  0  0  0  0  0  0  0  0  0  0
   -5.8781   -2.9779    0.1499 C   0  0  0  0  0  0  0  0  0  0  0  0
   -4.7916   -2.1225    0.7009 C   0  0  0  0  0  0  0  0  0  0  0  0
   -0.6418    1.2931   -0.4743 C   0  0  0  0  0  0  0  0  0  0  0  0
    1.6545    1.5383   -0.5004 C   0  0  0  0  0  0  0  0  0  0  0  0
    2.4717    1.0040   -1.6879 C   0  0  0  0  0  0  0  0  0  0  0  0
    2.8213   -0.4270   -1.4796 C   0  0  0  0  0  0  0  0  0  0  0  0
    3.5837   -0.6420   -0.1591 C   0  0  0  0  0  0  0  0  0  0  0  0
    2.6931   -0.1207    0.9231 C   0  0  0  0  0  0  0  0  0  0  0  0
    2.5522    1.3898    0.7062 C   0  0  0  0  0  0  0  0  0  0  0  0
    5.6204   -0.2043   -1.3478 C   0  0  0  0  0  0  0  0  0  0  0  0
    7.0371    0.2213   -1.0240 C   0  0  0  0  0  0  0  0  0  0  0  0
    6.5319   -1.0723    0.8804 C   0  0  0  0  0  0  0  0  0  0  0  0
    5.5759    0.1095    0.9472 C   0  0  0  0  0  0  0  0  0  0  0  0
    8.6332   -0.0794    0.7589 C   0  0  0  0  0  0  0  0  0  0  0  0
    9.8271    0.3566   -0.0362 C   0  0  0  0  0  0  0  0  0  0  0  0
   -6.9670    0.7696    1.4079 C   0  0  0  0  0  0  0  0  0  0  0  0
   -5.7328    1.3493    1.7302 N   0  0  0  0  0  0  0  0  0  0  0  0
   -2.9461    0.7521   -0.5487 O   0  0  0  0  0  0  0  0  0  0  0  0
   -7.8095   -3.1695   -1.6757 Cl  0  0  0  0  0  0  0  0  0  0  0  0
   -7.0513    2.9833    0.8461 C   0  0  0  0  0  0  0  0  0  0  0  0
   -7.5838    1.7096    0.4641 N   0  0  0  0  0  0  0  0  0  0  0  0
   -3.0917   -0.1085    1.5197 O   0  0  0  0  0  0  0  0  0  0  0  0
   -4.6520    0.2918   -2.4945 Cl  0  0  0  0  0  0  0  0  0  0  0  0
   -6.1327    2.7380    2.0305 C   0  0  0  0  0  0  0  0  0  0  0  0
    4.8139    0.0989    0.0257 N   0  0  0  0  0  0  0  0  0  0  0  0
    0.5579    0.5572   -0.2523 O   0  0  0  0  0  0  0  0  0  0  0  0
   -4.6782    1.4134    0.8056 C   0  0  0  0  0  0  0  0  0  0  0  0
    7.7217    0.0726    0.3801 N   0  0  0  0  0  0  0  0  0  0  0  0
    9.5017   -0.9245    1.4649 O   0  0  0  0  0  0  0  0  0  0  0  0
   -3.8741    0.2470    0.4185 C   0  0  1  0  0  0  0  0  0  0  0  0
   -1.7485    0.1343   -0.3383 C   0  0  2  0  0  0  0  0  0  0  0  0
   -1.8119   -0.3190    1.0933 C   0  0  0  0  0  0  0  0  0  0  0  0
   -4.4474   -0.9710   -0.1522 C   0  0  0  0  0  0  0  0  0  0  0  0
   -5.3462   -0.8641   -1.3332 C   0  0  0  0  0  0  0  0  0  0  0  0
   -5.3026   -2.2201   -2.0247 C   0  0  0  0  0  0  0  0  0  0  0  0
   -6.0736   -3.1894   -1.1762 C   0  0  0  0  0  0  0  0  0  0  0  0
   -6.0381   -2.8918    0.2754 C   0  0  0  0  0  0  0  0  0  0  0  0
   -4.9127   -2.0483    0.7748 C   0  0  0  0  0  0  0  0  0  0  0  0
   -0.6420    1.1956   -0.4419 C   0  0  0  0  0  0  0  0  0  0  0  0
    1.6486    1.4276   -0.3209 C   0  0  0  0  0  0  0  0  0  0  0  0
    2.5197    0.9987   -1.4945 C   0  0  0  0  0  0  0  0  0  0  0  0
    2.9354   -0.4462   -1.3682 C   0  0  0  0  0  0  0  0  0  0  0  0
    3.6209   -0.7245   -0.0469 C   0  0  0  0  0  0  0  0  0  0  0  0
    2.6661   -0.3059    1.0421 C   0  0  0  0  0  0  0  0  0  0  0  0
    2.4796    1.2010    0.9199 C   0  0  0  0  0  0  0  0  0  0  0  0
    5.7449   -0.2394   -1.0356 C   0  0  0  0  0  0  0  0  0  0  0  0
    7.0502    0.4893   -0.8056 C   0  0  0  0  0  0  0  0  0  0  0  0
    6.8428   -0.8288    1.0955 C   0  0  0  0  0  0  0  0  0  0  0  0
    5.5151   -0.0980    1.2767 C   0  0  0  0  0  0  0  0  0  0  0  0
    8.9780   -0.5780    0.2024 C   0  0  2  0  0  0  0  0  0  0  0  0
    9.9636    0.3532   -0.4311 C   0  0  0  0  0  0  0  0  0  0  0  0
   -7.6037    0.5784    2.4549 H   0  0  0  0  0  0  0  0  0  0  0  0
   -6.9843   -0.4356    1.1549 H   0  0  0  0  0  0  0  0  0  0  0  0
   -6.5705    3.4048    0.3638 H   0  0  0  0  0  0  0  0  0  0  0  0
   -7.9667    3.4067    1.4692 H   0  0  0  0  0  0  0  0  0  0  0  0
   -7.4112    1.3726   -0.3427 H   0  0  0  0  0  0  0  0  0  0  0  0
   -5.3409    3.2156    2.3836 H   0  0  0  0  0  0  0  0  0  0  0  0
   -6.8083    2.4514    3.2134 H   0  0  0  0  0  0  0  0  0  0  0  0
   -3.9864    2.1035    1.5088 H   0  0  0  0  0  0  0  0  0  0  0  0
   -5.0397    1.9917    0.1273 H   0  0  0  0  0  0  0  0  0  0  0  0
    9.3690   -1.8416    1.2733 H   0  0  0  0  0  0  0  0  0  0  0  0
   -1.5632   -0.6370   -0.9199 H   0  0  0  0  0  0  0  0  0  0  0  0
   -1.2166    0.6560    1.7872 H   0  0  0  0  0  0  0  0  0  0  0  0
   -1.2133   -1.1376    1.3752 H   0  0  0  0  0  0  0  0  0  0  0  0
   -3.4125   -1.4244   -0.6865 H   0  0  0  0  0  0  0  0  0  0  0  0
   -6.3374   -0.6495   -1.1098 H   0  0  0  0  0  0  0  0  0  0  0  0
   -4.1421   -2.4655   -2.1419 H   0  0  0  0  0  0  0  0  0  0  0  0
   -5.5422   -1.9840   -3.1238 H   0  0  0  0  0  0  0  0  0  0  0  0
   -7.0583   -2.9763   -1.5934 H   0  0  0  0  0  0  0  0  0  0  0  0
   -5.7020   -4.0094    0.5780 H   0  0  0  0  0  0  0  0  0  0  0  0
   -6.8739   -2.7029    0.6193 H   0  0  0  0  0  0  0  0  0  0  0  0
   -3.9172   -2.7709    0.9818 H   0  0  0  0  0  0  0  0  0  0  0  0
   -5.1457   -1.7610    1.7183 H   0  0  0  0  0  0  0  0  0  0  0  0
   -0.7739    2.0123    0.3716 H   0  0  0  0  0  0  0  0  0  0  0  0
   -0.7618    1.7513   -1.4580 H   0  0  0  0  0  0  0  0  0  0  0  0
    1.3536    2.5595   -0.7296 H   0  0  0  0  0  0  0  0  0  0  0  0
    3.3272    1.6639   -1.8398 H   0  0  0  0  0  0  0  0  0  0  0  0
    1.8127    1.0778   -2.5675 H   0  0  0  0  0  0  0  0  0  0  0  0
    1.9369   -1.0626   -1.5310 H   0  0  0  0  0  0  0  0  0  0  0  0
    3.5430   -0.7201   -2.2807 H   0  0  0  0  0  0  0  0  0  0  0  0
    3.8106   -1.7039   -0.0992 H   0  0  0  0  0  0  0  0  0  0  0  0
    1.6629   -0.5334    0.7671 H   0  0  0  0  0  0  0  0  0  0  0  0
    2.9879   -0.3714    1.9406 H   0  0  0  0  0  0  0  0  0  0  0  0
    3.5719    1.7367    0.3874 H   0  0  0  0  0  0  0  0  0  0  0  0
    2.1876    1.8995    1.6025 H   0  0  0  0  0  0  0  0  0  0  0  0
    5.3374    0.2956   -2.2875 H   0  0  0  0  0  0  0  0  0  0  0  0
    5.6284   -1.3214   -1.4580 H   0  0  0  0  0  0  0  0  0  0  0  0
    7.1154    1.2797   -0.7596 H   0  0  0  0  0  0  0  0  0  0  0  0
    7.6639    0.0971   -1.9506 H   0  0  0  0  0  0  0  0  0  0  0  0
    6.0378   -1.9854    0.5343 H   0  0  0  0  0  0  0  0  0  0  0  0
    6.9188   -1.2242    1.9071 H   0  0  0  0  0  0  0  0  0  0  0  0
    4.9981   -0.0016    1.8721 H   0  0  0  0  0  0  0  0  0  0  0  0
    6.1801    1.0311    1.0317 H   0  0  0  0  0  0  0  0  0  0  0  0
    8.2593    0.7989    1.3520 H   0  0  0  0  0  0  0  0  0  0  0  0
   10.7299    0.1105    0.5635 H   0  0  0  0  0  0  0  0  0  0  0  0
    9.8226    1.4534   -0.1498 H   0  0  0  0  0  0  0  0  0  0  0  0
    9.8519   -0.1790   -1.0068 H   0  0  0  0  0  0  0  0  0  0  0  0
   -7.6199    0.8663    2.3265 H   0  0  0  0  0  0  0  0  0  0  0  0
   -7.0532   -0.2474    1.0900 H   0  0  0  0  0  0  0  0  0  0  0  0
   -6.5012    3.4246   -0.0197 H   0  0  0  0  0  0  0  0  0  0  0  0
   -7.9171    3.6330    1.1470 H   0  0  0  0  0  0  0  0  0  0  0  0
   -7.4703    1.4381   -0.5162 H   0  0  0  0  0  0  0  0  0  0  0  0
   -5.2663    3.4182    1.9684 H   0  0  0  0  0  0  0  0  0  0  0  0
   -6.7018    2.7997    2.9726 H   0  0  0  0  0  0  0  0  0  0  0  0
   -3.9478    2.1956    1.2481 H   0  0  0  0  0  0  0  0  0  0  0  0
   -5.0384    2.0043   -0.1006 H   0  0  0  0  0  0  0  0  0  0  0  0
    9.1573   -0.2433    2.1101 H   0  0  0  0  0  0  0  0  0  0  0  0
   -1.4883   -0.6719   -1.0346 H   0  0  0  0  0  0  0  0  0  0  0  0
   -1.0518    0.1833    1.7330 H   0  0  0  0  0  0  0  0  0  0  0  0
   -1.5325   -1.4031    1.1147 H   0  0  0  0  0  0  0  0  0  0  0  0
   -3.5005   -1.5151   -0.6500 H   0  0  0  0  0  0  0  0  0  0  0  0
   -6.4039   -0.6774   -1.1346 H   0  0  0  0  0  0  0  0  0  0  0  0
   -4.2581   -2.5565   -2.1944 H   0  0  0  0  0  0  0  0  0  0  0  0
   -5.8132   -2.0531   -3.0165 H   0  0  0  0  0  0  0  0  0  0  0  0
   -5.7299   -4.2250   -1.4224 H   0  0  0  0  0  0  0  0  0  0  0  0
   -5.9016   -3.9031    0.7913 H   0  0  0  0  0  0  0  0  0  0  0  0
   -7.0224   -2.5501    0.6778 H   0  0  0  0  0  0  0  0  0  0  0  0
   -4.0661   -2.6999    1.1249 H   0  0  0  0  0  0  0  0  0  0  0  0
   -5.2552   -1.5567    1.7317 H   0  0  0  0  0  0  0  0  0  0  0  0
   -0.7856    1.8891    0.4380 H   0  0  0  0  0  0  0  0  0  0  0  0
   -0.7119    1.7803   -1.3603 H   0  0  0  0  0  0  0  0  0  0  0  0
    1.3797    2.4671   -0.4890 H   0  0  0  0  0  0  0  0  0  0  0  0
    3.3621    1.6953   -1.6289 H   0  0  0  0  0  0  0  0  0  0  0  0
    1.8767    1.0789   -2.3977 H   0  0  0  0  0  0  0  0  0  0  0  0
    2.0000   -1.0502   -1.3813 H   0  0  0  0  0  0  0  0  0  0  0  0
    3.5176   -0.7262   -2.2448 H   0  0  0  0  0  0  0  0  0  0  0  0
    3.8720   -1.7984   -0.0291 H   0  0  0  0  0  0  0  0  0  0  0  0
    1.6791   -0.7810    0.7713 H   0  0  0  0  0  0  0  0  0  0  0  0
    2.9436   -0.6106    2.0492 H   0  0  0  0  0  0  0  0  0  0  0  0
    3.4999    1.6403    0.7113 H   0  0  0  0  0  0  0  0  0  0  0  0
    2.0299    1.6336    1.8366 H   0  0  0  0  0  0  0  0  0  0  0  0
    5.3264    0.1911   -1.9858 H   0  0  0  0  0  0  0  0  0  0  0  0
    5.8865   -1.3072   -1.1898 H   0  0  0  0  0  0  0  0  0  0  0  0
    6.8830    1.5734   -0.7802 H   0  0  0  0  0  0  0  0  0  0  0  0
    7.7155    0.2427   -1.6862 H   0  0  0  0  0  0  0  0  0  0  0  0
    6.7009   -1.7940    0.6132 H   0  0  0  0  0  0  0  0  0  0  0  0
    7.2090   -1.0270    2.1395 H   0  0  0  0  0  0  0  0  0  0  0  0
    4.9625   -0.7020    2.0160 H   0  0  0  0  0  0  0  0  0  0  0  0
    5.7121    0.9000    1.7272 H   0  0  0  0  0  0  0  0  0  0  0  0
    8.8650   -1.5132   -0.3945 H   0  0  0  0  0  0  0  0  0  0  0  0
   10.4072    0.9917    0.3833 H   0  0  0  0  0  0  0  0  0  0  0  0
   10.8146   -0.2680   -0.8114 H   0  0  0  0  0  0  0  0  0  0  0  0
    9.5185    0.9785   -1.2140 H   0  0  0  0  0  0  0  0  0  0  0  0
  1  2  1  0
  1  6  1  0
  5  6  1  0
  2  9  1  0
  5  9  1  0
  2 12  1  0
  3 15  1  0
  7 15  1  0
 15 12  1  1
  3 16  1  0
  7 17  1  0
 16 17  1  0
 15 18  1  0
  8 19  1  0
 18 19  1  0
 19 20  1  0
  4 21  1  0
 20 21  1  0
 21 22  1  0
 18 23  1  0
 22 23  1  0
 11 24  1  0
 16 24  1  0
 11 25  1  0
 25 26  1  0
 26 27  1  0
 10 28  1  0
 27 28  1  0
 28 29  1  0
 25 30  1  0
 29 30  1  0
 10 31  1  0
 13 32  1  0
 31 32  1  0
 13 33  1  0
 10 34  1  0
 33 34  1  0
 13 35  1  0
 14 35  1  0
 35 36  1  0
 37 38  1  0
 37 42  1  0
 41 42  1  0
 38 45  1  0
 41 45  1  0
 38 48  1  0
 39 51  1  0
 43 51  1  0
 51 48  1  1
 39 52  1  0
 43 53  1  0
 52 53  1  0
 51 54  1  0
 44 55  1  0
 54 55  1  0
 55 56  1  0
 40 57  1  0
 56 57  1  0
 57 58  1  0
 54 59  1  0
 58 59  1  0
 47 60  1  0
 52 60  1  0
 47 61  1  0
 61 62  1  0
 62 63  1  0
 46 64  1  0
 63 64  1  0
 64 65  1  0
 61 66  1  0
 65 66  1  0
 46 67  1  0
 49 68  1  0
 67 68  1  0
 49 69  1  0
 46 70  1  0
 69 70  1  0
 49 71  1  0
 50 71  1  0
 71 72  1  0
  1 73  1  0
  1 74  1  0
  5 75  1  0
  5 76  1  0
  6 77  1  0
  9 78  1  0
  9 79  1  0
 12 80  1  0
 12 81  1  0
 14 82  1  0
 16 83  1  6
 17 84  1  0
 17 85  1  0
 18 86  1  0
 19 87  1  0
 20 88  1  0
 20 89  1  0
 21 90  1  0
 22 91  1  0
 22 92  1  0
 23 93  1  0
 23 94  1  0
 24 95  1  0
 24 96  1  0
 25 97  1  0
 26 98  1  0
 26 99  1  0
 27100  1  0
 27101  1  0
 28102  1  0
 29103  1  0
 29104  1  0
 30105  1  0
 30106  1  0
 31107  1  0
 31108  1  0
 32109  1  0
 32110  1  0
 33111  1  0
 33112  1  0
 34113  1  0
 34114  1  0
 35115  1  0
 36116  1  0
 36117  1  0
 36118  1  0
 37119  1  0
 37120  1  0
 41121  1  0
 41122  1  0
 42123  1  0
 45124  1  0
 45125  1  0
 48126  1  0
 48127  1  0
 50128  1  0
 52129  1  6
 53130  1  0
 53131  1  0
 54132  1  0
 55133  1  0
 56134  1  0
 56135  1  0
 57136  1  0
 58137  1  0
 58138  1  0
 59139  1  0
 59140  1  0
 60141  1  0
 60142  1  0
 61143  1  0
 62144  1  0
 62145  1  0
 63146  1  0
 63147  1  0
 64148  1  0
 65149  1  0
 65150  1  0
 66151  1  0
 66152  1  0
 67153  1  0
 67154  1  0
 68155  1  0
 68156  1  0
 69157  1  0
 69158  1  0
 70159  1  0
 70160  1  0
 71161  1  6
 72162  1  0
 72163  1  0
 72164  1  0
M  END
>  <PDBID>  (1) 
3LD6

>  <PDB ID>  (1) 
3LD6

>  <Generic Name>  (1) 
Ketoconazole

>  <Brand Name>  (1) 
Apo-ketoconazole#Extina#Ketoconazole#Ketodan#Ketoderm Cream 2%#Nizoral#Nizoral  - 2%#Nizoral A-D#Nizoral Cream 2%#Nizoral Oral Suspension 20mg/ml#Nizoral Shp 2%#Nizoral Tablets 200mg#Nu-ketocon Tablets - 200mg#Teva-ketoconazole#Xolegel#Fungarest#Fungoral#Ketoderm#Ketoisdin#Ketozole#Nizoral Cream#Nizoral Shampoo#Orifungal#Orifungal M#Panfungol

>  <DrugBank ID>  (1) 
DB01026

>  <ATC Codes>  (1) 
G01AF11#D01AC08#J02AB02

>  <Ligand ID>  (1) 
KKK,KLN,KTN

>  <Target Name>  (1) 
Lanosterol 14-alpha demethylase

>  <UniProt ID>  (1) 
P10613

>  <PDB ID.1>  (1) 
3LD6

>  <Seq. Identity>  (1) 
40%

$$$$
