PDB_DB01268_03
     RDKit          3D

 72 74  0  0  0  0  0  0  0  0999 V2000
    1.1000    2.2962   -1.3449 C   0  0  0  0  0  0  0  0  0  0  0  0
   -7.2954   -1.0810    0.9902 C   0  0  0  0  0  0  0  0  0  0  0  0
   -7.1865   -0.2328   -0.2469 C   0  0  0  0  0  0  0  0  0  0  0  0
   -5.1602    0.1004    1.6366 C   0  0  0  0  0  0  0  0  0  0  0  0
   -0.2333   -0.4689   -0.1006 C   0  0  0  0  0  0  0  0  0  0  0  0
   -6.5357   -0.3974    2.0814 C   0  0  0  0  0  0  0  0  0  0  0  0
   -4.8039   -0.6354    0.4025 C   0  0  0  0  0  0  0  0  0  0  0  0
   -3.4724   -0.1713   -0.2358 C   0  0  0  0  0  0  0  0  0  0  0  0
   -3.9426    1.0993   -0.9254 C   0  0  0  0  0  0  0  0  0  0  0  0
    2.3004   -0.2433   -0.2574 C   0  0  0  0  0  0  0  0  0  0  0  0
   -0.6139   -0.5147   -1.5146 C   0  0  0  0  0  0  0  0  0  0  0  0
   -2.5291    0.0590    0.8590 C   0  0  0  0  0  0  0  0  0  0  0  0
    0.6419    1.6914   -0.0733 C   0  0  0  0  0  0  0  0  0  0  0  0
   -5.7428   -0.3253   -0.7117 C   0  0  0  0  0  0  0  0  0  0  0  0
   -1.1590    0.4581    0.6648 C   0  0  0  0  0  0  0  0  0  0  0  0
    1.0315    0.3010    0.2170 C   0  0  0  0  0  0  0  0  0  0  0  0
   -0.8402    1.7109    0.0453 N   0  0  0  0  0  0  0  0  0  0  0  0
   -5.3001    0.8653   -1.3257 N   0  0  0  0  0  0  0  0  0  0  0  0
    2.4771   -1.5464    0.3243 N   0  0  0  0  0  0  0  0  0  0  0  0
   -3.8484    2.2165   -0.0925 O   0  0  0  0  0  0  0  0  0  0  0  0
    2.4316   -0.3966   -1.6299 O   0  0  0  0  0  0  0  0  0  0  0  0
   -6.4450   -1.2922    3.1341 F   0  0  0  0  0  0  0  0  0  0  0  0
    3.7279   -2.1707    0.2501 C   0  0  0  0  0  0  0  0  0  0  0  0
    4.8531   -1.6069    1.0354 C   0  0  0  0  0  0  0  0  0  0  0  0
    5.2835   -0.2882    0.7319 N   0  0  0  0  0  0  0  0  0  0  0  0
    6.2795    0.0756    1.7332 C   0  0  0  0  0  0  0  0  0  0  0  0
    5.8362   -0.1559   -0.6031 C   0  0  0  0  0  0  0  0  0  0  0  0
    7.1494   -0.8738   -0.7931 C   0  0  0  0  0  0  0  0  0  0  0  0
    6.8368    1.4413    1.5406 C   0  0  0  0  0  0  0  0  0  0  0  0
    2.0361    2.9050   -1.1592 H   0  0  0  0  0  0  0  0  0  0  0  0
    1.3805    1.5899   -2.1508 H   0  0  0  0  0  0  0  0  0  0  0  0
    0.3737    3.0725   -1.7357 H   0  0  0  0  0  0  0  0  0  0  0  0
   -6.8823   -2.1004    0.8461 H   0  0  0  0  0  0  0  0  0  0  0  0
   -8.3582   -1.1430    1.3277 H   0  0  0  0  0  0  0  0  0  0  0  0
   -7.4005    0.8199    0.0434 H   0  0  0  0  0  0  0  0  0  0  0  0
   -7.8992   -0.6024   -1.0058 H   0  0  0  0  0  0  0  0  0  0  0  0
   -4.5029   -0.1466    2.5102 H   0  0  0  0  0  0  0  0  0  0  0  0
   -5.1428    1.1840    1.5338 H   0  0  0  0  0  0  0  0  0  0  0  0
   -0.2181   -1.4861    0.3392 H   0  0  0  0  0  0  0  0  0  0  0  0
   -7.0619    0.4962    2.4897 H   0  0  0  0  0  0  0  0  0  0  0  0
   -4.7287   -1.7278    0.6079 H   0  0  0  0  0  0  0  0  0  0  0  0
   -3.2155   -0.9078   -0.9910 H   0  0  0  0  0  0  0  0  0  0  0  0
   -3.3738    1.3223   -1.8419 H   0  0  0  0  0  0  0  0  0  0  0  0
    3.1242    0.4415    0.0673 H   0  0  0  0  0  0  0  0  0  0  0  0
    0.2351   -0.5011   -2.2396 H   0  0  0  0  0  0  0  0  0  0  0  0
   -1.0679   -1.5367   -1.7214 H   0  0  0  0  0  0  0  0  0  0  0  0
   -1.3285    0.2088   -1.8931 H   0  0  0  0  0  0  0  0  0  0  0  0
   -3.0296    0.8205    1.5561 H   0  0  0  0  0  0  0  0  0  0  0  0
   -2.5242   -0.8609    1.5339 H   0  0  0  0  0  0  0  0  0  0  0  0
    0.9482    2.3921    0.7638 H   0  0  0  0  0  0  0  0  0  0  0  0
   -5.7410   -1.1339   -1.4885 H   0  0  0  0  0  0  0  0  0  0  0  0
   -0.6587    0.5234    1.6955 H   0  0  0  0  0  0  0  0  0  0  0  0
    1.0681    0.2410    1.3608 H   0  0  0  0  0  0  0  0  0  0  0  0
   -1.2735    1.9216   -0.8491 H   0  0  0  0  0  0  0  0  0  0  0  0
   -5.9220    1.6752   -1.3303 H   0  0  0  0  0  0  0  0  0  0  0  0
    2.0838   -1.6478    1.2848 H   0  0  0  0  0  0  0  0  0  0  0  0
   -3.8353    3.0292   -0.6432 H   0  0  0  0  0  0  0  0  0  0  0  0
    2.6548   -1.3257   -1.9058 H   0  0  0  0  0  0  0  0  0  0  0  0
    3.5842   -3.2285    0.6416 H   0  0  0  0  0  0  0  0  0  0  0  0
    4.1128   -2.3426   -0.7814 H   0  0  0  0  0  0  0  0  0  0  0  0
    5.7254   -2.3002    1.0405 H   0  0  0  0  0  0  0  0  0  0  0  0
    4.5238   -1.5933    2.1181 H   0  0  0  0  0  0  0  0  0  0  0  0
    5.8208    0.0359    2.7471 H   0  0  0  0  0  0  0  0  0  0  0  0
    7.1048   -0.6600    1.7361 H   0  0  0  0  0  0  0  0  0  0  0  0
    5.9501    0.9292   -0.7941 H   0  0  0  0  0  0  0  0  0  0  0  0
    5.1010   -0.5381   -1.3345 H   0  0  0  0  0  0  0  0  0  0  0  0
    7.1593   -1.4420   -1.7722 H   0  0  0  0  0  0  0  0  0  0  0  0
    7.9667   -0.1180   -0.9196 H   0  0  0  0  0  0  0  0  0  0  0  0
    7.3525   -1.6254   -0.0235 H   0  0  0  0  0  0  0  0  0  0  0  0
    7.2242    1.7873    2.5405 H   0  0  0  0  0  0  0  0  0  0  0  0
    6.0752    2.2003    1.2690 H   0  0  0  0  0  0  0  0  0  0  0  0
    7.7191    1.4578    0.8680 H   0  0  0  0  0  0  0  0  0  0  0  0
  2  3  1  0
  2  6  1  0
  4  6  1  0
  4  7  1  0
  7  8  1  0
  8  9  1  0
  5 11  1  0
  8 12  1  0
  1 13  1  0
  3 14  1  0
  7 14  1  0
  5 15  1  0
 12 15  1  0
  5 16  1  0
 10 16  1  0
 13 16  1  0
 13 17  1  0
 15 17  1  0
  9 18  1  0
 14 18  1  0
 10 19  1  0
  9 20  1  0
 10 21  1  0
  6 22  1  0
 19 23  1  0
 23 24  1  0
 24 25  1  0
 25 26  1  0
 25 27  1  0
 27 28  1  0
 26 29  1  0
  1 30  1  0
  1 31  1  0
  1 32  1  0
  2 33  1  0
  2 34  1  0
  3 35  1  0
  3 36  1  0
  4 37  1  0
  4 38  1  0
  5 39  1  0
  6 40  1  0
  7 41  1  0
  8 42  1  0
  9 43  1  0
 10 44  1  0
 11 45  1  0
 11 46  1  0
 11 47  1  0
 12 48  1  0
 12 49  1  0
 13 50  1  0
 14 51  1  0
 15 52  1  0
 16 53  1  0
 17 54  1  0
 18 55  1  0
 19 56  1  0
 20 57  1  0
 21 58  1  0
 23 59  1  0
 23 60  1  0
 24 61  1  0
 24 62  1  0
 26 63  1  0
 26 64  1  0
 27 65  1  0
 27 66  1  0
 28 67  1  0
 28 68  1  0
 28 69  1  0
 29 70  1  0
 29 71  1  0
 29 72  1  0
M  END
>  <PDBID>  (1) 
4AGD

>  <PDB ID>  (1) 
4AGD

>  <Generic Name>  (1) 
Sunitinib

>  <Brand Name>  (1) 
Sutent

>  <DrugBank ID>  (1) 
DB01268

>  <ATC Codes>  (1) 
L01XE04

>  <Ligand ID>  (1) 
B49

>  <Target Name>  (1) 
Vascular endothelial growth factor receptor 3

>  <UniProt ID>  (1) 
P35916

>  <PDB ID.1>  (1) 
4AGD

>  <Seq. Identity>  (1) 
66%

$$$$
