PDB_DB00410_02
     RDKit          3D

 85 86  0  0  0  0  0  0  0  0999 V2000
    2.1822   -0.1837   -0.0133 C   0  0  0  0  0  0  0  0  0  0  0  0
    1.0875    0.6471   -0.5876 C   0  0  0  0  0  0  0  0  0  0  0  0
   -0.1753    0.7001    0.2236 C   0  0  0  0  0  0  0  0  0  0  0  0
   -1.1383    1.5947   -0.5352 C   0  0  0  0  0  0  0  0  0  0  0  0
   -2.4621    1.7676    0.1279 C   0  0  1  0  0  0  0  0  0  0  0  0
   -3.2971    2.6890   -0.7580 C   0  0  1  0  0  0  0  0  0  0  0  0
   -4.7553    2.2710   -0.7271 C   0  0  1  0  0  0  0  0  0  0  0  0
   -5.0807    1.8061    0.6487 C   0  0  1  0  0  0  0  0  0  0  0  0
   -6.5429    1.5852    0.8965 C   0  0  0  0  0  0  0  0  0  0  0  0
   -7.1709    0.5671    0.0093 C   0  0  1  0  0  0  0  0  0  0  0  0
   -8.5790    0.2808    0.1693 C   0  0  2  0  0  0  0  0  0  0  0  0
   -9.2289   -1.0293   -0.0686 C   0  0  2  0  0  0  0  0  0  0  0  0
   -8.6999   -2.1459    0.7973 C   0  0  2  0  0  0  0  0  0  0  0  0
   -8.8848   -1.8639    2.2642 C   0  0  0  0  0  0  0  0  0  0  0  0
   -0.7945   -0.6728    0.3429 C   0  0  0  0  0  0  0  0  0  0  0  0
   -4.2654    0.6012    0.9842 C   0  0  0  0  0  0  0  0  0  0  0  0
   10.2733    0.1137    2.3569 C   0  0  0  0  0  0  0  0  0  0  0  0
    9.1160   -0.4088    2.7823 O   0  0  0  0  0  0  0  0  0  0  0  0
   11.2590   -0.2635    3.3298 O   0  0  0  0  0  0  0  0  0  0  0  0
   10.8288   -0.2305    1.0308 C   0  0  0  0  0  0  0  0  0  0  0  0
   10.0732    0.0828   -0.1761 C   0  0  0  0  0  0  0  0  0  0  0  0
    8.8555   -0.6132   -0.5623 C   0  0  0  0  0  0  0  0  0  0  0  0
    7.6853   -0.6625    0.3133 C   0  0  0  0  0  0  0  0  0  0  0  0
    6.4855   -1.3409   -0.4021 C   0  0  0  0  0  0  0  0  0  0  0  0
    6.0488   -0.6217   -1.6226 C   0  0  0  0  0  0  0  0  0  0  0  0
    4.8398   -1.3190   -2.2539 C   0  0  0  0  0  0  0  0  0  0  0  0
    3.6896   -1.3610   -1.3025 C   0  0  0  0  0  0  0  0  0  0  0  0
    3.2662   -0.1040   -0.9079 O   0  0  0  0  0  0  0  0  0  0  0  0
    2.6462    0.4069    1.1854 O   0  0  0  0  0  0  0  0  0  0  0  0
   -3.0962    0.5397    0.2717 O   0  0  0  0  0  0  0  0  0  0  0  0
   -5.4927    3.4014   -1.1052 O   0  0  0  0  0  0  0  0  0  0  0  0
   -3.1642    4.0103   -0.3028 O   0  0  0  0  0  0  0  0  0  0  0  0
   -8.1113    0.9475   -0.9422 O   0  0  0  0  0  0  0  0  0  0  0  0
   -9.0863   -1.4210   -1.5200 C   0  0  0  0  0  0  0  0  0  0  0  0
   -7.4068   -2.5089    0.4656 O   0  0  0  0  0  0  0  0  0  0  0  0
    1.9778   -1.2443    0.1196 H   0  0  0  0  0  0  0  0  0  0  0  0
    0.8822    0.3021   -1.6359 H   0  0  0  0  0  0  0  0  0  0  0  0
    1.4984    1.6815   -0.7172 H   0  0  0  0  0  0  0  0  0  0  0  0
    0.0118    1.0593    1.2433 H   0  0  0  0  0  0  0  0  0  0  0  0
   -0.6284    2.5586   -0.7363 H   0  0  0  0  0  0  0  0  0  0  0  0
   -1.2463    1.1126   -1.5512 H   0  0  0  0  0  0  0  0  0  0  0  0
   -2.2910    2.2209    1.1223 H   0  0  0  0  0  0  0  0  0  0  0  0
   -2.8893    2.6676   -1.7880 H   0  0  0  0  0  0  0  0  0  0  0  0
   -4.8511    1.4601   -1.4963 H   0  0  0  0  0  0  0  0  0  0  0  0
   -4.7608    2.6227    1.3539 H   0  0  0  0  0  0  0  0  0  0  0  0
   -6.6691    1.3082    1.9538 H   0  0  0  0  0  0  0  0  0  0  0  0
   -7.0547    2.5746    0.7656 H   0  0  0  0  0  0  0  0  0  0  0  0
   -6.4658   -0.2093   -0.3889 H   0  0  0  0  0  0  0  0  0  0  0  0
   -9.1520    0.9571    0.8702 H   0  0  0  0  0  0  0  0  0  0  0  0
  -10.3193   -0.9598    0.1310 H   0  0  0  0  0  0  0  0  0  0  0  0
   -9.3429   -3.0445    0.5633 H   0  0  0  0  0  0  0  0  0  0  0  0
   -9.9256   -2.1124    2.6065 H   0  0  0  0  0  0  0  0  0  0  0  0
   -8.1925   -2.4287    2.8962 H   0  0  0  0  0  0  0  0  0  0  0  0
   -8.7921   -0.7550    2.4062 H   0  0  0  0  0  0  0  0  0  0  0  0
   -1.4312   -0.7530    1.2502 H   0  0  0  0  0  0  0  0  0  0  0  0
    0.0090   -1.4036    0.4761 H   0  0  0  0  0  0  0  0  0  0  0  0
   -1.4583   -0.9170   -0.5244 H   0  0  0  0  0  0  0  0  0  0  0  0
   -4.8165   -0.3529    0.7995 H   0  0  0  0  0  0  0  0  0  0  0  0
   -4.0177    0.5670    2.0851 H   0  0  0  0  0  0  0  0  0  0  0  0
   10.2764    1.2516    2.4703 H   0  0  0  0  0  0  0  0  0  0  0  0
    9.1499   -1.1542    3.4154 H   0  0  0  0  0  0  0  0  0  0  0  0
   12.1103    0.1795    3.1268 H   0  0  0  0  0  0  0  0  0  0  0  0
   11.0648   -1.3663    1.0336 H   0  0  0  0  0  0  0  0  0  0  0  0
   11.8828    0.2081    0.9372 H   0  0  0  0  0  0  0  0  0  0  0  0
   10.7921   -0.0417   -1.0852 H   0  0  0  0  0  0  0  0  0  0  0  0
    9.8930    1.2318   -0.2260 H   0  0  0  0  0  0  0  0  0  0  0  0
    8.5168   -0.2167   -1.6032 H   0  0  0  0  0  0  0  0  0  0  0  0
    9.0999   -1.7117   -0.8259 H   0  0  0  0  0  0  0  0  0  0  0  0
    7.3941    0.2769    0.7608 H   0  0  0  0  0  0  0  0  0  0  0  0
    7.8492   -1.4613    1.1360 H   0  0  0  0  0  0  0  0  0  0  0  0
    6.8397   -2.3799   -0.6291 H   0  0  0  0  0  0  0  0  0  0  0  0
    5.7155   -1.4230    0.3777 H   0  0  0  0  0  0  0  0  0  0  0  0
    5.8390    0.4307   -1.4602 H   0  0  0  0  0  0  0  0  0  0  0  0
    6.8594   -0.7100   -2.4027 H   0  0  0  0  0  0  0  0  0  0  0  0
    5.1618   -2.3377   -2.5483 H   0  0  0  0  0  0  0  0  0  0  0  0
    4.6094   -0.7661   -3.1814 H   0  0  0  0  0  0  0  0  0  0  0  0
    3.9532   -2.0230   -0.4494 H   0  0  0  0  0  0  0  0  0  0  0  0
    2.8618   -1.9144   -1.8360 H   0  0  0  0  0  0  0  0  0  0  0  0
    2.9019   -0.3219    1.8257 H   0  0  0  0  0  0  0  0  0  0  0  0
   -5.5998    3.3293   -2.0914 H   0  0  0  0  0  0  0  0  0  0  0  0
   -4.0096    4.3261    0.1403 H   0  0  0  0  0  0  0  0  0  0  0  0
   -8.1659   -2.0310   -1.6445 H   0  0  0  0  0  0  0  0  0  0  0  0
   -8.9821   -0.4865   -2.1321 H   0  0  0  0  0  0  0  0  0  0  0  0
   -9.9408   -2.0199   -1.8838 H   0  0  0  0  0  0  0  0  0  0  0  0
   -7.0519   -3.0416    1.2404 H   0  0  0  0  0  0  0  0  0  0  0  0
  1  2  1  0
  2  3  1  0
  3  4  1  0
  4  5  1  0
  5  6  1  0
  6  7  1  0
  7  8  1  0
  8  9  1  0
  9 10  1  0
 10 11  1  0
 11 12  1  0
 12 13  1  0
 13 14  1  0
  3 15  1  0
  8 16  1  0
 17 18  1  0
 17 19  1  0
 17 20  1  0
 20 21  1  0
 21 22  1  0
 22 23  1  0
 23 24  1  0
 24 25  1  0
 25 26  1  0
 26 27  1  0
  1 28  1  0
 27 28  1  0
  1 29  1  0
  5 30  1  0
 16 30  1  0
  7 31  1  0
  6 32  1  0
 10 33  1  0
 11 33  1  0
 12 34  1  0
 13 35  1  0
  1 36  1  0
  2 37  1  0
  2 38  1  0
  3 39  1  0
  4 40  1  0
  4 41  1  0
  5 42  1  1
  6 43  1  6
  7 44  1  6
  8 45  1  1
  9 46  1  0
  9 47  1  0
 10 48  1  6
 11 49  1  1
 12 50  1  1
 13 51  1  6
 14 52  1  0
 14 53  1  0
 14 54  1  0
 15 55  1  0
 15 56  1  0
 15 57  1  0
 16 58  1  0
 16 59  1  0
 17 60  1  0
 18 61  1  0
 19 62  1  0
 20 63  1  0
 20 64  1  0
 21 65  1  0
 21 66  1  0
 22 67  1  0
 22 68  1  0
 23 69  1  0
 23 70  1  0
 24 71  1  0
 24 72  1  0
 25 73  1  0
 25 74  1  0
 26 75  1  0
 26 76  1  0
 27 77  1  0
 27 78  1  0
 29 79  1  0
 31 80  1  0
 32 81  1  0
 34 82  1  0
 34 83  1  0
 34 84  1  0
 35 85  1  0
M  END
>  <PDBID>  (1) 
1FFY

>  <PDB ID>  (1) 
1FFY

>  <Generic Name>  (1) 
Mupirocin

>  <Brand Name>  (1) 
Bactroban#Bactroban Cream#Bactroban Nasal Ointment#Centany#Centany At#Mupirocin#Mupirocin 2%#Mupirocin Calcium#Taro-mupirocin#Bactroban Nasal#Plasimine#Spectroderm#T-Bact#Turixin

>  <DrugBank ID>  (1) 
DB00410

>  <ATC Codes>  (1) 
R01AX06#D06AX09

>  <Ligand ID>  (1) 
MRC

>  <Target Name>  (1) 
Isoleucine--tRNA ligase

>  <UniProt ID>  (1) 
P41972

>  <PDB ID.1>  (1) 
1FFY

>  <Seq. Identity>  (1) 
95%

$$$$
