PDB_DB09324_01
     RDKit          3D

 32 33  0  0  0  0  0  0  0  0999 V2000
   -1.1427   -0.2984   -1.8084 C   0  0  0  0  0  0  0  0  0  0  0  0
   -1.1339   -0.0389   -0.3544 C   0  0  0  0  0  0  0  0  0  0  0  0
   -2.3708   -0.0430    0.3763 C   0  0  0  0  0  0  0  0  0  0  0  0
   -0.3297   -1.8447    0.2673 S   0  0  0  0  0  0  0  0  0  0  0  0
   -0.4123   -1.7609    2.0192 O   0  0  0  0  0  0  0  0  0  0  0  0
   -1.2450   -3.0442   -0.3957 O   0  0  0  0  0  0  0  0  0  0  0  0
    1.2188   -1.3271   -0.3970 C   0  0  2  0  0  0  0  0  0  0  0  0
    2.3016   -1.0623    0.5883 C   0  0  0  0  0  0  0  0  0  0  0  0
    2.4559    0.2407   -0.1737 C   0  0  0  0  0  0  0  0  0  0  0  0
    2.7184    1.2887    0.6568 O   0  0  0  0  0  0  0  0  0  0  0  0
    1.1128    0.0734   -0.6505 N   0  0  0  0  0  0  0  0  0  0  0  0
    0.0657    0.6166    0.1934 C   0  0  1  0  0  0  0  0  0  0  0  0
   -0.0321    2.0868    0.0722 C   0  0  0  0  0  0  0  0  0  0  0  0
   -1.0662    2.5400    0.9175 O   0  0  0  0  0  0  0  0  0  0  0  0
   -0.4040    2.4933   -1.2214 O   0  0  0  0  0  0  0  0  0  0  0  0
   -1.0451   -1.3391   -2.1184 H   0  0  0  0  0  0  0  0  0  0  0  0
   -2.0725    0.0941   -2.2944 H   0  0  0  0  0  0  0  0  0  0  0  0
   -0.2919    0.2634   -2.2730 H   0  0  0  0  0  0  0  0  0  0  0  0
   -2.6829   -1.0325    0.8220 H   0  0  0  0  0  0  0  0  0  0  0  0
   -3.2327    0.2203   -0.3056 H   0  0  0  0  0  0  0  0  0  0  0  0
   -2.4496    0.6795    1.2164 H   0  0  0  0  0  0  0  0  0  0  0  0
   -1.2682   -1.3769    2.2600 H   0  0  0  0  0  0  0  0  0  0  0  0
   -1.5716   -3.7220    0.2399 H   0  0  0  0  0  0  0  0  0  0  0  0
    1.4776   -1.9781   -1.2465 H   0  0  0  0  0  0  0  0  0  0  0  0
    1.9635   -0.8878    1.6237 H   0  0  0  0  0  0  0  0  0  0  0  0
    3.1695   -1.7168    0.4880 H   0  0  0  0  0  0  0  0  0  0  0  0
    3.1814    0.1061   -1.0041 H   0  0  0  0  0  0  0  0  0  0  0  0
    3.3545    1.9044    0.1963 H   0  0  0  0  0  0  0  0  0  0  0  0
    0.2265    0.3540    1.2542 H   0  0  0  0  0  0  0  0  0  0  0  0
    0.8548    2.6612    0.3373 H   0  0  0  0  0  0  0  0  0  0  0  0
   -0.8573    2.3530    1.8703 H   0  0  0  0  0  0  0  0  0  0  0  0
   -0.4926    3.4971   -1.1561 H   0  0  0  0  0  0  0  0  0  0  0  0
  2  1  1  0
  2  3  1  0
  2  4  1  0
  4  5  1  0
  4  6  1  0
  4  7  1  0
  7  8  1  0
  8  9  1  0
  9 10  1  0
  7 11  1  0
  9 11  1  0
  2 12  1  0
 11 12  1  0
 12 13  1  0
 13 14  1  0
 13 15  1  0
  1 16  1  0
  1 17  1  0
  1 18  1  0
  3 19  1  0
  3 20  1  0
  3 21  1  0
  5 22  1  0
  6 23  1  0
  7 24  1  6
  8 25  1  0
  8 26  1  0
  9 27  1  0
 10 28  1  0
 12 29  1  1
 13 30  1  0
 14 31  1  0
 15 32  1  0
M  END
>  <PDBID>  (1) 
4FH2

>  <PDB ID>  (1) 
4FH2

>  <Generic Name>  (1) 
Sulbactam

>  <Brand Name>  (1) 
Ampicillin Sodium and Sulbactam Sodium#Ampicillin and Sulbactam#Unasyn

>  <DrugBank ID>  (1) 
DB09324

>  <ATC Codes>  (1) 
J01CG01

>  <Ligand ID>  (1) 
0RN

>  <Target Name>  (1) 
Beta-lactamase

>  <UniProt ID>  (1) 
P00807

>  <PDB ID.1>  (1) 
4FH2

>  <Seq. Identity>  (1) 
31%

$$$$
