PDB_DB09063_05
     RDKit          3D

 94 97  0  0  0  0  0  0  0  0999 V2000
   -1.5887   -4.3849   -1.0323 C   0  0  0  0  0  0  0  0  0  0  0  0
   -2.5494   -3.3303   -1.3858 C   0  0  0  0  0  0  0  0  0  0  0  0
   -3.7421   -3.9196   -2.1060 C   0  0  0  0  0  0  0  0  0  0  0  0
   -2.9660   -2.4874   -0.4017 O   0  0  0  0  0  0  0  0  0  0  0  0
   -2.7449   -1.1520   -0.6050 C   0  0  0  0  0  0  0  0  0  0  0  0
   -3.9263   -0.2541   -0.5550 C   0  0  0  0  0  0  0  0  0  0  0  0
   -4.4688    0.0741    0.7928 C   0  0  1  0  0  0  0  0  0  0  0  0
   -5.9291   -0.2581    0.8769 C   0  0  0  0  0  0  0  0  0  0  0  0
   -6.6061    0.5787   -0.2204 C   0  0  0  0  0  0  0  0  0  0  0  0
   -7.9894    1.0513    0.2323 C   0  0  0  0  0  0  0  0  0  0  0  0
   -7.8827    2.1016    1.2252 N   0  0  0  0  0  0  0  0  0  0  0  0
   -6.7867    1.7619    2.0941 C   0  0  0  0  0  0  0  0  0  0  0  0
   -6.5298    0.2739    2.1817 C   0  0  0  0  0  0  0  0  0  0  0  0
   -3.6550   -0.4091    1.9506 C   0  0  0  0  0  0  0  0  0  0  0  0
   -3.9817   -1.7781    2.4360 C   0  0  0  0  0  0  0  0  0  0  0  0
   -2.1937   -0.2014    1.6851 C   0  0  0  0  0  0  0  0  0  0  0  0
   -1.7047   -0.6430    0.3683 C   0  0  0  0  0  0  0  0  0  0  0  0
   -0.9149    0.4207   -0.2198 N   0  0  0  0  0  0  0  0  0  0  0  0
   -0.0908    0.0884   -1.3144 C   0  0  0  0  0  0  0  0  0  0  0  0
   -0.2877    1.1454   -2.3214 N   0  0  0  0  0  0  0  0  0  0  0  0
    0.9076    1.8330   -2.6627 C   0  0  0  0  0  0  0  0  0  0  0  0
    1.5913    2.4002   -1.3784 C   0  0  1  0  0  0  0  0  0  0  0  0
    0.4598    3.5188   -0.5818 Cl  0  0  0  0  0  0  0  0  0  0  0  0
    1.9466    1.2102   -0.5820 C   0  0  0  0  0  0  0  0  0  0  0  0
    3.3454    1.0092   -0.4301 N   0  0  0  0  0  0  0  0  0  0  0  0
    4.1224    1.8196    0.3793 C   0  0  2  0  0  0  0  0  0  0  0  0
    4.2821    3.2547    0.0548 C   0  0  0  0  0  0  0  0  0  0  0  0
    5.1411    3.5587   -1.1296 C   0  0  0  0  0  0  0  0  0  0  0  0
    6.3674    2.6679   -1.1833 C   0  0  0  0  0  0  0  0  0  0  0  0
    6.6001    2.0916    0.1840 C   0  0  0  0  0  0  0  0  0  0  0  0
    5.4867    1.1826    0.6526 C   0  0  2  0  0  0  0  0  0  0  0  0
    5.6314   -0.3559    0.0243 S   0  0  0  0  0  0  0  0  0  0  0  0
    5.5351   -0.6773   -1.3907 O   0  0  0  0  0  0  0  0  0  0  0  0
    4.2229   -1.2764    0.8103 O   0  0  0  0  0  0  0  0  0  0  0  0
    6.9109   -1.2181    0.8330 C   0  0  0  0  0  0  0  0  0  0  0  0
    7.0853   -2.5644    0.1212 C   0  0  0  0  0  0  0  0  0  0  0  0
    6.6327   -1.5147    2.2740 C   0  0  0  0  0  0  0  0  0  0  0  0
    1.3322   -0.0337   -1.0045 N   0  0  0  0  0  0  0  0  0  0  0  0
   -0.7916   -4.4747   -1.8306 H   0  0  0  0  0  0  0  0  0  0  0  0
   -2.1025   -5.3779   -1.0718 H   0  0  0  0  0  0  0  0  0  0  0  0
   -1.1397   -4.3166   -0.0242 H   0  0  0  0  0  0  0  0  0  0  0  0
   -2.0588   -2.6610   -2.1582 H   0  0  0  0  0  0  0  0  0  0  0  0
   -3.5131   -4.9721   -2.3986 H   0  0  0  0  0  0  0  0  0  0  0  0
   -3.9612   -3.3534   -3.0384 H   0  0  0  0  0  0  0  0  0  0  0  0
   -4.6769   -3.8872   -1.5218 H   0  0  0  0  0  0  0  0  0  0  0  0
   -2.2655   -0.9760   -1.6206 H   0  0  0  0  0  0  0  0  0  0  0  0
   -3.6370    0.6867   -1.1234 H   0  0  0  0  0  0  0  0  0  0  0  0
   -4.7804   -0.6352   -1.1969 H   0  0  0  0  0  0  0  0  0  0  0  0
   -4.4549    1.2092    0.8624 H   0  0  0  0  0  0  0  0  0  0  0  0
   -6.1982   -1.2905    0.6776 H   0  0  0  0  0  0  0  0  0  0  0  0
   -5.9990    1.5036   -0.4169 H   0  0  0  0  0  0  0  0  0  0  0  0
   -6.7611   -0.0194   -1.1317 H   0  0  0  0  0  0  0  0  0  0  0  0
   -8.5968    0.2018    0.5833 H   0  0  0  0  0  0  0  0  0  0  0  0
   -8.4852    1.4623   -0.6638 H   0  0  0  0  0  0  0  0  0  0  0  0
   -8.8073    2.1621    1.6945 H   0  0  0  0  0  0  0  0  0  0  0  0
   -7.0203    2.1390    3.1048 H   0  0  0  0  0  0  0  0  0  0  0  0
   -5.9001    2.3377    1.7523 H   0  0  0  0  0  0  0  0  0  0  0  0
   -5.8995    0.1061    3.0498 H   0  0  0  0  0  0  0  0  0  0  0  0
   -7.5102   -0.2261    2.3185 H   0  0  0  0  0  0  0  0  0  0  0  0
   -3.8935    0.2865    2.8168 H   0  0  0  0  0  0  0  0  0  0  0  0
   -4.4901   -1.7930    3.4499 H   0  0  0  0  0  0  0  0  0  0  0  0
   -4.6136   -2.3755    1.7879 H   0  0  0  0  0  0  0  0  0  0  0  0
   -2.9961   -2.2908    2.6594 H   0  0  0  0  0  0  0  0  0  0  0  0
   -1.9363    0.8811    1.8919 H   0  0  0  0  0  0  0  0  0  0  0  0
   -1.6469   -0.7678    2.4859 H   0  0  0  0  0  0  0  0  0  0  0  0
   -0.9625   -1.5056    0.4725 H   0  0  0  0  0  0  0  0  0  0  0  0
   -0.3681    0.8328    0.5520 H   0  0  0  0  0  0  0  0  0  0  0  0
   -0.3311   -0.8766   -1.8232 H   0  0  0  0  0  0  0  0  0  0  0  0
   -1.0151    1.8342   -2.0371 H   0  0  0  0  0  0  0  0  0  0  0  0
    1.6841    1.2412   -3.1646 H   0  0  0  0  0  0  0  0  0  0  0  0
    0.6894    2.7098   -3.2772 H   0  0  0  0  0  0  0  0  0  0  0  0
    2.4186    2.9805   -1.7893 H   0  0  0  0  0  0  0  0  0  0  0  0
    1.5406    1.3387    0.5045 H   0  0  0  0  0  0  0  0  0  0  0  0
    3.8164    0.7917   -1.3518 H   0  0  0  0  0  0  0  0  0  0  0  0
    3.5739    1.8356    1.4103 H   0  0  0  0  0  0  0  0  0  0  0  0
    4.8477    3.6830    0.9849 H   0  0  0  0  0  0  0  0  0  0  0  0
    3.3310    3.7843    0.0043 H   0  0  0  0  0  0  0  0  0  0  0  0
    4.6517    3.5269   -2.0994 H   0  0  0  0  0  0  0  0  0  0  0  0
    5.5089    4.6212   -1.0134 H   0  0  0  0  0  0  0  0  0  0  0  0
    6.2686    1.8697   -1.9670 H   0  0  0  0  0  0  0  0  0  0  0  0
    7.2444    3.2638   -1.4471 H   0  0  0  0  0  0  0  0  0  0  0  0
    7.5617    1.5254    0.1865 H   0  0  0  0  0  0  0  0  0  0  0  0
    6.7097    2.9144    0.8975 H   0  0  0  0  0  0  0  0  0  0  0  0
    5.5968    1.1665    1.7772 H   0  0  0  0  0  0  0  0  0  0  0  0
    5.7522   -1.5572   -1.7737 H   0  0  0  0  0  0  0  0  0  0  0  0
    3.7640   -0.5631    1.2909 H   0  0  0  0  0  0  0  0  0  0  0  0
    7.8593   -0.6753    0.7054 H   0  0  0  0  0  0  0  0  0  0  0  0
    7.3970   -2.4117   -0.9433 H   0  0  0  0  0  0  0  0  0  0  0  0
    7.9047   -3.1493    0.6397 H   0  0  0  0  0  0  0  0  0  0  0  0
    6.1635   -3.1732    0.1673 H   0  0  0  0  0  0  0  0  0  0  0  0
    7.2021   -0.8539    2.9668 H   0  0  0  0  0  0  0  0  0  0  0  0
    5.5470   -1.4007    2.4369 H   0  0  0  0  0  0  0  0  0  0  0  0
    6.9183   -2.5657    2.5465 H   0  0  0  0  0  0  0  0  0  0  0  0
    1.7983   -0.3306   -1.8867 H   0  0  0  0  0  0  0  0  0  0  0  0
  1  2  1  0
  2  3  1  0
  2  4  1  0
  4  5  1  0
  5  6  1  0
  6  7  1  0
  7  8  1  0
  8  9  1  0
  9 10  1  0
 10 11  1  0
 11 12  1  0
  8 13  1  0
 12 13  1  0
  7 14  1  0
 14 15  1  0
 14 16  1  0
  5 17  1  0
 16 17  1  0
 17 18  1  0
 18 19  1  0
 19 20  1  0
 20 21  1  0
 21 22  1  0
 22 23  1  0
 22 24  1  0
 24 25  1  0
 25 26  1  0
 26 27  1  0
 27 28  1  0
 28 29  1  0
 29 30  1  0
 26 31  1  0
 30 31  1  0
 31 32  1  0
 32 33  1  0
 32 34  1  0
 32 35  1  0
 35 36  1  0
 35 37  1  0
 19 38  1  0
 24 38  1  0
  1 39  1  0
  1 40  1  0
  1 41  1  0
  2 42  1  0
  3 43  1  0
  3 44  1  0
  3 45  1  0
  5 46  1  0
  6 47  1  0
  6 48  1  0
  7 49  1  6
  8 50  1  0
  9 51  1  0
  9 52  1  0
 10 53  1  0
 10 54  1  0
 11 55  1  0
 12 56  1  0
 12 57  1  0
 13 58  1  0
 13 59  1  0
 14 60  1  0
 15 61  1  0
 15 62  1  0
 15 63  1  0
 16 64  1  0
 16 65  1  0
 17 66  1  0
 18 67  1  0
 19 68  1  0
 20 69  1  0
 21 70  1  0
 21 71  1  0
 22 72  1  6
 24 73  1  0
 25 74  1  0
 26 75  1  1
 27 76  1  0
 27 77  1  0
 28 78  1  0
 28 79  1  0
 29 80  1  0
 29 81  1  0
 30 82  1  0
 30 83  1  0
 31 84  1  1
 33 85  1  0
 34 86  1  0
 35 87  1  0
 36 88  1  0
 36 89  1  0
 36 90  1  0
 37 91  1  0
 37 92  1  0
 37 93  1  0
 38 94  1  0
M  END
>  <PDBID>  (1) 
4MKC

>  <PDB ID>  (1) 
4MKC

>  <Generic Name>  (1) 
Ceritinib

>  <Brand Name>  (1) 
Zykadia

>  <DrugBank ID>  (1) 
DB09063

>  <ATC Codes>  (1) 
L01XE28

>  <Ligand ID>  (1) 
4MK

>  <Target Name>  (1) 
ALK tyrosine kinase receptor

>  <UniProt ID>  (1) 
Q9UM73

>  <PDB ID.1>  (1) 
4MKC

>  <Seq. Identity>  (1) 
99%

$$$$
