PDB_DB08877_06
     RDKit          3D

114120  0  0  0  0  0  0  0  0999 V2000
    3.1322   -2.0880   -0.5551 C   0  0  0  0  0  0  0  0  0  0  0  0
    4.6095   -1.7567   -0.8057 C   0  0  0  0  0  0  0  0  0  0  0  0
    4.5097   -0.6722   -1.8399 C   0  0  0  0  0  0  0  0  0  0  0  0
    3.3608    0.1873   -1.3644 C   0  0  0  0  0  0  0  0  0  0  0  0
    2.4470   -0.7182   -0.6608 C   0  0  0  0  0  0  0  0  0  0  0  0
    1.7827   -0.2926    0.5849 C   0  0  1  0  0  0  0  0  0  0  0  0
    2.5384   -0.1538    1.8303 C   0  0  0  0  0  0  0  0  0  0  0  0
    3.6670    0.7853    1.9387 C   0  0  0  0  0  0  0  0  0  0  0  0
    4.2186    0.7392    3.3206 N   0  0  0  0  0  0  0  0  0  0  0  0
    0.9007    0.8398    0.3054 N   0  0  0  0  0  0  0  0  0  0  0  0
   -0.1510    0.4535   -0.6161 C   0  0  0  0  0  0  0  0  0  0  0  0
    0.3314    1.3744    1.4295 N   0  0  0  0  0  0  0  0  0  0  0  0
   -1.0754    1.5404    1.2130 C   0  0  0  0  0  0  0  0  0  0  0  0
   -1.2162    1.4409   -0.2748 C   0  0  0  0  0  0  0  0  0  0  0  0
   -2.5963    1.0305   -0.7162 C   0  0  0  0  0  0  0  0  0  0  0  0
   -3.5320    2.0350   -0.3466 N   0  0  0  0  0  0  0  0  0  0  0  0
   -4.2976    1.8387    0.8245 C   0  0  0  0  0  0  0  0  0  0  0  0
   -4.6926    0.5077    1.1277 N   0  0  0  0  0  0  0  0  0  0  0  0
   -4.3769   -0.4636    0.1371 C   0  0  0  0  0  0  0  0  0  0  0  0
   -2.9453   -0.3710   -0.3547 C   0  0  0  0  0  0  0  0  0  0  0  0
   -2.9949   -1.2778   -1.5599 C   0  0  0  0  0  0  0  0  0  0  0  0
   -4.3832   -1.0252   -2.1035 C   0  0  0  0  0  0  0  0  0  0  0  0
   -5.1349   -0.3803   -1.0700 N   0  0  0  0  0  0  0  0  0  0  0  0
    3.5024   -1.8120   -0.6522 C   0  0  0  0  0  0  0  0  0  0  0  0
    4.9640   -1.3883   -0.5994 C   0  0  0  0  0  0  0  0  0  0  0  0
    5.0135   -0.3205   -1.6628 C   0  0  0  0  0  0  0  0  0  0  0  0
    3.7139    0.4495   -1.3790 C   0  0  0  0  0  0  0  0  0  0  0  0
    2.7361   -0.4940   -0.8381 C   0  0  0  0  0  0  0  0  0  0  0  0
    1.8738   -0.1383    0.3019 C   0  0  1  0  0  0  0  0  0  0  0  0
    2.4075    0.0410    1.6431 C   0  0  0  0  0  0  0  0  0  0  0  0
    3.4257    1.0578    1.9581 C   0  0  0  0  0  0  0  0  0  0  0  0
    3.7239    0.9961    3.4178 N   0  0  0  0  0  0  0  0  0  0  0  0
    0.9742    0.9194   -0.1434 N   0  0  0  0  0  0  0  0  0  0  0  0
    0.1034    0.4956   -1.2106 C   0  0  0  0  0  0  0  0  0  0  0  0
    0.2079    1.4562    0.8472 N   0  0  0  0  0  0  0  0  0  0  0  0
   -1.0546    1.8638    0.3186 C   0  0  0  0  0  0  0  0  0  0  0  0
   -1.2477    1.0407   -0.9054 C   0  0  0  0  0  0  0  0  0  0  0  0
   -2.2835   -0.0729   -0.6950 C   0  0  1  0  0  0  0  0  0  0  0  0
   -1.8913   -0.8843    0.3847 N   0  0  0  0  0  0  0  0  0  0  0  0
   -2.7581   -1.0280    1.4781 C   0  0  0  0  0  0  0  0  0  0  0  0
   -4.1670   -0.9963    1.1615 N   0  0  0  0  0  0  0  0  0  0  0  0
   -4.4539    0.2720    0.5260 C   0  0  0  0  0  0  0  0  0  0  0  0
   -3.6197    0.5331   -0.6723 C   0  0  0  0  0  0  0  0  0  0  0  0
   -4.5104   -0.0027   -1.8004 C   0  0  0  0  0  0  0  0  0  0  0  0
   -5.8744    0.3952   -1.3122 C   0  0  0  0  0  0  0  0  0  0  0  0
   -5.8376    0.2543    0.1094 N   0  0  0  0  0  0  0  0  0  0  0  0
    2.9771   -2.5460    0.4266 H   0  0  0  0  0  0  0  0  0  0  0  0
    2.8538   -2.7653   -1.3857 H   0  0  0  0  0  0  0  0  0  0  0  0
    5.1091   -1.3633    0.0968 H   0  0  0  0  0  0  0  0  0  0  0  0
    5.1319   -2.6646   -1.2001 H   0  0  0  0  0  0  0  0  0  0  0  0
    4.3349   -1.0893   -2.8550 H   0  0  0  0  0  0  0  0  0  0  0  0
    5.4677   -0.0738   -1.8181 H   0  0  0  0  0  0  0  0  0  0  0  0
    2.9003    0.5687   -2.3470 H   0  0  0  0  0  0  0  0  0  0  0  0
    3.7849    1.0347   -0.8157 H   0  0  0  0  0  0  0  0  0  0  0  0
    1.5930   -0.9336   -1.4135 H   0  0  0  0  0  0  0  0  0  0  0  0
    1.0191   -1.1187    0.8008 H   0  0  0  0  0  0  0  0  0  0  0  0
    2.7945   -1.1950    2.1846 H   0  0  0  0  0  0  0  0  0  0  0  0
    1.7870    0.1709    2.6239 H   0  0  0  0  0  0  0  0  0  0  0  0
    3.3532    1.8371    1.8140 H   0  0  0  0  0  0  0  0  0  0  0  0
    4.5441    0.5996    1.2944 H   0  0  0  0  0  0  0  0  0  0  0  0
    3.4243    0.8502    3.9926 H   0  0  0  0  0  0  0  0  0  0  0  0
    4.9055    1.5342    3.4025 H   0  0  0  0  0  0  0  0  0  0  0  0
    0.2185    0.5442   -1.6575 H   0  0  0  0  0  0  0  0  0  0  0  0
   -0.4220   -0.5945   -0.3423 H   0  0  0  0  0  0  0  0  0  0  0  0
    0.7646    2.2743    1.7577 H   0  0  0  0  0  0  0  0  0  0  0  0
   -1.5981    0.6977    1.7373 H   0  0  0  0  0  0  0  0  0  0  0  0
   -1.4693    2.4930    1.6240 H   0  0  0  0  0  0  0  0  0  0  0  0
   -0.9149    2.4196   -0.7010 H   0  0  0  0  0  0  0  0  0  0  0  0
   -2.5514    1.0601   -1.8491 H   0  0  0  0  0  0  0  0  0  0  0  0
   -3.9913    2.5380   -1.1122 H   0  0  0  0  0  0  0  0  0  0  0  0
   -3.8533    2.3016    1.7483 H   0  0  0  0  0  0  0  0  0  0  0  0
   -5.2561    2.4279    0.6901 H   0  0  0  0  0  0  0  0  0  0  0  0
   -4.3218    0.2048    2.0551 H   0  0  0  0  0  0  0  0  0  0  0  0
   -4.5137   -1.4904    0.5585 H   0  0  0  0  0  0  0  0  0  0  0  0
   -2.3273   -0.7918    0.4632 H   0  0  0  0  0  0  0  0  0  0  0  0
   -2.2754   -0.9897   -2.3506 H   0  0  0  0  0  0  0  0  0  0  0  0
   -2.9041   -2.3373   -1.2630 H   0  0  0  0  0  0  0  0  0  0  0  0
   -4.3700   -0.3794   -3.0182 H   0  0  0  0  0  0  0  0  0  0  0  0
   -4.8970   -1.9891   -2.3358 H   0  0  0  0  0  0  0  0  0  0  0  0
   -5.3994    0.5954   -1.2497 H   0  0  0  0  0  0  0  0  0  0  0  0
    3.1484   -2.2606    0.2844 H   0  0  0  0  0  0  0  0  0  0  0  0
    3.3534   -2.5248   -1.4577 H   0  0  0  0  0  0  0  0  0  0  0  0
    5.1748   -1.0192    0.4034 H   0  0  0  0  0  0  0  0  0  0  0  0
    5.5743   -2.2785   -0.8758 H   0  0  0  0  0  0  0  0  0  0  0  0
    4.9496   -0.8044   -2.6590 H   0  0  0  0  0  0  0  0  0  0  0  0
    5.8931    0.3349   -1.5687 H   0  0  0  0  0  0  0  0  0  0  0  0
    3.4121    0.8141   -2.4215 H   0  0  0  0  0  0  0  0  0  0  0  0
    3.9983    1.3244   -0.8109 H   0  0  0  0  0  0  0  0  0  0  0  0
    2.0465   -0.7577   -1.7320 H   0  0  0  0  0  0  0  0  0  0  0  0
    1.1495   -1.0217    0.3959 H   0  0  0  0  0  0  0  0  0  0  0  0
    2.6966   -0.9917    2.0259 H   0  0  0  0  0  0  0  0  0  0  0  0
    1.5191    0.2731    2.3204 H   0  0  0  0  0  0  0  0  0  0  0  0
    3.0487    2.0902    1.8327 H   0  0  0  0  0  0  0  0  0  0  0  0
    4.3863    0.9758    1.4146 H   0  0  0  0  0  0  0  0  0  0  0  0
    2.8473    0.9120    3.9586 H   0  0  0  0  0  0  0  0  0  0  0  0
    4.2250    1.8443    3.6986 H   0  0  0  0  0  0  0  0  0  0  0  0
    0.4943    0.8776   -2.1698 H   0  0  0  0  0  0  0  0  0  0  0  0
    0.0775   -0.6256   -1.2296 H   0  0  0  0  0  0  0  0  0  0  0  0
    0.7254    2.2785    1.2785 H   0  0  0  0  0  0  0  0  0  0  0  0
   -1.8202    1.6747    1.1009 H   0  0  0  0  0  0  0  0  0  0  0  0
   -0.9832    2.9559    0.0674 H   0  0  0  0  0  0  0  0  0  0  0  0
   -1.6418    1.7076   -1.7091 H   0  0  0  0  0  0  0  0  0  0  0  0
   -2.1993   -0.6943   -1.6376 H   0  0  0  0  0  0  0  0  0  0  0  0
   -1.3738   -1.7470    0.0832 H   0  0  0  0  0  0  0  0  0  0  0  0
   -2.5687   -2.0218    1.9604 H   0  0  0  0  0  0  0  0  0  0  0  0
   -2.6126   -0.2785    2.3066 H   0  0  0  0  0  0  0  0  0  0  0  0
   -4.6857   -1.0016    2.0686 H   0  0  0  0  0  0  0  0  0  0  0  0
   -4.3617    1.1294    1.2463 H   0  0  0  0  0  0  0  0  0  0  0  0
   -3.5944    1.6453   -0.8295 H   0  0  0  0  0  0  0  0  0  0  0  0
   -4.3226    0.4982   -2.7555 H   0  0  0  0  0  0  0  0  0  0  0  0
   -4.4464   -1.1103   -1.8449 H   0  0  0  0  0  0  0  0  0  0  0  0
   -6.0690    1.4487   -1.6226 H   0  0  0  0  0  0  0  0  0  0  0  0
   -6.6617   -0.2548   -1.7687 H   0  0  0  0  0  0  0  0  0  0  0  0
   -6.3276   -0.6267    0.3707 H   0  0  0  0  0  0  0  0  0  0  0  0
  1  2  1  0
  2  3  1  0
  3  4  1  0
  1  5  1  0
  4  5  1  0
  5  6  1  0
  6  7  1  0
  7  8  1  0
  8  9  1  0
  6 10  1  0
 10 11  1  0
 10 12  1  0
 12 13  1  0
 11 14  1  0
 13 14  1  0
 14 15  1  0
 15 16  1  0
 16 17  1  0
 17 18  1  0
 18 19  1  0
 15 20  1  0
 19 20  1  0
 20 21  1  0
 21 22  1  0
 19 23  1  0
 22 23  1  0
 24 25  1  0
 25 26  1  0
 26 27  1  0
 24 28  1  0
 27 28  1  0
 28 29  1  0
 29 30  1  0
 30 31  1  0
 31 32  1  0
 29 33  1  0
 33 34  1  0
 33 35  1  0
 35 36  1  0
 34 37  1  0
 36 37  1  0
 37 38  1  0
 38 39  1  0
 39 40  1  0
 40 41  1  0
 41 42  1  0
 38 43  1  0
 42 43  1  0
 43 44  1  0
 44 45  1  0
 42 46  1  0
 45 46  1  0
  1 47  1  0
  1 48  1  0
  2 49  1  0
  2 50  1  0
  3 51  1  0
  3 52  1  0
  4 53  1  0
  4 54  1  0
  5 55  1  0
  6 56  1  1
  7 57  1  0
  7 58  1  0
  8 59  1  0
  8 60  1  0
  9 61  1  0
  9 62  1  0
 11 63  1  0
 11 64  1  0
 12 65  1  0
 13 66  1  0
 13 67  1  0
 14 68  1  0
 15 69  1  0
 16 70  1  0
 17 71  1  0
 17 72  1  0
 18 73  1  0
 19 74  1  0
 20 75  1  0
 21 76  1  0
 21 77  1  0
 22 78  1  0
 22 79  1  0
 23 80  1  0
 24 81  1  0
 24 82  1  0
 25 83  1  0
 25 84  1  0
 26 85  1  0
 26 86  1  0
 27 87  1  0
 27 88  1  0
 28 89  1  0
 29 90  1  1
 30 91  1  0
 30 92  1  0
 31 93  1  0
 31 94  1  0
 32 95  1  0
 32 96  1  0
 34 97  1  0
 34 98  1  0
 35 99  1  0
 36100  1  0
 36101  1  0
 37102  1  0
 38103  1  6
 39104  1  0
 40105  1  0
 40106  1  0
 41107  1  0
 42108  1  0
 43109  1  0
 44110  1  0
 44111  1  0
 45112  1  0
 45113  1  0
 46114  1  0
M  END
>  <PDBID>  (1) 
4U5J

>  <PDB ID>  (1) 
4U5J

>  <Generic Name>  (1) 
Ruxolitinib

>  <Brand Name>  (1) 
Jakafi#Jakavi

>  <DrugBank ID>  (1) 
DB08877

>  <ATC Codes>  (1) 
L01XE18

>  <Ligand ID>  (1) 
RXT

>  <Target Name>  (1) 
Tyrosine-protein kinase JAK2

>  <UniProt ID>  (1) 
O60674

>  <PDB ID.1>  (1) 
4U5J

>  <Seq. Identity>  (1) 
30%

$$$$
