PDB_DB01394_03
     RDKit          3D

 70 72  0  0  0  0  0  0  0  0999 V2000
   -2.8952    4.1631    1.1698 O   0  0  0  0  0  0  0  0  0  0  0  0
   -2.9790    2.9771    0.4130 C   0  0  0  0  0  0  0  0  0  0  0  0
   -4.1037    3.1897   -0.5893 C   0  0  0  0  0  0  0  0  0  0  0  0
   -1.7000    2.8139   -0.2430 N   0  0  0  0  0  0  0  0  0  0  0  0
   -1.6079    1.6629   -1.0821 C   0  0  2  0  0  0  0  0  0  0  0  0
   -1.7226    0.3409   -0.3646 C   0  0  0  0  0  0  0  0  0  0  0  0
   -1.9814   -0.7666   -1.3314 C   0  0  0  0  0  0  0  0  0  0  0  0
   -0.4633    1.7561   -2.0413 C   0  0  0  0  0  0  0  0  0  0  0  0
    0.8077    2.2500   -1.4606 C   0  0  0  0  0  0  0  0  0  0  0  0
    1.1792    1.6082   -0.1273 C   0  0  2  0  0  0  0  0  0  0  0  0
    2.5641    1.9838    0.1771 C   0  0  0  0  0  0  0  0  0  0  0  0
    3.5182    0.8627    0.4916 C   0  0  0  0  0  0  0  0  0  0  0  0
    3.1028   -0.2945   -0.3891 C   0  0  0  0  0  0  0  0  0  0  0  0
    1.8150   -0.7951    0.3311 C   0  0  0  0  0  0  0  0  0  0  0  0
    2.1916   -0.8952    1.6370 O   0  0  0  0  0  0  0  0  0  0  0  0
    2.3696   -2.2561    1.9405 C   0  0  0  0  0  0  0  0  0  0  0  0
    4.0570   -1.2823   -0.4543 O   0  0  0  0  0  0  0  0  0  0  0  0
    4.4007   -1.4427   -1.7910 C   0  0  0  0  0  0  0  0  0  0  0  0
    4.8183    1.2715    0.2393 O   0  0  0  0  0  0  0  0  0  0  0  0
    5.5895    1.3041    1.3914 C   0  0  0  0  0  0  0  0  0  0  0  0
    0.7717    0.1653   -0.0535 C   0  0  1  0  0  0  0  0  0  0  0  0
   -0.5635    0.0873    0.5854 C   0  0  0  0  0  0  0  0  0  0  0  0
   -0.9052   -1.0770    1.4274 C   0  0  0  0  0  0  0  0  0  0  0  0
   -1.1652   -2.3524    0.7082 C   0  0  0  0  0  0  0  0  0  0  0  0
   -2.6379   -2.4888    0.4026 C   0  0  1  0  0  0  0  0  0  0  0  0
   -3.0168   -1.7700   -0.8382 C   0  0  0  0  0  0  0  0  0  0  0  0
   -3.1368   -2.7246   -1.8737 O   0  0  0  0  0  0  0  0  0  0  0  0
   -2.8875   -3.8559    0.2751 O   0  0  0  0  0  0  0  0  0  0  0  0
   -3.7611   -4.3354    1.2496 C   0  0  0  0  0  0  0  0  0  0  0  0
   -3.2858    3.9797    2.0543 H   0  0  0  0  0  0  0  0  0  0  0  0
   -3.2751    2.1372    1.0557 H   0  0  0  0  0  0  0  0  0  0  0  0
   -4.9619    3.7080   -0.0998 H   0  0  0  0  0  0  0  0  0  0  0  0
   -3.7242    3.9419   -1.3320 H   0  0  0  0  0  0  0  0  0  0  0  0
   -4.3925    2.2887   -1.1330 H   0  0  0  0  0  0  0  0  0  0  0  0
   -1.5409    3.6634   -0.8261 H   0  0  0  0  0  0  0  0  0  0  0  0
   -2.5394    1.6924   -1.7316 H   0  0  0  0  0  0  0  0  0  0  0  0
   -2.6182    0.4081    0.2890 H   0  0  0  0  0  0  0  0  0  0  0  0
   -2.4827   -0.2847   -2.2275 H   0  0  0  0  0  0  0  0  0  0  0  0
   -1.0834   -1.2473   -1.7456 H   0  0  0  0  0  0  0  0  0  0  0  0
   -0.7650    2.5394   -2.8055 H   0  0  0  0  0  0  0  0  0  0  0  0
   -0.4044    0.8342   -2.6422 H   0  0  0  0  0  0  0  0  0  0  0  0
    0.7886    3.3565   -1.3380 H   0  0  0  0  0  0  0  0  0  0  0  0
    1.6370    2.0248   -2.1594 H   0  0  0  0  0  0  0  0  0  0  0  0
    0.5271    2.1790    0.6064 H   0  0  0  0  0  0  0  0  0  0  0  0
    3.0551    2.5603   -0.6494 H   0  0  0  0  0  0  0  0  0  0  0  0
    2.6511    2.6962    1.0571 H   0  0  0  0  0  0  0  0  0  0  0  0
    3.4065    0.6477    1.5742 H   0  0  0  0  0  0  0  0  0  0  0  0
    2.8277    0.1225   -1.3680 H   0  0  0  0  0  0  0  0  0  0  0  0
    1.6921   -1.8017   -0.1245 H   0  0  0  0  0  0  0  0  0  0  0  0
    1.4531   -2.8576    1.7953 H   0  0  0  0  0  0  0  0  0  0  0  0
    3.2403   -2.6756    1.3956 H   0  0  0  0  0  0  0  0  0  0  0  0
    2.5971   -2.3099    3.0232 H   0  0  0  0  0  0  0  0  0  0  0  0
    3.5581   -1.7299   -2.4449 H   0  0  0  0  0  0  0  0  0  0  0  0
    5.1276   -2.3055   -1.8252 H   0  0  0  0  0  0  0  0  0  0  0  0
    4.8633   -0.5507   -2.2289 H   0  0  0  0  0  0  0  0  0  0  0  0
    5.6269    0.2815    1.8707 H   0  0  0  0  0  0  0  0  0  0  0  0
    5.1343    1.9780    2.1366 H   0  0  0  0  0  0  0  0  0  0  0  0
    6.6052    1.6788    1.2021 H   0  0  0  0  0  0  0  0  0  0  0  0
    0.5630   -0.1111   -1.1457 H   0  0  0  0  0  0  0  0  0  0  0  0
   -0.6249    0.9712    1.3045 H   0  0  0  0  0  0  0  0  0  0  0  0
   -0.2681   -1.2460    2.3037 H   0  0  0  0  0  0  0  0  0  0  0  0
   -1.8995   -0.7900    1.9110 H   0  0  0  0  0  0  0  0  0  0  0  0
   -0.9040   -3.1961    1.3790 H   0  0  0  0  0  0  0  0  0  0  0  0
   -0.6126   -2.5042   -0.2187 H   0  0  0  0  0  0  0  0  0  0  0  0
   -3.2501   -2.1576    1.2944 H   0  0  0  0  0  0  0  0  0  0  0  0
   -4.0012   -1.2840   -0.7590 H   0  0  0  0  0  0  0  0  0  0  0  0
   -2.3817   -3.3712   -1.6912 H   0  0  0  0  0  0  0  0  0  0  0  0
   -3.3408   -4.1701    2.2647 H   0  0  0  0  0  0  0  0  0  0  0  0
   -4.7133   -3.7848    1.1183 H   0  0  0  0  0  0  0  0  0  0  0  0
   -3.9431   -5.4111    1.0603 H   0  0  0  0  0  0  0  0  0  0  0  0
  1  2  1  0
  2  3  1  0
  2  4  1  0
  4  5  1  0
  5  6  1  0
  6  7  1  0
  5  8  1  0
  8  9  1  0
  9 10  1  0
 10 11  1  0
 11 12  1  0
 12 13  1  0
 13 14  1  0
 14 15  1  0
 15 16  1  0
 13 17  1  0
 17 18  1  0
 12 19  1  0
 19 20  1  0
 10 21  1  0
 14 21  1  0
  6 22  1  0
 21 22  1  0
 22 23  1  0
 23 24  1  0
 24 25  1  0
  7 26  1  0
 25 26  1  0
 26 27  1  0
 25 28  1  0
 28 29  1  0
  1 30  1  0
  2 31  1  0
  3 32  1  0
  3 33  1  0
  3 34  1  0
  4 35  1  0
  5 36  1  6
  6 37  1  0
  7 38  1  0
  7 39  1  0
  8 40  1  0
  8 41  1  0
  9 42  1  0
  9 43  1  0
 10 44  1  1
 11 45  1  0
 11 46  1  0
 12 47  1  0
 13 48  1  0
 14 49  1  0
 16 50  1  0
 16 51  1  0
 16 52  1  0
 18 53  1  0
 18 54  1  0
 18 55  1  0
 20 56  1  0
 20 57  1  0
 20 58  1  0
 21 59  1  6
 22 60  1  0
 23 61  1  0
 23 62  1  0
 24 63  1  0
 24 64  1  0
 25 65  1  1
 26 66  1  0
 27 67  1  0
 29 68  1  0
 29 69  1  0
 29 70  1  0
M  END
>  <PDBID>  (1) 
5EYP

>  <PDB ID>  (1) 
5EYP

>  <Generic Name>  (1) 
Colchicine

>  <Brand Name>  (1) 
Colchicine#Colchicine Tab 0.6mg#Colchicine Tab 1mg#Colcrys#Euro-colchicine#Jamp-colchicine#Mitigare#PMS-colchicine#Probenecid and Colchicine#Verban Ont

>  <DrugBank ID>  (1) 
DB01394

>  <ATC Codes>  (1) 
M04AC01

>  <Ligand ID>  (1) 
LOC

>  <Target Name>  (1) 
Tubulin beta-1 chain

>  <UniProt ID>  (1) 
Q9H4B7

>  <PDB ID.1>  (1) 
5EYP

>  <Seq. Identity>  (1) 
78%

$$$$
