PDB_DB00703_05
     RDKit          3D

 30 30  0  0  0  0  0  0  0  0999 V2000
    4.1089   -0.6502    1.0687 N   0  0  0  0  0  0  0  0  0  0  0  0
    3.0091   -0.6164   -0.0546 S   0  0  0  0  0  0  0  0  0  0  0  0
    4.1441   -0.0027   -1.4718 O   0  0  0  0  0  0  0  0  0  0  0  0
    2.5436   -1.9415   -0.7439 O   0  0  0  0  0  0  0  0  0  0  0  0
    1.9165    0.6385    0.0001 C   0  0  1  0  0  0  0  0  0  0  0  0
    0.7016    0.6568   -1.3647 S   0  0  0  0  0  0  0  0  0  0  0  0
   -0.7459    0.8851   -0.2487 C   0  0  2  0  0  0  0  0  0  0  0  0
   -0.1549    0.2140    0.9119 N   0  0  0  0  0  0  0  0  0  0  0  0
   -0.1714   -1.2093    0.6491 C   0  0  0  0  0  0  0  0  0  0  0  0
    1.0771    0.7307    1.1485 N   0  0  0  0  0  0  0  0  0  0  0  0
   -1.8965    0.1958   -0.7344 N   0  0  0  0  0  0  0  0  0  0  0  0
   -2.9758    0.4445    0.2041 C   0  0  0  0  0  0  0  0  0  0  0  0
   -3.2557    1.8290    0.1938 O   0  0  0  0  0  0  0  0  0  0  0  0
   -4.2506   -0.2461   -0.2027 C   0  0  0  0  0  0  0  0  0  0  0  0
    5.0792   -0.8365    0.7634 H   0  0  0  0  0  0  0  0  0  0  0  0
    3.9091   -1.2198    1.9029 H   0  0  0  0  0  0  0  0  0  0  0  0
    4.1907    0.9242   -1.1829 H   0  0  0  0  0  0  0  0  0  0  0  0
    2.2428   -1.8807   -1.6715 H   0  0  0  0  0  0  0  0  0  0  0  0
    2.4381    1.6303   -0.0894 H   0  0  0  0  0  0  0  0  0  0  0  0
   -0.8542    1.9625   -0.1111 H   0  0  0  0  0  0  0  0  0  0  0  0
   -1.1266   -1.6239    1.0306 H   0  0  0  0  0  0  0  0  0  0  0  0
    0.6309   -1.7329    1.2200 H   0  0  0  0  0  0  0  0  0  0  0  0
   -0.1397   -1.4248   -0.4367 H   0  0  0  0  0  0  0  0  0  0  0  0
    1.0120    1.6548    1.5882 H   0  0  0  0  0  0  0  0  0  0  0  0
   -2.1561    0.4038   -1.7023 H   0  0  0  0  0  0  0  0  0  0  0  0
   -2.6518    0.2160    1.2295 H   0  0  0  0  0  0  0  0  0  0  0  0
   -2.8654    2.2549   -0.6214 H   0  0  0  0  0  0  0  0  0  0  0  0
   -4.9792    0.4502   -0.6802 H   0  0  0  0  0  0  0  0  0  0  0  0
   -4.0477   -1.1029   -0.8667 H   0  0  0  0  0  0  0  0  0  0  0  0
   -4.7326   -0.6036    0.7420 H   0  0  0  0  0  0  0  0  0  0  0  0
  1  2  1  0
  2  3  1  0
  2  4  1  0
  2  5  1  0
  5  6  1  0
  6  7  1  0
  7  8  1  0
  8  9  1  0
  5 10  1  0
  8 10  1  0
  7 11  1  0
 11 12  1  0
 12 13  1  0
 12 14  1  0
  1 15  1  0
  1 16  1  0
  3 17  1  0
  4 18  1  0
  5 19  1  6
  7 20  1  1
  9 21  1  0
  9 22  1  0
  9 23  1  0
 10 24  1  0
 11 25  1  0
 12 26  1  0
 13 27  1  0
 14 28  1  0
 14 29  1  0
 14 30  1  0
M  END
>  <PDBID>  (1) 
1BZM

>  <PDB ID>  (1) 
1BZM

>  <Generic Name>  (1) 
Methazolamide

>  <Brand Name>  (1) 
Methazolamide#Neptazane#Neptazane Tablets 25mg#Neptazane Tablets 25mg USP#Neptazane Tablets 50mg#Naptazane

>  <DrugBank ID>  (1) 
DB00703

>  <ATC Codes>  (1) 
S01EC05

>  <Ligand ID>  (1) 
MZM

>  <Target Name>  (1) 
Carbonic anhydrase 1

>  <UniProt ID>  (1) 
P00915

>  <PDB ID.1>  (1) 
1BZM

>  <Seq. Identity>  (1) 
100%

$$$$
