PDB_DB01136_09
     RDKit          3D

148154  0  0  0  0  0  0  0  0999 V2000
   -1.2225   -0.0713    1.6837 O   0  0  0  0  0  0  0  0  0  0  0  0
   -0.6679   -1.3285    1.5019 C   0  0  2  0  0  0  0  0  0  0  0  0
    0.6799   -1.3099    0.8332 C   0  0  0  0  0  0  0  0  0  0  0  0
    1.5952   -0.5902    1.5688 O   0  0  0  0  0  0  0  0  0  0  0  0
    2.8600   -0.5649    0.9642 C   0  0  2  0  0  0  0  0  0  0  0  0
    3.7810   -1.3117    1.8843 C   0  0  0  0  0  0  0  0  0  0  0  0
    4.2820   -0.4504    3.0236 C   0  0  0  0  0  0  0  0  0  0  0  0
    5.1229    0.6421    2.3602 C   0  0  0  0  0  0  0  0  0  0  0  0
    4.1890    1.5008    1.5854 C   0  0  0  0  0  0  0  0  0  0  0  0
    3.2819    0.8167    0.6330 C   0  0  0  0  0  0  0  0  0  0  0  0
    3.9301    1.0043   -0.6975 C   0  0  0  0  0  0  0  0  0  0  0  0
    4.1986   -0.2280   -1.4786 C   0  0  0  0  0  0  0  0  0  0  0  0
    5.1433    0.1581   -2.6112 C   0  0  0  0  0  0  0  0  0  0  0  0
    5.1989    1.6599   -2.8003 C   0  0  0  0  0  0  0  0  0  0  0  0
    5.7209    2.3751   -1.5760 C   0  0  0  0  0  0  0  0  0  0  0  0
    5.2844    1.6239   -0.3675 C   0  0  0  0  0  0  0  0  0  0  0  0
    4.9223    2.4685    0.7489 N   0  0  0  0  0  0  0  0  0  0  0  0
   -1.6370   -2.2554    0.7939 C   0  0  0  0  0  0  0  0  0  0  0  0
   -2.0292   -1.8088   -0.4773 N   0  0  0  0  0  0  0  0  0  0  0  0
   -2.9283   -2.6493   -1.1415 C   0  0  0  0  0  0  0  0  0  0  0  0
   -4.3297   -2.7623   -0.6367 C   0  0  0  0  0  0  0  0  0  0  0  0
   -5.0454   -1.6405   -0.6450 O   0  0  0  0  0  0  0  0  0  0  0  0
   -4.7546   -0.5456    0.0476 C   0  0  0  0  0  0  0  0  0  0  0  0
   -5.8976   -0.1566    1.0131 C   0  0  0  0  0  0  0  0  0  0  0  0
   -7.1416    0.2299    0.2875 C   0  0  0  0  0  0  0  0  0  0  0  0
   -7.0377    0.1793   -1.2026 C   0  0  0  0  0  0  0  0  0  0  0  0
   -5.8242    0.8518   -1.7584 C   0  0  0  0  0  0  0  0  0  0  0  0
   -4.6145    0.6868   -0.8593 C   0  0  0  0  0  0  0  0  0  0  0  0
   -4.5733    1.7760   -0.0120 O   0  0  0  0  0  0  0  0  0  0  0  0
   -3.4040    2.5256   -0.1246 C   0  0  0  0  0  0  0  0  0  0  0  0
   -1.1262    0.5705   -0.3921 O   0  0  0  0  0  0  0  0  0  0  0  0
   -0.4592    0.4823    0.8283 C   0  0  2  0  0  0  0  0  0  0  0  0
    0.8251   -0.3047    0.6727 C   0  0  0  0  0  0  0  0  0  0  0  0
    1.6120    0.3807   -0.2459 O   0  0  0  0  0  0  0  0  0  0  0  0
    2.8375   -0.2920   -0.4615 C   0  0  1  0  0  0  0  0  0  0  0  0
    2.9450   -0.5373   -1.9286 C   0  0  0  0  0  0  0  0  0  0  0  0
    2.8289    0.7696   -2.6651 C   0  0  0  0  0  0  0  0  0  0  0  0
    3.8236    1.7906   -2.2128 C   0  0  0  0  0  0  0  0  0  0  0  0
    3.8840    1.9601   -0.7103 C   0  0  0  0  0  0  0  0  0  0  0  0
    3.9189    0.6182    0.0098 C   0  0  2  0  0  0  0  0  0  0  0  0
    5.3113    0.1766   -0.3640 C   0  0  2  0  0  0  0  0  0  0  0  0
    5.8768   -0.9188    0.4626 C   0  0  0  0  0  0  0  0  0  0  0  0
    7.3414   -1.0639    0.0243 C   0  0  0  0  0  0  0  0  0  0  0  0
    7.7482    0.0030   -0.9405 C   0  0  0  0  0  0  0  0  0  0  0  0
    7.4147    1.3995   -0.5295 C   0  0  0  0  0  0  0  0  0  0  0  0
    6.0484    1.4636    0.0389 C   0  0  0  0  0  0  0  0  0  0  0  0
    5.2149    2.5295   -0.4369 N   0  0  0  0  0  0  0  0  0  0  0  0
   -1.3964   -0.1412    1.8290 C   0  0  0  0  0  0  0  0  0  0  0  0
   -1.7531   -1.4592    1.3529 N   0  0  0  0  0  0  0  0  0  0  0  0
   -2.6340   -2.1634    2.2248 C   0  0  0  0  0  0  0  0  0  0  0  0
   -3.9919   -1.4994    2.2141 C   0  0  0  0  0  0  0  0  0  0  0  0
   -4.5402   -1.5041    0.9262 O   0  0  0  0  0  0  0  0  0  0  0  0
   -5.7853   -0.8827    0.9088 C   0  0  0  0  0  0  0  0  0  0  0  0
   -6.8059   -1.9532    0.6463 C   0  0  0  0  0  0  0  0  0  0  0  0
   -8.1027   -1.3926    0.1140 C   0  0  0  0  0  0  0  0  0  0  0  0
   -7.7870   -0.8086   -1.2366 C   0  0  0  0  0  0  0  0  0  0  0  0
   -6.6034    0.0607   -1.2894 C   0  0  0  0  0  0  0  0  0  0  0  0
   -5.8530    0.2823   -0.0199 C   0  0  0  0  0  0  0  0  0  0  0  0
   -6.2664    1.4353    0.6425 O   0  0  0  0  0  0  0  0  0  0  0  0
   -5.2766    2.4034    0.7207 C   0  0  0  0  0  0  0  0  0  0  0  0
   -0.6712    0.4840    2.2651 H   0  0  0  0  0  0  0  0  0  0  0  0
   -0.5336   -1.7606    2.5320 H   0  0  0  0  0  0  0  0  0  0  0  0
    0.6195   -0.9679   -0.2199 H   0  0  0  0  0  0  0  0  0  0  0  0
    1.0353   -2.3703    0.8232 H   0  0  0  0  0  0  0  0  0  0  0  0
    2.7674   -1.1530    0.0280 H   0  0  0  0  0  0  0  0  0  0  0  0
    3.2277   -2.1594    2.3387 H   0  0  0  0  0  0  0  0  0  0  0  0
    4.6681   -1.7427    1.3981 H   0  0  0  0  0  0  0  0  0  0  0  0
    3.4658   -0.0230    3.6228 H   0  0  0  0  0  0  0  0  0  0  0  0
    4.9650   -1.0663    3.6311 H   0  0  0  0  0  0  0  0  0  0  0  0
    5.5740    1.2507    3.1626 H   0  0  0  0  0  0  0  0  0  0  0  0
    5.8846    0.1166    1.7617 H   0  0  0  0  0  0  0  0  0  0  0  0
    3.6133    2.1145    2.3302 H   0  0  0  0  0  0  0  0  0  0  0  0
    2.3309    1.4358    0.6066 H   0  0  0  0  0  0  0  0  0  0  0  0
    3.3631    1.7114   -1.3702 H   0  0  0  0  0  0  0  0  0  0  0  0
    3.2960   -0.6746   -1.9448 H   0  0  0  0  0  0  0  0  0  0  0  0
    4.7590   -0.9514   -0.8600 H   0  0  0  0  0  0  0  0  0  0  0  0
    4.8170   -0.2775   -3.5687 H   0  0  0  0  0  0  0  0  0  0  0  0
    6.1761   -0.1893   -2.4366 H   0  0  0  0  0  0  0  0  0  0  0  0
    5.9709    1.8286   -3.6005 H   0  0  0  0  0  0  0  0  0  0  0  0
    4.2650    2.0788   -3.1905 H   0  0  0  0  0  0  0  0  0  0  0  0
    5.2162    3.3833   -1.5571 H   0  0  0  0  0  0  0  0  0  0  0  0
    6.8125    2.5605   -1.6307 H   0  0  0  0  0  0  0  0  0  0  0  0
    6.0418    0.8671   -0.1266 H   0  0  0  0  0  0  0  0  0  0  0  0
    4.2144    3.1447    0.4144 H   0  0  0  0  0  0  0  0  0  0  0  0
   -1.1391   -3.2586    0.7410 H   0  0  0  0  0  0  0  0  0  0  0  0
   -2.5255   -2.3709    1.4531 H   0  0  0  0  0  0  0  0  0  0  0  0
   -2.0018   -0.8616   -0.7714 H   0  0  0  0  0  0  0  0  0  0  0  0
   -2.9633   -2.3575   -2.2434 H   0  0  0  0  0  0  0  0  0  0  0  0
   -2.5193   -3.7068   -1.1167 H   0  0  0  0  0  0  0  0  0  0  0  0
   -4.2693   -3.2334    0.3924 H   0  0  0  0  0  0  0  0  0  0  0  0
   -4.9027   -3.5422   -1.2533 H   0  0  0  0  0  0  0  0  0  0  0  0
   -3.8437   -0.5604    0.6646 H   0  0  0  0  0  0  0  0  0  0  0  0
   -6.0114   -0.9971    1.6973 H   0  0  0  0  0  0  0  0  0  0  0  0
   -5.5217    0.7498    1.5523 H   0  0  0  0  0  0  0  0  0  0  0  0
   -7.9455   -0.4991    0.5825 H   0  0  0  0  0  0  0  0  0  0  0  0
   -7.5171    1.2400    0.5911 H   0  0  0  0  0  0  0  0  0  0  0  0
   -7.9384    0.7320   -1.6023 H   0  0  0  0  0  0  0  0  0  0  0  0
   -7.1724   -0.8627   -1.5911 H   0  0  0  0  0  0  0  0  0  0  0  0
   -6.0064    1.9381   -1.8820 H   0  0  0  0  0  0  0  0  0  0  0  0
   -5.6060    0.4680   -2.7923 H   0  0  0  0  0  0  0  0  0  0  0  0
   -3.7458    0.5518   -1.4963 H   0  0  0  0  0  0  0  0  0  0  0  0
   -3.2782    2.9223   -1.1445 H   0  0  0  0  0  0  0  0  0  0  0  0
   -2.5635    1.8397    0.1632 H   0  0  0  0  0  0  0  0  0  0  0  0
   -3.4907    3.3432    0.6323 H   0  0  0  0  0  0  0  0  0  0  0  0
   -0.4294    0.5721   -1.1065 H   0  0  0  0  0  0  0  0  0  0  0  0
   -0.1863    1.5183    1.1633 H   0  0  0  0  0  0  0  0  0  0  0  0
    0.6531   -1.3484    0.4040 H   0  0  0  0  0  0  0  0  0  0  0  0
    1.3620   -0.2366    1.6564 H   0  0  0  0  0  0  0  0  0  0  0  0
    2.8579   -1.2151    0.1564 H   0  0  0  0  0  0  0  0  0  0  0  0
    3.8433   -1.1146   -2.2217 H   0  0  0  0  0  0  0  0  0  0  0  0
    2.0742   -1.1686   -2.2443 H   0  0  0  0  0  0  0  0  0  0  0  0
    1.7932    1.1289   -2.6812 H   0  0  0  0  0  0  0  0  0  0  0  0
    3.0787    0.5440   -3.7445 H   0  0  0  0  0  0  0  0  0  0  0  0
    4.8133    1.5756   -2.6597 H   0  0  0  0  0  0  0  0  0  0  0  0
    3.5202    2.7778   -2.6322 H   0  0  0  0  0  0  0  0  0  0  0  0
    3.0740    2.6119   -0.3434 H   0  0  0  0  0  0  0  0  0  0  0  0
    3.8977    0.8190    1.0896 H   0  0  0  0  0  0  0  0  0  0  0  0
    5.4575    0.0660   -1.4472 H   0  0  0  0  0  0  0  0  0  0  0  0
    5.3352   -1.8826    0.3668 H   0  0  0  0  0  0  0  0  0  0  0  0
    5.9107   -0.6239    1.5131 H   0  0  0  0  0  0  0  0  0  0  0  0
    7.3934   -2.0396   -0.5351 H   0  0  0  0  0  0  0  0  0  0  0  0
    8.0250   -1.1489    0.8911 H   0  0  0  0  0  0  0  0  0  0  0  0
    8.8640   -0.0485   -1.0103 H   0  0  0  0  0  0  0  0  0  0  0  0
    7.3999   -0.2351   -1.9783 H   0  0  0  0  0  0  0  0  0  0  0  0
    7.4611    2.0886   -1.4043 H   0  0  0  0  0  0  0  0  0  0  0  0
    8.1264    1.8043    0.2200 H   0  0  0  0  0  0  0  0  0  0  0  0
    6.0365    1.4636    1.1675 H   0  0  0  0  0  0  0  0  0  0  0  0
    5.0496    3.2301    0.3413 H   0  0  0  0  0  0  0  0  0  0  0  0
   -0.9744   -0.1689    2.8494 H   0  0  0  0  0  0  0  0  0  0  0  0
   -2.2950    0.5250    1.8492 H   0  0  0  0  0  0  0  0  0  0  0  0
   -2.0611   -1.4515    0.3723 H   0  0  0  0  0  0  0  0  0  0  0  0
   -2.7221   -3.2085    1.8007 H   0  0  0  0  0  0  0  0  0  0  0  0
   -2.1987   -2.2038    3.2394 H   0  0  0  0  0  0  0  0  0  0  0  0
   -3.8659   -0.4660    2.5807 H   0  0  0  0  0  0  0  0  0  0  0  0
   -4.6255   -2.1109    2.8976 H   0  0  0  0  0  0  0  0  0  0  0  0
   -5.9825   -0.5308    1.9431 H   0  0  0  0  0  0  0  0  0  0  0  0
   -6.4677   -2.7258   -0.0765 H   0  0  0  0  0  0  0  0  0  0  0  0
   -7.0467   -2.4931    1.5901 H   0  0  0  0  0  0  0  0  0  0  0  0
   -8.7780   -2.2626   -0.0539 H   0  0  0  0  0  0  0  0  0  0  0  0
   -8.6115   -0.7105    0.7882 H   0  0  0  0  0  0  0  0  0  0  0  0
   -8.7252   -0.2979   -1.5888 H   0  0  0  0  0  0  0  0  0  0  0  0
   -7.6932   -1.6883   -1.9397 H   0  0  0  0  0  0  0  0  0  0  0  0
   -6.9454    1.0822   -1.6406 H   0  0  0  0  0  0  0  0  0  0  0  0
   -5.9426   -0.2877   -2.1280 H   0  0  0  0  0  0  0  0  0  0  0  0
   -4.7912    0.4968   -0.3109 H   0  0  0  0  0  0  0  0  0  0  0  0
   -4.4336    1.9384    1.2808 H   0  0  0  0  0  0  0  0  0  0  0  0
   -5.6421    3.3351    1.1940 H   0  0  0  0  0  0  0  0  0  0  0  0
   -4.8580    2.6861   -0.2647 H   0  0  0  0  0  0  0  0  0  0  0  0
  1  2  1  0
  2  3  1  0
  3  4  1  0
  4  5  1  0
  5  6  1  0
  6  7  1  0
  7  8  1  0
  8  9  1  0
  5 10  1  0
  9 10  1  0
 10 11  1  0
 11 12  1  0
 12 13  1  0
 13 14  1  0
 14 15  1  0
 11 16  1  0
 15 16  1  0
  9 17  1  0
 16 17  1  0
  2 18  1  0
 18 19  1  0
 19 20  1  0
 20 21  1  0
 21 22  1  0
 22 23  1  0
 23 24  1  0
 24 25  1  0
 25 26  1  0
 26 27  1  0
 23 28  1  0
 27 28  1  0
 28 29  1  0
 29 30  1  0
 31 32  1  0
 32 33  1  0
 33 34  1  0
 34 35  1  0
 35 36  1  0
 36 37  1  0
 37 38  1  0
 38 39  1  0
 35 40  1  0
 39 40  1  0
 40 41  1  0
 41 42  1  0
 42 43  1  0
 43 44  1  0
 44 45  1  0
 41 46  1  0
 45 46  1  0
 39 47  1  0
 46 47  1  0
 32 48  1  0
 48 49  1  0
 49 50  1  0
 50 51  1  0
 51 52  1  0
 52 53  1  0
 53 54  1  0
 54 55  1  0
 55 56  1  0
 56 57  1  0
 53 58  1  0
 57 58  1  0
 58 59  1  0
 59 60  1  0
  1 61  1  0
  2 62  1  1
  3 63  1  0
  3 64  1  0
  5 65  1  6
  6 66  1  0
  6 67  1  0
  7 68  1  0
  7 69  1  0
  8 70  1  0
  8 71  1  0
  9 72  1  0
 10 73  1  0
 11 74  1  0
 12 75  1  0
 12 76  1  0
 13 77  1  0
 13 78  1  0
 14 79  1  0
 14 80  1  0
 15 81  1  0
 15 82  1  0
 16 83  1  0
 17 84  1  0
 18 85  1  0
 18 86  1  0
 19 87  1  0
 20 88  1  0
 20 89  1  0
 21 90  1  0
 21 91  1  0
 23 92  1  0
 24 93  1  0
 24 94  1  0
 25 95  1  0
 25 96  1  0
 26 97  1  0
 26 98  1  0
 27 99  1  0
 27100  1  0
 28101  1  0
 30102  1  0
 30103  1  0
 30104  1  0
 31105  1  0
 32106  1  1
 33107  1  0
 33108  1  0
 35109  1  1
 36110  1  0
 36111  1  0
 37112  1  0
 37113  1  0
 38114  1  0
 38115  1  0
 39116  1  0
 40117  1  1
 41118  1  6
 42119  1  0
 42120  1  0
 43121  1  0
 43122  1  0
 44123  1  0
 44124  1  0
 45125  1  0
 45126  1  0
 46127  1  0
 47128  1  0
 48129  1  0
 48130  1  0
 49131  1  0
 50132  1  0
 50133  1  0
 51134  1  0
 51135  1  0
 53136  1  0
 54137  1  0
 54138  1  0
 55139  1  0
 55140  1  0
 56141  1  0
 56142  1  0
 57143  1  0
 57144  1  0
 58145  1  0
 60146  1  0
 60147  1  0
 60148  1  0
M  END
>  <PDBID>  (1) 
4AMJ

>  <PDB ID>  (1) 
4AMJ

>  <Generic Name>  (1) 
Carvedilol

>  <Brand Name>  (1) 
Apo-carvedilol#Auro-carvedilol#Ava-carvedilol#Carvedilol#Coreg#Coreg (carvedilol) Tablets, 12.5mg#Coreg (carvedilol) Tablets, 25mg#Coreg (carvedilol) Tablets, 3.125 mg#Coreg (carvedilol) Tablets, 6.25mg#Coreg 12.5mg#Coreg 25mg#Coreg 3.125mg#Coreg 6.25mg#Coreg CR#Coregcr CR#Dilatrend - Tab 25mg#Dilatrend - Tab 50mg#Dom-carvedilol#Hypertenevide-12.5#Jamp-carvedilol#Mylan-carvedilol#Novo-carvedilol Tablets#Ntp-carvedilol#Nu-carvedilol#PMS-carvedilol#Ran-carvedilol#Ratio-carvedilol#Zym-carvedilol#COREGCR

>  <DrugBank ID>  (1) 
DB01136

>  <ATC Codes>  (1) 
C07AG02

>  <Ligand ID>  (1) 
CVD

>  <Target Name>  (1) 
Beta-1 adrenergic receptor

>  <UniProt ID>  (1) 
P08588

>  <PDB ID.1>  (1) 
4AMJ

>  <Seq. Identity>  (1) 
63%

$$$$
