PDB_DB00841_03
     RDKit          3D

114116  0  0  0  0  0  0  0  0999 V2000
    6.6618    1.1150    1.8520 O   0  0  0  0  0  0  0  0  0  0  0  0
    6.2428    0.2665    0.8210 C   0  0  0  0  0  0  0  0  0  0  0  0
    5.6651   -0.9525    1.4328 C   0  0  0  0  0  0  0  0  0  0  0  0
    4.6165   -1.6710    0.6756 C   0  0  0  0  0  0  0  0  0  0  0  0
    5.2827    1.0497   -0.0343 C   0  0  0  0  0  0  0  0  0  0  0  0
    4.4400    0.1096   -0.9087 C   0  0  0  0  0  0  0  0  0  0  0  0
    3.5884   -0.6762    0.0658 C   0  0  0  0  0  0  0  0  0  0  0  0
    2.5420   -1.4943   -0.5644 C   0  0  0  0  0  0  0  0  0  0  0  0
    1.4001   -0.8956   -1.2471 C   0  0  0  0  0  0  0  0  0  0  0  0
    0.4285   -0.0474   -0.4984 C   0  0  1  0  0  0  0  0  0  0  0  0
    1.0311    1.1521    0.0997 C   0  0  0  0  0  0  0  0  0  0  0  0
   -0.6947    0.1739   -1.3802 N   0  0  0  0  0  0  0  0  0  0  0  0
   -1.5921    1.2079   -1.0365 C   0  0  0  0  0  0  0  0  0  0  0  0
   -2.4110    0.9900    0.2034 C   0  0  0  0  0  0  0  0  0  0  0  0
   -3.2924   -0.2374    0.1264 C   0  0  0  0  0  0  0  0  0  0  0  0
   -4.0659   -0.3633    1.4036 C   0  0  0  0  0  0  0  0  0  0  0  0
   -5.2107    0.6066    1.4923 C   0  0  0  0  0  0  0  0  0  0  0  0
   -5.7733    0.5805    2.7672 O   0  0  0  0  0  0  0  0  0  0  0  0
   -6.2312    0.2775    0.4311 C   0  0  0  0  0  0  0  0  0  0  0  0
   -7.3161   -0.3498    1.0377 O   0  0  0  0  0  0  0  0  0  0  0  0
   -5.6120   -0.6388   -0.6049 C   0  0  0  0  0  0  0  0  0  0  0  0
   -4.2516   -0.1435   -1.0410 C   0  0  0  0  0  0  0  0  0  0  0  0
    6.6618    1.1150    1.8520 O   0  0  0  0  0  0  0  0  0  0  0  0
    6.2428    0.2665    0.8210 C   0  0  0  0  0  0  0  0  0  0  0  0
    5.6651   -0.9525    1.4328 C   0  0  0  0  0  0  0  0  0  0  0  0
    4.6165   -1.6710    0.6756 C   0  0  0  0  0  0  0  0  0  0  0  0
    5.2827    1.0497   -0.0343 C   0  0  0  0  0  0  0  0  0  0  0  0
    4.4400    0.1096   -0.9087 C   0  0  0  0  0  0  0  0  0  0  0  0
    3.5884   -0.6762    0.0658 C   0  0  0  0  0  0  0  0  0  0  0  0
    2.5420   -1.4943   -0.5644 C   0  0  0  0  0  0  0  0  0  0  0  0
    1.4001   -0.8956   -1.2471 C   0  0  0  0  0  0  0  0  0  0  0  0
    0.4285   -0.0474   -0.4984 C   0  0  1  0  0  0  0  0  0  0  0  0
    1.0311    1.1521    0.0997 C   0  0  0  0  0  0  0  0  0  0  0  0
   -0.6947    0.1739   -1.3802 N   0  0  0  0  0  0  0  0  0  0  0  0
   -1.5921    1.2079   -1.0365 C   0  0  0  0  0  0  0  0  0  0  0  0
   -2.4110    0.9900    0.2034 C   0  0  0  0  0  0  0  0  0  0  0  0
   -3.2924   -0.2374    0.1264 C   0  0  0  0  0  0  0  0  0  0  0  0
   -4.0659   -0.3633    1.4036 C   0  0  0  0  0  0  0  0  0  0  0  0
   -5.2107    0.6066    1.4923 C   0  0  0  0  0  0  0  0  0  0  0  0
   -5.7733    0.5805    2.7672 O   0  0  0  0  0  0  0  0  0  0  0  0
   -6.2312    0.2775    0.4311 C   0  0  0  0  0  0  0  0  0  0  0  0
   -7.3161   -0.3498    1.0377 O   0  0  0  0  0  0  0  0  0  0  0  0
   -5.6120   -0.6388   -0.6049 C   0  0  0  0  0  0  0  0  0  0  0  0
   -4.2516   -0.1435   -1.0410 C   0  0  0  0  0  0  0  0  0  0  0  0
    6.9185    2.0012    1.4422 H   0  0  0  0  0  0  0  0  0  0  0  0
    7.1612    0.0680    0.1996 H   0  0  0  0  0  0  0  0  0  0  0  0
    6.5187   -1.6800    1.5794 H   0  0  0  0  0  0  0  0  0  0  0  0
    5.2857   -0.7945    2.4814 H   0  0  0  0  0  0  0  0  0  0  0  0
    4.0882   -2.3559    1.3736 H   0  0  0  0  0  0  0  0  0  0  0  0
    5.0374   -2.2988   -0.1343 H   0  0  0  0  0  0  0  0  0  0  0  0
    5.8305    1.7851   -0.6228 H   0  0  0  0  0  0  0  0  0  0  0  0
    4.5502    1.5409    0.6541 H   0  0  0  0  0  0  0  0  0  0  0  0
    3.8929    0.7337   -1.6065 H   0  0  0  0  0  0  0  0  0  0  0  0
    5.1202   -0.6064   -1.4316 H   0  0  0  0  0  0  0  0  0  0  0  0
    3.3209   -0.0289    0.8958 H   0  0  0  0  0  0  0  0  0  0  0  0
    2.1693   -2.1974    0.2579 H   0  0  0  0  0  0  0  0  0  0  0  0
    3.0895   -2.2415   -1.2360 H   0  0  0  0  0  0  0  0  0  0  0  0
    1.6724   -0.3053   -2.1643 H   0  0  0  0  0  0  0  0  0  0  0  0
    0.7746   -1.7603   -1.6585 H   0  0  0  0  0  0  0  0  0  0  0  0
    0.0162   -0.7220    0.3247 H   0  0  0  0  0  0  0  0  0  0  0  0
    1.2530    0.9365    1.1873 H   0  0  0  0  0  0  0  0  0  0  0  0
    1.9863    1.4489   -0.3552 H   0  0  0  0  0  0  0  0  0  0  0  0
    0.3290    2.0262    0.1773 H   0  0  0  0  0  0  0  0  0  0  0  0
   -0.4271    0.2024   -2.3875 H   0  0  0  0  0  0  0  0  0  0  0  0
   -2.3715    1.2200   -1.8747 H   0  0  0  0  0  0  0  0  0  0  0  0
   -1.2066    2.2414   -1.0653 H   0  0  0  0  0  0  0  0  0  0  0  0
   -1.8242    0.9520    1.1252 H   0  0  0  0  0  0  0  0  0  0  0  0
   -3.1055    1.8644    0.2801 H   0  0  0  0  0  0  0  0  0  0  0  0
   -2.6550   -1.1440    0.0416 H   0  0  0  0  0  0  0  0  0  0  0  0
   -3.3331   -0.1572    2.2338 H   0  0  0  0  0  0  0  0  0  0  0  0
   -4.4922   -1.3841    1.5212 H   0  0  0  0  0  0  0  0  0  0  0  0
   -4.8709    1.6617    1.3313 H   0  0  0  0  0  0  0  0  0  0  0  0
   -6.4390    1.2926    2.8808 H   0  0  0  0  0  0  0  0  0  0  0  0
   -6.6125    1.2040   -0.0699 H   0  0  0  0  0  0  0  0  0  0  0  0
   -7.0690   -1.2960    1.2314 H   0  0  0  0  0  0  0  0  0  0  0  0
   -6.3289   -0.6735   -1.4536 H   0  0  0  0  0  0  0  0  0  0  0  0
   -5.5085   -1.6658   -0.2226 H   0  0  0  0  0  0  0  0  0  0  0  0
   -4.3341    0.9060   -1.4276 H   0  0  0  0  0  0  0  0  0  0  0  0
   -3.8846   -0.8328   -1.8221 H   0  0  0  0  0  0  0  0  0  0  0  0
    6.9185    2.0012    1.4422 H   0  0  0  0  0  0  0  0  0  0  0  0
    7.1612    0.0680    0.1996 H   0  0  0  0  0  0  0  0  0  0  0  0
    6.5187   -1.6800    1.5794 H   0  0  0  0  0  0  0  0  0  0  0  0
    5.2857   -0.7945    2.4814 H   0  0  0  0  0  0  0  0  0  0  0  0
    4.0882   -2.3559    1.3736 H   0  0  0  0  0  0  0  0  0  0  0  0
    5.0374   -2.2988   -0.1343 H   0  0  0  0  0  0  0  0  0  0  0  0
    5.8305    1.7851   -0.6228 H   0  0  0  0  0  0  0  0  0  0  0  0
    4.5502    1.5409    0.6541 H   0  0  0  0  0  0  0  0  0  0  0  0
    3.8929    0.7337   -1.6065 H   0  0  0  0  0  0  0  0  0  0  0  0
    5.1202   -0.6064   -1.4316 H   0  0  0  0  0  0  0  0  0  0  0  0
    3.3209   -0.0289    0.8958 H   0  0  0  0  0  0  0  0  0  0  0  0
    2.1693   -2.1974    0.2579 H   0  0  0  0  0  0  0  0  0  0  0  0
    3.0895   -2.2415   -1.2360 H   0  0  0  0  0  0  0  0  0  0  0  0
    1.6724   -0.3053   -2.1643 H   0  0  0  0  0  0  0  0  0  0  0  0
    0.7746   -1.7603   -1.6585 H   0  0  0  0  0  0  0  0  0  0  0  0
    0.0162   -0.7220    0.3247 H   0  0  0  0  0  0  0  0  0  0  0  0
    1.2530    0.9365    1.1873 H   0  0  0  0  0  0  0  0  0  0  0  0
    1.9863    1.4489   -0.3552 H   0  0  0  0  0  0  0  0  0  0  0  0
    0.3290    2.0262    0.1773 H   0  0  0  0  0  0  0  0  0  0  0  0
   -0.4271    0.2024   -2.3875 H   0  0  0  0  0  0  0  0  0  0  0  0
   -2.3715    1.2200   -1.8747 H   0  0  0  0  0  0  0  0  0  0  0  0
   -1.2066    2.2414   -1.0653 H   0  0  0  0  0  0  0  0  0  0  0  0
   -1.8242    0.9520    1.1252 H   0  0  0  0  0  0  0  0  0  0  0  0
   -3.1055    1.8644    0.2801 H   0  0  0  0  0  0  0  0  0  0  0  0
   -2.6550   -1.1440    0.0416 H   0  0  0  0  0  0  0  0  0  0  0  0
   -3.3331   -0.1572    2.2338 H   0  0  0  0  0  0  0  0  0  0  0  0
   -4.4922   -1.3841    1.5212 H   0  0  0  0  0  0  0  0  0  0  0  0
   -4.8709    1.6617    1.3313 H   0  0  0  0  0  0  0  0  0  0  0  0
   -6.4390    1.2926    2.8808 H   0  0  0  0  0  0  0  0  0  0  0  0
   -6.6125    1.2040   -0.0699 H   0  0  0  0  0  0  0  0  0  0  0  0
   -7.0690   -1.2960    1.2314 H   0  0  0  0  0  0  0  0  0  0  0  0
   -6.3289   -0.6735   -1.4536 H   0  0  0  0  0  0  0  0  0  0  0  0
   -5.5085   -1.6658   -0.2226 H   0  0  0  0  0  0  0  0  0  0  0  0
   -4.3341    0.9060   -1.4276 H   0  0  0  0  0  0  0  0  0  0  0  0
   -3.8846   -0.8328   -1.8221 H   0  0  0  0  0  0  0  0  0  0  0  0
  1  2  1  0
  2  3  1  0
  3  4  1  0
  2  5  1  0
  5  6  1  0
  4  7  1  0
  6  7  1  0
  7  8  1  0
  8  9  1  0
  9 10  1  0
 10 11  1  0
 10 12  1  0
 12 13  1  0
 13 14  1  0
 14 15  1  0
 15 16  1  0
 16 17  1  0
 17 18  1  0
 17 19  1  0
 19 20  1  0
 19 21  1  0
 15 22  1  0
 21 22  1  0
 23 24  1  0
 24 25  1  0
 25 26  1  0
 24 27  1  0
 27 28  1  0
 26 29  1  0
 28 29  1  0
 29 30  1  0
 30 31  1  0
 31 32  1  0
 32 33  1  0
 32 34  1  0
 34 35  1  0
 35 36  1  0
 36 37  1  0
 37 38  1  0
 38 39  1  0
 39 40  1  0
 39 41  1  0
 41 42  1  0
 41 43  1  0
 37 44  1  0
 43 44  1  0
  1 45  1  0
  2 46  1  0
  3 47  1  0
  3 48  1  0
  4 49  1  0
  4 50  1  0
  5 51  1  0
  5 52  1  0
  6 53  1  0
  6 54  1  0
  7 55  1  0
  8 56  1  0
  8 57  1  0
  9 58  1  0
  9 59  1  0
 10 60  1  1
 11 61  1  0
 11 62  1  0
 11 63  1  0
 12 64  1  0
 13 65  1  0
 13 66  1  0
 14 67  1  0
 14 68  1  0
 15 69  1  0
 16 70  1  0
 16 71  1  0
 17 72  1  0
 18 73  1  0
 19 74  1  0
 20 75  1  0
 21 76  1  0
 21 77  1  0
 22 78  1  0
 22 79  1  0
 23 80  1  0
 24 81  1  0
 25 82  1  0
 25 83  1  0
 26 84  1  0
 26 85  1  0
 27 86  1  0
 27 87  1  0
 28 88  1  0
 28 89  1  0
 29 90  1  0
 30 91  1  0
 30 92  1  0
 31 93  1  0
 31 94  1  0
 32 95  1  1
 33 96  1  0
 33 97  1  0
 33 98  1  0
 34 99  1  0
 35100  1  0
 35101  1  0
 36102  1  0
 36103  1  0
 37104  1  0
 38105  1  0
 38106  1  0
 39107  1  0
 40108  1  0
 41109  1  0
 42110  1  0
 43111  1  0
 43112  1  0
 44113  1  0
 44114  1  0
M  END
>  <PDBID>  (1) 
2Y00

>  <PDB ID>  (1) 
2Y00

>  <Generic Name>  (1) 
Dobutamine

>  <Brand Name>  (1) 
Dobutamine#Dobutamine 12.5mg/ml#Dobutamine Hydrochloride#Dobutamine Hydrochloride In Dextrose#Dobutamine Hydrochloride Injection USP#Dobutamine Hydrochloride Injection-12.5mg/ml#Dobutamine Injection Sdz#Dobutamine Injection USP#Dobutrex#Dobuject#Dobusafe#Dobutamin#Dobutan#Dobutel#Dobutil#Dopmin#Inotrex

>  <DrugBank ID>  (1) 
DB00841

>  <ATC Codes>  (1) 
C01CA07

>  <Ligand ID>  (1) 
Y00

>  <Target Name>  (1) 
Beta-1 adrenergic receptor

>  <UniProt ID>  (1) 
P08588

>  <PDB ID.1>  (1) 
2Y00

>  <Seq. Identity>  (1) 
63%

$$$$
