PDB_DB01016_08
     RDKit          3D

316324  0  0  0  0  0  0  0  0999 V2000
    4.6530   -2.7217   -1.4225 O   0  0  0  0  0  0  0  0  0  0  0  0
    3.8520   -2.8453    0.5687 O   0  0  0  0  0  0  0  0  0  0  0  0
    3.8866   -0.5546    1.8586 O   0  0  0  0  0  0  0  0  0  0  0  0
   -4.8048    1.3327   -2.5128 O   0  0  0  0  0  0  0  0  0  0  0  0
   -9.1408    2.5830    0.2440 Cl  0  0  0  0  0  0  0  0  0  0  0  0
    3.3825   -1.0409    0.4441 S   0  0  0  0  0  0  0  0  0  0  0  0
   -8.0664   -0.0136    0.4324 O   0  0  0  0  0  0  0  0  0  0  0  0
    6.2026   -1.3464   -0.4374 N   0  0  0  0  0  0  0  0  0  0  0  0
    4.0253   -0.5589   -0.8457 N   0  0  0  0  0  0  0  0  0  0  0  0
   -3.7921   -0.0020   -0.9925 N   0  0  0  0  0  0  0  0  0  0  0  0
    7.0684   -0.2004   -0.5085 C   0  0  0  0  0  0  0  0  0  0  0  0
    6.3058    1.0487   -0.2266 C   0  0  0  0  0  0  0  0  0  0  0  0
    8.1839   -0.4283    0.4938 C   0  0  0  0  0  0  0  0  0  0  0  0
    7.2031    2.2792   -0.2961 C   0  0  0  0  0  0  0  0  0  0  0  0
    8.4769    0.8440    1.2562 C   0  0  0  0  0  0  0  0  0  0  0  0
    8.5815    1.9663    0.2467 C   0  0  0  0  0  0  0  0  0  0  0  0
    5.1282   -1.3840   -1.3636 C   0  0  0  0  0  0  0  0  0  0  0  0
    1.6840   -1.2118    0.3908 C   0  0  0  0  0  0  0  0  0  0  0  0
   -1.0498   -1.1870   -0.4712 C   0  0  0  0  0  0  0  0  0  0  0  0
   -2.3433   -1.5626    0.2344 C   0  0  0  0  0  0  0  0  0  0  0  0
    1.0226    0.1401    0.1659 C   0  0  0  0  0  0  0  0  0  0  0  0
    1.2498   -2.0415   -0.8227 C   0  0  0  0  0  0  0  0  0  0  0  0
   -0.4622   -0.0152    0.2475 C   0  0  0  0  0  0  0  0  0  0  0  0
   -0.1794   -2.3978   -0.5854 C   0  0  0  0  0  0  0  0  0  0  0  0
   -3.3625   -0.4666    0.2588 C   0  0  0  0  0  0  0  0  0  0  0  0
   -4.8181    0.9276   -1.1376 C   0  0  0  0  0  0  0  0  0  0  0  0
   -6.2250    0.6104   -0.8351 C   0  0  0  0  0  0  0  0  0  0  0  0
   -6.6365    0.1503    0.5019 C   0  0  0  0  0  0  0  0  0  0  0  0
   -7.0848    1.8022   -1.2857 C   0  0  0  0  0  0  0  0  0  0  0  0
   -6.4577    1.1795    1.5877 C   0  0  0  0  0  0  0  0  0  0  0  0
   -7.3960    2.7302   -0.1713 C   0  0  0  0  0  0  0  0  0  0  0  0
   -6.6248    2.5791    1.0884 C   0  0  0  0  0  0  0  0  0  0  0  0
   -8.4344   -1.3048    0.7691 C   0  0  0  0  0  0  0  0  0  0  0  0
    4.6530   -2.7217   -1.4225 O   0  0  0  0  0  0  0  0  0  0  0  0
    3.8520   -2.8453    0.5687 O   0  0  0  0  0  0  0  0  0  0  0  0
    3.8866   -0.5546    1.8586 O   0  0  0  0  0  0  0  0  0  0  0  0
   -4.8048    1.3327   -2.5128 O   0  0  0  0  0  0  0  0  0  0  0  0
   -9.1408    2.5830    0.2440 Cl  0  0  0  0  0  0  0  0  0  0  0  0
    3.3825   -1.0409    0.4441 S   0  0  0  0  0  0  0  0  0  0  0  0
   -8.0664   -0.0136    0.4324 O   0  0  0  0  0  0  0  0  0  0  0  0
    6.2026   -1.3464   -0.4374 N   0  0  0  0  0  0  0  0  0  0  0  0
    4.0253   -0.5589   -0.8457 N   0  0  0  0  0  0  0  0  0  0  0  0
   -3.7921   -0.0020   -0.9925 N   0  0  0  0  0  0  0  0  0  0  0  0
    7.0684   -0.2004   -0.5085 C   0  0  0  0  0  0  0  0  0  0  0  0
    6.3058    1.0487   -0.2266 C   0  0  0  0  0  0  0  0  0  0  0  0
    8.1839   -0.4283    0.4938 C   0  0  0  0  0  0  0  0  0  0  0  0
    7.2031    2.2792   -0.2961 C   0  0  0  0  0  0  0  0  0  0  0  0
    8.4769    0.8440    1.2562 C   0  0  0  0  0  0  0  0  0  0  0  0
    8.5815    1.9663    0.2467 C   0  0  0  0  0  0  0  0  0  0  0  0
    5.1282   -1.3840   -1.3636 C   0  0  0  0  0  0  0  0  0  0  0  0
    1.6840   -1.2118    0.3908 C   0  0  0  0  0  0  0  0  0  0  0  0
   -1.0498   -1.1870   -0.4712 C   0  0  0  0  0  0  0  0  0  0  0  0
   -2.3433   -1.5626    0.2344 C   0  0  0  0  0  0  0  0  0  0  0  0
    1.0226    0.1401    0.1659 C   0  0  0  0  0  0  0  0  0  0  0  0
    1.2498   -2.0415   -0.8227 C   0  0  0  0  0  0  0  0  0  0  0  0
   -0.4622   -0.0152    0.2475 C   0  0  0  0  0  0  0  0  0  0  0  0
   -0.1794   -2.3978   -0.5854 C   0  0  0  0  0  0  0  0  0  0  0  0
   -3.3625   -0.4666    0.2588 C   0  0  0  0  0  0  0  0  0  0  0  0
   -4.8181    0.9276   -1.1376 C   0  0  0  0  0  0  0  0  0  0  0  0
   -6.2250    0.6104   -0.8351 C   0  0  0  0  0  0  0  0  0  0  0  0
   -6.6365    0.1503    0.5019 C   0  0  0  0  0  0  0  0  0  0  0  0
   -7.0848    1.8022   -1.2857 C   0  0  0  0  0  0  0  0  0  0  0  0
   -6.4577    1.1795    1.5877 C   0  0  0  0  0  0  0  0  0  0  0  0
   -7.3960    2.7302   -0.1713 C   0  0  0  0  0  0  0  0  0  0  0  0
   -6.6248    2.5791    1.0884 C   0  0  0  0  0  0  0  0  0  0  0  0
   -8.4344   -1.3048    0.7691 C   0  0  0  0  0  0  0  0  0  0  0  0
    4.6530   -2.7217   -1.4225 O   0  0  0  0  0  0  0  0  0  0  0  0
    3.8520   -2.8453    0.5687 O   0  0  0  0  0  0  0  0  0  0  0  0
    3.8866   -0.5546    1.8586 O   0  0  0  0  0  0  0  0  0  0  0  0
   -4.8048    1.3327   -2.5128 O   0  0  0  0  0  0  0  0  0  0  0  0
   -9.1408    2.5830    0.2440 Cl  0  0  0  0  0  0  0  0  0  0  0  0
    3.3825   -1.0409    0.4441 S   0  0  0  0  0  0  0  0  0  0  0  0
   -8.0664   -0.0136    0.4324 O   0  0  0  0  0  0  0  0  0  0  0  0
    6.2026   -1.3464   -0.4374 N   0  0  0  0  0  0  0  0  0  0  0  0
    4.0253   -0.5589   -0.8457 N   0  0  0  0  0  0  0  0  0  0  0  0
   -3.7921   -0.0020   -0.9925 N   0  0  0  0  0  0  0  0  0  0  0  0
    7.0684   -0.2004   -0.5085 C   0  0  0  0  0  0  0  0  0  0  0  0
    6.3058    1.0487   -0.2266 C   0  0  0  0  0  0  0  0  0  0  0  0
    8.1839   -0.4283    0.4938 C   0  0  0  0  0  0  0  0  0  0  0  0
    7.2031    2.2792   -0.2961 C   0  0  0  0  0  0  0  0  0  0  0  0
    8.4769    0.8440    1.2562 C   0  0  0  0  0  0  0  0  0  0  0  0
    8.5815    1.9663    0.2467 C   0  0  0  0  0  0  0  0  0  0  0  0
    5.1282   -1.3840   -1.3636 C   0  0  0  0  0  0  0  0  0  0  0  0
    1.6840   -1.2118    0.3908 C   0  0  0  0  0  0  0  0  0  0  0  0
   -1.0498   -1.1870   -0.4712 C   0  0  0  0  0  0  0  0  0  0  0  0
   -2.3433   -1.5626    0.2344 C   0  0  0  0  0  0  0  0  0  0  0  0
    1.0226    0.1401    0.1659 C   0  0  0  0  0  0  0  0  0  0  0  0
    1.2498   -2.0415   -0.8227 C   0  0  0  0  0  0  0  0  0  0  0  0
   -0.4622   -0.0152    0.2475 C   0  0  0  0  0  0  0  0  0  0  0  0
   -0.1794   -2.3978   -0.5854 C   0  0  0  0  0  0  0  0  0  0  0  0
   -3.3625   -0.4666    0.2588 C   0  0  0  0  0  0  0  0  0  0  0  0
   -4.8181    0.9276   -1.1376 C   0  0  0  0  0  0  0  0  0  0  0  0
   -6.2250    0.6104   -0.8351 C   0  0  0  0  0  0  0  0  0  0  0  0
   -6.6365    0.1503    0.5019 C   0  0  0  0  0  0  0  0  0  0  0  0
   -7.0848    1.8022   -1.2857 C   0  0  0  0  0  0  0  0  0  0  0  0
   -6.4577    1.1795    1.5877 C   0  0  0  0  0  0  0  0  0  0  0  0
   -7.3960    2.7302   -0.1713 C   0  0  0  0  0  0  0  0  0  0  0  0
   -6.6248    2.5791    1.0884 C   0  0  0  0  0  0  0  0  0  0  0  0
   -8.4344   -1.3048    0.7691 C   0  0  0  0  0  0  0  0  0  0  0  0
    4.6530   -2.7217   -1.4225 O   0  0  0  0  0  0  0  0  0  0  0  0
    3.8520   -2.8453    0.5687 O   0  0  0  0  0  0  0  0  0  0  0  0
    3.8866   -0.5546    1.8586 O   0  0  0  0  0  0  0  0  0  0  0  0
   -4.8048    1.3327   -2.5128 O   0  0  0  0  0  0  0  0  0  0  0  0
   -9.1408    2.5830    0.2440 Cl  0  0  0  0  0  0  0  0  0  0  0  0
    3.3825   -1.0409    0.4441 S   0  0  0  0  0  0  0  0  0  0  0  0
   -8.0664   -0.0136    0.4324 O   0  0  0  0  0  0  0  0  0  0  0  0
    6.2026   -1.3464   -0.4374 N   0  0  0  0  0  0  0  0  0  0  0  0
    4.0253   -0.5589   -0.8457 N   0  0  0  0  0  0  0  0  0  0  0  0
   -3.7921   -0.0020   -0.9925 N   0  0  0  0  0  0  0  0  0  0  0  0
    7.0684   -0.2004   -0.5085 C   0  0  0  0  0  0  0  0  0  0  0  0
    6.3058    1.0487   -0.2266 C   0  0  0  0  0  0  0  0  0  0  0  0
    8.1839   -0.4283    0.4938 C   0  0  0  0  0  0  0  0  0  0  0  0
    7.2031    2.2792   -0.2961 C   0  0  0  0  0  0  0  0  0  0  0  0
    8.4769    0.8440    1.2562 C   0  0  0  0  0  0  0  0  0  0  0  0
    8.5815    1.9663    0.2467 C   0  0  0  0  0  0  0  0  0  0  0  0
    5.1282   -1.3840   -1.3636 C   0  0  0  0  0  0  0  0  0  0  0  0
    1.6840   -1.2118    0.3908 C   0  0  0  0  0  0  0  0  0  0  0  0
   -1.0498   -1.1870   -0.4712 C   0  0  0  0  0  0  0  0  0  0  0  0
   -2.3433   -1.5626    0.2344 C   0  0  0  0  0  0  0  0  0  0  0  0
    1.0226    0.1401    0.1659 C   0  0  0  0  0  0  0  0  0  0  0  0
    1.2498   -2.0415   -0.8227 C   0  0  0  0  0  0  0  0  0  0  0  0
   -0.4622   -0.0152    0.2475 C   0  0  0  0  0  0  0  0  0  0  0  0
   -0.1794   -2.3978   -0.5854 C   0  0  0  0  0  0  0  0  0  0  0  0
   -3.3625   -0.4666    0.2588 C   0  0  0  0  0  0  0  0  0  0  0  0
   -4.8181    0.9276   -1.1376 C   0  0  0  0  0  0  0  0  0  0  0  0
   -6.2250    0.6104   -0.8351 C   0  0  0  0  0  0  0  0  0  0  0  0
   -6.6365    0.1503    0.5019 C   0  0  0  0  0  0  0  0  0  0  0  0
   -7.0848    1.8022   -1.2857 C   0  0  0  0  0  0  0  0  0  0  0  0
   -6.4577    1.1795    1.5877 C   0  0  0  0  0  0  0  0  0  0  0  0
   -7.3960    2.7302   -0.1713 C   0  0  0  0  0  0  0  0  0  0  0  0
   -6.6248    2.5791    1.0884 C   0  0  0  0  0  0  0  0  0  0  0  0
   -8.4344   -1.3048    0.7691 C   0  0  0  0  0  0  0  0  0  0  0  0
    5.3481   -3.3553   -1.1645 H   0  0  0  0  0  0  0  0  0  0  0  0
    3.1790   -3.1189    1.2355 H   0  0  0  0  0  0  0  0  0  0  0  0
    3.3493    0.1554    2.3103 H   0  0  0  0  0  0  0  0  0  0  0  0
   -4.3029    2.1561   -2.6502 H   0  0  0  0  0  0  0  0  0  0  0  0
    5.8679   -1.5427    0.5330 H   0  0  0  0  0  0  0  0  0  0  0  0
    3.5080   -0.0877   -1.6120 H   0  0  0  0  0  0  0  0  0  0  0  0
   -3.1970   -0.1956   -1.7983 H   0  0  0  0  0  0  0  0  0  0  0  0
    7.5173   -0.2168   -1.5252 H   0  0  0  0  0  0  0  0  0  0  0  0
    5.7896    0.9968    0.7364 H   0  0  0  0  0  0  0  0  0  0  0  0
    5.5518    1.2006   -1.0239 H   0  0  0  0  0  0  0  0  0  0  0  0
    9.1066   -0.7167   -0.0368 H   0  0  0  0  0  0  0  0  0  0  0  0
    7.9237   -1.2569    1.1943 H   0  0  0  0  0  0  0  0  0  0  0  0
    7.2425    2.6885   -1.3100 H   0  0  0  0  0  0  0  0  0  0  0  0
    6.7521    3.0390    0.3703 H   0  0  0  0  0  0  0  0  0  0  0  0
    7.6845    1.0118    2.0185 H   0  0  0  0  0  0  0  0  0  0  0  0
    9.4813    0.6929    1.7116 H   0  0  0  0  0  0  0  0  0  0  0  0
    9.1707    1.5347   -0.6091 H   0  0  0  0  0  0  0  0  0  0  0  0
    9.0806    2.8324    0.6915 H   0  0  0  0  0  0  0  0  0  0  0  0
    5.4412   -1.0798   -2.3655 H   0  0  0  0  0  0  0  0  0  0  0  0
    1.2463   -1.7164    1.2794 H   0  0  0  0  0  0  0  0  0  0  0  0
   -1.3212   -0.8276   -1.5025 H   0  0  0  0  0  0  0  0  0  0  0  0
   -2.1284   -1.8110    1.3162 H   0  0  0  0  0  0  0  0  0  0  0  0
   -2.8110   -2.4782   -0.1801 H   0  0  0  0  0  0  0  0  0  0  0  0
    1.2811    0.4266   -0.8757 H   0  0  0  0  0  0  0  0  0  0  0  0
    1.3941    0.8688    0.9144 H   0  0  0  0  0  0  0  0  0  0  0  0
    1.8912   -2.9274   -0.9320 H   0  0  0  0  0  0  0  0  0  0  0  0
    1.3234   -1.3765   -1.7192 H   0  0  0  0  0  0  0  0  0  0  0  0
   -0.7076   -0.1567    1.3400 H   0  0  0  0  0  0  0  0  0  0  0  0
   -0.9856    0.9255   -0.0570 H   0  0  0  0  0  0  0  0  0  0  0  0
   -0.2675   -3.0642    0.3171 H   0  0  0  0  0  0  0  0  0  0  0  0
   -0.5034   -3.0461   -1.4384 H   0  0  0  0  0  0  0  0  0  0  0  0
   -2.7906    0.4230    0.7351 H   0  0  0  0  0  0  0  0  0  0  0  0
   -4.1097   -0.7270    1.0050 H   0  0  0  0  0  0  0  0  0  0  0  0
   -4.4870    1.8899   -0.6256 H   0  0  0  0  0  0  0  0  0  0  0  0
   -6.5158   -0.2133   -1.5601 H   0  0  0  0  0  0  0  0  0  0  0  0
   -6.2825   -0.8106    0.8065 H   0  0  0  0  0  0  0  0  0  0  0  0
   -8.0004    1.4279   -1.7908 H   0  0  0  0  0  0  0  0  0  0  0  0
   -6.4960    2.3366   -2.0523 H   0  0  0  0  0  0  0  0  0  0  0  0
   -7.1685    1.0122    2.4251 H   0  0  0  0  0  0  0  0  0  0  0  0
   -5.4356    1.1120    2.0325 H   0  0  0  0  0  0  0  0  0  0  0  0
   -7.2941    3.8102   -0.4882 H   0  0  0  0  0  0  0  0  0  0  0  0
   -5.6381    3.1342    1.0565 H   0  0  0  0  0  0  0  0  0  0  0  0
   -7.1887    3.1487    1.8775 H   0  0  0  0  0  0  0  0  0  0  0  0
   -8.1184   -1.5551    1.8047 H   0  0  0  0  0  0  0  0  0  0  0  0
   -7.8978   -1.9811    0.0548 H   0  0  0  0  0  0  0  0  0  0  0  0
   -9.5097   -1.4520    0.6075 H   0  0  0  0  0  0  0  0  0  0  0  0
    5.3481   -3.3553   -1.1645 H   0  0  0  0  0  0  0  0  0  0  0  0
    3.1790   -3.1189    1.2355 H   0  0  0  0  0  0  0  0  0  0  0  0
    3.3493    0.1554    2.3103 H   0  0  0  0  0  0  0  0  0  0  0  0
   -4.3029    2.1561   -2.6502 H   0  0  0  0  0  0  0  0  0  0  0  0
    5.8679   -1.5427    0.5330 H   0  0  0  0  0  0  0  0  0  0  0  0
    3.5080   -0.0877   -1.6120 H   0  0  0  0  0  0  0  0  0  0  0  0
   -3.1970   -0.1956   -1.7983 H   0  0  0  0  0  0  0  0  0  0  0  0
    7.5173   -0.2168   -1.5252 H   0  0  0  0  0  0  0  0  0  0  0  0
    5.7896    0.9968    0.7364 H   0  0  0  0  0  0  0  0  0  0  0  0
    5.5518    1.2006   -1.0239 H   0  0  0  0  0  0  0  0  0  0  0  0
    9.1066   -0.7167   -0.0368 H   0  0  0  0  0  0  0  0  0  0  0  0
    7.9237   -1.2569    1.1943 H   0  0  0  0  0  0  0  0  0  0  0  0
    7.2425    2.6885   -1.3100 H   0  0  0  0  0  0  0  0  0  0  0  0
    6.7521    3.0390    0.3703 H   0  0  0  0  0  0  0  0  0  0  0  0
    7.6845    1.0118    2.0185 H   0  0  0  0  0  0  0  0  0  0  0  0
    9.4813    0.6929    1.7116 H   0  0  0  0  0  0  0  0  0  0  0  0
    9.1707    1.5347   -0.6091 H   0  0  0  0  0  0  0  0  0  0  0  0
    9.0806    2.8324    0.6915 H   0  0  0  0  0  0  0  0  0  0  0  0
    5.4412   -1.0798   -2.3655 H   0  0  0  0  0  0  0  0  0  0  0  0
    1.2463   -1.7164    1.2794 H   0  0  0  0  0  0  0  0  0  0  0  0
   -1.3212   -0.8276   -1.5025 H   0  0  0  0  0  0  0  0  0  0  0  0
   -2.1284   -1.8110    1.3162 H   0  0  0  0  0  0  0  0  0  0  0  0
   -2.8110   -2.4782   -0.1801 H   0  0  0  0  0  0  0  0  0  0  0  0
    1.2811    0.4266   -0.8757 H   0  0  0  0  0  0  0  0  0  0  0  0
    1.3941    0.8688    0.9144 H   0  0  0  0  0  0  0  0  0  0  0  0
    1.8912   -2.9274   -0.9320 H   0  0  0  0  0  0  0  0  0  0  0  0
    1.3234   -1.3765   -1.7192 H   0  0  0  0  0  0  0  0  0  0  0  0
   -0.7076   -0.1567    1.3400 H   0  0  0  0  0  0  0  0  0  0  0  0
   -0.9856    0.9255   -0.0570 H   0  0  0  0  0  0  0  0  0  0  0  0
   -0.2675   -3.0642    0.3171 H   0  0  0  0  0  0  0  0  0  0  0  0
   -0.5034   -3.0461   -1.4384 H   0  0  0  0  0  0  0  0  0  0  0  0
   -2.7906    0.4230    0.7351 H   0  0  0  0  0  0  0  0  0  0  0  0
   -4.1097   -0.7270    1.0050 H   0  0  0  0  0  0  0  0  0  0  0  0
   -4.4870    1.8899   -0.6256 H   0  0  0  0  0  0  0  0  0  0  0  0
   -6.5158   -0.2133   -1.5601 H   0  0  0  0  0  0  0  0  0  0  0  0
   -6.2825   -0.8106    0.8065 H   0  0  0  0  0  0  0  0  0  0  0  0
   -8.0004    1.4279   -1.7908 H   0  0  0  0  0  0  0  0  0  0  0  0
   -6.4960    2.3366   -2.0523 H   0  0  0  0  0  0  0  0  0  0  0  0
   -7.1685    1.0122    2.4251 H   0  0  0  0  0  0  0  0  0  0  0  0
   -5.4356    1.1120    2.0325 H   0  0  0  0  0  0  0  0  0  0  0  0
   -7.2941    3.8102   -0.4882 H   0  0  0  0  0  0  0  0  0  0  0  0
   -5.6381    3.1342    1.0565 H   0  0  0  0  0  0  0  0  0  0  0  0
   -7.1887    3.1487    1.8775 H   0  0  0  0  0  0  0  0  0  0  0  0
   -8.1184   -1.5551    1.8047 H   0  0  0  0  0  0  0  0  0  0  0  0
   -7.8978   -1.9811    0.0548 H   0  0  0  0  0  0  0  0  0  0  0  0
   -9.5097   -1.4520    0.6075 H   0  0  0  0  0  0  0  0  0  0  0  0
    5.3481   -3.3553   -1.1645 H   0  0  0  0  0  0  0  0  0  0  0  0
    3.1790   -3.1189    1.2355 H   0  0  0  0  0  0  0  0  0  0  0  0
    3.3493    0.1554    2.3103 H   0  0  0  0  0  0  0  0  0  0  0  0
   -4.3029    2.1561   -2.6502 H   0  0  0  0  0  0  0  0  0  0  0  0
    5.8679   -1.5427    0.5330 H   0  0  0  0  0  0  0  0  0  0  0  0
    3.5080   -0.0877   -1.6120 H   0  0  0  0  0  0  0  0  0  0  0  0
   -3.1970   -0.1956   -1.7983 H   0  0  0  0  0  0  0  0  0  0  0  0
    7.5173   -0.2168   -1.5252 H   0  0  0  0  0  0  0  0  0  0  0  0
    5.7896    0.9968    0.7364 H   0  0  0  0  0  0  0  0  0  0  0  0
    5.5518    1.2006   -1.0239 H   0  0  0  0  0  0  0  0  0  0  0  0
    9.1066   -0.7167   -0.0368 H   0  0  0  0  0  0  0  0  0  0  0  0
    7.9237   -1.2569    1.1943 H   0  0  0  0  0  0  0  0  0  0  0  0
    7.2425    2.6885   -1.3100 H   0  0  0  0  0  0  0  0  0  0  0  0
    6.7521    3.0390    0.3703 H   0  0  0  0  0  0  0  0  0  0  0  0
    7.6845    1.0118    2.0185 H   0  0  0  0  0  0  0  0  0  0  0  0
    9.4813    0.6929    1.7116 H   0  0  0  0  0  0  0  0  0  0  0  0
    9.1707    1.5347   -0.6091 H   0  0  0  0  0  0  0  0  0  0  0  0
    9.0806    2.8324    0.6915 H   0  0  0  0  0  0  0  0  0  0  0  0
    5.4412   -1.0798   -2.3655 H   0  0  0  0  0  0  0  0  0  0  0  0
    1.2463   -1.7164    1.2794 H   0  0  0  0  0  0  0  0  0  0  0  0
   -1.3212   -0.8276   -1.5025 H   0  0  0  0  0  0  0  0  0  0  0  0
   -2.1284   -1.8110    1.3162 H   0  0  0  0  0  0  0  0  0  0  0  0
   -2.8110   -2.4782   -0.1801 H   0  0  0  0  0  0  0  0  0  0  0  0
    1.2811    0.4266   -0.8757 H   0  0  0  0  0  0  0  0  0  0  0  0
    1.3941    0.8688    0.9144 H   0  0  0  0  0  0  0  0  0  0  0  0
    1.8912   -2.9274   -0.9320 H   0  0  0  0  0  0  0  0  0  0  0  0
    1.3234   -1.3765   -1.7192 H   0  0  0  0  0  0  0  0  0  0  0  0
   -0.7076   -0.1567    1.3400 H   0  0  0  0  0  0  0  0  0  0  0  0
   -0.9856    0.9255   -0.0570 H   0  0  0  0  0  0  0  0  0  0  0  0
   -0.2675   -3.0642    0.3171 H   0  0  0  0  0  0  0  0  0  0  0  0
   -0.5034   -3.0461   -1.4384 H   0  0  0  0  0  0  0  0  0  0  0  0
   -2.7906    0.4230    0.7351 H   0  0  0  0  0  0  0  0  0  0  0  0
   -4.1097   -0.7270    1.0050 H   0  0  0  0  0  0  0  0  0  0  0  0
   -4.4870    1.8899   -0.6256 H   0  0  0  0  0  0  0  0  0  0  0  0
   -6.5158   -0.2133   -1.5601 H   0  0  0  0  0  0  0  0  0  0  0  0
   -6.2825   -0.8106    0.8065 H   0  0  0  0  0  0  0  0  0  0  0  0
   -8.0004    1.4279   -1.7908 H   0  0  0  0  0  0  0  0  0  0  0  0
   -6.4960    2.3366   -2.0523 H   0  0  0  0  0  0  0  0  0  0  0  0
   -7.1685    1.0122    2.4251 H   0  0  0  0  0  0  0  0  0  0  0  0
   -5.4356    1.1120    2.0325 H   0  0  0  0  0  0  0  0  0  0  0  0
   -7.2941    3.8102   -0.4882 H   0  0  0  0  0  0  0  0  0  0  0  0
   -5.6381    3.1342    1.0565 H   0  0  0  0  0  0  0  0  0  0  0  0
   -7.1887    3.1487    1.8775 H   0  0  0  0  0  0  0  0  0  0  0  0
   -8.1184   -1.5551    1.8047 H   0  0  0  0  0  0  0  0  0  0  0  0
   -7.8978   -1.9811    0.0548 H   0  0  0  0  0  0  0  0  0  0  0  0
   -9.5097   -1.4520    0.6075 H   0  0  0  0  0  0  0  0  0  0  0  0
    5.3481   -3.3553   -1.1645 H   0  0  0  0  0  0  0  0  0  0  0  0
    3.1790   -3.1189    1.2355 H   0  0  0  0  0  0  0  0  0  0  0  0
    3.3493    0.1554    2.3103 H   0  0  0  0  0  0  0  0  0  0  0  0
   -4.3029    2.1561   -2.6502 H   0  0  0  0  0  0  0  0  0  0  0  0
    5.8679   -1.5427    0.5330 H   0  0  0  0  0  0  0  0  0  0  0  0
    3.5080   -0.0877   -1.6120 H   0  0  0  0  0  0  0  0  0  0  0  0
   -3.1970   -0.1956   -1.7983 H   0  0  0  0  0  0  0  0  0  0  0  0
    7.5173   -0.2168   -1.5252 H   0  0  0  0  0  0  0  0  0  0  0  0
    5.7896    0.9968    0.7364 H   0  0  0  0  0  0  0  0  0  0  0  0
    5.5518    1.2006   -1.0239 H   0  0  0  0  0  0  0  0  0  0  0  0
    9.1066   -0.7167   -0.0368 H   0  0  0  0  0  0  0  0  0  0  0  0
    7.9237   -1.2569    1.1943 H   0  0  0  0  0  0  0  0  0  0  0  0
    7.2425    2.6885   -1.3100 H   0  0  0  0  0  0  0  0  0  0  0  0
    6.7521    3.0390    0.3703 H   0  0  0  0  0  0  0  0  0  0  0  0
    7.6845    1.0118    2.0185 H   0  0  0  0  0  0  0  0  0  0  0  0
    9.4813    0.6929    1.7116 H   0  0  0  0  0  0  0  0  0  0  0  0
    9.1707    1.5347   -0.6091 H   0  0  0  0  0  0  0  0  0  0  0  0
    9.0806    2.8324    0.6915 H   0  0  0  0  0  0  0  0  0  0  0  0
    5.4412   -1.0798   -2.3655 H   0  0  0  0  0  0  0  0  0  0  0  0
    1.2463   -1.7164    1.2794 H   0  0  0  0  0  0  0  0  0  0  0  0
   -1.3212   -0.8276   -1.5025 H   0  0  0  0  0  0  0  0  0  0  0  0
   -2.1284   -1.8110    1.3162 H   0  0  0  0  0  0  0  0  0  0  0  0
   -2.8110   -2.4782   -0.1801 H   0  0  0  0  0  0  0  0  0  0  0  0
    1.2811    0.4266   -0.8757 H   0  0  0  0  0  0  0  0  0  0  0  0
    1.3941    0.8688    0.9144 H   0  0  0  0  0  0  0  0  0  0  0  0
    1.8912   -2.9274   -0.9320 H   0  0  0  0  0  0  0  0  0  0  0  0
    1.3234   -1.3765   -1.7192 H   0  0  0  0  0  0  0  0  0  0  0  0
   -0.7076   -0.1567    1.3400 H   0  0  0  0  0  0  0  0  0  0  0  0
   -0.9856    0.9255   -0.0570 H   0  0  0  0  0  0  0  0  0  0  0  0
   -0.2675   -3.0642    0.3171 H   0  0  0  0  0  0  0  0  0  0  0  0
   -0.5034   -3.0461   -1.4384 H   0  0  0  0  0  0  0  0  0  0  0  0
   -2.7906    0.4230    0.7351 H   0  0  0  0  0  0  0  0  0  0  0  0
   -4.1097   -0.7270    1.0050 H   0  0  0  0  0  0  0  0  0  0  0  0
   -4.4870    1.8899   -0.6256 H   0  0  0  0  0  0  0  0  0  0  0  0
   -6.5158   -0.2133   -1.5601 H   0  0  0  0  0  0  0  0  0  0  0  0
   -6.2825   -0.8106    0.8065 H   0  0  0  0  0  0  0  0  0  0  0  0
   -8.0004    1.4279   -1.7908 H   0  0  0  0  0  0  0  0  0  0  0  0
   -6.4960    2.3366   -2.0523 H   0  0  0  0  0  0  0  0  0  0  0  0
   -7.1685    1.0122    2.4251 H   0  0  0  0  0  0  0  0  0  0  0  0
   -5.4356    1.1120    2.0325 H   0  0  0  0  0  0  0  0  0  0  0  0
   -7.2941    3.8102   -0.4882 H   0  0  0  0  0  0  0  0  0  0  0  0
   -5.6381    3.1342    1.0565 H   0  0  0  0  0  0  0  0  0  0  0  0
   -7.1887    3.1487    1.8775 H   0  0  0  0  0  0  0  0  0  0  0  0
   -8.1184   -1.5551    1.8047 H   0  0  0  0  0  0  0  0  0  0  0  0
   -7.8978   -1.9811    0.0548 H   0  0  0  0  0  0  0  0  0  0  0  0
   -9.5097   -1.4520    0.6075 H   0  0  0  0  0  0  0  0  0  0  0  0
  6  2  1  0
  3  6  1  0
  6  9  1  0
  8 11  1  0
 11 12  1  0
 11 13  1  0
 12 14  1  0
 13 15  1  0
 14 16  1  0
 15 16  1  0
  1 17  1  0
  8 17  1  0
  9 17  1  0
  6 18  1  0
 19 20  1  0
 18 21  1  0
 18 22  1  0
 19 23  1  0
 21 23  1  0
 19 24  1  0
 22 24  1  0
 10 25  1  0
 20 25  1  0
  4 26  1  0
 10 26  1  0
 26 27  1  0
  7 28  1  0
 27 28  1  0
 27 29  1  0
 28 30  1  0
  5 31  1  0
 29 31  1  0
 30 32  1  0
 31 32  1  0
  7 33  1  0
 39 35  1  0
 36 39  1  0
 39 42  1  0
 41 44  1  0
 44 45  1  0
 44 46  1  0
 45 47  1  0
 46 48  1  0
 47 49  1  0
 48 49  1  0
 34 50  1  0
 41 50  1  0
 42 50  1  0
 39 51  1  0
 52 53  1  0
 51 54  1  0
 51 55  1  0
 52 56  1  0
 54 56  1  0
 52 57  1  0
 55 57  1  0
 43 58  1  0
 53 58  1  0
 37 59  1  0
 43 59  1  0
 59 60  1  0
 40 61  1  0
 60 61  1  0
 60 62  1  0
 61 63  1  0
 38 64  1  0
 62 64  1  0
 63 65  1  0
 64 65  1  0
 40 66  1  0
 72 68  1  0
 69 72  1  0
 72 75  1  0
 74 77  1  0
 77 78  1  0
 77 79  1  0
 78 80  1  0
 79 81  1  0
 80 82  1  0
 81 82  1  0
 67 83  1  0
 74 83  1  0
 75 83  1  0
 72 84  1  0
 85 86  1  0
 84 87  1  0
 84 88  1  0
 85 89  1  0
 87 89  1  0
 85 90  1  0
 88 90  1  0
 76 91  1  0
 86 91  1  0
 70 92  1  0
 76 92  1  0
 92 93  1  0
 73 94  1  0
 93 94  1  0
 93 95  1  0
 94 96  1  0
 71 97  1  0
 95 97  1  0
 96 98  1  0
 97 98  1  0
 73 99  1  0
105101  1  0
102105  1  0
105108  1  0
107110  1  0
110111  1  0
110112  1  0
111113  1  0
112114  1  0
113115  1  0
114115  1  0
100116  1  0
107116  1  0
108116  1  0
105117  1  0
118119  1  0
117120  1  0
117121  1  0
118122  1  0
120122  1  0
118123  1  0
121123  1  0
109124  1  0
119124  1  0
103125  1  0
109125  1  0
125126  1  0
106127  1  0
126127  1  0
126128  1  0
127129  1  0
104130  1  0
128130  1  0
129131  1  0
130131  1  0
106132  1  0
  1133  1  0
  2134  1  0
  3135  1  0
  4136  1  0
  8137  1  0
  9138  1  0
 10139  1  0
 11140  1  0
 12141  1  0
 12142  1  0
 13143  1  0
 13144  1  0
 14145  1  0
 14146  1  0
 15147  1  0
 15148  1  0
 16149  1  0
 16150  1  0
 17151  1  0
 18152  1  0
 19153  1  0
 20154  1  0
 20155  1  0
 21156  1  0
 21157  1  0
 22158  1  0
 22159  1  0
 23160  1  0
 23161  1  0
 24162  1  0
 24163  1  0
 25164  1  0
 25165  1  0
 26166  1  0
 27167  1  0
 28168  1  0
 29169  1  0
 29170  1  0
 30171  1  0
 30172  1  0
 31173  1  0
 32174  1  0
 32175  1  0
 33176  1  0
 33177  1  0
 33178  1  0
 34179  1  0
 35180  1  0
 36181  1  0
 37182  1  0
 41183  1  0
 42184  1  0
 43185  1  0
 44186  1  0
 45187  1  0
 45188  1  0
 46189  1  0
 46190  1  0
 47191  1  0
 47192  1  0
 48193  1  0
 48194  1  0
 49195  1  0
 49196  1  0
 50197  1  0
 51198  1  0
 52199  1  0
 53200  1  0
 53201  1  0
 54202  1  0
 54203  1  0
 55204  1  0
 55205  1  0
 56206  1  0
 56207  1  0
 57208  1  0
 57209  1  0
 58210  1  0
 58211  1  0
 59212  1  0
 60213  1  0
 61214  1  0
 62215  1  0
 62216  1  0
 63217  1  0
 63218  1  0
 64219  1  0
 65220  1  0
 65221  1  0
 66222  1  0
 66223  1  0
 66224  1  0
 67225  1  0
 68226  1  0
 69227  1  0
 70228  1  0
 74229  1  0
 75230  1  0
 76231  1  0
 77232  1  0
 78233  1  0
 78234  1  0
 79235  1  0
 79236  1  0
 80237  1  0
 80238  1  0
 81239  1  0
 81240  1  0
 82241  1  0
 82242  1  0
 83243  1  0
 84244  1  0
 85245  1  0
 86246  1  0
 86247  1  0
 87248  1  0
 87249  1  0
 88250  1  0
 88251  1  0
 89252  1  0
 89253  1  0
 90254  1  0
 90255  1  0
 91256  1  0
 91257  1  0
 92258  1  0
 93259  1  0
 94260  1  0
 95261  1  0
 95262  1  0
 96263  1  0
 96264  1  0
 97265  1  0
 98266  1  0
 98267  1  0
 99268  1  0
 99269  1  0
 99270  1  0
100271  1  0
101272  1  0
102273  1  0
103274  1  0
107275  1  0
108276  1  0
109277  1  0
110278  1  0
111279  1  0
111280  1  0
112281  1  0
112282  1  0
113283  1  0
113284  1  0
114285  1  0
114286  1  0
115287  1  0
115288  1  0
116289  1  0
117290  1  0
118291  1  0
119292  1  0
119293  1  0
120294  1  0
120295  1  0
121296  1  0
121297  1  0
122298  1  0
122299  1  0
123300  1  0
123301  1  0
124302  1  0
124303  1  0
125304  1  0
126305  1  0
127306  1  0
128307  1  0
128308  1  0
129309  1  0
129310  1  0
130311  1  0
131312  1  0
131313  1  0
132314  1  0
132315  1  0
132316  1  0
M  END
>  <PDBID>  (1) 
6BAA

>  <PDB ID>  (1) 
6BAA

>  <Generic Name>  (1) 
Glyburide

>  <Brand Name>  (1) 
Apo Glyburide Tab 2.5mg#Apo Glyburide Tab 5mg#Ava-glyburide#Diabeta#Diabeta 5mg#Diabeta Tab 2.5mg#Diabeta Tab 5mg#Diabeta Tablets 2.5mg#Dom-glyburide#Euglucon#Glucovance#Glyburide#Glyburide (micronized) and Metformin Hydrochloride#Glyburide Tablets 2.5mg#Glyburide Tablets 5mg#Glyburide and Metformin#Glyburide and Metformin Hydrochloride#Glyburide-2.5 Tab 2.5mg#Glyburide-5 Tab 5mg#Glyburide-metformin Hydrochloride#Glynase#Med Glybe Tab 2.5mg#Med Glybe Tab 5mg#Mylan-glybe#Ntp-glyburide#Nu-glyburide Tab 2.5mg#Nu-glyburide Tab 5mg#PMS-glyburide#Penta-glyburide - 2.5mg#Penta-glyburide - 5mg#Pro-glyburide#Ratio-glyburide#Riva-glyburide#Sandoz Glyburide#Teva-glyburide#Daonil#Delmide#Micronase#Novo-Glyburide#Semi-Daonil

>  <DrugBank ID>  (1) 
DB01016

>  <ATC Codes>  (1) 
A10BB01

>  <Ligand ID>  (1) 
GBM

>  <Target Name>  (1) 
ATP-sensitive inward rectifier potassium channel 11

>  <UniProt ID>  (1) 
Q14654

>  <PDB ID.1>  (1) 
6BAA

>  <Seq. Identity>  (1) 
94%

$$$$
