PDB_DB00255_09
     RDKit          3D

108110  0  0  0  0  0  0  0  0999 V2000
   -2.3115    2.7166    1.3880 C   0  0  0  0  0  0  0  0  0  0  0  0
   -1.2860    2.4401    0.3160 C   0  0  0  0  0  0  0  0  0  0  0  0
   -0.5786    1.1324    0.3935 C   0  0  0  0  0  0  0  0  0  0  0  0
   -1.3710   -0.0902    0.2753 C   0  0  0  0  0  0  0  0  0  0  0  0
   -2.1572   -0.1678   -1.0487 C   0  0  0  0  0  0  0  0  0  0  0  0
   -2.7690   -1.5723   -1.1149 C   0  0  0  0  0  0  0  0  0  0  0  0
   -3.5539   -1.9332    0.1018 C   0  0  0  0  0  0  0  0  0  0  0  0
   -4.8427   -2.3515   -0.2126 O   0  0  0  0  0  0  0  0  0  0  0  0
   -3.6804   -0.7182    1.0033 C   0  0  0  0  0  0  0  0  0  0  0  0
   -2.2393   -0.4124    1.4492 C   0  0  0  0  0  0  0  0  0  0  0  0
    0.6926    1.2195   -0.4658 C   0  0  0  0  0  0  0  0  0  0  0  0
    1.4050   -0.0807   -0.4953 C   0  0  0  0  0  0  0  0  0  0  0  0
    2.6334   -0.0612   -1.3661 C   0  0  0  0  0  0  0  0  0  0  0  0
    3.0239   -1.5511   -1.6560 C   0  0  0  0  0  0  0  0  0  0  0  0
    3.4456   -2.0572   -0.2802 C   0  0  0  0  0  0  0  0  0  0  0  0
    4.0838   -3.2784   -0.3414 O   0  0  0  0  0  0  0  0  0  0  0  0
    2.2046   -2.0867    0.5810 C   0  0  0  0  0  0  0  0  0  0  0  0
    1.8462   -0.6141    0.8549 C   0  0  0  0  0  0  0  0  0  0  0  0
    1.5367    2.2552    0.2572 C   0  0  0  0  0  0  0  0  0  0  0  0
    2.8379    2.6212   -0.3754 C   0  0  0  0  0  0  0  0  0  0  0  0
   -2.3115    2.7166    1.3880 C   0  0  0  0  0  0  0  0  0  0  0  0
   -1.2860    2.4401    0.3160 C   0  0  0  0  0  0  0  0  0  0  0  0
   -0.5786    1.1324    0.3935 C   0  0  0  0  0  0  0  0  0  0  0  0
   -1.3710   -0.0902    0.2753 C   0  0  0  0  0  0  0  0  0  0  0  0
   -2.1572   -0.1678   -1.0487 C   0  0  0  0  0  0  0  0  0  0  0  0
   -2.7690   -1.5723   -1.1149 C   0  0  0  0  0  0  0  0  0  0  0  0
   -3.5539   -1.9332    0.1018 C   0  0  0  0  0  0  0  0  0  0  0  0
   -4.8427   -2.3515   -0.2126 O   0  0  0  0  0  0  0  0  0  0  0  0
   -3.6804   -0.7182    1.0033 C   0  0  0  0  0  0  0  0  0  0  0  0
   -2.2393   -0.4124    1.4492 C   0  0  0  0  0  0  0  0  0  0  0  0
    0.6926    1.2195   -0.4658 C   0  0  0  0  0  0  0  0  0  0  0  0
    1.4050   -0.0807   -0.4953 C   0  0  0  0  0  0  0  0  0  0  0  0
    2.6334   -0.0612   -1.3661 C   0  0  0  0  0  0  0  0  0  0  0  0
    3.0239   -1.5511   -1.6560 C   0  0  0  0  0  0  0  0  0  0  0  0
    3.4456   -2.0572   -0.2802 C   0  0  0  0  0  0  0  0  0  0  0  0
    4.0838   -3.2784   -0.3414 O   0  0  0  0  0  0  0  0  0  0  0  0
    2.2046   -2.0867    0.5810 C   0  0  0  0  0  0  0  0  0  0  0  0
    1.8462   -0.6141    0.8549 C   0  0  0  0  0  0  0  0  0  0  0  0
    1.5367    2.2552    0.2572 C   0  0  0  0  0  0  0  0  0  0  0  0
    2.8379    2.6212   -0.3754 C   0  0  0  0  0  0  0  0  0  0  0  0
   -2.5990    3.8273    1.3425 H   0  0  0  0  0  0  0  0  0  0  0  0
   -1.9004    2.5964    2.3994 H   0  0  0  0  0  0  0  0  0  0  0  0
   -3.2614    2.2065    1.2140 H   0  0  0  0  0  0  0  0  0  0  0  0
   -0.6824    3.3505    0.2239 H   0  0  0  0  0  0  0  0  0  0  0  0
   -1.8936    2.4932   -0.6636 H   0  0  0  0  0  0  0  0  0  0  0  0
   -0.1282    1.1394    1.4563 H   0  0  0  0  0  0  0  0  0  0  0  0
   -0.7205   -1.0273    0.1460 H   0  0  0  0  0  0  0  0  0  0  0  0
   -1.3964   -0.1586   -1.8569 H   0  0  0  0  0  0  0  0  0  0  0  0
   -2.9134    0.6053   -1.1192 H   0  0  0  0  0  0  0  0  0  0  0  0
   -1.9498   -2.2985   -1.3276 H   0  0  0  0  0  0  0  0  0  0  0  0
   -3.4552   -1.5576   -1.9873 H   0  0  0  0  0  0  0  0  0  0  0  0
   -3.0375   -2.7170    0.6937 H   0  0  0  0  0  0  0  0  0  0  0  0
   -4.7766   -3.1818   -0.7383 H   0  0  0  0  0  0  0  0  0  0  0  0
   -4.2536   -0.9570    1.8984 H   0  0  0  0  0  0  0  0  0  0  0  0
   -4.1047    0.1393    0.4882 H   0  0  0  0  0  0  0  0  0  0  0  0
   -2.3098    0.3589    2.2178 H   0  0  0  0  0  0  0  0  0  0  0  0
   -1.8679   -1.3234    2.0059 H   0  0  0  0  0  0  0  0  0  0  0  0
    0.4072    1.6122   -1.4276 H   0  0  0  0  0  0  0  0  0  0  0  0
    0.7904   -0.9119   -0.9337 H   0  0  0  0  0  0  0  0  0  0  0  0
    2.4563    0.3784   -2.3497 H   0  0  0  0  0  0  0  0  0  0  0  0
    3.5083    0.3226   -0.8226 H   0  0  0  0  0  0  0  0  0  0  0  0
    3.8735   -1.4863   -2.3324 H   0  0  0  0  0  0  0  0  0  0  0  0
    2.1413   -2.0680   -2.0225 H   0  0  0  0  0  0  0  0  0  0  0  0
    4.1201   -1.2534    0.1356 H   0  0  0  0  0  0  0  0  0  0  0  0
    5.0429   -3.1212   -0.1134 H   0  0  0  0  0  0  0  0  0  0  0  0
    2.4363   -2.5953    1.5370 H   0  0  0  0  0  0  0  0  0  0  0  0
    1.3501   -2.5803    0.0707 H   0  0  0  0  0  0  0  0  0  0  0  0
    2.8062   -0.1599    1.1800 H   0  0  0  0  0  0  0  0  0  0  0  0
    1.0809   -0.6306    1.6225 H   0  0  0  0  0  0  0  0  0  0  0  0
    1.7442    1.8622    1.3212 H   0  0  0  0  0  0  0  0  0  0  0  0
    1.0172    3.2025    0.4812 H   0  0  0  0  0  0  0  0  0  0  0  0
    2.9651    3.7764   -0.3218 H   0  0  0  0  0  0  0  0  0  0  0  0
    3.7371    2.2977    0.1892 H   0  0  0  0  0  0  0  0  0  0  0  0
    2.8527    2.4492   -1.4487 H   0  0  0  0  0  0  0  0  0  0  0  0
   -2.5990    3.8273    1.3425 H   0  0  0  0  0  0  0  0  0  0  0  0
   -1.9004    2.5964    2.3994 H   0  0  0  0  0  0  0  0  0  0  0  0
   -3.2614    2.2065    1.2140 H   0  0  0  0  0  0  0  0  0  0  0  0
   -0.6824    3.3505    0.2239 H   0  0  0  0  0  0  0  0  0  0  0  0
   -1.8936    2.4932   -0.6636 H   0  0  0  0  0  0  0  0  0  0  0  0
   -0.1282    1.1394    1.4563 H   0  0  0  0  0  0  0  0  0  0  0  0
   -0.7205   -1.0273    0.1460 H   0  0  0  0  0  0  0  0  0  0  0  0
   -1.3964   -0.1586   -1.8569 H   0  0  0  0  0  0  0  0  0  0  0  0
   -2.9134    0.6053   -1.1192 H   0  0  0  0  0  0  0  0  0  0  0  0
   -1.9498   -2.2985   -1.3276 H   0  0  0  0  0  0  0  0  0  0  0  0
   -3.4552   -1.5576   -1.9873 H   0  0  0  0  0  0  0  0  0  0  0  0
   -3.0375   -2.7170    0.6937 H   0  0  0  0  0  0  0  0  0  0  0  0
   -4.7766   -3.1818   -0.7383 H   0  0  0  0  0  0  0  0  0  0  0  0
   -4.2536   -0.9570    1.8984 H   0  0  0  0  0  0  0  0  0  0  0  0
   -4.1047    0.1393    0.4882 H   0  0  0  0  0  0  0  0  0  0  0  0
   -2.3098    0.3589    2.2178 H   0  0  0  0  0  0  0  0  0  0  0  0
   -1.8679   -1.3234    2.0059 H   0  0  0  0  0  0  0  0  0  0  0  0
    0.4072    1.6122   -1.4276 H   0  0  0  0  0  0  0  0  0  0  0  0
    0.7904   -0.9119   -0.9337 H   0  0  0  0  0  0  0  0  0  0  0  0
    2.4563    0.3784   -2.3497 H   0  0  0  0  0  0  0  0  0  0  0  0
    3.5083    0.3226   -0.8226 H   0  0  0  0  0  0  0  0  0  0  0  0
    3.8735   -1.4863   -2.3324 H   0  0  0  0  0  0  0  0  0  0  0  0
    2.1413   -2.0680   -2.0225 H   0  0  0  0  0  0  0  0  0  0  0  0
    4.1201   -1.2534    0.1356 H   0  0  0  0  0  0  0  0  0  0  0  0
    5.0429   -3.1212   -0.1134 H   0  0  0  0  0  0  0  0  0  0  0  0
    2.4363   -2.5953    1.5370 H   0  0  0  0  0  0  0  0  0  0  0  0
    1.3501   -2.5803    0.0707 H   0  0  0  0  0  0  0  0  0  0  0  0
    2.8062   -0.1599    1.1800 H   0  0  0  0  0  0  0  0  0  0  0  0
    1.0809   -0.6306    1.6225 H   0  0  0  0  0  0  0  0  0  0  0  0
    1.7442    1.8622    1.3212 H   0  0  0  0  0  0  0  0  0  0  0  0
    1.0172    3.2025    0.4812 H   0  0  0  0  0  0  0  0  0  0  0  0
    2.9651    3.7764   -0.3218 H   0  0  0  0  0  0  0  0  0  0  0  0
    3.7371    2.2977    0.1892 H   0  0  0  0  0  0  0  0  0  0  0  0
    2.8527    2.4492   -1.4487 H   0  0  0  0  0  0  0  0  0  0  0  0
  1  2  1  0
  2  3  1  0
  3  4  1  0
  4  5  1  0
  5  6  1  0
  6  7  1  0
  7  8  1  0
  7  9  1  0
  4 10  1  0
  9 10  1  0
  3 11  1  0
 11 12  1  0
 12 13  1  0
 13 14  1  0
 14 15  1  0
 15 16  1  0
 15 17  1  0
 12 18  1  0
 17 18  1  0
 11 19  1  0
 19 20  1  0
 21 22  1  0
 22 23  1  0
 23 24  1  0
 24 25  1  0
 25 26  1  0
 26 27  1  0
 27 28  1  0
 27 29  1  0
 24 30  1  0
 29 30  1  0
 23 31  1  0
 31 32  1  0
 32 33  1  0
 33 34  1  0
 34 35  1  0
 35 36  1  0
 35 37  1  0
 32 38  1  0
 37 38  1  0
 31 39  1  0
 39 40  1  0
  1 41  1  0
  1 42  1  0
  1 43  1  0
  2 44  1  0
  2 45  1  0
  3 46  1  0
  4 47  1  0
  5 48  1  0
  5 49  1  0
  6 50  1  0
  6 51  1  0
  7 52  1  0
  8 53  1  0
  9 54  1  0
  9 55  1  0
 10 56  1  0
 10 57  1  0
 11 58  1  0
 12 59  1  0
 13 60  1  0
 13 61  1  0
 14 62  1  0
 14 63  1  0
 15 64  1  0
 16 65  1  0
 17 66  1  0
 17 67  1  0
 18 68  1  0
 18 69  1  0
 19 70  1  0
 19 71  1  0
 20 72  1  0
 20 73  1  0
 20 74  1  0
 21 75  1  0
 21 76  1  0
 21 77  1  0
 22 78  1  0
 22 79  1  0
 23 80  1  0
 24 81  1  0
 25 82  1  0
 25 83  1  0
 26 84  1  0
 26 85  1  0
 27 86  1  0
 28 87  1  0
 29 88  1  0
 29 89  1  0
 30 90  1  0
 30 91  1  0
 31 92  1  0
 32 93  1  0
 33 94  1  0
 33 95  1  0
 34 96  1  0
 34 97  1  0
 35 98  1  0
 36 99  1  0
 37100  1  0
 37101  1  0
 38102  1  0
 38103  1  0
 39104  1  0
 39105  1  0
 40106  1  0
 40107  1  0
 40108  1  0
M  END
>  <PDBID>  (1) 
4ZN7

>  <PDB ID>  (1) 
4ZN7

>  <Generic Name>  (1) 
Diethylstilbestrol

>  <Brand Name>  (1) 
Honvol Ampoules 250mg#Honvol Tablets 100mg#Stilbestrol 0.5mg Tablet#Stilbestrol 1.0mg Tablet#Stilbestrol Tab 1mg#Stilbestrol Tablets 0.1 mg#Stilbestrol Tablets 0.5 mg#Stilbestrol Tablets 1.0 mg#Stilboestrol Tab 0.1mg#Stilboestrol Tab 0.5mg#Distilbene#Stilbestrol#Stilbetin

>  <DrugBank ID>  (1) 
DB00255

>  <ATC Codes>  (1) 
L02AA01#G03CC05#L02AA04#G03CB02

>  <Ligand ID>  (1) 
DES

>  <Target Name>  (1) 
Estrogen receptor

>  <UniProt ID>  (1) 
P03372

>  <PDB ID.1>  (1) 
4ZN7

>  <Seq. Identity>  (1) 
93%

$$$$
