PDB_DB06335_05
     RDKit          3D

106114  0  0  0  0  0  0  0  0999 V2000
    1.2079    0.0685   -0.1243 C   0  0  1  0  0  0  0  0  0  0  0  0
   -0.1344   -0.0832   -0.7189 C   0  0  1  0  0  0  0  0  0  0  0  0
    2.1537   -0.5380   -1.1784 C   0  0  0  0  0  0  0  0  0  0  0  0
    3.5849   -0.4483   -0.7748 C   0  0  1  0  0  0  0  0  0  0  0  0
    3.0657    1.5577    0.5416 C   0  0  2  0  0  0  0  0  0  0  0  0
    2.8803   -0.6587    1.5408 C   0  0  1  0  0  0  0  0  0  0  0  0
    3.9389    0.9962   -0.5869 C   0  0  0  0  0  0  0  0  0  0  0  0
    3.7526   -1.2843    0.4718 C   0  0  0  0  0  0  0  0  0  0  0  0
    3.3984    0.7371    1.7678 C   0  0  0  0  0  0  0  0  0  0  0  0
   -4.2369   -1.5743   -0.6780 C   0  0  1  0  0  0  0  0  0  0  0  0
   -3.3584   -2.2710    0.2768 C   0  0  0  0  0  0  0  0  0  0  0  0
   -4.7997   -0.2355   -0.2369 C   0  0  0  0  0  0  0  0  0  0  0  0
   -3.6608    1.9543    0.2931 C   0  0  0  0  0  0  0  0  0  0  0  0
   -3.5592    1.7059    1.6866 N   0  0  0  0  0  0  0  0  0  0  0  0
    1.6173    1.4934    0.1508 C   0  0  0  0  0  0  0  0  0  0  0  0
    1.4245   -0.6941    1.1620 C   0  0  0  0  0  0  0  0  0  0  0  0
   -1.3092    0.4173    0.0583 C   0  0  0  0  0  0  0  0  0  0  0  0
   -0.1351    0.5046   -2.0329 N   0  0  0  0  0  0  0  0  0  0  0  0
   -2.4761   -0.0240   -0.6048 N   0  0  0  0  0  0  0  0  0  0  0  0
   -1.3236   -0.1490    1.3470 O   0  0  0  0  0  0  0  0  0  0  0  0
    4.3482   -1.0204   -1.7875 O   0  0  0  0  0  0  0  0  0  0  0  0
   -2.7288   -1.3994   -0.7154 C   0  0  2  0  0  0  0  0  0  0  0  0
   -3.6622    0.7195   -0.5304 C   0  0  1  0  0  0  0  0  0  0  0  0
    1.2079    0.0685   -0.1243 C   0  0  1  0  0  0  0  0  0  0  0  0
   -0.1344   -0.0832   -0.7189 C   0  0  1  0  0  0  0  0  0  0  0  0
    2.1537   -0.5380   -1.1784 C   0  0  0  0  0  0  0  0  0  0  0  0
    3.5849   -0.4483   -0.7748 C   0  0  1  0  0  0  0  0  0  0  0  0
    3.0657    1.5577    0.5416 C   0  0  2  0  0  0  0  0  0  0  0  0
    2.8803   -0.6587    1.5408 C   0  0  1  0  0  0  0  0  0  0  0  0
    3.9389    0.9962   -0.5869 C   0  0  0  0  0  0  0  0  0  0  0  0
    3.7526   -1.2843    0.4718 C   0  0  0  0  0  0  0  0  0  0  0  0
    3.3984    0.7371    1.7678 C   0  0  0  0  0  0  0  0  0  0  0  0
   -4.2369   -1.5743   -0.6780 C   0  0  1  0  0  0  0  0  0  0  0  0
   -3.3584   -2.2710    0.2768 C   0  0  0  0  0  0  0  0  0  0  0  0
   -4.7997   -0.2355   -0.2369 C   0  0  0  0  0  0  0  0  0  0  0  0
   -3.6608    1.9543    0.2931 C   0  0  0  0  0  0  0  0  0  0  0  0
   -3.5592    1.7059    1.6866 N   0  0  0  0  0  0  0  0  0  0  0  0
    1.6173    1.4934    0.1508 C   0  0  0  0  0  0  0  0  0  0  0  0
    1.4245   -0.6941    1.1620 C   0  0  0  0  0  0  0  0  0  0  0  0
   -1.3092    0.4173    0.0583 C   0  0  0  0  0  0  0  0  0  0  0  0
   -0.1351    0.5046   -2.0329 N   0  0  0  0  0  0  0  0  0  0  0  0
   -2.4761   -0.0240   -0.6048 N   0  0  0  0  0  0  0  0  0  0  0  0
   -1.3236   -0.1490    1.3470 O   0  0  0  0  0  0  0  0  0  0  0  0
    4.3482   -1.0204   -1.7875 O   0  0  0  0  0  0  0  0  0  0  0  0
   -2.7288   -1.3994   -0.7154 C   0  0  2  0  0  0  0  0  0  0  0  0
   -3.6622    0.7195   -0.5304 C   0  0  1  0  0  0  0  0  0  0  0  0
   -0.3053   -1.1867   -0.8687 H   0  0  0  0  0  0  0  0  0  0  0  0
    1.8122   -1.5742   -1.3113 H   0  0  0  0  0  0  0  0  0  0  0  0
    1.9617    0.0285   -2.1308 H   0  0  0  0  0  0  0  0  0  0  0  0
    3.3448    2.6188    0.6836 H   0  0  0  0  0  0  0  0  0  0  0  0
    3.0188   -1.2459    2.4816 H   0  0  0  0  0  0  0  0  0  0  0  0
    4.9887    1.1988   -0.3914 H   0  0  0  0  0  0  0  0  0  0  0  0
    3.6124    1.5370   -1.5016 H   0  0  0  0  0  0  0  0  0  0  0  0
    3.2717   -2.2759    0.2352 H   0  0  0  0  0  0  0  0  0  0  0  0
    4.7832   -1.3922    0.8058 H   0  0  0  0  0  0  0  0  0  0  0  0
    4.5261    0.6518    1.7606 H   0  0  0  0  0  0  0  0  0  0  0  0
    3.0882    1.1812    2.7108 H   0  0  0  0  0  0  0  0  0  0  0  0
   -4.7325   -2.1054   -1.5001 H   0  0  0  0  0  0  0  0  0  0  0  0
   -3.3572   -2.0595    1.3510 H   0  0  0  0  0  0  0  0  0  0  0  0
   -3.2420   -3.3780    0.0801 H   0  0  0  0  0  0  0  0  0  0  0  0
   -5.1059   -0.2753    0.8032 H   0  0  0  0  0  0  0  0  0  0  0  0
   -5.6977   -0.0169   -0.8541 H   0  0  0  0  0  0  0  0  0  0  0  0
   -2.9852    2.7441   -0.0800 H   0  0  0  0  0  0  0  0  0  0  0  0
   -3.8349    0.7467    1.9565 H   0  0  0  0  0  0  0  0  0  0  0  0
   -4.2045    2.3719    2.1813 H   0  0  0  0  0  0  0  0  0  0  0  0
    1.0386    1.8312    1.0588 H   0  0  0  0  0  0  0  0  0  0  0  0
    1.4595    2.1740   -0.6856 H   0  0  0  0  0  0  0  0  0  0  0  0
    1.1353   -1.7438    1.0856 H   0  0  0  0  0  0  0  0  0  0  0  0
    0.9002   -0.1473    2.0018 H   0  0  0  0  0  0  0  0  0  0  0  0
   -1.2572    1.5195    0.1646 H   0  0  0  0  0  0  0  0  0  0  0  0
   -0.2028    1.5465   -2.0415 H   0  0  0  0  0  0  0  0  0  0  0  0
   -0.7788    0.0431   -2.6881 H   0  0  0  0  0  0  0  0  0  0  0  0
   -1.1662   -1.1104    1.2559 H   0  0  0  0  0  0  0  0  0  0  0  0
    4.0564   -0.6504   -2.6766 H   0  0  0  0  0  0  0  0  0  0  0  0
   -2.2366   -1.8759   -1.6160 H   0  0  0  0  0  0  0  0  0  0  0  0
   -3.8792    1.0706   -1.5982 H   0  0  0  0  0  0  0  0  0  0  0  0
   -0.3053   -1.1867   -0.8687 H   0  0  0  0  0  0  0  0  0  0  0  0
    1.8122   -1.5742   -1.3113 H   0  0  0  0  0  0  0  0  0  0  0  0
    1.9617    0.0285   -2.1308 H   0  0  0  0  0  0  0  0  0  0  0  0
    3.3448    2.6188    0.6836 H   0  0  0  0  0  0  0  0  0  0  0  0
    3.0188   -1.2459    2.4816 H   0  0  0  0  0  0  0  0  0  0  0  0
    4.9887    1.1988   -0.3914 H   0  0  0  0  0  0  0  0  0  0  0  0
    3.6124    1.5370   -1.5016 H   0  0  0  0  0  0  0  0  0  0  0  0
    3.2717   -2.2759    0.2352 H   0  0  0  0  0  0  0  0  0  0  0  0
    4.7832   -1.3922    0.8058 H   0  0  0  0  0  0  0  0  0  0  0  0
    4.5261    0.6518    1.7606 H   0  0  0  0  0  0  0  0  0  0  0  0
    3.0882    1.1812    2.7108 H   0  0  0  0  0  0  0  0  0  0  0  0
   -4.7325   -2.1054   -1.5001 H   0  0  0  0  0  0  0  0  0  0  0  0
   -3.3572   -2.0595    1.3510 H   0  0  0  0  0  0  0  0  0  0  0  0
   -3.2420   -3.3780    0.0801 H   0  0  0  0  0  0  0  0  0  0  0  0
   -5.1059   -0.2753    0.8032 H   0  0  0  0  0  0  0  0  0  0  0  0
   -5.6977   -0.0169   -0.8541 H   0  0  0  0  0  0  0  0  0  0  0  0
   -2.9852    2.7441   -0.0800 H   0  0  0  0  0  0  0  0  0  0  0  0
   -3.8349    0.7467    1.9565 H   0  0  0  0  0  0  0  0  0  0  0  0
   -4.2045    2.3719    2.1813 H   0  0  0  0  0  0  0  0  0  0  0  0
    1.0386    1.8312    1.0588 H   0  0  0  0  0  0  0  0  0  0  0  0
    1.4595    2.1740   -0.6856 H   0  0  0  0  0  0  0  0  0  0  0  0
    1.1353   -1.7438    1.0856 H   0  0  0  0  0  0  0  0  0  0  0  0
    0.9002   -0.1473    2.0018 H   0  0  0  0  0  0  0  0  0  0  0  0
   -1.2572    1.5195    0.1646 H   0  0  0  0  0  0  0  0  0  0  0  0
   -0.2028    1.5465   -2.0415 H   0  0  0  0  0  0  0  0  0  0  0  0
   -0.7788    0.0431   -2.6881 H   0  0  0  0  0  0  0  0  0  0  0  0
   -1.1662   -1.1104    1.2559 H   0  0  0  0  0  0  0  0  0  0  0  0
    4.0564   -0.6504   -2.6766 H   0  0  0  0  0  0  0  0  0  0  0  0
   -2.2366   -1.8759   -1.6160 H   0  0  0  0  0  0  0  0  0  0  0  0
   -3.8792    1.0706   -1.5982 H   0  0  0  0  0  0  0  0  0  0  0  0
  1  2  1  0
  1  3  1  0
  3  4  1  0
  4  7  1  0
  5  7  1  0
  4  8  1  0
  6  8  1  0
  5  9  1  0
  6  9  1  0
 10 11  1  0
 10 12  1  0
 13 14  1  0
  1 15  1  1
  5 15  1  0
  1 16  1  0
  6 16  1  0
  2 17  1  0
  2 18  1  0
 17 19  1  0
 17 20  1  0
  4 21  1  6
 10 22  1  0
 11 22  1  0
 19 22  1  0
 12 23  1  0
 13 23  1  0
 19 23  1  0
 24 25  1  0
 24 26  1  6
 26 27  1  0
 27 30  1  0
 28 30  1  0
 27 31  1  0
 29 31  1  0
 28 32  1  0
 29 32  1  0
 33 34  1  0
 33 35  1  0
 36 37  1  0
 24 38  1  0
 28 38  1  0
 24 39  1  0
 29 39  1  0
 25 40  1  0
 25 41  1  0
 40 42  1  0
 40 43  1  0
 27 44  1  6
 33 45  1  0
 34 45  1  0
 42 45  1  0
 35 46  1  0
 36 46  1  0
 42 46  1  0
  2 47  1  6
  3 48  1  0
  3 49  1  0
  5 50  1  1
  6 51  1  1
  7 52  1  0
  7 53  1  0
  8 54  1  0
  8 55  1  0
  9 56  1  0
  9 57  1  0
 10 58  1  6
 11 59  1  0
 11 60  1  0
 12 61  1  0
 12 62  1  0
 13 63  1  0
 14 64  1  0
 14 65  1  0
 15 66  1  0
 15 67  1  0
 16 68  1  0
 16 69  1  0
 17 70  1  0
 18 71  1  0
 18 72  1  0
 20 73  1  0
 21 74  1  0
 22 75  1  6
 23 76  1  6
 25 77  1  6
 26 78  1  0
 26 79  1  0
 28 80  1  1
 29 81  1  1
 30 82  1  0
 30 83  1  0
 31 84  1  0
 31 85  1  0
 32 86  1  0
 32 87  1  0
 33 88  1  6
 34 89  1  0
 34 90  1  0
 35 91  1  0
 35 92  1  0
 36 93  1  0
 37 94  1  0
 37 95  1  0
 38 96  1  0
 38 97  1  0
 39 98  1  0
 39 99  1  0
 40100  1  0
 41101  1  0
 41102  1  0
 43103  1  0
 44104  1  0
 45105  1  6
 46106  1  6
M  END
>  <PDBID>  (1) 
3BJM

>  <PDB ID>  (1) 
3BJM

>  <Generic Name>  (1) 
Saxagliptin

>  <Brand Name>  (1) 
Kombiglyze XR#Komboglyze#Onglyza#Qtern

>  <DrugBank ID>  (1) 
DB06335

>  <ATC Codes>  (1) 
A10BD10#A10BH03#A10BD21

>  <Ligand ID>  (1) 
BJM

>  <Target Name>  (1) 
Dipeptidyl peptidase 4

>  <UniProt ID>  (1) 
P27487

>  <PDB ID.1>  (1) 
3BJM

>  <Seq. Identity>  (1) 
100%

$$$$
