PDB_DB00390_00
     RDKit          3D

246260  0  0  0  0  0  0  0  0999 V2000
   -3.7431    3.0348   -0.4094 C   0  0  0  0  0  0  0  0  0  0  0  0
   -2.2717    3.3745   -0.5874 C   0  0  0  0  0  0  0  0  0  0  0  0
   -1.4876    3.0038    0.6630 C   0  0  2  0  0  0  0  0  0  0  0  0
   -0.3375    2.2910    0.4193 O   0  0  0  0  0  0  0  0  0  0  0  0
   -2.3732    2.1376    1.5061 C   0  0  0  0  0  0  0  0  0  0  0  0
   -2.8368    0.9525    0.6401 C   0  0  1  0  0  0  0  0  0  0  0  0
   -3.4336   -0.0086    1.6115 C   0  0  0  0  0  0  0  0  0  0  0  0
   -4.3983   -1.0205    1.1049 C   0  0  0  0  0  0  0  0  0  0  0  0
   -5.1490   -0.5048   -0.0961 C   0  0  2  0  0  0  0  0  0  0  0  0
   -5.1648    0.9992    0.0641 C   0  0  1  0  0  0  0  0  0  0  0  0
   -3.8418    1.5277   -0.3495 C   0  0  1  0  0  0  0  0  0  0  0  0
   -6.3629    1.6288   -0.5540 C   0  0  0  0  0  0  0  0  0  0  0  0
   -7.5062    1.0345    0.2948 C   0  0  1  0  0  0  0  0  0  0  0  0
   -8.6444    1.7836    0.1423 O   0  0  0  0  0  0  0  0  0  0  0  0
   -7.7000   -0.3736   -0.1485 C   0  0  1  0  0  0  0  0  0  0  0  0
   -6.4228   -1.1318   -0.4440 C   0  0  1  0  0  0  0  0  0  0  0  0
   -6.4372   -1.3656   -1.8491 O   0  0  0  0  0  0  0  0  0  0  0  0
   -6.6349   -2.5321    0.1328 C   0  0  0  0  0  0  0  0  0  0  0  0
   -8.1443   -2.5709    0.4531 C   0  0  0  0  0  0  0  0  0  0  0  0
   -8.2848   -1.1726    0.9689 C   0  0  2  0  0  0  0  0  0  0  0  0
   -8.5906   -0.3061   -1.3836 C   0  0  0  0  0  0  0  0  0  0  0  0
   -3.5528    1.0384   -1.7574 C   0  0  0  0  0  0  0  0  0  0  0  0
    0.8215    2.8698    0.8462 C   0  0  1  0  0  0  0  0  0  0  0  0
    5.3582    0.4831   -0.3347 C   0  0  2  0  0  0  0  0  0  0  0  0
   10.1868   -1.1833   -1.2718 C   0  0  2  0  0  0  0  0  0  0  0  0
   -9.5118   -0.7778    1.6159 C   0  0  1  0  0  0  0  0  0  0  0  0
  -10.7780   -0.6285    0.8646 C   0  0  0  0  0  0  0  0  0  0  0  0
  -11.0284   -1.8923    0.4040 O   0  0  0  0  0  0  0  0  0  0  0  0
   -9.9553   -1.9742    2.4938 C   0  0  0  0  0  0  0  0  0  0  0  0
  -10.9283   -2.6649    1.5646 C   0  0  0  0  0  0  0  0  0  0  0  0
  -12.1642   -2.8114    2.1918 O   0  0  0  0  0  0  0  0  0  0  0  0
    1.6090    2.1581    1.8992 C   0  0  0  0  0  0  0  0  0  0  0  0
    5.7200    0.0434   -1.7188 C   0  0  0  0  0  0  0  0  0  0  0  0
   11.3027   -0.6091   -0.4488 C   0  0  0  0  0  0  0  0  0  0  0  0
    3.1034    2.1947    1.5893 C   0  0  2  0  0  0  0  0  0  0  0  0
    3.4492    3.5349    1.4880 O   0  0  0  0  0  0  0  0  0  0  0  0
    6.8357   -0.9716   -1.5583 C   0  0  2  0  0  0  0  0  0  0  0  0
    6.3696   -1.9178   -0.6604 O   0  0  0  0  0  0  0  0  0  0  0  0
   12.6237   -1.2081   -0.8950 C   0  0  2  0  0  0  0  0  0  0  0  0
   12.7377   -1.0036   -2.2650 O   0  0  0  0  0  0  0  0  0  0  0  0
    3.3620    1.4663    0.2784 C   0  0  2  0  0  0  0  0  0  0  0  0
    4.6009    1.6399   -0.2469 O   0  0  0  0  0  0  0  0  0  0  0  0
    8.0517   -0.2394   -1.0789 C   0  0  2  0  0  0  0  0  0  0  0  0
    9.0147   -1.0772   -0.5398 O   0  0  0  0  0  0  0  0  0  0  0  0
   12.6181   -2.7101   -0.6566 C   0  0  2  0  0  0  0  0  0  0  0  0
   13.3869   -3.4175   -1.5562 O   0  0  0  0  0  0  0  0  0  0  0  0
    2.3212    1.9472   -0.6865 C   0  0  2  0  0  0  0  0  0  0  0  0
    1.6467    3.0750   -0.2359 O   0  0  0  0  0  0  0  0  0  0  0  0
    7.6728    0.8805   -0.1711 C   0  0  2  0  0  0  0  0  0  0  0  0
    6.4774    0.6467    0.4266 O   0  0  0  0  0  0  0  0  0  0  0  0
   11.1771   -3.2113   -0.6529 C   0  0  2  0  0  0  0  0  0  0  0  0
   10.3952   -2.5066   -1.5185 O   0  0  0  0  0  0  0  0  0  0  0  0
    1.3994    0.8446   -1.1206 C   0  0  0  0  0  0  0  0  0  0  0  0
    7.6016    2.1651   -0.9573 C   0  0  0  0  0  0  0  0  0  0  0  0
   10.6520   -3.3399    0.7505 C   0  0  0  0  0  0  0  0  0  0  0  0
   -3.7431    3.0348   -0.4094 C   0  0  0  0  0  0  0  0  0  0  0  0
   -2.2717    3.3745   -0.5874 C   0  0  0  0  0  0  0  0  0  0  0  0
   -1.4876    3.0038    0.6630 C   0  0  2  0  0  0  0  0  0  0  0  0
   -0.3375    2.2910    0.4193 O   0  0  0  0  0  0  0  0  0  0  0  0
   -2.3732    2.1376    1.5061 C   0  0  0  0  0  0  0  0  0  0  0  0
   -2.8368    0.9525    0.6401 C   0  0  1  0  0  0  0  0  0  0  0  0
   -3.4336   -0.0086    1.6115 C   0  0  0  0  0  0  0  0  0  0  0  0
   -4.3983   -1.0205    1.1049 C   0  0  0  0  0  0  0  0  0  0  0  0
   -5.1490   -0.5048   -0.0961 C   0  0  2  0  0  0  0  0  0  0  0  0
   -5.1648    0.9992    0.0641 C   0  0  1  0  0  0  0  0  0  0  0  0
   -3.8418    1.5277   -0.3495 C   0  0  1  0  0  0  0  0  0  0  0  0
   -6.3629    1.6288   -0.5540 C   0  0  0  0  0  0  0  0  0  0  0  0
   -7.5062    1.0345    0.2948 C   0  0  1  0  0  0  0  0  0  0  0  0
   -8.6444    1.7836    0.1423 O   0  0  0  0  0  0  0  0  0  0  0  0
   -7.7000   -0.3736   -0.1485 C   0  0  1  0  0  0  0  0  0  0  0  0
   -6.4228   -1.1318   -0.4440 C   0  0  1  0  0  0  0  0  0  0  0  0
   -6.4372   -1.3656   -1.8491 O   0  0  0  0  0  0  0  0  0  0  0  0
   -6.6349   -2.5321    0.1328 C   0  0  0  0  0  0  0  0  0  0  0  0
   -8.1443   -2.5709    0.4531 C   0  0  0  0  0  0  0  0  0  0  0  0
   -8.2848   -1.1726    0.9689 C   0  0  2  0  0  0  0  0  0  0  0  0
   -8.5906   -0.3061   -1.3836 C   0  0  0  0  0  0  0  0  0  0  0  0
   -3.5528    1.0384   -1.7574 C   0  0  0  0  0  0  0  0  0  0  0  0
    0.8215    2.8698    0.8462 C   0  0  1  0  0  0  0  0  0  0  0  0
    5.3582    0.4831   -0.3347 C   0  0  2  0  0  0  0  0  0  0  0  0
   10.1868   -1.1833   -1.2718 C   0  0  2  0  0  0  0  0  0  0  0  0
   -9.5118   -0.7778    1.6159 C   0  0  1  0  0  0  0  0  0  0  0  0
  -10.7780   -0.6285    0.8646 C   0  0  0  0  0  0  0  0  0  0  0  0
  -11.0284   -1.8923    0.4040 O   0  0  0  0  0  0  0  0  0  0  0  0
   -9.9553   -1.9742    2.4938 C   0  0  0  0  0  0  0  0  0  0  0  0
  -10.9283   -2.6649    1.5646 C   0  0  0  0  0  0  0  0  0  0  0  0
  -12.1642   -2.8114    2.1918 O   0  0  0  0  0  0  0  0  0  0  0  0
    1.6090    2.1581    1.8992 C   0  0  0  0  0  0  0  0  0  0  0  0
    5.7200    0.0434   -1.7188 C   0  0  0  0  0  0  0  0  0  0  0  0
   11.3027   -0.6091   -0.4488 C   0  0  0  0  0  0  0  0  0  0  0  0
    3.1034    2.1947    1.5893 C   0  0  2  0  0  0  0  0  0  0  0  0
    3.4492    3.5349    1.4880 O   0  0  0  0  0  0  0  0  0  0  0  0
    6.8357   -0.9716   -1.5583 C   0  0  2  0  0  0  0  0  0  0  0  0
    6.3696   -1.9178   -0.6604 O   0  0  0  0  0  0  0  0  0  0  0  0
   12.6237   -1.2081   -0.8950 C   0  0  2  0  0  0  0  0  0  0  0  0
   12.7377   -1.0036   -2.2650 O   0  0  0  0  0  0  0  0  0  0  0  0
    3.3620    1.4663    0.2784 C   0  0  2  0  0  0  0  0  0  0  0  0
    4.6009    1.6399   -0.2469 O   0  0  0  0  0  0  0  0  0  0  0  0
    8.0517   -0.2394   -1.0789 C   0  0  2  0  0  0  0  0  0  0  0  0
    9.0147   -1.0772   -0.5398 O   0  0  0  0  0  0  0  0  0  0  0  0
   12.6181   -2.7101   -0.6566 C   0  0  2  0  0  0  0  0  0  0  0  0
   13.3869   -3.4175   -1.5562 O   0  0  0  0  0  0  0  0  0  0  0  0
    2.3212    1.9472   -0.6865 C   0  0  2  0  0  0  0  0  0  0  0  0
    1.6467    3.0750   -0.2359 O   0  0  0  0  0  0  0  0  0  0  0  0
    7.6728    0.8805   -0.1711 C   0  0  2  0  0  0  0  0  0  0  0  0
    6.4774    0.6467    0.4266 O   0  0  0  0  0  0  0  0  0  0  0  0
   11.1771   -3.2113   -0.6529 C   0  0  2  0  0  0  0  0  0  0  0  0
   10.3952   -2.5066   -1.5185 O   0  0  0  0  0  0  0  0  0  0  0  0
    1.3994    0.8446   -1.1206 C   0  0  0  0  0  0  0  0  0  0  0  0
    7.6016    2.1651   -0.9573 C   0  0  0  0  0  0  0  0  0  0  0  0
   10.6520   -3.3399    0.7505 C   0  0  0  0  0  0  0  0  0  0  0  0
   -4.1828    3.5494    0.4407 H   0  0  0  0  0  0  0  0  0  0  0  0
   -4.2644    3.3632   -1.3270 H   0  0  0  0  0  0  0  0  0  0  0  0
   -2.2443    4.4946   -0.6989 H   0  0  0  0  0  0  0  0  0  0  0  0
   -1.8191    2.9586   -1.4804 H   0  0  0  0  0  0  0  0  0  0  0  0
   -1.2959    3.9418    1.2387 H   0  0  0  0  0  0  0  0  0  0  0  0
   -3.2176    2.6609    1.9803 H   0  0  0  0  0  0  0  0  0  0  0  0
   -1.7510    1.7154    2.3420 H   0  0  0  0  0  0  0  0  0  0  0  0
   -1.9545    0.5907    0.0895 H   0  0  0  0  0  0  0  0  0  0  0  0
   -3.8335    0.5622    2.4938 H   0  0  0  0  0  0  0  0  0  0  0  0
   -2.5618   -0.5746    2.0557 H   0  0  0  0  0  0  0  0  0  0  0  0
   -3.9009   -2.0020    0.8651 H   0  0  0  0  0  0  0  0  0  0  0  0
   -5.0674   -1.2417    1.9657 H   0  0  0  0  0  0  0  0  0  0  0  0
   -4.4082   -0.7379   -0.9272 H   0  0  0  0  0  0  0  0  0  0  0  0
   -5.2522    1.2260    1.1710 H   0  0  0  0  0  0  0  0  0  0  0  0
   -6.5599    1.3915   -1.5962 H   0  0  0  0  0  0  0  0  0  0  0  0
   -6.3428    2.7153   -0.3161 H   0  0  0  0  0  0  0  0  0  0  0  0
   -7.2220    1.0593    1.3670 H   0  0  0  0  0  0  0  0  0  0  0  0
   -8.5017    2.6522    0.6071 H   0  0  0  0  0  0  0  0  0  0  0  0
   -7.0939   -2.1012   -2.0681 H   0  0  0  0  0  0  0  0  0  0  0  0
   -6.4015   -3.3392   -0.5544 H   0  0  0  0  0  0  0  0  0  0  0  0
   -6.0933   -2.7130    1.0587 H   0  0  0  0  0  0  0  0  0  0  0  0
   -8.2452   -3.3696    1.1892 H   0  0  0  0  0  0  0  0  0  0  0  0
   -8.7325   -2.8005   -0.4462 H   0  0  0  0  0  0  0  0  0  0  0  0
   -7.4860   -1.1107    1.7796 H   0  0  0  0  0  0  0  0  0  0  0  0
   -9.1507    0.6724   -1.4356 H   0  0  0  0  0  0  0  0  0  0  0  0
   -7.9420   -0.2631   -2.3108 H   0  0  0  0  0  0  0  0  0  0  0  0
   -9.2299   -1.1688   -1.5268 H   0  0  0  0  0  0  0  0  0  0  0  0
   -4.4993    0.7012   -2.2819 H   0  0  0  0  0  0  0  0  0  0  0  0
   -3.1939    1.8592   -2.4347 H   0  0  0  0  0  0  0  0  0  0  0  0
   -2.8515    0.2098   -1.8113 H   0  0  0  0  0  0  0  0  0  0  0  0
    0.5493    3.8626    1.2658 H   0  0  0  0  0  0  0  0  0  0  0  0
    4.7009   -0.3075    0.1411 H   0  0  0  0  0  0  0  0  0  0  0  0
   10.1518   -0.5588   -2.1993 H   0  0  0  0  0  0  0  0  0  0  0  0
   -9.3328    0.0470    2.3386 H   0  0  0  0  0  0  0  0  0  0  0  0
  -11.5836   -0.4275    1.6385 H   0  0  0  0  0  0  0  0  0  0  0  0
  -10.8691    0.1929    0.1566 H   0  0  0  0  0  0  0  0  0  0  0  0
   -9.1220   -2.5835    2.8242 H   0  0  0  0  0  0  0  0  0  0  0  0
  -10.4980   -1.5952    3.3842 H   0  0  0  0  0  0  0  0  0  0  0  0
  -10.6127   -3.6788    1.2555 H   0  0  0  0  0  0  0  0  0  0  0  0
  -12.8257   -3.1746    1.5695 H   0  0  0  0  0  0  0  0  0  0  0  0
    1.4861    2.6923    2.8566 H   0  0  0  0  0  0  0  0  0  0  0  0
    1.3313    1.1158    2.0616 H   0  0  0  0  0  0  0  0  0  0  0  0
    4.8985   -0.5342   -2.2103 H   0  0  0  0  0  0  0  0  0  0  0  0
    5.9971    0.8692   -2.3536 H   0  0  0  0  0  0  0  0  0  0  0  0
   11.1870   -0.8252    0.6437 H   0  0  0  0  0  0  0  0  0  0  0  0
   11.2994    0.4953   -0.5907 H   0  0  0  0  0  0  0  0  0  0  0  0
    3.7270    1.7318    2.3551 H   0  0  0  0  0  0  0  0  0  0  0  0
    4.3979    3.7127    1.3721 H   0  0  0  0  0  0  0  0  0  0  0  0
    7.0043   -1.4517   -2.5214 H   0  0  0  0  0  0  0  0  0  0  0  0
    6.5066   -1.6768    0.2787 H   0  0  0  0  0  0  0  0  0  0  0  0
   13.4790   -0.6997   -0.4106 H   0  0  0  0  0  0  0  0  0  0  0  0
   12.3909   -1.7778   -2.7861 H   0  0  0  0  0  0  0  0  0  0  0  0
    3.1318    0.3769    0.4930 H   0  0  0  0  0  0  0  0  0  0  0  0
    8.5066    0.1935   -1.9935 H   0  0  0  0  0  0  0  0  0  0  0  0
   13.0181   -2.8767    0.3579 H   0  0  0  0  0  0  0  0  0  0  0  0
   12.9785   -4.3373   -1.6540 H   0  0  0  0  0  0  0  0  0  0  0  0
    2.8570    2.2976   -1.6143 H   0  0  0  0  0  0  0  0  0  0  0  0
    8.4867    1.0671    0.6000 H   0  0  0  0  0  0  0  0  0  0  0  0
   11.2463   -4.2575   -1.0758 H   0  0  0  0  0  0  0  0  0  0  0  0
    1.8875    0.3205   -1.9945 H   0  0  0  0  0  0  0  0  0  0  0  0
    0.4407    1.2210   -1.4996 H   0  0  0  0  0  0  0  0  0  0  0  0
    1.2935    0.0328   -0.3620 H   0  0  0  0  0  0  0  0  0  0  0  0
    6.5816    2.6350   -0.9289 H   0  0  0  0  0  0  0  0  0  0  0  0
    7.9820    2.0732   -1.9999 H   0  0  0  0  0  0  0  0  0  0  0  0
    8.2606    2.9351   -0.4558 H   0  0  0  0  0  0  0  0  0  0  0  0
   11.4047   -3.0486    1.5178 H   0  0  0  0  0  0  0  0  0  0  0  0
   10.4111   -4.4022    0.9584 H   0  0  0  0  0  0  0  0  0  0  0  0
    9.7391   -2.7205    0.8917 H   0  0  0  0  0  0  0  0  0  0  0  0
   -4.1828    3.5494    0.4407 H   0  0  0  0  0  0  0  0  0  0  0  0
   -4.2644    3.3632   -1.3270 H   0  0  0  0  0  0  0  0  0  0  0  0
   -2.2443    4.4946   -0.6989 H   0  0  0  0  0  0  0  0  0  0  0  0
   -1.8191    2.9586   -1.4804 H   0  0  0  0  0  0  0  0  0  0  0  0
   -1.2959    3.9418    1.2387 H   0  0  0  0  0  0  0  0  0  0  0  0
   -3.2176    2.6609    1.9803 H   0  0  0  0  0  0  0  0  0  0  0  0
   -1.7510    1.7154    2.3420 H   0  0  0  0  0  0  0  0  0  0  0  0
   -1.9545    0.5907    0.0895 H   0  0  0  0  0  0  0  0  0  0  0  0
   -3.8335    0.5622    2.4938 H   0  0  0  0  0  0  0  0  0  0  0  0
   -2.5618   -0.5746    2.0557 H   0  0  0  0  0  0  0  0  0  0  0  0
   -3.9009   -2.0020    0.8651 H   0  0  0  0  0  0  0  0  0  0  0  0
   -5.0674   -1.2417    1.9657 H   0  0  0  0  0  0  0  0  0  0  0  0
   -4.4082   -0.7379   -0.9272 H   0  0  0  0  0  0  0  0  0  0  0  0
   -5.2522    1.2260    1.1710 H   0  0  0  0  0  0  0  0  0  0  0  0
   -6.5599    1.3915   -1.5962 H   0  0  0  0  0  0  0  0  0  0  0  0
   -6.3428    2.7153   -0.3161 H   0  0  0  0  0  0  0  0  0  0  0  0
   -7.2220    1.0593    1.3670 H   0  0  0  0  0  0  0  0  0  0  0  0
   -8.5017    2.6522    0.6071 H   0  0  0  0  0  0  0  0  0  0  0  0
   -7.0939   -2.1012   -2.0681 H   0  0  0  0  0  0  0  0  0  0  0  0
   -6.4015   -3.3392   -0.5544 H   0  0  0  0  0  0  0  0  0  0  0  0
   -6.0933   -2.7130    1.0587 H   0  0  0  0  0  0  0  0  0  0  0  0
   -8.2452   -3.3696    1.1892 H   0  0  0  0  0  0  0  0  0  0  0  0
   -8.7325   -2.8005   -0.4462 H   0  0  0  0  0  0  0  0  0  0  0  0
   -7.4860   -1.1107    1.7796 H   0  0  0  0  0  0  0  0  0  0  0  0
   -9.1507    0.6724   -1.4356 H   0  0  0  0  0  0  0  0  0  0  0  0
   -7.9420   -0.2631   -2.3108 H   0  0  0  0  0  0  0  0  0  0  0  0
   -9.2299   -1.1688   -1.5268 H   0  0  0  0  0  0  0  0  0  0  0  0
   -4.4993    0.7012   -2.2819 H   0  0  0  0  0  0  0  0  0  0  0  0
   -3.1939    1.8592   -2.4347 H   0  0  0  0  0  0  0  0  0  0  0  0
   -2.8515    0.2098   -1.8113 H   0  0  0  0  0  0  0  0  0  0  0  0
    0.5493    3.8626    1.2658 H   0  0  0  0  0  0  0  0  0  0  0  0
    4.7009   -0.3075    0.1411 H   0  0  0  0  0  0  0  0  0  0  0  0
   10.1518   -0.5588   -2.1993 H   0  0  0  0  0  0  0  0  0  0  0  0
   -9.3328    0.0470    2.3386 H   0  0  0  0  0  0  0  0  0  0  0  0
  -11.5836   -0.4275    1.6385 H   0  0  0  0  0  0  0  0  0  0  0  0
  -10.8691    0.1929    0.1566 H   0  0  0  0  0  0  0  0  0  0  0  0
   -9.1220   -2.5835    2.8242 H   0  0  0  0  0  0  0  0  0  0  0  0
  -10.4980   -1.5952    3.3842 H   0  0  0  0  0  0  0  0  0  0  0  0
  -10.6127   -3.6788    1.2555 H   0  0  0  0  0  0  0  0  0  0  0  0
  -12.8257   -3.1746    1.5695 H   0  0  0  0  0  0  0  0  0  0  0  0
    1.4861    2.6923    2.8566 H   0  0  0  0  0  0  0  0  0  0  0  0
    1.3313    1.1158    2.0616 H   0  0  0  0  0  0  0  0  0  0  0  0
    4.8985   -0.5342   -2.2103 H   0  0  0  0  0  0  0  0  0  0  0  0
    5.9971    0.8692   -2.3536 H   0  0  0  0  0  0  0  0  0  0  0  0
   11.1870   -0.8252    0.6437 H   0  0  0  0  0  0  0  0  0  0  0  0
   11.2994    0.4953   -0.5907 H   0  0  0  0  0  0  0  0  0  0  0  0
    3.7270    1.7318    2.3551 H   0  0  0  0  0  0  0  0  0  0  0  0
    4.3979    3.7127    1.3721 H   0  0  0  0  0  0  0  0  0  0  0  0
    7.0043   -1.4517   -2.5214 H   0  0  0  0  0  0  0  0  0  0  0  0
    6.5066   -1.6768    0.2787 H   0  0  0  0  0  0  0  0  0  0  0  0
   13.4790   -0.6997   -0.4106 H   0  0  0  0  0  0  0  0  0  0  0  0
   12.3909   -1.7778   -2.7861 H   0  0  0  0  0  0  0  0  0  0  0  0
    3.1318    0.3769    0.4930 H   0  0  0  0  0  0  0  0  0  0  0  0
    8.5066    0.1935   -1.9935 H   0  0  0  0  0  0  0  0  0  0  0  0
   13.0181   -2.8767    0.3579 H   0  0  0  0  0  0  0  0  0  0  0  0
   12.9785   -4.3373   -1.6540 H   0  0  0  0  0  0  0  0  0  0  0  0
    2.8570    2.2976   -1.6143 H   0  0  0  0  0  0  0  0  0  0  0  0
    8.4867    1.0671    0.6000 H   0  0  0  0  0  0  0  0  0  0  0  0
   11.2463   -4.2575   -1.0758 H   0  0  0  0  0  0  0  0  0  0  0  0
    1.8875    0.3205   -1.9945 H   0  0  0  0  0  0  0  0  0  0  0  0
    0.4407    1.2210   -1.4996 H   0  0  0  0  0  0  0  0  0  0  0  0
    1.2935    0.0328   -0.3620 H   0  0  0  0  0  0  0  0  0  0  0  0
    6.5816    2.6350   -0.9289 H   0  0  0  0  0  0  0  0  0  0  0  0
    7.9820    2.0732   -1.9999 H   0  0  0  0  0  0  0  0  0  0  0  0
    8.2606    2.9351   -0.4558 H   0  0  0  0  0  0  0  0  0  0  0  0
   11.4047   -3.0486    1.5178 H   0  0  0  0  0  0  0  0  0  0  0  0
   10.4111   -4.4022    0.9584 H   0  0  0  0  0  0  0  0  0  0  0  0
    9.7391   -2.7205    0.8917 H   0  0  0  0  0  0  0  0  0  0  0  0
  1  2  1  0
  2  3  1  0
  3  4  1  0
  3  5  1  0
  5  6  1  0
  6  7  1  0
  7  8  1  0
  8  9  1  0
  9 10  1  0
  1 11  1  0
  6 11  1  0
 10 11  1  0
 10 12  1  0
 12 13  1  0
 13 14  1  0
 13 15  1  0
  9 16  1  0
 15 16  1  0
 16 17  1  6
 16 18  1  0
 18 19  1  0
 15 20  1  0
 19 20  1  0
 15 21  1  6
 11 22  1  6
  4 23  1  0
 20 26  1  0
 26 27  1  0
 27 28  1  0
 26 29  1  0
 28 30  1  0
 29 30  1  0
 30 31  1  0
 23 32  1  0
 24 33  1  0
 25 34  1  0
 32 35  1  0
 35 36  1  0
 33 37  1  0
 37 38  1  0
 34 39  1  0
 39 40  1  0
 35 41  1  0
 24 42  1  0
 41 42  1  0
 37 43  1  0
 25 44  1  0
 43 44  1  0
 39 45  1  0
 45 46  1  0
 41 47  1  0
 23 48  1  0
 47 48  1  0
 43 49  1  0
 24 50  1  0
 49 50  1  0
 45 51  1  0
 25 52  1  0
 51 52  1  0
 47 53  1  0
 49 54  1  0
 51 55  1  0
 56 57  1  0
 57 58  1  0
 58 59  1  0
 58 60  1  0
 60 61  1  0
 61 62  1  0
 62 63  1  0
 63 64  1  0
 64 65  1  0
 56 66  1  0
 61 66  1  0
 65 66  1  0
 65 67  1  0
 67 68  1  0
 68 69  1  0
 68 70  1  0
 64 71  1  0
 70 71  1  0
 71 72  1  6
 71 73  1  0
 73 74  1  0
 70 75  1  0
 74 75  1  0
 70 76  1  6
 66 77  1  6
 59 78  1  0
 75 81  1  0
 81 82  1  0
 82 83  1  0
 81 84  1  0
 83 85  1  0
 84 85  1  0
 85 86  1  0
 78 87  1  0
 79 88  1  0
 80 89  1  0
 87 90  1  0
 90 91  1  0
 88 92  1  0
 92 93  1  0
 89 94  1  0
 94 95  1  0
 90 96  1  0
 79 97  1  0
 96 97  1  0
 92 98  1  0
 80 99  1  0
 98 99  1  0
 94100  1  0
100101  1  0
 96102  1  0
 78103  1  0
102103  1  0
 98104  1  0
 79105  1  0
104105  1  0
100106  1  0
 80107  1  0
106107  1  0
102108  1  0
104109  1  0
106110  1  0
  1111  1  0
  1112  1  0
  2113  1  0
  2114  1  0
  3115  1  1
  5116  1  0
  5117  1  0
  6118  1  6
  7119  1  0
  7120  1  0
  8121  1  0
  8122  1  0
  9123  1  6
 10124  1  1
 12125  1  0
 12126  1  0
 13127  1  1
 14128  1  0
 17129  1  0
 18130  1  0
 18131  1  0
 19132  1  0
 19133  1  0
 20134  1  1
 21135  1  0
 21136  1  0
 21137  1  0
 22138  1  0
 22139  1  0
 22140  1  0
 23141  1  1
 24142  1  1
 25143  1  6
 26144  1  1
 27145  1  0
 27146  1  0
 29147  1  0
 29148  1  0
 30149  1  0
 31150  1  0
 32151  1  0
 32152  1  0
 33153  1  0
 33154  1  0
 34155  1  0
 34156  1  0
 35157  1  1
 36158  1  0
 37159  1  6
 38160  1  0
 39161  1  1
 40162  1  0
 41163  1  1
 43164  1  6
 45165  1  1
 46166  1  0
 47167  1  6
 49168  1  1
 51169  1  6
 53170  1  0
 53171  1  0
 53172  1  0
 54173  1  0
 54174  1  0
 54175  1  0
 55176  1  0
 55177  1  0
 55178  1  0
 56179  1  0
 56180  1  0
 57181  1  0
 57182  1  0
 58183  1  1
 60184  1  0
 60185  1  0
 61186  1  6
 62187  1  0
 62188  1  0
 63189  1  0
 63190  1  0
 64191  1  6
 65192  1  1
 67193  1  0
 67194  1  0
 68195  1  1
 69196  1  0
 72197  1  0
 73198  1  0
 73199  1  0
 74200  1  0
 74201  1  0
 75202  1  1
 76203  1  0
 76204  1  0
 76205  1  0
 77206  1  0
 77207  1  0
 77208  1  0
 78209  1  1
 79210  1  1
 80211  1  6
 81212  1  1
 82213  1  0
 82214  1  0
 84215  1  0
 84216  1  0
 85217  1  0
 86218  1  0
 87219  1  0
 87220  1  0
 88221  1  0
 88222  1  0
 89223  1  0
 89224  1  0
 90225  1  1
 91226  1  0
 92227  1  6
 93228  1  0
 94229  1  1
 95230  1  0
 96231  1  1
 98232  1  6
100233  1  1
101234  1  0
102235  1  6
104236  1  1
106237  1  6
108238  1  0
108239  1  0
108240  1  0
109241  1  0
109242  1  0
109243  1  0
110244  1  0
110245  1  0
110246  1  0
M  END
>  <PDBID>  (1) 
4RET

>  <PDB ID>  (1) 
4RET

>  <Generic Name>  (1) 
Digoxin

>  <Brand Name>  (1) 
Apo-digoxin#Digitek#Digox#Digoxin#Digoxin Injection C.S.D.#Lanoxin#Lanoxin Elx 0.05mg/ml Pediatric#Lanoxin Inj 0.05mg/ml Pediatric#Lanoxin Inj 0.25mg/ml#Lanoxin Tab 0.0625mg#Lanoxin Tab 0.125mg#Lanoxin Tab 0.25mg#Novo-digoxin Tab 0.25mg#PMS-digoxin#Pediatric Digoxin Injection C.S.D.#Toloxin#Agoxin#Cardiacin#Cardiogoxin#Cardioxin#Cardoxin#Celoxin#Centoxin#Digacin#Digocard-G#Digoxina#Eudigox#Lanacordin#Lanacrist#Lanicor#Lanoxicaps#Lenoxin

>  <DrugBank ID>  (1) 
DB00390

>  <ATC Codes>  (1) 
C01AA05

>  <Ligand ID>  (1) 
DGX

>  <Target Name>  (1) 
Sodium/potassium-transporting ATPase subunit alpha-1

>  <UniProt ID>  (1) 
P05023

>  <PDB ID.1>  (1) 
4RET

>  <Seq. Identity>  (1) 
94%

$$$$
