PDB_DB00819_05
     RDKit          3D

 27 27  0  0  0  0  0  0  0  0999 V2000
   -1.5831    0.3055   -0.4350 C   0  0  2  0  0  0  0  0  0  0  0  0
    0.8173   -0.8052    0.0719 C   0  0  2  0  0  0  0  0  0  0  0  0
    3.0883   -0.1847    0.6596 C   0  0  0  0  0  0  0  0  0  0  0  0
    4.3502   -0.2838   -0.2520 C   0  0  0  0  0  0  0  0  0  0  0  0
   -4.0383    1.2375    0.0746 N   0  0  0  0  0  0  0  0  0  0  0  0
    0.0592   -0.1890    1.1193 N   0  0  0  0  0  0  0  0  0  0  0  0
   -1.2823   -0.2163    0.8784 N   0  0  0  0  0  0  0  0  0  0  0  0
    1.9926   -0.0659   -0.2276 N   0  0  0  0  0  0  0  0  0  0  0  0
   -3.5311    0.3813   -2.3791 O   0  0  0  0  0  0  0  0  0  0  0  0
   -3.7075   -1.3972   -0.3756 O   0  0  0  0  0  0  0  0  0  0  0  0
    3.2822    0.7550    1.6192 O   0  0  0  0  0  0  0  0  0  0  0  0
   -3.1080    0.0415   -0.9765 S   0  0  0  0  0  0  0  0  0  0  0  0
   -0.2889   -0.6178   -1.3645 S   0  0  0  0  0  0  0  0  0  0  0  0
   -1.2423    1.3573   -0.5125 H   0  0  0  0  0  0  0  0  0  0  0  0
    1.0475   -1.8738    0.2672 H   0  0  0  0  0  0  0  0  0  0  0  0
    3.0330   -1.1945    1.1514 H   0  0  0  0  0  0  0  0  0  0  0  0
    4.1225   -1.0890   -0.9683 H   0  0  0  0  0  0  0  0  0  0  0  0
    4.4182    0.6855   -0.7750 H   0  0  0  0  0  0  0  0  0  0  0  0
    5.2482   -0.4608    0.3261 H   0  0  0  0  0  0  0  0  0  0  0  0
   -3.8601    2.1436   -0.4034 H   0  0  0  0  0  0  0  0  0  0  0  0
   -3.5248    1.1870    0.9989 H   0  0  0  0  0  0  0  0  0  0  0  0
    0.3454    0.7748    1.3665 H   0  0  0  0  0  0  0  0  0  0  0  0
   -1.6692   -1.1708    0.9570 H   0  0  0  0  0  0  0  0  0  0  0  0
    1.7710    0.8986   -0.5756 H   0  0  0  0  0  0  0  0  0  0  0  0
   -4.2337    1.0126   -2.6832 H   0  0  0  0  0  0  0  0  0  0  0  0
   -4.0648   -1.2828    0.5336 H   0  0  0  0  0  0  0  0  0  0  0  0
    2.5585    1.3070    1.9043 H   0  0  0  0  0  0  0  0  0  0  0  0
  3  4  1  0
  2  6  1  0
  1  7  1  0
  6  7  1  0
  2  8  1  0
  3  8  1  0
  3 11  1  0
  1 12  1  0
  5 12  1  0
 12  9  1  0
 10 12  1  0
  1 13  1  0
  2 13  1  0
  1 14  1  1
  2 15  1  1
  3 16  1  0
  4 17  1  0
  4 18  1  0
  4 19  1  0
  5 20  1  0
  5 21  1  0
  6 22  1  0
  7 23  1  0
  8 24  1  0
  9 25  1  0
 10 26  1  0
 11 27  1  0
M  END
>  <PDBID>  (1) 
1AZM

>  <PDB ID>  (1) 
1AZM

>  <Generic Name>  (1) 
Acetazolamide

>  <Brand Name>  (1) 
Acetazolam#Acetazolamide#Acetazolamide for Injection, USP#Diamox IV 500mg#Diamox Pws 500mg/vial#Diamox Sequels#Diamox Src 500mg#Diamox Tab 250mg#Diamox Tablets 250mg#Novo-zolamide Tab 250mg#Acemit#Acemox#Acetak#Acetamide#Acetazolamax#Azm#Azol#Azomid#Carbinib#Defiltran#Diabo#Diacarb#Diamox#Diamox Depot#Diazomid#Diluran#Diuramid#Défiltran#Edemox#Glaumox#Glaupax#Glupax#Huma-Zolamide#Iopar-SR#Medene#Oculten#Uramox#Zolmide#Ödemin

>  <DrugBank ID>  (1) 
DB00819

>  <ATC Codes>  (1) 
S01EC01

>  <Ligand ID>  (1) 
AZM

>  <Target Name>  (1) 
Carbonic anhydrase 1

>  <UniProt ID>  (1) 
P00915

>  <PDB ID.1>  (1) 
1AZM

>  <Seq. Identity>  (1) 
100%

$$$$
