PDB_DB06147_03
     RDKit          3D

 37 38  0  0  0  0  0  0  0  0999 V2000
    0.9047   -1.9695    0.2266 O   0  0  0  0  0  0  0  0  0  0  0  0
    0.5494   -0.3598   -0.2695 S   0  0  0  0  0  0  0  0  0  0  0  0
    0.3671   -0.2761   -1.7727 O   0  0  0  0  0  0  0  0  0  0  0  0
   -0.9373   -0.0523    0.5626 C   0  0  0  0  0  0  0  0  0  0  0  0
   -1.5281    1.2832    0.2543 C   0  0  0  0  0  0  0  0  0  0  0  0
   -2.8678    1.1991   -0.4473 C   0  0  0  0  0  0  0  0  0  0  0  0
   -1.9353   -1.1145    0.1482 C   0  0  0  0  0  0  0  0  0  0  0  0
   -3.2211   -0.8668    0.9034 C   0  0  0  0  0  0  0  0  0  0  0  0
   -3.8642    0.3603    0.2987 C   0  0  0  0  0  0  0  0  0  0  0  0
   -4.8881   -0.0784   -0.6370 N   0  0  0  0  0  0  0  0  0  0  0  0
    1.7768    0.5138    0.4039 N   0  0  0  0  0  0  0  0  0  0  0  0
    2.8342    0.8131   -0.5094 C   0  0  0  0  0  0  0  0  0  0  0  0
    4.1666    1.7846    0.2984 S   0  0  0  0  0  0  0  0  0  0  0  0
    5.4119    0.4315    0.3392 C   0  0  0  0  0  0  0  0  0  0  0  0
    4.4617   -0.7426    0.0973 C   0  0  0  0  0  0  0  0  0  0  0  0
    3.5735   -0.3346   -0.9641 N   0  0  0  0  0  0  0  0  0  0  0  0
    0.4104   -2.1929    1.0313 H   0  0  0  0  0  0  0  0  0  0  0  0
    1.0697    0.0767   -2.4012 H   0  0  0  0  0  0  0  0  0  0  0  0
   -0.7570   -0.1498    1.6465 H   0  0  0  0  0  0  0  0  0  0  0  0
   -0.8747    1.9065   -0.3959 H   0  0  0  0  0  0  0  0  0  0  0  0
   -1.7082    1.8974    1.1797 H   0  0  0  0  0  0  0  0  0  0  0  0
   -2.7621    0.8210   -1.4948 H   0  0  0  0  0  0  0  0  0  0  0  0
   -3.2679    2.2341   -0.4876 H   0  0  0  0  0  0  0  0  0  0  0  0
   -1.5978   -2.1323    0.3975 H   0  0  0  0  0  0  0  0  0  0  0  0
   -2.0758   -1.0299   -0.9436 H   0  0  0  0  0  0  0  0  0  0  0  0
   -3.0014   -0.6757    1.9658 H   0  0  0  0  0  0  0  0  0  0  0  0
   -3.8789   -1.7471    0.7587 H   0  0  0  0  0  0  0  0  0  0  0  0
   -4.3807    0.9124    1.0970 H   0  0  0  0  0  0  0  0  0  0  0  0
   -4.9809    0.5564   -1.4583 H   0  0  0  0  0  0  0  0  0  0  0  0
   -4.8275   -1.0742   -0.8783 H   0  0  0  0  0  0  0  0  0  0  0  0
    1.4377    1.4106    0.8091 H   0  0  0  0  0  0  0  0  0  0  0  0
    2.4673    1.4138   -1.3646 H   0  0  0  0  0  0  0  0  0  0  0  0
    5.8205    0.2933    1.3471 H   0  0  0  0  0  0  0  0  0  0  0  0
    6.1463    0.5515   -0.4558 H   0  0  0  0  0  0  0  0  0  0  0  0
    3.9501   -0.9739    1.0297 H   0  0  0  0  0  0  0  0  0  0  0  0
    5.0885   -1.5593   -0.2980 H   0  0  0  0  0  0  0  0  0  0  0  0
    2.9187   -1.1296   -1.1158 H   0  0  0  0  0  0  0  0  0  0  0  0
  2  1  1  0
  2  3  1  0
  2  4  1  0
  4  5  1  0
  5  6  1  0
  4  7  1  0
  7  8  1  0
  6  9  1  0
  8  9  1  0
  9 10  1  0
  2 11  1  0
 11 12  1  0
 12 13  1  0
 13 14  1  0
 14 15  1  0
 12 16  1  0
 15 16  1  0
  1 17  1  0
  3 18  1  0
  4 19  1  0
  5 20  1  0
  5 21  1  0
  6 22  1  0
  6 23  1  0
  7 24  1  0
  7 25  1  0
  8 26  1  0
  8 27  1  0
  9 28  1  0
 10 29  1  0
 10 30  1  0
 11 31  1  0
 12 32  1  0
 14 33  1  0
 14 34  1  0
 15 35  1  0
 15 36  1  0
 16 37  1  0
M  END
>  <PDBID>  (1) 
3TYE

>  <PDB ID>  (1) 
3TYE

>  <Generic Name>  (1) 
Sulfathiazole

>  <Brand Name>  (1) 
Norsulfazolum#Sulfatiazol

>  <DrugBank ID>  (1) 
DB06147

>  <ATC Codes>  (1) 
J01EB07#D06BA02

>  <Ligand ID>  (1) 
YTZ

>  <Target Name>  (1) 
Dihydropteroate synthetase

>  <UniProt ID>  (1) 
Q27738

>  <PDB ID.1>  (1) 
3TYE

>  <Seq. Identity>  (1) 
35%

$$$$
