PDB_DB00238_03
     RDKit          3D

 48 51  0  0  0  0  0  0  0  0999 V2000
   -0.4902    0.9087   -0.2540 N   0  0  0  0  0  0  0  0  0  0  0  0
   -0.9397    2.1059   -0.7948 C   0  0  0  0  0  0  0  0  0  0  0  0
   -2.1049    2.8834   -0.1986 C   0  0  0  0  0  0  0  0  0  0  0  0
   -0.7106    3.4040   -0.0798 C   0  0  0  0  0  0  0  0  0  0  0  0
    1.5732    1.9610    0.2939 N   0  0  0  0  0  0  0  0  0  0  0  0
    2.8296    1.5989    0.9368 C   0  0  0  0  0  0  0  0  0  0  0  0
    3.6685    0.6840    0.0908 C   0  0  0  0  0  0  0  0  0  0  0  0
    2.9130   -0.4803   -0.4716 C   0  0  0  0  0  0  0  0  0  0  0  0
    2.7923   -1.6454    0.4602 C   0  0  0  0  0  0  0  0  0  0  0  0
    0.8540    0.7082    0.0737 C   0  0  2  0  0  0  0  0  0  0  0  0
    1.5605   -0.0209   -1.0107 C   0  0  2  0  0  0  0  0  0  0  0  0
    0.9524   -1.1285   -1.5980 N   0  0  0  0  0  0  0  0  0  0  0  0
   -0.3549   -1.5079   -1.2778 C   0  0  0  0  0  0  0  0  0  0  0  0
   -0.4789   -2.8718   -1.6079 O   0  0  0  0  0  0  0  0  0  0  0  0
   -0.8086   -1.3748    0.1288 C   0  0  1  0  0  0  0  0  0  0  0  0
   -1.3887    0.0179    0.3634 C   0  0  2  0  0  0  0  0  0  0  0  0
   -1.9551   -2.3581    0.3310 C   0  0  0  0  0  0  0  0  0  0  0  0
   -2.9270   -1.8792    1.3780 C   0  0  0  0  0  0  0  0  0  0  0  0
   -3.5485   -0.5785    0.9510 C   0  0  0  0  0  0  0  0  0  0  0  0
   -2.7511    0.0842   -0.0801 N   0  0  0  0  0  0  0  0  0  0  0  0
   -0.9211    2.1532   -1.9136 H   0  0  0  0  0  0  0  0  0  0  0  0
   -2.8092    3.3902   -0.8839 H   0  0  0  0  0  0  0  0  0  0  0  0
   -2.5969    2.4669    0.7149 H   0  0  0  0  0  0  0  0  0  0  0  0
   -0.3672    4.2473   -0.6986 H   0  0  0  0  0  0  0  0  0  0  0  0
   -0.2665    3.3481    0.9332 H   0  0  0  0  0  0  0  0  0  0  0  0
    1.8317    2.4160   -0.6071 H   0  0  0  0  0  0  0  0  0  0  0  0
    2.6711    1.2026    1.9542 H   0  0  0  0  0  0  0  0  0  0  0  0
    3.4089    2.5472    1.0673 H   0  0  0  0  0  0  0  0  0  0  0  0
    4.5041    0.3237    0.7051 H   0  0  0  0  0  0  0  0  0  0  0  0
    4.0248    1.2819   -0.7865 H   0  0  0  0  0  0  0  0  0  0  0  0
    3.4712   -0.8359   -1.3747 H   0  0  0  0  0  0  0  0  0  0  0  0
    3.6760   -1.7046    1.1099 H   0  0  0  0  0  0  0  0  0  0  0  0
    1.9074   -1.6036    1.1215 H   0  0  0  0  0  0  0  0  0  0  0  0
    2.6491   -2.5633   -0.1640 H   0  0  0  0  0  0  0  0  0  0  0  0
    0.9088    0.1753    1.0553 H   0  0  0  0  0  0  0  0  0  0  0  0
    1.8154    0.7303   -1.8025 H   0  0  0  0  0  0  0  0  0  0  0  0
    1.0715   -1.1296   -2.6270 H   0  0  0  0  0  0  0  0  0  0  0  0
   -1.0737   -0.9802   -1.9380 H   0  0  0  0  0  0  0  0  0  0  0  0
    0.2196   -3.3237   -1.0516 H   0  0  0  0  0  0  0  0  0  0  0  0
   -0.0723   -1.6063    0.8977 H   0  0  0  0  0  0  0  0  0  0  0  0
   -1.3953    0.1489    1.4732 H   0  0  0  0  0  0  0  0  0  0  0  0
   -2.5116   -2.3939   -0.6366 H   0  0  0  0  0  0  0  0  0  0  0  0
   -1.5642   -3.3631    0.5754 H   0  0  0  0  0  0  0  0  0  0  0  0
   -3.7460   -2.6327    1.4097 H   0  0  0  0  0  0  0  0  0  0  0  0
   -2.4836   -1.8560    2.3837 H   0  0  0  0  0  0  0  0  0  0  0  0
   -4.5916   -0.6664    0.6174 H   0  0  0  0  0  0  0  0  0  0  0  0
   -3.5422    0.0925    1.8458 H   0  0  0  0  0  0  0  0  0  0  0  0
   -2.9033   -0.3757   -1.0146 H   0  0  0  0  0  0  0  0  0  0  0  0
  1  2  1  0
  2  3  1  0
  2  4  1  0
  3  4  1  0
  5  6  1  0
  6  7  1  0
  7  8  1  0
  8  9  1  0
  1 10  1  0
  5 10  1  0
  8 11  1  0
 10 11  1  0
 11 12  1  0
 12 13  1  0
 13 14  1  0
 13 15  1  0
  1 16  1  0
 15 16  1  0
 15 17  1  0
 17 18  1  0
 18 19  1  0
 16 20  1  0
 19 20  1  0
  2 21  1  0
  3 22  1  0
  3 23  1  0
  4 24  1  0
  4 25  1  0
  5 26  1  0
  6 27  1  0
  6 28  1  0
  7 29  1  0
  7 30  1  0
  8 31  1  0
  9 32  1  0
  9 33  1  0
  9 34  1  0
 10 35  1  1
 11 36  1  6
 12 37  1  0
 13 38  1  0
 14 39  1  0
 15 40  1  1
 16 41  1  1
 17 42  1  0
 17 43  1  0
 18 44  1  0
 18 45  1  0
 19 46  1  0
 19 47  1  0
 20 48  1  0
M  END
>  <PDBID>  (1) 
2HND

>  <PDB ID>  (1) 
2HND

>  <Generic Name>  (1) 
Nevirapine

>  <Brand Name>  (1) 
Apo-nevirapine#Apo-nevirapine XR#Apo-zidovudine-lamivudine-nevirapine#Auro-nevirapine#Mylan-nevirapine#Nevirapine#Nevirapine Extended Release#PMS-nevirapine#Teva-nevirapine#Viramune#Viramune XR

>  <DrugBank ID>  (1) 
DB00238

>  <ATC Codes>  (1) 
J05AR05#J05AG01#J05AR07

>  <Ligand ID>  (1) 
NVP

>  <Target Name>  (1) 
Reverse transcriptase/RNaseH

>  <UniProt ID>  (1) 
Q72547

>  <PDB ID.1>  (1) 
2HND

>  <Seq. Identity>  (1) 
96%

$$$$
