PDB_DB00551_04
     RDKit          3D

 12 11  0  0  0  0  0  0  0  0999 V2000
    1.0782   -0.7503    0.2018 C   0  0  0  0  0  0  0  0  0  0  0  0
    0.2635    0.5148    0.0046 C   0  0  0  0  0  0  0  0  0  0  0  0
   -0.2723    0.8234    1.2760 O   0  0  0  0  0  0  0  0  0  0  0  0
   -0.8083    0.2325   -0.8780 N   0  0  0  0  0  0  0  0  0  0  0  0
   -1.6676   -0.6773   -0.5352 O   0  0  0  0  0  0  0  0  0  0  0  0
    1.5362   -0.7383    1.2145 H   0  0  0  0  0  0  0  0  0  0  0  0
    1.8125   -0.9065   -0.6035 H   0  0  0  0  0  0  0  0  0  0  0  0
    0.3445   -1.5895    0.1937 H   0  0  0  0  0  0  0  0  0  0  0  0
    0.9051    1.3278   -0.3368 H   0  0  0  0  0  0  0  0  0  0  0  0
    0.0201    1.7039    1.5873 H   0  0  0  0  0  0  0  0  0  0  0  0
   -0.6413    0.4030   -1.8780 H   0  0  0  0  0  0  0  0  0  0  0  0
   -2.5706   -0.3435   -0.2465 H   0  0  0  0  0  0  0  0  0  0  0  0
  1  2  1  0
  2  3  1  0
  2  4  1  0
  5  4  1  0
  1  6  1  0
  1  7  1  0
  1  8  1  0
  2  9  1  0
  3 10  1  0
  4 11  1  0
  5 12  1  0
M  END
>  <PDBID>  (1) 
1FWE

>  <PDB ID>  (1) 
1FWE

>  <Generic Name>  (1) 
Acetohydroxamic Acid

>  <Brand Name>  (1) 
Lithostat

>  <DrugBank ID>  (1) 
DB00551

>  <ATC Codes>  (1) 
G04BX03

>  <Ligand ID>  (1) 
HAE

>  <Target Name>  (1) 
Urease subunit alpha

>  <UniProt ID>  (1) 
P18314

>  <PDB ID.1>  (1) 
1FWE

>  <Seq. Identity>  (1) 
95%

$$$$
