PDB_DB00491_06
     RDKit          3D

 31 31  0  0  0  0  0  0  0  0999 V2000
    3.9061    0.7187   -0.5170 O   0  0  0  0  0  0  0  0  0  0  0  0
   -0.2010   -3.2577    0.6575 O   0  0  0  0  0  0  0  0  0  0  0  0
   -1.1195    2.6558    1.3381 O   0  0  0  0  0  0  0  0  0  0  0  0
   -3.3061    1.2105   -0.2006 O   0  0  0  0  0  0  0  0  0  0  0  0
   -2.4780   -1.3030   -0.9412 O   0  0  0  0  0  0  0  0  0  0  0  0
    2.8599   -0.1602   -0.7337 C   0  0  0  0  0  0  0  0  0  0  0  0
    0.0229   -2.2874   -0.3302 C   0  0  0  0  0  0  0  0  0  0  0  0
    1.9761   -0.3262    0.4918 C   0  0  0  0  0  0  0  0  0  0  0  0
    0.3805    1.3990   -0.0602 C   0  0  0  0  0  0  0  0  0  0  0  0
   -1.0123    1.8611    0.1848 C   0  0  1  0  0  0  0  0  0  0  0  0
   -2.0499    0.7820    0.2076 C   0  0  2  0  0  0  0  0  0  0  0  0
   -1.5215   -0.3496   -0.6674 C   0  0  1  0  0  0  0  0  0  0  0  0
   -0.3517   -0.9121    0.1343 C   0  0  2  0  0  0  0  0  0  0  0  0
    0.6666    0.0431    0.1344 N   0  0  0  0  0  0  0  0  0  0  0  0
    3.7800    1.2727    0.2958 H   0  0  0  0  0  0  0  0  0  0  0  0
   -0.3376   -2.8643    1.5519 H   0  0  0  0  0  0  0  0  0  0  0  0
   -1.2769    2.1261    2.1485 H   0  0  0  0  0  0  0  0  0  0  0  0
   -3.8581    1.4562    0.5811 H   0  0  0  0  0  0  0  0  0  0  0  0
   -3.0023   -1.0757   -1.7354 H   0  0  0  0  0  0  0  0  0  0  0  0
    2.2850    0.2445   -1.6051 H   0  0  0  0  0  0  0  0  0  0  0  0
    3.2765   -1.1329   -1.0453 H   0  0  0  0  0  0  0  0  0  0  0  0
    1.0739   -2.3689   -0.6742 H   0  0  0  0  0  0  0  0  0  0  0  0
   -0.6613   -2.5594   -1.1732 H   0  0  0  0  0  0  0  0  0  0  0  0
    2.3555    0.4118    1.2416 H   0  0  0  0  0  0  0  0  0  0  0  0
    2.0571   -1.3146    0.9533 H   0  0  0  0  0  0  0  0  0  0  0  0
    0.7469    1.6893   -1.0779 H   0  0  0  0  0  0  0  0  0  0  0  0
    1.0390    1.9811    0.6375 H   0  0  0  0  0  0  0  0  0  0  0  0
   -1.2881    2.5464   -0.6576 H   0  0  0  0  0  0  0  0  0  0  0  0
   -2.1070    0.3908    1.2546 H   0  0  0  0  0  0  0  0  0  0  0  0
   -1.1072    0.1422   -1.5700 H   0  0  0  0  0  0  0  0  0  0  0  0
   -0.7474   -1.0192    1.1765 H   0  0  0  0  0  0  0  0  0  0  0  0
  1  6  1  0
  2  7  1  0
  6  8  1  0
  3 10  1  0
  9 10  1  0
  4 11  1  0
 10 11  1  0
  5 12  1  0
 11 12  1  0
  7 13  1  0
 12 13  1  0
  8 14  1  0
  9 14  1  0
 13 14  1  0
  1 15  1  0
  2 16  1  0
  3 17  1  0
  4 18  1  0
  5 19  1  0
  6 20  1  0
  6 21  1  0
  7 22  1  0
  7 23  1  0
  8 24  1  0
  8 25  1  0
  9 26  1  0
  9 27  1  0
 10 28  1  6
 11 29  1  1
 12 30  1  6
 13 31  1  1
M  END
>  <PDBID>  (1) 
3L4W

>  <PDB ID>  (1) 
3L4W

>  <Generic Name>  (1) 
Miglitol

>  <Brand Name>  (1) 
Glyset#Miglitol#Diaban#Diamig#Diaset#Diastabol#Elitox#Euglitol#Glycet#Laiping#Migbose#Miglit#Mignar#Migtor#Misobit#Plumarol#Seibule

>  <DrugBank ID>  (1) 
DB00491

>  <ATC Codes>  (1) 
A10BF02

>  <Ligand ID>  (1) 
MIG

>  <Target Name>  (1) 
Maltase-glucoamylase, intestinal

>  <UniProt ID>  (1) 
O43451

>  <PDB ID.1>  (1) 
3L4W

>  <Seq. Identity>  (1) 
99%

$$$$
