PDB_DB01092_09
     RDKit          3D

178188  0  0  0  0  0  0  0  0999 V2000
    0.8989    0.0328    1.0341 C   0  0  2  0  0  0  0  0  0  0  0  0
    2.1905   -0.6411    0.9480 C   0  0  0  0  0  0  0  0  0  0  0  0
    3.1645   -0.1821   -0.0871 C   0  0  1  0  0  0  0  0  0  0  0  0
    2.4716    0.0850   -1.3464 C   0  0  0  0  0  0  0  0  0  0  0  0
    0.9973   -0.0178   -1.3980 C   0  0  1  0  0  0  0  0  0  0  0  0
    0.6808   -1.4509   -1.6719 C   0  0  0  0  0  0  0  0  0  0  0  0
   -0.4160   -2.0593   -0.8745 C   0  0  0  0  0  0  0  0  0  0  0  0
   -1.5252   -1.0630   -0.8927 C   0  0  2  0  0  0  0  0  0  0  0  0
   -1.1862    0.2297   -0.2008 C   0  0  1  0  0  0  0  0  0  0  0  0
    0.2720    0.5716   -0.2193 C   0  0  1  0  0  0  0  0  0  0  0  0
   -2.0960    1.2638   -0.8136 C   0  0  1  0  0  0  0  0  0  0  0  0
   -3.3171    0.6585   -1.4469 C   0  0  0  0  0  0  0  0  0  0  0  0
   -3.8845   -0.5352   -0.7501 C   0  0  1  0  0  0  0  0  0  0  0  0
   -2.8495   -1.6006   -0.4554 C   0  0  2  0  0  0  0  0  0  0  0  0
   -3.0043   -1.9612    0.9550 C   0  0  0  0  0  0  0  0  0  0  0  0
   -4.4686   -1.5782    1.2403 C   0  0  0  0  0  0  0  0  0  0  0  0
   -4.5502   -0.2430    0.5393 C   0  0  2  0  0  0  0  0  0  0  0  0
   -4.8564   -1.1621   -1.7266 C   0  0  0  0  0  0  0  0  0  0  0  0
    0.5401    2.0627   -0.2351 C   0  0  0  0  0  0  0  0  0  0  0  0
   -5.8437    0.4203    0.5640 C   0  0  1  0  0  0  0  0  0  0  0  0
   -7.0462   -0.1763   -0.0198 C   0  0  0  0  0  0  0  0  0  0  0  0
   -6.2922    0.5616    2.0310 C   0  0  0  0  0  0  0  0  0  0  0  0
   -7.7173    1.0059    1.7868 C   0  0  0  0  0  0  0  0  0  0  0  0
    5.2625    0.6271    0.5180 C   0  0  2  0  0  0  0  0  0  0  0  0
    6.0111    1.5501   -0.4066 C   0  0  1  0  0  0  0  0  0  0  0  0
    7.4421    1.1415   -0.4370 C   0  0  1  0  0  0  0  0  0  0  0  0
    7.6939    0.0491    0.5389 C   0  0  2  0  0  0  0  0  0  0  0  0
    7.0819    0.2914    1.8960 C   0  0  2  0  0  0  0  0  0  0  0  0
    7.1324   -1.0229    2.6489 C   0  0  0  0  0  0  0  0  0  0  0  0
    1.0382    1.1172    1.9381 O   0  0  0  0  0  0  0  0  0  0  0  0
    3.9283    0.8709    0.4125 O   0  0  0  0  0  0  0  0  0  0  0  0
    0.5876    0.7222   -2.5345 O   0  0  0  0  0  0  0  0  0  0  0  0
   -2.5304    2.1607    0.1588 O   0  0  0  0  0  0  0  0  0  0  0  0
   -3.0576   -2.7740   -1.2209 O   0  0  0  0  0  0  0  0  0  0  0  0
   -0.0163    2.6980    0.8842 O   0  0  0  0  0  0  0  0  0  0  0  0
   -8.1619    0.4249    0.6299 O   0  0  0  0  0  0  0  0  0  0  0  0
   -8.5715    0.6437    2.8250 O   0  0  0  0  0  0  0  0  0  0  0  0
    5.4690    1.3636   -1.6959 O   0  0  0  0  0  0  0  0  0  0  0  0
    7.7959    0.6443   -1.7127 O   0  0  0  0  0  0  0  0  0  0  0  0
    9.0925   -0.0159    0.7426 O   0  0  0  0  0  0  0  0  0  0  0  0
    5.7470    0.6643    1.8165 O   0  0  0  0  0  0  0  0  0  0  0  0
    0.8881    0.0152    0.9914 C   0  0  2  0  0  0  0  0  0  0  0  0
    2.1765   -0.6812    0.9147 C   0  0  0  0  0  0  0  0  0  0  0  0
    3.1511   -0.2364   -0.1333 C   0  0  1  0  0  0  0  0  0  0  0  0
    2.4497    0.0153   -1.3958 C   0  0  0  0  0  0  0  0  0  0  0  0
    0.9719   -0.0930   -1.4422 C   0  0  1  0  0  0  0  0  0  0  0  0
    0.6454   -1.5274   -1.7110 C   0  0  0  0  0  0  0  0  0  0  0  0
   -0.4599   -2.1150   -0.8822 C   0  0  0  0  0  0  0  0  0  0  0  0
   -1.5478   -1.1008   -0.9333 C   0  0  2  0  0  0  0  0  0  0  0  0
   -1.2024    0.1902   -0.2389 C   0  0  1  0  0  0  0  0  0  0  0  0
    0.2574    0.5221   -0.2686 C   0  0  1  0  0  0  0  0  0  0  0  0
   -2.0942    1.2146   -0.9017 C   0  0  1  0  0  0  0  0  0  0  0  0
   -3.3415    0.6029   -1.5004 C   0  0  0  0  0  0  0  0  0  0  0  0
   -3.9027   -0.5576   -0.7278 C   0  0  1  0  0  0  0  0  0  0  0  0
   -2.8645   -1.5934   -0.3840 C   0  0  2  0  0  0  0  0  0  0  0  0
   -2.8981   -1.8234    1.0775 C   0  0  0  0  0  0  0  0  0  0  0  0
   -3.8720   -0.8475    1.6832 C   0  0  0  0  0  0  0  0  0  0  0  0
   -4.5532   -0.1311    0.5429 C   0  0  2  0  0  0  0  0  0  0  0  0
   -4.8840   -1.2358   -1.6921 C   0  0  0  0  0  0  0  0  0  0  0  0
    0.5313    2.0109   -0.3214 C   0  0  0  0  0  0  0  0  0  0  0  0
   -6.0181   -0.3406    0.6601 C   0  0  0  0  0  0  0  0  0  0  0  0
   -6.8893    0.3388   -0.3149 C   0  0  0  0  0  0  0  0  0  0  0  0
   -6.4422    0.2929    1.9944 C   0  0  0  0  0  0  0  0  0  0  0  0
   -7.8531    0.6992    1.6810 C   0  0  0  0  0  0  0  0  0  0  0  0
    5.2364    0.6129    0.4934 C   0  0  2  0  0  0  0  0  0  0  0  0
    5.9772    1.5640   -0.4181 C   0  0  1  0  0  0  0  0  0  0  0  0
    7.4005    1.1354   -0.4829 C   0  0  1  0  0  0  0  0  0  0  0  0
    7.7181    0.1426    0.5699 C   0  0  2  0  0  0  0  0  0  0  0  0
    7.0566    0.3909    1.8946 C   0  0  2  0  0  0  0  0  0  0  0  0
    7.1716   -0.8958    2.6951 C   0  0  0  0  0  0  0  0  0  0  0  0
    1.0803    1.1157    1.8760 O   0  0  0  0  0  0  0  0  0  0  0  0
    3.8998    0.8189    0.3646 O   0  0  0  0  0  0  0  0  0  0  0  0
    0.5660    0.6276   -2.6015 O   0  0  0  0  0  0  0  0  0  0  0  0
   -2.4846    2.1714    0.0263 O   0  0  0  0  0  0  0  0  0  0  0  0
   -3.1032   -2.8219   -1.0218 O   0  0  0  0  0  0  0  0  0  0  0  0
   -0.0223    2.6679    0.7982 O   0  0  0  0  0  0  0  0  0  0  0  0
   -7.9517    0.9321    0.3457 O   0  0  0  0  0  0  0  0  0  0  0  0
   -8.7805   -0.2640    2.1148 O   0  0  0  0  0  0  0  0  0  0  0  0
    5.3959    1.4576   -1.6902 O   0  0  0  0  0  0  0  0  0  0  0  0
    7.6377    0.5387   -1.7425 O   0  0  0  0  0  0  0  0  0  0  0  0
    9.1125    0.2067    0.8047 O   0  0  0  0  0  0  0  0  0  0  0  0
    5.7083    0.6843    1.7940 O   0  0  0  0  0  0  0  0  0  0  0  0
    0.1833   -0.6379    1.5963 H   0  0  0  0  0  0  0  0  0  0  0  0
    2.0056   -1.7272    0.7441 H   0  0  0  0  0  0  0  0  0  0  0  0
    2.7676   -0.6735    1.9155 H   0  0  0  0  0  0  0  0  0  0  0  0
    3.9334   -0.9919   -0.2819 H   0  0  0  0  0  0  0  0  0  0  0  0
    2.7394    1.1176   -1.7412 H   0  0  0  0  0  0  0  0  0  0  0  0
    2.8767   -0.5871   -2.1544 H   0  0  0  0  0  0  0  0  0  0  0  0
    0.3815   -1.5760   -2.7605 H   0  0  0  0  0  0  0  0  0  0  0  0
    1.5784   -2.1055   -1.5859 H   0  0  0  0  0  0  0  0  0  0  0  0
   -0.1607   -2.4604    0.1093 H   0  0  0  0  0  0  0  0  0  0  0  0
   -0.7932   -2.9508   -1.4573 H   0  0  0  0  0  0  0  0  0  0  0  0
   -1.6619   -0.8323   -1.9752 H   0  0  0  0  0  0  0  0  0  0  0  0
   -1.5163    0.1393    0.8485 H   0  0  0  0  0  0  0  0  0  0  0  0
   -1.5975    1.8072   -1.6729 H   0  0  0  0  0  0  0  0  0  0  0  0
   -4.1258    1.4438   -1.4383 H   0  0  0  0  0  0  0  0  0  0  0  0
   -3.1892    0.3969   -2.5176 H   0  0  0  0  0  0  0  0  0  0  0  0
   -2.3270   -1.5307    1.6811 H   0  0  0  0  0  0  0  0  0  0  0  0
   -2.9711   -3.0792    1.1208 H   0  0  0  0  0  0  0  0  0  0  0  0
   -4.6391   -1.5212    2.3248 H   0  0  0  0  0  0  0  0  0  0  0  0
   -5.0813   -2.3595    0.7938 H   0  0  0  0  0  0  0  0  0  0  0  0
   -3.8682    0.4238    1.1635 H   0  0  0  0  0  0  0  0  0  0  0  0
   -4.1841   -1.7280   -2.4514 H   0  0  0  0  0  0  0  0  0  0  0  0
   -5.3356   -0.4080   -2.3798 H   0  0  0  0  0  0  0  0  0  0  0  0
   -5.4985   -1.9308   -1.3124 H   0  0  0  0  0  0  0  0  0  0  0  0
    0.1624    2.6036   -1.0980 H   0  0  0  0  0  0  0  0  0  0  0  0
    1.6555    2.2576   -0.2541 H   0  0  0  0  0  0  0  0  0  0  0  0
   -5.7209    1.4505    0.1398 H   0  0  0  0  0  0  0  0  0  0  0  0
   -7.2058   -1.2564    0.1698 H   0  0  0  0  0  0  0  0  0  0  0  0
   -7.2596    0.0326   -1.0857 H   0  0  0  0  0  0  0  0  0  0  0  0
   -6.3496   -0.4554    2.4335 H   0  0  0  0  0  0  0  0  0  0  0  0
   -5.6858    1.2723    2.5846 H   0  0  0  0  0  0  0  0  0  0  0  0
   -7.6867    2.1238    1.7233 H   0  0  0  0  0  0  0  0  0  0  0  0
    5.4496   -0.4188    0.1563 H   0  0  0  0  0  0  0  0  0  0  0  0
    5.9357    2.6127   -0.0985 H   0  0  0  0  0  0  0  0  0  0  0  0
    8.1106    2.0260   -0.2921 H   0  0  0  0  0  0  0  0  0  0  0  0
    7.4200   -0.9446    0.1290 H   0  0  0  0  0  0  0  0  0  0  0  0
    7.7022    1.0148    2.4634 H   0  0  0  0  0  0  0  0  0  0  0  0
    6.9386   -1.8339    1.8972 H   0  0  0  0  0  0  0  0  0  0  0  0
    6.2769   -1.0943    3.3721 H   0  0  0  0  0  0  0  0  0  0  0  0
    8.1007   -1.1998    3.1303 H   0  0  0  0  0  0  0  0  0  0  0  0
    1.2360    0.7547    2.8465 H   0  0  0  0  0  0  0  0  0  0  0  0
    0.2002    0.0905   -3.1730 H   0  0  0  0  0  0  0  0  0  0  0  0
   -2.6911    3.0443   -0.2572 H   0  0  0  0  0  0  0  0  0  0  0  0
   -2.9262   -3.5831   -0.6929 H   0  0  0  0  0  0  0  0  0  0  0  0
   -0.2614    3.6286    0.7093 H   0  0  0  0  0  0  0  0  0  0  0  0
   -9.1969   -0.0897    2.5552 H   0  0  0  0  0  0  0  0  0  0  0  0
    5.3125    2.2116   -2.1533 H   0  0  0  0  0  0  0  0  0  0  0  0
    7.4880    1.3119   -2.3816 H   0  0  0  0  0  0  0  0  0  0  0  0
    9.3719    0.8342    1.2052 H   0  0  0  0  0  0  0  0  0  0  0  0
    0.1874   -0.6292    1.5854 H   0  0  0  0  0  0  0  0  0  0  0  0
    1.9800   -1.7590    0.7246 H   0  0  0  0  0  0  0  0  0  0  0  0
    2.7400   -0.7020    1.8848 H   0  0  0  0  0  0  0  0  0  0  0  0
    3.9292   -1.0408   -0.3223 H   0  0  0  0  0  0  0  0  0  0  0  0
    2.7043    1.0242   -1.8460 H   0  0  0  0  0  0  0  0  0  0  0  0
    2.8435   -0.6944   -2.1850 H   0  0  0  0  0  0  0  0  0  0  0  0
    0.3552   -1.6841   -2.7837 H   0  0  0  0  0  0  0  0  0  0  0  0
    1.5349   -2.1846   -1.5798 H   0  0  0  0  0  0  0  0  0  0  0  0
   -0.1855   -2.4590    0.1164 H   0  0  0  0  0  0  0  0  0  0  0  0
   -0.8318   -3.0172   -1.4295 H   0  0  0  0  0  0  0  0  0  0  0  0
   -1.7309   -0.9322   -2.0166 H   0  0  0  0  0  0  0  0  0  0  0  0
   -1.5542    0.1342    0.8040 H   0  0  0  0  0  0  0  0  0  0  0  0
   -1.5885    1.6833   -1.7997 H   0  0  0  0  0  0  0  0  0  0  0  0
   -4.1187    1.4094   -1.4932 H   0  0  0  0  0  0  0  0  0  0  0  0
   -3.2264    0.3296   -2.5706 H   0  0  0  0  0  0  0  0  0  0  0  0
   -1.9032   -1.7932    1.5819 H   0  0  0  0  0  0  0  0  0  0  0  0
   -3.2902   -2.8543    1.3291 H   0  0  0  0  0  0  0  0  0  0  0  0
   -3.3421   -0.1419    2.3783 H   0  0  0  0  0  0  0  0  0  0  0  0
   -4.6240   -1.3608    2.3536 H   0  0  0  0  0  0  0  0  0  0  0  0
   -4.3679    0.9689    0.7109 H   0  0  0  0  0  0  0  0  0  0  0  0
   -4.2185   -1.8528   -2.3687 H   0  0  0  0  0  0  0  0  0  0  0  0
   -5.3757   -0.5210   -2.3573 H   0  0  0  0  0  0  0  0  0  0  0  0
   -5.5301   -1.9517   -1.1862 H   0  0  0  0  0  0  0  0  0  0  0  0
    0.1389    2.5325   -1.1869 H   0  0  0  0  0  0  0  0  0  0  0  0
    1.6451    2.2045   -0.3538 H   0  0  0  0  0  0  0  0  0  0  0  0
   -6.2925   -1.4301    0.7839 H   0  0  0  0  0  0  0  0  0  0  0  0
   -7.3601   -0.4133   -1.0153 H   0  0  0  0  0  0  0  0  0  0  0  0
   -6.4302    1.1029   -0.9451 H   0  0  0  0  0  0  0  0  0  0  0  0
   -5.8457    1.1877    2.1922 H   0  0  0  0  0  0  0  0  0  0  0  0
   -6.4470   -0.4458    2.8057 H   0  0  0  0  0  0  0  0  0  0  0  0
   -8.0997    1.6336    2.2308 H   0  0  0  0  0  0  0  0  0  0  0  0
    5.4689   -0.4173    0.1449 H   0  0  0  0  0  0  0  0  0  0  0  0
    5.8555    2.5905   -0.0078 H   0  0  0  0  0  0  0  0  0  0  0  0
    8.0593    2.0302   -0.4746 H   0  0  0  0  0  0  0  0  0  0  0  0
    7.5392   -0.8927    0.1891 H   0  0  0  0  0  0  0  0  0  0  0  0
    7.5955    1.1711    2.4549 H   0  0  0  0  0  0  0  0  0  0  0  0
    7.0108   -1.7357    1.9566 H   0  0  0  0  0  0  0  0  0  0  0  0
    6.4366   -0.9575    3.5107 H   0  0  0  0  0  0  0  0  0  0  0  0
    8.2201   -0.9991    3.0362 H   0  0  0  0  0  0  0  0  0  0  0  0
    1.1315    0.8096    2.7979 H   0  0  0  0  0  0  0  0  0  0  0  0
    0.1425   -0.0239   -3.1982 H   0  0  0  0  0  0  0  0  0  0  0  0
   -2.6351    3.0330   -0.4437 H   0  0  0  0  0  0  0  0  0  0  0  0
   -2.9509   -3.5887   -0.4001 H   0  0  0  0  0  0  0  0  0  0  0  0
   -0.1828    3.6095    0.6297 H   0  0  0  0  0  0  0  0  0  0  0  0
   -8.8498   -0.3074    3.0855 H   0  0  0  0  0  0  0  0  0  0  0  0
    4.9732    2.2843   -1.9885 H   0  0  0  0  0  0  0  0  0  0  0  0
    7.3097    1.2057   -2.4100 H   0  0  0  0  0  0  0  0  0  0  0  0
    9.3136    1.1415    1.1175 H   0  0  0  0  0  0  0  0  0  0  0  0
  1  2  1  0
  2  3  1  0
  3  4  1  0
  4  5  1  0
  5  6  1  0
  6  7  1  0
  7  8  1  0
  8  9  1  0
  1 10  1  0
  5 10  1  0
  9 10  1  0
  9 11  1  0
 11 12  1  0
 12 13  1  0
  8 14  1  0
 13 14  1  0
 14 15  1  0
 15 16  1  0
 13 17  1  0
 16 17  1  0
 13 18  1  6
 10 19  1  1
 17 20  1  0
 20 21  1  0
 20 22  1  0
 22 23  1  0
 24 25  1  0
 25 26  1  0
 26 27  1  0
 27 28  1  0
 28 29  1  0
  1 30  1  0
  3 31  1  0
 24 31  1  0
  5 32  1  6
 11 33  1  0
 14 34  1  6
 19 35  1  0
 21 36  1  0
 23 36  1  0
 23 37  1  0
 25 38  1  0
 26 39  1  0
 27 40  1  0
 24 41  1  0
 28 41  1  0
 42 43  1  0
 43 44  1  0
 44 45  1  0
 45 46  1  0
 46 47  1  0
 47 48  1  0
 48 49  1  0
 49 50  1  0
 42 51  1  0
 46 51  1  0
 50 51  1  0
 50 52  1  0
 52 53  1  0
 53 54  1  0
 49 55  1  0
 54 55  1  0
 55 56  1  0
 56 57  1  0
 54 58  1  0
 57 58  1  0
 54 59  1  6
 51 60  1  6
 58 61  1  0
 61 62  1  0
 61 63  1  0
 63 64  1  0
 65 66  1  0
 66 67  1  0
 67 68  1  0
 68 69  1  0
 69 70  1  0
 42 71  1  0
 44 72  1  0
 65 72  1  0
 46 73  1  6
 52 74  1  0
 55 75  1  6
 60 76  1  0
 62 77  1  0
 64 77  1  0
 64 78  1  0
 66 79  1  0
 67 80  1  0
 68 81  1  0
 65 82  1  0
 69 82  1  0
  1 83  1  1
  2 84  1  0
  2 85  1  0
  3 86  1  6
  4 87  1  0
  4 88  1  0
  6 89  1  0
  6 90  1  0
  7 91  1  0
  7 92  1  0
  8 93  1  6
  9 94  1  1
 11 95  1  6
 12 96  1  0
 12 97  1  0
 15 98  1  0
 15 99  1  0
 16100  1  0
 16101  1  0
 17102  1  1
 18103  1  0
 18104  1  0
 18105  1  0
 19106  1  0
 19107  1  0
 20108  1  6
 21109  1  0
 21110  1  0
 22111  1  0
 22112  1  0
 23113  1  0
 24114  1  6
 25115  1  1
 26116  1  1
 27117  1  6
 28118  1  1
 29119  1  0
 29120  1  0
 29121  1  0
 30122  1  0
 32123  1  0
 33124  1  0
 34125  1  0
 35126  1  0
 37127  1  0
 38128  1  0
 39129  1  0
 40130  1  0
 42131  1  1
 43132  1  0
 43133  1  0
 44134  1  6
 45135  1  0
 45136  1  0
 47137  1  0
 47138  1  0
 48139  1  0
 48140  1  0
 49141  1  6
 50142  1  1
 52143  1  6
 53144  1  0
 53145  1  0
 56146  1  0
 56147  1  0
 57148  1  0
 57149  1  0
 58150  1  1
 59151  1  0
 59152  1  0
 59153  1  0
 60154  1  0
 60155  1  0
 61156  1  0
 62157  1  0
 62158  1  0
 63159  1  0
 63160  1  0
 64161  1  0
 65162  1  6
 66163  1  1
 67164  1  1
 68165  1  6
 69166  1  1
 70167  1  0
 70168  1  0
 70169  1  0
 71170  1  0
 73171  1  0
 74172  1  0
 75173  1  0
 76174  1  0
 78175  1  0
 79176  1  0
 80177  1  0
 81178  1  0
M  END
>  <PDBID>  (1) 
3N23

>  <PDB ID>  (1) 
3N23

>  <Generic Name>  (1) 
Ouabain

>  <Brand Name>  (1) 
Strodival

>  <DrugBank ID>  (1) 
DB01092

>  <ATC Codes>  (1) 
C01AC01

>  <Ligand ID>  (1) 
OBN

>  <Target Name>  (1) 
Sodium/potassium-transporting ATPase subunit alpha-1

>  <UniProt ID>  (1) 
P05023

>  <PDB ID.1>  (1) 
3N23

>  <Seq. Identity>  (1) 
95%

$$$$
