PDB_DB08954_05
     RDKit          3D

126130  0  0  0  0  0  0  0  0999 V2000
   -6.8283   -0.8540   -0.5352 C   0  0  0  0  0  0  0  0  0  0  0  0
    0.8071    0.0722   -0.2171 N   0  0  0  0  0  0  0  0  0  0  0  0
    3.9466    0.1442    1.7101 O   0  0  0  0  0  0  0  0  0  0  0  0
    5.6531    0.6269   -1.6178 C   0  0  0  0  0  0  0  0  0  0  0  0
    7.8344    0.4277   -0.5993 O   0  0  0  0  0  0  0  0  0  0  0  0
    6.0555   -1.0602    0.0823 C   0  0  0  0  0  0  0  0  0  0  0  0
   -4.4050    0.7139    0.2517 C   0  0  0  0  0  0  0  0  0  0  0  0
   -5.6021    0.5152    1.1654 C   0  0  0  0  0  0  0  0  0  0  0  0
   -6.8933    0.3309    0.4038 C   0  0  0  0  0  0  0  0  0  0  0  0
   -3.3509   -0.2553    0.6850 C   0  0  0  0  0  0  0  0  0  0  0  0
   -2.0754   -0.1868   -0.1221 C   0  0  0  0  0  0  0  0  0  0  0  0
   -1.1565   -1.2322    0.4702 C   0  0  0  0  0  0  0  0  0  0  0  0
   -5.5452   -0.8545   -1.3390 C   0  0  0  0  0  0  0  0  0  0  0  0
   -4.8788    0.4780   -1.1613 C   0  0  0  0  0  0  0  0  0  0  0  0
    0.2317   -1.2087   -0.0625 C   0  0  0  0  0  0  0  0  0  0  0  0
   -0.0746    1.0916   -0.7006 C   0  0  0  0  0  0  0  0  0  0  0  0
   -1.3974    1.1387   -0.0206 C   0  0  0  0  0  0  0  0  0  0  0  0
    1.7883    0.4838    0.7180 C   0  0  2  0  0  0  0  0  0  0  0  0
    3.0431   -0.3287    0.7541 C   0  0  1  0  0  0  0  0  0  0  0  0
    3.7202   -0.4427   -0.6084 C   0  0  0  0  0  0  0  0  0  0  0  0
    4.2445    0.8736   -1.0864 C   0  0  0  0  0  0  0  0  0  0  0  0
    6.4773    0.2989   -0.3749 C   0  0  0  0  0  0  0  0  0  0  0  0
    4.7664   -1.5211   -0.5539 C   0  0  0  0  0  0  0  0  0  0  0  0
    1.2809    0.5456    2.1636 C   0  0  0  0  0  0  0  0  0  0  0  0
   -6.8283   -0.8540   -0.5352 C   0  0  0  0  0  0  0  0  0  0  0  0
    0.8071    0.0722   -0.2171 N   0  0  0  0  0  0  0  0  0  0  0  0
    3.9466    0.1442    1.7101 O   0  0  0  0  0  0  0  0  0  0  0  0
    5.6531    0.6269   -1.6178 C   0  0  0  0  0  0  0  0  0  0  0  0
    7.8344    0.4277   -0.5993 O   0  0  0  0  0  0  0  0  0  0  0  0
    6.0555   -1.0602    0.0823 C   0  0  0  0  0  0  0  0  0  0  0  0
   -4.4050    0.7139    0.2517 C   0  0  0  0  0  0  0  0  0  0  0  0
   -5.6021    0.5152    1.1654 C   0  0  0  0  0  0  0  0  0  0  0  0
   -6.8933    0.3309    0.4038 C   0  0  0  0  0  0  0  0  0  0  0  0
   -3.3509   -0.2553    0.6850 C   0  0  0  0  0  0  0  0  0  0  0  0
   -2.0754   -0.1868   -0.1221 C   0  0  0  0  0  0  0  0  0  0  0  0
   -1.1565   -1.2322    0.4702 C   0  0  0  0  0  0  0  0  0  0  0  0
   -5.5452   -0.8545   -1.3390 C   0  0  0  0  0  0  0  0  0  0  0  0
   -4.8788    0.4780   -1.1613 C   0  0  0  0  0  0  0  0  0  0  0  0
    0.2317   -1.2087   -0.0625 C   0  0  0  0  0  0  0  0  0  0  0  0
   -0.0746    1.0916   -0.7006 C   0  0  0  0  0  0  0  0  0  0  0  0
   -1.3974    1.1387   -0.0206 C   0  0  0  0  0  0  0  0  0  0  0  0
    1.7883    0.4838    0.7180 C   0  0  2  0  0  0  0  0  0  0  0  0
    3.0431   -0.3287    0.7541 C   0  0  1  0  0  0  0  0  0  0  0  0
    3.7202   -0.4427   -0.6084 C   0  0  0  0  0  0  0  0  0  0  0  0
    4.2445    0.8736   -1.0864 C   0  0  0  0  0  0  0  0  0  0  0  0
    6.4773    0.2989   -0.3749 C   0  0  0  0  0  0  0  0  0  0  0  0
    4.7664   -1.5211   -0.5539 C   0  0  0  0  0  0  0  0  0  0  0  0
    1.2809    0.5456    2.1636 C   0  0  0  0  0  0  0  0  0  0  0  0
   -7.6704   -0.7505   -1.2500 H   0  0  0  0  0  0  0  0  0  0  0  0
   -6.9819   -1.8099    0.0029 H   0  0  0  0  0  0  0  0  0  0  0  0
    3.9054    1.1178    1.7122 H   0  0  0  0  0  0  0  0  0  0  0  0
    5.6786   -0.2095   -2.3460 H   0  0  0  0  0  0  0  0  0  0  0  0
    6.0652    1.5541   -2.0371 H   0  0  0  0  0  0  0  0  0  0  0  0
    8.0071    1.4049   -0.7481 H   0  0  0  0  0  0  0  0  0  0  0  0
    6.8450   -1.7784   -0.2204 H   0  0  0  0  0  0  0  0  0  0  0  0
    6.0161   -1.1235    1.2081 H   0  0  0  0  0  0  0  0  0  0  0  0
   -4.0835    1.7764    0.3174 H   0  0  0  0  0  0  0  0  0  0  0  0
   -5.7498    1.3701    1.8591 H   0  0  0  0  0  0  0  0  0  0  0  0
   -5.4797   -0.3995    1.8149 H   0  0  0  0  0  0  0  0  0  0  0  0
   -7.6656    0.0875    1.1745 H   0  0  0  0  0  0  0  0  0  0  0  0
   -7.2308    1.2262   -0.1199 H   0  0  0  0  0  0  0  0  0  0  0  0
   -3.1211   -0.0515    1.7560 H   0  0  0  0  0  0  0  0  0  0  0  0
   -3.7465   -1.2694    0.6184 H   0  0  0  0  0  0  0  0  0  0  0  0
   -2.3232   -0.4456   -1.1732 H   0  0  0  0  0  0  0  0  0  0  0  0
   -1.2257   -1.0847    1.5867 H   0  0  0  0  0  0  0  0  0  0  0  0
   -1.5826   -2.2460    0.3100 H   0  0  0  0  0  0  0  0  0  0  0  0
   -5.7633   -0.9596   -2.4322 H   0  0  0  0  0  0  0  0  0  0  0  0
   -4.8872   -1.7052   -1.0758 H   0  0  0  0  0  0  0  0  0  0  0  0
   -5.6344    1.2567   -1.3911 H   0  0  0  0  0  0  0  0  0  0  0  0
   -4.0588    0.6237   -1.9068 H   0  0  0  0  0  0  0  0  0  0  0  0
    0.2353   -1.8053   -1.0226 H   0  0  0  0  0  0  0  0  0  0  0  0
    0.8540   -1.8282    0.6358 H   0  0  0  0  0  0  0  0  0  0  0  0
   -0.2259    0.9618   -1.7784 H   0  0  0  0  0  0  0  0  0  0  0  0
    0.4747    2.0684   -0.5868 H   0  0  0  0  0  0  0  0  0  0  0  0
   -1.3557    1.4509    1.0424 H   0  0  0  0  0  0  0  0  0  0  0  0
   -1.9844    1.9598   -0.5233 H   0  0  0  0  0  0  0  0  0  0  0  0
    2.0235    1.5649    0.4801 H   0  0  0  0  0  0  0  0  0  0  0  0
    2.7840   -1.3628    1.0574 H   0  0  0  0  0  0  0  0  0  0  0  0
    2.9320   -0.7747   -1.3165 H   0  0  0  0  0  0  0  0  0  0  0  0
    4.3909    1.6087   -0.2398 H   0  0  0  0  0  0  0  0  0  0  0  0
    3.6505    1.3180   -1.9094 H   0  0  0  0  0  0  0  0  0  0  0  0
    6.2036    1.0403    0.4124 H   0  0  0  0  0  0  0  0  0  0  0  0
    4.9566   -1.9640   -1.5520 H   0  0  0  0  0  0  0  0  0  0  0  0
    4.3755   -2.3571    0.0755 H   0  0  0  0  0  0  0  0  0  0  0  0
    0.6482    1.4299    2.3478 H   0  0  0  0  0  0  0  0  0  0  0  0
    0.8805   -0.4111    2.4938 H   0  0  0  0  0  0  0  0  0  0  0  0
    2.2019    0.7191    2.7862 H   0  0  0  0  0  0  0  0  0  0  0  0
   -7.6704   -0.7505   -1.2500 H   0  0  0  0  0  0  0  0  0  0  0  0
   -6.9819   -1.8099    0.0029 H   0  0  0  0  0  0  0  0  0  0  0  0
    3.9054    1.1178    1.7122 H   0  0  0  0  0  0  0  0  0  0  0  0
    5.6786   -0.2095   -2.3460 H   0  0  0  0  0  0  0  0  0  0  0  0
    6.0652    1.5541   -2.0371 H   0  0  0  0  0  0  0  0  0  0  0  0
    8.0071    1.4049   -0.7481 H   0  0  0  0  0  0  0  0  0  0  0  0
    6.8450   -1.7784   -0.2204 H   0  0  0  0  0  0  0  0  0  0  0  0
    6.0161   -1.1235    1.2081 H   0  0  0  0  0  0  0  0  0  0  0  0
   -4.0835    1.7764    0.3174 H   0  0  0  0  0  0  0  0  0  0  0  0
   -5.7498    1.3701    1.8591 H   0  0  0  0  0  0  0  0  0  0  0  0
   -5.4797   -0.3995    1.8149 H   0  0  0  0  0  0  0  0  0  0  0  0
   -7.6656    0.0875    1.1745 H   0  0  0  0  0  0  0  0  0  0  0  0
   -7.2308    1.2262   -0.1199 H   0  0  0  0  0  0  0  0  0  0  0  0
   -3.1211   -0.0515    1.7560 H   0  0  0  0  0  0  0  0  0  0  0  0
   -3.7465   -1.2694    0.6184 H   0  0  0  0  0  0  0  0  0  0  0  0
   -2.3232   -0.4456   -1.1732 H   0  0  0  0  0  0  0  0  0  0  0  0
   -1.2257   -1.0847    1.5867 H   0  0  0  0  0  0  0  0  0  0  0  0
   -1.5826   -2.2460    0.3100 H   0  0  0  0  0  0  0  0  0  0  0  0
   -5.7633   -0.9596   -2.4322 H   0  0  0  0  0  0  0  0  0  0  0  0
   -4.8872   -1.7052   -1.0758 H   0  0  0  0  0  0  0  0  0  0  0  0
   -5.6344    1.2567   -1.3911 H   0  0  0  0  0  0  0  0  0  0  0  0
   -4.0588    0.6237   -1.9068 H   0  0  0  0  0  0  0  0  0  0  0  0
    0.2353   -1.8053   -1.0226 H   0  0  0  0  0  0  0  0  0  0  0  0
    0.8540   -1.8282    0.6358 H   0  0  0  0  0  0  0  0  0  0  0  0
   -0.2259    0.9618   -1.7784 H   0  0  0  0  0  0  0  0  0  0  0  0
    0.4747    2.0684   -0.5868 H   0  0  0  0  0  0  0  0  0  0  0  0
   -1.3557    1.4509    1.0424 H   0  0  0  0  0  0  0  0  0  0  0  0
   -1.9844    1.9598   -0.5233 H   0  0  0  0  0  0  0  0  0  0  0  0
    2.0235    1.5649    0.4801 H   0  0  0  0  0  0  0  0  0  0  0  0
    2.7840   -1.3628    1.0574 H   0  0  0  0  0  0  0  0  0  0  0  0
    2.9320   -0.7747   -1.3165 H   0  0  0  0  0  0  0  0  0  0  0  0
    4.3909    1.6087   -0.2398 H   0  0  0  0  0  0  0  0  0  0  0  0
    3.6505    1.3180   -1.9094 H   0  0  0  0  0  0  0  0  0  0  0  0
    6.2036    1.0403    0.4124 H   0  0  0  0  0  0  0  0  0  0  0  0
    4.9566   -1.9640   -1.5520 H   0  0  0  0  0  0  0  0  0  0  0  0
    4.3755   -2.3571    0.0755 H   0  0  0  0  0  0  0  0  0  0  0  0
    0.6482    1.4299    2.3478 H   0  0  0  0  0  0  0  0  0  0  0  0
    0.8805   -0.4111    2.4938 H   0  0  0  0  0  0  0  0  0  0  0  0
    2.2019    0.7191    2.7862 H   0  0  0  0  0  0  0  0  0  0  0  0
  7  8  1  0
  1  9  1  0
  8  9  1  0
  7 10  1  0
 10 11  1  0
 11 12  1  0
  1 13  1  0
  7 14  1  0
 13 14  1  0
  2 15  1  0
 12 15  1  0
  2 16  1  0
 11 17  1  0
 16 17  1  0
  2 18  1  0
  3 19  1  0
 18 19  1  0
 19 20  1  0
  4 21  1  0
 20 21  1  0
  4 22  1  0
  5 22  1  0
  6 22  1  0
  6 23  1  0
 20 23  1  0
 18 24  1  0
 31 32  1  0
 25 33  1  0
 32 33  1  0
 31 34  1  0
 34 35  1  0
 35 36  1  0
 25 37  1  0
 31 38  1  0
 37 38  1  0
 26 39  1  0
 36 39  1  0
 26 40  1  0
 35 41  1  0
 40 41  1  0
 26 42  1  0
 27 43  1  0
 42 43  1  0
 43 44  1  0
 28 45  1  0
 44 45  1  0
 28 46  1  0
 29 46  1  0
 30 46  1  0
 30 47  1  0
 44 47  1  0
 42 48  1  0
  1 49  1  0
  1 50  1  0
  3 51  1  0
  4 52  1  0
  4 53  1  0
  5 54  1  0
  6 55  1  0
  6 56  1  0
  7 57  1  0
  8 58  1  0
  8 59  1  0
  9 60  1  0
  9 61  1  0
 10 62  1  0
 10 63  1  0
 11 64  1  0
 12 65  1  0
 12 66  1  0
 13 67  1  0
 13 68  1  0
 14 69  1  0
 14 70  1  0
 15 71  1  0
 15 72  1  0
 16 73  1  0
 16 74  1  0
 17 75  1  0
 17 76  1  0
 18 77  1  6
 19 78  1  1
 20 79  1  0
 21 80  1  0
 21 81  1  0
 22 82  1  0
 23 83  1  0
 23 84  1  0
 24 85  1  0
 24 86  1  0
 24 87  1  0
 25 88  1  0
 25 89  1  0
 27 90  1  0
 28 91  1  0
 28 92  1  0
 29 93  1  0
 30 94  1  0
 30 95  1  0
 31 96  1  0
 32 97  1  0
 32 98  1  0
 33 99  1  0
 33100  1  0
 34101  1  0
 34102  1  0
 35103  1  0
 36104  1  0
 36105  1  0
 37106  1  0
 37107  1  0
 38108  1  0
 38109  1  0
 39110  1  0
 39111  1  0
 40112  1  0
 40113  1  0
 41114  1  0
 41115  1  0
 42116  1  6
 43117  1  1
 44118  1  0
 45119  1  0
 45120  1  0
 46121  1  0
 47122  1  0
 47123  1  0
 48124  1  0
 48125  1  0
 48126  1  0
M  END
>  <PDBID>  (1) 
4PE5

>  <PDB ID>  (1) 
4PE5

>  <Generic Name>  (1) 
Ifenprodil

>  <Brand Name>  (1) 
Cerocral#Furezanil#Iburonol#Linbulane#Technis#Vadilex#Vasculodil#Youajyl

>  <DrugBank ID>  (1) 
DB08954

>  <ATC Codes>  (1) 
C04AX28

>  <Ligand ID>  (1) 
QEL

>  <Target Name>  (1) 
Glutamate receptor ionotropic, NMDA 1

>  <UniProt ID>  (1) 
Q05586

>  <PDB ID.1>  (1) 
4PE5

>  <Seq. Identity>  (1) 
98%

$$$$
