PDB_DB01229_06
     RDKit          3D

290302  0  0  0  0  0  0  0  0999 V2000
   -2.6045   -1.3280   -2.2238 O   0  0  0  0  0  0  0  0  0  0  0  0
   -1.8927   -0.1425   -1.7960 C   0  0  1  0  0  0  0  0  0  0  0  0
   -2.7996    0.3515   -0.6781 C   0  0  1  0  0  0  0  0  0  0  0  0
   -2.7954   -0.8096    0.1538 O   0  0  0  0  0  0  0  0  0  0  0  0
   -3.7338   -1.7106    0.1467 C   0  0  0  0  0  0  0  0  0  0  0  0
   -3.0890   -2.9709   -0.1536 O   0  0  0  0  0  0  0  0  0  0  0  0
   -4.3578   -2.0983    1.5017 C   0  0  0  0  0  0  0  0  0  0  0  0
   -5.4115   -3.1575    1.3325 C   0  0  0  0  0  0  0  0  0  0  0  0
   -6.0415   -3.3826    2.6823 C   0  0  0  0  0  0  0  0  0  0  0  0
   -5.0508   -3.5079    3.8003 C   0  0  0  0  0  0  0  0  0  0  0  0
   -3.6768   -3.7609    3.2620 C   0  0  0  0  0  0  0  0  0  0  0  0
   -3.2398   -2.6347    2.3572 C   0  0  0  0  0  0  0  0  0  0  0  0
   -2.3586    1.4407    0.1709 C   0  0  2  0  0  0  0  0  0  0  0  0
   -3.4385    1.7449    1.1583 C   0  0  2  0  0  0  0  0  0  0  0  0
   -4.6801    1.2735    1.0248 O   0  0  0  0  0  0  0  0  0  0  0  0
   -5.6053    1.5362    0.1415 C   0  0  0  0  0  0  0  0  0  0  0  0
   -6.2241    0.4636   -0.4918 O   0  0  0  0  0  0  0  0  0  0  0  0
   -6.7626    2.4228    0.7040 C   0  0  0  0  0  0  0  0  0  0  0  0
   -3.6295    3.0057    1.8807 C   0  0  0  0  0  0  0  0  0  0  0  0
   -3.8184    2.2184    3.0489 O   0  0  0  0  0  0  0  0  0  0  0  0
   -2.7162    1.5759    2.4930 C   0  0  2  0  0  0  0  0  0  0  0  0
   -1.4484    2.3459    2.4386 C   0  0  0  0  0  0  0  0  0  0  0  0
   -0.9070    2.9512    1.2461 C   0  0  2  0  0  0  0  0  0  0  0  0
   -0.5172    4.2951    1.2707 O   0  0  0  0  0  0  0  0  0  0  0  0
   -1.6176    2.6568   -0.1399 C   0  0  2  0  0  0  0  0  0  0  0  0
   -2.4747    3.8675   -0.4631 C   0  0  0  0  0  0  0  0  0  0  0  0
   -0.4795    2.7463   -1.0614 C   0  0  0  0  0  0  0  0  0  0  0  0
    0.7214    2.2908   -0.4231 O   0  0  0  0  0  0  0  0  0  0  0  0
   -0.4186    2.6168   -2.5034 C   0  0  2  0  0  0  0  0  0  0  0  0
   -0.9795    3.6994   -3.1557 O   0  0  0  0  0  0  0  0  0  0  0  0
   -0.2290    4.6058   -3.7765 C   0  0  0  0  0  0  0  0  0  0  0  0
   -0.2656    5.8859   -3.1432 O   0  0  0  0  0  0  0  0  0  0  0  0
   -0.5231    4.8554   -5.2270 C   0  0  0  0  0  0  0  0  0  0  0  0
   -0.5814    1.3664   -3.2504 C   0  0  1  0  0  0  0  0  0  0  0  0
    0.5529    0.3775   -3.2703 C   0  0  0  0  0  0  0  0  0  0  0  0
    0.4872   -0.7594   -2.3270 C   0  0  1  0  0  0  0  0  0  0  0  0
    1.7171   -0.8935   -1.6814 O   0  0  0  0  0  0  0  0  0  0  0  0
    2.2023   -2.2111   -1.7142 C   0  0  0  0  0  0  0  0  0  0  0  0
    3.1775   -2.3194   -2.6997 O   0  0  0  0  0  0  0  0  0  0  0  0
    2.5808   -2.7119   -0.3620 C   0  0  2  0  0  0  0  0  0  0  0  0
    1.3535   -2.4947    0.3945 O   0  0  0  0  0  0  0  0  0  0  0  0
    3.6786   -1.9954    0.3534 C   0  0  1  0  0  0  0  0  0  0  0  0
    3.4952   -2.4558    1.7812 N   0  0  0  0  0  0  0  0  0  0  0  0
    4.4084   -1.8533    2.6807 C   0  0  0  0  0  0  0  0  0  0  0  0
    4.0041   -2.3088    3.9800 O   0  0  0  0  0  0  0  0  0  0  0  0
    4.3485   -0.3584    2.7807 C   0  0  0  0  0  0  0  0  0  0  0  0
    5.3830    0.1333    3.8005 C   0  0  0  0  0  0  0  0  0  0  0  0
    4.9128    1.3905    4.4912 C   0  0  0  0  0  0  0  0  0  0  0  0
    4.1871    2.3257    3.5678 C   0  0  0  0  0  0  0  0  0  0  0  0
    2.9333    1.6728    3.0738 C   0  0  0  0  0  0  0  0  0  0  0  0
    3.0113    0.1613    3.2945 C   0  0  0  0  0  0  0  0  0  0  0  0
    5.0758   -2.4978    0.0778 C   0  0  0  0  0  0  0  0  0  0  0  0
    5.6074   -2.4752   -1.2907 C   0  0  0  0  0  0  0  0  0  0  0  0
    7.1572   -2.6494   -1.1270 C   0  0  0  0  0  0  0  0  0  0  0  0
    7.4237   -3.9861   -0.4765 C   0  0  0  0  0  0  0  0  0  0  0  0
    6.7561   -4.0803    0.8841 C   0  0  0  0  0  0  0  0  0  0  0  0
    5.2737   -3.8887    0.6635 C   0  0  0  0  0  0  0  0  0  0  0  0
   -0.6025   -0.6986   -1.3098 C   0  0  0  0  0  0  0  0  0  0  0  0
    1.9266    1.0511   -3.3211 C   0  0  0  0  0  0  0  0  0  0  0  0
   -1.8774    0.6347   -3.0525 C   0  0  0  0  0  0  0  0  0  0  0  0
   -1.9727   -0.2487   -4.3233 C   0  0  0  0  0  0  0  0  0  0  0  0
   -3.1068    1.4884   -3.2444 C   0  0  0  0  0  0  0  0  0  0  0  0
   -2.6045   -1.3280   -2.2238 O   0  0  0  0  0  0  0  0  0  0  0  0
   -1.8927   -0.1425   -1.7960 C   0  0  1  0  0  0  0  0  0  0  0  0
   -2.7996    0.3515   -0.6781 C   0  0  1  0  0  0  0  0  0  0  0  0
   -2.7954   -0.8096    0.1538 O   0  0  0  0  0  0  0  0  0  0  0  0
   -3.7338   -1.7106    0.1467 C   0  0  0  0  0  0  0  0  0  0  0  0
   -3.0890   -2.9709   -0.1536 O   0  0  0  0  0  0  0  0  0  0  0  0
   -4.3578   -2.0983    1.5017 C   0  0  0  0  0  0  0  0  0  0  0  0
   -5.4115   -3.1575    1.3325 C   0  0  0  0  0  0  0  0  0  0  0  0
   -6.0415   -3.3826    2.6823 C   0  0  0  0  0  0  0  0  0  0  0  0
   -5.0508   -3.5079    3.8003 C   0  0  0  0  0  0  0  0  0  0  0  0
   -3.6768   -3.7609    3.2620 C   0  0  0  0  0  0  0  0  0  0  0  0
   -3.2398   -2.6347    2.3572 C   0  0  0  0  0  0  0  0  0  0  0  0
   -2.3586    1.4407    0.1709 C   0  0  2  0  0  0  0  0  0  0  0  0
   -3.4385    1.7449    1.1583 C   0  0  2  0  0  0  0  0  0  0  0  0
   -4.6801    1.2735    1.0248 O   0  0  0  0  0  0  0  0  0  0  0  0
   -5.6053    1.5362    0.1415 C   0  0  0  0  0  0  0  0  0  0  0  0
   -6.2241    0.4636   -0.4918 O   0  0  0  0  0  0  0  0  0  0  0  0
   -6.7626    2.4228    0.7040 C   0  0  0  0  0  0  0  0  0  0  0  0
   -3.6295    3.0057    1.8807 C   0  0  0  0  0  0  0  0  0  0  0  0
   -3.8184    2.2184    3.0489 O   0  0  0  0  0  0  0  0  0  0  0  0
   -2.7162    1.5759    2.4930 C   0  0  2  0  0  0  0  0  0  0  0  0
   -1.4484    2.3459    2.4386 C   0  0  0  0  0  0  0  0  0  0  0  0
   -0.9070    2.9512    1.2461 C   0  0  2  0  0  0  0  0  0  0  0  0
   -0.5172    4.2951    1.2707 O   0  0  0  0  0  0  0  0  0  0  0  0
   -1.6176    2.6568   -0.1399 C   0  0  2  0  0  0  0  0  0  0  0  0
   -2.4747    3.8675   -0.4631 C   0  0  0  0  0  0  0  0  0  0  0  0
   -0.4795    2.7463   -1.0614 C   0  0  0  0  0  0  0  0  0  0  0  0
    0.7214    2.2908   -0.4231 O   0  0  0  0  0  0  0  0  0  0  0  0
   -0.4186    2.6168   -2.5034 C   0  0  2  0  0  0  0  0  0  0  0  0
   -0.9795    3.6994   -3.1557 O   0  0  0  0  0  0  0  0  0  0  0  0
   -0.2290    4.6058   -3.7765 C   0  0  0  0  0  0  0  0  0  0  0  0
   -0.2656    5.8859   -3.1432 O   0  0  0  0  0  0  0  0  0  0  0  0
   -0.5231    4.8554   -5.2270 C   0  0  0  0  0  0  0  0  0  0  0  0
   -0.5814    1.3664   -3.2504 C   0  0  1  0  0  0  0  0  0  0  0  0
    0.5529    0.3775   -3.2703 C   0  0  0  0  0  0  0  0  0  0  0  0
    0.4872   -0.7594   -2.3270 C   0  0  1  0  0  0  0  0  0  0  0  0
    1.7171   -0.8935   -1.6814 O   0  0  0  0  0  0  0  0  0  0  0  0
    2.2023   -2.2111   -1.7142 C   0  0  0  0  0  0  0  0  0  0  0  0
    3.1775   -2.3194   -2.6997 O   0  0  0  0  0  0  0  0  0  0  0  0
    2.5808   -2.7119   -0.3620 C   0  0  2  0  0  0  0  0  0  0  0  0
    1.3535   -2.4947    0.3945 O   0  0  0  0  0  0  0  0  0  0  0  0
    3.6786   -1.9954    0.3534 C   0  0  1  0  0  0  0  0  0  0  0  0
    3.4952   -2.4558    1.7812 N   0  0  0  0  0  0  0  0  0  0  0  0
    4.4084   -1.8533    2.6807 C   0  0  0  0  0  0  0  0  0  0  0  0
    4.0041   -2.3088    3.9800 O   0  0  0  0  0  0  0  0  0  0  0  0
    4.3485   -0.3584    2.7807 C   0  0  0  0  0  0  0  0  0  0  0  0
    5.3830    0.1333    3.8005 C   0  0  0  0  0  0  0  0  0  0  0  0
    4.9128    1.3905    4.4912 C   0  0  0  0  0  0  0  0  0  0  0  0
    4.1871    2.3257    3.5678 C   0  0  0  0  0  0  0  0  0  0  0  0
    2.9333    1.6728    3.0738 C   0  0  0  0  0  0  0  0  0  0  0  0
    3.0113    0.1613    3.2945 C   0  0  0  0  0  0  0  0  0  0  0  0
    5.0758   -2.4978    0.0778 C   0  0  0  0  0  0  0  0  0  0  0  0
    5.6074   -2.4752   -1.2907 C   0  0  0  0  0  0  0  0  0  0  0  0
    7.1572   -2.6494   -1.1270 C   0  0  0  0  0  0  0  0  0  0  0  0
    7.4237   -3.9861   -0.4765 C   0  0  0  0  0  0  0  0  0  0  0  0
    6.7561   -4.0803    0.8841 C   0  0  0  0  0  0  0  0  0  0  0  0
    5.2737   -3.8887    0.6635 C   0  0  0  0  0  0  0  0  0  0  0  0
   -0.6025   -0.6986   -1.3098 C   0  0  0  0  0  0  0  0  0  0  0  0
    1.9266    1.0511   -3.3211 C   0  0  0  0  0  0  0  0  0  0  0  0
   -1.8774    0.6347   -3.0525 C   0  0  0  0  0  0  0  0  0  0  0  0
   -1.9727   -0.2487   -4.3233 C   0  0  0  0  0  0  0  0  0  0  0  0
   -3.1068    1.4884   -3.2444 C   0  0  0  0  0  0  0  0  0  0  0  0
   -1.9852   -1.9467   -2.6358 H   0  0  0  0  0  0  0  0  0  0  0  0
   -3.7738    0.3451   -1.1521 H   0  0  0  0  0  0  0  0  0  0  0  0
   -4.6163   -1.6197   -0.5306 H   0  0  0  0  0  0  0  0  0  0  0  0
   -3.8001   -3.5278   -0.5524 H   0  0  0  0  0  0  0  0  0  0  0  0
   -4.7958   -1.2547    2.0299 H   0  0  0  0  0  0  0  0  0  0  0  0
   -6.1771   -2.8645    0.6169 H   0  0  0  0  0  0  0  0  0  0  0  0
   -4.9367   -4.1384    1.0217 H   0  0  0  0  0  0  0  0  0  0  0  0
   -6.7306   -4.2516    2.6869 H   0  0  0  0  0  0  0  0  0  0  0  0
   -6.6769   -2.4747    2.9029 H   0  0  0  0  0  0  0  0  0  0  0  0
   -5.3225   -4.3460    4.4862 H   0  0  0  0  0  0  0  0  0  0  0  0
   -5.0321   -2.6026    4.4549 H   0  0  0  0  0  0  0  0  0  0  0  0
   -3.6033   -4.7583    2.7829 H   0  0  0  0  0  0  0  0  0  0  0  0
   -2.9816   -3.7594    4.1420 H   0  0  0  0  0  0  0  0  0  0  0  0
   -2.8369   -1.8338    3.0344 H   0  0  0  0  0  0  0  0  0  0  0  0
   -2.3694   -2.9889    1.7886 H   0  0  0  0  0  0  0  0  0  0  0  0
   -1.4809    0.8696    0.7173 H   0  0  0  0  0  0  0  0  0  0  0  0
   -5.2168    2.1892   -0.6626 H   0  0  0  0  0  0  0  0  0  0  0  0
   -6.6508   -0.0909    0.2021 H   0  0  0  0  0  0  0  0  0  0  0  0
   -6.6075    3.4748    0.4253 H   0  0  0  0  0  0  0  0  0  0  0  0
   -6.8273    2.2410    1.7930 H   0  0  0  0  0  0  0  0  0  0  0  0
   -7.7333    2.1122    0.2679 H   0  0  0  0  0  0  0  0  0  0  0  0
   -2.9626    3.7598    2.1460 H   0  0  0  0  0  0  0  0  0  0  0  0
   -4.6408    3.5114    1.7702 H   0  0  0  0  0  0  0  0  0  0  0  0
   -2.7192    0.5254    2.7654 H   0  0  0  0  0  0  0  0  0  0  0  0
   -1.4722    3.1284    3.2670 H   0  0  0  0  0  0  0  0  0  0  0  0
   -0.7244    1.6207    2.9734 H   0  0  0  0  0  0  0  0  0  0  0  0
    0.1448    2.4964    1.1991 H   0  0  0  0  0  0  0  0  0  0  0  0
   -0.5188    4.5388    2.2532 H   0  0  0  0  0  0  0  0  0  0  0  0
   -3.5309    3.8174   -0.3036 H   0  0  0  0  0  0  0  0  0  0  0  0
   -2.3934    4.0267   -1.5544 H   0  0  0  0  0  0  0  0  0  0  0  0
   -2.0841    4.7201    0.1279 H   0  0  0  0  0  0  0  0  0  0  0  0
   -0.2209    3.8836   -0.9636 H   0  0  0  0  0  0  0  0  0  0  0  0
    1.4740    2.8027   -0.7658 H   0  0  0  0  0  0  0  0  0  0  0  0
    0.7020    2.8272   -2.7099 H   0  0  0  0  0  0  0  0  0  0  0  0
    0.8425    4.3355   -3.7017 H   0  0  0  0  0  0  0  0  0  0  0  0
   -1.2352    5.9773   -2.8699 H   0  0  0  0  0  0  0  0  0  0  0  0
   -0.0491    4.1614   -5.9125 H   0  0  0  0  0  0  0  0  0  0  0  0
   -0.1292    5.8804   -5.4730 H   0  0  0  0  0  0  0  0  0  0  0  0
   -1.6366    4.9444   -5.4041 H   0  0  0  0  0  0  0  0  0  0  0  0
   -0.6519    1.7268   -4.3324 H   0  0  0  0  0  0  0  0  0  0  0  0
    0.5177   -0.1207   -4.2997 H   0  0  0  0  0  0  0  0  0  0  0  0
    0.3351   -1.7777   -2.8146 H   0  0  0  0  0  0  0  0  0  0  0  0
    1.3683   -2.8298   -2.1173 H   0  0  0  0  0  0  0  0  0  0  0  0
    2.8597   -2.6022   -3.5727 H   0  0  0  0  0  0  0  0  0  0  0  0
    2.7404   -3.7930   -0.2856 H   0  0  0  0  0  0  0  0  0  0  0  0
    1.3448   -1.5554    0.6605 H   0  0  0  0  0  0  0  0  0  0  0  0
    3.6598   -0.9300    0.3823 H   0  0  0  0  0  0  0  0  0  0  0  0
    2.5329   -2.2975    2.0919 H   0  0  0  0  0  0  0  0  0  0  0  0
    5.4551   -2.1473    2.6194 H   0  0  0  0  0  0  0  0  0  0  0  0
    4.6578   -2.8986    4.3833 H   0  0  0  0  0  0  0  0  0  0  0  0
    4.5852    0.1170    1.8301 H   0  0  0  0  0  0  0  0  0  0  0  0
    6.3449    0.3268    3.3107 H   0  0  0  0  0  0  0  0  0  0  0  0
    5.5058   -0.6357    4.6102 H   0  0  0  0  0  0  0  0  0  0  0  0
    4.3582    1.2215    5.4177 H   0  0  0  0  0  0  0  0  0  0  0  0
    5.8522    1.9295    4.7878 H   0  0  0  0  0  0  0  0  0  0  0  0
    3.9372    3.2879    4.0620 H   0  0  0  0  0  0  0  0  0  0  0  0
    4.8097    2.6023    2.6889 H   0  0  0  0  0  0  0  0  0  0  0  0
    2.7350    1.9070    2.0065 H   0  0  0  0  0  0  0  0  0  0  0  0
    2.0808    2.0401    3.6551 H   0  0  0  0  0  0  0  0  0  0  0  0
    2.1625   -0.3402    2.8204 H   0  0  0  0  0  0  0  0  0  0  0  0
    2.9059    0.0320    4.4017 H   0  0  0  0  0  0  0  0  0  0  0  0
    5.7628   -1.8222    0.6906 H   0  0  0  0  0  0  0  0  0  0  0  0
    5.3649   -3.4058   -1.8879 H   0  0  0  0  0  0  0  0  0  0  0  0
    5.5386   -1.5521   -1.8606 H   0  0  0  0  0  0  0  0  0  0  0  0
    7.6545   -2.6128   -2.0893 H   0  0  0  0  0  0  0  0  0  0  0  0
    7.5331   -1.8543   -0.4632 H   0  0  0  0  0  0  0  0  0  0  0  0
    8.5143   -4.0667   -0.3129 H   0  0  0  0  0  0  0  0  0  0  0  0
    7.1233   -4.8450   -1.0964 H   0  0  0  0  0  0  0  0  0  0  0  0
    7.2213   -3.3391    1.5392 H   0  0  0  0  0  0  0  0  0  0  0  0
    6.9940   -5.0955    1.2658 H   0  0  0  0  0  0  0  0  0  0  0  0
    4.6438   -4.1077    1.5256 H   0  0  0  0  0  0  0  0  0  0  0  0
    4.9984   -4.6481   -0.1277 H   0  0  0  0  0  0  0  0  0  0  0  0
   -0.7674   -1.7578   -0.9306 H   0  0  0  0  0  0  0  0  0  0  0  0
   -0.2467   -0.1697   -0.4196 H   0  0  0  0  0  0  0  0  0  0  0  0
    2.6443    0.3019   -3.7818 H   0  0  0  0  0  0  0  0  0  0  0  0
    2.3545    1.2763   -2.3546 H   0  0  0  0  0  0  0  0  0  0  0  0
    1.8857    1.8662   -4.0577 H   0  0  0  0  0  0  0  0  0  0  0  0
   -1.2808   -1.0588   -4.3552 H   0  0  0  0  0  0  0  0  0  0  0  0
   -1.7698    0.4656   -5.1774 H   0  0  0  0  0  0  0  0  0  0  0  0
   -3.0320   -0.6170   -4.4378 H   0  0  0  0  0  0  0  0  0  0  0  0
   -2.9542    2.1309   -4.1333 H   0  0  0  0  0  0  0  0  0  0  0  0
   -3.4466    2.0378   -2.3835 H   0  0  0  0  0  0  0  0  0  0  0  0
   -3.9726    0.8174   -3.5348 H   0  0  0  0  0  0  0  0  0  0  0  0
   -1.9852   -1.9467   -2.6358 H   0  0  0  0  0  0  0  0  0  0  0  0
   -3.7738    0.3451   -1.1521 H   0  0  0  0  0  0  0  0  0  0  0  0
   -4.6163   -1.6197   -0.5306 H   0  0  0  0  0  0  0  0  0  0  0  0
   -3.8001   -3.5278   -0.5524 H   0  0  0  0  0  0  0  0  0  0  0  0
   -4.7958   -1.2547    2.0299 H   0  0  0  0  0  0  0  0  0  0  0  0
   -6.1771   -2.8645    0.6169 H   0  0  0  0  0  0  0  0  0  0  0  0
   -4.9367   -4.1384    1.0217 H   0  0  0  0  0  0  0  0  0  0  0  0
   -6.7306   -4.2516    2.6869 H   0  0  0  0  0  0  0  0  0  0  0  0
   -6.6769   -2.4747    2.9029 H   0  0  0  0  0  0  0  0  0  0  0  0
   -5.3225   -4.3460    4.4862 H   0  0  0  0  0  0  0  0  0  0  0  0
   -5.0321   -2.6026    4.4549 H   0  0  0  0  0  0  0  0  0  0  0  0
   -3.6033   -4.7583    2.7829 H   0  0  0  0  0  0  0  0  0  0  0  0
   -2.9816   -3.7594    4.1420 H   0  0  0  0  0  0  0  0  0  0  0  0
   -2.8369   -1.8338    3.0344 H   0  0  0  0  0  0  0  0  0  0  0  0
   -2.3694   -2.9889    1.7886 H   0  0  0  0  0  0  0  0  0  0  0  0
   -1.4809    0.8696    0.7173 H   0  0  0  0  0  0  0  0  0  0  0  0
   -5.2168    2.1892   -0.6626 H   0  0  0  0  0  0  0  0  0  0  0  0
   -6.6508   -0.0909    0.2021 H   0  0  0  0  0  0  0  0  0  0  0  0
   -6.6075    3.4748    0.4253 H   0  0  0  0  0  0  0  0  0  0  0  0
   -6.8273    2.2410    1.7930 H   0  0  0  0  0  0  0  0  0  0  0  0
   -7.7333    2.1122    0.2679 H   0  0  0  0  0  0  0  0  0  0  0  0
   -2.9626    3.7598    2.1460 H   0  0  0  0  0  0  0  0  0  0  0  0
   -4.6408    3.5114    1.7702 H   0  0  0  0  0  0  0  0  0  0  0  0
   -2.7192    0.5254    2.7654 H   0  0  0  0  0  0  0  0  0  0  0  0
   -1.4722    3.1284    3.2670 H   0  0  0  0  0  0  0  0  0  0  0  0
   -0.7244    1.6207    2.9734 H   0  0  0  0  0  0  0  0  0  0  0  0
    0.1448    2.4964    1.1991 H   0  0  0  0  0  0  0  0  0  0  0  0
   -0.5188    4.5388    2.2532 H   0  0  0  0  0  0  0  0  0  0  0  0
   -3.5309    3.8174   -0.3036 H   0  0  0  0  0  0  0  0  0  0  0  0
   -2.3934    4.0267   -1.5544 H   0  0  0  0  0  0  0  0  0  0  0  0
   -2.0841    4.7201    0.1279 H   0  0  0  0  0  0  0  0  0  0  0  0
   -0.2209    3.8836   -0.9636 H   0  0  0  0  0  0  0  0  0  0  0  0
    1.4740    2.8027   -0.7658 H   0  0  0  0  0  0  0  0  0  0  0  0
    0.7020    2.8272   -2.7099 H   0  0  0  0  0  0  0  0  0  0  0  0
    0.8425    4.3355   -3.7017 H   0  0  0  0  0  0  0  0  0  0  0  0
   -1.2352    5.9773   -2.8699 H   0  0  0  0  0  0  0  0  0  0  0  0
   -0.0491    4.1614   -5.9125 H   0  0  0  0  0  0  0  0  0  0  0  0
   -0.1292    5.8804   -5.4730 H   0  0  0  0  0  0  0  0  0  0  0  0
   -1.6366    4.9444   -5.4041 H   0  0  0  0  0  0  0  0  0  0  0  0
   -0.6519    1.7268   -4.3324 H   0  0  0  0  0  0  0  0  0  0  0  0
    0.5177   -0.1207   -4.2997 H   0  0  0  0  0  0  0  0  0  0  0  0
    0.3351   -1.7777   -2.8146 H   0  0  0  0  0  0  0  0  0  0  0  0
    1.3683   -2.8298   -2.1173 H   0  0  0  0  0  0  0  0  0  0  0  0
    2.8597   -2.6022   -3.5727 H   0  0  0  0  0  0  0  0  0  0  0  0
    2.7404   -3.7930   -0.2856 H   0  0  0  0  0  0  0  0  0  0  0  0
    1.3448   -1.5554    0.6605 H   0  0  0  0  0  0  0  0  0  0  0  0
    3.6598   -0.9300    0.3823 H   0  0  0  0  0  0  0  0  0  0  0  0
    2.5329   -2.2975    2.0919 H   0  0  0  0  0  0  0  0  0  0  0  0
    5.4551   -2.1473    2.6194 H   0  0  0  0  0  0  0  0  0  0  0  0
    4.6578   -2.8986    4.3833 H   0  0  0  0  0  0  0  0  0  0  0  0
    4.5852    0.1170    1.8301 H   0  0  0  0  0  0  0  0  0  0  0  0
    6.3449    0.3268    3.3107 H   0  0  0  0  0  0  0  0  0  0  0  0
    5.5058   -0.6357    4.6102 H   0  0  0  0  0  0  0  0  0  0  0  0
    4.3582    1.2215    5.4177 H   0  0  0  0  0  0  0  0  0  0  0  0
    5.8522    1.9295    4.7878 H   0  0  0  0  0  0  0  0  0  0  0  0
    3.9372    3.2879    4.0620 H   0  0  0  0  0  0  0  0  0  0  0  0
    4.8097    2.6023    2.6889 H   0  0  0  0  0  0  0  0  0  0  0  0
    2.7350    1.9070    2.0065 H   0  0  0  0  0  0  0  0  0  0  0  0
    2.0808    2.0401    3.6551 H   0  0  0  0  0  0  0  0  0  0  0  0
    2.1625   -0.3402    2.8204 H   0  0  0  0  0  0  0  0  0  0  0  0
    2.9059    0.0320    4.4017 H   0  0  0  0  0  0  0  0  0  0  0  0
    5.7628   -1.8222    0.6906 H   0  0  0  0  0  0  0  0  0  0  0  0
    5.3649   -3.4058   -1.8879 H   0  0  0  0  0  0  0  0  0  0  0  0
    5.5386   -1.5521   -1.8606 H   0  0  0  0  0  0  0  0  0  0  0  0
    7.6545   -2.6128   -2.0893 H   0  0  0  0  0  0  0  0  0  0  0  0
    7.5331   -1.8543   -0.4632 H   0  0  0  0  0  0  0  0  0  0  0  0
    8.5143   -4.0667   -0.3129 H   0  0  0  0  0  0  0  0  0  0  0  0
    7.1233   -4.8450   -1.0964 H   0  0  0  0  0  0  0  0  0  0  0  0
    7.2213   -3.3391    1.5392 H   0  0  0  0  0  0  0  0  0  0  0  0
    6.9940   -5.0955    1.2658 H   0  0  0  0  0  0  0  0  0  0  0  0
    4.6438   -4.1077    1.5256 H   0  0  0  0  0  0  0  0  0  0  0  0
    4.9984   -4.6481   -0.1277 H   0  0  0  0  0  0  0  0  0  0  0  0
   -0.7674   -1.7578   -0.9306 H   0  0  0  0  0  0  0  0  0  0  0  0
   -0.2467   -0.1697   -0.4196 H   0  0  0  0  0  0  0  0  0  0  0  0
    2.6443    0.3019   -3.7818 H   0  0  0  0  0  0  0  0  0  0  0  0
    2.3545    1.2763   -2.3546 H   0  0  0  0  0  0  0  0  0  0  0  0
    1.8857    1.8662   -4.0577 H   0  0  0  0  0  0  0  0  0  0  0  0
   -1.2808   -1.0588   -4.3552 H   0  0  0  0  0  0  0  0  0  0  0  0
   -1.7698    0.4656   -5.1774 H   0  0  0  0  0  0  0  0  0  0  0  0
   -3.0320   -0.6170   -4.4378 H   0  0  0  0  0  0  0  0  0  0  0  0
   -2.9542    2.1309   -4.1333 H   0  0  0  0  0  0  0  0  0  0  0  0
   -3.4466    2.0378   -2.3835 H   0  0  0  0  0  0  0  0  0  0  0  0
   -3.9726    0.8174   -3.5348 H   0  0  0  0  0  0  0  0  0  0  0  0
  2  1  1  6
  2  3  1  0
  3  4  1  0
  4  5  1  0
  5  6  1  0
  5  7  1  0
  7  8  1  0
  8  9  1  0
  9 10  1  0
 10 11  1  0
  7 12  1  0
 11 12  1  0
  3 13  1  0
 13 14  1  0
 14 15  1  1
 15 16  1  0
 16 17  1  0
 16 18  1  0
 14 19  1  0
 19 20  1  0
 14 21  1  0
 20 21  1  0
 21 22  1  0
 22 23  1  0
 23 24  1  0
 13 25  1  0
 23 25  1  0
 25 26  1  6
 25 27  1  0
 27 28  1  0
 27 29  1  0
 29 30  1  0
 30 31  1  0
 31 32  1  0
 31 33  1  0
 29 34  1  0
 34 35  1  0
 35 36  1  0
 36 37  1  0
 37 38  1  0
 38 39  1  0
 38 40  1  0
 40 41  1  0
 40 42  1  0
 42 43  1  0
 43 44  1  0
 44 45  1  0
 44 46  1  0
 46 47  1  0
 47 48  1  0
 48 49  1  0
 49 50  1  0
 46 51  1  0
 50 51  1  0
 42 52  1  0
 52 53  1  0
 53 54  1  0
 54 55  1  0
 55 56  1  0
 52 57  1  0
 56 57  1  0
  2 58  1  0
 36 58  1  0
 35 59  1  0
  2 60  1  0
 34 60  1  0
 60 61  1  0
 60 62  1  0
 64 63  1  6
 64 65  1  0
 65 66  1  0
 66 67  1  0
 67 68  1  0
 67 69  1  0
 69 70  1  0
 70 71  1  0
 71 72  1  0
 72 73  1  0
 69 74  1  0
 73 74  1  0
 65 75  1  0
 75 76  1  0
 76 77  1  1
 77 78  1  0
 78 79  1  0
 78 80  1  0
 76 81  1  0
 81 82  1  0
 76 83  1  0
 82 83  1  0
 83 84  1  0
 84 85  1  0
 85 86  1  0
 75 87  1  0
 85 87  1  0
 87 88  1  6
 87 89  1  0
 89 90  1  0
 89 91  1  0
 91 92  1  0
 92 93  1  0
 93 94  1  0
 93 95  1  0
 91 96  1  0
 96 97  1  0
 97 98  1  0
 98 99  1  0
 99100  1  0
100101  1  0
100102  1  0
102103  1  0
102104  1  0
104105  1  0
105106  1  0
106107  1  0
106108  1  0
108109  1  0
109110  1  0
110111  1  0
111112  1  0
108113  1  0
112113  1  0
104114  1  0
114115  1  0
115116  1  0
116117  1  0
117118  1  0
114119  1  0
118119  1  0
 64120  1  0
 98120  1  0
 97121  1  0
 64122  1  0
 96122  1  0
122123  1  0
122124  1  0
  1125  1  0
  3126  1  6
  5127  1  0
  6128  1  0
  7129  1  0
  8130  1  0
  8131  1  0
  9132  1  0
  9133  1  0
 10134  1  0
 10135  1  0
 11136  1  0
 11137  1  0
 12138  1  0
 12139  1  0
 13140  1  1
 16141  1  0
 17142  1  0
 18143  1  0
 18144  1  0
 18145  1  0
 19146  1  0
 19147  1  0
 21148  1  1
 22149  1  0
 22150  1  0
 23151  1  6
 24152  1  0
 26153  1  0
 26154  1  0
 26155  1  0
 27156  1  0
 28157  1  0
 29158  1  6
 31159  1  0
 32160  1  0
 33161  1  0
 33162  1  0
 33163  1  0
 34164  1  6
 35165  1  0
 36166  1  6
 38167  1  0
 39168  1  0
 40169  1  6
 41170  1  0
 42171  1  1
 43172  1  0
 44173  1  0
 45174  1  0
 46175  1  0
 47176  1  0
 47177  1  0
 48178  1  0
 48179  1  0
 49180  1  0
 49181  1  0
 50182  1  0
 50183  1  0
 51184  1  0
 51185  1  0
 52186  1  0
 53187  1  0
 53188  1  0
 54189  1  0
 54190  1  0
 55191  1  0
 55192  1  0
 56193  1  0
 56194  1  0
 57195  1  0
 57196  1  0
 58197  1  0
 58198  1  0
 59199  1  0
 59200  1  0
 59201  1  0
 61202  1  0
 61203  1  0
 61204  1  0
 62205  1  0
 62206  1  0
 62207  1  0
 63208  1  0
 65209  1  6
 67210  1  0
 68211  1  0
 69212  1  0
 70213  1  0
 70214  1  0
 71215  1  0
 71216  1  0
 72217  1  0
 72218  1  0
 73219  1  0
 73220  1  0
 74221  1  0
 74222  1  0
 75223  1  1
 78224  1  0
 79225  1  0
 80226  1  0
 80227  1  0
 80228  1  0
 81229  1  0
 81230  1  0
 83231  1  1
 84232  1  0
 84233  1  0
 85234  1  6
 86235  1  0
 88236  1  0
 88237  1  0
 88238  1  0
 89239  1  0
 90240  1  0
 91241  1  6
 93242  1  0
 94243  1  0
 95244  1  0
 95245  1  0
 95246  1  0
 96247  1  6
 97248  1  0
 98249  1  6
100250  1  0
101251  1  0
102252  1  6
103253  1  0
104254  1  1
105255  1  0
106256  1  0
107257  1  0
108258  1  0
109259  1  0
109260  1  0
110261  1  0
110262  1  0
111263  1  0
111264  1  0
112265  1  0
112266  1  0
113267  1  0
113268  1  0
114269  1  0
115270  1  0
115271  1  0
116272  1  0
116273  1  0
117274  1  0
117275  1  0
118276  1  0
118277  1  0
119278  1  0
119279  1  0
120280  1  0
120281  1  0
121282  1  0
121283  1  0
121284  1  0
123285  1  0
123286  1  0
123287  1  0
124288  1  0
124289  1  0
124290  1  0
M  END
>  <PDBID>  (1) 
5M50

>  <PDB ID>  (1) 
5M50

>  <Generic Name>  (1) 
Paclitaxel

>  <Brand Name>  (1) 
Abraxane#Abraxane for Injectable Suspension#Aj-paclitaxel#Apo-paclitaxel Injectable#Paclitaxel#Paclitaxel Injection#Paclitaxel Injection USP#Paclitaxel Injection, USP#Paclitaxel Paclitaxel#Paclitaxel for Injection#Paclitaxel for Injection USP#Paxene#Taxol#Teva-paclitaxel for Injection#Onxol#Paxceed

>  <DrugBank ID>  (1) 
DB01229

>  <ATC Codes>  (1) 
L01CD01

>  <Ligand ID>  (1) 
TA1

>  <Target Name>  (1) 
Tubulin beta-1 chain

>  <UniProt ID>  (1) 
Q9H4B7

>  <PDB ID.1>  (1) 
5M50

>  <Seq. Identity>  (1) 
78%

$$$$
