PDB_DB06335_01
     RDKit          3D

106114  0  0  0  0  0  0  0  0999 V2000
   -1.2351    0.1489   -0.1483 C   0  0  1  0  0  0  0  0  0  0  0  0
    0.2413    0.1492   -0.4809 C   0  0  1  0  0  0  0  0  0  0  0  0
   -1.8661    1.1196   -1.1264 C   0  0  0  0  0  0  0  0  0  0  0  0
   -3.3654    1.1867   -0.9584 C   0  0  1  0  0  0  0  0  0  0  0  0
   -3.3384   -1.1261   -0.1855 C   0  0  2  0  0  0  0  0  0  0  0  0
   -3.0207    0.7266    1.4087 C   0  0  1  0  0  0  0  0  0  0  0  0
   -3.9218   -0.1876   -1.2005 C   0  0  0  0  0  0  0  0  0  0  0  0
   -3.6517    1.6917    0.4341 C   0  0  0  0  0  0  0  0  0  0  0  0
   -3.6776   -0.6258    1.1932 C   0  0  0  0  0  0  0  0  0  0  0  0
    4.5067   -0.9972   -0.8317 C   0  0  1  0  0  0  0  0  0  0  0  0
    4.0096    0.1636   -1.6065 C   0  0  0  0  0  0  0  0  0  0  0  0
    4.6825   -1.0033    0.6453 C   0  0  0  0  0  0  0  0  0  0  0  0
    3.2613    0.2412    2.2938 C   0  0  0  0  0  0  0  0  0  0  0  0
    3.6033    1.5360    1.8091 N   0  0  0  0  0  0  0  0  0  0  0  0
   -1.8356   -1.2322   -0.2927 C   0  0  0  0  0  0  0  0  0  0  0  0
   -1.5168    0.6442    1.2327 C   0  0  0  0  0  0  0  0  0  0  0  0
    1.0555   -0.7416    0.3669 C   0  0  0  0  0  0  0  0  0  0  0  0
    0.3842   -0.0333   -1.8767 N   0  0  0  0  0  0  0  0  0  0  0  0
    2.4369   -0.5146    0.1903 N   0  0  0  0  0  0  0  0  0  0  0  0
    0.7902   -2.1011    0.1670 O   0  0  0  0  0  0  0  0  0  0  0  0
   -3.8393    2.0623   -1.9318 O   0  0  0  0  0  0  0  0  0  0  0  0
    3.0472   -0.7840   -1.0478 C   0  0  2  0  0  0  0  0  0  0  0  0
    3.3120   -0.8425    1.2562 C   0  0  1  0  0  0  0  0  0  0  0  0
   -1.2351    0.1489   -0.1483 C   0  0  1  0  0  0  0  0  0  0  0  0
    0.2413    0.1492   -0.4809 C   0  0  1  0  0  0  0  0  0  0  0  0
   -1.8661    1.1196   -1.1264 C   0  0  0  0  0  0  0  0  0  0  0  0
   -3.3654    1.1867   -0.9584 C   0  0  1  0  0  0  0  0  0  0  0  0
   -3.3384   -1.1261   -0.1855 C   0  0  2  0  0  0  0  0  0  0  0  0
   -3.0207    0.7266    1.4087 C   0  0  1  0  0  0  0  0  0  0  0  0
   -3.9218   -0.1876   -1.2005 C   0  0  0  0  0  0  0  0  0  0  0  0
   -3.6517    1.6917    0.4341 C   0  0  0  0  0  0  0  0  0  0  0  0
   -3.6776   -0.6258    1.1932 C   0  0  0  0  0  0  0  0  0  0  0  0
    4.5067   -0.9972   -0.8317 C   0  0  1  0  0  0  0  0  0  0  0  0
    4.0096    0.1636   -1.6065 C   0  0  0  0  0  0  0  0  0  0  0  0
    4.6825   -1.0033    0.6453 C   0  0  0  0  0  0  0  0  0  0  0  0
    3.2613    0.2412    2.2938 C   0  0  0  0  0  0  0  0  0  0  0  0
    3.6033    1.5360    1.8091 N   0  0  0  0  0  0  0  0  0  0  0  0
   -1.8356   -1.2322   -0.2927 C   0  0  0  0  0  0  0  0  0  0  0  0
   -1.5168    0.6442    1.2327 C   0  0  0  0  0  0  0  0  0  0  0  0
    1.0555   -0.7416    0.3669 C   0  0  0  0  0  0  0  0  0  0  0  0
    0.3842   -0.0333   -1.8767 N   0  0  0  0  0  0  0  0  0  0  0  0
    2.4369   -0.5146    0.1903 N   0  0  0  0  0  0  0  0  0  0  0  0
    0.7902   -2.1011    0.1670 O   0  0  0  0  0  0  0  0  0  0  0  0
   -3.8393    2.0623   -1.9318 O   0  0  0  0  0  0  0  0  0  0  0  0
    3.0472   -0.7840   -1.0478 C   0  0  2  0  0  0  0  0  0  0  0  0
    3.3120   -0.8425    1.2562 C   0  0  1  0  0  0  0  0  0  0  0  0
    0.5796    1.2052   -0.2496 H   0  0  0  0  0  0  0  0  0  0  0  0
   -1.4245    2.1253   -0.8837 H   0  0  0  0  0  0  0  0  0  0  0  0
   -1.5733    0.8026   -2.1360 H   0  0  0  0  0  0  0  0  0  0  0  0
   -3.7944   -2.1257   -0.3471 H   0  0  0  0  0  0  0  0  0  0  0  0
   -3.2888    1.0627    2.4335 H   0  0  0  0  0  0  0  0  0  0  0  0
   -3.6557   -0.4712   -2.2386 H   0  0  0  0  0  0  0  0  0  0  0  0
   -5.0127   -0.1685   -1.0684 H   0  0  0  0  0  0  0  0  0  0  0  0
   -3.1810    2.6742    0.5322 H   0  0  0  0  0  0  0  0  0  0  0  0
   -4.7422    1.6918    0.6354 H   0  0  0  0  0  0  0  0  0  0  0  0
   -3.2951   -1.3320    1.9536 H   0  0  0  0  0  0  0  0  0  0  0  0
   -4.7738   -0.4515    1.3102 H   0  0  0  0  0  0  0  0  0  0  0  0
    4.9269   -1.8899   -1.3855 H   0  0  0  0  0  0  0  0  0  0  0  0
    4.2789    0.1820   -2.6769 H   0  0  0  0  0  0  0  0  0  0  0  0
    4.1282    1.1908   -1.1455 H   0  0  0  0  0  0  0  0  0  0  0  0
    5.4188   -0.2678    1.0268 H   0  0  0  0  0  0  0  0  0  0  0  0
    5.0706   -1.9975    0.9550 H   0  0  0  0  0  0  0  0  0  0  0  0
    2.4046    0.1859    2.9586 H   0  0  0  0  0  0  0  0  0  0  0  0
    3.2819    2.2304    2.5409 H   0  0  0  0  0  0  0  0  0  0  0  0
    4.6292    1.7048    1.7154 H   0  0  0  0  0  0  0  0  0  0  0  0
   -1.5066   -1.7460   -1.2134 H   0  0  0  0  0  0  0  0  0  0  0  0
   -1.5125   -1.8327    0.5941 H   0  0  0  0  0  0  0  0  0  0  0  0
   -1.1385   -0.0212    2.0276 H   0  0  0  0  0  0  0  0  0  0  0  0
   -1.1236    1.6623    1.4249 H   0  0  0  0  0  0  0  0  0  0  0  0
    0.8322   -0.5261    1.4490 H   0  0  0  0  0  0  0  0  0  0  0  0
    1.1991    0.4341   -2.2425 H   0  0  0  0  0  0  0  0  0  0  0  0
    0.2321   -1.0176   -2.1359 H   0  0  0  0  0  0  0  0  0  0  0  0
    1.2066   -2.5746    0.9488 H   0  0  0  0  0  0  0  0  0  0  0  0
   -3.7214    3.0178   -1.6839 H   0  0  0  0  0  0  0  0  0  0  0  0
    2.5249   -1.4533   -1.7991 H   0  0  0  0  0  0  0  0  0  0  0  0
    2.9684   -1.7750    1.7390 H   0  0  0  0  0  0  0  0  0  0  0  0
    0.5796    1.2052   -0.2496 H   0  0  0  0  0  0  0  0  0  0  0  0
   -1.4245    2.1253   -0.8837 H   0  0  0  0  0  0  0  0  0  0  0  0
   -1.5733    0.8026   -2.1360 H   0  0  0  0  0  0  0  0  0  0  0  0
   -3.7944   -2.1257   -0.3471 H   0  0  0  0  0  0  0  0  0  0  0  0
   -3.2888    1.0627    2.4335 H   0  0  0  0  0  0  0  0  0  0  0  0
   -3.6557   -0.4712   -2.2386 H   0  0  0  0  0  0  0  0  0  0  0  0
   -5.0127   -0.1685   -1.0684 H   0  0  0  0  0  0  0  0  0  0  0  0
   -3.1810    2.6742    0.5322 H   0  0  0  0  0  0  0  0  0  0  0  0
   -4.7422    1.6918    0.6354 H   0  0  0  0  0  0  0  0  0  0  0  0
   -3.2951   -1.3320    1.9536 H   0  0  0  0  0  0  0  0  0  0  0  0
   -4.7738   -0.4515    1.3102 H   0  0  0  0  0  0  0  0  0  0  0  0
    4.9269   -1.8899   -1.3855 H   0  0  0  0  0  0  0  0  0  0  0  0
    4.2789    0.1820   -2.6769 H   0  0  0  0  0  0  0  0  0  0  0  0
    4.1282    1.1908   -1.1455 H   0  0  0  0  0  0  0  0  0  0  0  0
    5.4188   -0.2678    1.0268 H   0  0  0  0  0  0  0  0  0  0  0  0
    5.0706   -1.9975    0.9550 H   0  0  0  0  0  0  0  0  0  0  0  0
    2.4046    0.1859    2.9586 H   0  0  0  0  0  0  0  0  0  0  0  0
    3.2819    2.2304    2.5409 H   0  0  0  0  0  0  0  0  0  0  0  0
    4.6292    1.7048    1.7154 H   0  0  0  0  0  0  0  0  0  0  0  0
   -1.5066   -1.7460   -1.2134 H   0  0  0  0  0  0  0  0  0  0  0  0
   -1.5125   -1.8327    0.5941 H   0  0  0  0  0  0  0  0  0  0  0  0
   -1.1385   -0.0212    2.0276 H   0  0  0  0  0  0  0  0  0  0  0  0
   -1.1236    1.6623    1.4249 H   0  0  0  0  0  0  0  0  0  0  0  0
    0.8322   -0.5261    1.4490 H   0  0  0  0  0  0  0  0  0  0  0  0
    1.1991    0.4341   -2.2425 H   0  0  0  0  0  0  0  0  0  0  0  0
    0.2321   -1.0176   -2.1359 H   0  0  0  0  0  0  0  0  0  0  0  0
    1.2066   -2.5746    0.9488 H   0  0  0  0  0  0  0  0  0  0  0  0
   -3.7214    3.0178   -1.6839 H   0  0  0  0  0  0  0  0  0  0  0  0
    2.5249   -1.4533   -1.7991 H   0  0  0  0  0  0  0  0  0  0  0  0
    2.9684   -1.7750    1.7390 H   0  0  0  0  0  0  0  0  0  0  0  0
  1  2  1  0
  1  3  1  0
  3  4  1  0
  4  7  1  0
  5  7  1  0
  4  8  1  0
  6  8  1  0
  5  9  1  0
  6  9  1  0
 10 11  1  0
 10 12  1  0
 13 14  1  0
  1 15  1  1
  5 15  1  0
  1 16  1  0
  6 16  1  0
  2 17  1  0
  2 18  1  0
 17 19  1  0
 17 20  1  0
  4 21  1  6
 10 22  1  0
 11 22  1  0
 19 22  1  0
 12 23  1  0
 13 23  1  0
 19 23  1  0
 24 25  1  0
 24 26  1  6
 26 27  1  0
 27 30  1  0
 28 30  1  0
 27 31  1  0
 29 31  1  0
 28 32  1  0
 29 32  1  0
 33 34  1  0
 33 35  1  0
 36 37  1  0
 24 38  1  0
 28 38  1  0
 24 39  1  0
 29 39  1  0
 25 40  1  0
 25 41  1  0
 40 42  1  0
 40 43  1  0
 27 44  1  6
 33 45  1  0
 34 45  1  0
 42 45  1  0
 35 46  1  0
 36 46  1  0
 42 46  1  0
  2 47  1  6
  3 48  1  0
  3 49  1  0
  5 50  1  6
  6 51  1  1
  7 52  1  0
  7 53  1  0
  8 54  1  0
  8 55  1  0
  9 56  1  0
  9 57  1  0
 10 58  1  6
 11 59  1  0
 11 60  1  0
 12 61  1  0
 12 62  1  0
 13 63  1  0
 14 64  1  0
 14 65  1  0
 15 66  1  0
 15 67  1  0
 16 68  1  0
 16 69  1  0
 17 70  1  0
 18 71  1  0
 18 72  1  0
 20 73  1  0
 21 74  1  0
 22 75  1  6
 23 76  1  1
 25 77  1  6
 26 78  1  0
 26 79  1  0
 28 80  1  6
 29 81  1  1
 30 82  1  0
 30 83  1  0
 31 84  1  0
 31 85  1  0
 32 86  1  0
 32 87  1  0
 33 88  1  6
 34 89  1  0
 34 90  1  0
 35 91  1  0
 35 92  1  0
 36 93  1  0
 37 94  1  0
 37 95  1  0
 38 96  1  0
 38 97  1  0
 39 98  1  0
 39 99  1  0
 40100  1  0
 41101  1  0
 41102  1  0
 43103  1  0
 44104  1  0
 45105  1  6
 46106  1  1
M  END
>  <PDBID>  (1) 
3BJM

>  <PDB ID>  (1) 
3BJM

>  <Generic Name>  (1) 
Saxagliptin

>  <Brand Name>  (1) 
Kombiglyze XR#Komboglyze#Onglyza#Qtern

>  <DrugBank ID>  (1) 
DB06335

>  <ATC Codes>  (1) 
A10BD10#A10BH03#A10BD21

>  <Ligand ID>  (1) 
BJM

>  <Target Name>  (1) 
Dipeptidyl peptidase 4

>  <UniProt ID>  (1) 
P27487

>  <PDB ID.1>  (1) 
3BJM

>  <Seq. Identity>  (1) 
100%

$$$$
