PDB_DB01264_08
     RDKit          3D

 91 94  0  0  0  0  0  0  0  0999 V2000
    7.7244   -0.9437    1.0027 N   0  0  0  0  0  0  0  0  0  0  0  0
    6.7222   -1.7793    1.6695 C   0  0  0  0  0  0  0  0  0  0  0  0
    6.2749   -2.8037    0.6712 C   0  0  0  0  0  0  0  0  0  0  0  0
    4.7638   -2.7634    0.6007 C   0  0  0  0  0  0  0  0  0  0  0  0
    4.3627   -1.4288   -0.0671 C   0  0  0  0  0  0  0  0  0  0  0  0
    4.8030   -0.3588    0.8839 C   0  0  0  0  0  0  0  0  0  0  0  0
    5.5618   -0.9095    2.0902 C   0  0  0  0  0  0  0  0  0  0  0  0
    2.6949   -1.4573   -0.3122 S   0  0  0  0  0  0  0  0  0  0  0  0
    2.4126   -2.8591   -1.1407 O   0  0  0  0  0  0  0  0  0  0  0  0
    2.0864   -1.8929    1.2874 O   0  0  0  0  0  0  0  0  0  0  0  0
    1.9452   -0.2241   -0.7711 N   0  0  0  0  0  0  0  0  0  0  0  0
    2.1885    0.3704   -2.0243 C   0  0  0  0  0  0  0  0  0  0  0  0
    2.6531    1.7882   -2.0407 C   0  0  0  0  0  0  0  0  0  0  0  0
    2.8343    2.1765   -3.5169 C   0  0  0  0  0  0  0  0  0  0  0  0
    4.0013    2.0108   -1.4002 C   0  0  0  0  0  0  0  0  0  0  0  0
    0.8488    0.2869   -0.0034 C   0  0  0  0  0  0  0  0  0  0  0  0
   -0.4837    0.0374   -0.5994 C   0  0  1  0  0  0  0  0  0  0  0  0
   -0.7576   -1.3008   -0.7533 O   0  0  0  0  0  0  0  0  0  0  0  0
   -1.6376    0.7295    0.0769 C   0  0  1  0  0  0  0  0  0  0  0  0
   -1.9337    0.2402    1.3602 N   0  0  0  0  0  0  0  0  0  0  0  0
   -2.3826   -1.0803    1.5609 C   0  0  0  0  0  0  0  0  0  0  0  0
   -2.5733   -1.2849    2.9714 O   0  0  0  0  0  0  0  0  0  0  0  0
   -3.5102   -1.4980    0.8932 O   0  0  0  0  0  0  0  0  0  0  0  0
   -3.4522   -2.6819    0.2343 C   0  0  1  0  0  0  0  0  0  0  0  0
   -4.4920   -3.5888    0.9372 C   0  0  0  0  0  0  0  0  0  0  0  0
   -5.6667   -3.3348    0.2362 O   0  0  0  0  0  0  0  0  0  0  0  0
   -5.3150   -3.3632   -1.1160 C   0  0  1  0  0  0  0  0  0  0  0  0
   -6.1622   -2.5714   -1.8560 O   0  0  0  0  0  0  0  0  0  0  0  0
   -5.3640   -1.8517   -2.7755 C   0  0  0  0  0  0  0  0  0  0  0  0
   -4.2342   -1.4258   -1.8231 C   0  0  0  0  0  0  0  0  0  0  0  0
   -3.9290   -2.7320   -1.1729 C   0  0  1  0  0  0  0  0  0  0  0  0
   -1.5506    2.2277   -0.0253 C   0  0  0  0  0  0  0  0  0  0  0  0
   -2.8840    2.9115    2.0368 C   0  0  0  0  0  0  0  0  0  0  0  0
   -4.1069    3.7920    2.3501 C   0  0  0  0  0  0  0  0  0  0  0  0
   -4.3036    4.8413    1.3076 C   0  0  0  0  0  0  0  0  0  0  0  0
   -4.6185    4.2980   -0.0632 C   0  0  0  0  0  0  0  0  0  0  0  0
   -3.9386    2.9551   -0.2231 C   0  0  0  0  0  0  0  0  0  0  0  0
   -2.6335    3.0247    0.5853 C   0  0  0  0  0  0  0  0  0  0  0  0
    8.4752   -1.6270    0.6947 H   0  0  0  0  0  0  0  0  0  0  0  0
    8.1349   -0.2793    1.6877 H   0  0  0  0  0  0  0  0  0  0  0  0
    7.1265   -2.2881    2.5464 H   0  0  0  0  0  0  0  0  0  0  0  0
    6.6237   -3.8116    0.9618 H   0  0  0  0  0  0  0  0  0  0  0  0
    6.6699   -2.6172   -0.3517 H   0  0  0  0  0  0  0  0  0  0  0  0
    4.3283   -2.8534    1.5945 H   0  0  0  0  0  0  0  0  0  0  0  0
    4.3549   -3.6039   -0.0077 H   0  0  0  0  0  0  0  0  0  0  0  0
    5.0019   -1.4060   -0.9698 H   0  0  0  0  0  0  0  0  0  0  0  0
    3.9289    0.1668    1.2876 H   0  0  0  0  0  0  0  0  0  0  0  0
    5.5183    0.3614    0.4148 H   0  0  0  0  0  0  0  0  0  0  0  0
    4.9109   -1.3548    2.8458 H   0  0  0  0  0  0  0  0  0  0  0  0
    6.0236   -0.0052    2.5824 H   0  0  0  0  0  0  0  0  0  0  0  0
    1.9868   -3.5700   -0.6070 H   0  0  0  0  0  0  0  0  0  0  0  0
    2.5926   -1.3113    1.9245 H   0  0  0  0  0  0  0  0  0  0  0  0
    1.3067    0.2118   -2.6996 H   0  0  0  0  0  0  0  0  0  0  0  0
    3.0000   -0.2186   -2.5280 H   0  0  0  0  0  0  0  0  0  0  0  0
    1.9499    2.4932   -1.5527 H   0  0  0  0  0  0  0  0  0  0  0  0
    3.8514    1.8581   -3.8206 H   0  0  0  0  0  0  0  0  0  0  0  0
    2.1269    1.5675   -4.1500 H   0  0  0  0  0  0  0  0  0  0  0  0
    2.6994    3.2484   -3.6645 H   0  0  0  0  0  0  0  0  0  0  0  0
    3.8811    2.1163   -0.2883 H   0  0  0  0  0  0  0  0  0  0  0  0
    4.3264    3.0399   -1.7251 H   0  0  0  0  0  0  0  0  0  0  0  0
    4.7694    1.3019   -1.6998 H   0  0  0  0  0  0  0  0  0  0  0  0
    0.8931   -0.2791    0.9814 H   0  0  0  0  0  0  0  0  0  0  0  0
    1.0053    1.3403    0.3255 H   0  0  0  0  0  0  0  0  0  0  0  0
   -0.4155    0.4293   -1.6677 H   0  0  0  0  0  0  0  0  0  0  0  0
    0.0105   -1.8244   -0.4380 H   0  0  0  0  0  0  0  0  0  0  0  0
   -2.5357    0.4771   -0.5720 H   0  0  0  0  0  0  0  0  0  0  0  0
   -1.1921    0.4473    2.0577 H   0  0  0  0  0  0  0  0  0  0  0  0
   -1.5766   -1.8021    1.3458 H   0  0  0  0  0  0  0  0  0  0  0  0
   -1.8392   -0.8585    3.4663 H   0  0  0  0  0  0  0  0  0  0  0  0
   -2.4565   -3.1857    0.2893 H   0  0  0  0  0  0  0  0  0  0  0  0
   -4.2043   -4.6473    0.8844 H   0  0  0  0  0  0  0  0  0  0  0  0
   -4.6672   -3.2340    1.9843 H   0  0  0  0  0  0  0  0  0  0  0  0
   -5.3251   -4.3924   -1.5244 H   0  0  0  0  0  0  0  0  0  0  0  0
   -4.9110   -2.5181   -3.5238 H   0  0  0  0  0  0  0  0  0  0  0  0
   -5.9082   -0.9990   -3.1748 H   0  0  0  0  0  0  0  0  0  0  0  0
   -3.3634   -1.1120   -2.4211 H   0  0  0  0  0  0  0  0  0  0  0  0
   -4.5865   -0.6643   -1.1192 H   0  0  0  0  0  0  0  0  0  0  0  0
   -3.2996   -3.3881   -1.8183 H   0  0  0  0  0  0  0  0  0  0  0  0
   -1.4893    2.5441   -1.1022 H   0  0  0  0  0  0  0  0  0  0  0  0
   -0.5790    2.6157    0.4029 H   0  0  0  0  0  0  0  0  0  0  0  0
   -3.0329    1.9279    2.4652 H   0  0  0  0  0  0  0  0  0  0  0  0
   -2.0439    3.3757    2.6350 H   0  0  0  0  0  0  0  0  0  0  0  0
   -5.0160    3.1609    2.4409 H   0  0  0  0  0  0  0  0  0  0  0  0
   -3.9746    4.2819    3.3247 H   0  0  0  0  0  0  0  0  0  0  0  0
   -3.4430    5.5340    1.3142 H   0  0  0  0  0  0  0  0  0  0  0  0
   -5.1741    5.4691    1.6379 H   0  0  0  0  0  0  0  0  0  0  0  0
   -5.7190    4.2398   -0.2599 H   0  0  0  0  0  0  0  0  0  0  0  0
   -4.1373    4.9780   -0.7981 H   0  0  0  0  0  0  0  0  0  0  0  0
   -4.6204    2.1977    0.1636 H   0  0  0  0  0  0  0  0  0  0  0  0
   -3.6353    2.8039   -1.2797 H   0  0  0  0  0  0  0  0  0  0  0  0
   -2.2990    4.1074    0.4333 H   0  0  0  0  0  0  0  0  0  0  0  0
  1  2  1  0
  2  3  1  0
  3  4  1  0
  4  5  1  0
  5  6  1  0
  2  7  1  0
  6  7  1  0
  5  8  1  0
  8  9  1  0
  8 10  1  0
  8 11  1  0
 11 12  1  0
 12 13  1  0
 13 14  1  0
 13 15  1  0
 11 16  1  0
 16 17  1  0
 17 18  1  0
 17 19  1  0
 19 20  1  0
 20 21  1  0
 21 22  1  0
 21 23  1  0
 23 24  1  0
 24 25  1  0
 25 26  1  0
 26 27  1  0
 27 28  1  0
 28 29  1  0
 29 30  1  0
 24 31  1  0
 27 31  1  0
 30 31  1  0
 19 32  1  0
 33 34  1  0
 34 35  1  0
 35 36  1  0
 36 37  1  0
 32 38  1  0
 33 38  1  0
 37 38  1  0
  1 39  1  0
  1 40  1  0
  2 41  1  0
  3 42  1  0
  3 43  1  0
  4 44  1  0
  4 45  1  0
  5 46  1  0
  6 47  1  0
  6 48  1  0
  7 49  1  0
  7 50  1  0
  9 51  1  0
 10 52  1  0
 12 53  1  0
 12 54  1  0
 13 55  1  0
 14 56  1  0
 14 57  1  0
 14 58  1  0
 15 59  1  0
 15 60  1  0
 15 61  1  0
 16 62  1  0
 16 63  1  0
 17 64  1  6
 18 65  1  0
 19 66  1  6
 20 67  1  0
 21 68  1  0
 22 69  1  0
 24 70  1  6
 25 71  1  0
 25 72  1  0
 27 73  1  6
 29 74  1  0
 29 75  1  0
 30 76  1  0
 30 77  1  0
 31 78  1  6
 32 79  1  0
 32 80  1  0
 33 81  1  0
 33 82  1  0
 34 83  1  0
 34 84  1  0
 35 85  1  0
 35 86  1  0
 36 87  1  0
 36 88  1  0
 37 89  1  0
 37 90  1  0
 38 91  1  0
M  END
>  <PDBID>  (1) 
4HLA

>  <PDB ID>  (1) 
4HLA

>  <Generic Name>  (1) 
Darunavir

>  <Brand Name>  (1) 
Pat-darunavir#Prezcobix#Prezista

>  <DrugBank ID>  (1) 
DB01264

>  <ATC Codes>  (1) 
J05AE10#J05AR14

>  <Ligand ID>  (1) 
17

>  <Target Name>  (1) 
Pol polyprotein

>  <UniProt ID>  (1) 
Q72874

>  <PDB ID.1>  (1) 
4HLA

>  <Seq. Identity>  (1) 
99%

$$$$
