PDB_DB06147_04
     RDKit          3D

 37 38  0  0  0  0  0  0  0  0999 V2000
   -0.4123    1.3736   -2.2815 O   0  0  0  0  0  0  0  0  0  0  0  0
   -0.4042    0.5386   -1.0121 S   0  0  0  0  0  0  0  0  0  0  0  0
   -0.9435   -0.9795   -1.1412 O   0  0  0  0  0  0  0  0  0  0  0  0
    1.1593    0.4436   -0.2527 C   0  0  0  0  0  0  0  0  0  0  0  0
    2.1269   -0.1600   -1.2572 C   0  0  0  0  0  0  0  0  0  0  0  0
    3.3190   -0.6576   -0.4979 C   0  0  0  0  0  0  0  0  0  0  0  0
    1.0592   -0.4096    0.9706 C   0  0  0  0  0  0  0  0  0  0  0  0
    2.3357   -0.2205    1.7698 C   0  0  0  0  0  0  0  0  0  0  0  0
    3.4514    0.0701    0.8175 C   0  0  0  0  0  0  0  0  0  0  0  0
    4.6900   -0.3702    1.4307 N   0  0  0  0  0  0  0  0  0  0  0  0
   -1.4171    1.3130    0.1609 N   0  0  0  0  0  0  0  0  0  0  0  0
   -2.4225    0.3630    0.5641 C   0  0  0  0  0  0  0  0  0  0  0  0
   -3.5472    1.0959    1.8116 S   0  0  0  0  0  0  0  0  0  0  0  0
   -5.1173    0.4428    1.1001 C   0  0  0  0  0  0  0  0  0  0  0  0
   -4.5085   -0.5321    0.0799 C   0  0  0  0  0  0  0  0  0  0  0  0
   -3.3945    0.1523   -0.5234 N   0  0  0  0  0  0  0  0  0  0  0  0
   -0.8793    1.0352   -3.0953 H   0  0  0  0  0  0  0  0  0  0  0  0
   -0.7001   -1.6156   -0.4252 H   0  0  0  0  0  0  0  0  0  0  0  0
    1.5349    1.4464    0.0372 H   0  0  0  0  0  0  0  0  0  0  0  0
    1.6083   -0.9959   -1.8073 H   0  0  0  0  0  0  0  0  0  0  0  0
    2.3665    0.6247   -2.0022 H   0  0  0  0  0  0  0  0  0  0  0  0
    4.2412   -0.4350   -1.0800 H   0  0  0  0  0  0  0  0  0  0  0  0
    3.2154   -1.7499   -0.3672 H   0  0  0  0  0  0  0  0  0  0  0  0
    0.2152   -0.0849    1.5814 H   0  0  0  0  0  0  0  0  0  0  0  0
    0.9856   -1.5026    0.7172 H   0  0  0  0  0  0  0  0  0  0  0  0
    2.5674   -1.1662    2.3419 H   0  0  0  0  0  0  0  0  0  0  0  0
    2.2356    0.5819    2.5196 H   0  0  0  0  0  0  0  0  0  0  0  0
    3.4857    1.1644    0.5725 H   0  0  0  0  0  0  0  0  0  0  0  0
    5.3644    0.4317    1.5620 H   0  0  0  0  0  0  0  0  0  0  0  0
    5.1098   -1.1869    0.9683 H   0  0  0  0  0  0  0  0  0  0  0  0
   -0.8572    1.5486    1.0093 H   0  0  0  0  0  0  0  0  0  0  0  0
   -2.0390   -0.5867    0.9327 H   0  0  0  0  0  0  0  0  0  0  0  0
   -5.6839    1.2355    0.6006 H   0  0  0  0  0  0  0  0  0  0  0  0
   -5.6527   -0.0981    1.8816 H   0  0  0  0  0  0  0  0  0  0  0  0
   -5.2145   -0.8055   -0.7031 H   0  0  0  0  0  0  0  0  0  0  0  0
   -4.1558   -1.4229    0.6702 H   0  0  0  0  0  0  0  0  0  0  0  0
   -3.7216    1.1184   -0.7772 H   0  0  0  0  0  0  0  0  0  0  0  0
  2  1  1  0
  2  3  1  0
  2  4  1  0
  4  5  1  0
  5  6  1  0
  4  7  1  0
  7  8  1  0
  6  9  1  0
  8  9  1  0
  9 10  1  0
  2 11  1  0
 11 12  1  0
 12 13  1  0
 13 14  1  0
 14 15  1  0
 12 16  1  0
 15 16  1  0
  1 17  1  0
  3 18  1  0
  4 19  1  0
  5 20  1  0
  5 21  1  0
  6 22  1  0
  6 23  1  0
  7 24  1  0
  7 25  1  0
  8 26  1  0
  8 27  1  0
  9 28  1  0
 10 29  1  0
 10 30  1  0
 11 31  1  0
 12 32  1  0
 14 33  1  0
 14 34  1  0
 15 35  1  0
 15 36  1  0
 16 37  1  0
M  END
>  <PDBID>  (1) 
3TYE

>  <PDB ID>  (1) 
3TYE

>  <Generic Name>  (1) 
Sulfathiazole

>  <Brand Name>  (1) 
Norsulfazolum#Sulfatiazol

>  <DrugBank ID>  (1) 
DB06147

>  <ATC Codes>  (1) 
J01EB07#D06BA02

>  <Ligand ID>  (1) 
YTZ

>  <Target Name>  (1) 
Dihydropteroate synthetase

>  <UniProt ID>  (1) 
Q27738

>  <PDB ID.1>  (1) 
3TYE

>  <Seq. Identity>  (1) 
35%

$$$$
