PDB_DB00127_03
     RDKit          3D

 80 78  0  0  0  0  0  0  0  0999 V2000
    4.9122    2.2289   -1.3679 N   0  0  0  0  0  0  0  0  0  0  0  0
    3.7835    1.3338   -1.0549 C   0  0  0  0  0  0  0  0  0  0  0  0
    4.3850    0.0709   -0.5468 C   0  0  0  0  0  0  0  0  0  0  0  0
    3.4380   -1.0083   -0.1601 C   0  0  0  0  0  0  0  0  0  0  0  0
    2.5007   -0.6365    0.8847 N   0  0  0  0  0  0  0  0  0  0  0  0
    1.7262   -1.8262    1.1678 C   0  0  0  0  0  0  0  0  0  0  0  0
    0.6592   -1.6283    2.1979 C   0  0  0  0  0  0  0  0  0  0  0  0
   -0.3449   -0.5794    1.7532 C   0  0  0  0  0  0  0  0  0  0  0  0
   -1.0070   -0.9577    0.4698 C   0  0  0  0  0  0  0  0  0  0  0  0
   -1.9728   -0.0388   -0.0266 N   0  0  0  0  0  0  0  0  0  0  0  0
   -3.1589    0.0538    0.7756 C   0  0  0  0  0  0  0  0  0  0  0  0
   -4.1605    1.0037    0.1635 C   0  0  0  0  0  0  0  0  0  0  0  0
   -4.6297    0.6165   -1.1965 C   0  0  0  0  0  0  0  0  0  0  0  0
   -5.5810    1.6425   -1.6273 N   0  0  0  0  0  0  0  0  0  0  0  0
    4.9122    2.2289   -1.3679 N   0  0  0  0  0  0  0  0  0  0  0  0
    3.7835    1.3338   -1.0549 C   0  0  0  0  0  0  0  0  0  0  0  0
    4.3850    0.0709   -0.5468 C   0  0  0  0  0  0  0  0  0  0  0  0
    3.4380   -1.0083   -0.1601 C   0  0  0  0  0  0  0  0  0  0  0  0
    2.5007   -0.6365    0.8847 N   0  0  0  0  0  0  0  0  0  0  0  0
    1.7262   -1.8262    1.1678 C   0  0  0  0  0  0  0  0  0  0  0  0
    0.6592   -1.6283    2.1979 C   0  0  0  0  0  0  0  0  0  0  0  0
   -0.3449   -0.5794    1.7532 C   0  0  0  0  0  0  0  0  0  0  0  0
   -1.0070   -0.9577    0.4698 C   0  0  0  0  0  0  0  0  0  0  0  0
   -1.9728   -0.0388   -0.0266 N   0  0  0  0  0  0  0  0  0  0  0  0
   -3.1589    0.0538    0.7756 C   0  0  0  0  0  0  0  0  0  0  0  0
   -4.1605    1.0037    0.1635 C   0  0  0  0  0  0  0  0  0  0  0  0
   -4.6297    0.6165   -1.1965 C   0  0  0  0  0  0  0  0  0  0  0  0
   -5.5810    1.6425   -1.6273 N   0  0  0  0  0  0  0  0  0  0  0  0
    4.6195    3.2280   -1.3754 H   0  0  0  0  0  0  0  0  0  0  0  0
    5.3692    1.9078   -2.2439 H   0  0  0  0  0  0  0  0  0  0  0  0
    3.2005    1.8432   -0.2353 H   0  0  0  0  0  0  0  0  0  0  0  0
    3.1215    1.2568   -1.9142 H   0  0  0  0  0  0  0  0  0  0  0  0
    5.0815   -0.3593   -1.3156 H   0  0  0  0  0  0  0  0  0  0  0  0
    5.0519    0.3289    0.3126 H   0  0  0  0  0  0  0  0  0  0  0  0
    2.8623   -1.4229   -0.9922 H   0  0  0  0  0  0  0  0  0  0  0  0
    4.0503   -1.8576    0.2613 H   0  0  0  0  0  0  0  0  0  0  0  0
    1.8027    0.0654    0.5129 H   0  0  0  0  0  0  0  0  0  0  0  0
    1.3566   -2.2308    0.2209 H   0  0  0  0  0  0  0  0  0  0  0  0
    2.4531   -2.5860    1.5729 H   0  0  0  0  0  0  0  0  0  0  0  0
    1.1173   -1.3345    3.1705 H   0  0  0  0  0  0  0  0  0  0  0  0
    0.0944   -2.5738    2.3610 H   0  0  0  0  0  0  0  0  0  0  0  0
   -1.0552   -0.4683    2.5977 H   0  0  0  0  0  0  0  0  0  0  0  0
    0.1935    0.3793    1.6754 H   0  0  0  0  0  0  0  0  0  0  0  0
   -0.2079   -1.0603   -0.3156 H   0  0  0  0  0  0  0  0  0  0  0  0
   -1.4212   -1.9835    0.5849 H   0  0  0  0  0  0  0  0  0  0  0  0
   -2.0987   -0.0238   -1.0380 H   0  0  0  0  0  0  0  0  0  0  0  0
   -2.9173    0.4901    1.7889 H   0  0  0  0  0  0  0  0  0  0  0  0
   -3.6073   -0.9502    0.8646 H   0  0  0  0  0  0  0  0  0  0  0  0
   -5.0363    1.0026    0.8730 H   0  0  0  0  0  0  0  0  0  0  0  0
   -3.7536    2.0460    0.1367 H   0  0  0  0  0  0  0  0  0  0  0  0
   -3.8155    0.5509   -1.9217 H   0  0  0  0  0  0  0  0  0  0  0  0
   -5.1449   -0.3676   -1.1406 H   0  0  0  0  0  0  0  0  0  0  0  0
   -5.3401    2.5353   -1.1731 H   0  0  0  0  0  0  0  0  0  0  0  0
   -6.5265    1.3095   -1.3731 H   0  0  0  0  0  0  0  0  0  0  0  0
    4.6195    3.2280   -1.3754 H   0  0  0  0  0  0  0  0  0  0  0  0
    5.3692    1.9078   -2.2439 H   0  0  0  0  0  0  0  0  0  0  0  0
    3.2005    1.8432   -0.2353 H   0  0  0  0  0  0  0  0  0  0  0  0
    3.1215    1.2568   -1.9142 H   0  0  0  0  0  0  0  0  0  0  0  0
    5.0815   -0.3593   -1.3156 H   0  0  0  0  0  0  0  0  0  0  0  0
    5.0519    0.3289    0.3126 H   0  0  0  0  0  0  0  0  0  0  0  0
    2.8623   -1.4229   -0.9922 H   0  0  0  0  0  0  0  0  0  0  0  0
    4.0503   -1.8576    0.2613 H   0  0  0  0  0  0  0  0  0  0  0  0
    1.8027    0.0654    0.5129 H   0  0  0  0  0  0  0  0  0  0  0  0
    1.3566   -2.2308    0.2209 H   0  0  0  0  0  0  0  0  0  0  0  0
    2.4531   -2.5860    1.5729 H   0  0  0  0  0  0  0  0  0  0  0  0
    1.1173   -1.3345    3.1705 H   0  0  0  0  0  0  0  0  0  0  0  0
    0.0944   -2.5738    2.3610 H   0  0  0  0  0  0  0  0  0  0  0  0
   -1.0552   -0.4683    2.5977 H   0  0  0  0  0  0  0  0  0  0  0  0
    0.1935    0.3793    1.6754 H   0  0  0  0  0  0  0  0  0  0  0  0
   -0.2079   -1.0603   -0.3156 H   0  0  0  0  0  0  0  0  0  0  0  0
   -1.4212   -1.9835    0.5849 H   0  0  0  0  0  0  0  0  0  0  0  0
   -2.0987   -0.0238   -1.0380 H   0  0  0  0  0  0  0  0  0  0  0  0
   -2.9173    0.4901    1.7889 H   0  0  0  0  0  0  0  0  0  0  0  0
   -3.6073   -0.9502    0.8646 H   0  0  0  0  0  0  0  0  0  0  0  0
   -5.0363    1.0026    0.8730 H   0  0  0  0  0  0  0  0  0  0  0  0
   -3.7536    2.0460    0.1367 H   0  0  0  0  0  0  0  0  0  0  0  0
   -3.8155    0.5509   -1.9217 H   0  0  0  0  0  0  0  0  0  0  0  0
   -5.1449   -0.3676   -1.1406 H   0  0  0  0  0  0  0  0  0  0  0  0
   -5.3401    2.5353   -1.1731 H   0  0  0  0  0  0  0  0  0  0  0  0
   -6.5265    1.3095   -1.3731 H   0  0  0  0  0  0  0  0  0  0  0  0
  1  2  1  0
  2  3  1  0
  3  4  1  0
  4  5  1  0
  5  6  1  0
  6  7  1  0
  7  8  1  0
  8  9  1  0
  9 10  1  0
 10 11  1  0
 11 12  1  0
 12 13  1  0
 13 14  1  0
 15 16  1  0
 16 17  1  0
 17 18  1  0
 18 19  1  0
 19 20  1  0
 20 21  1  0
 21 22  1  0
 22 23  1  0
 23 24  1  0
 24 25  1  0
 25 26  1  0
 26 27  1  0
 27 28  1  0
  1 29  1  0
  1 30  1  0
  2 31  1  0
  2 32  1  0
  3 33  1  0
  3 34  1  0
  4 35  1  0
  4 36  1  0
  5 37  1  0
  6 38  1  0
  6 39  1  0
  7 40  1  0
  7 41  1  0
  8 42  1  0
  8 43  1  0
  9 44  1  0
  9 45  1  0
 10 46  1  0
 11 47  1  0
 11 48  1  0
 12 49  1  0
 12 50  1  0
 13 51  1  0
 13 52  1  0
 14 53  1  0
 14 54  1  0
 15 55  1  0
 15 56  1  0
 16 57  1  0
 16 58  1  0
 17 59  1  0
 17 60  1  0
 18 61  1  0
 18 62  1  0
 19 63  1  0
 20 64  1  0
 20 65  1  0
 21 66  1  0
 21 67  1  0
 22 68  1  0
 22 69  1  0
 23 70  1  0
 23 71  1  0
 24 72  1  0
 25 73  1  0
 25 74  1  0
 26 75  1  0
 26 76  1  0
 27 77  1  0
 27 78  1  0
 28 79  1  0
 28 80  1  0
M  END
>  <PDBID>  (1) 
3KU9

>  <PDB ID>  (1) 
3KU9

>  <Generic Name>  (1) 
Spermine

>  <Brand Name>  (1) 
nan

>  <DrugBank ID>  (1) 
DB00127

>  <ATC Codes>  (1) 
nan

>  <Ligand ID>  (1) 
SPM

>  <Target Name>  (1) 
Spermine oxidase

>  <UniProt ID>  (1) 
Q9NWM0

>  <PDB ID.1>  (1) 
3KU9

>  <Seq. Identity>  (1) 
31%

$$$$
