PDB_DB08901_07
     RDKit          3D

184192  0  0  0  0  0  0  0  0999 V2000
   -7.3973    2.7489    0.2736 N   0  0  0  0  0  0  0  0  0  0  0  0
    6.9482    0.3249   -0.4195 N   0  0  0  0  0  0  0  0  0  0  0  0
   -3.6491    0.5269   -0.2541 C   0  0  0  0  0  0  0  0  0  0  0  0
   -2.8323   -0.7408    0.0157 C   0  0  0  0  0  0  0  0  0  0  0  0
   -3.5006   -1.5130    1.1471 C   0  0  0  0  0  0  0  0  0  0  0  0
   -2.4521   -1.7036    2.2536 C   0  0  0  0  0  0  0  0  0  0  0  0
   -1.3317   -2.4537    1.5923 C   0  0  0  0  0  0  0  0  0  0  0  0
   -1.4302   -0.3133    0.3325 C   0  0  0  0  0  0  0  0  0  0  0  0
    2.4763   -0.3023    0.4804 C   0  0  0  0  0  0  0  0  0  0  0  0
    3.9604    0.2196   -1.4458 C   0  0  0  0  0  0  0  0  0  0  0  0
    4.0127   -2.0150   -0.4248 C   0  0  0  0  0  0  0  0  0  0  0  0
    5.9280   -0.5560    0.0006 C   0  0  0  0  0  0  0  0  0  0  0  0
    6.6945    1.6813   -0.5996 C   0  0  0  0  0  0  0  0  0  0  0  0
    7.6481    2.6464    0.0527 C   0  0  0  0  0  0  0  0  0  0  0  0
    8.2697   -0.0538   -0.0116 C   0  0  0  0  0  0  0  0  0  0  0  0
   -9.3008    2.4840   -1.2518 C   0  0  0  0  0  0  0  0  0  0  0  0
  -10.0158    1.2911   -0.6790 C   0  0  0  0  0  0  0  0  0  0  0  0
   -9.2444    0.0069   -0.9216 C   0  0  0  0  0  0  0  0  0  0  0  0
   -7.9082    0.2575   -0.3584 N   0  0  0  0  0  0  0  0  0  0  0  0
   -7.2524    1.1068   -1.2283 N   0  0  0  0  0  0  0  0  0  0  0  0
   -7.8265    2.4327   -1.0809 C   0  0  0  0  0  0  0  0  0  0  0  0
   -6.0344    2.2333    0.3655 C   0  0  0  0  0  0  0  0  0  0  0  0
   -5.8695    1.3767   -0.8523 C   0  0  0  0  0  0  0  0  0  0  0  0
   -5.0670    0.1514   -0.6420 C   0  0  0  0  0  0  0  0  0  0  0  0
   -0.5064   -1.4477    0.7731 C   0  0  0  0  0  0  0  0  0  0  0  0
   -3.8680   -2.8811    0.6447 C   0  0  0  0  0  0  0  0  0  0  0  0
    0.4343   -0.8269    1.7740 C   0  0  0  0  0  0  0  0  0  0  0  0
    1.1652   -1.9154    2.3951 O   0  0  0  0  0  0  0  0  0  0  0  0
    1.3713    0.0466    1.2088 N   0  0  0  0  0  0  0  0  0  0  0  0
    2.9075    0.7577   -0.5372 C   0  0  0  0  0  0  0  0  0  0  0  0
    4.8301   -0.8666   -0.9454 C   0  0  0  0  0  0  0  0  0  0  0  0
    2.5323   -1.6321   -0.1757 C   0  0  0  0  0  0  0  0  0  0  0  0
    4.0003   -3.1820   -1.3633 C   0  0  0  0  0  0  0  0  0  0  0  0
    3.4714   -2.8053   -2.5831 F   0  0  0  0  0  0  0  0  0  0  0  0
    5.2826   -3.6902   -1.4621 F   0  0  0  0  0  0  0  0  0  0  0  0
    3.2032   -4.1777   -0.8293 F   0  0  0  0  0  0  0  0  0  0  0  0
    8.8697    0.8963    1.0060 C   0  0  0  0  0  0  0  0  0  0  0  0
    9.8109    2.0726   -0.8671 C   0  0  0  0  0  0  0  0  0  0  0  0
    8.9624    2.1673    0.3029 N   0  0  0  0  0  0  0  0  0  0  0  0
   -8.5980    0.5080   -1.3098 N   0  0  0  0  0  0  0  0  0  0  0  0
    6.9521    0.7415   -0.2387 N   0  0  0  0  0  0  0  0  0  0  0  0
   -4.2539   -0.5972    0.0857 C   0  0  0  0  0  0  0  0  0  0  0  0
   -3.2496   -1.3506    0.8204 C   0  0  0  0  0  0  0  0  0  0  0  0
   -2.7240   -2.6174    0.2779 C   0  0  0  0  0  0  0  0  0  0  0  0
   -2.1348   -2.5117   -1.0980 C   0  0  0  0  0  0  0  0  0  0  0  0
   -1.3033   -1.2803   -1.2210 C   0  0  0  0  0  0  0  0  0  0  0  0
   -2.0509   -0.4280    1.0469 C   0  0  0  0  0  0  0  0  0  0  0  0
    1.9616    0.3815   -0.8677 C   0  0  0  0  0  0  0  0  0  0  0  0
    3.8692    0.6087    0.6743 C   0  0  0  0  0  0  0  0  0  0  0  0
    3.7925   -1.2777   -0.8857 C   0  0  0  0  0  0  0  0  0  0  0  0
    6.0277   -0.3188   -0.3467 C   0  0  0  0  0  0  0  0  0  0  0  0
    7.0082    1.4824    0.9328 C   0  0  0  0  0  0  0  0  0  0  0  0
    8.3318    2.1098    1.3110 C   0  0  0  0  0  0  0  0  0  0  0  0
    8.1897    0.3503   -0.8641 C   0  0  0  0  0  0  0  0  0  0  0  0
   -8.1599    2.8534   -0.6505 C   0  0  0  0  0  0  0  0  0  0  0  0
   -8.5716    2.7829    0.7855 C   0  0  0  0  0  0  0  0  0  0  0  0
   -7.7618    1.8159    1.6160 C   0  0  0  0  0  0  0  0  0  0  0  0
   -7.6062    0.5983    0.8462 N   0  0  0  0  0  0  0  0  0  0  0  0
   -6.7119    0.9447   -0.2082 N   0  0  0  0  0  0  0  0  0  0  0  0
   -7.6216    1.5733   -1.1943 C   0  0  0  0  0  0  0  0  0  0  0  0
   -7.8512   -0.7571   -1.1815 C   0  0  0  0  0  0  0  0  0  0  0  0
   -6.4525   -0.2857   -0.9803 C   0  0  0  0  0  0  0  0  0  0  0  0
   -5.5619   -1.2398   -0.2163 C   0  0  0  0  0  0  0  0  0  0  0  0
   -0.9655   -0.5786    0.0520 C   0  0  0  0  0  0  0  0  0  0  0  0
   -3.6638   -3.8006    0.4142 C   0  0  0  0  0  0  0  0  0  0  0  0
   -0.4430    0.8079   -0.3721 C   0  0  1  0  0  0  0  0  0  0  0  0
   -0.1824    1.5480    0.8099 O   0  0  0  0  0  0  0  0  0  0  0  0
    0.6715    0.7545   -1.2072 N   0  0  0  0  0  0  0  0  0  0  0  0
    2.6461    1.3382    0.1171 C   0  0  0  0  0  0  0  0  0  0  0  0
    4.5759   -0.0571   -0.4429 C   0  0  0  0  0  0  0  0  0  0  0  0
    2.3021   -1.0325   -0.5537 C   0  0  0  0  0  0  0  0  0  0  0  0
    4.1769   -2.5262   -0.1581 C   0  0  0  0  0  0  0  0  0  0  0  0
    3.9780   -2.4174    1.2109 F   0  0  0  0  0  0  0  0  0  0  0  0
    5.4253   -3.0138   -0.4839 F   0  0  0  0  0  0  0  0  0  0  0  0
    3.2625   -3.5091   -0.5707 F   0  0  0  0  0  0  0  0  0  0  0  0
    9.0859    1.5714   -0.9124 C   0  0  0  0  0  0  0  0  0  0  0  0
   10.4713    1.0401    0.9784 C   0  0  0  0  0  0  0  0  0  0  0  0
    9.4275    1.8618    0.4550 N   0  0  0  0  0  0  0  0  0  0  0  0
   -7.9685    2.1996    0.9626 H   0  0  0  0  0  0  0  0  0  0  0  0
   -3.1154    1.1023   -1.0174 H   0  0  0  0  0  0  0  0  0  0  0  0
   -3.6349    1.0984    0.6885 H   0  0  0  0  0  0  0  0  0  0  0  0
   -2.8209   -1.3278   -0.9206 H   0  0  0  0  0  0  0  0  0  0  0  0
   -4.3290   -0.9802    1.6217 H   0  0  0  0  0  0  0  0  0  0  0  0
   -2.1411   -0.7545    2.6777 H   0  0  0  0  0  0  0  0  0  0  0  0
   -2.9328   -2.3850    2.9890 H   0  0  0  0  0  0  0  0  0  0  0  0
   -1.6834   -3.2594    0.9255 H   0  0  0  0  0  0  0  0  0  0  0  0
   -0.6866   -2.8766    2.3792 H   0  0  0  0  0  0  0  0  0  0  0  0
   -1.5069    0.4313    1.1742 H   0  0  0  0  0  0  0  0  0  0  0  0
   -1.0195    0.2038   -0.5274 H   0  0  0  0  0  0  0  0  0  0  0  0
    3.3482   -0.3249    1.2658 H   0  0  0  0  0  0  0  0  0  0  0  0
    3.3756   -0.2587   -2.3180 H   0  0  0  0  0  0  0  0  0  0  0  0
    4.4886    1.0456   -1.9712 H   0  0  0  0  0  0  0  0  0  0  0  0
    4.3954   -2.3830    0.5561 H   0  0  0  0  0  0  0  0  0  0  0  0
    5.6014   -0.2779    1.0344 H   0  0  0  0  0  0  0  0  0  0  0  0
    6.4370   -1.5711    0.2047 H   0  0  0  0  0  0  0  0  0  0  0  0
    6.6650    1.9024   -1.6849 H   0  0  0  0  0  0  0  0  0  0  0  0
    5.6962    1.9461   -0.1857 H   0  0  0  0  0  0  0  0  0  0  0  0
    7.2482    3.0233    1.0332 H   0  0  0  0  0  0  0  0  0  0  0  0
    7.7229    3.5476   -0.5870 H   0  0  0  0  0  0  0  0  0  0  0  0
    8.2586   -1.0689    0.4139 H   0  0  0  0  0  0  0  0  0  0  0  0
    8.9450   -0.0434   -0.8907 H   0  0  0  0  0  0  0  0  0  0  0  0
   -9.6884    3.4033   -0.7292 H   0  0  0  0  0  0  0  0  0  0  0  0
   -9.5333    2.6478   -2.3274 H   0  0  0  0  0  0  0  0  0  0  0  0
  -10.2609    1.4075    0.3919 H   0  0  0  0  0  0  0  0  0  0  0  0
  -10.9903    1.1872   -1.2140 H   0  0  0  0  0  0  0  0  0  0  0  0
   -9.2085   -0.2378   -1.9899 H   0  0  0  0  0  0  0  0  0  0  0  0
   -9.7368   -0.8033   -0.3504 H   0  0  0  0  0  0  0  0  0  0  0  0
   -7.4983   -0.6681   -0.2260 H   0  0  0  0  0  0  0  0  0  0  0  0
   -7.3366    3.1214   -1.8022 H   0  0  0  0  0  0  0  0  0  0  0  0
   -5.3552    3.1297    0.2672 H   0  0  0  0  0  0  0  0  0  0  0  0
   -5.8456    1.7301    1.3097 H   0  0  0  0  0  0  0  0  0  0  0  0
   -5.4479    1.9446   -1.7154 H   0  0  0  0  0  0  0  0  0  0  0  0
   -4.9657   -0.3441   -1.6548 H   0  0  0  0  0  0  0  0  0  0  0  0
   -5.4949   -0.6132   -0.0003 H   0  0  0  0  0  0  0  0  0  0  0  0
    0.0032   -1.8895   -0.0573 H   0  0  0  0  0  0  0  0  0  0  0  0
   -3.2836   -3.1134   -0.2940 H   0  0  0  0  0  0  0  0  0  0  0  0
   -3.6148   -3.7087    1.3373 H   0  0  0  0  0  0  0  0  0  0  0  0
   -4.9667   -2.9850    0.4436 H   0  0  0  0  0  0  0  0  0  0  0  0
   -0.1552   -0.3428    2.5696 H   0  0  0  0  0  0  0  0  0  0  0  0
    1.5833   -1.4766    3.1785 H   0  0  0  0  0  0  0  0  0  0  0  0
    1.0613    1.0584    1.1519 H   0  0  0  0  0  0  0  0  0  0  0  0
    3.2232    1.6948   -0.0660 H   0  0  0  0  0  0  0  0  0  0  0  0
    2.0048    1.0067   -1.1705 H   0  0  0  0  0  0  0  0  0  0  0  0
    5.3503   -1.2653   -1.8958 H   0  0  0  0  0  0  0  0  0  0  0  0
    2.1524   -2.4441    0.4342 H   0  0  0  0  0  0  0  0  0  0  0  0
    1.9975   -1.6299   -1.1507 H   0  0  0  0  0  0  0  0  0  0  0  0
    8.2688    1.0370    1.9001 H   0  0  0  0  0  0  0  0  0  0  0  0
    9.9101    0.5567    1.2017 H   0  0  0  0  0  0  0  0  0  0  0  0
    9.2518    1.8693   -1.8038 H   0  0  0  0  0  0  0  0  0  0  0  0
   10.3239    3.0482   -0.9955 H   0  0  0  0  0  0  0  0  0  0  0  0
   10.6167    1.3374   -0.6892 H   0  0  0  0  0  0  0  0  0  0  0  0
   -9.2295    0.5843   -0.4863 H   0  0  0  0  0  0  0  0  0  0  0  0
   -3.8704   -0.1246   -0.8419 H   0  0  0  0  0  0  0  0  0  0  0  0
   -4.5087    0.3036    0.7314 H   0  0  0  0  0  0  0  0  0  0  0  0
   -3.6300   -1.5824    1.8632 H   0  0  0  0  0  0  0  0  0  0  0  0
   -1.8432   -2.9011    0.9401 H   0  0  0  0  0  0  0  0  0  0  0  0
   -1.5166   -3.4474   -1.2519 H   0  0  0  0  0  0  0  0  0  0  0  0
   -2.8943   -2.5399   -1.9099 H   0  0  0  0  0  0  0  0  0  0  0  0
   -1.7941   -0.5215   -1.9210 H   0  0  0  0  0  0  0  0  0  0  0  0
   -0.3881   -1.5434   -1.7554 H   0  0  0  0  0  0  0  0  0  0  0  0
   -2.4097    0.6403    1.0277 H   0  0  0  0  0  0  0  0  0  0  0  0
   -1.6520   -0.5486    2.0963 H   0  0  0  0  0  0  0  0  0  0  0  0
    2.5783    0.5809   -1.8311 H   0  0  0  0  0  0  0  0  0  0  0  0
    3.4871   -0.1373    1.4392 H   0  0  0  0  0  0  0  0  0  0  0  0
    4.4004    1.3446    1.2659 H   0  0  0  0  0  0  0  0  0  0  0  0
    3.8418   -1.4592   -1.9728 H   0  0  0  0  0  0  0  0  0  0  0  0
    6.1478   -0.9730    0.5935 H   0  0  0  0  0  0  0  0  0  0  0  0
    6.3622   -1.0453   -1.1486 H   0  0  0  0  0  0  0  0  0  0  0  0
    6.5963    0.8987    1.8002 H   0  0  0  0  0  0  0  0  0  0  0  0
    6.3213    2.3794    0.8060 H   0  0  0  0  0  0  0  0  0  0  0  0
    8.6030    1.7522    2.3489 H   0  0  0  0  0  0  0  0  0  0  0  0
    8.2209    3.2190    1.4444 H   0  0  0  0  0  0  0  0  0  0  0  0
    7.9750    0.0093   -1.8839 H   0  0  0  0  0  0  0  0  0  0  0  0
    8.6903   -0.4813   -0.3220 H   0  0  0  0  0  0  0  0  0  0  0  0
   -8.9761    3.2150   -1.2791 H   0  0  0  0  0  0  0  0  0  0  0  0
   -7.3161    3.5950   -0.7055 H   0  0  0  0  0  0  0  0  0  0  0  0
   -8.4103    3.7889    1.2671 H   0  0  0  0  0  0  0  0  0  0  0  0
   -9.6434    2.5213    0.8936 H   0  0  0  0  0  0  0  0  0  0  0  0
   -8.2797    1.5840    2.5450 H   0  0  0  0  0  0  0  0  0  0  0  0
   -6.7351    2.2131    1.7839 H   0  0  0  0  0  0  0  0  0  0  0  0
   -7.3182   -0.2220    1.3785 H   0  0  0  0  0  0  0  0  0  0  0  0
   -7.0407    1.7263   -2.1029 H   0  0  0  0  0  0  0  0  0  0  0  0
   -8.1804   -1.3018   -0.2806 H   0  0  0  0  0  0  0  0  0  0  0  0
   -7.9782   -1.3416   -2.1076 H   0  0  0  0  0  0  0  0  0  0  0  0
   -5.9752    0.0424   -1.9291 H   0  0  0  0  0  0  0  0  0  0  0  0
   -5.4072   -2.0897   -0.9441 H   0  0  0  0  0  0  0  0  0  0  0  0
   -6.1164   -1.6492    0.6121 H   0  0  0  0  0  0  0  0  0  0  0  0
   -0.1242   -1.1034    0.5500 H   0  0  0  0  0  0  0  0  0  0  0  0
   -3.0980   -4.7467    0.6703 H   0  0  0  0  0  0  0  0  0  0  0  0
   -4.3687   -3.6695    1.2591 H   0  0  0  0  0  0  0  0  0  0  0  0
   -4.1612   -4.0718   -0.5406 H   0  0  0  0  0  0  0  0  0  0  0  0
   -1.2848    1.3172   -0.8664 H   0  0  0  0  0  0  0  0  0  0  0  0
   -0.1546    0.8872    1.5424 H   0  0  0  0  0  0  0  0  0  0  0  0
    0.5204    0.9821   -2.2047 H   0  0  0  0  0  0  0  0  0  0  0  0
    2.0123    1.7300    0.8919 H   0  0  0  0  0  0  0  0  0  0  0  0
    3.0781    2.2341   -0.4198 H   0  0  0  0  0  0  0  0  0  0  0  0
    4.4704    0.6598   -1.3404 H   0  0  0  0  0  0  0  0  0  0  0  0
    2.1775   -1.3353    0.5076 H   0  0  0  0  0  0  0  0  0  0  0  0
    1.7539   -1.7145   -1.1920 H   0  0  0  0  0  0  0  0  0  0  0  0
    8.4789    2.4164   -1.3000 H   0  0  0  0  0  0  0  0  0  0  0  0
    9.9999    1.4016   -1.4957 H   0  0  0  0  0  0  0  0  0  0  0  0
   10.1256    0.1673    1.5672 H   0  0  0  0  0  0  0  0  0  0  0  0
   11.1162    1.6560    1.6134 H   0  0  0  0  0  0  0  0  0  0  0  0
   11.0598    0.6277    0.1293 H   0  0  0  0  0  0  0  0  0  0  0  0
  3  4  1  0
  4  5  1  0
  5  6  1  0
  6  7  1  0
  4  8  1  0
  2 12  1  0
  2 13  1  0
 13 14  1  0
  2 15  1  0
 16 17  1  0
 17 18  1  0
 18 19  1  0
 19 20  1  0
  1 21  1  0
 16 21  1  0
 20 21  1  0
  1 22  1  0
 20 23  1  0
 22 23  1  0
  3 24  1  0
 23 24  1  0
  7 25  1  0
  8 25  1  0
  5 26  1  0
 25 27  1  0
 27 28  1  0
  9 29  1  0
 27 29  1  0
  9 30  1  0
 10 30  1  0
 10 31  1  0
 11 31  1  0
 12 31  1  0
  9 32  1  0
 11 32  1  0
 11 33  1  0
 33 34  1  0
 33 35  1  0
 33 36  1  0
 15 37  1  0
 14 39  1  0
 37 39  1  0
 38 39  1  0
 42 43  1  0
 43 44  1  0
 44 45  1  0
 45 46  1  0
 43 47  1  0
 41 51  1  0
 41 52  1  0
 52 53  1  0
 41 54  1  0
 55 56  1  0
 56 57  1  0
 57 58  1  0
 58 59  1  0
 40 60  1  0
 55 60  1  0
 59 60  1  0
 40 61  1  0
 59 62  1  0
 61 62  1  0
 42 63  1  0
 62 63  1  0
 46 64  1  0
 47 64  1  0
 44 65  1  0
 64 66  1  0
 66 67  1  0
 48 68  1  0
 66 68  1  0
 48 69  1  0
 49 69  1  0
 49 70  1  0
 50 70  1  0
 51 70  1  0
 48 71  1  0
 50 71  1  0
 50 72  1  0
 72 73  1  0
 72 74  1  0
 72 75  1  0
 54 76  1  0
 53 78  1  0
 76 78  1  0
 77 78  1  0
  1 79  1  0
  3 80  1  0
  3 81  1  0
  4 82  1  0
  5 83  1  0
  6 84  1  0
  6 85  1  0
  7 86  1  0
  7 87  1  0
  8 88  1  0
  8 89  1  0
  9 90  1  0
 10 91  1  0
 10 92  1  0
 11 93  1  0
 12 94  1  0
 12 95  1  0
 13 96  1  0
 13 97  1  0
 14 98  1  0
 14 99  1  0
 15100  1  0
 15101  1  0
 16102  1  0
 16103  1  0
 17104  1  0
 17105  1  0
 18106  1  0
 18107  1  0
 19108  1  0
 21109  1  0
 22110  1  0
 22111  1  0
 23112  1  0
 24113  1  0
 24114  1  0
 25115  1  0
 26116  1  0
 26117  1  0
 26118  1  0
 27119  1  0
 28120  1  0
 29121  1  0
 30122  1  0
 30123  1  0
 31124  1  0
 32125  1  0
 32126  1  0
 37127  1  0
 37128  1  0
 38129  1  0
 38130  1  0
 38131  1  0
 40132  1  0
 42133  1  0
 42134  1  0
 43135  1  0
 44136  1  0
 45137  1  0
 45138  1  0
 46139  1  0
 46140  1  0
 47141  1  0
 47142  1  0
 48143  1  0
 49144  1  0
 49145  1  0
 50146  1  0
 51147  1  0
 51148  1  0
 52149  1  0
 52150  1  0
 53151  1  0
 53152  1  0
 54153  1  0
 54154  1  0
 55155  1  0
 55156  1  0
 56157  1  0
 56158  1  0
 57159  1  0
 57160  1  0
 58161  1  0
 60162  1  0
 61163  1  0
 61164  1  0
 62165  1  0
 63166  1  0
 63167  1  0
 64168  1  0
 65169  1  0
 65170  1  0
 65171  1  0
 66172  1  6
 67173  1  0
 68174  1  0
 69175  1  0
 69176  1  0
 70177  1  0
 71178  1  0
 71179  1  0
 76180  1  0
 76181  1  0
 77182  1  0
 77183  1  0
 77184  1  0
M  END
>  <PDBID>  (1) 
3IK3

>  <PDB ID>  (1) 
3IK3

>  <Generic Name>  (1) 
Ponatinib

>  <Brand Name>  (1) 
Iclusig

>  <DrugBank ID>  (1) 
DB08901

>  <ATC Codes>  (1) 
L01XE24

>  <Ligand ID>  (1) 
0LI

>  <Target Name>  (1) 
Tyrosine-protein kinase ABL1

>  <UniProt ID>  (1) 
P00519

>  <PDB ID.1>  (1) 
3IK3

>  <Seq. Identity>  (1) 
95%

$$$$
