PDB_DB00259_03
     RDKit          3D

 27 27  0  0  0  0  0  0  0  0999 V2000
    2.1826   -0.4950   -0.0715 C   0  0  0  0  0  0  0  0  0  0  0  0
    3.4546    0.1415   -0.4007 N   0  0  0  0  0  0  0  0  0  0  0  0
    1.5199    0.3538    0.9769 C   0  0  0  0  0  0  0  0  0  0  0  0
    0.1554   -0.1737    1.3465 C   0  0  0  0  0  0  0  0  0  0  0  0
   -0.7398   -0.3028    0.1227 C   0  0  0  0  0  0  0  0  0  0  0  0
    0.0200    0.1795   -1.0624 C   0  0  0  0  0  0  0  0  0  0  0  0
    1.3197   -0.5672   -1.2891 C   0  0  0  0  0  0  0  0  0  0  0  0
   -2.1815    0.4862    0.3382 S   0  0  0  0  0  0  0  0  0  0  0  0
   -3.2180    0.3773   -0.8072 N   0  0  0  0  0  0  0  0  0  0  0  0
   -2.1368    1.7510    1.1630 O   0  0  0  0  0  0  0  0  0  0  0  0
   -2.8813   -0.7154    1.6412 O   0  0  0  0  0  0  0  0  0  0  0  0
    2.3630   -1.4981    0.3620 H   0  0  0  0  0  0  0  0  0  0  0  0
    3.7382   -0.1582   -1.3551 H   0  0  0  0  0  0  0  0  0  0  0  0
    4.1727   -0.2046    0.2710 H   0  0  0  0  0  0  0  0  0  0  0  0
    1.4852    1.4216    0.7244 H   0  0  0  0  0  0  0  0  0  0  0  0
    2.1477    0.2720    1.8991 H   0  0  0  0  0  0  0  0  0  0  0  0
    0.2349   -1.1084    1.9159 H   0  0  0  0  0  0  0  0  0  0  0  0
   -0.2982    0.5850    2.0458 H   0  0  0  0  0  0  0  0  0  0  0  0
   -0.8917   -1.4145   -0.0141 H   0  0  0  0  0  0  0  0  0  0  0  0
    0.2824    1.2604   -0.9724 H   0  0  0  0  0  0  0  0  0  0  0  0
   -0.6087    0.0734   -1.9570 H   0  0  0  0  0  0  0  0  0  0  0  0
    1.1051   -1.6298   -1.5401 H   0  0  0  0  0  0  0  0  0  0  0  0
    1.7854   -0.1268   -2.1904 H   0  0  0  0  0  0  0  0  0  0  0  0
   -3.4128   -0.4714   -1.3595 H   0  0  0  0  0  0  0  0  0  0  0  0
   -4.0773    0.9297   -0.7504 H   0  0  0  0  0  0  0  0  0  0  0  0
   -2.7105    2.5457    1.0710 H   0  0  0  0  0  0  0  0  0  0  0  0
   -2.8102   -1.5111    1.0624 H   0  0  0  0  0  0  0  0  0  0  0  0
  1  2  1  0
  1  3  1  0
  3  4  1  0
  4  5  1  0
  5  6  1  0
  1  7  1  0
  6  7  1  0
  5  8  1  0
  8  9  1  0
  8 10  1  0
  8 11  1  0
  1 12  1  0
  2 13  1  0
  2 14  1  0
  3 15  1  0
  3 16  1  0
  4 17  1  0
  4 18  1  0
  5 19  1  0
  6 20  1  0
  6 21  1  0
  7 22  1  0
  7 23  1  0
  9 24  1  0
  9 25  1  0
 10 26  1  0
 11 27  1  0
M  END
>  <PDBID>  (1) 
1AJ0

>  <PDB ID>  (1) 
1AJ0

>  <Generic Name>  (1) 
Sulfanilamide

>  <Brand Name>  (1) 
AVC Vaginal#Avc#Avc Cream - 15%#Streptocid

>  <DrugBank ID>  (1) 
DB00259

>  <ATC Codes>  (1) 
J01EB06#D06BA05

>  <Ligand ID>  (1) 
SAN

>  <Target Name>  (1) 
Dihydropteroate synthase

>  <UniProt ID>  (1) 
P0AC13

>  <PDB ID.1>  (1) 
1AJ0

>  <Seq. Identity>  (1) 
100%

$$$$
