PDB_DB00203_03
     RDKit          3D

 79 82  0  0  0  0  0  0  0  0999 V2000
    6.7387    0.9053   -2.9293 C   0  0  0  0  0  0  0  0  0  0  0  0
    6.2113    0.7273   -1.5219 C   0  0  0  0  0  0  0  0  0  0  0  0
    4.7197    0.9673   -1.4912 C   0  0  0  0  0  0  0  0  0  0  0  0
    4.1480    0.8055   -0.1068 C   0  0  0  0  0  0  0  0  0  0  0  0
    4.7480    1.7355    0.8379 N   0  0  0  0  0  0  0  0  0  0  0  0
    3.7616    2.2495    1.6454 N   0  0  0  0  0  0  0  0  0  0  0  0
    4.1391    2.4126    3.0215 C   0  0  0  0  0  0  0  0  0  0  0  0
    2.5718    1.4623    1.4542 C   0  0  0  0  0  0  0  0  0  0  0  0
    2.5429    0.1961    2.2341 C   0  0  0  0  0  0  0  0  0  0  0  0
    3.8178   -0.2792    2.5471 O   0  0  0  0  0  0  0  0  0  0  0  0
    1.7863   -0.8688    1.7079 N   0  0  0  0  0  0  0  0  0  0  0  0
    1.5872   -0.9693    0.3080 C   0  0  0  0  0  0  0  0  0  0  0  0
    1.7951    0.1843   -0.4859 N   0  0  0  0  0  0  0  0  0  0  0  0
    2.6978    1.1613   -0.0316 C   0  0  0  0  0  0  0  0  0  0  0  0
    0.2235   -1.6351   -0.0133 C   0  0  0  0  0  0  0  0  0  0  0  0
   -0.8310   -0.8093    0.6068 C   0  0  0  0  0  0  0  0  0  0  0  0
   -2.0379   -0.5113   -0.2477 C   0  0  0  0  0  0  0  0  0  0  0  0
   -1.4603    0.1454   -1.5016 C   0  0  0  0  0  0  0  0  0  0  0  0
   -0.7733   -0.9449   -2.2521 C   0  0  0  0  0  0  0  0  0  0  0  0
    0.1023   -1.8439   -1.4696 C   0  0  0  0  0  0  0  0  0  0  0  0
   -0.3695   -3.1681   -1.6626 O   0  0  0  0  0  0  0  0  0  0  0  0
    0.5359   -3.9781   -2.2987 C   0  0  0  0  0  0  0  0  0  0  0  0
    1.8469   -4.1338   -1.5936 C   0  0  0  0  0  0  0  0  0  0  0  0
   -3.1135    0.4481    0.4772 S   0  0  0  0  0  0  0  0  0  0  0  0
   -2.3241    1.8722    1.0476 O   0  0  0  0  0  0  0  0  0  0  0  0
   -2.7187   -0.3969    2.3219 O   0  0  0  0  0  0  0  0  0  0  0  0
   -4.5009    0.4893    0.5953 N   0  0  0  0  0  0  0  0  0  0  0  0
   -5.4749   -0.3140   -0.0737 C   0  0  0  0  0  0  0  0  0  0  0  0
   -6.7498   -0.5227    0.7072 C   0  0  0  0  0  0  0  0  0  0  0  0
   -7.3132    0.6748    1.2534 N   0  0  0  0  0  0  0  0  0  0  0  0
   -7.8932    1.5685    0.2948 C   0  0  0  0  0  0  0  0  0  0  0  0
   -6.3071    1.3546    2.0117 C   0  0  0  0  0  0  0  0  0  0  0  0
   -5.1803    1.7001    1.0849 C   0  0  0  0  0  0  0  0  0  0  0  0
    6.1414    0.3645   -3.6777 H   0  0  0  0  0  0  0  0  0  0  0  0
    6.7922    2.0099   -3.1349 H   0  0  0  0  0  0  0  0  0  0  0  0
    7.7917    0.5350   -2.9982 H   0  0  0  0  0  0  0  0  0  0  0  0
    6.4979   -0.2749   -1.1795 H   0  0  0  0  0  0  0  0  0  0  0  0
    6.6697    1.5200   -0.8708 H   0  0  0  0  0  0  0  0  0  0  0  0
    4.5144    1.9682   -1.9154 H   0  0  0  0  0  0  0  0  0  0  0  0
    4.2449    0.2254   -2.1564 H   0  0  0  0  0  0  0  0  0  0  0  0
    4.3424   -0.2118    0.2527 H   0  0  0  0  0  0  0  0  0  0  0  0
    5.1385    2.5229    0.2637 H   0  0  0  0  0  0  0  0  0  0  0  0
    3.2538    2.2992    3.6749 H   0  0  0  0  0  0  0  0  0  0  0  0
    5.0096    1.8166    3.3276 H   0  0  0  0  0  0  0  0  0  0  0  0
    4.4478    3.4880    3.1391 H   0  0  0  0  0  0  0  0  0  0  0  0
    1.6822    2.1070    1.5793 H   0  0  0  0  0  0  0  0  0  0  0  0
    2.0954    0.4647    3.2411 H   0  0  0  0  0  0  0  0  0  0  0  0
    3.7533   -1.2050    2.8900 H   0  0  0  0  0  0  0  0  0  0  0  0
    0.8811   -0.9668    2.1933 H   0  0  0  0  0  0  0  0  0  0  0  0
    2.3601   -1.7240   -0.0497 H   0  0  0  0  0  0  0  0  0  0  0  0
    1.9741   -0.0113   -1.4816 H   0  0  0  0  0  0  0  0  0  0  0  0
    2.5231    2.1142   -0.5690 H   0  0  0  0  0  0  0  0  0  0  0  0
    0.2212   -2.6358    0.5316 H   0  0  0  0  0  0  0  0  0  0  0  0
   -1.2570   -1.2871    1.5269 H   0  0  0  0  0  0  0  0  0  0  0  0
   -0.4009    0.1992    0.8674 H   0  0  0  0  0  0  0  0  0  0  0  0
   -2.4471   -1.4762   -0.6101 H   0  0  0  0  0  0  0  0  0  0  0  0
   -0.7845    0.9716   -1.2338 H   0  0  0  0  0  0  0  0  0  0  0  0
   -2.2750    0.5467   -2.1351 H   0  0  0  0  0  0  0  0  0  0  0  0
   -0.1450   -0.4290   -3.0440 H   0  0  0  0  0  0  0  0  0  0  0  0
   -1.5222   -1.5194   -2.8622 H   0  0  0  0  0  0  0  0  0  0  0  0
    1.1370   -1.8760   -1.9166 H   0  0  0  0  0  0  0  0  0  0  0  0
    0.0674   -4.9974   -2.3382 H   0  0  0  0  0  0  0  0  0  0  0  0
    0.7174   -3.6987   -3.3555 H   0  0  0  0  0  0  0  0  0  0  0  0
    2.3641   -5.0851   -1.8861 H   0  0  0  0  0  0  0  0  0  0  0  0
    2.5678   -3.3269   -1.9148 H   0  0  0  0  0  0  0  0  0  0  0  0
    1.8058   -4.0885   -0.5043 H   0  0  0  0  0  0  0  0  0  0  0  0
   -2.0744    2.3322    0.2018 H   0  0  0  0  0  0  0  0  0  0  0  0
   -3.2344   -1.1816    2.0288 H   0  0  0  0  0  0  0  0  0  0  0  0
   -5.7441    0.1099   -1.0455 H   0  0  0  0  0  0  0  0  0  0  0  0
   -5.0367   -1.3421   -0.2201 H   0  0  0  0  0  0  0  0  0  0  0  0
   -6.5839   -1.2310    1.5583 H   0  0  0  0  0  0  0  0  0  0  0  0
   -7.4909   -0.9747    0.0246 H   0  0  0  0  0  0  0  0  0  0  0  0
   -8.9906    1.4066    0.1393 H   0  0  0  0  0  0  0  0  0  0  0  0
   -7.4274    1.5454   -0.6923 H   0  0  0  0  0  0  0  0  0  0  0  0
   -7.7934    2.6327    0.6606 H   0  0  0  0  0  0  0  0  0  0  0  0
   -5.9862    0.7656    2.8962 H   0  0  0  0  0  0  0  0  0  0  0  0
   -6.7295    2.3010    2.3928 H   0  0  0  0  0  0  0  0  0  0  0  0
   -5.5762    2.3081    0.2698 H   0  0  0  0  0  0  0  0  0  0  0  0
   -4.4211    2.3043    1.6549 H   0  0  0  0  0  0  0  0  0  0  0  0
  1  2  1  0
  2  3  1  0
  3  4  1  0
  4  5  1  0
  5  6  1  0
  6  7  1  0
  6  8  1  0
  8  9  1  0
  9 10  1  0
  9 11  1  0
 11 12  1  0
 12 13  1  0
  4 14  1  0
  8 14  1  0
 13 14  1  0
 12 15  1  0
 15 16  1  0
 16 17  1  0
 17 18  1  0
 18 19  1  0
 15 20  1  0
 19 20  1  0
 20 21  1  0
 21 22  1  0
 22 23  1  0
 17 24  1  0
 24 25  1  0
 24 26  1  0
 24 27  1  0
 27 28  1  0
 28 29  1  0
 29 30  1  0
 30 31  1  0
 30 32  1  0
 27 33  1  0
 32 33  1  0
  1 34  1  0
  1 35  1  0
  1 36  1  0
  2 37  1  0
  2 38  1  0
  3 39  1  0
  3 40  1  0
  4 41  1  0
  5 42  1  0
  7 43  1  0
  7 44  1  0
  7 45  1  0
  8 46  1  0
  9 47  1  0
 10 48  1  0
 11 49  1  0
 12 50  1  0
 13 51  1  0
 14 52  1  0
 15 53  1  0
 16 54  1  0
 16 55  1  0
 17 56  1  0
 18 57  1  0
 18 58  1  0
 19 59  1  0
 19 60  1  0
 20 61  1  0
 22 62  1  0
 22 63  1  0
 23 64  1  0
 23 65  1  0
 23 66  1  0
 25 67  1  0
 26 68  1  0
 28 69  1  0
 28 70  1  0
 29 71  1  0
 29 72  1  0
 31 73  1  0
 31 74  1  0
 31 75  1  0
 32 76  1  0
 32 77  1  0
 33 78  1  0
 33 79  1  0
M  END
>  <PDBID>  (1) 
1UDT

>  <PDB ID>  (1) 
1UDT

>  <Generic Name>  (1) 
Sildenafil

>  <Brand Name>  (1) 
Act Sildenafil#Apo-sildenafil#Apo-sildenafil R#Auro-sildenafil#Dom-sildenafil#Gd-sildenafil#Ipg-sildenafil#Jamp-sildenafil#M-sildenafil#Mar-sildenafil#Mint-sildenafil#Myl-sildenafil#Mylan-sildenafil#PMS-sildenafil#PMS-sildenafil R#Pb-sildenafil#Priva-sildenafil#Ran-sildenafil#Ratio-sildenafil#Ratio-sildenafil R#Revatio#Riva-sildenafil#Sandoz Sildenafil#Sildenafil#Sildenafil Citrate#Sildenafil R#Sildenafil Tablets#Teva-sildenafil#Van-sildenafil#Viagra

>  <DrugBank ID>  (1) 
DB00203

>  <ATC Codes>  (1) 
G04BE03

>  <Ligand ID>  (1) 
VIA

>  <Target Name>  (1) 
cGMP-specific 3',5'-cyclic phosphodiesterase

>  <UniProt ID>  (1) 
O76074

>  <PDB ID.1>  (1) 
1UDT

>  <Seq. Identity>  (1) 
94%

$$$$
