PDB_DB00966_08
     RDKit          3D

 99104  0  0  0  0  0  0  0  0999 V2000
   -1.1233   -0.2998    0.9045 C   0  0  0  0  0  0  0  0  0  0  0  0
   -0.1722    0.7643    0.7852 N   0  0  0  0  0  0  0  0  0  0  0  0
   -2.2516    0.4377    1.6551 C   0  0  0  0  0  0  0  0  0  0  0  0
   -1.8209   -0.7162   -0.3552 C   0  0  0  0  0  0  0  0  0  0  0  0
   -0.5393    1.8753    1.5288 C   0  0  0  0  0  0  0  0  0  0  0  0
    0.5390    0.8072   -0.4128 C   0  0  0  0  0  0  0  0  0  0  0  0
   -1.5139    1.2843    2.5045 N   0  0  0  0  0  0  0  0  0  0  0  0
   -3.0109   -0.6720    2.3162 C   0  0  0  0  0  0  0  0  0  0  0  0
   -2.9051   -1.6885   -0.0015 C   0  0  0  0  0  0  0  0  0  0  0  0
    0.4597    2.6618    2.2903 C   0  0  0  0  0  0  0  0  0  0  0  0
    1.5205   -0.3796   -0.4372 C   0  0  0  0  0  0  0  0  0  0  0  0
   -3.1818   -1.8591    1.4406 C   0  0  0  0  0  0  0  0  0  0  0  0
   -4.2982   -0.1400    2.8969 C   0  0  0  0  0  0  0  0  0  0  0  0
   -4.1514   -1.5476   -0.8506 C   0  0  0  0  0  0  0  0  0  0  0  0
    1.5631    3.3231    1.5575 C   0  0  0  0  0  0  0  0  0  0  0  0
    2.3243   -0.4277   -1.6942 C   0  0  0  0  0  0  0  0  0  0  0  0
    2.4989   -0.2663    0.7139 C   0  0  0  0  0  0  0  0  0  0  0  0
   -4.7863   -0.2727   -0.7928 N   0  0  0  0  0  0  0  0  0  0  0  0
   -5.1378   -2.5497   -0.5012 N   0  0  0  0  0  0  0  0  0  0  0  0
    1.0919    4.3229    0.5281 C   0  0  0  0  0  0  0  0  0  0  0  0
    3.5182   -1.3549   -1.4188 C   0  0  0  0  0  0  0  0  0  0  0  0
    3.8283    0.3221    0.2955 C   0  0  0  0  0  0  0  0  0  0  0  0
   -6.2002   -0.5604   -0.9473 C   0  0  0  0  0  0  0  0  0  0  0  0
   -4.4299    0.5522   -1.9609 C   0  0  0  0  0  0  0  0  0  0  0  0
   -6.3490   -1.8620   -0.1913 C   0  0  0  0  0  0  0  0  0  0  0  0
    4.5441   -0.6970   -0.5754 C   0  0  0  0  0  0  0  0  0  0  0  0
   -7.1027    0.4490   -0.3082 C   0  0  0  0  0  0  0  0  0  0  0  0
   -7.5905   -2.5493   -0.7326 C   0  0  0  0  0  0  0  0  0  0  0  0
    5.7015   -0.0742   -1.2792 C   0  0  1  0  0  0  0  0  0  0  0  0
   -8.3789   -0.3082    0.0830 C   0  0  0  0  0  0  0  0  0  0  0  0
   -8.6324   -1.4587   -0.8931 C   0  0  0  0  0  0  0  0  0  0  0  0
    6.6451    0.6125   -0.2927 C   0  0  0  0  0  0  0  0  0  0  0  0
    6.4632   -1.1234   -2.0625 C   0  0  0  0  0  0  0  0  0  0  0  0
    7.3968   -0.3920    0.5351 C   0  0  0  0  0  0  0  0  0  0  0  0
    7.6280    1.4577   -1.0684 C   0  0  0  0  0  0  0  0  0  0  0  0
    7.0957   -2.1447   -1.1607 C   0  0  0  0  0  0  0  0  0  0  0  0
    8.0831   -1.4522   -0.2631 C   0  0  0  0  0  0  0  0  0  0  0  0
    6.8853    2.3977   -1.7861 O   0  0  0  0  0  0  0  0  0  0  0  0
    8.4606    2.1136   -0.1372 O   0  0  0  0  0  0  0  0  0  0  0  0
   -0.7773   -1.1900    1.4345 H   0  0  0  0  0  0  0  0  0  0  0  0
   -2.9332    0.9574    0.9519 H   0  0  0  0  0  0  0  0  0  0  0  0
   -1.1853   -1.0393   -1.1820 H   0  0  0  0  0  0  0  0  0  0  0  0
   -2.3232    0.2244   -0.7325 H   0  0  0  0  0  0  0  0  0  0  0  0
   -1.1723    2.5434    0.8563 H   0  0  0  0  0  0  0  0  0  0  0  0
   -0.1098    0.7369   -1.3336 H   0  0  0  0  0  0  0  0  0  0  0  0
    1.1510    1.7056   -0.5192 H   0  0  0  0  0  0  0  0  0  0  0  0
   -2.0428    2.0470    2.9591 H   0  0  0  0  0  0  0  0  0  0  0  0
   -2.3869   -0.9742    3.2106 H   0  0  0  0  0  0  0  0  0  0  0  0
   -2.4721   -2.6903   -0.3440 H   0  0  0  0  0  0  0  0  0  0  0  0
   -0.0726    3.4692    2.8682 H   0  0  0  0  0  0  0  0  0  0  0  0
    0.9328    2.0442    3.1012 H   0  0  0  0  0  0  0  0  0  0  0  0
    0.9433   -1.2885   -0.3125 H   0  0  0  0  0  0  0  0  0  0  0  0
   -2.6247   -2.7475    1.8733 H   0  0  0  0  0  0  0  0  0  0  0  0
   -4.2545   -2.1940    1.5431 H   0  0  0  0  0  0  0  0  0  0  0  0
   -4.5377   -0.7207    3.8271 H   0  0  0  0  0  0  0  0  0  0  0  0
   -4.0962    0.8991    3.2317 H   0  0  0  0  0  0  0  0  0  0  0  0
   -5.1213   -0.1094    2.1901 H   0  0  0  0  0  0  0  0  0  0  0  0
   -3.9189   -1.7401   -1.9395 H   0  0  0  0  0  0  0  0  0  0  0  0
    2.3534    2.6664    1.1642 H   0  0  0  0  0  0  0  0  0  0  0  0
    2.1474    3.9730    2.3111 H   0  0  0  0  0  0  0  0  0  0  0  0
    1.7707   -0.9323   -2.5347 H   0  0  0  0  0  0  0  0  0  0  0  0
    2.7107    0.5367   -2.0274 H   0  0  0  0  0  0  0  0  0  0  0  0
    2.1305    0.3270    1.5622 H   0  0  0  0  0  0  0  0  0  0  0  0
    2.6911   -1.2905    1.1347 H   0  0  0  0  0  0  0  0  0  0  0  0
   -5.2208   -3.3128   -1.1782 H   0  0  0  0  0  0  0  0  0  0  0  0
    1.2431    5.3651    0.8646 H   0  0  0  0  0  0  0  0  0  0  0  0
    1.6830    4.1342   -0.4040 H   0  0  0  0  0  0  0  0  0  0  0  0
   -0.0022    4.2292    0.3330 H   0  0  0  0  0  0  0  0  0  0  0  0
    3.8837   -1.8141   -2.3306 H   0  0  0  0  0  0  0  0  0  0  0  0
    3.0652   -2.1889   -0.8005 H   0  0  0  0  0  0  0  0  0  0  0  0
    4.3772    0.5395    1.2339 H   0  0  0  0  0  0  0  0  0  0  0  0
    3.6851    1.2817   -0.2417 H   0  0  0  0  0  0  0  0  0  0  0  0
   -6.4600   -0.6946   -2.0270 H   0  0  0  0  0  0  0  0  0  0  0  0
   -4.0910    1.5565   -1.5956 H   0  0  0  0  0  0  0  0  0  0  0  0
   -3.7311    0.0563   -2.6372 H   0  0  0  0  0  0  0  0  0  0  0  0
   -5.3445    0.7590   -2.5773 H   0  0  0  0  0  0  0  0  0  0  0  0
   -6.4576   -1.5982    0.8715 H   0  0  0  0  0  0  0  0  0  0  0  0
    4.9828   -1.4323    0.1636 H   0  0  0  0  0  0  0  0  0  0  0  0
   -7.3548    1.2863   -1.0130 H   0  0  0  0  0  0  0  0  0  0  0  0
   -6.6442    0.8323    0.6047 H   0  0  0  0  0  0  0  0  0  0  0  0
   -7.3763   -2.9840   -1.7251 H   0  0  0  0  0  0  0  0  0  0  0  0
   -7.9413   -3.2594    0.0170 H   0  0  0  0  0  0  0  0  0  0  0  0
    5.3461    0.6846   -1.9999 H   0  0  0  0  0  0  0  0  0  0  0  0
   -9.2449    0.3831   -0.0268 H   0  0  0  0  0  0  0  0  0  0  0  0
   -8.2986   -0.7358    1.0891 H   0  0  0  0  0  0  0  0  0  0  0  0
   -9.6321   -1.8550   -0.6618 H   0  0  0  0  0  0  0  0  0  0  0  0
   -8.6419   -1.0866   -1.9271 H   0  0  0  0  0  0  0  0  0  0  0  0
    6.0602    1.2666    0.3498 H   0  0  0  0  0  0  0  0  0  0  0  0
    7.2810   -0.6286   -2.6372 H   0  0  0  0  0  0  0  0  0  0  0  0
    5.7855   -1.6296   -2.7584 H   0  0  0  0  0  0  0  0  0  0  0  0
    6.7892   -0.8808    1.3092 H   0  0  0  0  0  0  0  0  0  0  0  0
    8.1717    0.2042    1.1020 H   0  0  0  0  0  0  0  0  0  0  0  0
    8.3002    0.8716   -1.7082 H   0  0  0  0  0  0  0  0  0  0  0  0
    6.3911   -2.7131   -0.5572 H   0  0  0  0  0  0  0  0  0  0  0  0
    7.6646   -2.8440   -1.8089 H   0  0  0  0  0  0  0  0  0  0  0  0
    8.9320   -1.0569   -0.8463 H   0  0  0  0  0  0  0  0  0  0  0  0
    8.4592   -2.2160    0.4620 H   0  0  0  0  0  0  0  0  0  0  0  0
    6.9674    3.2576   -1.3204 H   0  0  0  0  0  0  0  0  0  0  0  0
    7.9000    2.4246    0.5979 H   0  0  0  0  0  0  0  0  0  0  0  0
  1  2  1  0
  1  3  1  0
  1  4  1  0
  2  5  1  0
  2  6  1  0
  3  7  1  0
  5  7  1  0
  3  8  1  0
  4  9  1  0
  5 10  1  0
  6 11  1  0
  8 12  1  0
  9 12  1  0
  8 13  1  0
  9 14  1  0
 10 15  1  0
 11 16  1  0
 11 17  1  0
 14 18  1  0
 14 19  1  0
 15 20  1  0
 16 21  1  0
 17 22  1  0
 18 23  1  0
 18 24  1  0
 19 25  1  0
 23 25  1  0
 21 26  1  0
 22 26  1  0
 23 27  1  0
 25 28  1  0
 26 29  1  0
 27 30  1  0
 28 31  1  0
 30 31  1  0
 29 32  1  0
 29 33  1  0
 32 34  1  0
 32 35  1  0
 33 36  1  0
 34 37  1  0
 36 37  1  0
 35 38  1  0
 35 39  1  0
  1 40  1  0
  3 41  1  0
  4 42  1  0
  4 43  1  0
  5 44  1  0
  6 45  1  0
  6 46  1  0
  7 47  1  0
  8 48  1  0
  9 49  1  0
 10 50  1  0
 10 51  1  0
 11 52  1  0
 12 53  1  0
 12 54  1  0
 13 55  1  0
 13 56  1  0
 13 57  1  0
 14 58  1  0
 15 59  1  0
 15 60  1  0
 16 61  1  0
 16 62  1  0
 17 63  1  0
 17 64  1  0
 19 65  1  0
 20 66  1  0
 20 67  1  0
 20 68  1  0
 21 69  1  0
 21 70  1  0
 22 71  1  0
 22 72  1  0
 23 73  1  0
 24 74  1  0
 24 75  1  0
 24 76  1  0
 25 77  1  0
 26 78  1  0
 27 79  1  0
 27 80  1  0
 28 81  1  0
 28 82  1  0
 29 83  1  6
 30 84  1  0
 30 85  1  0
 31 86  1  0
 31 87  1  0
 32 88  1  0
 33 89  1  0
 33 90  1  0
 34 91  1  0
 34 92  1  0
 35 93  1  0
 36 94  1  0
 36 95  1  0
 37 96  1  0
 37 97  1  0
 38 98  1  0
 39 99  1  0
M  END
>  <PDBID>  (1) 
3VN2

>  <PDB ID>  (1) 
3VN2

>  <Generic Name>  (1) 
Telmisartan

>  <Brand Name>  (1) 
Ach-telmisartan Hctz#Act Telmisartan#Act Telmisartan/hct#Apo-telmisartan#Apo-telmisartan/hctz#Auro-telmisartan#Auro-telmisartan Hctz#Mar-telmisartan#Micardis#Micardis 40mg Tab#Micardis 80mg Tab#Micardis Hct#Micardis Plus#Mylan-telmisartan#Mylan-telmisartan Hctz#Ntp-telmisartan#Ntp-telmisartan Hctz#PMS-telmisartan#PMS-telmisartan-hctz#Pendo-telmisartan#Pendo-telmisartan-hctz#Ran-telmisartan#Ran-telmisartan Hctz#Sandoz Telmisartan#Sandoz Telmisartan Hct#Septa-telmisartan#Telmisartan#Telmisartan Hctz#Telmisartan Tablets#Telmisartan and Amlodipine#Telmisartan and Hydrochlorothiazide#Telmisartan and Hydrochlorothiazide 40 Mg/12.5 mg#Telmisartan and Hydrochlorothiazide 80 Mg/12.5 mg#Telmisartan and Hydrochlorothiazide 80 Mg/25 mg#Telmisartan and Hydrochlorthiazide#Telmisartan-hctz#Telmisartan/hctz#Teva-telmisartan#Teva-telmisartan Hctz#Torrent-telmisartan#Torrent-telmisartan and Hydrochlorothiazide#Twynsta#Van-telmisartan#Van-telmisartan-hctz#Zinda-telmisartan#Zinda-telmisartan/ Hctz#Pritor

>  <DrugBank ID>  (1) 
DB00966

>  <ATC Codes>  (1) 
C09DB04#C09DA07#C09CA07

>  <Ligand ID>  (1) 
TLS

>  <Target Name>  (1) 
Peroxisome proliferator-activated receptor gamma

>  <UniProt ID>  (1) 
P37231

>  <PDB ID.1>  (1) 
3VN2

>  <Seq. Identity>  (1) 
95%

$$$$
