PDB_DB00843_05
     RDKit          3D

142148  0  0  0  0  0  0  0  0999 V2000
   -5.9135   -0.6218    0.0095 C   0  0  0  0  0  0  0  0  0  0  0  0
   -6.0604    0.8830   -0.2175 C   0  0  0  0  0  0  0  0  0  0  0  0
   -5.1105    1.5310    0.7993 C   0  0  0  0  0  0  0  0  0  0  0  0
   -3.8531    0.6834    0.7846 C   0  0  0  0  0  0  0  0  0  0  0  0
   -3.6456    0.0381   -0.5663 C   0  0  0  0  0  0  0  0  0  0  0  0
   -4.6204   -1.1172   -0.6488 C   0  0  0  0  0  0  0  0  0  0  0  0
   -2.2084   -0.4148   -0.5053 C   0  0  0  0  0  0  0  0  0  0  0  0
   -1.5274    0.7419    0.1839 C   0  0  1  0  0  0  0  0  0  0  0  0
   -2.6124    1.5080    0.9354 C   0  0  0  0  0  0  0  0  0  0  0  0
   -0.4580    0.3497    1.1462 C   0  0  0  0  0  0  0  0  0  0  0  0
    0.6553   -0.4050    0.4570 C   0  0  0  0  0  0  0  0  0  0  0  0
    1.2636    0.4722   -0.5795 C   0  0  0  0  0  0  0  0  0  0  0  0
    2.7823    0.3381   -0.6918 C   0  0  0  0  0  0  0  0  0  0  0  0
    3.4715    0.5674    0.5152 N   0  0  0  0  0  0  0  0  0  0  0  0
    2.5726    0.5048    1.6634 C   0  0  0  0  0  0  0  0  0  0  0  0
    1.6834   -0.7127    1.5327 C   0  0  0  0  0  0  0  0  0  0  0  0
    4.6313   -0.1636    0.8165 C   0  0  0  0  0  0  0  0  0  0  0  0
    5.8817    0.0716    0.0627 C   0  0  0  0  0  0  0  0  0  0  0  0
    6.9250   -0.8916    0.6789 C   0  0  0  0  0  0  0  0  0  0  0  0
    8.0595   -1.1250   -0.2518 C   0  0  0  0  0  0  0  0  0  0  0  0
    8.3779    0.0592   -1.1322 C   0  0  0  0  0  0  0  0  0  0  0  0
    7.1779    0.4946   -1.9368 C   0  0  0  0  0  0  0  0  0  0  0  0
    5.8983   -0.1831   -1.3920 C   0  0  0  0  0  0  0  0  0  0  0  0
   -1.6811   -0.6693   -1.7535 O   0  0  0  0  0  0  0  0  0  0  0  0
   -7.0264   -1.2924   -0.4618 O   0  0  0  0  0  0  0  0  0  0  0  0
   -7.6289   -1.9375    0.6362 C   0  0  0  0  0  0  0  0  0  0  0  0
   -7.3636    1.2242    0.1177 O   0  0  0  0  0  0  0  0  0  0  0  0
   -8.0254    1.8591   -0.9319 C   0  0  0  0  0  0  0  0  0  0  0  0
   -5.9135   -0.6218    0.0095 C   0  0  0  0  0  0  0  0  0  0  0  0
   -6.0604    0.8830   -0.2175 C   0  0  0  0  0  0  0  0  0  0  0  0
   -5.1105    1.5310    0.7993 C   0  0  0  0  0  0  0  0  0  0  0  0
   -3.8531    0.6834    0.7846 C   0  0  0  0  0  0  0  0  0  0  0  0
   -3.6456    0.0381   -0.5663 C   0  0  0  0  0  0  0  0  0  0  0  0
   -4.6204   -1.1172   -0.6488 C   0  0  0  0  0  0  0  0  0  0  0  0
   -2.2084   -0.4148   -0.5053 C   0  0  0  0  0  0  0  0  0  0  0  0
   -1.5274    0.7419    0.1839 C   0  0  1  0  0  0  0  0  0  0  0  0
   -2.6124    1.5080    0.9354 C   0  0  0  0  0  0  0  0  0  0  0  0
   -0.4580    0.3497    1.1462 C   0  0  0  0  0  0  0  0  0  0  0  0
    0.6553   -0.4050    0.4570 C   0  0  0  0  0  0  0  0  0  0  0  0
    1.2636    0.4722   -0.5795 C   0  0  0  0  0  0  0  0  0  0  0  0
    2.7823    0.3381   -0.6918 C   0  0  0  0  0  0  0  0  0  0  0  0
    3.4715    0.5674    0.5152 N   0  0  0  0  0  0  0  0  0  0  0  0
    2.5726    0.5048    1.6634 C   0  0  0  0  0  0  0  0  0  0  0  0
    1.6834   -0.7127    1.5327 C   0  0  0  0  0  0  0  0  0  0  0  0
    4.6313   -0.1636    0.8165 C   0  0  0  0  0  0  0  0  0  0  0  0
    5.8817    0.0716    0.0627 C   0  0  0  0  0  0  0  0  0  0  0  0
    6.9250   -0.8916    0.6789 C   0  0  0  0  0  0  0  0  0  0  0  0
    8.0595   -1.1250   -0.2518 C   0  0  0  0  0  0  0  0  0  0  0  0
    8.3779    0.0592   -1.1322 C   0  0  0  0  0  0  0  0  0  0  0  0
    7.1779    0.4946   -1.9368 C   0  0  0  0  0  0  0  0  0  0  0  0
    5.8983   -0.1831   -1.3920 C   0  0  0  0  0  0  0  0  0  0  0  0
   -1.6811   -0.6693   -1.7535 O   0  0  0  0  0  0  0  0  0  0  0  0
   -7.0264   -1.2924   -0.4618 O   0  0  0  0  0  0  0  0  0  0  0  0
   -7.6289   -1.9375    0.6362 C   0  0  0  0  0  0  0  0  0  0  0  0
   -7.3636    1.2242    0.1177 O   0  0  0  0  0  0  0  0  0  0  0  0
   -8.0254    1.8591   -0.9319 C   0  0  0  0  0  0  0  0  0  0  0  0
   -5.7816   -0.7635    1.1130 H   0  0  0  0  0  0  0  0  0  0  0  0
   -5.7872    1.1723   -1.2448 H   0  0  0  0  0  0  0  0  0  0  0  0
   -5.5964    1.4034    1.7887 H   0  0  0  0  0  0  0  0  0  0  0  0
   -4.9237    2.5849    0.5505 H   0  0  0  0  0  0  0  0  0  0  0  0
   -3.8719   -0.0880    1.5839 H   0  0  0  0  0  0  0  0  0  0  0  0
   -3.7882    0.7748   -1.3677 H   0  0  0  0  0  0  0  0  0  0  0  0
   -4.7813   -1.4489   -1.6791 H   0  0  0  0  0  0  0  0  0  0  0  0
   -4.1891   -1.9775   -0.0866 H   0  0  0  0  0  0  0  0  0  0  0  0
   -2.1980   -1.3286    0.1295 H   0  0  0  0  0  0  0  0  0  0  0  0
   -1.0802    1.3627   -0.6201 H   0  0  0  0  0  0  0  0  0  0  0  0
   -2.3315    1.6436    2.0060 H   0  0  0  0  0  0  0  0  0  0  0  0
   -2.7311    2.4743    0.4292 H   0  0  0  0  0  0  0  0  0  0  0  0
   -0.8330   -0.2768    1.9851 H   0  0  0  0  0  0  0  0  0  0  0  0
   -0.0622    1.2899    1.5993 H   0  0  0  0  0  0  0  0  0  0  0  0
    0.2577   -1.3401    0.0048 H   0  0  0  0  0  0  0  0  0  0  0  0
    0.8803    0.1945   -1.5719 H   0  0  0  0  0  0  0  0  0  0  0  0
    1.0289    1.5549   -0.4406 H   0  0  0  0  0  0  0  0  0  0  0  0
    3.0526    1.1671   -1.4132 H   0  0  0  0  0  0  0  0  0  0  0  0
    3.0303   -0.6102   -1.2097 H   0  0  0  0  0  0  0  0  0  0  0  0
    3.2099    0.3405    2.5716 H   0  0  0  0  0  0  0  0  0  0  0  0
    1.9457    1.3934    1.7452 H   0  0  0  0  0  0  0  0  0  0  0  0
    2.2469   -1.5990    1.1715 H   0  0  0  0  0  0  0  0  0  0  0  0
    1.2264   -0.9819    2.4879 H   0  0  0  0  0  0  0  0  0  0  0  0
    4.3688   -1.2599    0.8481 H   0  0  0  0  0  0  0  0  0  0  0  0
    4.8889    0.0423    1.9092 H   0  0  0  0  0  0  0  0  0  0  0  0
    6.3178    1.0947    0.2433 H   0  0  0  0  0  0  0  0  0  0  0  0
    7.2062   -0.5667    1.6911 H   0  0  0  0  0  0  0  0  0  0  0  0
    6.3680   -1.8661    0.7878 H   0  0  0  0  0  0  0  0  0  0  0  0
    7.9392   -2.0522   -0.8834 H   0  0  0  0  0  0  0  0  0  0  0  0
    8.9830   -1.3140    0.3643 H   0  0  0  0  0  0  0  0  0  0  0  0
    9.1360   -0.2906   -1.8705 H   0  0  0  0  0  0  0  0  0  0  0  0
    8.8330    0.8737   -0.5584 H   0  0  0  0  0  0  0  0  0  0  0  0
    7.2653    0.2624   -3.0100 H   0  0  0  0  0  0  0  0  0  0  0  0
    7.0729    1.5906   -1.8198 H   0  0  0  0  0  0  0  0  0  0  0  0
    5.0812    0.1985   -1.9946 H   0  0  0  0  0  0  0  0  0  0  0  0
    6.0955   -1.2730   -1.5538 H   0  0  0  0  0  0  0  0  0  0  0  0
   -2.1798   -1.4004   -2.1709 H   0  0  0  0  0  0  0  0  0  0  0  0
   -7.9321   -1.1886    1.4078 H   0  0  0  0  0  0  0  0  0  0  0  0
   -8.4885   -2.5594    0.3349 H   0  0  0  0  0  0  0  0  0  0  0  0
   -6.8185   -2.5507    1.1074 H   0  0  0  0  0  0  0  0  0  0  0  0
   -9.0511    2.0972   -0.5854 H   0  0  0  0  0  0  0  0  0  0  0  0
   -7.5468    2.8166   -1.2111 H   0  0  0  0  0  0  0  0  0  0  0  0
   -8.1078    1.2421   -1.8386 H   0  0  0  0  0  0  0  0  0  0  0  0
   -5.7816   -0.7635    1.1130 H   0  0  0  0  0  0  0  0  0  0  0  0
   -5.7872    1.1723   -1.2448 H   0  0  0  0  0  0  0  0  0  0  0  0
   -5.5964    1.4034    1.7887 H   0  0  0  0  0  0  0  0  0  0  0  0
   -4.9237    2.5849    0.5505 H   0  0  0  0  0  0  0  0  0  0  0  0
   -3.8719   -0.0880    1.5839 H   0  0  0  0  0  0  0  0  0  0  0  0
   -3.7882    0.7748   -1.3677 H   0  0  0  0  0  0  0  0  0  0  0  0
   -4.7813   -1.4489   -1.6791 H   0  0  0  0  0  0  0  0  0  0  0  0
   -4.1891   -1.9775   -0.0866 H   0  0  0  0  0  0  0  0  0  0  0  0
   -2.1980   -1.3286    0.1295 H   0  0  0  0  0  0  0  0  0  0  0  0
   -1.0802    1.3627   -0.6201 H   0  0  0  0  0  0  0  0  0  0  0  0
   -2.3315    1.6436    2.0060 H   0  0  0  0  0  0  0  0  0  0  0  0
   -2.7311    2.4743    0.4292 H   0  0  0  0  0  0  0  0  0  0  0  0
   -0.8330   -0.2768    1.9851 H   0  0  0  0  0  0  0  0  0  0  0  0
   -0.0622    1.2899    1.5993 H   0  0  0  0  0  0  0  0  0  0  0  0
    0.2577   -1.3401    0.0048 H   0  0  0  0  0  0  0  0  0  0  0  0
    0.8803    0.1945   -1.5719 H   0  0  0  0  0  0  0  0  0  0  0  0
    1.0289    1.5549   -0.4406 H   0  0  0  0  0  0  0  0  0  0  0  0
    3.0526    1.1671   -1.4132 H   0  0  0  0  0  0  0  0  0  0  0  0
    3.0303   -0.6102   -1.2097 H   0  0  0  0  0  0  0  0  0  0  0  0
    3.2099    0.3405    2.5716 H   0  0  0  0  0  0  0  0  0  0  0  0
    1.9457    1.3934    1.7452 H   0  0  0  0  0  0  0  0  0  0  0  0
    2.2469   -1.5990    1.1715 H   0  0  0  0  0  0  0  0  0  0  0  0
    1.2264   -0.9819    2.4879 H   0  0  0  0  0  0  0  0  0  0  0  0
    4.3688   -1.2599    0.8481 H   0  0  0  0  0  0  0  0  0  0  0  0
    4.8889    0.0423    1.9092 H   0  0  0  0  0  0  0  0  0  0  0  0
    6.3178    1.0947    0.2433 H   0  0  0  0  0  0  0  0  0  0  0  0
    7.2062   -0.5667    1.6911 H   0  0  0  0  0  0  0  0  0  0  0  0
    6.3680   -1.8661    0.7878 H   0  0  0  0  0  0  0  0  0  0  0  0
    7.9392   -2.0522   -0.8834 H   0  0  0  0  0  0  0  0  0  0  0  0
    8.9830   -1.3140    0.3643 H   0  0  0  0  0  0  0  0  0  0  0  0
    9.1360   -0.2906   -1.8705 H   0  0  0  0  0  0  0  0  0  0  0  0
    8.8330    0.8737   -0.5584 H   0  0  0  0  0  0  0  0  0  0  0  0
    7.2653    0.2624   -3.0100 H   0  0  0  0  0  0  0  0  0  0  0  0
    7.0729    1.5906   -1.8198 H   0  0  0  0  0  0  0  0  0  0  0  0
    5.0812    0.1985   -1.9946 H   0  0  0  0  0  0  0  0  0  0  0  0
    6.0955   -1.2730   -1.5538 H   0  0  0  0  0  0  0  0  0  0  0  0
   -2.1798   -1.4004   -2.1709 H   0  0  0  0  0  0  0  0  0  0  0  0
   -7.9321   -1.1886    1.4078 H   0  0  0  0  0  0  0  0  0  0  0  0
   -8.4885   -2.5594    0.3349 H   0  0  0  0  0  0  0  0  0  0  0  0
   -6.8185   -2.5507    1.1074 H   0  0  0  0  0  0  0  0  0  0  0  0
   -9.0511    2.0972   -0.5854 H   0  0  0  0  0  0  0  0  0  0  0  0
   -7.5468    2.8166   -1.2111 H   0  0  0  0  0  0  0  0  0  0  0  0
   -8.1078    1.2421   -1.8386 H   0  0  0  0  0  0  0  0  0  0  0  0
  1  2  1  0
  2  3  1  0
  3  4  1  0
  4  5  1  0
  1  6  1  0
  5  6  1  0
  5  7  1  0
  7  8  1  0
  4  9  1  0
  8  9  1  0
  8 10  1  0
 10 11  1  0
 11 12  1  0
 12 13  1  0
 13 14  1  0
 14 15  1  0
 11 16  1  0
 15 16  1  0
 14 17  1  0
 17 18  1  0
 18 19  1  0
 19 20  1  0
 20 21  1  0
 21 22  1  0
 18 23  1  0
 22 23  1  0
  7 24  1  0
  1 25  1  0
 25 26  1  0
  2 27  1  0
 27 28  1  0
 29 30  1  0
 30 31  1  0
 31 32  1  0
 32 33  1  0
 29 34  1  0
 33 34  1  0
 33 35  1  0
 35 36  1  0
 32 37  1  0
 36 37  1  0
 36 38  1  0
 38 39  1  0
 39 40  1  0
 40 41  1  0
 41 42  1  0
 42 43  1  0
 39 44  1  0
 43 44  1  0
 42 45  1  0
 45 46  1  0
 46 47  1  0
 47 48  1  0
 48 49  1  0
 49 50  1  0
 46 51  1  0
 50 51  1  0
 35 52  1  0
 29 53  1  0
 53 54  1  0
 30 55  1  0
 55 56  1  0
  1 57  1  0
  2 58  1  0
  3 59  1  0
  3 60  1  0
  4 61  1  0
  5 62  1  0
  6 63  1  0
  6 64  1  0
  7 65  1  0
  8 66  1  6
  9 67  1  0
  9 68  1  0
 10 69  1  0
 10 70  1  0
 11 71  1  0
 12 72  1  0
 12 73  1  0
 13 74  1  0
 13 75  1  0
 15 76  1  0
 15 77  1  0
 16 78  1  0
 16 79  1  0
 17 80  1  0
 17 81  1  0
 18 82  1  0
 19 83  1  0
 19 84  1  0
 20 85  1  0
 20 86  1  0
 21 87  1  0
 21 88  1  0
 22 89  1  0
 22 90  1  0
 23 91  1  0
 23 92  1  0
 24 93  1  0
 26 94  1  0
 26 95  1  0
 26 96  1  0
 28 97  1  0
 28 98  1  0
 28 99  1  0
 29100  1  0
 30101  1  0
 31102  1  0
 31103  1  0
 32104  1  0
 33105  1  0
 34106  1  0
 34107  1  0
 35108  1  0
 36109  1  6
 37110  1  0
 37111  1  0
 38112  1  0
 38113  1  0
 39114  1  0
 40115  1  0
 40116  1  0
 41117  1  0
 41118  1  0
 43119  1  0
 43120  1  0
 44121  1  0
 44122  1  0
 45123  1  0
 45124  1  0
 46125  1  0
 47126  1  0
 47127  1  0
 48128  1  0
 48129  1  0
 49130  1  0
 49131  1  0
 50132  1  0
 50133  1  0
 51134  1  0
 51135  1  0
 52136  1  0
 54137  1  0
 54138  1  0
 54139  1  0
 56140  1  0
 56141  1  0
 56142  1  0
M  END
>  <PDBID>  (1) 
4EY7

>  <PDB ID>  (1) 
4EY7

>  <Generic Name>  (1) 
Donepezil

>  <Brand Name>  (1) 
Accel-donepezil#Act Donepezil#Act Donepezil ODT#Ag-donepezil#Apo-donepezil#Aricept#Aricept ODT#Aricept Rdt#Auro-donepezil#Bio-donepezil#Dom-donepezil#Donepezil#Donepezil Hydrochloride#Donepezil Hydrochloride 10 mg#Donepezil Hydrochloride 10mg#Donepezil Hydrochloride 5 mg#Donepezil Hydrochloride ODT#Donepezil Hydrochloride Tablets#Donepezil Hydrochloride Tablets USP#Donepezil Hyrochloride 5mg#Ecl-donepezil#Ipg-donepezil#Jamp-donepezil#Jamp-donepezil Tablets#Mar-donepezil#Mint-donepezil#Mylan-donepezil#Namzaric#Nat-donepezil#PMS-donepezil#Priva-donepezil#Ran-donepezil#Riva-donepezil#Sandoz Donepezil#Sandoz Donepezil ODT#Septa Donepezil#Teva-donepezil#Van-donepezil#Alzepil#Davia#Depzil#Donecept#Donecil#Donep#Donepex#Donesyn#Dopezil#Eranz#Memac#Nomi-Nox#Pezale#Redumas#Zolpezil

>  <DrugBank ID>  (1) 
DB00843

>  <ATC Codes>  (1) 
N06DA02#N06DA52#N06DA53

>  <Ligand ID>  (1) 
E20

>  <Target Name>  (1) 
Acetylcholinesterase

>  <UniProt ID>  (1) 
P22303

>  <PDB ID.1>  (1) 
4EY7

>  <Seq. Identity>  (1) 
97%

$$$$
