PDB_DB00205_09
     RDKit          3D

 84 86  0  0  0  0  0  0  0  0999 V2000
   -1.3203   -2.0376    0.3695 N   0  0  0  0  0  0  0  0  0  0  0  0
   -2.4307   -1.2996    0.9417 C   0  0  0  0  0  0  0  0  0  0  0  0
   -0.9804   -1.3535   -0.8654 C   0  0  0  0  0  0  0  0  0  0  0  0
   -0.5592    0.0651   -0.6670 C   0  0  0  0  0  0  0  0  0  0  0  0
   -1.5467    0.7358    0.2371 C   0  0  0  0  0  0  0  0  0  0  0  0
   -1.8455   -0.0415    1.4274 N   0  0  0  0  0  0  0  0  0  0  0  0
    0.8600    0.2487   -0.2642 C   0  0  0  0  0  0  0  0  0  0  0  0
    1.2536   -0.3997    1.0109 C   0  0  0  0  0  0  0  0  0  0  0  0
    2.7670   -0.5426    1.1084 C   0  0  0  0  0  0  0  0  0  0  0  0
    3.4748    0.5515    0.3443 C   0  0  0  0  0  0  0  0  0  0  0  0
    3.1125    0.5944   -1.1077 C   0  0  0  0  0  0  0  0  0  0  0  0
    1.8053   -0.1751   -1.3457 C   0  0  0  0  0  0  0  0  0  0  0  0
   -0.0677   -2.1310   -1.6693 N   0  0  0  0  0  0  0  0  0  0  0  0
   -3.1030   -2.0156    1.9879 N   0  0  0  0  0  0  0  0  0  0  0  0
   -1.2163    2.1604    0.5558 C   0  0  0  0  0  0  0  0  0  0  0  0
   -1.1712    2.9542   -0.7324 C   0  0  0  0  0  0  0  0  0  0  0  0
    3.2327    2.1450    1.0978 Cl  0  0  0  0  0  0  0  0  0  0  0  0
   -1.3203   -2.0376    0.3695 N   0  0  0  0  0  0  0  0  0  0  0  0
   -2.4307   -1.2996    0.9417 C   0  0  0  0  0  0  0  0  0  0  0  0
   -0.9804   -1.3535   -0.8654 C   0  0  0  0  0  0  0  0  0  0  0  0
   -0.5592    0.0651   -0.6670 C   0  0  0  0  0  0  0  0  0  0  0  0
   -1.5467    0.7358    0.2371 C   0  0  0  0  0  0  0  0  0  0  0  0
   -1.8455   -0.0415    1.4274 N   0  0  0  0  0  0  0  0  0  0  0  0
    0.8600    0.2487   -0.2642 C   0  0  0  0  0  0  0  0  0  0  0  0
    1.2536   -0.3997    1.0109 C   0  0  0  0  0  0  0  0  0  0  0  0
    2.7670   -0.5426    1.1084 C   0  0  0  0  0  0  0  0  0  0  0  0
    3.4748    0.5515    0.3443 C   0  0  0  0  0  0  0  0  0  0  0  0
    3.1125    0.5944   -1.1077 C   0  0  0  0  0  0  0  0  0  0  0  0
    1.8053   -0.1751   -1.3457 C   0  0  0  0  0  0  0  0  0  0  0  0
   -0.0677   -2.1310   -1.6693 N   0  0  0  0  0  0  0  0  0  0  0  0
   -3.1030   -2.0156    1.9879 N   0  0  0  0  0  0  0  0  0  0  0  0
   -1.2163    2.1604    0.5558 C   0  0  0  0  0  0  0  0  0  0  0  0
   -1.1712    2.9542   -0.7324 C   0  0  0  0  0  0  0  0  0  0  0  0
    3.2327    2.1450    1.0978 Cl  0  0  0  0  0  0  0  0  0  0  0  0
   -1.6965   -2.9823    0.0727 H   0  0  0  0  0  0  0  0  0  0  0  0
   -3.1502   -1.0622    0.1336 H   0  0  0  0  0  0  0  0  0  0  0  0
   -1.9469   -1.3203   -1.4531 H   0  0  0  0  0  0  0  0  0  0  0  0
   -0.6722    0.5711   -1.6738 H   0  0  0  0  0  0  0  0  0  0  0  0
   -2.5214    0.7640   -0.3385 H   0  0  0  0  0  0  0  0  0  0  0  0
   -2.6462    0.4521    1.9065 H   0  0  0  0  0  0  0  0  0  0  0  0
    1.0158    1.3604   -0.1334 H   0  0  0  0  0  0  0  0  0  0  0  0
    0.8448   -1.4196    1.1327 H   0  0  0  0  0  0  0  0  0  0  0  0
    0.9487    0.1703    1.9238 H   0  0  0  0  0  0  0  0  0  0  0  0
    3.1025   -0.4586    2.1653 H   0  0  0  0  0  0  0  0  0  0  0  0
    3.1245   -1.5103    0.7341 H   0  0  0  0  0  0  0  0  0  0  0  0
    4.5608    0.3328    0.4112 H   0  0  0  0  0  0  0  0  0  0  0  0
    3.8655    0.1144   -1.7664 H   0  0  0  0  0  0  0  0  0  0  0  0
    3.0174    1.6474   -1.4709 H   0  0  0  0  0  0  0  0  0  0  0  0
    1.4753    0.0337   -2.3584 H   0  0  0  0  0  0  0  0  0  0  0  0
    2.0838   -1.2491   -1.1712 H   0  0  0  0  0  0  0  0  0  0  0  0
    0.0707   -3.0505   -1.2167 H   0  0  0  0  0  0  0  0  0  0  0  0
   -0.4146   -2.3116   -2.6358 H   0  0  0  0  0  0  0  0  0  0  0  0
   -3.5622   -1.3493    2.6578 H   0  0  0  0  0  0  0  0  0  0  0  0
   -3.8883   -2.5720    1.5704 H   0  0  0  0  0  0  0  0  0  0  0  0
   -2.0480    2.5356    1.2171 H   0  0  0  0  0  0  0  0  0  0  0  0
   -0.2943    2.3193    1.1002 H   0  0  0  0  0  0  0  0  0  0  0  0
   -0.1488    3.2647   -1.0132 H   0  0  0  0  0  0  0  0  0  0  0  0
   -1.7814    3.8776   -0.6348 H   0  0  0  0  0  0  0  0  0  0  0  0
   -1.6039    2.3834   -1.5884 H   0  0  0  0  0  0  0  0  0  0  0  0
   -1.6965   -2.9823    0.0727 H   0  0  0  0  0  0  0  0  0  0  0  0
   -3.1502   -1.0622    0.1336 H   0  0  0  0  0  0  0  0  0  0  0  0
   -1.9469   -1.3203   -1.4531 H   0  0  0  0  0  0  0  0  0  0  0  0
   -0.6722    0.5711   -1.6738 H   0  0  0  0  0  0  0  0  0  0  0  0
   -2.5214    0.7640   -0.3385 H   0  0  0  0  0  0  0  0  0  0  0  0
   -2.6462    0.4521    1.9065 H   0  0  0  0  0  0  0  0  0  0  0  0
    1.0158    1.3604   -0.1334 H   0  0  0  0  0  0  0  0  0  0  0  0
    0.8448   -1.4196    1.1327 H   0  0  0  0  0  0  0  0  0  0  0  0
    0.9487    0.1703    1.9238 H   0  0  0  0  0  0  0  0  0  0  0  0
    3.1025   -0.4586    2.1653 H   0  0  0  0  0  0  0  0  0  0  0  0
    3.1245   -1.5103    0.7341 H   0  0  0  0  0  0  0  0  0  0  0  0
    4.5608    0.3328    0.4112 H   0  0  0  0  0  0  0  0  0  0  0  0
    3.8655    0.1144   -1.7664 H   0  0  0  0  0  0  0  0  0  0  0  0
    3.0174    1.6474   -1.4709 H   0  0  0  0  0  0  0  0  0  0  0  0
    1.4753    0.0337   -2.3584 H   0  0  0  0  0  0  0  0  0  0  0  0
    2.0838   -1.2491   -1.1712 H   0  0  0  0  0  0  0  0  0  0  0  0
    0.0707   -3.0505   -1.2167 H   0  0  0  0  0  0  0  0  0  0  0  0
   -0.4146   -2.3116   -2.6358 H   0  0  0  0  0  0  0  0  0  0  0  0
   -3.5622   -1.3493    2.6578 H   0  0  0  0  0  0  0  0  0  0  0  0
   -3.8883   -2.5720    1.5704 H   0  0  0  0  0  0  0  0  0  0  0  0
   -2.0480    2.5356    1.2171 H   0  0  0  0  0  0  0  0  0  0  0  0
   -0.2943    2.3193    1.1002 H   0  0  0  0  0  0  0  0  0  0  0  0
   -0.1488    3.2647   -1.0132 H   0  0  0  0  0  0  0  0  0  0  0  0
   -1.7814    3.8776   -0.6348 H   0  0  0  0  0  0  0  0  0  0  0  0
   -1.6039    2.3834   -1.5884 H   0  0  0  0  0  0  0  0  0  0  0  0
  1  2  1  0
  1  3  1  0
  3  4  1  0
  4  5  1  0
  2  6  1  0
  5  6  1  0
  4  7  1  0
  7  8  1  0
  8  9  1  0
  9 10  1  0
 10 11  1  0
  7 12  1  0
 11 12  1  0
  3 13  1  0
  2 14  1  0
  5 15  1  0
 15 16  1  0
 10 17  1  0
 18 19  1  0
 18 20  1  0
 20 21  1  0
 21 22  1  0
 19 23  1  0
 22 23  1  0
 21 24  1  0
 24 25  1  0
 25 26  1  0
 26 27  1  0
 27 28  1  0
 24 29  1  0
 28 29  1  0
 20 30  1  0
 19 31  1  0
 22 32  1  0
 32 33  1  0
 27 34  1  0
  1 35  1  0
  2 36  1  0
  3 37  1  0
  4 38  1  0
  5 39  1  0
  6 40  1  0
  7 41  1  0
  8 42  1  0
  8 43  1  0
  9 44  1  0
  9 45  1  0
 10 46  1  0
 11 47  1  0
 11 48  1  0
 12 49  1  0
 12 50  1  0
 13 51  1  0
 13 52  1  0
 14 53  1  0
 14 54  1  0
 15 55  1  0
 15 56  1  0
 16 57  1  0
 16 58  1  0
 16 59  1  0
 18 60  1  0
 19 61  1  0
 20 62  1  0
 21 63  1  0
 22 64  1  0
 23 65  1  0
 24 66  1  0
 25 67  1  0
 25 68  1  0
 26 69  1  0
 26 70  1  0
 27 71  1  0
 28 72  1  0
 28 73  1  0
 29 74  1  0
 29 75  1  0
 30 76  1  0
 30 77  1  0
 31 78  1  0
 31 79  1  0
 32 80  1  0
 32 81  1  0
 33 82  1  0
 33 83  1  0
 33 84  1  0
M  END
>  <PDBID>  (1) 
3QFX

>  <PDB ID>  (1) 
3QFX

>  <Generic Name>  (1) 
Pyrimethamine

>  <Brand Name>  (1) 
Daraprim#Fansidar Tablets#Pyrimethamine Leucovorin

>  <DrugBank ID>  (1) 
DB00205

>  <ATC Codes>  (1) 
P01BF04#P01BD01#P01BD51

>  <Ligand ID>  (1) 
CP6

>  <Target Name>  (1) 
Dihydrofolate reductase

>  <UniProt ID>  (1) 
P00374

>  <PDB ID.1>  (1) 
3QFX

>  <Seq. Identity>  (1) 
32%

$$$$
