PDB_DB00503_00
     RDKit          3D

124127  0  0  0  0  0  0  0  0999 V2000
   -9.9505   -0.3195    0.4546 C   0  0  0  0  0  0  0  0  0  0  0  0
   -9.3145   -0.3606    1.8211 C   0  0  0  0  0  0  0  0  0  0  0  0
  -10.3675    0.8690    2.6924 S   0  0  0  0  0  0  0  0  0  0  0  0
  -11.4191    1.3110    1.2419 C   0  0  0  0  0  0  0  0  0  0  0  0
  -10.4376    0.9971    0.1896 N   0  0  0  0  0  0  0  0  0  0  0  0
   -7.8726    0.0786    1.8316 C   0  0  0  0  0  0  0  0  0  0  0  0
   -7.1052   -0.7305    1.0054 O   0  0  0  0  0  0  0  0  0  0  0  0
   -5.7351   -0.3610    1.0581 C   0  0  0  0  0  0  0  0  0  0  0  0
   -5.1033   -1.4706    1.5951 O   0  0  0  0  0  0  0  0  0  0  0  0
   -5.3569    0.0287   -0.2440 N   0  0  0  0  0  0  0  0  0  0  0  0
   -4.0268    0.4199   -0.5080 C   0  0  2  0  0  0  0  0  0  0  0  0
   -3.0101   -0.6888   -0.3265 C   0  0  2  0  0  0  0  0  0  0  0  0
   -1.5784   -0.2284   -0.4417 C   0  0  0  0  0  0  0  0  0  0  0  0
   -0.6968   -1.4634   -0.2979 C   0  0  2  0  0  0  0  0  0  0  0  0
   -3.5577    1.7370   -0.0298 C   0  0  0  0  0  0  0  0  0  0  0  0
   -4.3242    2.8725   -0.6215 C   0  0  0  0  0  0  0  0  0  0  0  0
   -5.7777    2.9566   -0.3668 C   0  0  0  0  0  0  0  0  0  0  0  0
   -6.3773    3.9575   -1.3498 C   0  0  0  0  0  0  0  0  0  0  0  0
   -5.3566    4.8279   -1.9979 C   0  0  0  0  0  0  0  0  0  0  0  0
   -4.3400    5.2884   -1.0125 C   0  0  0  0  0  0  0  0  0  0  0  0
   -3.7212    4.2174   -0.1715 C   0  0  0  0  0  0  0  0  0  0  0  0
   -3.2053   -1.7701   -1.1618 O   0  0  0  0  0  0  0  0  0  0  0  0
   -0.8425   -2.1842    0.9925 C   0  0  0  0  0  0  0  0  0  0  0  0
    0.0763   -3.3883    1.0253 C   0  0  0  0  0  0  0  0  0  0  0  0
   -0.0869   -4.1089    2.3709 C   0  0  0  0  0  0  0  0  0  0  0  0
    0.9993   -5.1633    2.3895 C   0  0  0  0  0  0  0  0  0  0  0  0
    0.6444   -6.1960    1.3486 C   0  0  0  0  0  0  0  0  0  0  0  0
   -0.5131   -5.7374    0.4988 C   0  0  0  0  0  0  0  0  0  0  0  0
   -0.1442   -4.3710   -0.0709 C   0  0  0  0  0  0  0  0  0  0  0  0
    0.6459   -1.2382   -0.6944 N   0  0  0  0  0  0  0  0  0  0  0  0
    3.4224   -1.3708   -0.7218 N   0  0  0  0  0  0  0  0  0  0  0  0
    2.7318   -0.1111   -0.7184 C   0  0  2  0  0  0  0  0  0  0  0  0
    1.4182   -0.2884    0.0244 C   0  0  1  0  0  0  0  0  0  0  0  0
    0.8360    0.9936    0.0052 O   0  0  0  0  0  0  0  0  0  0  0  0
    2.4485    0.4588   -2.0655 C   0  0  0  0  0  0  0  0  0  0  0  0
    1.5988   -0.3938   -2.9574 C   0  0  0  0  0  0  0  0  0  0  0  0
    3.7185    0.9076   -2.7773 C   0  0  0  0  0  0  0  0  0  0  0  0
    4.8438   -1.1998   -0.4188 C   0  0  1  0  0  0  0  0  0  0  0  0
    5.0819   -0.5822    0.8302 N   0  0  0  0  0  0  0  0  0  0  0  0
    6.0358    0.4468    0.8808 C   0  0  0  0  0  0  0  0  0  0  0  0
    5.3092   -2.5381   -0.3085 O   0  0  0  0  0  0  0  0  0  0  0  0
    7.4711    0.1647    0.6867 C   0  0  0  0  0  0  0  0  0  0  0  0
    7.8596   -0.4381   -0.6436 C   0  0  0  0  0  0  0  0  0  0  0  0
    9.6933   -0.1908   -0.4652 S   0  0  0  0  0  0  0  0  0  0  0  0
    9.5758    1.2466    0.6528 C   0  0  0  0  0  0  0  0  0  0  0  0
    8.1641    1.4417    0.7507 N   0  0  0  0  0  0  0  0  0  0  0  0
   10.1447    2.4823   -0.0384 C   0  0  0  0  0  0  0  0  0  0  0  0
   10.0239    3.6348    0.9315 C   0  0  0  0  0  0  0  0  0  0  0  0
   11.5839    2.2717   -0.4069 C   0  0  0  0  0  0  0  0  0  0  0  0
    5.0567   -1.4911    1.9492 C   0  0  0  0  0  0  0  0  0  0  0  0
   -9.1830   -0.5510   -0.3109 H   0  0  0  0  0  0  0  0  0  0  0  0
  -10.7774   -1.0633    0.4113 H   0  0  0  0  0  0  0  0  0  0  0  0
   -9.4366   -1.3550    2.3044 H   0  0  0  0  0  0  0  0  0  0  0  0
  -12.2595    0.6120    1.1557 H   0  0  0  0  0  0  0  0  0  0  0  0
  -11.6544    2.3720    1.2162 H   0  0  0  0  0  0  0  0  0  0  0  0
   -9.6318    1.6765    0.2748 H   0  0  0  0  0  0  0  0  0  0  0  0
   -7.8363    1.1509    1.5091 H   0  0  0  0  0  0  0  0  0  0  0  0
   -7.5109    0.0589    2.8725 H   0  0  0  0  0  0  0  0  0  0  0  0
   -5.6977    0.4894    1.7898 H   0  0  0  0  0  0  0  0  0  0  0  0
   -4.7522   -1.3319    2.5110 H   0  0  0  0  0  0  0  0  0  0  0  0
   -5.6317   -0.7255   -0.9151 H   0  0  0  0  0  0  0  0  0  0  0  0
   -4.0173    0.5441   -1.6694 H   0  0  0  0  0  0  0  0  0  0  0  0
   -3.1251   -1.1046    0.7212 H   0  0  0  0  0  0  0  0  0  0  0  0
   -1.4248    0.1606   -1.4588 H   0  0  0  0  0  0  0  0  0  0  0  0
   -1.3443    0.5013    0.3732 H   0  0  0  0  0  0  0  0  0  0  0  0
   -1.1209   -2.1537   -1.1045 H   0  0  0  0  0  0  0  0  0  0  0  0
   -2.5036    1.8649   -0.4079 H   0  0  0  0  0  0  0  0  0  0  0  0
   -3.4529    1.8120    1.0749 H   0  0  0  0  0  0  0  0  0  0  0  0
   -4.1994    2.9018   -1.7508 H   0  0  0  0  0  0  0  0  0  0  0  0
   -6.3371    2.0311   -0.5191 H   0  0  0  0  0  0  0  0  0  0  0  0
   -5.9612    3.3215    0.6837 H   0  0  0  0  0  0  0  0  0  0  0  0
   -7.0929    4.5997   -0.7765 H   0  0  0  0  0  0  0  0  0  0  0  0
   -6.9574    3.4104   -2.1495 H   0  0  0  0  0  0  0  0  0  0  0  0
   -4.8873    4.3674   -2.9123 H   0  0  0  0  0  0  0  0  0  0  0  0
   -5.8512    5.7615   -2.3947 H   0  0  0  0  0  0  0  0  0  0  0  0
   -3.5558    5.8588   -1.5881 H   0  0  0  0  0  0  0  0  0  0  0  0
   -4.8324    6.0391   -0.3487 H   0  0  0  0  0  0  0  0  0  0  0  0
   -3.9755    4.3540    0.8877 H   0  0  0  0  0  0  0  0  0  0  0  0
   -2.6178    4.2072   -0.3450 H   0  0  0  0  0  0  0  0  0  0  0  0
   -3.8962   -1.4876   -1.8378 H   0  0  0  0  0  0  0  0  0  0  0  0
   -1.8645   -2.4542    1.2911 H   0  0  0  0  0  0  0  0  0  0  0  0
   -0.4692   -1.4991    1.8035 H   0  0  0  0  0  0  0  0  0  0  0  0
    1.1278   -3.0297    1.0316 H   0  0  0  0  0  0  0  0  0  0  0  0
    0.0600   -3.3719    3.2135 H   0  0  0  0  0  0  0  0  0  0  0  0
   -1.0935   -4.5132    2.5085 H   0  0  0  0  0  0  0  0  0  0  0  0
    1.9241   -4.6413    2.0035 H   0  0  0  0  0  0  0  0  0  0  0  0
    1.1744   -5.6179    3.3679 H   0  0  0  0  0  0  0  0  0  0  0  0
    0.4643   -7.2022    1.7878 H   0  0  0  0  0  0  0  0  0  0  0  0
    1.5060   -6.3608    0.6341 H   0  0  0  0  0  0  0  0  0  0  0  0
   -0.5673   -6.4805   -0.3563 H   0  0  0  0  0  0  0  0  0  0  0  0
   -1.4889   -5.7651    0.9858 H   0  0  0  0  0  0  0  0  0  0  0  0
   -0.9901   -4.0759   -0.7404 H   0  0  0  0  0  0  0  0  0  0  0  0
    0.7904   -4.5572   -0.6799 H   0  0  0  0  0  0  0  0  0  0  0  0
    1.1510   -2.1354   -0.7496 H   0  0  0  0  0  0  0  0  0  0  0  0
    3.0529   -1.9371    0.0831 H   0  0  0  0  0  0  0  0  0  0  0  0
    3.3309    0.6764   -0.1607 H   0  0  0  0  0  0  0  0  0  0  0  0
    1.5960   -0.5576    1.0813 H   0  0  0  0  0  0  0  0  0  0  0  0
    1.3690    1.6324    0.5322 H   0  0  0  0  0  0  0  0  0  0  0  0
    1.8752    1.4159   -1.8856 H   0  0  0  0  0  0  0  0  0  0  0  0
    0.5008   -0.1903   -2.8272 H   0  0  0  0  0  0  0  0  0  0  0  0
    1.8538   -1.4515   -2.9454 H   0  0  0  0  0  0  0  0  0  0  0  0
    1.8029   -0.0317   -4.0076 H   0  0  0  0  0  0  0  0  0  0  0  0
    3.4976    1.5641   -3.6423 H   0  0  0  0  0  0  0  0  0  0  0  0
    4.3850    1.4669   -2.1032 H   0  0  0  0  0  0  0  0  0  0  0  0
    4.1836   -0.0077   -3.2232 H   0  0  0  0  0  0  0  0  0  0  0  0
    5.3948   -0.7358   -1.2168 H   0  0  0  0  0  0  0  0  0  0  0  0
    5.7501    1.1896    0.0560 H   0  0  0  0  0  0  0  0  0  0  0  0
    5.9084    1.0485    1.8215 H   0  0  0  0  0  0  0  0  0  0  0  0
    4.8055   -3.1250   -0.9269 H   0  0  0  0  0  0  0  0  0  0  0  0
    7.9285   -0.4623    1.4788 H   0  0  0  0  0  0  0  0  0  0  0  0
    7.5247    0.1625   -1.5149 H   0  0  0  0  0  0  0  0  0  0  0  0
    7.7385   -1.5112   -0.7222 H   0  0  0  0  0  0  0  0  0  0  0  0
   10.0740    1.0654    1.6228 H   0  0  0  0  0  0  0  0  0  0  0  0
    7.8519    2.1021    0.0217 H   0  0  0  0  0  0  0  0  0  0  0  0
    9.5142    2.6535   -0.9543 H   0  0  0  0  0  0  0  0  0  0  0  0
   10.2547    3.2797    1.9552 H   0  0  0  0  0  0  0  0  0  0  0  0
    8.9678    4.0224    0.9519 H   0  0  0  0  0  0  0  0  0  0  0  0
   10.7300    4.4429    0.6366 H   0  0  0  0  0  0  0  0  0  0  0  0
   12.2212    2.6922    0.4037 H   0  0  0  0  0  0  0  0  0  0  0  0
   11.7759    2.7475   -1.3851 H   0  0  0  0  0  0  0  0  0  0  0  0
   11.8333    1.1956   -0.4882 H   0  0  0  0  0  0  0  0  0  0  0  0
    5.4868   -1.0226    2.8295 H   0  0  0  0  0  0  0  0  0  0  0  0
    5.4596   -2.4987    1.7062 H   0  0  0  0  0  0  0  0  0  0  0  0
    3.9699   -1.6700    2.1901 H   0  0  0  0  0  0  0  0  0  0  0  0
  1  2  1  0
  2  3  1  0
  3  4  1  0
  1  5  1  0
  4  5  1  0
  2  6  1  0
  6  7  1  0
  7  8  1  0
  8  9  1  0
  8 10  1  0
 10 11  1  0
 11 12  1  0
 12 13  1  0
 13 14  1  0
 11 15  1  0
 15 16  1  0
 16 17  1  0
 17 18  1  0
 18 19  1  0
 19 20  1  0
 16 21  1  0
 20 21  1  0
 12 22  1  0
 14 23  1  0
 23 24  1  0
 24 25  1  0
 25 26  1  0
 26 27  1  0
 27 28  1  0
 24 29  1  0
 28 29  1  0
 14 30  1  0
 31 32  1  0
 30 33  1  0
 32 33  1  0
 33 34  1  0
 32 35  1  0
 35 36  1  0
 35 37  1  0
 31 38  1  0
 38 39  1  0
 39 40  1  0
 38 41  1  0
 40 42  1  0
 42 43  1  0
 43 44  1  0
 44 45  1  0
 42 46  1  0
 45 46  1  0
 45 47  1  0
 47 48  1  0
 47 49  1  0
 39 50  1  0
  1 51  1  0
  1 52  1  0
  2 53  1  0
  4 54  1  0
  4 55  1  0
  5 56  1  0
  6 57  1  0
  6 58  1  0
  8 59  1  0
  9 60  1  0
 10 61  1  0
 11 62  1  6
 12 63  1  1
 13 64  1  0
 13 65  1  0
 14 66  1  6
 15 67  1  0
 15 68  1  0
 16 69  1  0
 17 70  1  0
 17 71  1  0
 18 72  1  0
 18 73  1  0
 19 74  1  0
 19 75  1  0
 20 76  1  0
 20 77  1  0
 21 78  1  0
 21 79  1  0
 22 80  1  0
 23 81  1  0
 23 82  1  0
 24 83  1  0
 25 84  1  0
 25 85  1  0
 26 86  1  0
 26 87  1  0
 27 88  1  0
 27 89  1  0
 28 90  1  0
 28 91  1  0
 29 92  1  0
 29 93  1  0
 30 94  1  0
 31 95  1  0
 32 96  1  1
 33 97  1  1
 34 98  1  0
 35 99  1  0
 36100  1  0
 36101  1  0
 36102  1  0
 37103  1  0
 37104  1  0
 37105  1  0
 38106  1  6
 40107  1  0
 40108  1  0
 41109  1  0
 42110  1  0
 43111  1  0
 43112  1  0
 45113  1  0
 46114  1  0
 47115  1  0
 48116  1  0
 48117  1  0
 48118  1  0
 49119  1  0
 49120  1  0
 49121  1  0
 50122  1  0
 50123  1  0
 50124  1  0
M  END
>  <PDBID>  (1) 
1HXW

>  <PDB ID>  (1) 
1HXW

>  <Generic Name>  (1) 
Ritonavir

>  <Brand Name>  (1) 
Holkira Pak#Kaletra#Lopinavir-ritonavir#Norvir#Norvir Sec#Technivie#Viekira Pak#Viekira XR#Busvir#Empetus#Normune

>  <DrugBank ID>  (1) 
DB00503

>  <ATC Codes>  (1) 
J05AX67#J05AR10#J05AE03#J05AX66

>  <Ligand ID>  (1) 
RIT

>  <Target Name>  (1) 
Pol polyprotein

>  <UniProt ID>  (1) 
Q72874

>  <PDB ID.1>  (1) 
1HXW

>  <Seq. Identity>  (1) 
98%

$$$$
