PDB_DB00480_08
     RDKit          3D

 88 92  0  0  0  0  0  0  0  0999 V2000
    1.6945    0.2075    0.0149 C   0  0  1  0  0  0  0  0  0  0  0  0
    2.3481   -0.7766    0.9464 C   0  0  0  0  0  0  0  0  0  0  0  0
    3.7673   -1.1065    0.5194 C   0  0  0  0  0  0  0  0  0  0  0  0
    4.4885    0.0806   -0.0533 C   0  0  0  0  0  0  0  0  0  0  0  0
    3.7959    0.5251   -1.2329 N   0  0  0  0  0  0  0  0  0  0  0  0
    2.4329    0.0863   -1.3148 C   0  0  0  0  0  0  0  0  0  0  0  0
   -1.7782   -0.7250    0.3348 C   0  0  0  0  0  0  0  0  0  0  0  0
   -1.8118    0.4713   -0.6165 C   0  0  0  0  0  0  0  0  0  0  0  0
   -0.5271    1.1407   -0.2322 C   0  0  0  0  0  0  0  0  0  0  0  0
    0.3288   -0.0440   -0.2612 N   0  0  0  0  0  0  0  0  0  0  0  0
   -0.3275   -1.0129    0.5579 C   0  0  0  0  0  0  0  0  0  0  0  0
   -3.7325   -1.0966   -1.0118 C   0  0  0  0  0  0  0  0  0  0  0  0
   -4.1399    0.1310   -0.2047 C   0  0  0  0  0  0  0  0  0  0  0  0
   -3.0598    1.2102   -0.2556 C   0  0  0  0  0  0  0  0  0  0  0  0
   -2.5393   -1.8044   -0.3746 C   0  0  0  0  0  0  0  0  0  0  0  0
   -0.0707   -0.7490    1.9131 O   0  0  0  0  0  0  0  0  0  0  0  0
   -2.9007    1.6931    1.1024 N   0  0  0  0  0  0  0  0  0  0  0  0
    1.7766    0.8836   -2.2529 O   0  0  0  0  0  0  0  0  0  0  0  0
    4.5217    1.0903    0.9086 O   0  0  0  0  0  0  0  0  0  0  0  0
    1.6945    0.2075    0.0149 C   0  0  1  0  0  0  0  0  0  0  0  0
    2.3481   -0.7766    0.9464 C   0  0  0  0  0  0  0  0  0  0  0  0
    3.7673   -1.1065    0.5194 C   0  0  0  0  0  0  0  0  0  0  0  0
    4.4885    0.0806   -0.0533 C   0  0  0  0  0  0  0  0  0  0  0  0
    3.7959    0.5251   -1.2329 N   0  0  0  0  0  0  0  0  0  0  0  0
    2.4329    0.0863   -1.3148 C   0  0  0  0  0  0  0  0  0  0  0  0
   -1.7782   -0.7250    0.3348 C   0  0  0  0  0  0  0  0  0  0  0  0
   -1.8118    0.4713   -0.6165 C   0  0  0  0  0  0  0  0  0  0  0  0
   -0.5271    1.1407   -0.2322 C   0  0  0  0  0  0  0  0  0  0  0  0
    0.3288   -0.0440   -0.2612 N   0  0  0  0  0  0  0  0  0  0  0  0
   -0.3275   -1.0129    0.5579 C   0  0  0  0  0  0  0  0  0  0  0  0
   -3.7325   -1.0966   -1.0118 C   0  0  0  0  0  0  0  0  0  0  0  0
   -4.1399    0.1310   -0.2047 C   0  0  0  0  0  0  0  0  0  0  0  0
   -3.0598    1.2102   -0.2556 C   0  0  0  0  0  0  0  0  0  0  0  0
   -2.5393   -1.8044   -0.3746 C   0  0  0  0  0  0  0  0  0  0  0  0
   -0.0707   -0.7490    1.9131 O   0  0  0  0  0  0  0  0  0  0  0  0
   -2.9007    1.6931    1.1024 N   0  0  0  0  0  0  0  0  0  0  0  0
    1.7766    0.8836   -2.2529 O   0  0  0  0  0  0  0  0  0  0  0  0
    4.5217    1.0903    0.9086 O   0  0  0  0  0  0  0  0  0  0  0  0
    1.8125    1.2485    0.3767 H   0  0  0  0  0  0  0  0  0  0  0  0
    2.4408   -0.3224    1.9647 H   0  0  0  0  0  0  0  0  0  0  0  0
    1.8148   -1.7599    0.9830 H   0  0  0  0  0  0  0  0  0  0  0  0
    3.7155   -1.9060   -0.2567 H   0  0  0  0  0  0  0  0  0  0  0  0
    4.2771   -1.5110    1.4253 H   0  0  0  0  0  0  0  0  0  0  0  0
    5.5298   -0.2190   -0.2391 H   0  0  0  0  0  0  0  0  0  0  0  0
    3.9403    1.5312   -1.4220 H   0  0  0  0  0  0  0  0  0  0  0  0
    2.3492   -0.9620   -1.6784 H   0  0  0  0  0  0  0  0  0  0  0  0
   -2.3363   -0.5078    1.2779 H   0  0  0  0  0  0  0  0  0  0  0  0
   -1.7679    0.1495   -1.6663 H   0  0  0  0  0  0  0  0  0  0  0  0
   -0.2686    1.8622   -1.0211 H   0  0  0  0  0  0  0  0  0  0  0  0
   -0.5688    1.6109    0.7594 H   0  0  0  0  0  0  0  0  0  0  0  0
   -0.0972   -2.0508    0.2827 H   0  0  0  0  0  0  0  0  0  0  0  0
   -3.5404   -0.8433   -2.0738 H   0  0  0  0  0  0  0  0  0  0  0  0
   -4.5845   -1.7894   -0.9697 H   0  0  0  0  0  0  0  0  0  0  0  0
   -4.3153   -0.2197    0.8309 H   0  0  0  0  0  0  0  0  0  0  0  0
   -5.0834    0.4847   -0.6497 H   0  0  0  0  0  0  0  0  0  0  0  0
   -3.3400    2.0035   -0.9683 H   0  0  0  0  0  0  0  0  0  0  0  0
   -2.8500   -2.6386    0.2732 H   0  0  0  0  0  0  0  0  0  0  0  0
   -1.9341   -2.2349   -1.2120 H   0  0  0  0  0  0  0  0  0  0  0  0
    0.1039    0.2023    2.0707 H   0  0  0  0  0  0  0  0  0  0  0  0
   -2.8861    2.7233    1.1792 H   0  0  0  0  0  0  0  0  0  0  0  0
   -3.5081    1.2159    1.7885 H   0  0  0  0  0  0  0  0  0  0  0  0
    2.2109    1.7839   -2.2502 H   0  0  0  0  0  0  0  0  0  0  0  0
    4.6189    1.9439    0.4100 H   0  0  0  0  0  0  0  0  0  0  0  0
    1.8125    1.2485    0.3767 H   0  0  0  0  0  0  0  0  0  0  0  0
    2.4408   -0.3224    1.9647 H   0  0  0  0  0  0  0  0  0  0  0  0
    1.8148   -1.7599    0.9830 H   0  0  0  0  0  0  0  0  0  0  0  0
    3.7155   -1.9060   -0.2567 H   0  0  0  0  0  0  0  0  0  0  0  0
    4.2771   -1.5110    1.4253 H   0  0  0  0  0  0  0  0  0  0  0  0
    5.5298   -0.2190   -0.2391 H   0  0  0  0  0  0  0  0  0  0  0  0
    3.9403    1.5312   -1.4220 H   0  0  0  0  0  0  0  0  0  0  0  0
    2.3492   -0.9620   -1.6784 H   0  0  0  0  0  0  0  0  0  0  0  0
   -2.3363   -0.5078    1.2779 H   0  0  0  0  0  0  0  0  0  0  0  0
   -1.7679    0.1495   -1.6663 H   0  0  0  0  0  0  0  0  0  0  0  0
   -0.2686    1.8622   -1.0211 H   0  0  0  0  0  0  0  0  0  0  0  0
   -0.5688    1.6109    0.7594 H   0  0  0  0  0  0  0  0  0  0  0  0
   -0.0972   -2.0508    0.2827 H   0  0  0  0  0  0  0  0  0  0  0  0
   -3.5404   -0.8433   -2.0738 H   0  0  0  0  0  0  0  0  0  0  0  0
   -4.5845   -1.7894   -0.9697 H   0  0  0  0  0  0  0  0  0  0  0  0
   -4.3153   -0.2197    0.8309 H   0  0  0  0  0  0  0  0  0  0  0  0
   -5.0834    0.4847   -0.6497 H   0  0  0  0  0  0  0  0  0  0  0  0
   -3.3400    2.0035   -0.9683 H   0  0  0  0  0  0  0  0  0  0  0  0
   -2.8500   -2.6386    0.2732 H   0  0  0  0  0  0  0  0  0  0  0  0
   -1.9341   -2.2349   -1.2120 H   0  0  0  0  0  0  0  0  0  0  0  0
    0.1039    0.2023    2.0707 H   0  0  0  0  0  0  0  0  0  0  0  0
   -2.8861    2.7233    1.1792 H   0  0  0  0  0  0  0  0  0  0  0  0
   -3.5081    1.2159    1.7885 H   0  0  0  0  0  0  0  0  0  0  0  0
    2.2109    1.7839   -2.2502 H   0  0  0  0  0  0  0  0  0  0  0  0
    4.6189    1.9439    0.4100 H   0  0  0  0  0  0  0  0  0  0  0  0
  1  2  1  0
  2  3  1  0
  3  4  1  0
  4  5  1  0
  1  6  1  0
  5  6  1  0
  7  8  1  0
  8  9  1  0
  1 10  1  0
  9 10  1  0
  7 11  1  0
 10 11  1  0
 12 13  1  0
  8 14  1  0
 13 14  1  0
  7 15  1  0
 12 15  1  0
 11 16  1  0
 14 17  1  0
  6 18  1  0
  4 19  1  0
 20 21  1  0
 21 22  1  0
 22 23  1  0
 23 24  1  0
 20 25  1  0
 24 25  1  0
 26 27  1  0
 27 28  1  0
 20 29  1  0
 28 29  1  0
 26 30  1  0
 29 30  1  0
 31 32  1  0
 27 33  1  0
 32 33  1  0
 26 34  1  0
 31 34  1  0
 30 35  1  0
 33 36  1  0
 25 37  1  0
 23 38  1  0
  1 39  1  1
  2 40  1  0
  2 41  1  0
  3 42  1  0
  3 43  1  0
  4 44  1  0
  5 45  1  0
  6 46  1  0
  7 47  1  0
  8 48  1  0
  9 49  1  0
  9 50  1  0
 11 51  1  0
 12 52  1  0
 12 53  1  0
 13 54  1  0
 13 55  1  0
 14 56  1  0
 15 57  1  0
 15 58  1  0
 16 59  1  0
 17 60  1  0
 17 61  1  0
 18 62  1  0
 19 63  1  0
 20 64  1  1
 21 65  1  0
 21 66  1  0
 22 67  1  0
 22 68  1  0
 23 69  1  0
 24 70  1  0
 25 71  1  0
 26 72  1  0
 27 73  1  0
 28 74  1  0
 28 75  1  0
 30 76  1  0
 31 77  1  0
 31 78  1  0
 32 79  1  0
 32 80  1  0
 33 81  1  0
 34 82  1  0
 34 83  1  0
 35 84  1  0
 36 85  1  0
 36 86  1  0
 37 87  1  0
 38 88  1  0
M  END
>  <PDBID>  (1) 
5FQD

>  <PDB ID>  (1) 
5FQD

>  <Generic Name>  (1) 
Lenalidomide

>  <Brand Name>  (1) 
Revlimid#Ladevina#Lenangio

>  <DrugBank ID>  (1) 
DB00480

>  <ATC Codes>  (1) 
L04AX04

>  <Ligand ID>  (1) 
LVY

>  <Target Name>  (1) 
Protein cereblon

>  <UniProt ID>  (1) 
Q96SW2

>  <PDB ID.1>  (1) 
5FQD

>  <Seq. Identity>  (1) 
100%

$$$$
