PDB_DB00127_01
     RDKit          3D

 80 78  0  0  0  0  0  0  0  0999 V2000
    6.7967    0.0652    0.0071 N   0  0  0  0  0  0  0  0  0  0  0  0
    5.3668    0.2013    0.0033 C   0  0  0  0  0  0  0  0  0  0  0  0
    4.7382   -1.1529   -0.2710 C   0  0  0  0  0  0  0  0  0  0  0  0
    3.2307   -1.0629   -0.2909 C   0  0  0  0  0  0  0  0  0  0  0  0
    2.6566   -0.6141    0.9159 N   0  0  0  0  0  0  0  0  0  0  0  0
    1.2496   -0.3946    0.9304 C   0  0  0  0  0  0  0  0  0  0  0  0
    0.8429    0.7591    0.0755 C   0  0  0  0  0  0  0  0  0  0  0  0
   -0.6019    1.0284    0.0613 C   0  0  0  0  0  0  0  0  0  0  0  0
   -1.4873   -0.0623   -0.4452 C   0  0  0  0  0  0  0  0  0  0  0  0
   -2.8637    0.3252   -0.4590 N   0  0  0  0  0  0  0  0  0  0  0  0
   -3.5062    0.4861    0.7971 C   0  0  0  0  0  0  0  0  0  0  0  0
   -4.8906    1.0401    0.5293 C   0  0  0  0  0  0  0  0  0  0  0  0
   -5.7445    0.1929   -0.3467 C   0  0  0  0  0  0  0  0  0  0  0  0
   -6.0255   -1.1167    0.1156 N   0  0  0  0  0  0  0  0  0  0  0  0
    6.7967    0.0652    0.0071 N   0  0  0  0  0  0  0  0  0  0  0  0
    5.3668    0.2013    0.0033 C   0  0  0  0  0  0  0  0  0  0  0  0
    4.7382   -1.1529   -0.2710 C   0  0  0  0  0  0  0  0  0  0  0  0
    3.2307   -1.0629   -0.2909 C   0  0  0  0  0  0  0  0  0  0  0  0
    2.6566   -0.6141    0.9159 N   0  0  0  0  0  0  0  0  0  0  0  0
    1.2496   -0.3946    0.9304 C   0  0  0  0  0  0  0  0  0  0  0  0
    0.8429    0.7591    0.0755 C   0  0  0  0  0  0  0  0  0  0  0  0
   -0.6019    1.0284    0.0613 C   0  0  0  0  0  0  0  0  0  0  0  0
   -1.4873   -0.0623   -0.4452 C   0  0  0  0  0  0  0  0  0  0  0  0
   -2.8637    0.3252   -0.4590 N   0  0  0  0  0  0  0  0  0  0  0  0
   -3.5062    0.4861    0.7971 C   0  0  0  0  0  0  0  0  0  0  0  0
   -4.8906    1.0401    0.5293 C   0  0  0  0  0  0  0  0  0  0  0  0
   -5.7445    0.1929   -0.3467 C   0  0  0  0  0  0  0  0  0  0  0  0
   -6.0255   -1.1167    0.1156 N   0  0  0  0  0  0  0  0  0  0  0  0
    7.1714    0.0233   -0.9623 H   0  0  0  0  0  0  0  0  0  0  0  0
    7.1956   -0.6109    0.6574 H   0  0  0  0  0  0  0  0  0  0  0  0
    5.1030    0.8597   -0.8532 H   0  0  0  0  0  0  0  0  0  0  0  0
    4.9935    0.5977    0.9505 H   0  0  0  0  0  0  0  0  0  0  0  0
    5.0394   -1.4305   -1.3079 H   0  0  0  0  0  0  0  0  0  0  0  0
    5.1236   -1.9389    0.3869 H   0  0  0  0  0  0  0  0  0  0  0  0
    2.8649   -2.1093   -0.5006 H   0  0  0  0  0  0  0  0  0  0  0  0
    2.9202   -0.4601   -1.1734 H   0  0  0  0  0  0  0  0  0  0  0  0
    3.2318   -0.2307    1.6467 H   0  0  0  0  0  0  0  0  0  0  0  0
    0.7116   -1.3272    0.6967 H   0  0  0  0  0  0  0  0  0  0  0  0
    0.9792   -0.1310    1.9915 H   0  0  0  0  0  0  0  0  0  0  0  0
    1.3532    1.6729    0.4790 H   0  0  0  0  0  0  0  0  0  0  0  0
    1.2147    0.6666   -0.9728 H   0  0  0  0  0  0  0  0  0  0  0  0
   -1.0086    1.3178    1.0781 H   0  0  0  0  0  0  0  0  0  0  0  0
   -0.7737    1.9205   -0.6136 H   0  0  0  0  0  0  0  0  0  0  0  0
   -1.1986   -0.3124   -1.4849 H   0  0  0  0  0  0  0  0  0  0  0  0
   -1.3781   -0.9923    0.1673 H   0  0  0  0  0  0  0  0  0  0  0  0
   -3.0486    1.1198   -1.0980 H   0  0  0  0  0  0  0  0  0  0  0  0
   -2.9988    1.2728    1.4286 H   0  0  0  0  0  0  0  0  0  0  0  0
   -3.5121   -0.4243    1.3968 H   0  0  0  0  0  0  0  0  0  0  0  0
   -4.7255    2.0440    0.0803 H   0  0  0  0  0  0  0  0  0  0  0  0
   -5.3958    1.1790    1.5154 H   0  0  0  0  0  0  0  0  0  0  0  0
   -6.7137    0.6988   -0.6106 H   0  0  0  0  0  0  0  0  0  0  0  0
   -5.2218    0.0856   -1.3449 H   0  0  0  0  0  0  0  0  0  0  0  0
   -5.8322   -1.3479    1.0869 H   0  0  0  0  0  0  0  0  0  0  0  0
   -5.8563   -1.8377   -0.5988 H   0  0  0  0  0  0  0  0  0  0  0  0
    7.1714    0.0233   -0.9623 H   0  0  0  0  0  0  0  0  0  0  0  0
    7.1956   -0.6109    0.6574 H   0  0  0  0  0  0  0  0  0  0  0  0
    5.1030    0.8597   -0.8532 H   0  0  0  0  0  0  0  0  0  0  0  0
    4.9935    0.5977    0.9505 H   0  0  0  0  0  0  0  0  0  0  0  0
    5.0394   -1.4305   -1.3079 H   0  0  0  0  0  0  0  0  0  0  0  0
    5.1236   -1.9389    0.3869 H   0  0  0  0  0  0  0  0  0  0  0  0
    2.8649   -2.1093   -0.5006 H   0  0  0  0  0  0  0  0  0  0  0  0
    2.9202   -0.4601   -1.1734 H   0  0  0  0  0  0  0  0  0  0  0  0
    3.2318   -0.2307    1.6467 H   0  0  0  0  0  0  0  0  0  0  0  0
    0.7116   -1.3272    0.6967 H   0  0  0  0  0  0  0  0  0  0  0  0
    0.9792   -0.1310    1.9915 H   0  0  0  0  0  0  0  0  0  0  0  0
    1.3532    1.6729    0.4790 H   0  0  0  0  0  0  0  0  0  0  0  0
    1.2147    0.6666   -0.9728 H   0  0  0  0  0  0  0  0  0  0  0  0
   -1.0086    1.3178    1.0781 H   0  0  0  0  0  0  0  0  0  0  0  0
   -0.7737    1.9205   -0.6136 H   0  0  0  0  0  0  0  0  0  0  0  0
   -1.1986   -0.3124   -1.4849 H   0  0  0  0  0  0  0  0  0  0  0  0
   -1.3781   -0.9923    0.1673 H   0  0  0  0  0  0  0  0  0  0  0  0
   -3.0486    1.1198   -1.0980 H   0  0  0  0  0  0  0  0  0  0  0  0
   -2.9988    1.2728    1.4286 H   0  0  0  0  0  0  0  0  0  0  0  0
   -3.5121   -0.4243    1.3968 H   0  0  0  0  0  0  0  0  0  0  0  0
   -4.7255    2.0440    0.0803 H   0  0  0  0  0  0  0  0  0  0  0  0
   -5.3958    1.1790    1.5154 H   0  0  0  0  0  0  0  0  0  0  0  0
   -6.7137    0.6988   -0.6106 H   0  0  0  0  0  0  0  0  0  0  0  0
   -5.2218    0.0856   -1.3449 H   0  0  0  0  0  0  0  0  0  0  0  0
   -5.8322   -1.3479    1.0869 H   0  0  0  0  0  0  0  0  0  0  0  0
   -5.8563   -1.8377   -0.5988 H   0  0  0  0  0  0  0  0  0  0  0  0
  1  2  1  0
  2  3  1  0
  3  4  1  0
  4  5  1  0
  5  6  1  0
  6  7  1  0
  7  8  1  0
  8  9  1  0
  9 10  1  0
 10 11  1  0
 11 12  1  0
 12 13  1  0
 13 14  1  0
 15 16  1  0
 16 17  1  0
 17 18  1  0
 18 19  1  0
 19 20  1  0
 20 21  1  0
 21 22  1  0
 22 23  1  0
 23 24  1  0
 24 25  1  0
 25 26  1  0
 26 27  1  0
 27 28  1  0
  1 29  1  0
  1 30  1  0
  2 31  1  0
  2 32  1  0
  3 33  1  0
  3 34  1  0
  4 35  1  0
  4 36  1  0
  5 37  1  0
  6 38  1  0
  6 39  1  0
  7 40  1  0
  7 41  1  0
  8 42  1  0
  8 43  1  0
  9 44  1  0
  9 45  1  0
 10 46  1  0
 11 47  1  0
 11 48  1  0
 12 49  1  0
 12 50  1  0
 13 51  1  0
 13 52  1  0
 14 53  1  0
 14 54  1  0
 15 55  1  0
 15 56  1  0
 16 57  1  0
 16 58  1  0
 17 59  1  0
 17 60  1  0
 18 61  1  0
 18 62  1  0
 19 63  1  0
 20 64  1  0
 20 65  1  0
 21 66  1  0
 21 67  1  0
 22 68  1  0
 22 69  1  0
 23 70  1  0
 23 71  1  0
 24 72  1  0
 25 73  1  0
 25 74  1  0
 26 75  1  0
 26 76  1  0
 27 77  1  0
 27 78  1  0
 28 79  1  0
 28 80  1  0
M  END
>  <PDBID>  (1) 
3KU9

>  <PDB ID>  (1) 
3KU9

>  <Generic Name>  (1) 
Spermine

>  <Brand Name>  (1) 
nan

>  <DrugBank ID>  (1) 
DB00127

>  <ATC Codes>  (1) 
nan

>  <Ligand ID>  (1) 
SPM

>  <Target Name>  (1) 
Spermine oxidase

>  <UniProt ID>  (1) 
Q9NWM0

>  <PDB ID.1>  (1) 
3KU9

>  <Seq. Identity>  (1) 
31%

$$$$
