PDB_DB01268_01
     RDKit          3D

 72 74  0  0  0  0  0  0  0  0999 V2000
   -0.3064    2.2733    0.9355 C   0  0  0  0  0  0  0  0  0  0  0  0
    7.6237    0.3042    1.0676 C   0  0  0  0  0  0  0  0  0  0  0  0
    7.5918    0.4209   -0.4203 C   0  0  0  0  0  0  0  0  0  0  0  0
    5.3743   -0.7990    1.0881 C   0  0  0  0  0  0  0  0  0  0  0  0
    0.4610   -1.1748    0.4585 C   0  0  0  0  0  0  0  0  0  0  0  0
    6.7966   -0.8330    1.6205 C   0  0  0  0  0  0  0  0  0  0  0  0
    5.3436   -0.6683   -0.4064 C   0  0  0  0  0  0  0  0  0  0  0  0
    3.9351   -0.1937   -0.8135 C   0  0  0  0  0  0  0  0  0  0  0  0
    4.0426    1.2869   -0.7188 C   0  0  0  0  0  0  0  0  0  0  0  0
   -2.0082   -0.5816    0.5122 C   0  0  0  0  0  0  0  0  0  0  0  0
    0.0855   -2.4064   -0.2966 C   0  0  0  0  0  0  0  0  0  0  0  0
    2.8883   -0.8615   -0.0100 C   0  0  0  0  0  0  0  0  0  0  0  0
   -0.1967    1.0684    0.0235 C   0  0  0  0  0  0  0  0  0  0  0  0
    6.1724    0.4990   -0.8946 C   0  0  0  0  0  0  0  0  0  0  0  0
    1.5155   -0.4517   -0.3952 C   0  0  0  0  0  0  0  0  0  0  0  0
   -0.5604   -0.1750    0.7276 C   0  0  0  0  0  0  0  0  0  0  0  0
    1.2071    0.9282   -0.3035 N   0  0  0  0  0  0  0  0  0  0  0  0
    5.4445    1.6089   -0.3694 N   0  0  0  0  0  0  0  0  0  0  0  0
   -2.8407    0.5226    0.8245 N   0  0  0  0  0  0  0  0  0  0  0  0
    3.8923    1.9065   -1.9882 O   0  0  0  0  0  0  0  0  0  0  0  0
   -2.2422   -1.0824   -0.7352 O   0  0  0  0  0  0  0  0  0  0  0  0
    6.7263   -0.6660    2.9912 F   0  0  0  0  0  0  0  0  0  0  0  0
   -4.2317    0.3299    0.9854 C   0  0  0  0  0  0  0  0  0  0  0  0
   -4.9042    0.0178   -0.2997 C   0  0  0  0  0  0  0  0  0  0  0  0
   -6.3201   -0.1702   -0.2078 N   0  0  0  0  0  0  0  0  0  0  0  0
   -6.7525   -1.3084    0.4895 C   0  0  0  0  0  0  0  0  0  0  0  0
   -7.1495    0.9511   -0.3233 C   0  0  0  0  0  0  0  0  0  0  0  0
   -7.0949    1.9534    0.8036 C   0  0  0  0  0  0  0  0  0  0  0  0
   -8.2618   -1.3693    0.4986 C   0  0  0  0  0  0  0  0  0  0  0  0
   -0.8629    3.0768    0.4333 H   0  0  0  0  0  0  0  0  0  0  0  0
    0.6852    2.6594    1.2545 H   0  0  0  0  0  0  0  0  0  0  0  0
   -0.8080    1.9383    1.8838 H   0  0  0  0  0  0  0  0  0  0  0  0
    7.4275    1.2795    1.5983 H   0  0  0  0  0  0  0  0  0  0  0  0
    8.6878    0.0700    1.3596 H   0  0  0  0  0  0  0  0  0  0  0  0
    8.0923    1.3714   -0.6961 H   0  0  0  0  0  0  0  0  0  0  0  0
    8.0460   -0.4702   -0.8582 H   0  0  0  0  0  0  0  0  0  0  0  0
    4.7780   -0.0229    1.6137 H   0  0  0  0  0  0  0  0  0  0  0  0
    4.9159   -1.7746    1.3506 H   0  0  0  0  0  0  0  0  0  0  0  0
    0.9836   -1.5372    1.3983 H   0  0  0  0  0  0  0  0  0  0  0  0
    7.2971   -1.7803    1.4148 H   0  0  0  0  0  0  0  0  0  0  0  0
    5.5455   -1.6133   -0.9268 H   0  0  0  0  0  0  0  0  0  0  0  0
    3.8150   -0.4534   -1.8930 H   0  0  0  0  0  0  0  0  0  0  0  0
    3.3856    1.7606    0.0093 H   0  0  0  0  0  0  0  0  0  0  0  0
   -2.2468   -1.3979    1.2540 H   0  0  0  0  0  0  0  0  0  0  0  0
   -0.1841   -2.2435   -1.3541 H   0  0  0  0  0  0  0  0  0  0  0  0
    1.0430   -3.0169   -0.3689 H   0  0  0  0  0  0  0  0  0  0  0  0
   -0.5944   -3.0840    0.2592 H   0  0  0  0  0  0  0  0  0  0  0  0
    2.9870   -0.7023    1.0885 H   0  0  0  0  0  0  0  0  0  0  0  0
    2.9621   -1.9630   -0.1933 H   0  0  0  0  0  0  0  0  0  0  0  0
   -0.7403    1.2305   -0.9336 H   0  0  0  0  0  0  0  0  0  0  0  0
    6.1011    0.4668   -2.0141 H   0  0  0  0  0  0  0  0  0  0  0  0
    1.3773   -0.7402   -1.4790 H   0  0  0  0  0  0  0  0  0  0  0  0
   -0.5089    0.0652    1.8412 H   0  0  0  0  0  0  0  0  0  0  0  0
    1.3801    1.4417   -1.2161 H   0  0  0  0  0  0  0  0  0  0  0  0
    5.4884    1.5987    0.6624 H   0  0  0  0  0  0  0  0  0  0  0  0
   -2.5833    1.4140    0.3591 H   0  0  0  0  0  0  0  0  0  0  0  0
    3.5454    1.1838   -2.5916 H   0  0  0  0  0  0  0  0  0  0  0  0
   -2.4681   -2.0482   -0.7754 H   0  0  0  0  0  0  0  0  0  0  0  0
   -4.4916   -0.3883    1.8032 H   0  0  0  0  0  0  0  0  0  0  0  0
   -4.6406    1.3120    1.3889 H   0  0  0  0  0  0  0  0  0  0  0  0
   -4.4910   -0.8745   -0.7818 H   0  0  0  0  0  0  0  0  0  0  0  0
   -4.7165    0.8754   -0.9939 H   0  0  0  0  0  0  0  0  0  0  0  0
   -6.4155   -2.2207   -0.0814 H   0  0  0  0  0  0  0  0  0  0  0  0
   -6.4257   -1.3735    1.5472 H   0  0  0  0  0  0  0  0  0  0  0  0
   -8.1949    0.6358   -0.4639 H   0  0  0  0  0  0  0  0  0  0  0  0
   -6.9025    1.5105   -1.2793 H   0  0  0  0  0  0  0  0  0  0  0  0
   -6.3603    2.7634    0.6030 H   0  0  0  0  0  0  0  0  0  0  0  0
   -8.0889    2.4909    0.7961 H   0  0  0  0  0  0  0  0  0  0  0  0
   -6.9994    1.4564    1.7663 H   0  0  0  0  0  0  0  0  0  0  0  0
   -8.7310   -0.5641    1.0739 H   0  0  0  0  0  0  0  0  0  0  0  0
   -8.6861   -1.3257   -0.5401 H   0  0  0  0  0  0  0  0  0  0  0  0
   -8.6344   -2.3363    0.9038 H   0  0  0  0  0  0  0  0  0  0  0  0
  2  3  1  0
  2  6  1  0
  4  6  1  0
  4  7  1  0
  7  8  1  0
  8  9  1  0
  5 11  1  0
  8 12  1  0
  1 13  1  0
  3 14  1  0
  7 14  1  0
  5 15  1  0
 12 15  1  0
  5 16  1  0
 10 16  1  0
 13 16  1  0
 13 17  1  0
 15 17  1  0
  9 18  1  0
 14 18  1  0
 10 19  1  0
  9 20  1  0
 10 21  1  0
  6 22  1  0
 19 23  1  0
 23 24  1  0
 24 25  1  0
 25 26  1  0
 25 27  1  0
 27 28  1  0
 26 29  1  0
  1 30  1  0
  1 31  1  0
  1 32  1  0
  2 33  1  0
  2 34  1  0
  3 35  1  0
  3 36  1  0
  4 37  1  0
  4 38  1  0
  5 39  1  0
  6 40  1  0
  7 41  1  0
  8 42  1  0
  9 43  1  0
 10 44  1  0
 11 45  1  0
 11 46  1  0
 11 47  1  0
 12 48  1  0
 12 49  1  0
 13 50  1  0
 14 51  1  0
 15 52  1  0
 16 53  1  0
 17 54  1  0
 18 55  1  0
 19 56  1  0
 20 57  1  0
 21 58  1  0
 23 59  1  0
 23 60  1  0
 24 61  1  0
 24 62  1  0
 26 63  1  0
 26 64  1  0
 27 65  1  0
 27 66  1  0
 28 67  1  0
 28 68  1  0
 28 69  1  0
 29 70  1  0
 29 71  1  0
 29 72  1  0
M  END
>  <PDBID>  (1) 
4AGD

>  <PDB ID>  (1) 
4AGD

>  <Generic Name>  (1) 
Sunitinib

>  <Brand Name>  (1) 
Sutent

>  <DrugBank ID>  (1) 
DB01268

>  <ATC Codes>  (1) 
L01XE04

>  <Ligand ID>  (1) 
B49

>  <Target Name>  (1) 
Vascular endothelial growth factor receptor 3

>  <UniProt ID>  (1) 
P35916

>  <PDB ID.1>  (1) 
4AGD

>  <Seq. Identity>  (1) 
66%

$$$$
