PDB_DB01064_01
     RDKit          3D

 76 76  0  0  0  0  0  0  0  0999 V2000
    3.5050    0.2641    0.9756 C   0  0  0  0  0  0  0  0  0  0  0  0
    3.5468   -0.5031   -0.3157 C   0  0  0  0  0  0  0  0  0  0  0  0
    4.9893   -0.4146   -0.8427 C   0  0  0  0  0  0  0  0  0  0  0  0
    2.5941   -0.1243   -1.2272 N   0  0  0  0  0  0  0  0  0  0  0  0
    1.2408   -0.3116   -1.2046 C   0  0  0  0  0  0  0  0  0  0  0  0
    0.4429    0.3770   -0.1900 C   0  0  2  0  0  0  0  0  0  0  0  0
    0.6455    0.0563    1.1131 O   0  0  0  0  0  0  0  0  0  0  0  0
   -1.0556    0.3013   -0.4483 C   0  0  0  0  0  0  0  0  0  0  0  0
   -1.7072    1.0433    0.6943 C   0  0  0  0  0  0  0  0  0  0  0  0
   -1.5481   -1.0995   -0.5746 C   0  0  0  0  0  0  0  0  0  0  0  0
   -3.0446   -1.2102   -0.5415 C   0  0  0  0  0  0  0  0  0  0  0  0
   -3.7402    0.1110   -0.4580 C   0  0  0  0  0  0  0  0  0  0  0  0
   -5.0792   -0.1417   -0.1622 O   0  0  0  0  0  0  0  0  0  0  0  0
   -3.2121    1.0482    0.5793 C   0  0  0  0  0  0  0  0  0  0  0  0
   -3.6032    2.3351    0.2826 O   0  0  0  0  0  0  0  0  0  0  0  0
    3.5050    0.2641    0.9756 C   0  0  0  0  0  0  0  0  0  0  0  0
    3.5468   -0.5031   -0.3157 C   0  0  0  0  0  0  0  0  0  0  0  0
    4.9893   -0.4146   -0.8427 C   0  0  0  0  0  0  0  0  0  0  0  0
    2.5941   -0.1243   -1.2272 N   0  0  0  0  0  0  0  0  0  0  0  0
    1.2408   -0.3116   -1.2046 C   0  0  0  0  0  0  0  0  0  0  0  0
    0.4429    0.3770   -0.1900 C   0  0  2  0  0  0  0  0  0  0  0  0
    0.6455    0.0563    1.1131 O   0  0  0  0  0  0  0  0  0  0  0  0
   -1.0556    0.3013   -0.4483 C   0  0  0  0  0  0  0  0  0  0  0  0
   -1.7072    1.0433    0.6943 C   0  0  0  0  0  0  0  0  0  0  0  0
   -1.5481   -1.0995   -0.5746 C   0  0  0  0  0  0  0  0  0  0  0  0
   -3.0446   -1.2102   -0.5415 C   0  0  0  0  0  0  0  0  0  0  0  0
   -3.7402    0.1110   -0.4580 C   0  0  0  0  0  0  0  0  0  0  0  0
   -5.0792   -0.1417   -0.1622 O   0  0  0  0  0  0  0  0  0  0  0  0
   -3.2121    1.0482    0.5793 C   0  0  0  0  0  0  0  0  0  0  0  0
   -3.6032    2.3351    0.2826 O   0  0  0  0  0  0  0  0  0  0  0  0
    4.5572    0.6385    1.2350 H   0  0  0  0  0  0  0  0  0  0  0  0
    2.9424    1.2139    0.8927 H   0  0  0  0  0  0  0  0  0  0  0  0
    3.1536   -0.3278    1.8204 H   0  0  0  0  0  0  0  0  0  0  0  0
    3.3761   -1.5900   -0.0220 H   0  0  0  0  0  0  0  0  0  0  0  0
    5.1038   -0.9223   -1.8086 H   0  0  0  0  0  0  0  0  0  0  0  0
    5.2858    0.6381   -0.9215 H   0  0  0  0  0  0  0  0  0  0  0  0
    5.6394   -0.8684   -0.0519 H   0  0  0  0  0  0  0  0  0  0  0  0
    2.9668    0.3791   -2.0907 H   0  0  0  0  0  0  0  0  0  0  0  0
    0.7823   -0.1065   -2.2426 H   0  0  0  0  0  0  0  0  0  0  0  0
    0.9965   -1.4301   -1.0926 H   0  0  0  0  0  0  0  0  0  0  0  0
    0.6460    1.5041   -0.2659 H   0  0  0  0  0  0  0  0  0  0  0  0
    0.2163   -0.7780    1.3723 H   0  0  0  0  0  0  0  0  0  0  0  0
   -1.2749    0.8191   -1.4259 H   0  0  0  0  0  0  0  0  0  0  0  0
   -1.3968    0.5037    1.6221 H   0  0  0  0  0  0  0  0  0  0  0  0
   -1.2594    2.0538    0.7351 H   0  0  0  0  0  0  0  0  0  0  0  0
   -1.1489   -1.7499    0.2509 H   0  0  0  0  0  0  0  0  0  0  0  0
   -1.1174   -1.5273   -1.5103 H   0  0  0  0  0  0  0  0  0  0  0  0
   -3.4295   -1.8637    0.2594 H   0  0  0  0  0  0  0  0  0  0  0  0
   -3.3596   -1.6915   -1.5037 H   0  0  0  0  0  0  0  0  0  0  0  0
   -3.7538    0.6215   -1.4671 H   0  0  0  0  0  0  0  0  0  0  0  0
   -5.0778   -0.7371    0.6545 H   0  0  0  0  0  0  0  0  0  0  0  0
   -3.6197    0.7833    1.5785 H   0  0  0  0  0  0  0  0  0  0  0  0
   -4.2024    2.7061    0.9629 H   0  0  0  0  0  0  0  0  0  0  0  0
    4.5572    0.6385    1.2350 H   0  0  0  0  0  0  0  0  0  0  0  0
    2.9424    1.2139    0.8927 H   0  0  0  0  0  0  0  0  0  0  0  0
    3.1536   -0.3278    1.8204 H   0  0  0  0  0  0  0  0  0  0  0  0
    3.3761   -1.5900   -0.0220 H   0  0  0  0  0  0  0  0  0  0  0  0
    5.1038   -0.9223   -1.8086 H   0  0  0  0  0  0  0  0  0  0  0  0
    5.2858    0.6381   -0.9215 H   0  0  0  0  0  0  0  0  0  0  0  0
    5.6394   -0.8684   -0.0519 H   0  0  0  0  0  0  0  0  0  0  0  0
    2.9668    0.3791   -2.0907 H   0  0  0  0  0  0  0  0  0  0  0  0
    0.7823   -0.1065   -2.2426 H   0  0  0  0  0  0  0  0  0  0  0  0
    0.9965   -1.4301   -1.0926 H   0  0  0  0  0  0  0  0  0  0  0  0
    0.6460    1.5041   -0.2659 H   0  0  0  0  0  0  0  0  0  0  0  0
    0.2163   -0.7780    1.3723 H   0  0  0  0  0  0  0  0  0  0  0  0
   -1.2749    0.8191   -1.4259 H   0  0  0  0  0  0  0  0  0  0  0  0
   -1.3968    0.5037    1.6221 H   0  0  0  0  0  0  0  0  0  0  0  0
   -1.2594    2.0538    0.7351 H   0  0  0  0  0  0  0  0  0  0  0  0
   -1.1489   -1.7499    0.2509 H   0  0  0  0  0  0  0  0  0  0  0  0
   -1.1174   -1.5273   -1.5103 H   0  0  0  0  0  0  0  0  0  0  0  0
   -3.4295   -1.8637    0.2594 H   0  0  0  0  0  0  0  0  0  0  0  0
   -3.3596   -1.6915   -1.5037 H   0  0  0  0  0  0  0  0  0  0  0  0
   -3.7538    0.6215   -1.4671 H   0  0  0  0  0  0  0  0  0  0  0  0
   -5.0778   -0.7371    0.6545 H   0  0  0  0  0  0  0  0  0  0  0  0
   -3.6197    0.7833    1.5785 H   0  0  0  0  0  0  0  0  0  0  0  0
   -4.2024    2.7061    0.9629 H   0  0  0  0  0  0  0  0  0  0  0  0
  1  2  1  0
  2  3  1  0
  2  4  1  0
  4  5  1  0
  5  6  1  0
  6  7  1  0
  6  8  1  0
  8  9  1  0
  8 10  1  0
 10 11  1  0
 11 12  1  0
 12 13  1  0
  9 14  1  0
 12 14  1  0
 14 15  1  0
 16 17  1  0
 17 18  1  0
 17 19  1  0
 19 20  1  0
 20 21  1  0
 21 22  1  0
 21 23  1  0
 23 24  1  0
 23 25  1  0
 25 26  1  0
 26 27  1  0
 27 28  1  0
 24 29  1  0
 27 29  1  0
 29 30  1  0
  1 31  1  0
  1 32  1  0
  1 33  1  0
  2 34  1  0
  3 35  1  0
  3 36  1  0
  3 37  1  0
  4 38  1  0
  5 39  1  0
  5 40  1  0
  6 41  1  1
  7 42  1  0
  8 43  1  0
  9 44  1  0
  9 45  1  0
 10 46  1  0
 10 47  1  0
 11 48  1  0
 11 49  1  0
 12 50  1  0
 13 51  1  0
 14 52  1  0
 15 53  1  0
 16 54  1  0
 16 55  1  0
 16 56  1  0
 17 57  1  0
 18 58  1  0
 18 59  1  0
 18 60  1  0
 19 61  1  0
 20 62  1  0
 20 63  1  0
 21 64  1  1
 22 65  1  0
 23 66  1  0
 24 67  1  0
 24 68  1  0
 25 69  1  0
 25 70  1  0
 26 71  1  0
 26 72  1  0
 27 73  1  0
 28 74  1  0
 29 75  1  0
 30 76  1  0
M  END
>  <PDBID>  (1) 
2Y03

>  <PDB ID>  (1) 
2Y03

>  <Generic Name>  (1) 
Isoprenaline

>  <Brand Name>  (1) 
Isoproterenol HCl Inj 1:5000#Isoproterenol Hydrochloride Injection USP#Isuprel#Isuprel Inj 0.2mg/ml#Isuprel Liq 0.2mg/ml#Isuprel Liq 0.5%#Isuprel Liq Inh 0.5%#Isuprel Mistometer 125mcg/aem#Isuprel Mistometer Aem 0.25%#Medihaler-Iso#Proternol L#Saventrine

>  <DrugBank ID>  (1) 
DB01064

>  <ATC Codes>  (1) 
R03AK02#R03CB01#R03CB51#R03AB02#C01CA02

>  <Ligand ID>  (1) 
5FW

>  <Target Name>  (1) 
Beta-1 adrenergic receptor

>  <UniProt ID>  (1) 
P08588

>  <PDB ID.1>  (1) 
2Y03

>  <Seq. Identity>  (1) 
63%

$$$$
