PDB_DB01606_01
     RDKit          3D

 42 44  0  0  0  0  0  0  0  0999 V2000
   -0.6637    0.8657   -1.3642 S   0  0  0  0  0  0  0  0  0  0  0  0
    0.0438   -0.3353   -0.2411 C   0  0  1  0  0  0  0  0  0  0  0  0
   -1.1708   -0.5787    0.6104 C   0  0  2  0  0  0  0  0  0  0  0  0
   -2.3857    0.3175   -1.1796 C   0  0  2  0  0  0  0  0  0  0  0  0
   -3.1533    1.1565   -0.2166 C   0  0  0  0  0  0  0  0  0  0  0  0
   -3.4964   -0.1886    0.4158 C   0  0  2  0  0  0  0  0  0  0  0  0
   -1.0238   -1.7600    1.5180 C   0  0  0  0  0  0  0  0  0  0  0  0
   -2.3070   -0.7476   -0.2312 N   0  0  0  0  0  0  0  0  0  0  0  0
    0.4486   -1.5645   -0.9862 C   0  0  0  0  0  0  0  0  0  0  0  0
    1.1082    0.2721    0.5968 C   0  0  0  0  0  0  0  0  0  0  0  0
    4.4822    1.3463    0.1637 C   0  0  0  0  0  0  0  0  0  0  0  0
    3.1460    1.3624    0.8600 C   0  0  0  0  0  0  0  0  0  0  0  0
    2.2162    0.8170   -0.1432 N   0  0  0  0  0  0  0  0  0  0  0  0
    3.0282   -0.1926   -0.7012 N   0  0  0  0  0  0  0  0  0  0  0  0
    4.2903    0.3845   -0.8764 N   0  0  0  0  0  0  0  0  0  0  0  0
   -0.0207    0.7071   -3.0096 O   0  0  0  0  0  0  0  0  0  0  0  0
   -0.4006    2.5506   -0.8421 O   0  0  0  0  0  0  0  0  0  0  0  0
   -4.6488   -0.7357   -0.1141 O   0  0  0  0  0  0  0  0  0  0  0  0
   -0.8603   -2.9291    0.8113 O   0  0  0  0  0  0  0  0  0  0  0  0
   -2.1425   -1.9110    2.3344 O   0  0  0  0  0  0  0  0  0  0  0  0
   -1.2662    0.3262    1.2800 H   0  0  0  0  0  0  0  0  0  0  0  0
   -2.8517    0.0945   -2.1403 H   0  0  0  0  0  0  0  0  0  0  0  0
   -2.4813    1.7916    0.3905 H   0  0  0  0  0  0  0  0  0  0  0  0
   -4.0373    1.6924   -0.6224 H   0  0  0  0  0  0  0  0  0  0  0  0
   -3.4522   -0.1580    1.5219 H   0  0  0  0  0  0  0  0  0  0  0  0
   -0.1619   -1.5920    2.2287 H   0  0  0  0  0  0  0  0  0  0  0  0
   -0.4702   -2.0835   -1.3287 H   0  0  0  0  0  0  0  0  0  0  0  0
    1.0326   -1.3405   -1.8989 H   0  0  0  0  0  0  0  0  0  0  0  0
    1.0317   -2.2734   -0.3936 H   0  0  0  0  0  0  0  0  0  0  0  0
    1.4393   -0.4624    1.3320 H   0  0  0  0  0  0  0  0  0  0  0  0
    0.6539    1.1163    1.1653 H   0  0  0  0  0  0  0  0  0  0  0  0
    5.2668    1.0903    0.8907 H   0  0  0  0  0  0  0  0  0  0  0  0
    4.6455    2.3848   -0.2371 H   0  0  0  0  0  0  0  0  0  0  0  0
    3.1835    0.5940    1.6693 H   0  0  0  0  0  0  0  0  0  0  0  0
    2.8386    2.3455    1.2180 H   0  0  0  0  0  0  0  0  0  0  0  0
    3.0640   -1.0275   -0.0778 H   0  0  0  0  0  0  0  0  0  0  0  0
    4.2831    0.9017   -1.7904 H   0  0  0  0  0  0  0  0  0  0  0  0
   -0.3616   -0.1727   -3.3177 H   0  0  0  0  0  0  0  0  0  0  0  0
   -1.0901    3.0540   -1.3420 H   0  0  0  0  0  0  0  0  0  0  0  0
   -5.2969   -0.0835   -0.4471 H   0  0  0  0  0  0  0  0  0  0  0  0
   -0.4012   -3.6389    1.3135 H   0  0  0  0  0  0  0  0  0  0  0  0
   -2.0581   -1.3957    3.1811 H   0  0  0  0  0  0  0  0  0  0  0  0
  1  2  1  0
  2  3  1  0
  1  4  1  0
  4  5  1  0
  5  6  1  0
  3  7  1  0
  3  8  1  0
  4  8  1  0
  6  8  1  0
  2  9  1  6
  2 10  1  0
 11 12  1  0
 10 13  1  0
 12 13  1  0
 13 14  1  0
 11 15  1  0
 14 15  1  0
  1 16  1  0
  1 17  1  0
  6 18  1  0
  7 19  1  0
  7 20  1  0
  3 21  1  1
  4 22  1  6
  5 23  1  0
  5 24  1  0
  6 25  1  1
  7 26  1  0
  9 27  1  0
  9 28  1  0
  9 29  1  0
 10 30  1  0
 10 31  1  0
 11 32  1  0
 11 33  1  0
 12 34  1  0
 12 35  1  0
 14 36  1  0
 15 37  1  0
 16 38  1  0
 17 39  1  0
 18 40  1  0
 19 41  1  0
 20 42  1  0
M  END
>  <PDBID>  (1) 
1VM1

>  <PDB ID>  (1) 
1VM1

>  <Generic Name>  (1) 
Tazobactam

>  <Brand Name>  (1) 
Jamp-pip/taz#Mylan-piperacillin and Tazobactam for Injection#Piperacillin / Tazobactam Powder for Injection#Piperacillin Sodium/tazobactam Sodium Powder for Injection#Piperacillin and Tazobactam#Piperacillin and Tazobactam for Injection#Piperacillin, Tazobactam#Piperacillin/tazobactam for Injection#Tazocin#Tazocin Pws IV 2g Piperacillin-.25g Tazobac.#Tazocin Pws IV 3g Piperacillin-.375g Tazobac#Tazocin Pws IV 4g Piperacillin-.5g Tazobac.#Vpi-piperacillin and Tazobactam for Injection#Zerbaxa#Zosyn#Zosyn In Galaxy Containers#Zosyn Pharmacy Bulk Package

>  <DrugBank ID>  (1) 
DB01606

>  <ATC Codes>  (1) 
J01CG02

>  <Ligand ID>  (1) 
TAZ

>  <Target Name>  (1) 
Beta-lactamase TEM

>  <UniProt ID>  (1) 
P62594

>  <PDB ID.1>  (1) 
1VM1

>  <Seq. Identity>  (1) 
66%

$$$$
