PDB_DB00884_05
     RDKit          3D

 38 38  0  0  0  0  0  0  0  0999 V2000
   -1.3974   -0.9655   -2.0920 O   0  0  0  0  0  0  0  0  0  0  0  0
   -2.3747   -0.6003   -0.9984 P   0  0  0  0  0  0  0  0  0  0  0  0
   -2.4988   -2.1559   -0.4981 O   0  0  0  0  0  0  0  0  0  0  0  0
   -3.4201    0.0090   -2.1809 O   0  0  0  0  0  0  0  0  0  0  0  0
   -1.3980    0.5398   -0.0774 C   0  0  0  0  0  0  0  0  0  0  0  0
   -2.0023    1.8234   -0.4377 O   0  0  0  0  0  0  0  0  0  0  0  0
   -1.6451    0.2656    1.6246 P   0  0  0  0  0  0  0  0  0  0  0  0
   -3.1787   -0.4021    2.0521 O   0  0  0  0  0  0  0  0  0  0  0  0
   -0.4871    0.4601    2.7155 O   0  0  0  0  0  0  0  0  0  0  0  0
   -2.3166    1.6178    1.9220 O   0  0  0  0  0  0  0  0  0  0  0  0
   -0.0248    0.8264   -0.5934 C   0  0  0  0  0  0  0  0  0  0  0  0
    0.9944   -0.1988   -0.7704 C   0  0  1  0  0  0  0  0  0  0  0  0
    2.2326    0.5510   -1.3499 C   0  0  0  0  0  0  0  0  0  0  0  0
    3.5140    0.0492   -0.7560 C   0  0  0  0  0  0  0  0  0  0  0  0
    3.6192    0.2604    0.7363 C   0  0  0  0  0  0  0  0  0  0  0  0
    2.2779    0.1834    1.2813 N   0  0  0  0  0  0  0  0  0  0  0  0
    1.5332   -0.7950    0.5025 C   0  0  0  0  0  0  0  0  0  0  0  0
   -1.7502    2.0406   -1.3618 H   0  0  0  0  0  0  0  0  0  0  0  0
   -0.1908    1.3462   -1.6099 H   0  0  0  0  0  0  0  0  0  0  0  0
    0.4565    1.6827   -0.0129 H   0  0  0  0  0  0  0  0  0  0  0  0
    2.1630    1.6280   -1.0904 H   0  0  0  0  0  0  0  0  0  0  0  0
    4.3190    0.7009   -1.1961 H   0  0  0  0  0  0  0  0  0  0  0  0
    4.2075   -0.5629    1.2002 H   0  0  0  0  0  0  0  0  0  0  0  0
    0.8180   -1.2663    1.1633 H   0  0  0  0  0  0  0  0  0  0  0  0
    1.8203    1.0928    1.3718 H   0  0  0  0  0  0  0  0  0  0  0  0
   -1.5800   -1.6126   -2.7882 H   0  0  0  0  0  0  0  0  0  0  0  0
   -3.4276   -0.4034   -0.2492 H   0  0  0  0  0  0  0  0  0  0  0  0
   -3.0629   -2.6324   -1.1130 H   0  0  0  0  0  0  0  0  0  0  0  0
   -3.1140    0.9059   -2.3299 H   0  0  0  0  0  0  0  0  0  0  0  0
   -1.4086   -0.9979    1.5125 H   0  0  0  0  0  0  0  0  0  0  0  0
   -3.1727   -0.4769    3.0121 H   0  0  0  0  0  0  0  0  0  0  0  0
   -0.2733   -0.1543    3.4099 H   0  0  0  0  0  0  0  0  0  0  0  0
   -2.5349    1.8981    2.8163 H   0  0  0  0  0  0  0  0  0  0  0  0
    0.8098   -0.9726   -1.5465 H   0  0  0  0  0  0  0  0  0  0  0  0
    2.2657    0.4385   -2.4309 H   0  0  0  0  0  0  0  0  0  0  0  0
    3.7970   -0.9744   -1.0292 H   0  0  0  0  0  0  0  0  0  0  0  0
    4.1144    1.2105    1.0059 H   0  0  0  0  0  0  0  0  0  0  0  0
    2.3162   -1.5502    0.1856 H   0  0  0  0  0  0  0  0  0  0  0  0
  1  2  1  0
  2  3  1  0
  2  4  1  0
  2  5  1  0
  5  6  1  0
  5  7  1  0
  7  8  1  0
  7  9  1  0
  7 10  1  0
  5 11  1  0
 11 12  1  0
 12 13  1  0
 13 14  1  0
 14 15  1  0
 15 16  1  0
 12 17  1  0
 16 17  1  0
 18  6  1  0
 11 19  1  0
 11 20  1  0
 13 21  1  0
 14 22  1  0
 15 23  1  0
 17 24  1  0
 25 16  1  0
  1 26  1  0
  2 27  1  0
  3 28  1  0
  4 29  1  0
  7 30  1  0
  8 31  1  0
  9 32  1  0
 10 33  1  0
 12 34  1  6
 13 35  1  0
 14 36  1  0
 15 37  1  0
 17 38  1  0
M  END
>  <PDBID>  (1) 
5CG5

>  <PDB ID>  (1) 
5CG5

>  <Generic Name>  (1) 
Risedronate

>  <Brand Name>  (1) 
Actonel#Actonel Dr#Actonel Plus Calcium#Actonel Sachet Kit#Apo-risedronate#Atelvia#Auro-risedronate#Dom-risedronate#Jamp-risedronate#Mylan-risedronate#Ntp-risedronate#PHL-risedronate#PMS-risedronate#PMS-risedronate Plus Calcium#Pendo-risedronate#Q-risedronate#Ratio-risedronate#Risedronate#Risedronate Sodium#Risedronate-35#Riva-risedronate#Sandoz Risedronate#Teva-risedronate#Benet

>  <DrugBank ID>  (1) 
DB00884

>  <ATC Codes>  (1) 
M05BB02#M05BA07#M05BB04#M05BB07

>  <Ligand ID>  (1) 
RIS

>  <Target Name>  (1) 
Farnesyl pyrophosphate synthase

>  <UniProt ID>  (1) 
P14324

>  <PDB ID.1>  (1) 
5CG5

>  <Seq. Identity>  (1) 
100%

$$$$
