PDB_DB00212_00
     RDKit          3D

220226  0  0  0  0  0  0  0  0999 V2000
   -2.8243    4.3336   -0.9713 O   0  0  0  0  0  0  0  0  0  0  0  0
   -2.4533    2.4652   -1.0284 S   0  0  0  0  0  0  0  0  0  0  0  0
   -1.0447    2.3955   -1.1386 O   0  0  0  0  0  0  0  0  0  0  0  0
   -3.3123    2.2457   -2.5814 C   0  0  0  0  0  0  0  0  0  0  0  0
   -4.7643    2.5727   -2.4610 C   0  0  0  0  0  0  0  0  0  0  0  0
   -3.0836    0.9607   -3.2578 C   0  0  0  0  0  0  0  0  0  0  0  0
   -2.7051    3.3253   -3.5397 C   0  0  0  0  0  0  0  0  0  0  0  0
   -3.4199    1.9932    0.2339 C   0  0  0  0  0  0  0  0  0  0  0  0
   -3.3959    0.5764    0.7962 C   0  0  1  0  0  0  0  0  0  0  0  0
   -3.6864   -0.4490   -0.1797 C   0  0  0  0  0  0  0  0  0  0  0  0
   -3.7957   -1.9175    0.1326 C   0  0  0  0  0  0  0  0  0  0  0  0
   -4.1803   -2.6542   -1.1444 C   0  0  0  0  0  0  0  0  0  0  0  0
   -3.4523   -3.8821   -1.4724 C   0  0  0  0  0  0  0  0  0  0  0  0
   -3.2860   -4.6641   -0.1568 C   0  0  0  0  0  0  0  0  0  0  0  0
   -2.2210   -3.8854    0.5736 C   0  0  0  0  0  0  0  0  0  0  0  0
   -2.6812   -2.5017    0.8910 C   0  0  0  0  0  0  0  0  0  0  0  0
   -2.2363    0.4732    1.7364 C   0  0  0  0  0  0  0  0  0  0  0  0
   -2.5185    1.5211    2.7146 O   0  0  0  0  0  0  0  0  0  0  0  0
   -0.9727    0.8539    1.1903 N   0  0  0  0  0  0  0  0  0  0  0  0
    0.0205    1.0688    2.2083 C   0  0  1  0  0  0  0  0  0  0  0  0
    0.3274   -0.1325    2.9724 C   0  0  0  0  0  0  0  0  0  0  0  0
    1.3536    0.1421    4.0561 C   0  0  0  0  0  0  0  0  0  0  0  0
    0.8397    1.1800    5.0399 C   0  0  0  0  0  0  0  0  0  0  0  0
    1.7021    0.9478    6.1768 N   0  0  0  0  0  0  0  0  0  0  0  0
    2.2227   -0.3841    6.0632 C   0  0  0  0  0  0  0  0  0  0  0  0
    1.5745   -0.9992    4.9218 N   0  0  0  0  0  0  0  0  0  0  0  0
    1.1939    1.8847    1.6537 C   0  0  0  0  0  0  0  0  0  0  0  0
    0.5312    3.1486    1.3676 O   0  0  0  0  0  0  0  0  0  0  0  0
    1.7123    1.5086    0.4475 N   0  0  0  0  0  0  0  0  0  0  0  0
    2.3701    0.3200    0.0957 C   0  0  2  0  0  0  0  0  0  0  0  0
    3.6514    0.0213    0.7178 C   0  0  1  0  0  0  0  0  0  0  0  0
    4.1874   -1.1660    0.2315 O   0  0  0  0  0  0  0  0  0  0  0  0
    4.7271    0.9948    0.9319 C   0  0  2  0  0  0  0  0  0  0  0  0
    5.5315    1.5596   -0.1458 C   0  0  0  0  0  0  0  0  0  0  0  0
    5.0326    2.3715   -1.2774 C   0  0  0  0  0  0  0  0  0  0  0  0
    5.6736    3.0927   -0.1485 C   0  0  0  0  0  0  0  0  0  0  0  0
    5.6463    0.4460    1.8714 O   0  0  0  0  0  0  0  0  0  0  0  0
    2.1360    0.1064   -1.3567 C   0  0  0  0  0  0  0  0  0  0  0  0
    2.7134   -1.1074   -1.9951 C   0  0  0  0  0  0  0  0  0  0  0  0
    2.3033   -1.0074   -3.4845 C   0  0  0  0  0  0  0  0  0  0  0  0
    2.6587   -2.2377   -4.2510 C   0  0  0  0  0  0  0  0  0  0  0  0
    1.9963   -3.4467   -3.6724 C   0  0  0  0  0  0  0  0  0  0  0  0
    1.2327   -3.0841   -2.4139 C   0  0  0  0  0  0  0  0  0  0  0  0
    2.1487   -2.3892   -1.4166 C   0  0  0  0  0  0  0  0  0  0  0  0
   -2.8243    4.3336   -0.9713 O   0  0  0  0  0  0  0  0  0  0  0  0
   -2.4533    2.4652   -1.0284 S   0  0  0  0  0  0  0  0  0  0  0  0
   -1.0447    2.3955   -1.1386 O   0  0  0  0  0  0  0  0  0  0  0  0
   -3.3123    2.2457   -2.5814 C   0  0  0  0  0  0  0  0  0  0  0  0
   -4.7643    2.5727   -2.4610 C   0  0  0  0  0  0  0  0  0  0  0  0
   -3.0836    0.9607   -3.2578 C   0  0  0  0  0  0  0  0  0  0  0  0
   -2.7051    3.3253   -3.5397 C   0  0  0  0  0  0  0  0  0  0  0  0
   -3.4199    1.9932    0.2339 C   0  0  0  0  0  0  0  0  0  0  0  0
   -3.3959    0.5764    0.7962 C   0  0  1  0  0  0  0  0  0  0  0  0
   -3.6864   -0.4490   -0.1797 C   0  0  0  0  0  0  0  0  0  0  0  0
   -3.7957   -1.9175    0.1326 C   0  0  0  0  0  0  0  0  0  0  0  0
   -4.1803   -2.6542   -1.1444 C   0  0  0  0  0  0  0  0  0  0  0  0
   -3.4523   -3.8821   -1.4724 C   0  0  0  0  0  0  0  0  0  0  0  0
   -3.2860   -4.6641   -0.1568 C   0  0  0  0  0  0  0  0  0  0  0  0
   -2.2210   -3.8854    0.5736 C   0  0  0  0  0  0  0  0  0  0  0  0
   -2.6812   -2.5017    0.8910 C   0  0  0  0  0  0  0  0  0  0  0  0
   -2.2363    0.4732    1.7364 C   0  0  0  0  0  0  0  0  0  0  0  0
   -2.5185    1.5211    2.7146 O   0  0  0  0  0  0  0  0  0  0  0  0
   -0.9727    0.8539    1.1903 N   0  0  0  0  0  0  0  0  0  0  0  0
    0.0205    1.0688    2.2083 C   0  0  1  0  0  0  0  0  0  0  0  0
    0.3274   -0.1325    2.9724 C   0  0  0  0  0  0  0  0  0  0  0  0
    1.3536    0.1421    4.0561 C   0  0  0  0  0  0  0  0  0  0  0  0
    0.8397    1.1800    5.0399 C   0  0  0  0  0  0  0  0  0  0  0  0
    1.7021    0.9478    6.1768 N   0  0  0  0  0  0  0  0  0  0  0  0
    2.2227   -0.3841    6.0632 C   0  0  0  0  0  0  0  0  0  0  0  0
    1.5745   -0.9992    4.9218 N   0  0  0  0  0  0  0  0  0  0  0  0
    1.1939    1.8847    1.6537 C   0  0  0  0  0  0  0  0  0  0  0  0
    0.5312    3.1486    1.3676 O   0  0  0  0  0  0  0  0  0  0  0  0
    1.7123    1.5086    0.4475 N   0  0  0  0  0  0  0  0  0  0  0  0
    2.3701    0.3200    0.0957 C   0  0  2  0  0  0  0  0  0  0  0  0
    3.6514    0.0213    0.7178 C   0  0  1  0  0  0  0  0  0  0  0  0
    4.1874   -1.1660    0.2315 O   0  0  0  0  0  0  0  0  0  0  0  0
    4.7271    0.9948    0.9319 C   0  0  2  0  0  0  0  0  0  0  0  0
    5.5315    1.5596   -0.1458 C   0  0  0  0  0  0  0  0  0  0  0  0
    5.0326    2.3715   -1.2774 C   0  0  0  0  0  0  0  0  0  0  0  0
    5.6736    3.0927   -0.1485 C   0  0  0  0  0  0  0  0  0  0  0  0
    5.6463    0.4460    1.8714 O   0  0  0  0  0  0  0  0  0  0  0  0
    2.1360    0.1064   -1.3567 C   0  0  0  0  0  0  0  0  0  0  0  0
    2.7134   -1.1074   -1.9951 C   0  0  0  0  0  0  0  0  0  0  0  0
    2.3033   -1.0074   -3.4845 C   0  0  0  0  0  0  0  0  0  0  0  0
    2.6587   -2.2377   -4.2510 C   0  0  0  0  0  0  0  0  0  0  0  0
    1.9963   -3.4467   -3.6724 C   0  0  0  0  0  0  0  0  0  0  0  0
    1.2327   -3.0841   -2.4139 C   0  0  0  0  0  0  0  0  0  0  0  0
    2.1487   -2.3892   -1.4166 C   0  0  0  0  0  0  0  0  0  0  0  0
   -2.3996    4.4904   -0.0940 H   0  0  0  0  0  0  0  0  0  0  0  0
   -0.4875    1.8143   -1.7081 H   0  0  0  0  0  0  0  0  0  0  0  0
   -5.1763    2.7480   -3.4891 H   0  0  0  0  0  0  0  0  0  0  0  0
   -4.8309    3.5513   -1.9138 H   0  0  0  0  0  0  0  0  0  0  0  0
   -5.3714    1.8220   -1.9493 H   0  0  0  0  0  0  0  0  0  0  0  0
   -3.8953    0.2067   -3.0466 H   0  0  0  0  0  0  0  0  0  0  0  0
   -2.0966    0.4842   -3.0628 H   0  0  0  0  0  0  0  0  0  0  0  0
   -3.0993    1.1118   -4.3777 H   0  0  0  0  0  0  0  0  0  0  0  0
   -1.7585    2.9459   -3.9208 H   0  0  0  0  0  0  0  0  0  0  0  0
   -3.4410    3.4573   -4.3316 H   0  0  0  0  0  0  0  0  0  0  0  0
   -2.5516    4.2258   -2.9309 H   0  0  0  0  0  0  0  0  0  0  0  0
   -4.5079    2.2705    0.0096 H   0  0  0  0  0  0  0  0  0  0  0  0
   -3.2249    2.6393    1.1511 H   0  0  0  0  0  0  0  0  0  0  0  0
   -4.3110    0.5987    1.5126 H   0  0  0  0  0  0  0  0  0  0  0  0
   -2.8617   -0.4038   -1.0084 H   0  0  0  0  0  0  0  0  0  0  0  0
   -4.6234   -0.1808   -0.7346 H   0  0  0  0  0  0  0  0  0  0  0  0
   -4.7133   -2.0048    0.8009 H   0  0  0  0  0  0  0  0  0  0  0  0
   -5.2804   -2.8904   -1.1558 H   0  0  0  0  0  0  0  0  0  0  0  0
   -4.0351   -1.9306   -1.9928 H   0  0  0  0  0  0  0  0  0  0  0  0
   -2.4392   -3.7486   -1.9054 H   0  0  0  0  0  0  0  0  0  0  0  0
   -4.0582   -4.5150   -2.1308 H   0  0  0  0  0  0  0  0  0  0  0  0
   -2.9820   -5.6958   -0.3520 H   0  0  0  0  0  0  0  0  0  0  0  0
   -4.2284   -4.5832    0.4221 H   0  0  0  0  0  0  0  0  0  0  0  0
   -1.3047   -3.8848   -0.0608 H   0  0  0  0  0  0  0  0  0  0  0  0
   -2.0240   -4.4267    1.5347 H   0  0  0  0  0  0  0  0  0  0  0  0
   -2.8652   -2.4756    2.0031 H   0  0  0  0  0  0  0  0  0  0  0  0
   -1.7794   -1.8498    0.7196 H   0  0  0  0  0  0  0  0  0  0  0  0
   -2.2683   -0.4163    2.3490 H   0  0  0  0  0  0  0  0  0  0  0  0
   -3.4449    1.3884    3.0357 H   0  0  0  0  0  0  0  0  0  0  0  0
   -0.6555    0.2067    0.4415 H   0  0  0  0  0  0  0  0  0  0  0  0
   -0.5333    1.7691    2.9566 H   0  0  0  0  0  0  0  0  0  0  0  0
   -0.6340   -0.4008    3.5458 H   0  0  0  0  0  0  0  0  0  0  0  0
    0.5875   -1.0574    2.4755 H   0  0  0  0  0  0  0  0  0  0  0  0
    2.2690    0.5408    3.6345 H   0  0  0  0  0  0  0  0  0  0  0  0
    0.9964    2.2052    4.6987 H   0  0  0  0  0  0  0  0  0  0  0  0
   -0.2262    1.0233    5.2817 H   0  0  0  0  0  0  0  0  0  0  0  0
    2.4695    1.6511    6.2498 H   0  0  0  0  0  0  0  0  0  0  0  0
    3.3205   -0.3351    5.8092 H   0  0  0  0  0  0  0  0  0  0  0  0
    2.0838   -0.9755    6.9875 H   0  0  0  0  0  0  0  0  0  0  0  0
    0.6612   -1.3937    5.1732 H   0  0  0  0  0  0  0  0  0  0  0  0
    1.8506    2.1224    2.4647 H   0  0  0  0  0  0  0  0  0  0  0  0
    0.1495    3.4241    2.2532 H   0  0  0  0  0  0  0  0  0  0  0  0
    1.7221    2.2551   -0.2843 H   0  0  0  0  0  0  0  0  0  0  0  0
    1.6563   -0.4647    0.5454 H   0  0  0  0  0  0  0  0  0  0  0  0
    3.3818   -0.3025    1.7965 H   0  0  0  0  0  0  0  0  0  0  0  0
    3.9774   -1.9357    0.7750 H   0  0  0  0  0  0  0  0  0  0  0  0
    4.3279    1.8584    1.5709 H   0  0  0  0  0  0  0  0  0  0  0  0
    6.5722    1.0912   -0.2400 H   0  0  0  0  0  0  0  0  0  0  0  0
    5.6504    2.3153   -2.2062 H   0  0  0  0  0  0  0  0  0  0  0  0
    3.9663    2.4329   -1.4669 H   0  0  0  0  0  0  0  0  0  0  0  0
    4.9732    3.6717    0.4820 H   0  0  0  0  0  0  0  0  0  0  0  0
    6.6369    3.5640   -0.2957 H   0  0  0  0  0  0  0  0  0  0  0  0
    6.5060    0.8932    1.8188 H   0  0  0  0  0  0  0  0  0  0  0  0
    1.0031   -0.0757   -1.4447 H   0  0  0  0  0  0  0  0  0  0  0  0
    2.2203    1.0193   -1.9906 H   0  0  0  0  0  0  0  0  0  0  0  0
    3.7962   -1.1890   -2.0222 H   0  0  0  0  0  0  0  0  0  0  0  0
    2.7876   -0.1360   -3.9608 H   0  0  0  0  0  0  0  0  0  0  0  0
    1.2027   -0.8519   -3.5754 H   0  0  0  0  0  0  0  0  0  0  0  0
    3.7580   -2.3452   -4.3774 H   0  0  0  0  0  0  0  0  0  0  0  0
    2.2487   -2.0880   -5.2835 H   0  0  0  0  0  0  0  0  0  0  0  0
    1.3325   -3.9276   -4.3932 H   0  0  0  0  0  0  0  0  0  0  0  0
    2.8148   -4.1715   -3.4202 H   0  0  0  0  0  0  0  0  0  0  0  0
    0.8970   -4.0242   -1.9326 H   0  0  0  0  0  0  0  0  0  0  0  0
    0.3373   -2.4898   -2.6469 H   0  0  0  0  0  0  0  0  0  0  0  0
    2.9701   -3.0902   -1.1832 H   0  0  0  0  0  0  0  0  0  0  0  0
    1.5287   -2.1388   -0.5402 H   0  0  0  0  0  0  0  0  0  0  0  0
   -2.3996    4.4904   -0.0940 H   0  0  0  0  0  0  0  0  0  0  0  0
   -0.4875    1.8143   -1.7081 H   0  0  0  0  0  0  0  0  0  0  0  0
   -5.1763    2.7480   -3.4891 H   0  0  0  0  0  0  0  0  0  0  0  0
   -4.8309    3.5513   -1.9138 H   0  0  0  0  0  0  0  0  0  0  0  0
   -5.3714    1.8220   -1.9493 H   0  0  0  0  0  0  0  0  0  0  0  0
   -3.8953    0.2067   -3.0466 H   0  0  0  0  0  0  0  0  0  0  0  0
   -2.0966    0.4842   -3.0628 H   0  0  0  0  0  0  0  0  0  0  0  0
   -3.0993    1.1118   -4.3777 H   0  0  0  0  0  0  0  0  0  0  0  0
   -1.7585    2.9459   -3.9208 H   0  0  0  0  0  0  0  0  0  0  0  0
   -3.4410    3.4573   -4.3316 H   0  0  0  0  0  0  0  0  0  0  0  0
   -2.5516    4.2258   -2.9309 H   0  0  0  0  0  0  0  0  0  0  0  0
   -4.5079    2.2705    0.0096 H   0  0  0  0  0  0  0  0  0  0  0  0
   -3.2249    2.6393    1.1511 H   0  0  0  0  0  0  0  0  0  0  0  0
   -4.3110    0.5987    1.5126 H   0  0  0  0  0  0  0  0  0  0  0  0
   -2.8617   -0.4038   -1.0084 H   0  0  0  0  0  0  0  0  0  0  0  0
   -4.6234   -0.1808   -0.7346 H   0  0  0  0  0  0  0  0  0  0  0  0
   -4.7133   -2.0048    0.8009 H   0  0  0  0  0  0  0  0  0  0  0  0
   -5.2804   -2.8904   -1.1558 H   0  0  0  0  0  0  0  0  0  0  0  0
   -4.0351   -1.9306   -1.9928 H   0  0  0  0  0  0  0  0  0  0  0  0
   -2.4392   -3.7486   -1.9054 H   0  0  0  0  0  0  0  0  0  0  0  0
   -4.0582   -4.5150   -2.1308 H   0  0  0  0  0  0  0  0  0  0  0  0
   -2.9820   -5.6958   -0.3520 H   0  0  0  0  0  0  0  0  0  0  0  0
   -4.2284   -4.5832    0.4221 H   0  0  0  0  0  0  0  0  0  0  0  0
   -1.3047   -3.8848   -0.0608 H   0  0  0  0  0  0  0  0  0  0  0  0
   -2.0240   -4.4267    1.5347 H   0  0  0  0  0  0  0  0  0  0  0  0
   -2.8652   -2.4756    2.0031 H   0  0  0  0  0  0  0  0  0  0  0  0
   -1.7794   -1.8498    0.7196 H   0  0  0  0  0  0  0  0  0  0  0  0
   -2.2683   -0.4163    2.3490 H   0  0  0  0  0  0  0  0  0  0  0  0
   -3.4449    1.3884    3.0357 H   0  0  0  0  0  0  0  0  0  0  0  0
   -0.6555    0.2067    0.4415 H   0  0  0  0  0  0  0  0  0  0  0  0
   -0.5333    1.7691    2.9566 H   0  0  0  0  0  0  0  0  0  0  0  0
   -0.6340   -0.4008    3.5458 H   0  0  0  0  0  0  0  0  0  0  0  0
    0.5875   -1.0574    2.4755 H   0  0  0  0  0  0  0  0  0  0  0  0
    2.2690    0.5408    3.6345 H   0  0  0  0  0  0  0  0  0  0  0  0
    0.9964    2.2052    4.6987 H   0  0  0  0  0  0  0  0  0  0  0  0
   -0.2262    1.0233    5.2817 H   0  0  0  0  0  0  0  0  0  0  0  0
    2.4695    1.6511    6.2498 H   0  0  0  0  0  0  0  0  0  0  0  0
    3.3205   -0.3351    5.8092 H   0  0  0  0  0  0  0  0  0  0  0  0
    2.0838   -0.9755    6.9875 H   0  0  0  0  0  0  0  0  0  0  0  0
    0.6612   -1.3937    5.1732 H   0  0  0  0  0  0  0  0  0  0  0  0
    1.8506    2.1224    2.4647 H   0  0  0  0  0  0  0  0  0  0  0  0
    0.1495    3.4241    2.2532 H   0  0  0  0  0  0  0  0  0  0  0  0
    1.7221    2.2551   -0.2843 H   0  0  0  0  0  0  0  0  0  0  0  0
    1.6563   -0.4647    0.5454 H   0  0  0  0  0  0  0  0  0  0  0  0
    3.3818   -0.3025    1.7965 H   0  0  0  0  0  0  0  0  0  0  0  0
    3.9774   -1.9357    0.7750 H   0  0  0  0  0  0  0  0  0  0  0  0
    4.3279    1.8584    1.5709 H   0  0  0  0  0  0  0  0  0  0  0  0
    6.5722    1.0912   -0.2400 H   0  0  0  0  0  0  0  0  0  0  0  0
    5.6504    2.3153   -2.2062 H   0  0  0  0  0  0  0  0  0  0  0  0
    3.9663    2.4329   -1.4669 H   0  0  0  0  0  0  0  0  0  0  0  0
    4.9732    3.6717    0.4820 H   0  0  0  0  0  0  0  0  0  0  0  0
    6.6369    3.5640   -0.2957 H   0  0  0  0  0  0  0  0  0  0  0  0
    6.5060    0.8932    1.8188 H   0  0  0  0  0  0  0  0  0  0  0  0
    1.0031   -0.0757   -1.4447 H   0  0  0  0  0  0  0  0  0  0  0  0
    2.2203    1.0193   -1.9906 H   0  0  0  0  0  0  0  0  0  0  0  0
    3.7962   -1.1890   -2.0222 H   0  0  0  0  0  0  0  0  0  0  0  0
    2.7876   -0.1360   -3.9608 H   0  0  0  0  0  0  0  0  0  0  0  0
    1.2027   -0.8519   -3.5754 H   0  0  0  0  0  0  0  0  0  0  0  0
    3.7580   -2.3452   -4.3774 H   0  0  0  0  0  0  0  0  0  0  0  0
    2.2487   -2.0880   -5.2835 H   0  0  0  0  0  0  0  0  0  0  0  0
    1.3325   -3.9276   -4.3932 H   0  0  0  0  0  0  0  0  0  0  0  0
    2.8148   -4.1715   -3.4202 H   0  0  0  0  0  0  0  0  0  0  0  0
    0.8970   -4.0242   -1.9326 H   0  0  0  0  0  0  0  0  0  0  0  0
    0.3373   -2.4898   -2.6469 H   0  0  0  0  0  0  0  0  0  0  0  0
    2.9701   -3.0902   -1.1832 H   0  0  0  0  0  0  0  0  0  0  0  0
    1.5287   -2.1388   -0.5402 H   0  0  0  0  0  0  0  0  0  0  0  0
  2  1  1  0
  2  3  1  0
  2  4  1  0
  4  5  1  0
  4  6  1  0
  4  7  1  0
  2  8  1  0
  8  9  1  0
  9 10  1  0
 10 11  1  0
 11 12  1  0
 12 13  1  0
 13 14  1  0
 14 15  1  0
 11 16  1  0
 15 16  1  0
  9 17  1  0
 17 18  1  0
 17 19  1  0
 19 20  1  0
 20 21  1  0
 21 22  1  0
 22 23  1  0
 23 24  1  0
 24 25  1  0
 22 26  1  0
 25 26  1  0
 20 27  1  0
 27 28  1  0
 27 29  1  0
 29 30  1  0
 30 31  1  0
 31 32  1  0
 31 33  1  0
 33 34  1  0
 34 35  1  0
 34 36  1  0
 35 36  1  0
 33 37  1  0
 30 38  1  0
 38 39  1  0
 39 40  1  0
 40 41  1  0
 41 42  1  0
 42 43  1  0
 39 44  1  0
 43 44  1  0
 46 45  1  0
 46 47  1  0
 46 48  1  0
 48 49  1  0
 48 50  1  0
 48 51  1  0
 46 52  1  0
 52 53  1  0
 53 54  1  0
 54 55  1  0
 55 56  1  0
 56 57  1  0
 57 58  1  0
 58 59  1  0
 55 60  1  0
 59 60  1  0
 53 61  1  0
 61 62  1  0
 61 63  1  0
 63 64  1  0
 64 65  1  0
 65 66  1  0
 66 67  1  0
 67 68  1  0
 68 69  1  0
 66 70  1  0
 69 70  1  0
 64 71  1  0
 71 72  1  0
 71 73  1  0
 73 74  1  0
 74 75  1  0
 75 76  1  0
 75 77  1  0
 77 78  1  0
 78 79  1  0
 78 80  1  0
 79 80  1  0
 77 81  1  0
 74 82  1  0
 82 83  1  0
 83 84  1  0
 84 85  1  0
 85 86  1  0
 86 87  1  0
 83 88  1  0
 87 88  1  0
  1 89  1  0
  3 90  1  0
  5 91  1  0
  5 92  1  0
  5 93  1  0
  6 94  1  0
  6 95  1  0
  6 96  1  0
  7 97  1  0
  7 98  1  0
  7 99  1  0
  8100  1  0
  8101  1  0
  9102  1  1
 10103  1  0
 10104  1  0
 11105  1  0
 12106  1  0
 12107  1  0
 13108  1  0
 13109  1  0
 14110  1  0
 14111  1  0
 15112  1  0
 15113  1  0
 16114  1  0
 16115  1  0
 17116  1  0
 18117  1  0
 19118  1  0
 20119  1  1
 21120  1  0
 21121  1  0
 22122  1  0
 23123  1  0
 23124  1  0
 24125  1  0
 25126  1  0
 25127  1  0
 26128  1  0
 27129  1  0
 28130  1  0
 29131  1  0
 30132  1  1
 31133  1  1
 32134  1  0
 33135  1  1
 34136  1  0
 35137  1  0
 35138  1  0
 36139  1  0
 36140  1  0
 37141  1  0
 38142  1  0
 38143  1  0
 39144  1  0
 40145  1  0
 40146  1  0
 41147  1  0
 41148  1  0
 42149  1  0
 42150  1  0
 43151  1  0
 43152  1  0
 44153  1  0
 44154  1  0
 45155  1  0
 47156  1  0
 49157  1  0
 49158  1  0
 49159  1  0
 50160  1  0
 50161  1  0
 50162  1  0
 51163  1  0
 51164  1  0
 51165  1  0
 52166  1  0
 52167  1  0
 53168  1  1
 54169  1  0
 54170  1  0
 55171  1  0
 56172  1  0
 56173  1  0
 57174  1  0
 57175  1  0
 58176  1  0
 58177  1  0
 59178  1  0
 59179  1  0
 60180  1  0
 60181  1  0
 61182  1  0
 62183  1  0
 63184  1  0
 64185  1  1
 65186  1  0
 65187  1  0
 66188  1  0
 67189  1  0
 67190  1  0
 68191  1  0
 69192  1  0
 69193  1  0
 70194  1  0
 71195  1  0
 72196  1  0
 73197  1  0
 74198  1  1
 75199  1  1
 76200  1  0
 77201  1  1
 78202  1  0
 79203  1  0
 79204  1  0
 80205  1  0
 80206  1  0
 81207  1  0
 82208  1  0
 82209  1  0
 83210  1  0
 84211  1  0
 84212  1  0
 85213  1  0
 85214  1  0
 86215  1  0
 86216  1  0
 87217  1  0
 87218  1  0
 88219  1  0
 88220  1  0
M  END
>  <PDBID>  (1) 
3D91

>  <PDB ID>  (1) 
3D91

>  <Generic Name>  (1) 
Remikiren

>  <Brand Name>  (1) 
nan

>  <DrugBank ID>  (1) 
DB00212

>  <ATC Codes>  (1) 
C09XA01

>  <Ligand ID>  (1) 
REM

>  <Target Name>  (1) 
Renin

>  <UniProt ID>  (1) 
P00797

>  <PDB ID.1>  (1) 
3D91

>  <Seq. Identity>  (1) 
100%

$$$$
