PDB_DB06401_00
     RDKit          3D

348367  0  0  0  0  0  0  0  0999 V2000
    6.8938    0.4179   -0.5884 C   0  0  1  0  0  0  0  0  0  0  0  0
    7.9382   -0.6280   -0.9095 C   0  0  0  0  0  0  0  0  0  0  0  0
    7.6477   -1.9178   -0.1629 C   0  0  0  0  0  0  0  0  0  0  0  0
    6.2270   -2.3835   -0.4173 C   0  0  0  0  0  0  0  0  0  0  0  0
    5.4997   -1.4864   -1.3672 C   0  0  0  0  0  0  0  0  0  0  0  0
    5.5529   -0.0687   -0.7976 C   0  0  1  0  0  0  0  0  0  0  0  0
    6.0116    0.1156    0.5447 N   0  0  0  0  0  0  0  0  0  0  0  0
    5.5368    1.2610    1.2905 C   0  0  0  0  0  0  0  0  0  0  0  0
    4.7299    0.9021    2.4952 C   0  0  0  0  0  0  0  0  0  0  0  0
    3.5960    0.2300    2.2847 O   0  0  0  0  0  0  0  0  0  0  0  0
    2.5916    0.7492    1.5686 C   0  0  0  0  0  0  0  0  0  0  0  0
    1.3282    1.0478    2.3604 C   0  0  0  0  0  0  0  0  0  0  0  0
    0.3449    1.8147    1.5133 C   0  0  0  0  0  0  0  0  0  0  0  0
    2.1148   -0.2270    0.5213 C   0  0  0  0  0  0  0  0  0  0  0  0
    1.4225    0.6810   -0.5095 C   0  0  0  0  0  0  0  0  0  0  0  0
    0.3722    1.5517    0.0618 C   0  0  0  0  0  0  0  0  0  0  0  0
   -1.0323    1.3279   -0.4485 C   0  0  0  0  0  0  0  0  0  0  0  0
   -1.7895    0.3151    0.0572 N   0  0  0  0  0  0  0  0  0  0  0  0
   -1.4626   -1.0565   -0.1695 C   0  0  0  0  0  0  0  0  0  0  0  0
   -1.6776   -1.7736    1.1224 C   0  0  0  0  0  0  0  0  0  0  0  0
   -2.4440   -3.0292    1.1170 C   0  0  0  0  0  0  0  0  0  0  0  0
   -3.4987   -3.1727    0.0601 C   0  0  0  0  0  0  0  0  0  0  0  0
   -3.8273   -4.5472   -0.0023 O   0  0  0  0  0  0  0  0  0  0  0  0
   -2.8109   -2.8449   -1.2354 C   0  0  0  0  0  0  0  0  0  0  0  0
   -2.3629   -1.4185   -1.3156 C   0  0  0  0  0  0  0  0  0  0  0  0
   -3.4441   -0.3675   -1.3322 C   0  0  0  0  0  0  0  0  0  0  0  0
   -4.7812   -0.8725   -1.6523 C   0  0  0  0  0  0  0  0  0  0  0  0
   -3.2068    0.3004   -0.0169 C   0  0  2  0  0  0  0  0  0  0  0  0
   -3.9736    1.5254    0.3199 C   0  0  0  0  0  0  0  0  0  0  0  0
   -3.9011    2.7103   -0.5441 C   0  0  0  0  0  0  0  0  0  0  0  0
   -5.2706    3.3262   -0.8416 C   0  0  0  0  0  0  0  0  0  0  0  0
   -6.3441    2.3154   -1.0480 C   0  0  0  0  0  0  0  0  0  0  0  0
   -7.5290    3.0496   -1.2969 O   0  0  0  0  0  0  0  0  0  0  0  0
   -6.5282    1.5949    0.2618 C   0  0  0  0  0  0  0  0  0  0  0  0
   -5.3070    1.2528    0.9886 C   0  0  0  0  0  0  0  0  0  0  0  0
    5.9089   -0.0855   -1.0182 C   0  0  1  0  0  0  0  0  0  0  0  0
    6.0010    1.4282   -0.8678 C   0  0  0  0  0  0  0  0  0  0  0  0
    7.0733    1.6847    0.1687 C   0  0  0  0  0  0  0  0  0  0  0  0
    8.3839    1.2544   -0.3774 C   0  0  0  0  0  0  0  0  0  0  0  0
    8.4067    0.0313   -1.2065 C   0  0  0  0  0  0  0  0  0  0  0  0
    7.1355   -0.7574   -1.2628 C   0  0  1  0  0  0  0  0  0  0  0  0
    6.4693   -0.9139    0.0156 N   0  0  0  0  0  0  0  0  0  0  0  0
    5.9880   -2.2344    0.2874 C   0  0  0  0  0  0  0  0  0  0  0  0
    4.5975   -2.2873    0.8476 C   0  0  0  0  0  0  0  0  0  0  0  0
    3.7104   -1.7321   -0.0521 O   0  0  0  0  0  0  0  0  0  0  0  0
    2.3890   -1.7512    0.3769 C   0  0  0  0  0  0  0  0  0  0  0  0
    1.5272   -2.6297   -0.5042 C   0  0  0  0  0  0  0  0  0  0  0  0
    0.1039   -2.4806   -0.0703 C   0  0  0  0  0  0  0  0  0  0  0  0
    1.7509   -0.3972    0.4603 C   0  0  0  0  0  0  0  0  0  0  0  0
    0.6971   -0.2140   -0.6317 C   0  0  0  0  0  0  0  0  0  0  0  0
   -0.4717   -1.0807   -0.4647 C   0  0  0  0  0  0  0  0  0  0  0  0
   -1.5258   -0.8330    0.5062 C   0  0  0  0  0  0  0  0  0  0  0  0
   -2.3258    0.3095    0.5549 N   0  0  0  0  0  0  0  0  0  0  0  0
   -1.5599    1.4278    1.1029 C   0  0  0  0  0  0  0  0  0  0  0  0
   -1.7730    1.4479    2.6397 C   0  0  0  0  0  0  0  0  0  0  0  0
   -3.2615    1.4687    2.8568 C   0  0  0  0  0  0  0  0  0  0  0  0
   -3.7590    2.8251    2.4471 C   0  0  0  0  0  0  0  0  0  0  0  0
   -5.0354    2.7420    1.9462 O   0  0  0  0  0  0  0  0  0  0  0  0
   -2.8051    3.5582    1.5578 C   0  0  0  0  0  0  0  0  0  0  0  0
   -2.1030    2.6945    0.5569 C   0  0  0  0  0  0  0  0  0  0  0  0
   -2.9752    2.2727   -0.5884 C   0  0  1  0  0  0  0  0  0  0  0  0
   -2.4429    2.9649   -1.8452 C   0  0  0  0  0  0  0  0  0  0  0  0
   -2.8696    0.7668   -0.6863 C   0  0  2  0  0  0  0  0  0  0  0  0
   -4.1365    0.1717   -1.1727 C   0  0  0  0  0  0  0  0  0  0  0  0
   -4.1558   -1.2921   -1.4174 C   0  0  0  0  0  0  0  0  0  0  0  0
   -4.9548   -1.9908   -0.3325 C   0  0  0  0  0  0  0  0  0  0  0  0
   -6.4143   -1.6840   -0.5982 C   0  0  0  0  0  0  0  0  0  0  0  0
   -6.9173   -2.5013   -1.6163 O   0  0  0  0  0  0  0  0  0  0  0  0
   -6.5673   -0.2499   -1.0009 C   0  0  0  0  0  0  0  0  0  0  0  0
   -5.3796    0.5156   -0.3802 C   0  0  0  0  0  0  0  0  0  0  0  0
    7.2154   -0.3599    0.6249 C   0  0  0  0  0  0  0  0  0  0  0  0
    8.4003   -0.5830   -0.2808 C   0  0  0  0  0  0  0  0  0  0  0  0
    9.1205    0.7104   -0.5044 C   0  0  0  0  0  0  0  0  0  0  0  0
    8.2798    1.7306   -1.2336 C   0  0  0  0  0  0  0  0  0  0  0  0
    7.6394    2.7141   -0.2681 C   0  0  0  0  0  0  0  0  0  0  0  0
    6.6835    2.0046    0.6643 C   0  0  0  0  0  0  0  0  0  0  0  0
    6.4318    0.7133    0.1165 N   0  0  0  0  0  0  0  0  0  0  0  0
    5.0494    0.3843   -0.0628 C   0  0  0  0  0  0  0  0  0  0  0  0
    4.3259    0.1501    1.2313 C   0  0  0  0  0  0  0  0  0  0  0  0
    3.0050   -0.1654    0.9694 O   0  0  0  0  0  0  0  0  0  0  0  0
    2.3030    0.8219    0.3468 C   0  0  0  0  0  0  0  0  0  0  0  0
    1.7887    0.3838   -1.0299 C   0  0  0  0  0  0  0  0  0  0  0  0
    0.9002   -0.8149   -0.8999 C   0  0  0  0  0  0  0  0  0  0  0  0
    1.0544    1.1660    1.1404 C   0  0  0  0  0  0  0  0  0  0  0  0
    0.1159   -0.0096    1.2464 C   0  0  0  0  0  0  0  0  0  0  0  0
   -0.3803   -0.3481   -0.1502 C   0  0  0  0  0  0  0  0  0  0  0  0
   -1.3917   -1.4446   -0.1658 C   0  0  0  0  0  0  0  0  0  0  0  0
   -2.6082   -1.2435    0.4528 N   0  0  0  0  0  0  0  0  0  0  0  0
   -3.3363   -2.5479    0.6218 C   0  0  0  0  0  0  0  0  0  0  0  0
   -3.3730   -3.2657   -0.6367 C   0  0  0  0  0  0  0  0  0  0  0  0
   -4.6455   -4.0122   -0.9524 C   0  0  0  0  0  0  0  0  0  0  0  0
   -5.5795   -4.1560    0.2007 C   0  0  0  0  0  0  0  0  0  0  0  0
   -5.1455   -5.0238    1.1755 O   0  0  0  0  0  0  0  0  0  0  0  0
   -5.8385   -2.7557    0.7145 C   0  0  0  0  0  0  0  0  0  0  0  0
   -4.5874   -2.1232    1.2620 C   0  0  0  0  0  0  0  0  0  0  0  0
   -4.6345   -0.5887    1.0842 C   0  0  0  0  0  0  0  0  0  0  0  0
   -4.1079   -0.0389    2.3740 C   0  0  0  0  0  0  0  0  0  0  0  0
   -3.6790   -0.4941   -0.0831 C   0  0  1  0  0  0  0  0  0  0  0  0
   -3.4903    0.8086   -0.7111 C   0  0  0  0  0  0  0  0  0  0  0  0
   -2.9610    1.9576    0.0188 C   0  0  0  0  0  0  0  0  0  0  0  0
   -3.8584    3.0394    0.4777 C   0  0  0  0  0  0  0  0  0  0  0  0
   -4.9428    3.3968   -0.5096 C   0  0  0  0  0  0  0  0  0  0  0  0
   -4.3317    3.8970   -1.6540 O   0  0  0  0  0  0  0  0  0  0  0  0
   -5.6691    2.1261   -0.8926 C   0  0  0  0  0  0  0  0  0  0  0  0
   -4.6825    1.2109   -1.5480 C   0  0  0  0  0  0  0  0  0  0  0  0
    6.5537    0.4825   -0.4234 C   0  0  2  0  0  0  0  0  0  0  0  0
    6.2830   -0.6256   -1.3826 C   0  0  0  0  0  0  0  0  0  0  0  0
    6.0908   -1.9041   -0.5946 C   0  0  0  0  0  0  0  0  0  0  0  0
    7.3939   -2.1727    0.1271 C   0  0  0  0  0  0  0  0  0  0  0  0
    7.6138   -1.1323    1.1919 C   0  0  0  0  0  0  0  0  0  0  0  0
    7.1916    0.2353    0.8064 C   0  0  2  0  0  0  0  0  0  0  0  0
    5.7655    0.4651    0.7880 N   0  0  0  0  0  0  0  0  0  0  0  0
    5.2331    1.6918    1.3116 C   0  0  0  0  0  0  0  0  0  0  0  0
    4.4660    1.3956    2.5736 C   0  0  0  0  0  0  0  0  0  0  0  0
    3.4341    0.5569    2.3269 O   0  0  0  0  0  0  0  0  0  0  0  0
    2.4538    0.9288    1.4663 C   0  0  0  0  0  0  0  0  0  0  0  0
    1.0960    1.0273    2.1474 C   0  0  0  0  0  0  0  0  0  0  0  0
   -0.0175    1.2961    1.2014 C   0  0  0  0  0  0  0  0  0  0  0  0
    2.2978   -0.1665    0.4439 C   0  0  0  0  0  0  0  0  0  0  0  0
    1.3905    0.2962   -0.6735 C   0  0  0  0  0  0  0  0  0  0  0  0
    0.2833    1.1921   -0.2373 C   0  0  0  0  0  0  0  0  0  0  0  0
   -0.9871    1.0948   -1.0352 C   0  0  0  0  0  0  0  0  0  0  0  0
   -1.8958    0.1200   -0.9045 N   0  0  0  0  0  0  0  0  0  0  0  0
   -1.7339   -1.2212   -1.2566 C   0  0  0  0  0  0  0  0  0  0  0  0
   -1.1798   -2.0438   -0.1809 C   0  0  0  0  0  0  0  0  0  0  0  0
   -2.0779   -2.9005    0.6305 C   0  0  0  0  0  0  0  0  0  0  0  0
   -3.2963   -3.4357   -0.0070 C   0  0  0  0  0  0  0  0  0  0  0  0
   -3.2444   -4.8627   -0.0303 O   0  0  0  0  0  0  0  0  0  0  0  0
   -3.3712   -3.0333   -1.4266 C   0  0  0  0  0  0  0  0  0  0  0  0
   -3.1095   -1.6001   -1.7484 C   0  0  0  0  0  0  0  0  0  0  0  0
   -4.0424   -0.5859   -1.2023 C   0  0  0  0  0  0  0  0  0  0  0  0
   -5.2979   -1.1308   -0.6298 C   0  0  0  0  0  0  0  0  0  0  0  0
   -3.1782    0.2562   -0.3220 C   0  0  2  0  0  0  0  0  0  0  0  0
   -3.6774    1.6386   -0.0404 C   0  0  0  0  0  0  0  0  0  0  0  0
   -3.9282    2.5551   -1.1552 C   0  0  0  0  0  0  0  0  0  0  0  0
   -5.2441    3.3302   -0.9717 C   0  0  0  0  0  0  0  0  0  0  0  0
   -6.3783    2.4388   -0.6014 C   0  0  0  0  0  0  0  0  0  0  0  0
   -7.5187    3.2686   -0.5049 O   0  0  0  0  0  0  0  0  0  0  0  0
   -6.0925    1.8690    0.7511 C   0  0  0  0  0  0  0  0  0  0  0  0
   -4.6772    1.6740    1.0984 C   0  0  0  0  0  0  0  0  0  0  0  0
    7.1927    1.4584   -0.7517 H   0  0  0  0  0  0  0  0  0  0  0  0
    8.9552   -0.3086   -0.6380 H   0  0  0  0  0  0  0  0  0  0  0  0
    7.9241   -0.8572   -1.9842 H   0  0  0  0  0  0  0  0  0  0  0  0
    7.8322   -1.7191    0.9126 H   0  0  0  0  0  0  0  0  0  0  0  0
    8.3639   -2.6887   -0.5030 H   0  0  0  0  0  0  0  0  0  0  0  0
    5.6867   -2.3314    0.5613 H   0  0  0  0  0  0  0  0  0  0  0  0
    6.1740   -3.4373   -0.7422 H   0  0  0  0  0  0  0  0  0  0  0  0
    4.4467   -1.7809   -1.4316 H   0  0  0  0  0  0  0  0  0  0  0  0
    5.9889   -1.4168   -2.3614 H   0  0  0  0  0  0  0  0  0  0  0  0
    4.7888    0.5957   -1.2451 H   0  0  0  0  0  0  0  0  0  0  0  0
    4.9714    1.8899    0.5651 H   0  0  0  0  0  0  0  0  0  0  0  0
    6.4316    1.8830    1.6067 H   0  0  0  0  0  0  0  0  0  0  0  0
    5.4089    0.2199    3.1078 H   0  0  0  0  0  0  0  0  0  0  0  0
    4.6476    1.8003    3.1521 H   0  0  0  0  0  0  0  0  0  0  0  0
    2.8997    1.7337    1.1606 H   0  0  0  0  0  0  0  0  0  0  0  0
    0.8664    0.0663    2.5936 H   0  0  0  0  0  0  0  0  0  0  0  0
    1.6482    1.6034    3.2651 H   0  0  0  0  0  0  0  0  0  0  0  0
    0.5564    2.8865    1.7286 H   0  0  0  0  0  0  0  0  0  0  0  0
   -0.6907    1.6949    1.9689 H   0  0  0  0  0  0  0  0  0  0  0  0
    2.9028   -0.7808    0.0229 H   0  0  0  0  0  0  0  0  0  0  0  0
    1.3596   -0.9164    0.9749 H   0  0  0  0  0  0  0  0  0  0  0  0
    2.3324    1.2624   -0.8928 H   0  0  0  0  0  0  0  0  0  0  0  0
    1.1449    0.1339   -1.4299 H   0  0  0  0  0  0  0  0  0  0  0  0
    0.6279    2.5692   -0.4137 H   0  0  0  0  0  0  0  0  0  0  0  0
   -1.5304    2.3036   -0.1488 H   0  0  0  0  0  0  0  0  0  0  0  0
   -0.9709    1.3870   -1.5622 H   0  0  0  0  0  0  0  0  0  0  0  0
   -0.4539   -1.2891   -0.5015 H   0  0  0  0  0  0  0  0  0  0  0  0
   -2.0923   -1.1140    1.9458 H   0  0  0  0  0  0  0  0  0  0  0  0
   -0.6683   -2.0384    1.5787 H   0  0  0  0  0  0  0  0  0  0  0  0
   -1.7586   -3.9200    0.9928 H   0  0  0  0  0  0  0  0  0  0  0  0
   -2.9313   -3.1955    2.0943 H   0  0  0  0  0  0  0  0  0  0  0  0
   -4.4212   -2.6481    0.2667 H   0  0  0  0  0  0  0  0  0  0  0  0
   -2.9906   -5.0319   -0.1904 H   0  0  0  0  0  0  0  0  0  0  0  0
   -1.8312   -3.4255   -1.1734 H   0  0  0  0  0  0  0  0  0  0  0  0
   -3.2607   -3.2396   -2.1376 H   0  0  0  0  0  0  0  0  0  0  0  0
   -1.8131   -1.3483   -2.2783 H   0  0  0  0  0  0  0  0  0  0  0  0
   -3.1654    0.4116   -2.1066 H   0  0  0  0  0  0  0  0  0  0  0  0
   -4.7965   -1.9605   -1.9888 H   0  0  0  0  0  0  0  0  0  0  0  0
   -5.5588   -0.8498   -0.8959 H   0  0  0  0  0  0  0  0  0  0  0  0
   -5.2175   -0.3739   -2.5718 H   0  0  0  0  0  0  0  0  0  0  0  0
   -3.5637   -0.4635    0.7450 H   0  0  0  0  0  0  0  0  0  0  0  0
   -3.3926    1.8894    1.2766 H   0  0  0  0  0  0  0  0  0  0  0  0
   -3.4248    2.5777   -1.5339 H   0  0  0  0  0  0  0  0  0  0  0  0
   -3.3567    3.6086   -0.0974 H   0  0  0  0  0  0  0  0  0  0  0  0
   -5.5737    3.9423    0.0558 H   0  0  0  0  0  0  0  0  0  0  0  0
   -5.1634    4.0534   -1.6728 H   0  0  0  0  0  0  0  0  0  0  0  0
   -6.1223    1.6851   -1.9059 H   0  0  0  0  0  0  0  0  0  0  0  0
   -7.1198    0.6640    0.0331 H   0  0  0  0  0  0  0  0  0  0  0  0
   -7.2023    2.2148    0.8970 H   0  0  0  0  0  0  0  0  0  0  0  0
   -5.3143    0.1620    1.2431 H   0  0  0  0  0  0  0  0  0  0  0  0
   -5.3824    1.7436    2.0118 H   0  0  0  0  0  0  0  0  0  0  0  0
    4.9786   -0.4094   -1.4844 H   0  0  0  0  0  0  0  0  0  0  0  0
    6.4352    1.7869   -1.8473 H   0  0  0  0  0  0  0  0  0  0  0  0
    5.0445    1.9028   -0.6479 H   0  0  0  0  0  0  0  0  0  0  0  0
    7.1060    2.8050    0.3161 H   0  0  0  0  0  0  0  0  0  0  0  0
    6.8230    1.2088    1.1416 H   0  0  0  0  0  0  0  0  0  0  0  0
    9.0736    1.1216    0.5077 H   0  0  0  0  0  0  0  0  0  0  0  0
    8.8394    2.1325   -0.9282 H   0  0  0  0  0  0  0  0  0  0  0  0
    8.6415    0.3362   -2.2684 H   0  0  0  0  0  0  0  0  0  0  0  0
    9.2527   -0.6276   -0.8948 H   0  0  0  0  0  0  0  0  0  0  0  0
    7.1661   -1.6064   -1.9765 H   0  0  0  0  0  0  0  0  0  0  0  0
    6.7115   -2.6812    1.0340 H   0  0  0  0  0  0  0  0  0  0  0  0
    6.0813   -2.8719   -0.6410 H   0  0  0  0  0  0  0  0  0  0  0  0
    4.5562   -1.7212    1.7859 H   0  0  0  0  0  0  0  0  0  0  0  0
    4.3712   -3.3700    1.0317 H   0  0  0  0  0  0  0  0  0  0  0  0
    2.3633   -2.2130    1.3815 H   0  0  0  0  0  0  0  0  0  0  0  0
    1.8210   -3.6769   -0.2539 H   0  0  0  0  0  0  0  0  0  0  0  0
    1.7081   -2.5240   -1.5755 H   0  0  0  0  0  0  0  0  0  0  0  0
   -0.5608   -3.2851   -0.4251 H   0  0  0  0  0  0  0  0  0  0  0  0
    0.1017   -2.5503    1.0508 H   0  0  0  0  0  0  0  0  0  0  0  0
    2.5240    0.3857    0.2468 H   0  0  0  0  0  0  0  0  0  0  0  0
    1.3070   -0.1708    1.4250 H   0  0  0  0  0  0  0  0  0  0  0  0
    1.2002   -0.5811   -1.6166 H   0  0  0  0  0  0  0  0  0  0  0  0
    0.5953    0.8418   -0.8207 H   0  0  0  0  0  0  0  0  0  0  0  0
   -0.8792   -1.3391   -1.5061 H   0  0  0  0  0  0  0  0  0  0  0  0
   -2.2114   -1.7396    0.5197 H   0  0  0  0  0  0  0  0  0  0  0  0
   -1.0237   -0.9680    1.5350 H   0  0  0  0  0  0  0  0  0  0  0  0
   -0.4799    1.3225    1.0136 H   0  0  0  0  0  0  0  0  0  0  0  0
   -1.2811    0.5259    3.0118 H   0  0  0  0  0  0  0  0  0  0  0  0
   -1.2818    2.3581    3.0378 H   0  0  0  0  0  0  0  0  0  0  0  0
   -3.5067    1.2311    3.9158 H   0  0  0  0  0  0  0  0  0  0  0  0
   -3.6835    0.7063    2.1795 H   0  0  0  0  0  0  0  0  0  0  0  0
   -3.8447    3.4197    3.4043 H   0  0  0  0  0  0  0  0  0  0  0  0
   -5.6839    2.5323    2.6692 H   0  0  0  0  0  0  0  0  0  0  0  0
   -2.0840    4.0932    2.1752 H   0  0  0  0  0  0  0  0  0  0  0  0
   -3.4101    4.3343    1.0160 H   0  0  0  0  0  0  0  0  0  0  0  0
   -1.2127    3.2967    0.2004 H   0  0  0  0  0  0  0  0  0  0  0  0
   -3.9796    2.6576   -0.4400 H   0  0  0  0  0  0  0  0  0  0  0  0
   -2.2464    2.1475   -2.5741 H   0  0  0  0  0  0  0  0  0  0  0  0
   -1.4535    3.4348   -1.6505 H   0  0  0  0  0  0  0  0  0  0  0  0
   -3.1319    3.7200   -2.2361 H   0  0  0  0  0  0  0  0  0  0  0  0
   -2.1335    0.6015   -1.5391 H   0  0  0  0  0  0  0  0  0  0  0  0
   -4.3782    0.6410   -2.1997 H   0  0  0  0  0  0  0  0  0  0  0  0
   -3.2044   -1.7756   -1.6358 H   0  0  0  0  0  0  0  0  0  0  0  0
   -4.7727   -1.4823   -2.3551 H   0  0  0  0  0  0  0  0  0  0  0  0
   -4.7060   -1.6925    0.6820 H   0  0  0  0  0  0  0  0  0  0  0  0
   -4.8151   -3.0949   -0.5026 H   0  0  0  0  0  0  0  0  0  0  0  0
   -7.0576   -1.8896    0.2956 H   0  0  0  0  0  0  0  0  0  0  0  0
   -7.2006   -3.3766   -1.3048 H   0  0  0  0  0  0  0  0  0  0  0  0
   -6.6453   -0.0563   -2.0665 H   0  0  0  0  0  0  0  0  0  0  0  0
   -7.4847    0.1642   -0.5228 H   0  0  0  0  0  0  0  0  0  0  0  0
   -5.6837    1.5904   -0.5520 H   0  0  0  0  0  0  0  0  0  0  0  0
   -5.3737    0.2110    0.6571 H   0  0  0  0  0  0  0  0  0  0  0  0
    6.6033   -1.2998    0.7169 H   0  0  0  0  0  0  0  0  0  0  0  0
    7.5887   -0.1258    1.6477 H   0  0  0  0  0  0  0  0  0  0  0  0
    9.1246   -1.2820    0.2073 H   0  0  0  0  0  0  0  0  0  0  0  0
    8.0547   -1.0234   -1.2325 H   0  0  0  0  0  0  0  0  0  0  0  0
    9.4583    1.0796    0.5011 H   0  0  0  0  0  0  0  0  0  0  0  0
   10.0488    0.5190   -1.1064 H   0  0  0  0  0  0  0  0  0  0  0  0
    8.8900    2.2436   -1.9921 H   0  0  0  0  0  0  0  0  0  0  0  0
    7.4968    1.1643   -1.7816 H   0  0  0  0  0  0  0  0  0  0  0  0
    7.1048    3.4947   -0.8807 H   0  0  0  0  0  0  0  0  0  0  0  0
    8.4311    3.2030    0.3291 H   0  0  0  0  0  0  0  0  0  0  0  0
    5.7328    2.5773    0.7029 H   0  0  0  0  0  0  0  0  0  0  0  0
    7.1354    1.9689    1.6779 H   0  0  0  0  0  0  0  0  0  0  0  0
    4.9922   -0.5529   -0.6680 H   0  0  0  0  0  0  0  0  0  0  0  0
    4.5844    1.1576   -0.6983 H   0  0  0  0  0  0  0  0  0  0  0  0
    4.3939    1.0172    1.9208 H   0  0  0  0  0  0  0  0  0  0  0  0
    4.8377   -0.6834    1.7873 H   0  0  0  0  0  0  0  0  0  0  0  0
    2.8936    1.7176    0.1769 H   0  0  0  0  0  0  0  0  0  0  0  0
    1.3014    1.2693   -1.4786 H   0  0  0  0  0  0  0  0  0  0  0  0
    2.6637    0.0972   -1.6391 H   0  0  0  0  0  0  0  0  0  0  0  0
    1.3815   -1.5592   -0.2688 H   0  0  0  0  0  0  0  0  0  0  0  0
    0.6072   -1.1549   -1.8986 H   0  0  0  0  0  0  0  0  0  0  0  0
    0.5816    2.0344    0.6826 H   0  0  0  0  0  0  0  0  0  0  0  0
    1.4157    1.4720    2.1559 H   0  0  0  0  0  0  0  0  0  0  0  0
   -0.6871    0.2724    1.9295 H   0  0  0  0  0  0  0  0  0  0  0  0
    0.6892   -0.8576    1.6678 H   0  0  0  0  0  0  0  0  0  0  0  0
   -0.6293    0.5828   -0.6604 H   0  0  0  0  0  0  0  0  0  0  0  0
   -0.8836   -2.3226    0.3647 H   0  0  0  0  0  0  0  0  0  0  0  0
   -1.4219   -1.8148   -1.2229 H   0  0  0  0  0  0  0  0  0  0  0  0
   -2.6525   -3.0804    1.3521 H   0  0  0  0  0  0  0  0  0  0  0  0
   -3.1492   -2.6737   -1.5458 H   0  0  0  0  0  0  0  0  0  0  0  0
   -2.5612   -4.0631   -0.6555 H   0  0  0  0  0  0  0  0  0  0  0  0
   -4.4531   -5.0239   -1.3553 H   0  0  0  0  0  0  0  0  0  0  0  0
   -5.2312   -3.4942   -1.7690 H   0  0  0  0  0  0  0  0  0  0  0  0
   -6.5526   -4.5270   -0.1888 H   0  0  0  0  0  0  0  0  0  0  0  0
   -4.3835   -5.5935    0.9055 H   0  0  0  0  0  0  0  0  0  0  0  0
   -6.6373   -2.8183    1.4802 H   0  0  0  0  0  0  0  0  0  0  0  0
   -6.2243   -2.1698   -0.1326 H   0  0  0  0  0  0  0  0  0  0  0  0
   -4.5572   -2.3940    2.3419 H   0  0  0  0  0  0  0  0  0  0  0  0
   -5.6686   -0.3712    0.8795 H   0  0  0  0  0  0  0  0  0  0  0  0
   -4.5959    0.9089    2.6936 H   0  0  0  0  0  0  0  0  0  0  0  0
   -4.3562   -0.7320    3.2418 H   0  0  0  0  0  0  0  0  0  0  0  0
   -3.0016    0.0022    2.4107 H   0  0  0  0  0  0  0  0  0  0  0  0
   -4.1859   -1.1515   -0.8708 H   0  0  0  0  0  0  0  0  0  0  0  0
   -2.7130    0.5755   -1.5494 H   0  0  0  0  0  0  0  0  0  0  0  0
   -2.2128    2.4825   -0.6653 H   0  0  0  0  0  0  0  0  0  0  0  0
   -2.3007    1.7019    0.8867 H   0  0  0  0  0  0  0  0  0  0  0  0
   -4.3439    2.9163    1.4522 H   0  0  0  0  0  0  0  0  0  0  0  0
   -3.2395    3.9759    0.6014 H   0  0  0  0  0  0  0  0  0  0  0  0
   -5.6324    4.1017   -0.0189 H   0  0  0  0  0  0  0  0  0  0  0  0
   -4.6338    4.8124   -1.8895 H   0  0  0  0  0  0  0  0  0  0  0  0
   -6.3919    2.4352   -1.6893 H   0  0  0  0  0  0  0  0  0  0  0  0
   -6.2042    1.6706   -0.0672 H   0  0  0  0  0  0  0  0  0  0  0  0
   -5.2717    0.3199   -1.8763 H   0  0  0  0  0  0  0  0  0  0  0  0
   -4.3050    1.7550   -2.4614 H   0  0  0  0  0  0  0  0  0  0  0  0
    6.7136    1.4781   -0.9335 H   0  0  0  0  0  0  0  0  0  0  0  0
    7.0918   -0.7474   -2.1437 H   0  0  0  0  0  0  0  0  0  0  0  0
    5.3059   -0.4139   -1.8935 H   0  0  0  0  0  0  0  0  0  0  0  0
    5.3022   -1.7133    0.1631 H   0  0  0  0  0  0  0  0  0  0  0  0
    5.8185   -2.7565   -1.2313 H   0  0  0  0  0  0  0  0  0  0  0  0
    8.2090   -2.1012   -0.6036 H   0  0  0  0  0  0  0  0  0  0  0  0
    7.3082   -3.1663    0.6046 H   0  0  0  0  0  0  0  0  0  0  0  0
    8.6638   -1.1518    1.5494 H   0  0  0  0  0  0  0  0  0  0  0  0
    6.9868   -1.4513    2.0733 H   0  0  0  0  0  0  0  0  0  0  0  0
    7.8250    1.0467    1.2646 H   0  0  0  0  0  0  0  0  0  0  0  0
    4.6249    2.1544    0.5331 H   0  0  0  0  0  0  0  0  0  0  0  0
    6.0575    2.4327    1.5326 H   0  0  0  0  0  0  0  0  0  0  0  0
    5.1261    0.8597    3.3238 H   0  0  0  0  0  0  0  0  0  0  0  0
    4.1931    2.3276    3.1172 H   0  0  0  0  0  0  0  0  0  0  0  0
    2.6632    1.9272    1.0104 H   0  0  0  0  0  0  0  0  0  0  0  0
    0.9571    0.0771    2.7006 H   0  0  0  0  0  0  0  0  0  0  0  0
    1.2115    1.8136    2.9235 H   0  0  0  0  0  0  0  0  0  0  0  0
   -0.3853    2.3477    1.4297 H   0  0  0  0  0  0  0  0  0  0  0  0
   -0.9082    0.6910    1.5518 H   0  0  0  0  0  0  0  0  0  0  0  0
    3.2734   -0.4426    0.0592 H   0  0  0  0  0  0  0  0  0  0  0  0
    1.8787   -1.0518    0.9749 H   0  0  0  0  0  0  0  0  0  0  0  0
    2.1056    0.7774   -1.4138 H   0  0  0  0  0  0  0  0  0  0  0  0
    1.0773   -0.6120   -1.2282 H   0  0  0  0  0  0  0  0  0  0  0  0
    0.6822    2.2251   -0.5292 H   0  0  0  0  0  0  0  0  0  0  0  0
   -1.4394    2.1004   -0.9441 H   0  0  0  0  0  0  0  0  0  0  0  0
   -0.5870    1.0948   -2.1141 H   0  0  0  0  0  0  0  0  0  0  0  0
   -1.0742   -1.3394   -2.1703 H   0  0  0  0  0  0  0  0  0  0  0  0
   -0.5884   -1.4252    0.5243 H   0  0  0  0  0  0  0  0  0  0  0  0
   -0.3824   -2.7456   -0.5943 H   0  0  0  0  0  0  0  0  0  0  0  0
   -1.5060   -3.7588    1.0592 H   0  0  0  0  0  0  0  0  0  0  0  0
   -2.4097   -2.3443    1.5615 H   0  0  0  0  0  0  0  0  0  0  0  0
   -4.1938   -3.2510    0.6165 H   0  0  0  0  0  0  0  0  0  0  0  0
   -2.4989   -5.1495   -0.6295 H   0  0  0  0  0  0  0  0  0  0  0  0
   -2.5287   -3.5953   -1.9472 H   0  0  0  0  0  0  0  0  0  0  0  0
   -4.2744   -3.4407   -1.9630 H   0  0  0  0  0  0  0  0  0  0  0  0
   -3.1814   -1.5598   -2.8807 H   0  0  0  0  0  0  0  0  0  0  0  0
   -4.3596    0.1175   -2.0348 H   0  0  0  0  0  0  0  0  0  0  0  0
   -5.5332   -2.1774   -0.9953 H   0  0  0  0  0  0  0  0  0  0  0  0
   -5.3751   -1.1773    0.4579 H   0  0  0  0  0  0  0  0  0  0  0  0
   -6.2103   -0.5830   -0.9817 H   0  0  0  0  0  0  0  0  0  0  0  0
   -3.1114   -0.2301    0.7006 H   0  0  0  0  0  0  0  0  0  0  0  0
   -2.7727    2.1164    0.5033 H   0  0  0  0  0  0  0  0  0  0  0  0
   -3.9858    2.1147   -2.1630 H   0  0  0  0  0  0  0  0  0  0  0  0
   -3.1920    3.4131   -1.2737 H   0  0  0  0  0  0  0  0  0  0  0  0
   -5.0631    4.0420   -0.1414 H   0  0  0  0  0  0  0  0  0  0  0  0
   -5.4385    3.8865   -1.9283 H   0  0  0  0  0  0  0  0  0  0  0  0
   -6.5232    1.7005   -1.3858 H   0  0  0  0  0  0  0  0  0  0  0  0
   -6.6400    0.8928    0.8450 H   0  0  0  0  0  0  0  0  0  0  0  0
   -6.5613    2.5539    1.5173 H   0  0  0  0  0  0  0  0  0  0  0  0
   -4.5448    0.7155    1.6553 H   0  0  0  0  0  0  0  0  0  0  0  0
   -4.4056    2.4812    1.8496 H   0  0  0  0  0  0  0  0  0  0  0  0
  1  2  1  0
  2  3  1  0
  3  4  1  0
  4  5  1  0
  5  6  1  0
  6  1  1  0
  1  7  1  0
  6  7  1  0
  7  8  1  0
  8  9  1  0
  9 10  1  0
 10 11  1  0
 11 12  1  0
 12 13  1  0
 11 14  1  0
 14 15  1  0
 13 16  1  0
 15 16  1  0
 16 17  1  0
 17 18  1  0
 18 19  1  0
 19 20  1  0
 20 21  1  0
 21 22  1  0
 22 23  1  0
 22 24  1  0
 19 25  1  0
 24 25  1  0
 25 26  1  0
 26 27  1  0
 18 28  1  0
 26 28  1  0
 28 29  1  0
 29 30  1  0
 30 31  1  0
 31 32  1  0
 32 33  1  0
 32 34  1  0
 29 35  1  0
 34 35  1  0
 36 37  1  0
 37 38  1  0
 38 39  1  0
 39 40  1  0
 40 41  1  0
 41 36  1  0
 36 42  1  0
 41 42  1  0
 42 43  1  0
 43 44  1  0
 44 45  1  0
 45 46  1  0
 46 47  1  0
 47 48  1  0
 46 49  1  0
 49 50  1  0
 48 51  1  0
 50 51  1  0
 51 52  1  0
 52 53  1  0
 53 54  1  0
 54 55  1  0
 55 56  1  0
 56 57  1  0
 57 58  1  0
 57 59  1  0
 54 60  1  0
 59 60  1  0
 60 61  1  0
 61 62  1  0
 53 63  1  0
 61 63  1  0
 63 64  1  0
 64 65  1  0
 65 66  1  0
 66 67  1  0
 67 68  1  0
 67 69  1  0
 64 70  1  0
 69 70  1  0
 71 72  1  0
 72 73  1  0
 73 74  1  0
 74 75  1  0
 75 76  1  0
 71 77  1  0
 76 77  1  0
 77 78  1  0
 78 79  1  0
 79 80  1  0
 80 81  1  0
 81 82  1  0
 82 83  1  0
 81 84  1  0
 84 85  1  0
 83 86  1  0
 85 86  1  0
 86 87  1  0
 87 88  1  0
 88 89  1  0
 89 90  1  0
 90 91  1  0
 91 92  1  0
 92 93  1  0
 92 94  1  0
 89 95  1  0
 94 95  1  0
 95 96  1  0
 96 97  1  0
 88 98  1  0
 96 98  1  0
 98 99  1  0
 99100  1  0
100101  1  0
101102  1  0
102103  1  0
102104  1  0
 99105  1  0
104105  1  0
106107  1  0
107108  1  0
108109  1  0
109110  1  0
110111  1  0
111106  1  0
106112  1  0
111112  1  0
112113  1  0
113114  1  0
114115  1  0
115116  1  0
116117  1  0
117118  1  0
116119  1  0
119120  1  0
118121  1  0
120121  1  0
121122  1  0
122123  1  0
123124  1  0
124125  1  0
125126  1  0
126127  1  0
127128  1  0
127129  1  0
124130  1  0
129130  1  0
130131  1  0
131132  1  0
123133  1  0
131133  1  0
133134  1  0
134135  1  0
135136  1  0
136137  1  0
137138  1  0
137139  1  0
134140  1  0
139140  1  0
  1141  1  6
  2142  1  0
  2143  1  0
  3144  1  0
  3145  1  0
  4146  1  0
  4147  1  0
  5148  1  0
  5149  1  0
  6150  1  6
  8151  1  0
  8152  1  0
  9153  1  0
  9154  1  0
 11155  1  0
 12156  1  0
 12157  1  0
 13158  1  0
 13159  1  0
 14160  1  0
 14161  1  0
 15162  1  0
 15163  1  0
 16164  1  0
 17165  1  0
 17166  1  0
 19167  1  0
 20168  1  0
 20169  1  0
 21170  1  0
 21171  1  0
 22172  1  0
 23173  1  0
 24174  1  0
 24175  1  0
 25176  1  0
 26177  1  0
 27178  1  0
 27179  1  0
 27180  1  0
 28181  1  1
 29182  1  0
 30183  1  0
 30184  1  0
 31185  1  0
 31186  1  0
 32187  1  0
 34188  1  0
 34189  1  0
 35190  1  0
 35191  1  0
 36192  1  6
 37193  1  0
 37194  1  0
 38195  1  0
 38196  1  0
 39197  1  0
 39198  1  0
 40199  1  0
 40200  1  0
 41201  1  6
 43202  1  0
 43203  1  0
 44204  1  0
 44205  1  0
 46206  1  0
 47207  1  0
 47208  1  0
 48209  1  0
 48210  1  0
 49211  1  0
 49212  1  0
 50213  1  0
 50214  1  0
 51215  1  0
 52216  1  0
 52217  1  0
 54218  1  0
 55219  1  0
 55220  1  0
 56221  1  0
 56222  1  0
 57223  1  0
 58224  1  0
 59225  1  0
 59226  1  0
 60227  1  0
 61228  1  1
 62229  1  0
 62230  1  0
 62231  1  0
 63232  1  6
 64233  1  0
 65234  1  0
 65235  1  0
 66236  1  0
 66237  1  0
 67238  1  0
 68239  1  0
 69240  1  0
 69241  1  0
 70242  1  0
 70243  1  0
 71244  1  0
 71245  1  0
 72246  1  0
 72247  1  0
 73248  1  0
 73249  1  0
 74250  1  0
 74251  1  0
 75252  1  0
 75253  1  0
 76254  1  0
 76255  1  0
 78256  1  0
 78257  1  0
 79258  1  0
 79259  1  0
 81260  1  0
 82261  1  0
 82262  1  0
 83263  1  0
 83264  1  0
 84265  1  0
 84266  1  0
 85267  1  0
 85268  1  0
 86269  1  0
 87270  1  0
 87271  1  0
 89272  1  0
 90273  1  0
 90274  1  0
 91275  1  0
 91276  1  0
 92277  1  0
 93278  1  0
 94279  1  0
 94280  1  0
 95281  1  0
 96282  1  0
 97283  1  0
 97284  1  0
 97285  1  0
 98286  1  6
 99287  1  0
100288  1  0
100289  1  0
101290  1  0
101291  1  0
102292  1  0
103293  1  0
104294  1  0
104295  1  0
105296  1  0
105297  1  0
106298  1  6
107299  1  0
107300  1  0
108301  1  0
108302  1  0
109303  1  0
109304  1  0
110305  1  0
110306  1  0
111307  1  1
113308  1  0
113309  1  0
114310  1  0
114311  1  0
116312  1  0
117313  1  0
117314  1  0
118315  1  0
118316  1  0
119317  1  0
119318  1  0
120319  1  0
120320  1  0
121321  1  0
122322  1  0
122323  1  0
124324  1  0
125325  1  0
125326  1  0
126327  1  0
126328  1  0
127329  1  0
128330  1  0
129331  1  0
129332  1  0
130333  1  0
131334  1  0
132335  1  0
132336  1  0
132337  1  0
133338  1  1
134339  1  0
135340  1  0
135341  1  0
136342  1  0
136343  1  0
137344  1  0
139345  1  0
139346  1  0
140347  1  0
140348  1  0
M  END
>  <PDBID>  (1) 
4XI3

>  <PDB ID>  (1) 
4XI3

>  <Generic Name>  (1) 
Bazedoxifene

>  <Brand Name>  (1) 
Duavee#Duavive#Aprela#Viviant

>  <DrugBank ID>  (1) 
DB06401

>  <ATC Codes>  (1) 
G03CC07#G03XC02

>  <Ligand ID>  (1) 
29S

>  <Target Name>  (1) 
Estrogen receptor

>  <UniProt ID>  (1) 
P03372

>  <PDB ID.1>  (1) 
4XI3

>  <Seq. Identity>  (1) 
92%

$$$$
