PDB_DB09079_07
     RDKit          3D

 99103  0  0  0  0  0  0  0  0999 V2000
   -3.2684   -0.0908    0.9273 C   0  0  0  0  0  0  0  0  0  0  0  0
   -4.6277    0.4106    0.8112 C   0  0  0  0  0  0  0  0  0  0  0  0
   -2.0775    0.3955    0.2362 C   0  0  0  0  0  0  0  0  0  0  0  0
   -3.4667   -1.5299    1.2073 C   0  0  0  0  0  0  0  0  0  0  0  0
   -5.0971   -0.1354    2.2039 C   0  0  0  0  0  0  0  0  0  0  0  0
   -5.5753   -0.3544   -0.0767 C   0  0  0  0  0  0  0  0  0  0  0  0
   -1.9153    0.4421   -1.1917 C   0  0  0  0  0  0  0  0  0  0  0  0
   -6.5581   -0.1580    2.3718 C   0  0  0  0  0  0  0  0  0  0  0  0
   -6.9006    0.4202   -0.0315 C   0  0  0  0  0  0  0  0  0  0  0  0
    0.3443    0.5013    0.9108 C   0  0  0  0  0  0  0  0  0  0  0  0
   -7.3874    0.5605    1.3645 C   0  0  1  0  0  0  0  0  0  0  0  0
   -1.2722   -0.5809   -3.2777 C   0  0  0  0  0  0  0  0  0  0  0  0
   -2.2210    1.7034   -3.2494 C   0  0  0  0  0  0  0  0  0  0  0  0
    1.1941    0.0818   -0.2027 C   0  0  0  0  0  0  0  0  0  0  0  0
   -8.8015    0.0204    1.4544 C   0  0  2  0  0  0  0  0  0  0  0  0
    2.4020   -0.7744    0.1036 C   0  0  0  0  0  0  0  0  0  0  0  0
    2.0998   -0.3815    2.4821 C   0  0  0  0  0  0  0  0  0  0  0  0
   -9.6773    0.6118    0.5649 O   0  0  0  0  0  0  0  0  0  0  0  0
   -9.2539    0.4346    2.7404 O   0  0  0  0  0  0  0  0  0  0  0  0
    3.0976   -0.4160    1.3450 C   0  0  0  0  0  0  0  0  0  0  0  0
    5.0724    0.6787    0.4924 C   0  0  1  0  0  0  0  0  0  0  0  0
    4.3772    1.0495    2.6696 C   0  0  0  0  0  0  0  0  0  0  0  0
    6.0446   -0.4110    0.8978 C   0  0  0  0  0  0  0  0  0  0  0  0
    8.1316    0.7794    0.7725 C   0  0  0  0  0  0  0  0  0  0  0  0
    7.5511   -0.8046   -0.9718 C   0  0  0  0  0  0  0  0  0  0  0  0
    9.5982    0.3942    0.6354 C   0  0  0  0  0  0  0  0  0  0  0  0
    8.7455   -0.0720   -1.5790 C   0  0  0  0  0  0  0  0  0  0  0  0
   10.6580   -1.2187   -0.7820 C   0  0  0  0  0  0  0  0  0  0  0  0
    4.8517    0.6783   -0.8580 O   0  0  0  0  0  0  0  0  0  0  0  0
    7.3347   -0.3154    0.3366 N   0  0  0  0  0  0  0  0  0  0  0  0
    9.8766   -0.0251   -0.6981 N   0  0  0  0  0  0  0  0  0  0  0  0
    3.9285    0.7404    1.3385 N   0  0  0  0  0  0  0  0  0  0  0  0
    1.0235    0.6080    2.2740 C   0  0  0  0  0  0  0  0  0  0  0  0
   -0.9672    0.0452    1.0047 N   0  0  0  0  0  0  0  0  0  0  0  0
   -2.9239    1.3963   -1.9077 C   0  0  0  0  0  0  0  0  0  0  0  0
   -2.1814    0.3983   -4.0107 C   0  0  0  0  0  0  0  0  0  0  0  0
   -1.9491   -0.8647   -1.9511 C   0  0  0  0  0  0  0  0  0  0  0  0
  -10.3936   -0.2964   -0.1812 C   0  0  0  0  0  0  0  0  0  0  0  0
   -4.6414   -1.5127    2.0946 N   0  0  0  0  0  0  0  0  0  0  0  0
   -3.7473   -2.3408    0.1662 O   0  0  0  0  0  0  0  0  0  0  0  0
   -3.0029    0.2507    2.0229 H   0  0  0  0  0  0  0  0  0  0  0  0
   -4.7969    1.4844    0.8214 H   0  0  0  0  0  0  0  0  0  0  0  0
   -2.1524    1.5711    0.4588 H   0  0  0  0  0  0  0  0  0  0  0  0
   -2.6540   -1.9898    1.8152 H   0  0  0  0  0  0  0  0  0  0  0  0
   -4.5142    0.3383    2.9939 H   0  0  0  0  0  0  0  0  0  0  0  0
   -5.8523   -1.3579    0.3406 H   0  0  0  0  0  0  0  0  0  0  0  0
   -5.3184   -0.4501   -1.1146 H   0  0  0  0  0  0  0  0  0  0  0  0
   -0.9574    0.9095   -1.4367 H   0  0  0  0  0  0  0  0  0  0  0  0
   -6.7954    0.3288    3.3698 H   0  0  0  0  0  0  0  0  0  0  0  0
   -6.9637   -1.2075    2.5225 H   0  0  0  0  0  0  0  0  0  0  0  0
   -7.6048   -0.0274   -0.7309 H   0  0  0  0  0  0  0  0  0  0  0  0
   -6.6439    1.4303   -0.4679 H   0  0  0  0  0  0  0  0  0  0  0  0
    0.1949    1.6659    0.6924 H   0  0  0  0  0  0  0  0  0  0  0  0
   -7.3680    1.6517    1.6466 H   0  0  0  0  0  0  0  0  0  0  0  0
   -0.2507   -0.1872   -3.1725 H   0  0  0  0  0  0  0  0  0  0  0  0
   -1.3144   -1.5322   -3.8617 H   0  0  0  0  0  0  0  0  0  0  0  0
   -1.2137    2.0949   -3.0952 H   0  0  0  0  0  0  0  0  0  0  0  0
   -2.8964    2.3958   -3.7799 H   0  0  0  0  0  0  0  0  0  0  0  0
    1.4864    0.9395   -0.8831 H   0  0  0  0  0  0  0  0  0  0  0  0
    0.6010   -0.5805   -0.9040 H   0  0  0  0  0  0  0  0  0  0  0  0
   -8.8441   -1.0625    1.3630 H   0  0  0  0  0  0  0  0  0  0  0  0
    2.0399   -1.8265    0.2055 H   0  0  0  0  0  0  0  0  0  0  0  0
    3.0296   -0.7554   -0.8102 H   0  0  0  0  0  0  0  0  0  0  0  0
    2.6152   -0.1403    3.4305 H   0  0  0  0  0  0  0  0  0  0  0  0
    1.7132   -1.4341    2.5930 H   0  0  0  0  0  0  0  0  0  0  0  0
   -9.1986    1.4207    2.7346 H   0  0  0  0  0  0  0  0  0  0  0  0
    3.7842   -1.2963    1.6373 H   0  0  0  0  0  0  0  0  0  0  0  0
    5.6462    1.6437    0.6978 H   0  0  0  0  0  0  0  0  0  0  0  0
    5.3511    1.6172    2.5973 H   0  0  0  0  0  0  0  0  0  0  0  0
    4.6241    0.1523    3.2740 H   0  0  0  0  0  0  0  0  0  0  0  0
    3.6997    1.7412    3.2183 H   0  0  0  0  0  0  0  0  0  0  0  0
    5.6329   -1.4212    0.6659 H   0  0  0  0  0  0  0  0  0  0  0  0
    6.1494   -0.3401    2.0154 H   0  0  0  0  0  0  0  0  0  0  0  0
    7.9979    1.7043    0.1826 H   0  0  0  0  0  0  0  0  0  0  0  0
    7.8939    0.9607    1.8427 H   0  0  0  0  0  0  0  0  0  0  0  0
    7.8301   -1.8919   -0.9696 H   0  0  0  0  0  0  0  0  0  0  0  0
    6.7131   -0.6938   -1.6835 H   0  0  0  0  0  0  0  0  0  0  0  0
    9.7676   -0.4565    1.3124 H   0  0  0  0  0  0  0  0  0  0  0  0
   10.2580    1.2186    0.9976 H   0  0  0  0  0  0  0  0  0  0  0  0
    9.0429   -0.5778   -2.5155 H   0  0  0  0  0  0  0  0  0  0  0  0
    8.4188    0.9573   -1.8746 H   0  0  0  0  0  0  0  0  0  0  0  0
   11.5901   -1.0674   -0.1714 H   0  0  0  0  0  0  0  0  0  0  0  0
   10.9699   -1.3636   -1.8385 H   0  0  0  0  0  0  0  0  0  0  0  0
   10.1346   -2.1374   -0.4313 H   0  0  0  0  0  0  0  0  0  0  0  0
    5.2540    1.4128   -1.3514 H   0  0  0  0  0  0  0  0  0  0  0  0
    0.2419    0.4667    3.0529 H   0  0  0  0  0  0  0  0  0  0  0  0
    1.4369    1.6160    2.4418 H   0  0  0  0  0  0  0  0  0  0  0  0
   -1.1334   -0.4556    1.9014 H   0  0  0  0  0  0  0  0  0  0  0  0
   -3.8337    0.9032   -2.1959 H   0  0  0  0  0  0  0  0  0  0  0  0
   -3.0093    2.3008   -1.3145 H   0  0  0  0  0  0  0  0  0  0  0  0
   -3.1917   -0.0721   -4.0095 H   0  0  0  0  0  0  0  0  0  0  0  0
   -1.8856    0.5330   -5.0646 H   0  0  0  0  0  0  0  0  0  0  0  0
   -2.9921   -1.1469   -2.2239 H   0  0  0  0  0  0  0  0  0  0  0  0
   -1.3969   -1.6211   -1.4331 H   0  0  0  0  0  0  0  0  0  0  0  0
  -10.9820   -0.9366    0.5110 H   0  0  0  0  0  0  0  0  0  0  0  0
  -11.1540    0.3043   -0.7585 H   0  0  0  0  0  0  0  0  0  0  0  0
   -9.8268   -0.8599   -0.9322 H   0  0  0  0  0  0  0  0  0  0  0  0
   -4.4799   -1.9733    2.9921 H   0  0  0  0  0  0  0  0  0  0  0  0
   -3.3174   -3.2188    0.2303 H   0  0  0  0  0  0  0  0  0  0  0  0
  1  2  1  0
  1  3  1  0
  1  4  1  0
  2  5  1  0
  2  6  1  0
  3  7  1  0
  5  8  1  0
  6  9  1  0
  8 11  1  0
  9 11  1  0
 10 14  1  0
 11 15  1  0
 14 16  1  0
 15 18  1  0
 15 19  1  0
 16 20  1  0
 17 20  1  0
 21 23  1  0
 24 26  1  0
 25 27  1  0
 21 29  1  0
 23 30  1  0
 24 30  1  0
 25 30  1  0
 26 31  1  0
 27 31  1  0
 28 31  1  0
 20 32  1  0
 21 32  1  0
 22 32  1  0
 10 33  1  0
 17 33  1  0
  3 34  1  0
 10 34  1  0
  7 35  1  0
 13 35  1  0
 12 36  1  0
 13 36  1  0
  7 37  1  0
 12 37  1  0
 18 38  1  0
  4 39  1  0
  5 39  1  0
  4 40  1  0
  1 41  1  0
  2 42  1  0
  3 43  1  0
  4 44  1  0
  5 45  1  0
  6 46  1  0
  6 47  1  0
  7 48  1  0
  8 49  1  0
  8 50  1  0
  9 51  1  0
  9 52  1  0
 10 53  1  0
 11 54  1  1
 12 55  1  0
 12 56  1  0
 13 57  1  0
 13 58  1  0
 14 59  1  0
 14 60  1  0
 15 61  1  1
 16 62  1  0
 16 63  1  0
 17 64  1  0
 17 65  1  0
 19 66  1  0
 20 67  1  0
 21 68  1  6
 22 69  1  0
 22 70  1  0
 22 71  1  0
 23 72  1  0
 23 73  1  0
 24 74  1  0
 24 75  1  0
 25 76  1  0
 25 77  1  0
 26 78  1  0
 26 79  1  0
 27 80  1  0
 27 81  1  0
 28 82  1  0
 28 83  1  0
 28 84  1  0
 29 85  1  0
 33 86  1  0
 33 87  1  0
 34 88  1  0
 35 89  1  0
 35 90  1  0
 36 91  1  0
 36 92  1  0
 37 93  1  0
 37 94  1  0
 38 95  1  0
 38 96  1  0
 38 97  1  0
 39 98  1  0
 40 99  1  0
M  END
>  <PDBID>  (1) 
3C7Q

>  <PDB ID>  (1) 
3C7Q

>  <Generic Name>  (1) 
Nintedanib

>  <Brand Name>  (1) 
Ofev#Vargatef

>  <DrugBank ID>  (1) 
DB09079

>  <ATC Codes>  (1) 
L01XE31

>  <Ligand ID>  (1) 
XIN

>  <Target Name>  (1) 
Vascular endothelial growth factor receptor 3

>  <UniProt ID>  (1) 
P35916

>  <PDB ID.1>  (1) 
3C7Q

>  <Seq. Identity>  (1) 
67%

$$$$
