PDB_DB00212_08
     RDKit          3D

220226  0  0  0  0  0  0  0  0999 V2000
   -4.3821    2.1237   -1.7335 O   0  0  0  0  0  0  0  0  0  0  0  0
   -3.9874    0.5332   -1.7210 S   0  0  0  0  0  0  0  0  0  0  0  0
   -2.6822    0.1833   -2.4616 O   0  0  0  0  0  0  0  0  0  0  0  0
   -5.2787   -0.3593   -2.3378 C   0  0  0  0  0  0  0  0  0  0  0  0
   -6.5905   -0.2683   -1.6206 C   0  0  0  0  0  0  0  0  0  0  0  0
   -5.5325    0.1556   -3.7654 C   0  0  0  0  0  0  0  0  0  0  0  0
   -4.9107   -1.8182   -2.4733 C   0  0  0  0  0  0  0  0  0  0  0  0
   -3.8697    0.1011    0.0466 C   0  0  0  0  0  0  0  0  0  0  0  0
   -2.8963    0.9494    0.7628 C   0  0  1  0  0  0  0  0  0  0  0  0
   -2.7351    0.6777    2.2077 C   0  0  0  0  0  0  0  0  0  0  0  0
   -2.3428   -0.5793    2.7852 C   0  0  0  0  0  0  0  0  0  0  0  0
   -2.3208   -0.3624    4.3235 C   0  0  0  0  0  0  0  0  0  0  0  0
   -2.6604   -1.6148    5.0527 C   0  0  0  0  0  0  0  0  0  0  0  0
   -2.2427   -2.7822    4.1795 C   0  0  0  0  0  0  0  0  0  0  0  0
   -0.9713   -2.4738    3.4548 C   0  0  0  0  0  0  0  0  0  0  0  0
   -1.1004   -1.2896    2.4841 C   0  0  0  0  0  0  0  0  0  0  0  0
   -1.7324    1.5172    0.0204 C   0  0  0  0  0  0  0  0  0  0  0  0
   -1.0211    2.2797    1.0042 O   0  0  0  0  0  0  0  0  0  0  0  0
   -0.8588    0.6999   -0.6827 N   0  0  0  0  0  0  0  0  0  0  0  0
    0.3553    1.3181   -1.2600 C   0  0  1  0  0  0  0  0  0  0  0  0
   -0.0028    2.3258   -2.2308 C   0  0  0  0  0  0  0  0  0  0  0  0
    0.8936    3.1737   -3.0157 C   0  0  0  0  0  0  0  0  0  0  0  0
    1.7842    4.1508   -2.3588 C   0  0  0  0  0  0  0  0  0  0  0  0
    1.5032    5.4578   -3.0092 N   0  0  0  0  0  0  0  0  0  0  0  0
    0.0748    5.3498   -3.3199 C   0  0  0  0  0  0  0  0  0  0  0  0
    0.0177    4.0212   -3.8261 N   0  0  0  0  0  0  0  0  0  0  0  0
    1.4332    1.4197   -0.2884 C   0  0  0  0  0  0  0  0  0  0  0  0
    2.6019    1.9953   -0.8309 O   0  0  0  0  0  0  0  0  0  0  0  0
    1.9481    0.2038    0.2703 N   0  0  0  0  0  0  0  0  0  0  0  0
    2.6747   -0.7173   -0.4186 C   0  0  2  0  0  0  0  0  0  0  0  0
    2.2685   -1.5402   -1.5554 C   0  0  1  0  0  0  0  0  0  0  0  0
    3.4093   -2.3926   -1.8236 O   0  0  0  0  0  0  0  0  0  0  0  0
    1.0860   -2.3964   -1.4897 C   0  0  2  0  0  0  0  0  0  0  0  0
    1.0717   -3.3925   -0.3707 C   0  0  0  0  0  0  0  0  0  0  0  0
    2.1805   -4.4035   -0.3590 C   0  0  0  0  0  0  0  0  0  0  0  0
    0.7439   -4.8274   -0.5955 C   0  0  0  0  0  0  0  0  0  0  0  0
    0.9308   -3.1287   -2.6976 O   0  0  0  0  0  0  0  0  0  0  0  0
    3.5444   -1.5508    0.5599 C   0  0  0  0  0  0  0  0  0  0  0  0
    4.5134   -0.7227    1.3272 C   0  0  0  0  0  0  0  0  0  0  0  0
    3.9460    0.3350    2.2021 C   0  0  0  0  0  0  0  0  0  0  0  0
    5.0400    0.8445    3.1261 C   0  0  0  0  0  0  0  0  0  0  0  0
    6.3831    0.2933    2.7863 C   0  0  0  0  0  0  0  0  0  0  0  0
    6.7047    0.3536    1.3219 C   0  0  0  0  0  0  0  0  0  0  0  0
    5.5545   -0.0692    0.4375 C   0  0  0  0  0  0  0  0  0  0  0  0
   -4.3821    2.1237   -1.7335 O   0  0  0  0  0  0  0  0  0  0  0  0
   -3.9874    0.5332   -1.7210 S   0  0  0  0  0  0  0  0  0  0  0  0
   -2.6822    0.1833   -2.4616 O   0  0  0  0  0  0  0  0  0  0  0  0
   -5.2787   -0.3593   -2.3378 C   0  0  0  0  0  0  0  0  0  0  0  0
   -6.5905   -0.2683   -1.6206 C   0  0  0  0  0  0  0  0  0  0  0  0
   -5.5325    0.1556   -3.7654 C   0  0  0  0  0  0  0  0  0  0  0  0
   -4.9107   -1.8182   -2.4733 C   0  0  0  0  0  0  0  0  0  0  0  0
   -3.8697    0.1011    0.0466 C   0  0  0  0  0  0  0  0  0  0  0  0
   -2.8963    0.9494    0.7628 C   0  0  1  0  0  0  0  0  0  0  0  0
   -2.7351    0.6777    2.2077 C   0  0  0  0  0  0  0  0  0  0  0  0
   -2.3428   -0.5793    2.7852 C   0  0  0  0  0  0  0  0  0  0  0  0
   -2.3208   -0.3624    4.3235 C   0  0  0  0  0  0  0  0  0  0  0  0
   -2.6604   -1.6148    5.0527 C   0  0  0  0  0  0  0  0  0  0  0  0
   -2.2427   -2.7822    4.1795 C   0  0  0  0  0  0  0  0  0  0  0  0
   -0.9713   -2.4738    3.4548 C   0  0  0  0  0  0  0  0  0  0  0  0
   -1.1004   -1.2896    2.4841 C   0  0  0  0  0  0  0  0  0  0  0  0
   -1.7324    1.5172    0.0204 C   0  0  0  0  0  0  0  0  0  0  0  0
   -1.0211    2.2797    1.0042 O   0  0  0  0  0  0  0  0  0  0  0  0
   -0.8588    0.6999   -0.6827 N   0  0  0  0  0  0  0  0  0  0  0  0
    0.3553    1.3181   -1.2600 C   0  0  1  0  0  0  0  0  0  0  0  0
   -0.0028    2.3258   -2.2308 C   0  0  0  0  0  0  0  0  0  0  0  0
    0.8936    3.1737   -3.0157 C   0  0  0  0  0  0  0  0  0  0  0  0
    1.7842    4.1508   -2.3588 C   0  0  0  0  0  0  0  0  0  0  0  0
    1.5032    5.4578   -3.0092 N   0  0  0  0  0  0  0  0  0  0  0  0
    0.0748    5.3498   -3.3199 C   0  0  0  0  0  0  0  0  0  0  0  0
    0.0177    4.0212   -3.8261 N   0  0  0  0  0  0  0  0  0  0  0  0
    1.4332    1.4197   -0.2884 C   0  0  0  0  0  0  0  0  0  0  0  0
    2.6019    1.9953   -0.8309 O   0  0  0  0  0  0  0  0  0  0  0  0
    1.9481    0.2038    0.2703 N   0  0  0  0  0  0  0  0  0  0  0  0
    2.6747   -0.7173   -0.4186 C   0  0  2  0  0  0  0  0  0  0  0  0
    2.2685   -1.5402   -1.5554 C   0  0  1  0  0  0  0  0  0  0  0  0
    3.4093   -2.3926   -1.8236 O   0  0  0  0  0  0  0  0  0  0  0  0
    1.0860   -2.3964   -1.4897 C   0  0  2  0  0  0  0  0  0  0  0  0
    1.0717   -3.3925   -0.3707 C   0  0  0  0  0  0  0  0  0  0  0  0
    2.1805   -4.4035   -0.3590 C   0  0  0  0  0  0  0  0  0  0  0  0
    0.7439   -4.8274   -0.5955 C   0  0  0  0  0  0  0  0  0  0  0  0
    0.9308   -3.1287   -2.6976 O   0  0  0  0  0  0  0  0  0  0  0  0
    3.5444   -1.5508    0.5599 C   0  0  0  0  0  0  0  0  0  0  0  0
    4.5134   -0.7227    1.3272 C   0  0  0  0  0  0  0  0  0  0  0  0
    3.9460    0.3350    2.2021 C   0  0  0  0  0  0  0  0  0  0  0  0
    5.0400    0.8445    3.1261 C   0  0  0  0  0  0  0  0  0  0  0  0
    6.3831    0.2933    2.7863 C   0  0  0  0  0  0  0  0  0  0  0  0
    6.7047    0.3536    1.3219 C   0  0  0  0  0  0  0  0  0  0  0  0
    5.5545   -0.0692    0.4375 C   0  0  0  0  0  0  0  0  0  0  0  0
   -4.6676    2.4913   -0.8583 H   0  0  0  0  0  0  0  0  0  0  0  0
   -2.3868   -0.7440   -2.5242 H   0  0  0  0  0  0  0  0  0  0  0  0
   -6.7011   -1.0143   -0.8119 H   0  0  0  0  0  0  0  0  0  0  0  0
   -6.8801    0.7642   -1.3299 H   0  0  0  0  0  0  0  0  0  0  0  0
   -7.3786   -0.5567   -2.3806 H   0  0  0  0  0  0  0  0  0  0  0  0
   -5.5179    1.2719   -3.7770 H   0  0  0  0  0  0  0  0  0  0  0  0
   -4.6787   -0.1656   -4.4230 H   0  0  0  0  0  0  0  0  0  0  0  0
   -6.4476   -0.2747   -4.1988 H   0  0  0  0  0  0  0  0  0  0  0  0
   -3.9633   -1.9180   -3.0468 H   0  0  0  0  0  0  0  0  0  0  0  0
   -5.6647   -2.3791   -3.0696 H   0  0  0  0  0  0  0  0  0  0  0  0
   -4.7820   -2.2432   -1.4512 H   0  0  0  0  0  0  0  0  0  0  0  0
   -3.5179   -0.9760   -0.0374 H   0  0  0  0  0  0  0  0  0  0  0  0
   -4.8965    0.1423    0.4569 H   0  0  0  0  0  0  0  0  0  0  0  0
   -3.5639    1.9553    0.8475 H   0  0  0  0  0  0  0  0  0  0  0  0
   -3.7081    0.9702    2.7381 H   0  0  0  0  0  0  0  0  0  0  0  0
   -2.0603    1.5191    2.5818 H   0  0  0  0  0  0  0  0  0  0  0  0
   -3.1738   -1.3540    2.6895 H   0  0  0  0  0  0  0  0  0  0  0  0
   -1.2978    0.0078    4.5314 H   0  0  0  0  0  0  0  0  0  0  0  0
   -3.0390    0.4415    4.5677 H   0  0  0  0  0  0  0  0  0  0  0  0
   -3.7036   -1.6867    5.3538 H   0  0  0  0  0  0  0  0  0  0  0  0
   -2.0591   -1.6106    6.0062 H   0  0  0  0  0  0  0  0  0  0  0  0
   -1.9633   -3.5943    4.9149 H   0  0  0  0  0  0  0  0  0  0  0  0
   -3.0600   -3.1752    3.5812 H   0  0  0  0  0  0  0  0  0  0  0  0
   -0.6347   -3.3987    2.9546 H   0  0  0  0  0  0  0  0  0  0  0  0
   -0.2023   -2.2718    4.2465 H   0  0  0  0  0  0  0  0  0  0  0  0
   -1.1386   -1.7853    1.4801 H   0  0  0  0  0  0  0  0  0  0  0  0
   -0.2132   -0.6881    2.6697 H   0  0  0  0  0  0  0  0  0  0  0  0
   -2.0768    2.3348   -0.6925 H   0  0  0  0  0  0  0  0  0  0  0  0
   -1.5459    3.0536    1.3019 H   0  0  0  0  0  0  0  0  0  0  0  0
   -0.5248   -0.0691   -0.0233 H   0  0  0  0  0  0  0  0  0  0  0  0
    0.6798    0.4131   -1.9033 H   0  0  0  0  0  0  0  0  0  0  0  0
   -0.6785    3.0993   -1.7005 H   0  0  0  0  0  0  0  0  0  0  0  0
   -0.7568    1.9354   -2.9927 H   0  0  0  0  0  0  0  0  0  0  0  0
    1.4480    2.5878   -3.8292 H   0  0  0  0  0  0  0  0  0  0  0  0
    1.6105    4.3625   -1.2985 H   0  0  0  0  0  0  0  0  0  0  0  0
    2.8781    3.9945   -2.5048 H   0  0  0  0  0  0  0  0  0  0  0  0
    1.5925    6.2470   -2.3351 H   0  0  0  0  0  0  0  0  0  0  0  0
   -0.2269    6.0521   -4.1138 H   0  0  0  0  0  0  0  0  0  0  0  0
   -0.5597    5.5466   -2.4452 H   0  0  0  0  0  0  0  0  0  0  0  0
    0.2063    3.9975   -4.8292 H   0  0  0  0  0  0  0  0  0  0  0  0
    1.2305    2.0631    0.6039 H   0  0  0  0  0  0  0  0  0  0  0  0
    3.0363    2.6371   -0.2295 H   0  0  0  0  0  0  0  0  0  0  0  0
    1.4429   -0.0942    1.1339 H   0  0  0  0  0  0  0  0  0  0  0  0
    3.5581   -0.0657   -0.8884 H   0  0  0  0  0  0  0  0  0  0  0  0
    2.2414   -0.9798   -2.5496 H   0  0  0  0  0  0  0  0  0  0  0  0
    4.1549   -1.8095   -2.1206 H   0  0  0  0  0  0  0  0  0  0  0  0
    0.1130   -1.8502   -1.4159 H   0  0  0  0  0  0  0  0  0  0  0  0
    0.7555   -3.0035    0.6517 H   0  0  0  0  0  0  0  0  0  0  0  0
    2.6231   -4.6726    0.6377 H   0  0  0  0  0  0  0  0  0  0  0  0
    2.8948   -4.5312   -1.1668 H   0  0  0  0  0  0  0  0  0  0  0  0
    0.4760   -5.0727   -1.6441 H   0  0  0  0  0  0  0  0  0  0  0  0
    0.1977   -5.3906    0.1645 H   0  0  0  0  0  0  0  0  0  0  0  0
    1.8027   -3.4931   -2.9941 H   0  0  0  0  0  0  0  0  0  0  0  0
    2.9051   -2.1110    1.2633 H   0  0  0  0  0  0  0  0  0  0  0  0
    4.1154   -2.3119   -0.0291 H   0  0  0  0  0  0  0  0  0  0  0  0
    5.0781   -1.4263    1.9932 H   0  0  0  0  0  0  0  0  0  0  0  0
    3.6270    1.1946    1.5915 H   0  0  0  0  0  0  0  0  0  0  0  0
    3.0781   -0.0210    2.8153 H   0  0  0  0  0  0  0  0  0  0  0  0
    4.8018    0.4690    4.1656 H   0  0  0  0  0  0  0  0  0  0  0  0
    5.0712    1.9420    3.1877 H   0  0  0  0  0  0  0  0  0  0  0  0
    6.5715   -0.7306    3.1969 H   0  0  0  0  0  0  0  0  0  0  0  0
    7.1362    0.9534    3.3079 H   0  0  0  0  0  0  0  0  0  0  0  0
    7.0334    1.4121    1.0947 H   0  0  0  0  0  0  0  0  0  0  0  0
    7.6288   -0.2526    1.1370 H   0  0  0  0  0  0  0  0  0  0  0  0
    5.9712   -0.7721   -0.3169 H   0  0  0  0  0  0  0  0  0  0  0  0
    5.1655    0.8609   -0.0415 H   0  0  0  0  0  0  0  0  0  0  0  0
   -4.6676    2.4913   -0.8583 H   0  0  0  0  0  0  0  0  0  0  0  0
   -2.3868   -0.7440   -2.5242 H   0  0  0  0  0  0  0  0  0  0  0  0
   -6.7011   -1.0143   -0.8119 H   0  0  0  0  0  0  0  0  0  0  0  0
   -6.8801    0.7642   -1.3299 H   0  0  0  0  0  0  0  0  0  0  0  0
   -7.3786   -0.5567   -2.3806 H   0  0  0  0  0  0  0  0  0  0  0  0
   -5.5179    1.2719   -3.7770 H   0  0  0  0  0  0  0  0  0  0  0  0
   -4.6787   -0.1656   -4.4230 H   0  0  0  0  0  0  0  0  0  0  0  0
   -6.4476   -0.2747   -4.1988 H   0  0  0  0  0  0  0  0  0  0  0  0
   -3.9633   -1.9180   -3.0468 H   0  0  0  0  0  0  0  0  0  0  0  0
   -5.6647   -2.3791   -3.0696 H   0  0  0  0  0  0  0  0  0  0  0  0
   -4.7820   -2.2432   -1.4512 H   0  0  0  0  0  0  0  0  0  0  0  0
   -3.5179   -0.9760   -0.0374 H   0  0  0  0  0  0  0  0  0  0  0  0
   -4.8965    0.1423    0.4569 H   0  0  0  0  0  0  0  0  0  0  0  0
   -3.5639    1.9553    0.8475 H   0  0  0  0  0  0  0  0  0  0  0  0
   -3.7081    0.9702    2.7381 H   0  0  0  0  0  0  0  0  0  0  0  0
   -2.0603    1.5191    2.5818 H   0  0  0  0  0  0  0  0  0  0  0  0
   -3.1738   -1.3540    2.6895 H   0  0  0  0  0  0  0  0  0  0  0  0
   -1.2978    0.0078    4.5314 H   0  0  0  0  0  0  0  0  0  0  0  0
   -3.0390    0.4415    4.5677 H   0  0  0  0  0  0  0  0  0  0  0  0
   -3.7036   -1.6867    5.3538 H   0  0  0  0  0  0  0  0  0  0  0  0
   -2.0591   -1.6106    6.0062 H   0  0  0  0  0  0  0  0  0  0  0  0
   -1.9633   -3.5943    4.9149 H   0  0  0  0  0  0  0  0  0  0  0  0
   -3.0600   -3.1752    3.5812 H   0  0  0  0  0  0  0  0  0  0  0  0
   -0.6347   -3.3987    2.9546 H   0  0  0  0  0  0  0  0  0  0  0  0
   -0.2023   -2.2718    4.2465 H   0  0  0  0  0  0  0  0  0  0  0  0
   -1.1386   -1.7853    1.4801 H   0  0  0  0  0  0  0  0  0  0  0  0
   -0.2132   -0.6881    2.6697 H   0  0  0  0  0  0  0  0  0  0  0  0
   -2.0768    2.3348   -0.6925 H   0  0  0  0  0  0  0  0  0  0  0  0
   -1.5459    3.0536    1.3019 H   0  0  0  0  0  0  0  0  0  0  0  0
   -0.5248   -0.0691   -0.0233 H   0  0  0  0  0  0  0  0  0  0  0  0
    0.6798    0.4131   -1.9033 H   0  0  0  0  0  0  0  0  0  0  0  0
   -0.6785    3.0993   -1.7005 H   0  0  0  0  0  0  0  0  0  0  0  0
   -0.7568    1.9354   -2.9927 H   0  0  0  0  0  0  0  0  0  0  0  0
    1.4480    2.5878   -3.8292 H   0  0  0  0  0  0  0  0  0  0  0  0
    1.6105    4.3625   -1.2985 H   0  0  0  0  0  0  0  0  0  0  0  0
    2.8781    3.9945   -2.5048 H   0  0  0  0  0  0  0  0  0  0  0  0
    1.5925    6.2470   -2.3351 H   0  0  0  0  0  0  0  0  0  0  0  0
   -0.2269    6.0521   -4.1138 H   0  0  0  0  0  0  0  0  0  0  0  0
   -0.5597    5.5466   -2.4452 H   0  0  0  0  0  0  0  0  0  0  0  0
    0.2063    3.9975   -4.8292 H   0  0  0  0  0  0  0  0  0  0  0  0
    1.2305    2.0631    0.6039 H   0  0  0  0  0  0  0  0  0  0  0  0
    3.0363    2.6371   -0.2295 H   0  0  0  0  0  0  0  0  0  0  0  0
    1.4429   -0.0942    1.1339 H   0  0  0  0  0  0  0  0  0  0  0  0
    3.5581   -0.0657   -0.8884 H   0  0  0  0  0  0  0  0  0  0  0  0
    2.2414   -0.9798   -2.5496 H   0  0  0  0  0  0  0  0  0  0  0  0
    4.1549   -1.8095   -2.1206 H   0  0  0  0  0  0  0  0  0  0  0  0
    0.1130   -1.8502   -1.4159 H   0  0  0  0  0  0  0  0  0  0  0  0
    0.7555   -3.0035    0.6517 H   0  0  0  0  0  0  0  0  0  0  0  0
    2.6231   -4.6726    0.6377 H   0  0  0  0  0  0  0  0  0  0  0  0
    2.8948   -4.5312   -1.1668 H   0  0  0  0  0  0  0  0  0  0  0  0
    0.4760   -5.0727   -1.6441 H   0  0  0  0  0  0  0  0  0  0  0  0
    0.1977   -5.3906    0.1645 H   0  0  0  0  0  0  0  0  0  0  0  0
    1.8027   -3.4931   -2.9941 H   0  0  0  0  0  0  0  0  0  0  0  0
    2.9051   -2.1110    1.2633 H   0  0  0  0  0  0  0  0  0  0  0  0
    4.1154   -2.3119   -0.0291 H   0  0  0  0  0  0  0  0  0  0  0  0
    5.0781   -1.4263    1.9932 H   0  0  0  0  0  0  0  0  0  0  0  0
    3.6270    1.1946    1.5915 H   0  0  0  0  0  0  0  0  0  0  0  0
    3.0781   -0.0210    2.8153 H   0  0  0  0  0  0  0  0  0  0  0  0
    4.8018    0.4690    4.1656 H   0  0  0  0  0  0  0  0  0  0  0  0
    5.0712    1.9420    3.1877 H   0  0  0  0  0  0  0  0  0  0  0  0
    6.5715   -0.7306    3.1969 H   0  0  0  0  0  0  0  0  0  0  0  0
    7.1362    0.9534    3.3079 H   0  0  0  0  0  0  0  0  0  0  0  0
    7.0334    1.4121    1.0947 H   0  0  0  0  0  0  0  0  0  0  0  0
    7.6288   -0.2526    1.1370 H   0  0  0  0  0  0  0  0  0  0  0  0
    5.9712   -0.7721   -0.3169 H   0  0  0  0  0  0  0  0  0  0  0  0
    5.1655    0.8609   -0.0415 H   0  0  0  0  0  0  0  0  0  0  0  0
  2  1  1  0
  2  3  1  0
  2  4  1  0
  4  5  1  0
  4  6  1  0
  4  7  1  0
  2  8  1  0
  8  9  1  0
  9 10  1  0
 10 11  1  0
 11 12  1  0
 12 13  1  0
 13 14  1  0
 14 15  1  0
 11 16  1  0
 15 16  1  0
  9 17  1  0
 17 18  1  0
 17 19  1  0
 19 20  1  0
 20 21  1  0
 21 22  1  0
 22 23  1  0
 23 24  1  0
 24 25  1  0
 22 26  1  0
 25 26  1  0
 20 27  1  0
 27 28  1  0
 27 29  1  0
 29 30  1  0
 30 31  1  0
 31 32  1  0
 31 33  1  0
 33 34  1  0
 34 35  1  0
 34 36  1  0
 35 36  1  0
 33 37  1  0
 30 38  1  0
 38 39  1  0
 39 40  1  0
 40 41  1  0
 41 42  1  0
 42 43  1  0
 39 44  1  0
 43 44  1  0
 46 45  1  0
 46 47  1  0
 46 48  1  0
 48 49  1  0
 48 50  1  0
 48 51  1  0
 46 52  1  0
 52 53  1  0
 53 54  1  0
 54 55  1  0
 55 56  1  0
 56 57  1  0
 57 58  1  0
 58 59  1  0
 55 60  1  0
 59 60  1  0
 53 61  1  0
 61 62  1  0
 61 63  1  0
 63 64  1  0
 64 65  1  0
 65 66  1  0
 66 67  1  0
 67 68  1  0
 68 69  1  0
 66 70  1  0
 69 70  1  0
 64 71  1  0
 71 72  1  0
 71 73  1  0
 73 74  1  0
 74 75  1  0
 75 76  1  0
 75 77  1  0
 77 78  1  0
 78 79  1  0
 78 80  1  0
 79 80  1  0
 77 81  1  0
 74 82  1  0
 82 83  1  0
 83 84  1  0
 84 85  1  0
 85 86  1  0
 86 87  1  0
 83 88  1  0
 87 88  1  0
  1 89  1  0
  3 90  1  0
  5 91  1  0
  5 92  1  0
  5 93  1  0
  6 94  1  0
  6 95  1  0
  6 96  1  0
  7 97  1  0
  7 98  1  0
  7 99  1  0
  8100  1  0
  8101  1  0
  9102  1  1
 10103  1  0
 10104  1  0
 11105  1  0
 12106  1  0
 12107  1  0
 13108  1  0
 13109  1  0
 14110  1  0
 14111  1  0
 15112  1  0
 15113  1  0
 16114  1  0
 16115  1  0
 17116  1  0
 18117  1  0
 19118  1  0
 20119  1  6
 21120  1  0
 21121  1  0
 22122  1  0
 23123  1  0
 23124  1  0
 24125  1  0
 25126  1  0
 25127  1  0
 26128  1  0
 27129  1  0
 28130  1  0
 29131  1  0
 30132  1  6
 31133  1  6
 32134  1  0
 33135  1  1
 34136  1  0
 35137  1  0
 35138  1  0
 36139  1  0
 36140  1  0
 37141  1  0
 38142  1  0
 38143  1  0
 39144  1  0
 40145  1  0
 40146  1  0
 41147  1  0
 41148  1  0
 42149  1  0
 42150  1  0
 43151  1  0
 43152  1  0
 44153  1  0
 44154  1  0
 45155  1  0
 47156  1  0
 49157  1  0
 49158  1  0
 49159  1  0
 50160  1  0
 50161  1  0
 50162  1  0
 51163  1  0
 51164  1  0
 51165  1  0
 52166  1  0
 52167  1  0
 53168  1  1
 54169  1  0
 54170  1  0
 55171  1  0
 56172  1  0
 56173  1  0
 57174  1  0
 57175  1  0
 58176  1  0
 58177  1  0
 59178  1  0
 59179  1  0
 60180  1  0
 60181  1  0
 61182  1  0
 62183  1  0
 63184  1  0
 64185  1  6
 65186  1  0
 65187  1  0
 66188  1  0
 67189  1  0
 67190  1  0
 68191  1  0
 69192  1  0
 69193  1  0
 70194  1  0
 71195  1  0
 72196  1  0
 73197  1  0
 74198  1  6
 75199  1  6
 76200  1  0
 77201  1  1
 78202  1  0
 79203  1  0
 79204  1  0
 80205  1  0
 80206  1  0
 81207  1  0
 82208  1  0
 82209  1  0
 83210  1  0
 84211  1  0
 84212  1  0
 85213  1  0
 85214  1  0
 86215  1  0
 86216  1  0
 87217  1  0
 87218  1  0
 88219  1  0
 88220  1  0
M  END
>  <PDBID>  (1) 
3D91

>  <PDB ID>  (1) 
3D91

>  <Generic Name>  (1) 
Remikiren

>  <Brand Name>  (1) 
nan

>  <DrugBank ID>  (1) 
DB00212

>  <ATC Codes>  (1) 
C09XA01

>  <Ligand ID>  (1) 
REM

>  <Target Name>  (1) 
Renin

>  <UniProt ID>  (1) 
P00797

>  <PDB ID.1>  (1) 
3D91

>  <Seq. Identity>  (1) 
100%

$$$$
