PDB_DB00642_06
     RDKit          3D

288296  0  0  0  0  0  0  0  0999 V2000
   -0.4909   -0.1309   -0.6167 C   0  0  0  0  0  0  0  0  0  0  0  0
   -0.2779   -1.5933   -0.4700 C   0  0  0  0  0  0  0  0  0  0  0  0
    1.0309   -2.0817   -1.0218 C   0  0  0  0  0  0  0  0  0  0  0  0
    2.2065   -1.2017   -0.7789 C   0  0  0  0  0  0  0  0  0  0  0  0
    1.9392    0.2561   -0.8430 C   0  0  0  0  0  0  0  0  0  0  0  0
    0.6820    0.7007   -0.1603 C   0  0  0  0  0  0  0  0  0  0  0  0
   -1.6652    0.2778    0.2773 C   0  0  0  0  0  0  0  0  0  0  0  0
   -2.9211   -0.4221   -0.0989 C   0  0  0  0  0  0  0  0  0  0  0  0
   -4.0553   -0.0079    0.7913 C   0  0  0  0  0  0  0  0  0  0  0  0
   -4.3696    1.4482    0.7417 C   0  0  0  0  0  0  0  0  0  0  0  0
   -5.1491    1.6247   -0.4689 N   0  0  0  0  0  0  0  0  0  0  0  0
   -5.6759    0.3454   -0.8538 C   0  0  0  0  0  0  0  0  0  0  0  0
   -5.3454   -0.6163    0.2678 C   0  0  0  0  0  0  0  0  0  0  0  0
   -6.4394   -0.5948    1.2887 C   0  0  0  0  0  0  0  0  0  0  0  0
   -7.3879   -1.5731    1.0095 O   0  0  0  0  0  0  0  0  0  0  0  0
   -7.0518    0.7071    1.3127 N   0  0  0  0  0  0  0  0  0  0  0  0
   -7.7827    0.9741    0.0932 C   0  0  0  0  0  0  0  0  0  0  0  0
   -7.1030    0.3554   -1.0269 N   0  0  0  0  0  0  0  0  0  0  0  0
   -7.9092    2.4004   -0.1583 N   0  0  0  0  0  0  0  0  0  0  0  0
    2.9432   -1.6669    0.4518 C   0  0  0  0  0  0  0  0  0  0  0  0
    2.0049   -1.5905    1.5226 O   0  0  0  0  0  0  0  0  0  0  0  0
    4.0320   -0.8844    0.8406 N   0  0  0  0  0  0  0  0  0  0  0  0
    5.1416   -0.7203   -0.0398 C   0  0  1  0  0  0  0  0  0  0  0  0
    5.7804    0.6040    0.3076 C   0  0  0  0  0  0  0  0  0  0  0  0
    6.9611    0.9870   -0.5059 C   0  0  0  0  0  0  0  0  0  0  0  0
    7.4386    2.3683   -0.0091 C   0  0  0  0  0  0  0  0  0  0  0  0
    7.7909    2.3125    1.3167 O   0  0  0  0  0  0  0  0  0  0  0  0
    8.4145    2.8843   -0.8288 O   0  0  0  0  0  0  0  0  0  0  0  0
    6.0732   -1.8847    0.1578 C   0  0  0  0  0  0  0  0  0  0  0  0
    7.1946   -1.8805   -0.6337 O   0  0  0  0  0  0  0  0  0  0  0  0
    5.3500   -3.0507   -0.1730 O   0  0  0  0  0  0  0  0  0  0  0  0
   -0.4909   -0.1309   -0.6167 C   0  0  0  0  0  0  0  0  0  0  0  0
   -0.2779   -1.5933   -0.4700 C   0  0  0  0  0  0  0  0  0  0  0  0
    1.0309   -2.0817   -1.0218 C   0  0  0  0  0  0  0  0  0  0  0  0
    2.2065   -1.2017   -0.7789 C   0  0  0  0  0  0  0  0  0  0  0  0
    1.9392    0.2561   -0.8430 C   0  0  0  0  0  0  0  0  0  0  0  0
    0.6820    0.7007   -0.1603 C   0  0  0  0  0  0  0  0  0  0  0  0
   -1.6652    0.2778    0.2773 C   0  0  0  0  0  0  0  0  0  0  0  0
   -2.9211   -0.4221   -0.0989 C   0  0  0  0  0  0  0  0  0  0  0  0
   -4.0553   -0.0079    0.7913 C   0  0  0  0  0  0  0  0  0  0  0  0
   -4.3696    1.4482    0.7417 C   0  0  0  0  0  0  0  0  0  0  0  0
   -5.1491    1.6247   -0.4689 N   0  0  0  0  0  0  0  0  0  0  0  0
   -5.6759    0.3454   -0.8538 C   0  0  0  0  0  0  0  0  0  0  0  0
   -5.3454   -0.6163    0.2678 C   0  0  0  0  0  0  0  0  0  0  0  0
   -6.4394   -0.5948    1.2887 C   0  0  0  0  0  0  0  0  0  0  0  0
   -7.3879   -1.5731    1.0095 O   0  0  0  0  0  0  0  0  0  0  0  0
   -7.0518    0.7071    1.3127 N   0  0  0  0  0  0  0  0  0  0  0  0
   -7.7827    0.9741    0.0932 C   0  0  0  0  0  0  0  0  0  0  0  0
   -7.1030    0.3554   -1.0269 N   0  0  0  0  0  0  0  0  0  0  0  0
   -7.9092    2.4004   -0.1583 N   0  0  0  0  0  0  0  0  0  0  0  0
    2.9432   -1.6669    0.4518 C   0  0  0  0  0  0  0  0  0  0  0  0
    2.0049   -1.5905    1.5226 O   0  0  0  0  0  0  0  0  0  0  0  0
    4.0320   -0.8844    0.8406 N   0  0  0  0  0  0  0  0  0  0  0  0
    5.1416   -0.7203   -0.0398 C   0  0  1  0  0  0  0  0  0  0  0  0
    5.7804    0.6040    0.3076 C   0  0  0  0  0  0  0  0  0  0  0  0
    6.9611    0.9870   -0.5059 C   0  0  0  0  0  0  0  0  0  0  0  0
    7.4386    2.3683   -0.0091 C   0  0  0  0  0  0  0  0  0  0  0  0
    7.7909    2.3125    1.3167 O   0  0  0  0  0  0  0  0  0  0  0  0
    8.4145    2.8843   -0.8288 O   0  0  0  0  0  0  0  0  0  0  0  0
    6.0732   -1.8847    0.1578 C   0  0  0  0  0  0  0  0  0  0  0  0
    7.1946   -1.8805   -0.6337 O   0  0  0  0  0  0  0  0  0  0  0  0
    5.3500   -3.0507   -0.1730 O   0  0  0  0  0  0  0  0  0  0  0  0
   -0.4909   -0.1309   -0.6167 C   0  0  0  0  0  0  0  0  0  0  0  0
   -0.2779   -1.5933   -0.4700 C   0  0  0  0  0  0  0  0  0  0  0  0
    1.0309   -2.0817   -1.0218 C   0  0  0  0  0  0  0  0  0  0  0  0
    2.2065   -1.2017   -0.7789 C   0  0  0  0  0  0  0  0  0  0  0  0
    1.9392    0.2561   -0.8430 C   0  0  0  0  0  0  0  0  0  0  0  0
    0.6820    0.7007   -0.1603 C   0  0  0  0  0  0  0  0  0  0  0  0
   -1.6652    0.2778    0.2773 C   0  0  0  0  0  0  0  0  0  0  0  0
   -2.9211   -0.4221   -0.0989 C   0  0  0  0  0  0  0  0  0  0  0  0
   -4.0553   -0.0079    0.7913 C   0  0  0  0  0  0  0  0  0  0  0  0
   -4.3696    1.4482    0.7417 C   0  0  0  0  0  0  0  0  0  0  0  0
   -5.1491    1.6247   -0.4689 N   0  0  0  0  0  0  0  0  0  0  0  0
   -5.6759    0.3454   -0.8538 C   0  0  0  0  0  0  0  0  0  0  0  0
   -5.3454   -0.6163    0.2678 C   0  0  0  0  0  0  0  0  0  0  0  0
   -6.4394   -0.5948    1.2887 C   0  0  0  0  0  0  0  0  0  0  0  0
   -7.3879   -1.5731    1.0095 O   0  0  0  0  0  0  0  0  0  0  0  0
   -7.0518    0.7071    1.3127 N   0  0  0  0  0  0  0  0  0  0  0  0
   -7.7827    0.9741    0.0932 C   0  0  0  0  0  0  0  0  0  0  0  0
   -7.1030    0.3554   -1.0269 N   0  0  0  0  0  0  0  0  0  0  0  0
   -7.9092    2.4004   -0.1583 N   0  0  0  0  0  0  0  0  0  0  0  0
    2.9432   -1.6669    0.4518 C   0  0  0  0  0  0  0  0  0  0  0  0
    2.0049   -1.5905    1.5226 O   0  0  0  0  0  0  0  0  0  0  0  0
    4.0320   -0.8844    0.8406 N   0  0  0  0  0  0  0  0  0  0  0  0
    5.1416   -0.7203   -0.0398 C   0  0  1  0  0  0  0  0  0  0  0  0
    5.7804    0.6040    0.3076 C   0  0  0  0  0  0  0  0  0  0  0  0
    6.9611    0.9870   -0.5059 C   0  0  0  0  0  0  0  0  0  0  0  0
    7.4386    2.3683   -0.0091 C   0  0  0  0  0  0  0  0  0  0  0  0
    7.7909    2.3125    1.3167 O   0  0  0  0  0  0  0  0  0  0  0  0
    8.4145    2.8843   -0.8288 O   0  0  0  0  0  0  0  0  0  0  0  0
    6.0732   -1.8847    0.1578 C   0  0  0  0  0  0  0  0  0  0  0  0
    7.1946   -1.8805   -0.6337 O   0  0  0  0  0  0  0  0  0  0  0  0
    5.3500   -3.0507   -0.1730 O   0  0  0  0  0  0  0  0  0  0  0  0
   -0.4909   -0.1309   -0.6167 C   0  0  0  0  0  0  0  0  0  0  0  0
   -0.2779   -1.5933   -0.4700 C   0  0  0  0  0  0  0  0  0  0  0  0
    1.0309   -2.0817   -1.0218 C   0  0  0  0  0  0  0  0  0  0  0  0
    2.2065   -1.2017   -0.7789 C   0  0  0  0  0  0  0  0  0  0  0  0
    1.9392    0.2561   -0.8430 C   0  0  0  0  0  0  0  0  0  0  0  0
    0.6820    0.7007   -0.1603 C   0  0  0  0  0  0  0  0  0  0  0  0
   -1.6652    0.2778    0.2773 C   0  0  0  0  0  0  0  0  0  0  0  0
   -2.9211   -0.4221   -0.0989 C   0  0  0  0  0  0  0  0  0  0  0  0
   -4.0553   -0.0079    0.7913 C   0  0  0  0  0  0  0  0  0  0  0  0
   -4.3696    1.4482    0.7417 C   0  0  0  0  0  0  0  0  0  0  0  0
   -5.1491    1.6247   -0.4689 N   0  0  0  0  0  0  0  0  0  0  0  0
   -5.6759    0.3454   -0.8538 C   0  0  0  0  0  0  0  0  0  0  0  0
   -5.3454   -0.6163    0.2678 C   0  0  0  0  0  0  0  0  0  0  0  0
   -6.4394   -0.5948    1.2887 C   0  0  0  0  0  0  0  0  0  0  0  0
   -7.3879   -1.5731    1.0095 O   0  0  0  0  0  0  0  0  0  0  0  0
   -7.0518    0.7071    1.3127 N   0  0  0  0  0  0  0  0  0  0  0  0
   -7.7827    0.9741    0.0932 C   0  0  0  0  0  0  0  0  0  0  0  0
   -7.1030    0.3554   -1.0269 N   0  0  0  0  0  0  0  0  0  0  0  0
   -7.9092    2.4004   -0.1583 N   0  0  0  0  0  0  0  0  0  0  0  0
    2.9432   -1.6669    0.4518 C   0  0  0  0  0  0  0  0  0  0  0  0
    2.0049   -1.5905    1.5226 O   0  0  0  0  0  0  0  0  0  0  0  0
    4.0320   -0.8844    0.8406 N   0  0  0  0  0  0  0  0  0  0  0  0
    5.1416   -0.7203   -0.0398 C   0  0  1  0  0  0  0  0  0  0  0  0
    5.7804    0.6040    0.3076 C   0  0  0  0  0  0  0  0  0  0  0  0
    6.9611    0.9870   -0.5059 C   0  0  0  0  0  0  0  0  0  0  0  0
    7.4386    2.3683   -0.0091 C   0  0  0  0  0  0  0  0  0  0  0  0
    7.7909    2.3125    1.3167 O   0  0  0  0  0  0  0  0  0  0  0  0
    8.4145    2.8843   -0.8288 O   0  0  0  0  0  0  0  0  0  0  0  0
    6.0732   -1.8847    0.1578 C   0  0  0  0  0  0  0  0  0  0  0  0
    7.1946   -1.8805   -0.6337 O   0  0  0  0  0  0  0  0  0  0  0  0
    5.3500   -3.0507   -0.1730 O   0  0  0  0  0  0  0  0  0  0  0  0
   -0.7501    0.1644   -1.6532 H   0  0  0  0  0  0  0  0  0  0  0  0
   -0.4358   -1.9056    0.5981 H   0  0  0  0  0  0  0  0  0  0  0  0
   -1.0833   -2.1176   -1.0378 H   0  0  0  0  0  0  0  0  0  0  0  0
    1.2307   -3.0738   -0.5290 H   0  0  0  0  0  0  0  0  0  0  0  0
    0.9046   -2.3447   -2.1045 H   0  0  0  0  0  0  0  0  0  0  0  0
    2.9186   -1.4213   -1.6405 H   0  0  0  0  0  0  0  0  0  0  0  0
    1.8429    0.5500   -1.9202 H   0  0  0  0  0  0  0  0  0  0  0  0
    2.7756    0.8176   -0.4397 H   0  0  0  0  0  0  0  0  0  0  0  0
    0.4857    1.7498   -0.4533 H   0  0  0  0  0  0  0  0  0  0  0  0
    0.7227    0.6361    0.9323 H   0  0  0  0  0  0  0  0  0  0  0  0
   -1.3601   -0.0759    1.3058 H   0  0  0  0  0  0  0  0  0  0  0  0
   -1.7235    1.3775    0.3207 H   0  0  0  0  0  0  0  0  0  0  0  0
   -3.2195   -0.2483   -1.1566 H   0  0  0  0  0  0  0  0  0  0  0  0
   -2.8056   -1.5376    0.0559 H   0  0  0  0  0  0  0  0  0  0  0  0
   -3.8423   -0.3514    1.8270 H   0  0  0  0  0  0  0  0  0  0  0  0
   -4.9588    1.7592    1.6434 H   0  0  0  0  0  0  0  0  0  0  0  0
   -3.4911    2.1057    0.7045 H   0  0  0  0  0  0  0  0  0  0  0  0
   -4.5263    1.9902   -1.2008 H   0  0  0  0  0  0  0  0  0  0  0  0
   -5.2020   -0.0326   -1.7686 H   0  0  0  0  0  0  0  0  0  0  0  0
   -5.1409   -1.6247   -0.1339 H   0  0  0  0  0  0  0  0  0  0  0  0
   -5.9946   -0.7594    2.2998 H   0  0  0  0  0  0  0  0  0  0  0  0
   -8.0963   -1.5203    1.7038 H   0  0  0  0  0  0  0  0  0  0  0  0
   -7.5624    0.9175    2.1760 H   0  0  0  0  0  0  0  0  0  0  0  0
   -8.7779    0.4831    0.1784 H   0  0  0  0  0  0  0  0  0  0  0  0
   -7.3612    0.8722   -1.9028 H   0  0  0  0  0  0  0  0  0  0  0  0
   -8.9153    2.6127   -0.1872 H   0  0  0  0  0  0  0  0  0  0  0  0
   -7.4412    2.9741    0.5555 H   0  0  0  0  0  0  0  0  0  0  0  0
    3.1434   -2.7377    0.3481 H   0  0  0  0  0  0  0  0  0  0  0  0
    2.2384   -2.2693    2.1749 H   0  0  0  0  0  0  0  0  0  0  0  0
    4.0431   -0.4021    1.7294 H   0  0  0  0  0  0  0  0  0  0  0  0
    4.8710   -0.6694   -1.1119 H   0  0  0  0  0  0  0  0  0  0  0  0
    4.9978    1.4008    0.1602 H   0  0  0  0  0  0  0  0  0  0  0  0
    6.0578    0.6371    1.3955 H   0  0  0  0  0  0  0  0  0  0  0  0
    7.7991    0.2593   -0.2958 H   0  0  0  0  0  0  0  0  0  0  0  0
    6.7615    1.1092   -1.5771 H   0  0  0  0  0  0  0  0  0  0  0  0
    6.5205    3.0157   -0.0975 H   0  0  0  0  0  0  0  0  0  0  0  0
    7.1415    2.7721    1.9059 H   0  0  0  0  0  0  0  0  0  0  0  0
    8.1676    3.7899   -1.1356 H   0  0  0  0  0  0  0  0  0  0  0  0
    6.3367   -1.9243    1.2484 H   0  0  0  0  0  0  0  0  0  0  0  0
    6.9145   -1.6233   -1.5575 H   0  0  0  0  0  0  0  0  0  0  0  0
    5.4553   -3.7012    0.5495 H   0  0  0  0  0  0  0  0  0  0  0  0
   -0.7501    0.1644   -1.6532 H   0  0  0  0  0  0  0  0  0  0  0  0
   -0.4358   -1.9056    0.5981 H   0  0  0  0  0  0  0  0  0  0  0  0
   -1.0833   -2.1176   -1.0378 H   0  0  0  0  0  0  0  0  0  0  0  0
    1.2307   -3.0738   -0.5290 H   0  0  0  0  0  0  0  0  0  0  0  0
    0.9046   -2.3447   -2.1045 H   0  0  0  0  0  0  0  0  0  0  0  0
    2.9186   -1.4213   -1.6405 H   0  0  0  0  0  0  0  0  0  0  0  0
    1.8429    0.5500   -1.9202 H   0  0  0  0  0  0  0  0  0  0  0  0
    2.7756    0.8176   -0.4397 H   0  0  0  0  0  0  0  0  0  0  0  0
    0.4857    1.7498   -0.4533 H   0  0  0  0  0  0  0  0  0  0  0  0
    0.7227    0.6361    0.9323 H   0  0  0  0  0  0  0  0  0  0  0  0
   -1.3601   -0.0759    1.3058 H   0  0  0  0  0  0  0  0  0  0  0  0
   -1.7235    1.3775    0.3207 H   0  0  0  0  0  0  0  0  0  0  0  0
   -3.2195   -0.2483   -1.1566 H   0  0  0  0  0  0  0  0  0  0  0  0
   -2.8056   -1.5376    0.0559 H   0  0  0  0  0  0  0  0  0  0  0  0
   -3.8423   -0.3514    1.8270 H   0  0  0  0  0  0  0  0  0  0  0  0
   -4.9588    1.7592    1.6434 H   0  0  0  0  0  0  0  0  0  0  0  0
   -3.4911    2.1057    0.7045 H   0  0  0  0  0  0  0  0  0  0  0  0
   -4.5263    1.9902   -1.2008 H   0  0  0  0  0  0  0  0  0  0  0  0
   -5.2020   -0.0326   -1.7686 H   0  0  0  0  0  0  0  0  0  0  0  0
   -5.1409   -1.6247   -0.1339 H   0  0  0  0  0  0  0  0  0  0  0  0
   -5.9946   -0.7594    2.2998 H   0  0  0  0  0  0  0  0  0  0  0  0
   -8.0963   -1.5203    1.7038 H   0  0  0  0  0  0  0  0  0  0  0  0
   -7.5624    0.9175    2.1760 H   0  0  0  0  0  0  0  0  0  0  0  0
   -8.7779    0.4831    0.1784 H   0  0  0  0  0  0  0  0  0  0  0  0
   -7.3612    0.8722   -1.9028 H   0  0  0  0  0  0  0  0  0  0  0  0
   -8.9153    2.6127   -0.1872 H   0  0  0  0  0  0  0  0  0  0  0  0
   -7.4412    2.9741    0.5555 H   0  0  0  0  0  0  0  0  0  0  0  0
    3.1434   -2.7377    0.3481 H   0  0  0  0  0  0  0  0  0  0  0  0
    2.2384   -2.2693    2.1749 H   0  0  0  0  0  0  0  0  0  0  0  0
    4.0431   -0.4021    1.7294 H   0  0  0  0  0  0  0  0  0  0  0  0
    4.8710   -0.6694   -1.1119 H   0  0  0  0  0  0  0  0  0  0  0  0
    4.9978    1.4008    0.1602 H   0  0  0  0  0  0  0  0  0  0  0  0
    6.0578    0.6371    1.3955 H   0  0  0  0  0  0  0  0  0  0  0  0
    7.7991    0.2593   -0.2958 H   0  0  0  0  0  0  0  0  0  0  0  0
    6.7615    1.1092   -1.5771 H   0  0  0  0  0  0  0  0  0  0  0  0
    6.5205    3.0157   -0.0975 H   0  0  0  0  0  0  0  0  0  0  0  0
    7.1415    2.7721    1.9059 H   0  0  0  0  0  0  0  0  0  0  0  0
    8.1676    3.7899   -1.1356 H   0  0  0  0  0  0  0  0  0  0  0  0
    6.3367   -1.9243    1.2484 H   0  0  0  0  0  0  0  0  0  0  0  0
    6.9145   -1.6233   -1.5575 H   0  0  0  0  0  0  0  0  0  0  0  0
    5.4553   -3.7012    0.5495 H   0  0  0  0  0  0  0  0  0  0  0  0
   -0.7501    0.1644   -1.6532 H   0  0  0  0  0  0  0  0  0  0  0  0
   -0.4358   -1.9056    0.5981 H   0  0  0  0  0  0  0  0  0  0  0  0
   -1.0833   -2.1176   -1.0378 H   0  0  0  0  0  0  0  0  0  0  0  0
    1.2307   -3.0738   -0.5290 H   0  0  0  0  0  0  0  0  0  0  0  0
    0.9046   -2.3447   -2.1045 H   0  0  0  0  0  0  0  0  0  0  0  0
    2.9186   -1.4213   -1.6405 H   0  0  0  0  0  0  0  0  0  0  0  0
    1.8429    0.5500   -1.9202 H   0  0  0  0  0  0  0  0  0  0  0  0
    2.7756    0.8176   -0.4397 H   0  0  0  0  0  0  0  0  0  0  0  0
    0.4857    1.7498   -0.4533 H   0  0  0  0  0  0  0  0  0  0  0  0
    0.7227    0.6361    0.9323 H   0  0  0  0  0  0  0  0  0  0  0  0
   -1.3601   -0.0759    1.3058 H   0  0  0  0  0  0  0  0  0  0  0  0
   -1.7235    1.3775    0.3207 H   0  0  0  0  0  0  0  0  0  0  0  0
   -3.2195   -0.2483   -1.1566 H   0  0  0  0  0  0  0  0  0  0  0  0
   -2.8056   -1.5376    0.0559 H   0  0  0  0  0  0  0  0  0  0  0  0
   -3.8423   -0.3514    1.8270 H   0  0  0  0  0  0  0  0  0  0  0  0
   -4.9588    1.7592    1.6434 H   0  0  0  0  0  0  0  0  0  0  0  0
   -3.4911    2.1057    0.7045 H   0  0  0  0  0  0  0  0  0  0  0  0
   -4.5263    1.9902   -1.2008 H   0  0  0  0  0  0  0  0  0  0  0  0
   -5.2020   -0.0326   -1.7686 H   0  0  0  0  0  0  0  0  0  0  0  0
   -5.1409   -1.6247   -0.1339 H   0  0  0  0  0  0  0  0  0  0  0  0
   -5.9946   -0.7594    2.2998 H   0  0  0  0  0  0  0  0  0  0  0  0
   -8.0963   -1.5203    1.7038 H   0  0  0  0  0  0  0  0  0  0  0  0
   -7.5624    0.9175    2.1760 H   0  0  0  0  0  0  0  0  0  0  0  0
   -8.7779    0.4831    0.1784 H   0  0  0  0  0  0  0  0  0  0  0  0
   -7.3612    0.8722   -1.9028 H   0  0  0  0  0  0  0  0  0  0  0  0
   -8.9153    2.6127   -0.1872 H   0  0  0  0  0  0  0  0  0  0  0  0
   -7.4412    2.9741    0.5555 H   0  0  0  0  0  0  0  0  0  0  0  0
    3.1434   -2.7377    0.3481 H   0  0  0  0  0  0  0  0  0  0  0  0
    2.2384   -2.2693    2.1749 H   0  0  0  0  0  0  0  0  0  0  0  0
    4.0431   -0.4021    1.7294 H   0  0  0  0  0  0  0  0  0  0  0  0
    4.8710   -0.6694   -1.1119 H   0  0  0  0  0  0  0  0  0  0  0  0
    4.9978    1.4008    0.1602 H   0  0  0  0  0  0  0  0  0  0  0  0
    6.0578    0.6371    1.3955 H   0  0  0  0  0  0  0  0  0  0  0  0
    7.7991    0.2593   -0.2958 H   0  0  0  0  0  0  0  0  0  0  0  0
    6.7615    1.1092   -1.5771 H   0  0  0  0  0  0  0  0  0  0  0  0
    6.5205    3.0157   -0.0975 H   0  0  0  0  0  0  0  0  0  0  0  0
    7.1415    2.7721    1.9059 H   0  0  0  0  0  0  0  0  0  0  0  0
    8.1676    3.7899   -1.1356 H   0  0  0  0  0  0  0  0  0  0  0  0
    6.3367   -1.9243    1.2484 H   0  0  0  0  0  0  0  0  0  0  0  0
    6.9145   -1.6233   -1.5575 H   0  0  0  0  0  0  0  0  0  0  0  0
    5.4553   -3.7012    0.5495 H   0  0  0  0  0  0  0  0  0  0  0  0
   -0.7501    0.1644   -1.6532 H   0  0  0  0  0  0  0  0  0  0  0  0
   -0.4358   -1.9056    0.5981 H   0  0  0  0  0  0  0  0  0  0  0  0
   -1.0833   -2.1176   -1.0378 H   0  0  0  0  0  0  0  0  0  0  0  0
    1.2307   -3.0738   -0.5290 H   0  0  0  0  0  0  0  0  0  0  0  0
    0.9046   -2.3447   -2.1045 H   0  0  0  0  0  0  0  0  0  0  0  0
    2.9186   -1.4213   -1.6405 H   0  0  0  0  0  0  0  0  0  0  0  0
    1.8429    0.5500   -1.9202 H   0  0  0  0  0  0  0  0  0  0  0  0
    2.7756    0.8176   -0.4397 H   0  0  0  0  0  0  0  0  0  0  0  0
    0.4857    1.7498   -0.4533 H   0  0  0  0  0  0  0  0  0  0  0  0
    0.7227    0.6361    0.9323 H   0  0  0  0  0  0  0  0  0  0  0  0
   -1.3601   -0.0759    1.3058 H   0  0  0  0  0  0  0  0  0  0  0  0
   -1.7235    1.3775    0.3207 H   0  0  0  0  0  0  0  0  0  0  0  0
   -3.2195   -0.2483   -1.1566 H   0  0  0  0  0  0  0  0  0  0  0  0
   -2.8056   -1.5376    0.0559 H   0  0  0  0  0  0  0  0  0  0  0  0
   -3.8423   -0.3514    1.8270 H   0  0  0  0  0  0  0  0  0  0  0  0
   -4.9588    1.7592    1.6434 H   0  0  0  0  0  0  0  0  0  0  0  0
   -3.4911    2.1057    0.7045 H   0  0  0  0  0  0  0  0  0  0  0  0
   -4.5263    1.9902   -1.2008 H   0  0  0  0  0  0  0  0  0  0  0  0
   -5.2020   -0.0326   -1.7686 H   0  0  0  0  0  0  0  0  0  0  0  0
   -5.1409   -1.6247   -0.1339 H   0  0  0  0  0  0  0  0  0  0  0  0
   -5.9946   -0.7594    2.2998 H   0  0  0  0  0  0  0  0  0  0  0  0
   -8.0963   -1.5203    1.7038 H   0  0  0  0  0  0  0  0  0  0  0  0
   -7.5624    0.9175    2.1760 H   0  0  0  0  0  0  0  0  0  0  0  0
   -8.7779    0.4831    0.1784 H   0  0  0  0  0  0  0  0  0  0  0  0
   -7.3612    0.8722   -1.9028 H   0  0  0  0  0  0  0  0  0  0  0  0
   -8.9153    2.6127   -0.1872 H   0  0  0  0  0  0  0  0  0  0  0  0
   -7.4412    2.9741    0.5555 H   0  0  0  0  0  0  0  0  0  0  0  0
    3.1434   -2.7377    0.3481 H   0  0  0  0  0  0  0  0  0  0  0  0
    2.2384   -2.2693    2.1749 H   0  0  0  0  0  0  0  0  0  0  0  0
    4.0431   -0.4021    1.7294 H   0  0  0  0  0  0  0  0  0  0  0  0
    4.8710   -0.6694   -1.1119 H   0  0  0  0  0  0  0  0  0  0  0  0
    4.9978    1.4008    0.1602 H   0  0  0  0  0  0  0  0  0  0  0  0
    6.0578    0.6371    1.3955 H   0  0  0  0  0  0  0  0  0  0  0  0
    7.7991    0.2593   -0.2958 H   0  0  0  0  0  0  0  0  0  0  0  0
    6.7615    1.1092   -1.5771 H   0  0  0  0  0  0  0  0  0  0  0  0
    6.5205    3.0157   -0.0975 H   0  0  0  0  0  0  0  0  0  0  0  0
    7.1415    2.7721    1.9059 H   0  0  0  0  0  0  0  0  0  0  0  0
    8.1676    3.7899   -1.1356 H   0  0  0  0  0  0  0  0  0  0  0  0
    6.3367   -1.9243    1.2484 H   0  0  0  0  0  0  0  0  0  0  0  0
    6.9145   -1.6233   -1.5575 H   0  0  0  0  0  0  0  0  0  0  0  0
    5.4553   -3.7012    0.5495 H   0  0  0  0  0  0  0  0  0  0  0  0
  1  2  1  0
  2  3  1  0
  3  4  1  0
  4  5  1  0
  1  6  1  0
  5  6  1  0
  1  7  1  0
  7  8  1  0
  8  9  1  0
  9 10  1  0
 10 11  1  0
 11 12  1  0
  9 13  1  0
 12 13  1  0
 13 14  1  0
 14 15  1  0
 14 16  1  0
 16 17  1  0
 12 18  1  0
 17 18  1  0
 17 19  1  0
  4 20  1  0
 20 21  1  0
 20 22  1  0
 22 23  1  0
 23 24  1  0
 24 25  1  0
 25 26  1  0
 26 27  1  0
 26 28  1  0
 23 29  1  0
 29 30  1  0
 29 31  1  0
 32 33  1  0
 33 34  1  0
 34 35  1  0
 35 36  1  0
 32 37  1  0
 36 37  1  0
 32 38  1  0
 38 39  1  0
 39 40  1  0
 40 41  1  0
 41 42  1  0
 42 43  1  0
 40 44  1  0
 43 44  1  0
 44 45  1  0
 45 46  1  0
 45 47  1  0
 47 48  1  0
 43 49  1  0
 48 49  1  0
 48 50  1  0
 35 51  1  0
 51 52  1  0
 51 53  1  0
 53 54  1  0
 54 55  1  0
 55 56  1  0
 56 57  1  0
 57 58  1  0
 57 59  1  0
 54 60  1  0
 60 61  1  0
 60 62  1  0
 63 64  1  0
 64 65  1  0
 65 66  1  0
 66 67  1  0
 63 68  1  0
 67 68  1  0
 63 69  1  0
 69 70  1  0
 70 71  1  0
 71 72  1  0
 72 73  1  0
 73 74  1  0
 71 75  1  0
 74 75  1  0
 75 76  1  0
 76 77  1  0
 76 78  1  0
 78 79  1  0
 74 80  1  0
 79 80  1  0
 79 81  1  0
 66 82  1  0
 82 83  1  0
 82 84  1  0
 84 85  1  0
 85 86  1  0
 86 87  1  0
 87 88  1  0
 88 89  1  0
 88 90  1  0
 85 91  1  0
 91 92  1  0
 91 93  1  0
 94 95  1  0
 95 96  1  0
 96 97  1  0
 97 98  1  0
 94 99  1  0
 98 99  1  0
 94100  1  0
100101  1  0
101102  1  0
102103  1  0
103104  1  0
104105  1  0
102106  1  0
105106  1  0
106107  1  0
107108  1  0
107109  1  0
109110  1  0
105111  1  0
110111  1  0
110112  1  0
 97113  1  0
113114  1  0
113115  1  0
115116  1  0
116117  1  0
117118  1  0
118119  1  0
119120  1  0
119121  1  0
116122  1  0
122123  1  0
122124  1  0
  1125  1  0
  2126  1  0
  2127  1  0
  3128  1  0
  3129  1  0
  4130  1  0
  5131  1  0
  5132  1  0
  6133  1  0
  6134  1  0
  7135  1  0
  7136  1  0
  8137  1  0
  8138  1  0
  9139  1  0
 10140  1  0
 10141  1  0
 11142  1  0
 12143  1  0
 13144  1  0
 14145  1  0
 15146  1  0
 16147  1  0
 17148  1  0
 18149  1  0
 19150  1  0
 19151  1  0
 20152  1  0
 21153  1  0
 22154  1  0
 23155  1  6
 24156  1  0
 24157  1  0
 25158  1  0
 25159  1  0
 26160  1  0
 27161  1  0
 28162  1  0
 29163  1  0
 30164  1  0
 31165  1  0
 32166  1  0
 33167  1  0
 33168  1  0
 34169  1  0
 34170  1  0
 35171  1  0
 36172  1  0
 36173  1  0
 37174  1  0
 37175  1  0
 38176  1  0
 38177  1  0
 39178  1  0
 39179  1  0
 40180  1  0
 41181  1  0
 41182  1  0
 42183  1  0
 43184  1  0
 44185  1  0
 45186  1  0
 46187  1  0
 47188  1  0
 48189  1  0
 49190  1  0
 50191  1  0
 50192  1  0
 51193  1  0
 52194  1  0
 53195  1  0
 54196  1  6
 55197  1  0
 55198  1  0
 56199  1  0
 56200  1  0
 57201  1  0
 58202  1  0
 59203  1  0
 60204  1  0
 61205  1  0
 62206  1  0
 63207  1  0
 64208  1  0
 64209  1  0
 65210  1  0
 65211  1  0
 66212  1  0
 67213  1  0
 67214  1  0
 68215  1  0
 68216  1  0
 69217  1  0
 69218  1  0
 70219  1  0
 70220  1  0
 71221  1  0
 72222  1  0
 72223  1  0
 73224  1  0
 74225  1  0
 75226  1  0
 76227  1  0
 77228  1  0
 78229  1  0
 79230  1  0
 80231  1  0
 81232  1  0
 81233  1  0
 82234  1  0
 83235  1  0
 84236  1  0
 85237  1  6
 86238  1  0
 86239  1  0
 87240  1  0
 87241  1  0
 88242  1  0
 89243  1  0
 90244  1  0
 91245  1  0
 92246  1  0
 93247  1  0
 94248  1  0
 95249  1  0
 95250  1  0
 96251  1  0
 96252  1  0
 97253  1  0
 98254  1  0
 98255  1  0
 99256  1  0
 99257  1  0
100258  1  0
100259  1  0
101260  1  0
101261  1  0
102262  1  0
103263  1  0
103264  1  0
104265  1  0
105266  1  0
106267  1  0
107268  1  0
108269  1  0
109270  1  0
110271  1  0
111272  1  0
112273  1  0
112274  1  0
113275  1  0
114276  1  0
115277  1  0
116278  1  6
117279  1  0
117280  1  0
118281  1  0
118282  1  0
119283  1  0
120284  1  0
121285  1  0
122286  1  0
123287  1  0
124288  1  0
M  END
>  <PDBID>  (1) 
1JU6

>  <PDB ID>  (1) 
1JU6

>  <Generic Name>  (1) 
Pemetrexed

>  <Brand Name>  (1) 
Act Pemetrexed#Alimta#Pemetrexed#Pemetrexed Disodium for Injection#Taro-pemetrexed

>  <DrugBank ID>  (1) 
DB00642

>  <ATC Codes>  (1) 
L01BA04

>  <Ligand ID>  (1) 
LYA

>  <Target Name>  (1) 
Thymidylate synthase

>  <UniProt ID>  (1) 
P04818

>  <PDB ID.1>  (1) 
1JU6

>  <Seq. Identity>  (1) 
100%

$$$$
