PDB_DB01136_03
     RDKit          3D

148154  0  0  0  0  0  0  0  0999 V2000
   -0.5589   -0.9484   -1.6411 O   0  0  0  0  0  0  0  0  0  0  0  0
   -0.0799   -0.5823   -0.3906 C   0  0  2  0  0  0  0  0  0  0  0  0
   -1.1422    0.1319    0.4243 C   0  0  0  0  0  0  0  0  0  0  0  0
   -2.2566   -0.6811    0.6242 O   0  0  0  0  0  0  0  0  0  0  0  0
   -3.2223   -0.0107    1.3864 C   0  0  2  0  0  0  0  0  0  0  0  0
   -3.3593   -0.8355    2.6726 C   0  0  0  0  0  0  0  0  0  0  0  0
   -3.8024   -2.2474    2.3498 C   0  0  0  0  0  0  0  0  0  0  0  0
   -5.0787   -2.2532    1.4965 C   0  0  0  0  0  0  0  0  0  0  0  0
   -5.5539   -0.8450    1.4398 C   0  0  0  0  0  0  0  0  0  0  0  0
   -4.5052   -0.0589    0.6336 C   0  0  0  0  0  0  0  0  0  0  0  0
   -5.2374    1.2519    0.5354 C   0  0  0  0  0  0  0  0  0  0  0  0
   -4.6566    2.2153   -0.4443 C   0  0  0  0  0  0  0  0  0  0  0  0
   -5.7882    3.0292   -1.0852 C   0  0  0  0  0  0  0  0  0  0  0  0
   -6.5336    2.0484   -1.9636 C   0  0  0  0  0  0  0  0  0  0  0  0
   -6.9847    0.8464   -1.2273 C   0  0  0  0  0  0  0  0  0  0  0  0
   -6.6310    0.8073    0.2219 C   0  0  0  0  0  0  0  0  0  0  0  0
   -6.7154   -0.6004    0.6454 N   0  0  0  0  0  0  0  0  0  0  0  0
    1.0784    0.3605   -0.5423 C   0  0  0  0  0  0  0  0  0  0  0  0
    2.1991   -0.1707   -1.2611 N   0  0  0  0  0  0  0  0  0  0  0  0
    2.8585   -1.2346   -0.5020 C   0  0  0  0  0  0  0  0  0  0  0  0
    4.0425   -1.8023   -1.2032 C   0  0  0  0  0  0  0  0  0  0  0  0
    5.0561   -0.9281   -1.4861 O   0  0  0  0  0  0  0  0  0  0  0  0
    5.6122   -0.3179   -0.3681 C   0  0  0  0  0  0  0  0  0  0  0  0
    5.3447    1.1642   -0.5057 C   0  0  0  0  0  0  0  0  0  0  0  0
    6.2062    2.0260    0.3504 C   0  0  0  0  0  0  0  0  0  0  0  0
    7.6482    1.6487    0.3998 C   0  0  0  0  0  0  0  0  0  0  0  0
    7.8908    0.5865   -0.6756 C   0  0  0  0  0  0  0  0  0  0  0  0
    7.0924   -0.6256   -0.2449 C   0  0  0  0  0  0  0  0  0  0  0  0
    7.4765   -1.7621   -0.9096 O   0  0  0  0  0  0  0  0  0  0  0  0
    8.0260   -2.7298   -0.0738 C   0  0  0  0  0  0  0  0  0  0  0  0
    0.3648   -1.4891    1.3507 O   0  0  0  0  0  0  0  0  0  0  0  0
    0.2061   -0.1367    1.2780 C   0  0  2  0  0  0  0  0  0  0  0  0
   -0.7576    0.2083    0.1308 C   0  0  0  0  0  0  0  0  0  0  0  0
   -1.9296   -0.4110    0.4144 O   0  0  0  0  0  0  0  0  0  0  0  0
   -2.9693   -0.2211   -0.4761 C   0  0  1  0  0  0  0  0  0  0  0  0
   -3.4547   -1.5199   -1.0801 C   0  0  0  0  0  0  0  0  0  0  0  0
   -3.8149   -2.4488    0.0639 C   0  0  0  0  0  0  0  0  0  0  0  0
   -4.9095   -1.8820    0.9260 C   0  0  0  0  0  0  0  0  0  0  0  0
   -4.6194   -0.4787    1.3997 C   0  0  0  0  0  0  0  0  0  0  0  0
   -4.0816    0.4096    0.2813 C   0  0  2  0  0  0  0  0  0  0  0  0
   -5.3268    0.7161   -0.4652 C   0  0  2  0  0  0  0  0  0  0  0  0
   -5.2654    1.9259   -1.3442 C   0  0  0  0  0  0  0  0  0  0  0  0
   -6.6001    2.6316   -1.2680 C   0  0  0  0  0  0  0  0  0  0  0  0
   -7.7562    1.6790   -1.0895 C   0  0  0  0  0  0  0  0  0  0  0  0
   -7.6555    0.8927    0.2007 C   0  0  0  0  0  0  0  0  0  0  0  0
   -6.2532    1.0464    0.7194 C   0  0  0  0  0  0  0  0  0  0  0  0
   -5.9001    0.1158    1.7449 N   0  0  0  0  0  0  0  0  0  0  0  0
    1.4555    0.6789    1.1862 C   0  0  0  0  0  0  0  0  0  0  0  0
    2.2351    0.4051    0.0424 N   0  0  0  0  0  0  0  0  0  0  0  0
    2.8311   -0.8834    0.0556 C   0  0  0  0  0  0  0  0  0  0  0  0
    3.7848   -1.1051   -1.1075 C   0  0  0  0  0  0  0  0  0  0  0  0
    4.8378   -0.2273   -1.1436 O   0  0  0  0  0  0  0  0  0  0  0  0
    5.6407   -0.2629   -0.0040 C   0  0  0  0  0  0  0  0  0  0  0  0
    5.5868    1.1033    0.6319 C   0  0  0  0  0  0  0  0  0  0  0  0
    6.7062    1.4011    1.5695 C   0  0  0  0  0  0  0  0  0  0  0  0
    8.0402    0.8609    1.1788 C   0  0  0  0  0  0  0  0  0  0  0  0
    8.0221    0.4861   -0.2954 C   0  0  0  0  0  0  0  0  0  0  0  0
    7.0404   -0.6576   -0.4271 C   0  0  0  0  0  0  0  0  0  0  0  0
    7.1039   -1.1261   -1.7327 O   0  0  0  0  0  0  0  0  0  0  0  0
    7.5780   -2.4386   -1.6780 C   0  0  0  0  0  0  0  0  0  0  0  0
   -0.0786   -0.4662   -2.3835 H   0  0  0  0  0  0  0  0  0  0  0  0
    0.2282   -1.5361    0.1114 H   0  0  0  0  0  0  0  0  0  0  0  0
   -1.4371    1.0405   -0.1157 H   0  0  0  0  0  0  0  0  0  0  0  0
   -0.7550    0.4460    1.4122 H   0  0  0  0  0  0  0  0  0  0  0  0
   -2.8911    0.9971    1.6556 H   0  0  0  0  0  0  0  0  0  0  0  0
   -2.3257   -0.9192    3.0680 H   0  0  0  0  0  0  0  0  0  0  0  0
   -3.9553   -0.3352    3.4375 H   0  0  0  0  0  0  0  0  0  0  0  0
   -2.9623   -2.7375    1.8176 H   0  0  0  0  0  0  0  0  0  0  0  0
   -3.9646   -2.7772    3.2954 H   0  0  0  0  0  0  0  0  0  0  0  0
   -4.7853   -2.5656    0.4707 H   0  0  0  0  0  0  0  0  0  0  0  0
   -5.8053   -2.9826    1.8763 H   0  0  0  0  0  0  0  0  0  0  0  0
   -5.7249   -0.3906    2.4332 H   0  0  0  0  0  0  0  0  0  0  0  0
   -4.4320   -0.5791   -0.3453 H   0  0  0  0  0  0  0  0  0  0  0  0
   -5.2325    1.7133    1.5443 H   0  0  0  0  0  0  0  0  0  0  0  0
   -3.9651    2.9516    0.0101 H   0  0  0  0  0  0  0  0  0  0  0  0
   -4.1012    1.7365   -1.2746 H   0  0  0  0  0  0  0  0  0  0  0  0
   -5.3568    3.8175   -1.7095 H   0  0  0  0  0  0  0  0  0  0  0  0
   -6.4944    3.3973   -0.3335 H   0  0  0  0  0  0  0  0  0  0  0  0
   -5.8865    1.7565   -2.8266 H   0  0  0  0  0  0  0  0  0  0  0  0
   -7.3757    2.6231   -2.4327 H   0  0  0  0  0  0  0  0  0  0  0  0
   -8.0950    0.7800   -1.3140 H   0  0  0  0  0  0  0  0  0  0  0  0
   -6.6105   -0.0749   -1.7556 H   0  0  0  0  0  0  0  0  0  0  0  0
   -7.3661    1.3535    0.8451 H   0  0  0  0  0  0  0  0  0  0  0  0
   -7.5882   -0.8094    1.1379 H   0  0  0  0  0  0  0  0  0  0  0  0
    0.7154    1.2467   -1.1346 H   0  0  0  0  0  0  0  0  0  0  0  0
    1.4255    0.7606    0.4386 H   0  0  0  0  0  0  0  0  0  0  0  0
    1.9897   -0.4526   -2.2235 H   0  0  0  0  0  0  0  0  0  0  0  0
    2.1001   -2.0713   -0.4531 H   0  0  0  0  0  0  0  0  0  0  0  0
    3.0344   -0.9368    0.5313 H   0  0  0  0  0  0  0  0  0  0  0  0
    4.3647   -2.7066   -0.6520 H   0  0  0  0  0  0  0  0  0  0  0  0
    3.6771   -2.1918   -2.1980 H   0  0  0  0  0  0  0  0  0  0  0  0
    5.1157   -0.6512    0.5661 H   0  0  0  0  0  0  0  0  0  0  0  0
    5.3813    1.4436   -1.5779 H   0  0  0  0  0  0  0  0  0  0  0  0
    4.2848    1.3228   -0.1647 H   0  0  0  0  0  0  0  0  0  0  0  0
    6.1609    3.0673   -0.0874 H   0  0  0  0  0  0  0  0  0  0  0  0
    5.7879    2.1587    1.3869 H   0  0  0  0  0  0  0  0  0  0  0  0
    7.8217    1.1671    1.4064 H   0  0  0  0  0  0  0  0  0  0  0  0
    8.3453    2.4888    0.2839 H   0  0  0  0  0  0  0  0  0  0  0  0
    7.5387    1.0086   -1.6378 H   0  0  0  0  0  0  0  0  0  0  0  0
    8.9680    0.3278   -0.6752 H   0  0  0  0  0  0  0  0  0  0  0  0
    7.3404   -0.7897    0.8440 H   0  0  0  0  0  0  0  0  0  0  0  0
    8.3005   -3.5967   -0.7193 H   0  0  0  0  0  0  0  0  0  0  0  0
    7.2620   -3.1390    0.6355 H   0  0  0  0  0  0  0  0  0  0  0  0
    8.9218   -2.3778    0.4515 H   0  0  0  0  0  0  0  0  0  0  0  0
   -0.4455   -1.9142    0.9307 H   0  0  0  0  0  0  0  0  0  0  0  0
   -0.2780    0.1732    2.2580 H   0  0  0  0  0  0  0  0  0  0  0  0
   -0.3160    0.0115   -0.8389 H   0  0  0  0  0  0  0  0  0  0  0  0
   -0.9111    1.3228    0.1990 H   0  0  0  0  0  0  0  0  0  0  0  0
   -2.6468    0.4371   -1.2785 H   0  0  0  0  0  0  0  0  0  0  0  0
   -4.3087   -1.3043   -1.7271 H   0  0  0  0  0  0  0  0  0  0  0  0
   -2.6895   -2.0208   -1.6855 H   0  0  0  0  0  0  0  0  0  0  0  0
   -4.1874   -3.3887   -0.3902 H   0  0  0  0  0  0  0  0  0  0  0  0
   -2.8953   -2.7027    0.6233 H   0  0  0  0  0  0  0  0  0  0  0  0
   -4.9886   -2.5280    1.8235 H   0  0  0  0  0  0  0  0  0  0  0  0
   -5.8389   -1.9154    0.3353 H   0  0  0  0  0  0  0  0  0  0  0  0
   -3.9090   -0.4641    2.2430 H   0  0  0  0  0  0  0  0  0  0  0  0
   -3.7644    1.3530    0.7924 H   0  0  0  0  0  0  0  0  0  0  0  0
   -5.7984   -0.1604   -0.9514 H   0  0  0  0  0  0  0  0  0  0  0  0
   -4.4867    2.6237   -0.9820 H   0  0  0  0  0  0  0  0  0  0  0  0
   -5.1160    1.6284   -2.4089 H   0  0  0  0  0  0  0  0  0  0  0  0
   -6.8046    3.2222   -2.1863 H   0  0  0  0  0  0  0  0  0  0  0  0
   -6.6469    3.3619   -0.4301 H   0  0  0  0  0  0  0  0  0  0  0  0
   -8.6684    2.3228   -0.9992 H   0  0  0  0  0  0  0  0  0  0  0  0
   -7.8445    0.9625   -1.9284 H   0  0  0  0  0  0  0  0  0  0  0  0
   -8.3418    1.3098    0.9872 H   0  0  0  0  0  0  0  0  0  0  0  0
   -7.9072   -0.1788    0.0737 H   0  0  0  0  0  0  0  0  0  0  0  0
   -6.0587    2.0842    1.0389 H   0  0  0  0  0  0  0  0  0  0  0  0
   -5.7718    0.6059    2.6583 H   0  0  0  0  0  0  0  0  0  0  0  0
    1.2033    1.7818    1.2852 H   0  0  0  0  0  0  0  0  0  0  0  0
    2.1165    0.5152    2.0952 H   0  0  0  0  0  0  0  0  0  0  0  0
    1.7866    0.6580   -0.8647 H   0  0  0  0  0  0  0  0  0  0  0  0
    2.0191   -1.6531   -0.1306 H   0  0  0  0  0  0  0  0  0  0  0  0
    3.2474   -1.1366    1.0311 H   0  0  0  0  0  0  0  0  0  0  0  0
    4.0392   -2.1621   -1.1601 H   0  0  0  0  0  0  0  0  0  0  0  0
    3.1686   -0.8900   -2.0288 H   0  0  0  0  0  0  0  0  0  0  0  0
    5.2505   -0.9933    0.7376 H   0  0  0  0  0  0  0  0  0  0  0  0
    4.6338    1.1569    1.2356 H   0  0  0  0  0  0  0  0  0  0  0  0
    5.4550    1.8913   -0.1439 H   0  0  0  0  0  0  0  0  0  0  0  0
    6.8078    2.5279    1.5968 H   0  0  0  0  0  0  0  0  0  0  0  0
    6.4809    1.1061    2.6249 H   0  0  0  0  0  0  0  0  0  0  0  0
    8.2349   -0.0770    1.7509 H   0  0  0  0  0  0  0  0  0  0  0  0
    8.8480    1.6005    1.3144 H   0  0  0  0  0  0  0  0  0  0  0  0
    7.7078    1.3223   -0.9411 H   0  0  0  0  0  0  0  0  0  0  0  0
    9.0205    0.0892   -0.5244 H   0  0  0  0  0  0  0  0  0  0  0  0
    7.3862   -1.4381    0.3070 H   0  0  0  0  0  0  0  0  0  0  0  0
    7.6309   -2.8207   -2.7169 H   0  0  0  0  0  0  0  0  0  0  0  0
    6.8490   -3.0966   -1.1386 H   0  0  0  0  0  0  0  0  0  0  0  0
    8.5986   -2.4962   -1.2482 H   0  0  0  0  0  0  0  0  0  0  0  0
  1  2  1  0
  2  3  1  0
  3  4  1  0
  4  5  1  0
  5  6  1  0
  6  7  1  0
  7  8  1  0
  8  9  1  0
  5 10  1  0
  9 10  1  0
 10 11  1  0
 11 12  1  0
 12 13  1  0
 13 14  1  0
 14 15  1  0
 11 16  1  0
 15 16  1  0
  9 17  1  0
 16 17  1  0
  2 18  1  0
 18 19  1  0
 19 20  1  0
 20 21  1  0
 21 22  1  0
 22 23  1  0
 23 24  1  0
 24 25  1  0
 25 26  1  0
 26 27  1  0
 23 28  1  0
 27 28  1  0
 28 29  1  0
 29 30  1  0
 31 32  1  0
 32 33  1  0
 33 34  1  0
 34 35  1  0
 35 36  1  0
 36 37  1  0
 37 38  1  0
 38 39  1  0
 35 40  1  0
 39 40  1  0
 40 41  1  0
 41 42  1  0
 42 43  1  0
 43 44  1  0
 44 45  1  0
 41 46  1  0
 45 46  1  0
 39 47  1  0
 46 47  1  0
 32 48  1  0
 48 49  1  0
 49 50  1  0
 50 51  1  0
 51 52  1  0
 52 53  1  0
 53 54  1  0
 54 55  1  0
 55 56  1  0
 56 57  1  0
 53 58  1  0
 57 58  1  0
 58 59  1  0
 59 60  1  0
  1 61  1  0
  2 62  1  1
  3 63  1  0
  3 64  1  0
  5 65  1  1
  6 66  1  0
  6 67  1  0
  7 68  1  0
  7 69  1  0
  8 70  1  0
  8 71  1  0
  9 72  1  0
 10 73  1  0
 11 74  1  0
 12 75  1  0
 12 76  1  0
 13 77  1  0
 13 78  1  0
 14 79  1  0
 14 80  1  0
 15 81  1  0
 15 82  1  0
 16 83  1  0
 17 84  1  0
 18 85  1  0
 18 86  1  0
 19 87  1  0
 20 88  1  0
 20 89  1  0
 21 90  1  0
 21 91  1  0
 23 92  1  0
 24 93  1  0
 24 94  1  0
 25 95  1  0
 25 96  1  0
 26 97  1  0
 26 98  1  0
 27 99  1  0
 27100  1  0
 28101  1  0
 30102  1  0
 30103  1  0
 30104  1  0
 31105  1  0
 32106  1  1
 33107  1  0
 33108  1  0
 35109  1  6
 36110  1  0
 36111  1  0
 37112  1  0
 37113  1  0
 38114  1  0
 38115  1  0
 39116  1  0
 40117  1  1
 41118  1  6
 42119  1  0
 42120  1  0
 43121  1  0
 43122  1  0
 44123  1  0
 44124  1  0
 45125  1  0
 45126  1  0
 46127  1  0
 47128  1  0
 48129  1  0
 48130  1  0
 49131  1  0
 50132  1  0
 50133  1  0
 51134  1  0
 51135  1  0
 53136  1  0
 54137  1  0
 54138  1  0
 55139  1  0
 55140  1  0
 56141  1  0
 56142  1  0
 57143  1  0
 57144  1  0
 58145  1  0
 60146  1  0
 60147  1  0
 60148  1  0
M  END
>  <PDBID>  (1) 
4AMJ

>  <PDB ID>  (1) 
4AMJ

>  <Generic Name>  (1) 
Carvedilol

>  <Brand Name>  (1) 
Apo-carvedilol#Auro-carvedilol#Ava-carvedilol#Carvedilol#Coreg#Coreg (carvedilol) Tablets, 12.5mg#Coreg (carvedilol) Tablets, 25mg#Coreg (carvedilol) Tablets, 3.125 mg#Coreg (carvedilol) Tablets, 6.25mg#Coreg 12.5mg#Coreg 25mg#Coreg 3.125mg#Coreg 6.25mg#Coreg CR#Coregcr CR#Dilatrend - Tab 25mg#Dilatrend - Tab 50mg#Dom-carvedilol#Hypertenevide-12.5#Jamp-carvedilol#Mylan-carvedilol#Novo-carvedilol Tablets#Ntp-carvedilol#Nu-carvedilol#PMS-carvedilol#Ran-carvedilol#Ratio-carvedilol#Zym-carvedilol#COREGCR

>  <DrugBank ID>  (1) 
DB01136

>  <ATC Codes>  (1) 
C07AG02

>  <Ligand ID>  (1) 
CVD

>  <Target Name>  (1) 
Beta-1 adrenergic receptor

>  <UniProt ID>  (1) 
P08588

>  <PDB ID.1>  (1) 
4AMJ

>  <Seq. Identity>  (1) 
63%

$$$$
