PDB_DB00307_03
     RDKit          3D

 70 72  0  0  0  0  0  0  0  0999 V2000
    6.9797   -1.8089   -0.2794 O   0  0  0  0  0  0  0  0  0  0  0  0
    6.4028   -0.6998   -0.8944 C   0  0  0  0  0  0  0  0  0  0  0  0
    7.3722    0.2952   -0.9913 O   0  0  0  0  0  0  0  0  0  0  0  0
    5.1967   -0.1878   -0.1388 C   0  0  0  0  0  0  0  0  0  0  0  0
    4.6681    1.0066   -0.9036 C   0  0  0  0  0  0  0  0  0  0  0  0
    4.1260   -1.2512   -0.2377 C   0  0  0  0  0  0  0  0  0  0  0  0
    2.8560   -0.8441    0.4594 C   0  0  0  0  0  0  0  0  0  0  0  0
    2.3442    0.4475   -0.0899 C   0  0  0  0  0  0  0  0  0  0  0  0
    3.4437    1.5053   -0.1715 C   0  0  0  0  0  0  0  0  0  0  0  0
    1.2842    1.0703    0.8398 C   0  0  0  0  0  0  0  0  0  0  0  0
    0.9106    2.3491    0.1292 C   0  0  0  0  0  0  0  0  0  0  0  0
    0.1258    0.1448    1.0328 C   0  0  1  0  0  0  0  0  0  0  0  0
   -0.9162    0.6744    1.9713 C   0  0  0  0  0  0  0  0  0  0  0  0
   -0.4689    1.7074    2.9392 C   0  0  0  0  0  0  0  0  0  0  0  0
   -2.2234    0.9773    1.2703 C   0  0  0  0  0  0  0  0  0  0  0  0
   -0.4528   -0.1364   -0.3416 C   0  0  0  0  0  0  0  0  0  0  0  0
   -1.7846   -0.8508   -0.3002 C   0  0  0  0  0  0  0  0  0  0  0  0
   -2.3474   -0.8386   -1.6944 C   0  0  0  0  0  0  0  0  0  0  0  0
   -2.9624   -2.1832   -2.0635 C   0  0  0  0  0  0  0  0  0  0  0  0
   -1.3086   -0.5285   -2.7543 C   0  0  0  0  0  0  0  0  0  0  0  0
   -3.4264    0.1999   -1.8869 C   0  0  0  0  0  0  0  0  0  0  0  0
   -4.5347    0.1042   -0.9054 C   0  0  0  0  0  0  0  0  0  0  0  0
   -4.1559   -0.3820    0.4366 C   0  0  0  0  0  0  0  0  0  0  0  0
   -2.7116   -0.3926    0.7600 C   0  0  0  0  0  0  0  0  0  0  0  0
   -4.8539    0.5189    1.4653 C   0  0  0  0  0  0  0  0  0  0  0  0
   -4.7005   -1.7906    0.7001 C   0  0  0  0  0  0  0  0  0  0  0  0
    6.4043   -2.5937   -0.5265 H   0  0  0  0  0  0  0  0  0  0  0  0
    6.1046   -0.9489   -1.9487 H   0  0  0  0  0  0  0  0  0  0  0  0
    7.2414    0.8451   -1.8168 H   0  0  0  0  0  0  0  0  0  0  0  0
    5.4812    0.0461    0.8861 H   0  0  0  0  0  0  0  0  0  0  0  0
    4.4292    0.6975   -1.9293 H   0  0  0  0  0  0  0  0  0  0  0  0
    5.4223    1.7908   -0.8517 H   0  0  0  0  0  0  0  0  0  0  0  0
    4.5150   -2.2089    0.1476 H   0  0  0  0  0  0  0  0  0  0  0  0
    3.9006   -1.3897   -1.3241 H   0  0  0  0  0  0  0  0  0  0  0  0
    3.1080   -0.7490    1.5382 H   0  0  0  0  0  0  0  0  0  0  0  0
    2.1227   -1.6479    0.2766 H   0  0  0  0  0  0  0  0  0  0  0  0
    1.9687    0.2973   -1.1102 H   0  0  0  0  0  0  0  0  0  0  0  0
    3.0589    2.3515   -0.7580 H   0  0  0  0  0  0  0  0  0  0  0  0
    3.7496    1.8416    0.8212 H   0  0  0  0  0  0  0  0  0  0  0  0
    1.7913    1.2324    1.8030 H   0  0  0  0  0  0  0  0  0  0  0  0
    1.0577    2.2574   -0.9875 H   0  0  0  0  0  0  0  0  0  0  0  0
    1.6396    3.1293    0.4617 H   0  0  0  0  0  0  0  0  0  0  0  0
   -0.0871    2.7222    0.2822 H   0  0  0  0  0  0  0  0  0  0  0  0
    0.5185   -0.8143    1.4185 H   0  0  0  0  0  0  0  0  0  0  0  0
   -1.2242   -0.2067    2.6479 H   0  0  0  0  0  0  0  0  0  0  0  0
    0.5094    1.3434    3.3646 H   0  0  0  0  0  0  0  0  0  0  0  0
   -1.1872    1.7125    3.7917 H   0  0  0  0  0  0  0  0  0  0  0  0
   -0.3893    2.7304    2.6017 H   0  0  0  0  0  0  0  0  0  0  0  0
   -2.9182    1.3253    2.0862 H   0  0  0  0  0  0  0  0  0  0  0  0
   -2.1702    1.6610    0.4368 H   0  0  0  0  0  0  0  0  0  0  0  0
   -0.4950    0.8207   -0.8721 H   0  0  0  0  0  0  0  0  0  0  0  0
    0.2741   -0.7810   -0.8638 H   0  0  0  0  0  0  0  0  0  0  0  0
   -1.5293   -1.9331   -0.0879 H   0  0  0  0  0  0  0  0  0  0  0  0
   -2.5363   -2.5936   -3.0073 H   0  0  0  0  0  0  0  0  0  0  0  0
   -2.6899   -2.9272   -1.2755 H   0  0  0  0  0  0  0  0  0  0  0  0
   -4.0545   -2.1119   -2.2271 H   0  0  0  0  0  0  0  0  0  0  0  0
   -1.8222   -0.7482   -3.7377 H   0  0  0  0  0  0  0  0  0  0  0  0
   -0.4408   -1.1911   -2.7266 H   0  0  0  0  0  0  0  0  0  0  0  0
   -1.0637    0.5523   -2.8097 H   0  0  0  0  0  0  0  0  0  0  0  0
   -2.9631    1.2139   -1.9029 H   0  0  0  0  0  0  0  0  0  0  0  0
   -3.8436    0.0395   -2.9047 H   0  0  0  0  0  0  0  0  0  0  0  0
   -5.0519    1.1086   -0.8727 H   0  0  0  0  0  0  0  0  0  0  0  0
   -5.3341   -0.5852   -1.3081 H   0  0  0  0  0  0  0  0  0  0  0  0
   -2.6036   -1.0523    1.6758 H   0  0  0  0  0  0  0  0  0  0  0  0
   -5.9526    0.3015    1.3178 H   0  0  0  0  0  0  0  0  0  0  0  0
   -4.6043    0.2539    2.4910 H   0  0  0  0  0  0  0  0  0  0  0  0
   -4.7403    1.5890    1.2106 H   0  0  0  0  0  0  0  0  0  0  0  0
   -3.8576   -2.5273    0.7813 H   0  0  0  0  0  0  0  0  0  0  0  0
   -5.2997   -2.1095   -0.1770 H   0  0  0  0  0  0  0  0  0  0  0  0
   -5.3011   -1.8505    1.6078 H   0  0  0  0  0  0  0  0  0  0  0  0
  1  2  1  0
  2  3  1  0
  2  4  1  0
  4  5  1  0
  4  6  1  0
  6  7  1  0
  7  8  1  0
  5  9  1  0
  8  9  1  0
  8 10  1  0
 10 11  1  0
 10 12  1  0
 12 13  1  0
 13 14  1  0
 13 15  1  0
 12 16  1  0
 16 17  1  0
 17 18  1  0
 18 19  1  0
 18 20  1  0
 18 21  1  0
 21 22  1  0
 22 23  1  0
 15 24  1  0
 17 24  1  0
 23 24  1  0
 23 25  1  0
 23 26  1  0
  1 27  1  0
  2 28  1  0
  3 29  1  0
  4 30  1  0
  5 31  1  0
  5 32  1  0
  6 33  1  0
  6 34  1  0
  7 35  1  0
  7 36  1  0
  8 37  1  0
  9 38  1  0
  9 39  1  0
 10 40  1  0
 11 41  1  0
 11 42  1  0
 11 43  1  0
 12 44  1  1
 13 45  1  0
 14 46  1  0
 14 47  1  0
 14 48  1  0
 15 49  1  0
 15 50  1  0
 16 51  1  0
 16 52  1  0
 17 53  1  0
 19 54  1  0
 19 55  1  0
 19 56  1  0
 20 57  1  0
 20 58  1  0
 20 59  1  0
 21 60  1  0
 21 61  1  0
 22 62  1  0
 22 63  1  0
 24 64  1  0
 25 65  1  0
 25 66  1  0
 25 67  1  0
 26 68  1  0
 26 69  1  0
 26 70  1  0
M  END
>  <PDBID>  (1) 
3H0A

>  <PDB ID>  (1) 
3H0A

>  <Generic Name>  (1) 
Bexarotene

>  <Brand Name>  (1) 
Bexarotene#Targretin

>  <DrugBank ID>  (1) 
DB00307

>  <ATC Codes>  (1) 
L01XX25

>  <Ligand ID>  (1) 
9RA

>  <Target Name>  (1) 
Retinoic acid receptor RXR-beta

>  <UniProt ID>  (1) 
P28702

>  <PDB ID.1>  (1) 
3H0A

>  <Seq. Identity>  (1) 
87%

$$$$
