PDB_DB00480_04
     RDKit          3D

 88 92  0  0  0  0  0  0  0  0999 V2000
    1.5409   -0.2272   -0.3699 C   0  0  1  0  0  0  0  0  0  0  0  0
    2.0042    0.3721    0.9019 C   0  0  0  0  0  0  0  0  0  0  0  0
    3.5239    0.2996    1.0180 C   0  0  0  0  0  0  0  0  0  0  0  0
    4.2043    0.6200   -0.2828 C   0  0  0  0  0  0  0  0  0  0  0  0
    3.7698   -0.2985   -1.2996 N   0  0  0  0  0  0  0  0  0  0  0  0
    2.6590   -1.1296   -0.8882 C   0  0  0  0  0  0  0  0  0  0  0  0
   -1.6947   -0.6546    0.7073 C   0  0  0  0  0  0  0  0  0  0  0  0
   -2.0041   -0.6481   -0.7845 C   0  0  0  0  0  0  0  0  0  0  0  0
   -0.6642   -0.2657   -1.3479 C   0  0  0  0  0  0  0  0  0  0  0  0
    0.2839   -0.8312   -0.4294 N   0  0  0  0  0  0  0  0  0  0  0  0
   -0.3512   -1.3796    0.6723 C   0  0  0  0  0  0  0  0  0  0  0  0
   -2.8750    1.4489    1.0340 C   0  0  0  0  0  0  0  0  0  0  0  0
   -3.0870    1.5984   -0.4461 C   0  0  0  0  0  0  0  0  0  0  0  0
   -3.1139    0.2754   -1.1533 C   0  0  0  0  0  0  0  0  0  0  0  0
   -1.5621    0.7423    1.2511 C   0  0  0  0  0  0  0  0  0  0  0  0
   -0.6696   -2.7222    0.4060 O   0  0  0  0  0  0  0  0  0  0  0  0
   -4.3737   -0.3933   -0.8774 N   0  0  0  0  0  0  0  0  0  0  0  0
    2.1803   -1.7521   -2.0507 O   0  0  0  0  0  0  0  0  0  0  0  0
    3.9477    1.9524   -0.5994 O   0  0  0  0  0  0  0  0  0  0  0  0
    1.5409   -0.2272   -0.3699 C   0  0  1  0  0  0  0  0  0  0  0  0
    2.0042    0.3721    0.9019 C   0  0  0  0  0  0  0  0  0  0  0  0
    3.5239    0.2996    1.0180 C   0  0  0  0  0  0  0  0  0  0  0  0
    4.2043    0.6200   -0.2828 C   0  0  0  0  0  0  0  0  0  0  0  0
    3.7698   -0.2985   -1.2996 N   0  0  0  0  0  0  0  0  0  0  0  0
    2.6590   -1.1296   -0.8882 C   0  0  0  0  0  0  0  0  0  0  0  0
   -1.6947   -0.6546    0.7073 C   0  0  0  0  0  0  0  0  0  0  0  0
   -2.0041   -0.6481   -0.7845 C   0  0  0  0  0  0  0  0  0  0  0  0
   -0.6642   -0.2657   -1.3479 C   0  0  0  0  0  0  0  0  0  0  0  0
    0.2839   -0.8312   -0.4294 N   0  0  0  0  0  0  0  0  0  0  0  0
   -0.3512   -1.3796    0.6723 C   0  0  0  0  0  0  0  0  0  0  0  0
   -2.8750    1.4489    1.0340 C   0  0  0  0  0  0  0  0  0  0  0  0
   -3.0870    1.5984   -0.4461 C   0  0  0  0  0  0  0  0  0  0  0  0
   -3.1139    0.2754   -1.1533 C   0  0  0  0  0  0  0  0  0  0  0  0
   -1.5621    0.7423    1.2511 C   0  0  0  0  0  0  0  0  0  0  0  0
   -0.6696   -2.7222    0.4060 O   0  0  0  0  0  0  0  0  0  0  0  0
   -4.3737   -0.3933   -0.8774 N   0  0  0  0  0  0  0  0  0  0  0  0
    2.1803   -1.7521   -2.0507 O   0  0  0  0  0  0  0  0  0  0  0  0
    3.9477    1.9524   -0.5994 O   0  0  0  0  0  0  0  0  0  0  0  0
    1.5256    0.6088   -1.1215 H   0  0  0  0  0  0  0  0  0  0  0  0
    1.6254   -0.0610    1.8287 H   0  0  0  0  0  0  0  0  0  0  0  0
    1.7600    1.4641    0.9443 H   0  0  0  0  0  0  0  0  0  0  0  0
    3.8682    1.0533    1.7628 H   0  0  0  0  0  0  0  0  0  0  0  0
    3.8044   -0.7272    1.3634 H   0  0  0  0  0  0  0  0  0  0  0  0
    5.2894    0.4728   -0.1246 H   0  0  0  0  0  0  0  0  0  0  0  0
    3.6258    0.1697   -2.2128 H   0  0  0  0  0  0  0  0  0  0  0  0
    2.9891   -1.8630   -0.1415 H   0  0  0  0  0  0  0  0  0  0  0  0
   -2.4460   -1.2159    1.2799 H   0  0  0  0  0  0  0  0  0  0  0  0
   -2.2701   -1.6809   -1.0808 H   0  0  0  0  0  0  0  0  0  0  0  0
   -0.5360   -0.7018   -2.3610 H   0  0  0  0  0  0  0  0  0  0  0  0
   -0.5550    0.8268   -1.4007 H   0  0  0  0  0  0  0  0  0  0  0  0
    0.1086   -1.3611    1.6514 H   0  0  0  0  0  0  0  0  0  0  0  0
   -2.8609    2.4751    1.4639 H   0  0  0  0  0  0  0  0  0  0  0  0
   -3.7163    0.8757    1.4722 H   0  0  0  0  0  0  0  0  0  0  0  0
   -4.0922    2.0685   -0.5945 H   0  0  0  0  0  0  0  0  0  0  0  0
   -2.3088    2.2723   -0.8783 H   0  0  0  0  0  0  0  0  0  0  0  0
   -3.0796    0.4613   -2.2359 H   0  0  0  0  0  0  0  0  0  0  0  0
   -1.3475    0.6618    2.3273 H   0  0  0  0  0  0  0  0  0  0  0  0
   -0.7640    1.3029    0.7431 H   0  0  0  0  0  0  0  0  0  0  0  0
   -0.4813   -2.9767   -0.5212 H   0  0  0  0  0  0  0  0  0  0  0  0
   -4.8395    0.0189   -0.0308 H   0  0  0  0  0  0  0  0  0  0  0  0
   -4.2435   -1.4243   -0.7560 H   0  0  0  0  0  0  0  0  0  0  0  0
    1.3236   -2.2191   -1.9002 H   0  0  0  0  0  0  0  0  0  0  0  0
    3.9021    2.4920    0.2292 H   0  0  0  0  0  0  0  0  0  0  0  0
    1.5256    0.6088   -1.1215 H   0  0  0  0  0  0  0  0  0  0  0  0
    1.6254   -0.0610    1.8287 H   0  0  0  0  0  0  0  0  0  0  0  0
    1.7600    1.4641    0.9443 H   0  0  0  0  0  0  0  0  0  0  0  0
    3.8682    1.0533    1.7628 H   0  0  0  0  0  0  0  0  0  0  0  0
    3.8044   -0.7272    1.3634 H   0  0  0  0  0  0  0  0  0  0  0  0
    5.2894    0.4728   -0.1246 H   0  0  0  0  0  0  0  0  0  0  0  0
    3.6258    0.1697   -2.2128 H   0  0  0  0  0  0  0  0  0  0  0  0
    2.9891   -1.8630   -0.1415 H   0  0  0  0  0  0  0  0  0  0  0  0
   -2.4460   -1.2159    1.2799 H   0  0  0  0  0  0  0  0  0  0  0  0
   -2.2701   -1.6809   -1.0808 H   0  0  0  0  0  0  0  0  0  0  0  0
   -0.5360   -0.7018   -2.3610 H   0  0  0  0  0  0  0  0  0  0  0  0
   -0.5550    0.8268   -1.4007 H   0  0  0  0  0  0  0  0  0  0  0  0
    0.1086   -1.3611    1.6514 H   0  0  0  0  0  0  0  0  0  0  0  0
   -2.8609    2.4751    1.4639 H   0  0  0  0  0  0  0  0  0  0  0  0
   -3.7163    0.8757    1.4722 H   0  0  0  0  0  0  0  0  0  0  0  0
   -4.0922    2.0685   -0.5945 H   0  0  0  0  0  0  0  0  0  0  0  0
   -2.3088    2.2723   -0.8783 H   0  0  0  0  0  0  0  0  0  0  0  0
   -3.0796    0.4613   -2.2359 H   0  0  0  0  0  0  0  0  0  0  0  0
   -1.3475    0.6618    2.3273 H   0  0  0  0  0  0  0  0  0  0  0  0
   -0.7640    1.3029    0.7431 H   0  0  0  0  0  0  0  0  0  0  0  0
   -0.4813   -2.9767   -0.5212 H   0  0  0  0  0  0  0  0  0  0  0  0
   -4.8395    0.0189   -0.0308 H   0  0  0  0  0  0  0  0  0  0  0  0
   -4.2435   -1.4243   -0.7560 H   0  0  0  0  0  0  0  0  0  0  0  0
    1.3236   -2.2191   -1.9002 H   0  0  0  0  0  0  0  0  0  0  0  0
    3.9021    2.4920    0.2292 H   0  0  0  0  0  0  0  0  0  0  0  0
  1  2  1  0
  2  3  1  0
  3  4  1  0
  4  5  1  0
  1  6  1  0
  5  6  1  0
  7  8  1  0
  8  9  1  0
  1 10  1  0
  9 10  1  0
  7 11  1  0
 10 11  1  0
 12 13  1  0
  8 14  1  0
 13 14  1  0
  7 15  1  0
 12 15  1  0
 11 16  1  0
 14 17  1  0
  6 18  1  0
  4 19  1  0
 20 21  1  0
 21 22  1  0
 22 23  1  0
 23 24  1  0
 20 25  1  0
 24 25  1  0
 26 27  1  0
 27 28  1  0
 20 29  1  0
 28 29  1  0
 26 30  1  0
 29 30  1  0
 31 32  1  0
 27 33  1  0
 32 33  1  0
 26 34  1  0
 31 34  1  0
 30 35  1  0
 33 36  1  0
 25 37  1  0
 23 38  1  0
  1 39  1  6
  2 40  1  0
  2 41  1  0
  3 42  1  0
  3 43  1  0
  4 44  1  0
  5 45  1  0
  6 46  1  0
  7 47  1  0
  8 48  1  0
  9 49  1  0
  9 50  1  0
 11 51  1  0
 12 52  1  0
 12 53  1  0
 13 54  1  0
 13 55  1  0
 14 56  1  0
 15 57  1  0
 15 58  1  0
 16 59  1  0
 17 60  1  0
 17 61  1  0
 18 62  1  0
 19 63  1  0
 20 64  1  6
 21 65  1  0
 21 66  1  0
 22 67  1  0
 22 68  1  0
 23 69  1  0
 24 70  1  0
 25 71  1  0
 26 72  1  0
 27 73  1  0
 28 74  1  0
 28 75  1  0
 30 76  1  0
 31 77  1  0
 31 78  1  0
 32 79  1  0
 32 80  1  0
 33 81  1  0
 34 82  1  0
 34 83  1  0
 35 84  1  0
 36 85  1  0
 36 86  1  0
 37 87  1  0
 38 88  1  0
M  END
>  <PDBID>  (1) 
5FQD

>  <PDB ID>  (1) 
5FQD

>  <Generic Name>  (1) 
Lenalidomide

>  <Brand Name>  (1) 
Revlimid#Ladevina#Lenangio

>  <DrugBank ID>  (1) 
DB00480

>  <ATC Codes>  (1) 
L04AX04

>  <Ligand ID>  (1) 
LVY

>  <Target Name>  (1) 
Protein cereblon

>  <UniProt ID>  (1) 
Q96SW2

>  <PDB ID.1>  (1) 
5FQD

>  <Seq. Identity>  (1) 
100%

$$$$
