PDB_DB00234_00
     RDKit          3D

 58 60  0  0  0  0  0  0  0  0999 V2000
    3.1480    2.6172    1.0197 C   0  0  0  0  0  0  0  0  0  0  0  0
    3.7564    1.3180    1.3858 C   0  0  0  0  0  0  0  0  0  0  0  0
    3.0593    0.1823    1.0638 O   0  0  0  0  0  0  0  0  0  0  0  0
    2.7712    0.0050   -0.2359 C   0  0  0  0  0  0  0  0  0  0  0  0
    3.6852   -1.1474   -0.7686 C   0  0  0  0  0  0  0  0  0  0  0  0
    3.6517   -1.1933   -2.2577 C   0  0  0  0  0  0  0  0  0  0  0  0
    2.2305   -1.3352   -2.7731 C   0  0  0  0  0  0  0  0  0  0  0  0
    1.3855   -0.2718   -2.1303 C   0  0  0  0  0  0  0  0  0  0  0  0
    1.3974   -0.4374   -0.5977 C   0  0  0  0  0  0  0  0  0  0  0  0
    0.2898    0.0458   -0.1598 O   0  0  0  0  0  0  0  0  0  0  0  0
   -0.7169   -0.3913    0.5490 C   0  0  2  0  0  0  0  0  0  0  0  0
   -1.9687   -0.7498   -0.3168 C   0  0  0  0  0  0  0  0  0  0  0  0
   -3.1378   -1.1434    0.5690 C   0  0  0  0  0  0  0  0  0  0  0  0
   -4.3251   -1.3791   -0.3473 C   0  0  0  0  0  0  0  0  0  0  0  0
   -4.1115   -2.3470   -1.4415 C   0  0  0  0  0  0  0  0  0  0  0  0
   -2.7539   -2.2219   -2.1015 C   0  0  0  0  0  0  0  0  0  0  0  0
   -1.6668   -2.0405   -1.0750 C   0  0  0  0  0  0  0  0  0  0  0  0
   -1.1738    0.5885    1.5510 C   0  0  2  0  0  0  0  0  0  0  0  0
   -1.6110    1.7339    0.8394 O   0  0  0  0  0  0  0  0  0  0  0  0
   -2.2208    2.6327    1.7188 C   0  0  0  0  0  0  0  0  0  0  0  0
   -1.1607    3.1405    2.6911 C   0  0  0  0  0  0  0  0  0  0  0  0
    0.1313    2.5460    2.3109 N   0  0  0  0  0  0  0  0  0  0  0  0
   -0.0649    1.1106    2.4674 C   0  0  0  0  0  0  0  0  0  0  0  0
    2.8003    3.1875    1.8786 H   0  0  0  0  0  0  0  0  0  0  0  0
    3.9659    3.2328    0.5328 H   0  0  0  0  0  0  0  0  0  0  0  0
    2.3582    2.5630    0.2520 H   0  0  0  0  0  0  0  0  0  0  0  0
    4.8228    1.2157    1.0372 H   0  0  0  0  0  0  0  0  0  0  0  0
    3.8602    1.3053    2.5136 H   0  0  0  0  0  0  0  0  0  0  0  0
    3.0821    0.8605   -0.8783 H   0  0  0  0  0  0  0  0  0  0  0  0
    4.6924   -1.0531   -0.3768 H   0  0  0  0  0  0  0  0  0  0  0  0
    3.2324   -2.0766   -0.3846 H   0  0  0  0  0  0  0  0  0  0  0  0
    4.1889   -2.1063   -2.5795 H   0  0  0  0  0  0  0  0  0  0  0  0
    4.1194   -0.3292   -2.7498 H   0  0  0  0  0  0  0  0  0  0  0  0
    1.7920   -2.3127   -2.5335 H   0  0  0  0  0  0  0  0  0  0  0  0
    2.2504   -1.1216   -3.8605 H   0  0  0  0  0  0  0  0  0  0  0  0
    1.8694    0.7474   -2.2959 H   0  0  0  0  0  0  0  0  0  0  0  0
    0.3760   -0.2163   -2.4937 H   0  0  0  0  0  0  0  0  0  0  0  0
    1.4211   -1.5668   -0.4190 H   0  0  0  0  0  0  0  0  0  0  0  0
   -0.5788   -1.3893    1.0594 H   0  0  0  0  0  0  0  0  0  0  0  0
   -2.2512    0.0141   -1.0003 H   0  0  0  0  0  0  0  0  0  0  0  0
   -2.9008   -1.9774    1.2240 H   0  0  0  0  0  0  0  0  0  0  0  0
   -3.4429   -0.2214    1.1429 H   0  0  0  0  0  0  0  0  0  0  0  0
   -5.1516   -1.7590    0.3055 H   0  0  0  0  0  0  0  0  0  0  0  0
   -4.6346   -0.3962   -0.7604 H   0  0  0  0  0  0  0  0  0  0  0  0
   -4.3076   -3.3919   -1.0902 H   0  0  0  0  0  0  0  0  0  0  0  0
   -4.8620   -2.1494   -2.2381 H   0  0  0  0  0  0  0  0  0  0  0  0
   -2.7472   -1.4072   -2.8504 H   0  0  0  0  0  0  0  0  0  0  0  0
   -2.5640   -3.1807   -2.6260 H   0  0  0  0  0  0  0  0  0  0  0  0
   -0.7191   -1.9685   -1.5667 H   0  0  0  0  0  0  0  0  0  0  0  0
   -1.6985   -2.9133   -0.3740 H   0  0  0  0  0  0  0  0  0  0  0  0
   -2.0148    0.2206    2.1873 H   0  0  0  0  0  0  0  0  0  0  0  0
   -2.6166    3.4628    1.1129 H   0  0  0  0  0  0  0  0  0  0  0  0
   -3.0324    2.1237    2.2498 H   0  0  0  0  0  0  0  0  0  0  0  0
   -1.3998    2.7896    3.7054 H   0  0  0  0  0  0  0  0  0  0  0  0
   -1.1247    4.2425    2.6913 H   0  0  0  0  0  0  0  0  0  0  0  0
    0.2197    2.7503    1.2754 H   0  0  0  0  0  0  0  0  0  0  0  0
    0.8513    0.5497    2.4200 H   0  0  0  0  0  0  0  0  0  0  0  0
   -0.4507    1.0090    3.5288 H   0  0  0  0  0  0  0  0  0  0  0  0
  1  2  1  0
  2  3  1  0
  3  4  1  0
  4  5  1  0
  5  6  1  0
  6  7  1  0
  7  8  1  0
  4  9  1  0
  8  9  1  0
  9 10  1  0
 10 11  1  0
 11 12  1  0
 12 13  1  0
 13 14  1  0
 14 15  1  0
 15 16  1  0
 12 17  1  0
 16 17  1  0
 11 18  1  0
 18 19  1  0
 19 20  1  0
 20 21  1  0
 21 22  1  0
 18 23  1  0
 22 23  1  0
  1 24  1  0
  1 25  1  0
  1 26  1  0
  2 27  1  0
  2 28  1  0
  4 29  1  0
  5 30  1  0
  5 31  1  0
  6 32  1  0
  6 33  1  0
  7 34  1  0
  7 35  1  0
  8 36  1  0
  8 37  1  0
  9 38  1  0
 11 39  1  1
 12 40  1  0
 13 41  1  0
 13 42  1  0
 14 43  1  0
 14 44  1  0
 15 45  1  0
 15 46  1  0
 16 47  1  0
 16 48  1  0
 17 49  1  0
 17 50  1  0
 18 51  1  1
 20 52  1  0
 20 53  1  0
 21 54  1  0
 21 55  1  0
 22 56  1  0
 23 57  1  0
 23 58  1  0
M  END
>  <PDBID>  (1) 
4XNX

>  <PDB ID>  (1) 
4XNX

>  <Generic Name>  (1) 
Reboxetine

>  <Brand Name>  (1) 
Davedax#Edronax#Norebox#Prolift#Solvex#Vestra

>  <DrugBank ID>  (1) 
DB00234

>  <ATC Codes>  (1) 
N06AX18

>  <Ligand ID>  (1) 
41X

>  <Target Name>  (1) 
Sodium-dependent noradrenaline transporter

>  <UniProt ID>  (1) 
P23975

>  <PDB ID.1>  (1) 
4XNX

>  <Seq. Identity>  (1) 
58%

$$$$
