PDB_DB00284_06
     RDKit          3D

 89 92  0  0  0  0  0  0  0  0999 V2000
   -5.9992    0.1991    0.0948 C   0  0  2  0  0  0  0  0  0  0  0  0
   -6.3350   -0.6908   -1.0309 C   0  0  1  0  0  0  0  0  0  0  0  0
   -7.8400   -0.9913   -1.0905 C   0  0  2  0  0  0  0  0  0  0  0  0
   -8.6126   -0.2517   -0.0361 C   0  0  1  0  0  0  0  0  0  0  0  0
   -8.2772    1.2123   -0.1747 C   0  0  0  0  0  0  0  0  0  0  0  0
   -9.1233    2.0774    0.7592 C   0  0  0  0  0  0  0  0  0  0  0  0
   -6.8379    1.4906    0.0683 C   0  0  0  0  0  0  0  0  0  0  0  0
   -5.9447   -0.1826   -2.2678 O   0  0  0  0  0  0  0  0  0  0  0  0
   -8.1244   -2.3300   -0.9924 O   0  0  0  0  0  0  0  0  0  0  0  0
   -9.9773   -0.3704   -0.3859 O   0  0  0  0  0  0  0  0  0  0  0  0
  -10.4713    1.9200    0.4689 O   0  0  0  0  0  0  0  0  0  0  0  0
   -0.7383   -0.4925    0.0546 C   0  0  2  0  0  0  0  0  0  0  0  0
   -1.6753   -0.7254   -1.0560 C   0  0  1  0  0  0  0  0  0  0  0  0
   -3.0590   -1.1409   -0.5036 C   0  0  2  0  0  0  0  0  0  0  0  0
   -3.5681   -0.1724    0.5018 C   0  0  1  0  0  0  0  0  0  0  0  0
   -2.4419    0.7852    0.9483 C   0  0  1  0  0  0  0  0  0  0  0  0
   -2.8963    1.3682    2.2656 C   0  0  0  0  0  0  0  0  0  0  0  0
   -4.6761    0.5853    0.2274 N   0  0  0  0  0  0  0  0  0  0  0  0
   -1.9166    0.3459   -1.8965 O   0  0  0  0  0  0  0  0  0  0  0  0
   -2.9448   -2.4597    0.0142 O   0  0  0  0  0  0  0  0  0  0  0  0
   -1.2871    0.0736    1.1776 O   0  0  0  0  0  0  0  0  0  0  0  0
    4.4736   -0.1593   -0.0289 C   0  0  2  0  0  0  0  0  0  0  0  0
    3.7980   -0.9397   -1.1507 C   0  0  1  0  0  0  0  0  0  0  0  0
    2.4202   -0.3606   -1.4244 C   0  0  2  0  0  0  0  0  0  0  0  0
    1.6024   -0.3933   -0.1686 C   0  0  1  0  0  0  0  0  0  0  0  0
    2.3829    0.3256    0.9009 C   0  0  1  0  0  0  0  0  0  0  0  0
    2.5339   -0.5136    2.1597 C   0  0  0  0  0  0  0  0  0  0  0  0
    4.5139   -0.8555   -2.3167 O   0  0  0  0  0  0  0  0  0  0  0  0
    1.8843   -1.0933   -2.4581 O   0  0  0  0  0  0  0  0  0  0  0  0
    0.3898    0.2386   -0.2940 O   0  0  0  0  0  0  0  0  0  0  0  0
    3.6072    0.7644    0.5082 O   0  0  0  0  0  0  0  0  0  0  0  0
    1.2811   -0.9719    2.5867 O   0  0  0  0  0  0  0  0  0  0  0  0
    9.6393    0.4307    0.2528 C   0  0  1  0  0  0  0  0  0  0  0  0
    9.0269   -0.8835   -0.1830 C   0  0  1  0  0  0  0  0  0  0  0  0
    7.7747   -0.5280   -0.9998 C   0  0  2  0  0  0  0  0  0  0  0  0
    6.7960    0.0522   -0.0471 C   0  0  1  0  0  0  0  0  0  0  0  0
    7.4995    1.1694    0.7114 C   0  0  1  0  0  0  0  0  0  0  0  0
    7.5620    0.8702    2.2119 C   0  0  0  0  0  0  0  0  0  0  0  0
   10.6892    0.7366   -0.6222 O   0  0  0  0  0  0  0  0  0  0  0  0
    9.8920   -1.5421   -1.0850 O   0  0  0  0  0  0  0  0  0  0  0  0
    7.3845   -1.7271   -1.5885 O   0  0  0  0  0  0  0  0  0  0  0  0
    5.5893    0.4539   -0.5663 O   0  0  0  0  0  0  0  0  0  0  0  0
    8.7431    1.4738    0.2138 O   0  0  0  0  0  0  0  0  0  0  0  0
    8.0479    1.9817    2.8966 O   0  0  0  0  0  0  0  0  0  0  0  0
   -6.3002   -0.3173    1.0825 H   0  0  0  0  0  0  0  0  0  0  0  0
   -5.8738   -1.6801   -0.8959 H   0  0  0  0  0  0  0  0  0  0  0  0
   -8.1948   -0.6256   -2.0706 H   0  0  0  0  0  0  0  0  0  0  0  0
   -8.4524   -0.6203    0.9844 H   0  0  0  0  0  0  0  0  0  0  0  0
   -8.5586    1.5220   -1.2068 H   0  0  0  0  0  0  0  0  0  0  0  0
   -8.9152    1.7798    1.8212 H   0  0  0  0  0  0  0  0  0  0  0  0
   -8.7858    3.1264    0.5707 H   0  0  0  0  0  0  0  0  0  0  0  0
   -6.7266    1.9391    1.0756 H   0  0  0  0  0  0  0  0  0  0  0  0
   -6.4300    2.1620   -0.6923 H   0  0  0  0  0  0  0  0  0  0  0  0
   -5.3927    0.6136   -2.2073 H   0  0  0  0  0  0  0  0  0  0  0  0
   -8.9194   -2.6011   -1.5257 H   0  0  0  0  0  0  0  0  0  0  0  0
  -10.5309   -0.6333    0.3862 H   0  0  0  0  0  0  0  0  0  0  0  0
  -10.9779    2.7258    0.7892 H   0  0  0  0  0  0  0  0  0  0  0  0
   -0.3403   -1.5013    0.3793 H   0  0  0  0  0  0  0  0  0  0  0  0
   -1.3524   -1.6375   -1.6340 H   0  0  0  0  0  0  0  0  0  0  0  0
   -3.7442   -1.2433   -1.3623 H   0  0  0  0  0  0  0  0  0  0  0  0
   -3.7799   -0.8261    1.4357 H   0  0  0  0  0  0  0  0  0  0  0  0
   -2.3682    1.6014    0.2170 H   0  0  0  0  0  0  0  0  0  0  0  0
   -2.2166    2.1430    2.6525 H   0  0  0  0  0  0  0  0  0  0  0  0
   -2.9580    0.5604    3.0466 H   0  0  0  0  0  0  0  0  0  0  0  0
   -3.9170    1.8008    2.1896 H   0  0  0  0  0  0  0  0  0  0  0  0
   -4.4942    1.6209    0.0380 H   0  0  0  0  0  0  0  0  0  0  0  0
   -1.7917    0.1123   -2.8479 H   0  0  0  0  0  0  0  0  0  0  0  0
   -3.3375   -3.1335   -0.5879 H   0  0  0  0  0  0  0  0  0  0  0  0
    4.7149   -0.8998    0.7493 H   0  0  0  0  0  0  0  0  0  0  0  0
    3.6587   -1.9988   -0.8762 H   0  0  0  0  0  0  0  0  0  0  0  0
    2.4799    0.7014   -1.7422 H   0  0  0  0  0  0  0  0  0  0  0  0
    1.4925   -1.4501    0.2097 H   0  0  0  0  0  0  0  0  0  0  0  0
    1.7432    1.2061    1.2579 H   0  0  0  0  0  0  0  0  0  0  0  0
    2.9190    0.1432    2.9342 H   0  0  0  0  0  0  0  0  0  0  0  0
    3.2031   -1.3507    1.9790 H   0  0  0  0  0  0  0  0  0  0  0  0
    4.6719    0.1024   -2.5304 H   0  0  0  0  0  0  0  0  0  0  0  0
    1.3721   -0.5070   -3.0371 H   0  0  0  0  0  0  0  0  0  0  0  0
    1.3608   -1.3917    3.4799 H   0  0  0  0  0  0  0  0  0  0  0  0
   10.1112    0.2982    1.2527 H   0  0  0  0  0  0  0  0  0  0  0  0
    8.7910   -1.5095    0.6744 H   0  0  0  0  0  0  0  0  0  0  0  0
    8.1468    0.2128   -1.7574 H   0  0  0  0  0  0  0  0  0  0  0  0
    6.5766   -0.7359    0.7281 H   0  0  0  0  0  0  0  0  0  0  0  0
    6.8810    2.1117    0.6460 H   0  0  0  0  0  0  0  0  0  0  0  0
    8.2640    0.0324    2.4268 H   0  0  0  0  0  0  0  0  0  0  0  0
    6.5772    0.5596    2.5680 H   0  0  0  0  0  0  0  0  0  0  0  0
   10.4638    0.6142   -1.5636 H   0  0  0  0  0  0  0  0  0  0  0  0
    9.8748   -2.5238   -0.9100 H   0  0  0  0  0  0  0  0  0  0  0  0
    8.1530   -2.0047   -2.1589 H   0  0  0  0  0  0  0  0  0  0  0  0
    8.1178    2.7226    2.2690 H   0  0  0  0  0  0  0  0  0  0  0  0
  1  2  1  0
  2  3  1  0
  3  4  1  0
  4  5  1  0
  5  6  1  0
  1  7  1  0
  5  7  1  0
  2  8  1  0
  3  9  1  0
  4 10  1  0
  6 11  1  0
 12 13  1  0
 13 14  1  0
 14 15  1  0
 15 16  1  0
 16 17  1  0
  1 18  1  0
 15 18  1  0
 13 19  1  0
 14 20  1  0
 12 21  1  0
 16 21  1  0
 22 23  1  0
 23 24  1  0
 24 25  1  0
 25 26  1  0
 26 27  1  0
 23 28  1  0
 24 29  1  0
 12 30  1  0
 25 30  1  0
 22 31  1  0
 26 31  1  0
 27 32  1  0
 33 34  1  0
 34 35  1  0
 35 36  1  0
 36 37  1  0
 37 38  1  0
 33 39  1  0
 34 40  1  0
 35 41  1  0
 22 42  1  0
 36 42  1  0
 33 43  1  0
 37 43  1  0
 38 44  1  0
  1 45  1  1
  2 46  1  1
  3 47  1  6
  4 48  1  1
  5 49  1  0
  6 50  1  0
  6 51  1  0
  7 52  1  0
  7 53  1  0
  8 54  1  0
  9 55  1  0
 10 56  1  0
 11 57  1  0
 12 58  1  1
 13 59  1  6
 14 60  1  6
 15 61  1  1
 16 62  1  6
 17 63  1  0
 17 64  1  0
 17 65  1  0
 18 66  1  0
 19 67  1  0
 20 68  1  0
 22 69  1  1
 23 70  1  1
 24 71  1  6
 25 72  1  1
 26 73  1  1
 27 74  1  0
 27 75  1  0
 28 76  1  0
 29 77  1  0
 32 78  1  0
 33 79  1  1
 34 80  1  1
 35 81  1  6
 36 82  1  1
 37 83  1  1
 38 84  1  0
 38 85  1  0
 39 86  1  0
 40 87  1  0
 41 88  1  0
 44 89  1  0
M  END
>  <PDBID>  (1) 
2QMJ

>  <PDB ID>  (1) 
2QMJ

>  <Generic Name>  (1) 
Acarbose

>  <Brand Name>  (1) 
Acarbose#Glucobay#Precose#Prandase

>  <DrugBank ID>  (1) 
DB00284

>  <ATC Codes>  (1) 
A10BF01#A10BD17

>  <Ligand ID>  (1) 
ACR,QPS

>  <Target Name>  (1) 
Maltase-glucoamylase, intestinal

>  <UniProt ID>  (1) 
O43451

>  <PDB ID.1>  (1) 
2QMJ

>  <Seq. Identity>  (1) 
99%

$$$$
