PDB_DB00482_08
     RDKit          3D

116120  0  0  0  0  0  0  0  0999 V2000
    4.9067    1.6769    0.1950 S   0  0  0  0  0  0  0  0  0  0  0  0
    3.3256    1.0731    0.0220 C   0  0  0  0  0  0  0  0  0  0  0  0
    3.0194    0.5251   -1.3487 C   0  0  0  0  0  0  0  0  0  0  0  0
    2.1029   -0.7035   -1.2389 C   0  0  0  0  0  0  0  0  0  0  0  0
    0.9573   -0.3573   -0.2743 C   0  0  0  0  0  0  0  0  0  0  0  0
    1.5846   -0.3512    1.1010 C   0  0  0  0  0  0  0  0  0  0  0  0
    3.0815   -0.0519    1.0142 C   0  0  0  0  0  0  0  0  0  0  0  0
   -0.0893   -1.2848   -0.4698 N   0  0  0  0  0  0  0  0  0  0  0  0
   -1.3492   -0.9922    0.1317 C   0  0  0  0  0  0  0  0  0  0  0  0
   -1.7829    0.4018    0.2155 C   0  0  0  0  0  0  0  0  0  0  0  0
   -1.9720    1.0298   -1.1545 C   0  0  0  0  0  0  0  0  0  0  0  0
   -3.3053    0.6078   -1.7888 C   0  0  0  0  0  0  0  0  0  0  0  0
   -4.4414    1.0620   -0.9409 C   0  0  0  0  0  0  0  0  0  0  0  0
   -4.5954    2.5423   -0.8502 C   0  0  0  0  0  0  0  0  0  0  0  0
   -4.3017    0.3839    0.4049 C   0  0  0  0  0  0  0  0  0  0  0  0
   -2.9817    0.7060    1.0335 C   0  0  0  0  0  0  0  0  0  0  0  0
   -1.3226   -1.8152    1.3696 C   0  0  0  0  0  0  0  0  0  0  0  0
   -0.4697   -3.0224    0.9685 C   0  0  0  0  0  0  0  0  0  0  0  0
   -1.3495   -4.2424    0.7009 C   0  0  0  0  0  0  0  0  0  0  0  0
   -2.2162   -3.9650   -0.3071 F   0  0  0  0  0  0  0  0  0  0  0  0
   -0.5253   -5.3047    0.4799 F   0  0  0  0  0  0  0  0  0  0  0  0
   -2.0239   -4.4931    1.8954 F   0  0  0  0  0  0  0  0  0  0  0  0
    0.2327   -2.5945   -0.1854 N   0  0  0  0  0  0  0  0  0  0  0  0
    5.3152    2.8869   -0.6658 N   0  0  0  0  0  0  0  0  0  0  0  0
    5.1171    2.0024    1.8274 O   0  0  0  0  0  0  0  0  0  0  0  0
    5.9408    0.3294   -0.0808 O   0  0  0  0  0  0  0  0  0  0  0  0
    4.9067    1.6769    0.1950 S   0  0  0  0  0  0  0  0  0  0  0  0
    3.3256    1.0731    0.0220 C   0  0  0  0  0  0  0  0  0  0  0  0
    3.0194    0.5251   -1.3487 C   0  0  0  0  0  0  0  0  0  0  0  0
    2.1029   -0.7035   -1.2389 C   0  0  0  0  0  0  0  0  0  0  0  0
    0.9573   -0.3573   -0.2743 C   0  0  0  0  0  0  0  0  0  0  0  0
    1.5846   -0.3512    1.1010 C   0  0  0  0  0  0  0  0  0  0  0  0
    3.0815   -0.0519    1.0142 C   0  0  0  0  0  0  0  0  0  0  0  0
   -0.0893   -1.2848   -0.4698 N   0  0  0  0  0  0  0  0  0  0  0  0
   -1.3492   -0.9922    0.1317 C   0  0  0  0  0  0  0  0  0  0  0  0
   -1.7829    0.4018    0.2155 C   0  0  0  0  0  0  0  0  0  0  0  0
   -1.9720    1.0298   -1.1545 C   0  0  0  0  0  0  0  0  0  0  0  0
   -3.3053    0.6078   -1.7888 C   0  0  0  0  0  0  0  0  0  0  0  0
   -4.4414    1.0620   -0.9409 C   0  0  0  0  0  0  0  0  0  0  0  0
   -4.5954    2.5423   -0.8502 C   0  0  0  0  0  0  0  0  0  0  0  0
   -4.3017    0.3839    0.4049 C   0  0  0  0  0  0  0  0  0  0  0  0
   -2.9817    0.7060    1.0335 C   0  0  0  0  0  0  0  0  0  0  0  0
   -1.3226   -1.8152    1.3696 C   0  0  0  0  0  0  0  0  0  0  0  0
   -0.4697   -3.0224    0.9685 C   0  0  0  0  0  0  0  0  0  0  0  0
   -1.3495   -4.2424    0.7009 C   0  0  0  0  0  0  0  0  0  0  0  0
   -2.2162   -3.9650   -0.3071 F   0  0  0  0  0  0  0  0  0  0  0  0
   -0.5253   -5.3047    0.4799 F   0  0  0  0  0  0  0  0  0  0  0  0
   -2.0239   -4.4931    1.8954 F   0  0  0  0  0  0  0  0  0  0  0  0
    0.2327   -2.5945   -0.1854 N   0  0  0  0  0  0  0  0  0  0  0  0
    5.3152    2.8869   -0.6658 N   0  0  0  0  0  0  0  0  0  0  0  0
    5.1171    2.0024    1.8274 O   0  0  0  0  0  0  0  0  0  0  0  0
    5.9408    0.3294   -0.0808 O   0  0  0  0  0  0  0  0  0  0  0  0
    2.5934    1.8650    0.2712 H   0  0  0  0  0  0  0  0  0  0  0  0
    2.4618    1.2696   -1.9754 H   0  0  0  0  0  0  0  0  0  0  0  0
    3.9081    0.2434   -1.9210 H   0  0  0  0  0  0  0  0  0  0  0  0
    2.6608   -1.5852   -0.9260 H   0  0  0  0  0  0  0  0  0  0  0  0
    1.6857   -0.8650   -2.2456 H   0  0  0  0  0  0  0  0  0  0  0  0
    0.6794    0.6612   -0.5015 H   0  0  0  0  0  0  0  0  0  0  0  0
    1.1680    0.4595    1.7537 H   0  0  0  0  0  0  0  0  0  0  0  0
    1.4952   -1.2856    1.6494 H   0  0  0  0  0  0  0  0  0  0  0  0
    3.4173    0.2856    1.9942 H   0  0  0  0  0  0  0  0  0  0  0  0
    3.6509   -0.9576    0.7500 H   0  0  0  0  0  0  0  0  0  0  0  0
   -2.1073   -1.5156   -0.5397 H   0  0  0  0  0  0  0  0  0  0  0  0
   -0.9531    1.0247    0.6876 H   0  0  0  0  0  0  0  0  0  0  0  0
   -1.9479    2.1146   -1.0726 H   0  0  0  0  0  0  0  0  0  0  0  0
   -1.2176    0.6907   -1.8997 H   0  0  0  0  0  0  0  0  0  0  0  0
   -3.3122    1.0379   -2.8011 H   0  0  0  0  0  0  0  0  0  0  0  0
   -3.3532   -0.4978   -1.8651 H   0  0  0  0  0  0  0  0  0  0  0  0
   -5.3824    0.6406   -1.4000 H   0  0  0  0  0  0  0  0  0  0  0  0
   -4.8396    2.8219    0.1937 H   0  0  0  0  0  0  0  0  0  0  0  0
   -5.4760    2.9010   -1.4598 H   0  0  0  0  0  0  0  0  0  0  0  0
   -3.7192    3.1085   -1.2491 H   0  0  0  0  0  0  0  0  0  0  0  0
   -5.0937    0.8115    1.0549 H   0  0  0  0  0  0  0  0  0  0  0  0
   -4.5149   -0.6846    0.2994 H   0  0  0  0  0  0  0  0  0  0  0  0
   -2.9886    1.8296    1.1825 H   0  0  0  0  0  0  0  0  0  0  0  0
   -2.9524    0.3008    2.0637 H   0  0  0  0  0  0  0  0  0  0  0  0
   -2.3178   -2.2506    1.6317 H   0  0  0  0  0  0  0  0  0  0  0  0
   -0.8238   -1.3600    2.2307 H   0  0  0  0  0  0  0  0  0  0  0  0
    0.2261   -3.3028    1.7898 H   0  0  0  0  0  0  0  0  0  0  0  0
    1.2440   -2.8022   -0.1161 H   0  0  0  0  0  0  0  0  0  0  0  0
    5.7567    2.7786   -1.6118 H   0  0  0  0  0  0  0  0  0  0  0  0
    5.7651    3.7624   -0.2645 H   0  0  0  0  0  0  0  0  0  0  0  0
    5.8672    2.6592    1.9036 H   0  0  0  0  0  0  0  0  0  0  0  0
    5.5621   -0.2085   -0.8157 H   0  0  0  0  0  0  0  0  0  0  0  0
    2.5934    1.8650    0.2712 H   0  0  0  0  0  0  0  0  0  0  0  0
    2.4618    1.2696   -1.9754 H   0  0  0  0  0  0  0  0  0  0  0  0
    3.9081    0.2434   -1.9210 H   0  0  0  0  0  0  0  0  0  0  0  0
    2.6608   -1.5852   -0.9260 H   0  0  0  0  0  0  0  0  0  0  0  0
    1.6857   -0.8650   -2.2456 H   0  0  0  0  0  0  0  0  0  0  0  0
    0.6794    0.6612   -0.5015 H   0  0  0  0  0  0  0  0  0  0  0  0
    1.1680    0.4595    1.7537 H   0  0  0  0  0  0  0  0  0  0  0  0
    1.4952   -1.2856    1.6494 H   0  0  0  0  0  0  0  0  0  0  0  0
    3.4173    0.2856    1.9942 H   0  0  0  0  0  0  0  0  0  0  0  0
    3.6509   -0.9576    0.7500 H   0  0  0  0  0  0  0  0  0  0  0  0
   -2.1073   -1.5156   -0.5397 H   0  0  0  0  0  0  0  0  0  0  0  0
   -0.9531    1.0247    0.6876 H   0  0  0  0  0  0  0  0  0  0  0  0
   -1.9479    2.1146   -1.0726 H   0  0  0  0  0  0  0  0  0  0  0  0
   -1.2176    0.6907   -1.8997 H   0  0  0  0  0  0  0  0  0  0  0  0
   -3.3122    1.0379   -2.8011 H   0  0  0  0  0  0  0  0  0  0  0  0
   -3.3532   -0.4978   -1.8651 H   0  0  0  0  0  0  0  0  0  0  0  0
   -5.3824    0.6406   -1.4000 H   0  0  0  0  0  0  0  0  0  0  0  0
   -4.8396    2.8219    0.1937 H   0  0  0  0  0  0  0  0  0  0  0  0
   -5.4760    2.9010   -1.4598 H   0  0  0  0  0  0  0  0  0  0  0  0
   -3.7192    3.1085   -1.2491 H   0  0  0  0  0  0  0  0  0  0  0  0
   -5.0937    0.8115    1.0549 H   0  0  0  0  0  0  0  0  0  0  0  0
   -4.5149   -0.6846    0.2994 H   0  0  0  0  0  0  0  0  0  0  0  0
   -2.9886    1.8296    1.1825 H   0  0  0  0  0  0  0  0  0  0  0  0
   -2.9524    0.3008    2.0637 H   0  0  0  0  0  0  0  0  0  0  0  0
   -2.3178   -2.2506    1.6317 H   0  0  0  0  0  0  0  0  0  0  0  0
   -0.8238   -1.3600    2.2307 H   0  0  0  0  0  0  0  0  0  0  0  0
    0.2261   -3.3028    1.7898 H   0  0  0  0  0  0  0  0  0  0  0  0
    1.2440   -2.8022   -0.1161 H   0  0  0  0  0  0  0  0  0  0  0  0
    5.7567    2.7786   -1.6118 H   0  0  0  0  0  0  0  0  0  0  0  0
    5.7651    3.7624   -0.2645 H   0  0  0  0  0  0  0  0  0  0  0  0
    5.8672    2.6592    1.9036 H   0  0  0  0  0  0  0  0  0  0  0  0
    5.5621   -0.2085   -0.8157 H   0  0  0  0  0  0  0  0  0  0  0  0
  1  2  1  0
  2  3  1  0
  3  4  1  0
  4  5  1  0
  5  6  1  0
  2  7  1  0
  6  7  1  0
  5  8  1  0
  8  9  1  0
  9 10  1  0
 10 11  1  0
 11 12  1  0
 12 13  1  0
 13 14  1  0
 13 15  1  0
 10 16  1  0
 15 16  1  0
  9 17  1  0
 17 18  1  0
 18 19  1  0
 19 20  1  0
 19 21  1  0
 19 22  1  0
  8 23  1  0
 18 23  1  0
  1 24  1  0
  1 25  1  0
  1 26  1  0
 27 28  1  0
 28 29  1  0
 29 30  1  0
 30 31  1  0
 31 32  1  0
 28 33  1  0
 32 33  1  0
 31 34  1  0
 34 35  1  0
 35 36  1  0
 36 37  1  0
 37 38  1  0
 38 39  1  0
 39 40  1  0
 39 41  1  0
 36 42  1  0
 41 42  1  0
 35 43  1  0
 43 44  1  0
 44 45  1  0
 45 46  1  0
 45 47  1  0
 45 48  1  0
 34 49  1  0
 44 49  1  0
 27 50  1  0
 27 51  1  0
 27 52  1  0
  2 53  1  0
  3 54  1  0
  3 55  1  0
  4 56  1  0
  4 57  1  0
  5 58  1  0
  6 59  1  0
  6 60  1  0
  7 61  1  0
  7 62  1  0
  9 63  1  0
 10 64  1  0
 11 65  1  0
 11 66  1  0
 12 67  1  0
 12 68  1  0
 13 69  1  0
 14 70  1  0
 14 71  1  0
 14 72  1  0
 15 73  1  0
 15 74  1  0
 16 75  1  0
 16 76  1  0
 17 77  1  0
 17 78  1  0
 18 79  1  0
 23 80  1  0
 24 81  1  0
 24 82  1  0
 25 83  1  0
 26 84  1  0
 28 85  1  0
 29 86  1  0
 29 87  1  0
 30 88  1  0
 30 89  1  0
 31 90  1  0
 32 91  1  0
 32 92  1  0
 33 93  1  0
 33 94  1  0
 35 95  1  0
 36 96  1  0
 37 97  1  0
 37 98  1  0
 38 99  1  0
 38100  1  0
 39101  1  0
 40102  1  0
 40103  1  0
 40104  1  0
 41105  1  0
 41106  1  0
 42107  1  0
 42108  1  0
 43109  1  0
 43110  1  0
 44111  1  0
 49112  1  0
 50113  1  0
 50114  1  0
 51115  1  0
 52116  1  0
M  END
>  <PDBID>  (1) 
5JW1

>  <PDB ID>  (1) 
5JW1

>  <Generic Name>  (1) 
Celecoxib

>  <Brand Name>  (1) 
Accel-celecoxib#Act Celecoxib#Ag-celecoxib#Apo-celecoxib#Auro-celecoxib#Bio-celecoxib#Celebrex#Celecoxib#Celecoxib 100 mg#Celecoxib 200 mg#Celecoxib 400 mg#Celecoxib 50 mg#Dom-celecoxib#Gd-celecoxib#Ipg-celecoxib#Jamp-celecoxib#Lupin-celecoxib#Mar-celecoxib#Mint-celecoxib#Mylan-celecoxib#PMS-celecoxib#Priva-celecoxib#Ran-celecoxib#Rbx-celecoxib#Riva-celecox#Riva-celecoxib#Sandoz Celecoxib#Sdz Celecoxib#Teva-celecoxib#Articox#Articoxib#Artiflex#Artilog#Artix#Artrixib#Blockten#Caditar#Cefinix#Celact#Celebra#Onsenal#Valdyne

>  <DrugBank ID>  (1) 
DB00482

>  <ATC Codes>  (1) 
L01XX33#M01AH01

>  <Ligand ID>  (1) 
CEL

>  <Target Name>  (1) 
Prostaglandin G/H synthase 2

>  <UniProt ID>  (1) 
P35354

>  <PDB ID.1>  (1) 
5JW1

>  <Seq. Identity>  (1) 
85%

$$$$
