PDB_DB06228_03
     RDKit          3D

 63 66  0  0  0  0  0  0  0  0999 V2000
   -5.6327   -1.1117   -0.9936 C   0  0  0  0  0  0  0  0  0  0  0  0
   -5.2641   -0.3643    0.1407 N   0  0  0  0  0  0  0  0  0  0  0  0
   -7.1214   -1.0547   -1.2321 C   0  0  0  0  0  0  0  0  0  0  0  0
   -6.2215   -0.1895    1.1631 C   0  0  0  0  0  0  0  0  0  0  0  0
   -7.5792    0.1798   -0.7832 O   0  0  0  0  0  0  0  0  0  0  0  0
   -7.5969    0.1658    0.6134 C   0  0  0  0  0  0  0  0  0  0  0  0
   -1.2008    0.3480   -0.5572 C   0  0  0  0  0  0  0  0  0  0  0  0
   -1.5642   -0.4108    0.6919 C   0  0  0  0  0  0  0  0  0  0  0  0
   -2.1706    1.5574   -0.5605 C   0  0  0  0  0  0  0  0  0  0  0  0
   -2.9660   -0.9853    0.4077 C   0  0  0  0  0  0  0  0  0  0  0  0
   -3.5206    0.9816   -0.9056 C   0  0  0  0  0  0  0  0  0  0  0  0
   -3.9731    0.1382    0.2870 C   0  0  0  0  0  0  0  0  0  0  0  0
   -5.8546    0.7999    2.0724 O   0  0  0  0  0  0  0  0  0  0  0  0
    0.1127    0.7819   -0.7043 N   0  0  0  0  0  0  0  0  0  0  0  0
    0.6009    1.7722    0.2512 C   0  0  0  0  0  0  0  0  0  0  0  0
    1.1808   -0.1756   -0.5922 C   0  0  0  0  0  0  0  0  0  0  0  0
    1.9228    1.9630   -0.1797 O   0  0  0  0  0  0  0  0  0  0  0  0
    2.3984    0.7026   -0.5869 C   0  0  1  0  0  0  0  0  0  0  0  0
   -0.0857    2.9483    0.0632 O   0  0  0  0  0  0  0  0  0  0  0  0
    3.3910    0.1936    0.4764 C   0  0  0  0  0  0  0  0  0  0  0  0
    4.4863    1.0687    0.6154 N   0  0  0  0  0  0  0  0  0  0  0  0
    5.5103    1.1443   -0.3289 C   0  0  0  0  0  0  0  0  0  0  0  0
    7.5803    0.0732    1.1398 S   0  0  0  0  0  0  0  0  0  0  0  0
    8.2773   -1.6041    0.8226 C   0  0  0  0  0  0  0  0  0  0  0  0
    6.5526    0.1192   -0.4249 C   0  0  0  0  0  0  0  0  0  0  0  0
    7.4562   -2.0978   -0.3489 C   0  0  0  0  0  0  0  0  0  0  0  0
    6.1274   -1.3280   -0.3253 C   0  0  0  0  0  0  0  0  0  0  0  0
    5.0324    1.3136   -1.6701 O   0  0  0  0  0  0  0  0  0  0  0  0
    9.9237   -1.3237    0.2048 Cl  0  0  0  0  0  0  0  0  0  0  0  0
   -5.3392   -2.1999   -0.8757 H   0  0  0  0  0  0  0  0  0  0  0  0
   -5.1407   -0.7736   -1.9424 H   0  0  0  0  0  0  0  0  0  0  0  0
   -7.6605   -1.9049   -0.7626 H   0  0  0  0  0  0  0  0  0  0  0  0
   -7.2835   -1.0486   -2.3375 H   0  0  0  0  0  0  0  0  0  0  0  0
   -6.2963   -1.1583    1.7327 H   0  0  0  0  0  0  0  0  0  0  0  0
   -8.3174   -0.6094    0.9252 H   0  0  0  0  0  0  0  0  0  0  0  0
   -7.9654    1.1477    0.9584 H   0  0  0  0  0  0  0  0  0  0  0  0
   -1.4967   -0.2725   -1.4217 H   0  0  0  0  0  0  0  0  0  0  0  0
   -0.9265   -1.2820    0.8892 H   0  0  0  0  0  0  0  0  0  0  0  0
   -1.6065    0.3108    1.5196 H   0  0  0  0  0  0  0  0  0  0  0  0
   -1.8558    2.2521   -1.3550 H   0  0  0  0  0  0  0  0  0  0  0  0
   -2.2360    1.9990    0.4511 H   0  0  0  0  0  0  0  0  0  0  0  0
   -3.2841   -1.6614    1.2239 H   0  0  0  0  0  0  0  0  0  0  0  0
   -2.8850   -1.5206   -0.5511 H   0  0  0  0  0  0  0  0  0  0  0  0
   -3.3325    0.2981   -1.7769 H   0  0  0  0  0  0  0  0  0  0  0  0
   -4.1958    1.8178   -1.1267 H   0  0  0  0  0  0  0  0  0  0  0  0
   -3.8883    0.7965    1.1708 H   0  0  0  0  0  0  0  0  0  0  0  0
   -5.4479    0.4188    2.9091 H   0  0  0  0  0  0  0  0  0  0  0  0
    0.5353    1.3424    1.2525 H   0  0  0  0  0  0  0  0  0  0  0  0
    1.1761   -0.8918   -1.4505 H   0  0  0  0  0  0  0  0  0  0  0  0
    1.1657   -0.7193    0.3953 H   0  0  0  0  0  0  0  0  0  0  0  0
    2.8457    0.8346   -1.5679 H   0  0  0  0  0  0  0  0  0  0  0  0
   -0.0645    3.5379    0.8806 H   0  0  0  0  0  0  0  0  0  0  0  0
    3.7003   -0.8099    0.1518 H   0  0  0  0  0  0  0  0  0  0  0  0
    2.8565    0.0965    1.4365 H   0  0  0  0  0  0  0  0  0  0  0  0
    4.1651    1.9864    1.0147 H   0  0  0  0  0  0  0  0  0  0  0  0
    6.0562    2.1419   -0.1842 H   0  0  0  0  0  0  0  0  0  0  0  0
    8.2335   -2.2328    1.7167 H   0  0  0  0  0  0  0  0  0  0  0  0
    7.2068    0.3282   -1.2886 H   0  0  0  0  0  0  0  0  0  0  0  0
    7.2151   -3.1480   -0.1617 H   0  0  0  0  0  0  0  0  0  0  0  0
    7.9227   -1.9756   -1.3171 H   0  0  0  0  0  0  0  0  0  0  0  0
    5.6942   -1.4794    0.6966 H   0  0  0  0  0  0  0  0  0  0  0  0
    5.5283   -1.6465   -1.1434 H   0  0  0  0  0  0  0  0  0  0  0  0
    5.1196    0.4203   -2.1416 H   0  0  0  0  0  0  0  0  0  0  0  0
  1  2  1  0
  1  3  1  0
  2  4  1  0
  3  5  1  0
  4  6  1  0
  5  6  1  0
  7  8  1  0
  7  9  1  0
  8 10  1  0
  9 11  1  0
  2 12  1  0
 10 12  1  0
 11 12  1  0
  4 13  1  0
  7 14  1  0
 14 15  1  0
 14 16  1  0
 15 17  1  0
 16 18  1  0
 17 18  1  0
 15 19  1  0
 18 20  1  0
 20 21  1  0
 21 22  1  0
 23 24  1  0
 22 25  1  0
 23 25  1  0
 24 26  1  0
 25 27  1  0
 26 27  1  0
 22 28  1  0
 24 29  1  0
  1 30  1  0
  1 31  1  0
  3 32  1  0
  3 33  1  0
  4 34  1  0
  6 35  1  0
  6 36  1  0
  7 37  1  0
  8 38  1  0
  8 39  1  0
  9 40  1  0
  9 41  1  0
 10 42  1  0
 10 43  1  0
 11 44  1  0
 11 45  1  0
 12 46  1  0
 13 47  1  0
 15 48  1  0
 16 49  1  0
 16 50  1  0
 18 51  1  6
 19 52  1  0
 20 53  1  0
 20 54  1  0
 21 55  1  0
 22 56  1  0
 24 57  1  0
 25 58  1  0
 26 59  1  0
 26 60  1  0
 27 61  1  0
 27 62  1  0
 28 63  1  0
M  END
>  <PDBID>  (1) 
2W26

>  <PDB ID>  (1) 
2W26

>  <Generic Name>  (1) 
Rivaroxaban

>  <Brand Name>  (1) 
Xarelto

>  <DrugBank ID>  (1) 
DB06228

>  <ATC Codes>  (1) 
B01AF01

>  <Ligand ID>  (1) 
RIV

>  <Target Name>  (1) 
Coagulation factor X

>  <UniProt ID>  (1) 
P00742

>  <PDB ID.1>  (1) 
2W26

>  <Seq. Identity>  (1) 
100%

$$$$
