PDB_DB00218_07
     RDKit          3D

390414  0  0  0  0  0  0  0  0999 V2000
    0.9574    1.8748   -2.0870 F   0  0  0  0  0  0  0  0  0  0  0  0
    0.2666    0.6258    1.5724 O   0  0  0  0  0  0  0  0  0  0  0  0
   -3.7243    2.2516   -1.7340 O   0  0  0  0  0  0  0  0  0  0  0  0
   -6.3373    0.2240    0.4618 O   0  0  0  0  0  0  0  0  0  0  0  0
   -5.8152    2.1440   -0.5568 O   0  0  0  0  0  0  0  0  0  0  0  0
    1.8639    0.1232   -0.6033 N   0  0  0  0  0  0  0  0  0  0  0  0
    4.9847   -1.3516   -0.4206 N   0  0  0  0  0  0  0  0  0  0  0  0
   -2.4935   -1.0730   -0.0453 N   0  0  0  0  0  0  0  0  0  0  0  0
    3.7982    0.5213    0.6829 C   0  0  2  0  0  0  0  0  0  0  0  0
    3.8138   -0.8809    0.2242 C   0  0  1  0  0  0  0  0  0  0  0  0
    2.5446    1.1433    0.0375 C   0  0  0  0  0  0  0  0  0  0  0  0
    2.6463   -1.0385   -0.7613 C   0  0  0  0  0  0  0  0  0  0  0  0
    5.0071    1.3314    0.4722 C   0  0  0  0  0  0  0  0  0  0  0  0
   -1.9672   -2.0342   -0.8794 C   0  0  0  0  0  0  0  0  0  0  0  0
    6.1066    0.7218   -0.3075 C   0  0  0  0  0  0  0  0  0  0  0  0
   -2.6763   -3.4247   -0.7675 C   0  0  0  0  0  0  0  0  0  0  0  0
   -1.2457   -3.2645   -0.5053 C   0  0  0  0  0  0  0  0  0  0  0  0
    6.2067   -0.7470    0.0690 C   0  0  0  0  0  0  0  0  0  0  0  0
    0.4799    0.0174   -0.6733 C   0  0  1  0  0  0  0  0  0  0  0  0
   -1.7670    0.0190    0.4458 C   0  0  1  0  0  0  0  0  0  0  0  0
   -0.2863   -0.1540    0.5974 C   0  0  2  0  0  0  0  0  0  0  0  0
   -2.1639    1.2748   -0.2755 C   0  0  0  0  0  0  0  0  0  0  0  0
   -0.0758    1.1123   -1.5586 C   0  0  0  0  0  0  0  0  0  0  0  0
   -3.9007   -0.9513    0.0810 C   0  0  0  0  0  0  0  0  0  0  0  0
   -0.9964    2.0395   -0.8368 C   0  0  0  0  0  0  0  0  0  0  0  0
   -4.3592    0.2198   -0.7701 C   0  0  2  0  0  0  0  0  0  0  0  0
   -3.2050    0.9949   -1.3437 C   0  0  0  0  0  0  0  0  0  0  0  0
   -5.2641    1.0620    0.0860 C   0  0  0  0  0  0  0  0  0  0  0  0
    0.7926    0.0277    2.6677 C   0  0  0  0  0  0  0  0  0  0  0  0
    1.0591    2.6293   -1.0703 F   0  0  0  0  0  0  0  0  0  0  0  0
   -0.4637    0.6852    0.9418 O   0  0  0  0  0  0  0  0  0  0  0  0
   -3.5847    2.4274   -1.4350 O   0  0  0  0  0  0  0  0  0  0  0  0
   -6.0543    0.5531    0.9645 O   0  0  0  0  0  0  0  0  0  0  0  0
   -6.0530    1.8468   -0.9269 O   0  0  0  0  0  0  0  0  0  0  0  0
    2.1065    0.2106   -0.7555 N   0  0  0  0  0  0  0  0  0  0  0  0
    5.0801   -1.3091   -0.3603 N   0  0  0  0  0  0  0  0  0  0  0  0
   -2.4733   -1.0870   -0.0325 N   0  0  0  0  0  0  0  0  0  0  0  0
    3.7721    0.3415    0.9353 C   0  0  2  0  0  0  0  0  0  0  0  0
    3.8669   -0.9891    0.3201 C   0  0  1  0  0  0  0  0  0  0  0  0
    2.5848    1.0446    0.2643 C   0  0  0  0  0  0  0  0  0  0  0  0
    2.7251   -1.0731   -0.6792 C   0  0  0  0  0  0  0  0  0  0  0  0
    4.9909    1.1765    0.9755 C   0  0  0  0  0  0  0  0  0  0  0  0
   -2.6931   -2.4369    0.2102 C   0  0  0  0  0  0  0  0  0  0  0  0
    6.1014    0.7780    0.0747 C   0  0  0  0  0  0  0  0  0  0  0  0
   -1.7636   -3.3834    0.9054 C   0  0  0  0  0  0  0  0  0  0  0  0
   -1.8488   -3.4253   -0.6022 C   0  0  0  0  0  0  0  0  0  0  0  0
    6.2659   -0.7345    0.2140 C   0  0  0  0  0  0  0  0  0  0  0  0
    0.7459    0.2446   -1.1190 C   0  0  1  0  0  0  0  0  0  0  0  0
   -1.5229   -0.5401   -0.8658 C   0  0  0  0  0  0  0  0  0  0  0  0
   -0.2602   -0.1850   -0.0912 C   0  0  2  0  0  0  0  0  0  0  0  0
   -1.9717    0.6660   -1.6641 C   0  0  2  0  0  0  0  0  0  0  0  0
    0.3459    1.6066   -1.6318 C   0  0  0  0  0  0  0  0  0  0  0  0
   -3.4059   -0.1856    0.5837 C   0  0  0  0  0  0  0  0  0  0  0  0
   -1.1179    1.8840   -1.3706 C   0  0  0  0  0  0  0  0  0  0  0  0
   -4.2372    0.3718   -0.5508 C   0  0  2  0  0  0  0  0  0  0  0  0
   -3.3984    1.0287   -1.5815 C   0  0  0  0  0  0  0  0  0  0  0  0
   -5.2594    1.3085    0.0647 C   0  0  0  0  0  0  0  0  0  0  0  0
   -0.2734    0.0925    2.2104 C   0  0  0  0  0  0  0  0  0  0  0  0
    0.9161    3.3281   -1.3165 F   0  0  0  0  0  0  0  0  0  0  0  0
   -0.6569    0.9400    1.4139 O   0  0  0  0  0  0  0  0  0  0  0  0
   -3.8908    2.4583   -1.3810 O   0  0  0  0  0  0  0  0  0  0  0  0
   -6.4023   -0.5725   -0.4979 O   0  0  0  0  0  0  0  0  0  0  0  0
   -5.5091    0.7778    1.0595 O   0  0  0  0  0  0  0  0  0  0  0  0
    1.9982    0.4485   -0.9565 N   0  0  0  0  0  0  0  0  0  0  0  0
    4.7289   -1.4395   -0.5662 N   0  0  0  0  0  0  0  0  0  0  0  0
   -2.1306   -0.9623    0.0827 N   0  0  0  0  0  0  0  0  0  0  0  0
    3.7275    0.5261    0.5228 C   0  0  2  0  0  0  0  0  0  0  0  0
    3.6067   -0.9312    0.1550 C   0  0  1  0  0  0  0  0  0  0  0  0
    3.2735    1.1160   -0.8202 C   0  0  0  0  0  0  0  0  0  0  0  0
    2.3509   -0.8694   -0.7342 C   0  0  0  0  0  0  0  0  0  0  0  0
    5.1058    0.9605    0.8836 C   0  0  0  0  0  0  0  0  0  0  0  0
   -1.6965   -2.3383   -0.2226 C   0  0  0  0  0  0  0  0  0  0  0  0
    6.1667    0.3942   -0.0362 C   0  0  0  0  0  0  0  0  0  0  0  0
   -2.6104   -3.4580    0.2316 C   0  0  0  0  0  0  0  0  0  0  0  0
   -1.2058   -3.2591    0.7880 C   0  0  0  0  0  0  0  0  0  0  0  0
    5.9979   -1.1137   -0.0147 C   0  0  0  0  0  0  0  0  0  0  0  0
    0.9112    1.1006   -0.3752 C   0  0  2  0  0  0  0  0  0  0  0  0
   -1.2989   -0.0811   -0.6716 C   0  0  2  0  0  0  0  0  0  0  0  0
   -0.1682    0.3186    0.2822 C   0  0  0  0  0  0  0  0  0  0  0  0
   -1.9587    1.1134   -1.2866 C   0  0  2  0  0  0  0  0  0  0  0  0
    0.3298    2.0789   -1.4165 C   0  0  0  0  0  0  0  0  0  0  0  0
   -3.5220   -0.9385   -0.1073 C   0  0  0  0  0  0  0  0  0  0  0  0
   -1.1302    2.3646   -1.1644 C   0  0  0  0  0  0  0  0  0  0  0  0
   -4.1376    0.2025   -0.8178 C   0  0  0  0  0  0  0  0  0  0  0  0
   -3.2969    1.4337   -0.6458 C   0  0  0  0  0  0  0  0  0  0  0  0
   -5.5336    0.5218   -0.3269 C   0  0  0  0  0  0  0  0  0  0  0  0
   -0.5831    0.2856    2.5871 C   0  0  0  0  0  0  0  0  0  0  0  0
    0.8973    2.5660   -1.4579 F   0  0  0  0  0  0  0  0  0  0  0  0
   -0.1829    0.2551    1.9952 O   0  0  0  0  0  0  0  0  0  0  0  0
   -3.9911    1.7918   -2.0485 O   0  0  0  0  0  0  0  0  0  0  0  0
   -6.3339    0.0321    0.5374 O   0  0  0  0  0  0  0  0  0  0  0  0
   -5.7222    1.8615   -0.7151 O   0  0  0  0  0  0  0  0  0  0  0  0
    1.7915    0.4390    0.2172 N   0  0  0  0  0  0  0  0  0  0  0  0
    4.8298   -1.1157   -0.5187 N   0  0  0  0  0  0  0  0  0  0  0  0
   -2.4659   -1.2686    0.1522 N   0  0  0  0  0  0  0  0  0  0  0  0
    3.9659    0.8147    0.7404 C   0  0  2  0  0  0  0  0  0  0  0  0
    3.8210   -0.6014    0.3380 C   0  0  1  0  0  0  0  0  0  0  0  0
    2.7157    1.4966    0.1568 C   0  0  0  0  0  0  0  0  0  0  0  0
    2.5086   -0.6596   -0.4172 C   0  0  0  0  0  0  0  0  0  0  0  0
    5.2039    1.5151    0.3961 C   0  0  0  0  0  0  0  0  0  0  0  0
   -1.7946   -2.0668   -0.8034 C   0  0  0  0  0  0  0  0  0  0  0  0
    6.1885    0.8170   -0.4766 C   0  0  0  0  0  0  0  0  0  0  0  0
   -2.3678   -3.4764   -0.9250 C   0  0  0  0  0  0  0  0  0  0  0  0
   -0.9386   -3.2216   -0.4401 C   0  0  0  0  0  0  0  0  0  0  0  0
    6.1616   -0.6636   -0.1362 C   0  0  0  0  0  0  0  0  0  0  0  0
    0.4890    0.5979   -0.2757 C   0  0  1  0  0  0  0  0  0  0  0  0
   -1.8843    0.0496    0.4105 C   0  0  1  0  0  0  0  0  0  0  0  0
   -0.4532   -0.1332    0.6716 C   0  0  2  0  0  0  0  0  0  0  0  0
   -2.3220    1.1031   -0.5295 C   0  0  0  0  0  0  0  0  0  0  0  0
    0.0074    1.9933   -0.5512 C   0  0  2  0  0  0  0  0  0  0  0  0
   -3.8944   -1.2393    0.0431 C   0  0  0  0  0  0  0  0  0  0  0  0
   -1.2857    1.8303   -1.3024 C   0  0  0  0  0  0  0  0  0  0  0  0
   -4.4170   -0.1562   -0.8620 C   0  0  2  0  0  0  0  0  0  0  0  0
   -3.3556    0.6252   -1.5570 C   0  0  0  0  0  0  0  0  0  0  0  0
   -5.2811    0.7709   -0.0054 C   0  0  0  0  0  0  0  0  0  0  0  0
    0.4341   -0.7116    2.7467 C   0  0  0  0  0  0  0  0  0  0  0  0
    1.1240    2.5444   -1.2200 F   0  0  0  0  0  0  0  0  0  0  0  0
   -0.5858    0.7477    0.9619 O   0  0  0  0  0  0  0  0  0  0  0  0
   -3.5621    2.3568   -1.6095 O   0  0  0  0  0  0  0  0  0  0  0  0
   -6.0055    0.8502    0.9968 O   0  0  0  0  0  0  0  0  0  0  0  0
   -5.8685    2.1655   -0.8407 O   0  0  0  0  0  0  0  0  0  0  0  0
    2.0670    0.1546   -0.5433 N   0  0  0  0  0  0  0  0  0  0  0  0
    5.1562   -1.3924   -0.3503 N   0  0  0  0  0  0  0  0  0  0  0  0
   -2.5178   -1.1143    0.0132 N   0  0  0  0  0  0  0  0  0  0  0  0
    3.8077    0.2320    0.9514 C   0  0  2  0  0  0  0  0  0  0  0  0
    3.9074   -1.0196    0.1947 C   0  0  1  0  0  0  0  0  0  0  0  0
    2.5875    0.9816    0.4220 C   0  0  0  0  0  0  0  0  0  0  0  0
    2.9179   -0.8833   -0.9562 C   0  0  0  0  0  0  0  0  0  0  0  0
    4.9976    1.1091    0.9934 C   0  0  0  0  0  0  0  0  0  0  0  0
   -2.6730   -2.4869    0.2378 C   0  0  0  0  0  0  0  0  0  0  0  0
    6.0981    0.7409    0.0409 C   0  0  0  0  0  0  0  0  0  0  0  0
   -1.7724   -3.4198    0.9071 C   0  0  0  0  0  0  0  0  0  0  0  0
   -1.8487   -3.4621   -0.6004 C   0  0  0  0  0  0  0  0  0  0  0  0
    6.3112   -0.7691    0.2217 C   0  0  0  0  0  0  0  0  0  0  0  0
    0.7454    0.1706   -0.9710 C   0  0  1  0  0  0  0  0  0  0  0  0
   -1.5526   -0.5716   -0.8041 C   0  0  0  0  0  0  0  0  0  0  0  0
   -0.3027   -0.2029    0.0345 C   0  0  0  0  0  0  0  0  0  0  0  0
   -1.9761    0.6138   -1.6434 C   0  0  2  0  0  0  0  0  0  0  0  0
    0.3664    1.4790   -1.6420 C   0  0  0  0  0  0  0  0  0  0  0  0
   -3.5168   -0.2696    0.5586 C   0  0  0  0  0  0  0  0  0  0  0  0
   -1.0904    1.8231   -1.4151 C   0  0  0  0  0  0  0  0  0  0  0  0
   -4.2706    0.3895   -0.5635 C   0  0  2  0  0  0  0  0  0  0  0  0
   -3.4074    0.9689   -1.6368 C   0  0  0  0  0  0  0  0  0  0  0  0
   -5.1434    1.4645    0.0947 C   0  0  0  0  0  0  0  0  0  0  0  0
   -0.5164    0.3006    2.2787 C   0  0  0  0  0  0  0  0  0  0  0  0
    0.8622    1.8895    1.8771 F   0  0  0  0  0  0  0  0  0  0  0  0
    0.2122    0.3729   -2.2048 O   0  0  0  0  0  0  0  0  0  0  0  0
   -3.5892    2.0489    1.6045 O   0  0  0  0  0  0  0  0  0  0  0  0
   -6.0553    0.2874    0.7400 O   0  0  0  0  0  0  0  0  0  0  0  0
   -5.6275    2.5377    0.3785 O   0  0  0  0  0  0  0  0  0  0  0  0
    2.0335    0.1149   -0.2989 N   0  0  0  0  0  0  0  0  0  0  0  0
    4.9624   -1.3703   -0.3942 N   0  0  0  0  0  0  0  0  0  0  0  0
   -2.5790   -0.7683   -1.1327 N   0  0  0  0  0  0  0  0  0  0  0  0
    3.9244    0.3016    1.0714 C   0  0  2  0  0  0  0  0  0  0  0  0
    3.9203   -1.0671    0.5308 C   0  0  1  0  0  0  0  0  0  0  0  0
    2.9934    1.0525    0.1132 C   0  0  0  0  0  0  0  0  0  0  0  0
    2.5844   -1.1904   -0.2050 C   0  0  0  0  0  0  0  0  0  0  0  0
    5.2408    0.9996    1.1512 C   0  0  0  0  0  0  0  0  0  0  0  0
   -2.3591   -2.1526   -1.0574 C   0  0  0  0  0  0  0  0  0  0  0  0
    6.2550    0.5521    0.1286 C   0  0  0  0  0  0  0  0  0  0  0  0
   -3.0841   -3.1130   -0.1933 C   0  0  0  0  0  0  0  0  0  0  0  0
   -1.7615   -2.6524    0.2827 C   0  0  0  0  0  0  0  0  0  0  0  0
    6.2639   -0.9688    0.1328 C   0  0  0  0  0  0  0  0  0  0  0  0
    0.6782    0.2615    0.1519 C   0  0  0  0  0  0  0  0  0  0  0  0
   -1.6512    0.1923   -0.7784 C   0  0  2  0  0  0  0  0  0  0  0  0
   -0.2027   -0.1622   -0.9634 C   0  0  1  0  0  0  0  0  0  0  0  0
   -1.8358    0.7407    0.6027 C   0  0  0  0  0  0  0  0  0  0  0  0
    0.4113    1.6783    0.6021 C   0  0  0  0  0  0  0  0  0  0  0  0
   -3.9461   -0.3655   -1.1492 C   0  0  0  0  0  0  0  0  0  0  0  0
   -1.0473    2.0492    0.5820 C   0  0  0  0  0  0  0  0  0  0  0  0
   -4.0946    0.9679   -0.4811 C   0  0  0  0  0  0  0  0  0  0  0  0
   -3.3020    0.9486    0.8302 C   0  0  2  0  0  0  0  0  0  0  0  0
   -5.5489    1.2553   -0.1343 C   0  0  0  0  0  0  0  0  0  0  0  0
    0.3397   -0.5930   -3.1875 C   0  0  0  0  0  0  0  0  0  0  0  0
   -3.6328    2.8828   -0.9618 H   0  0  0  0  0  0  0  0  0  0  0  0
   -6.9596    0.7093    1.0546 H   0  0  0  0  0  0  0  0  0  0  0  0
   -6.1308    2.7699    0.1655 H   0  0  0  0  0  0  0  0  0  0  0  0
    4.9522   -1.3086   -1.4648 H   0  0  0  0  0  0  0  0  0  0  0  0
    3.5910    0.5336    1.7881 H   0  0  0  0  0  0  0  0  0  0  0  0
    3.5663   -1.6085    1.0545 H   0  0  0  0  0  0  0  0  0  0  0  0
    2.9881    1.8183   -0.7612 H   0  0  0  0  0  0  0  0  0  0  0  0
    2.0313    1.8274    0.7067 H   0  0  0  0  0  0  0  0  0  0  0  0
    3.0727   -1.0364   -1.8076 H   0  0  0  0  0  0  0  0  0  0  0  0
    2.1358   -1.9961   -0.6506 H   0  0  0  0  0  0  0  0  0  0  0  0
    4.6968    2.2785   -0.0604 H   0  0  0  0  0  0  0  0  0  0  0  0
    5.4653    1.7225    1.4321 H   0  0  0  0  0  0  0  0  0  0  0  0
   -1.8650   -1.7310   -1.9654 H   0  0  0  0  0  0  0  0  0  0  0  0
    7.0832    1.1971   -0.0383 H   0  0  0  0  0  0  0  0  0  0  0  0
    5.9008    0.8602   -1.3822 H   0  0  0  0  0  0  0  0  0  0  0  0
   -3.0903   -3.8630   -1.6747 H   0  0  0  0  0  0  0  0  0  0  0  0
   -3.3248   -3.5787    0.1213 H   0  0  0  0  0  0  0  0  0  0  0  0
   -0.5471   -3.7185   -1.2698 H   0  0  0  0  0  0  0  0  0  0  0  0
   -0.8815   -3.4544    0.5212 H   0  0  0  0  0  0  0  0  0  0  0  0
    7.0585   -1.2399   -0.3994 H   0  0  0  0  0  0  0  0  0  0  0  0
    6.1824   -0.8260    1.1768 H   0  0  0  0  0  0  0  0  0  0  0  0
    0.2826   -0.9344   -1.2716 H   0  0  0  0  0  0  0  0  0  0  0  0
   -2.1367    0.1509    1.5137 H   0  0  0  0  0  0  0  0  0  0  0  0
   -0.1619   -1.2146    0.9301 H   0  0  0  0  0  0  0  0  0  0  0  0
   -2.6818    2.0162    0.4087 H   0  0  0  0  0  0  0  0  0  0  0  0
   -0.6349    0.7313   -2.4401 H   0  0  0  0  0  0  0  0  0  0  0  0
   -4.1398   -0.7907    1.1525 H   0  0  0  0  0  0  0  0  0  0  0  0
   -4.4249   -1.8756   -0.2257 H   0  0  0  0  0  0  0  0  0  0  0  0
   -0.4971    2.6443   -0.0534 H   0  0  0  0  0  0  0  0  0  0  0  0
   -1.4127    2.7507   -1.5958 H   0  0  0  0  0  0  0  0  0  0  0  0
   -4.9982   -0.1735   -1.6066 H   0  0  0  0  0  0  0  0  0  0  0  0
   -2.7816    0.5451   -2.2475 H   0  0  0  0  0  0  0  0  0  0  0  0
   -4.7723    1.3344    1.0656 H   0  0  0  0  0  0  0  0  0  0  0  0
    1.1904    0.8610    3.3140 H   0  0  0  0  0  0  0  0  0  0  0  0
    0.0285   -0.4472    3.3413 H   0  0  0  0  0  0  0  0  0  0  0  0
    1.6573   -0.6454    2.5021 H   0  0  0  0  0  0  0  0  0  0  0  0
   -3.2948    2.6715   -0.5302 H   0  0  0  0  0  0  0  0  0  0  0  0
   -6.9533    0.9531    0.9488 H   0  0  0  0  0  0  0  0  0  0  0  0
   -6.2019    2.7914   -0.6958 H   0  0  0  0  0  0  0  0  0  0  0  0
    5.0467   -1.2170   -1.3941 H   0  0  0  0  0  0  0  0  0  0  0  0
    3.4317    0.2025    2.0062 H   0  0  0  0  0  0  0  0  0  0  0  0
    3.6895   -1.8266    1.0608 H   0  0  0  0  0  0  0  0  0  0  0  0
    3.0731    1.9424   -0.2388 H   0  0  0  0  0  0  0  0  0  0  0  0
    1.8898    1.4792    0.9728 H   0  0  0  0  0  0  0  0  0  0  0  0
    3.1036   -1.2990   -1.7203 H   0  0  0  0  0  0  0  0  0  0  0  0
    2.0098   -1.8673   -0.4340 H   0  0  0  0  0  0  0  0  0  0  0  0
    4.6945    2.2273    0.6887 H   0  0  0  0  0  0  0  0  0  0  0  0
    5.4180    1.2983    2.0120 H   0  0  0  0  0  0  0  0  0  0  0  0
   -3.7646   -2.8246    0.2579 H   0  0  0  0  0  0  0  0  0  0  0  0
    7.0202    1.3166    0.3611 H   0  0  0  0  0  0  0  0  0  0  0  0
    5.8929    0.9570   -0.9967 H   0  0  0  0  0  0  0  0  0  0  0  0
   -2.1994   -4.2910    1.4184 H   0  0  0  0  0  0  0  0  0  0  0  0
   -0.8401   -3.0696    1.3912 H   0  0  0  0  0  0  0  0  0  0  0  0
   -2.3584   -4.2867   -1.0986 H   0  0  0  0  0  0  0  0  0  0  0  0
   -0.9299   -3.1314   -1.0991 H   0  0  0  0  0  0  0  0  0  0  0  0
    7.1366   -1.0825   -0.3342 H   0  0  0  0  0  0  0  0  0  0  0  0
    6.3075   -1.0045    1.2917 H   0  0  0  0  0  0  0  0  0  0  0  0
    0.6259   -0.4725   -1.9867 H   0  0  0  0  0  0  0  0  0  0  0  0
   -1.1653   -1.3157   -1.6014 H   0  0  0  0  0  0  0  0  0  0  0  0
    0.0422   -1.1637    0.3899 H   0  0  0  0  0  0  0  0  0  0  0  0
   -1.7318    0.4467   -2.7395 H   0  0  0  0  0  0  0  0  0  0  0  0
    0.5240    1.6470   -2.7263 H   0  0  0  0  0  0  0  0  0  0  0  0
   -2.9097    0.6628    1.0771 H   0  0  0  0  0  0  0  0  0  0  0  0
   -4.0417   -0.7476    1.2749 H   0  0  0  0  0  0  0  0  0  0  0  0
   -1.3057    2.3594   -0.4129 H   0  0  0  0  0  0  0  0  0  0  0  0
   -1.4155    2.6394   -2.1498 H   0  0  0  0  0  0  0  0  0  0  0  0
   -4.8668   -0.4518   -1.0109 H   0  0  0  0  0  0  0  0  0  0  0  0
   -3.9224    0.8352   -2.5739 H   0  0  0  0  0  0  0  0  0  0  0  0
   -4.7927    2.0891    0.6890 H   0  0  0  0  0  0  0  0  0  0  0  0
    0.7689   -0.2794    2.1922 H   0  0  0  0  0  0  0  0  0  0  0  0
   -0.2485    0.9354    2.9665 H   0  0  0  0  0  0  0  0  0  0  0  0
   -0.9957   -0.6702    2.4599 H   0  0  0  0  0  0  0  0  0  0  0  0
   -3.4298    2.6533   -2.2246 H   0  0  0  0  0  0  0  0  0  0  0  0
   -7.2133   -0.3756    0.0242 H   0  0  0  0  0  0  0  0  0  0  0  0
   -5.7719    1.6934    1.2749 H   0  0  0  0  0  0  0  0  0  0  0  0
    4.6752   -1.1661   -1.5772 H   0  0  0  0  0  0  0  0  0  0  0  0
    3.0291    0.7451    1.3311 H   0  0  0  0  0  0  0  0  0  0  0  0
    3.4537   -1.4949    1.0727 H   0  0  0  0  0  0  0  0  0  0  0  0
    3.9588    0.7480   -1.6022 H   0  0  0  0  0  0  0  0  0  0  0  0
    3.2673    2.1717   -0.7375 H   0  0  0  0  0  0  0  0  0  0  0  0
    2.6711   -1.3013   -1.7359 H   0  0  0  0  0  0  0  0  0  0  0  0
    1.6854   -1.5961   -0.3196 H   0  0  0  0  0  0  0  0  0  0  0  0
    5.1254    2.0752    0.8693 H   0  0  0  0  0  0  0  0  0  0  0  0
    5.3020    0.6491    1.9247 H   0  0  0  0  0  0  0  0  0  0  0  0
   -1.3124   -2.4809   -1.2551 H   0  0  0  0  0  0  0  0  0  0  0  0
    7.1418    0.7040    0.3993 H   0  0  0  0  0  0  0  0  0  0  0  0
    6.0041    0.8324   -1.0397 H   0  0  0  0  0  0  0  0  0  0  0  0
   -3.4699   -3.2073    0.8696 H   0  0  0  0  0  0  0  0  0  0  0  0
   -2.7765   -4.3165   -0.4639 H   0  0  0  0  0  0  0  0  0  0  0  0
   -0.4386   -4.0293    0.4729 H   0  0  0  0  0  0  0  0  0  0  0  0
   -1.2032   -3.1107    1.8684 H   0  0  0  0  0  0  0  0  0  0  0  0
    6.7877   -1.5880   -0.6418 H   0  0  0  0  0  0  0  0  0  0  0  0
    6.0266   -1.4507    1.0331 H   0  0  0  0  0  0  0  0  0  0  0  0
    1.3244    1.7923    0.4074 H   0  0  0  0  0  0  0  0  0  0  0  0
   -0.8960   -0.6694   -1.5224 H   0  0  0  0  0  0  0  0  0  0  0  0
    0.2014   -0.6436    0.6253 H   0  0  0  0  0  0  0  0  0  0  0  0
   -2.1758    0.9816   -2.3625 H   0  0  0  0  0  0  0  0  0  0  0  0
    0.4075    1.6696   -2.4447 H   0  0  0  0  0  0  0  0  0  0  0  0
   -4.0112   -0.9911    0.9162 H   0  0  0  0  0  0  0  0  0  0  0  0
   -3.9148   -1.8813   -0.5959 H   0  0  0  0  0  0  0  0  0  0  0  0
   -1.3011    2.8951   -0.2016 H   0  0  0  0  0  0  0  0  0  0  0  0
   -1.4422    3.0877   -1.9517 H   0  0  0  0  0  0  0  0  0  0  0  0
   -4.2100   -0.0492   -1.8968 H   0  0  0  0  0  0  0  0  0  0  0  0
   -3.1949    1.6912    0.4190 H   0  0  0  0  0  0  0  0  0  0  0  0
   -5.9106    1.4394   -0.8011 H   0  0  0  0  0  0  0  0  0  0  0  0
    0.4352    0.0079    2.9395 H   0  0  0  0  0  0  0  0  0  0  0  0
   -1.0759    0.7929    3.4422 H   0  0  0  0  0  0  0  0  0  0  0  0
   -1.1301   -0.6836    2.4800 H   0  0  0  0  0  0  0  0  0  0  0  0
   -3.6735    2.6096   -1.6158 H   0  0  0  0  0  0  0  0  0  0  0  0
   -6.9163    0.6619    1.0087 H   0  0  0  0  0  0  0  0  0  0  0  0
   -5.9335    2.5892   -0.0529 H   0  0  0  0  0  0  0  0  0  0  0  0
    4.6410   -0.9615   -1.5378 H   0  0  0  0  0  0  0  0  0  0  0  0
    3.8036    0.8724    1.8495 H   0  0  0  0  0  0  0  0  0  0  0  0
    3.7097   -1.3058    1.1924 H   0  0  0  0  0  0  0  0  0  0  0  0
    2.9701    1.8189   -0.8894 H   0  0  0  0  0  0  0  0  0  0  0  0
    2.4293    2.3382    0.8093 H   0  0  0  0  0  0  0  0  0  0  0  0
    2.6413   -0.4506   -1.4993 H   0  0  0  0  0  0  0  0  0  0  0  0
    1.9782   -1.6250   -0.2908 H   0  0  0  0  0  0  0  0  0  0  0  0
    4.9296    2.4899   -0.1040 H   0  0  0  0  0  0  0  0  0  0  0  0
    5.7582    1.8628    1.3162 H   0  0  0  0  0  0  0  0  0  0  0  0
   -1.5421   -1.6485   -1.8187 H   0  0  0  0  0  0  0  0  0  0  0  0
    7.2204    1.1637   -0.2375 H   0  0  0  0  0  0  0  0  0  0  0  0
    5.9758    0.9143   -1.5539 H   0  0  0  0  0  0  0  0  0  0  0  0
   -2.4227   -3.9657   -1.8937 H   0  0  0  0  0  0  0  0  0  0  0  0
   -3.0984   -3.8432   -0.1814 H   0  0  0  0  0  0  0  0  0  0  0  0
   -0.0891   -3.4986   -1.1099 H   0  0  0  0  0  0  0  0  0  0  0  0
   -0.7809   -3.5652    0.5889 H   0  0  0  0  0  0  0  0  0  0  0  0
    6.9194   -1.2197   -0.7139 H   0  0  0  0  0  0  0  0  0  0  0  0
    6.2710   -0.8392    0.9355 H   0  0  0  0  0  0  0  0  0  0  0  0
    0.4253    0.0594   -1.2552 H   0  0  0  0  0  0  0  0  0  0  0  0
   -2.3783    0.3152    1.4050 H   0  0  0  0  0  0  0  0  0  0  0  0
   -0.1650   -1.2094    0.6273 H   0  0  0  0  0  0  0  0  0  0  0  0
   -2.9046    1.9219    0.0097 H   0  0  0  0  0  0  0  0  0  0  0  0
   -0.0417    2.6564    0.3108 H   0  0  0  0  0  0  0  0  0  0  0  0
   -4.2834   -1.1679    1.0907 H   0  0  0  0  0  0  0  0  0  0  0  0
   -4.2302   -2.1887   -0.3586 H   0  0  0  0  0  0  0  0  0  0  0  0
   -1.0581    1.3110   -2.2613 H   0  0  0  0  0  0  0  0  0  0  0  0
   -1.6290    2.8756   -1.5413 H   0  0  0  0  0  0  0  0  0  0  0  0
   -5.1188   -0.5602   -1.6299 H   0  0  0  0  0  0  0  0  0  0  0  0
   -2.9141    0.1632   -2.4388 H   0  0  0  0  0  0  0  0  0  0  0  0
   -4.6270    1.0633    0.8678 H   0  0  0  0  0  0  0  0  0  0  0  0
   -0.0563   -1.6974    2.7975 H   0  0  0  0  0  0  0  0  0  0  0  0
    1.5181   -0.8343    2.5946 H   0  0  0  0  0  0  0  0  0  0  0  0
    0.3480   -0.3513    3.8406 H   0  0  0  0  0  0  0  0  0  0  0  0
   -3.2490    2.7957   -0.8037 H   0  0  0  0  0  0  0  0  0  0  0  0
   -6.8845    1.3313    0.9474 H   0  0  0  0  0  0  0  0  0  0  0  0
   -5.9520    3.0935   -0.5031 H   0  0  0  0  0  0  0  0  0  0  0  0
    5.2004   -1.4019   -1.3906 H   0  0  0  0  0  0  0  0  0  0  0  0
    3.5396   -0.0199    2.0221 H   0  0  0  0  0  0  0  0  0  0  0  0
    3.5307   -1.8991    0.7933 H   0  0  0  0  0  0  0  0  0  0  0  0
    3.0225    1.8977   -0.0895 H   0  0  0  0  0  0  0  0  0  0  0  0
    1.9143    1.3111    1.2144 H   0  0  0  0  0  0  0  0  0  0  0  0
    3.4478   -0.5897   -1.8854 H   0  0  0  0  0  0  0  0  0  0  0  0
    2.4188   -1.8530   -1.1645 H   0  0  0  0  0  0  0  0  0  0  0  0
    4.6746    2.1604    0.7345 H   0  0  0  0  0  0  0  0  0  0  0  0
    5.4513    1.1708    2.0025 H   0  0  0  0  0  0  0  0  0  0  0  0
   -3.7764   -2.8262    0.2369 H   0  0  0  0  0  0  0  0  0  0  0  0
    6.9987    1.3072    0.2973 H   0  0  0  0  0  0  0  0  0  0  0  0
    5.7825    0.9504   -1.0115 H   0  0  0  0  0  0  0  0  0  0  0  0
   -2.2211   -4.3344    1.3897 H   0  0  0  0  0  0  0  0  0  0  0  0
   -0.8560   -3.1244    1.4218 H   0  0  0  0  0  0  0  0  0  0  0  0
   -2.3819   -4.3402   -1.0696 H   0  0  0  0  0  0  0  0  0  0  0  0
   -0.9052   -3.1845   -1.0693 H   0  0  0  0  0  0  0  0  0  0  0  0
    7.1931   -1.1084   -0.3392 H   0  0  0  0  0  0  0  0  0  0  0  0
    6.3891   -0.9772    1.2919 H   0  0  0  0  0  0  0  0  0  0  0  0
    0.6623   -0.6206   -1.7852 H   0  0  0  0  0  0  0  0  0  0  0  0
   -1.1448   -1.3538   -1.4783 H   0  0  0  0  0  0  0  0  0  0  0  0
   -0.0219   -1.1947    0.5000 H   0  0  0  0  0  0  0  0  0  0  0  0
   -1.7213    0.3400   -2.7186 H   0  0  0  0  0  0  0  0  0  0  0  0
    0.5412    1.3881   -2.7302 H   0  0  0  0  0  0  0  0  0  0  0  0
   -3.2032    0.4926    1.2679 H   0  0  0  0  0  0  0  0  0  0  0  0
   -4.2494   -0.9152    1.1060 H   0  0  0  0  0  0  0  0  0  0  0  0
   -1.2886    2.3811   -0.5060 H   0  0  0  0  0  0  0  0  0  0  0  0
   -1.3618    2.5394   -2.2524 H   0  0  0  0  0  0  0  0  0  0  0  0
   -4.9922   -0.3602   -0.9494 H   0  0  0  0  0  0  0  0  0  0  0  0
   -3.9148    0.6806   -2.6154 H   0  0  0  0  0  0  0  0  0  0  0  0
   -4.4505    2.1027    0.6813 H   0  0  0  0  0  0  0  0  0  0  0  0
   -0.7639    1.1765    2.9175 H   0  0  0  0  0  0  0  0  0  0  0  0
    0.4481   -0.0870    2.5936 H   0  0  0  0  0  0  0  0  0  0  0  0
   -1.3528   -0.4303    2.4766 H   0  0  0  0  0  0  0  0  0  0  0  0
   -3.9965    1.7885    2.4674 H   0  0  0  0  0  0  0  0  0  0  0  0
   -6.9256    0.6791    1.0713 H   0  0  0  0  0  0  0  0  0  0  0  0
   -6.1242    2.5822    1.2312 H   0  0  0  0  0  0  0  0  0  0  0  0
    4.8148   -0.8206   -1.2496 H   0  0  0  0  0  0  0  0  0  0  0  0
    3.4529    0.3174    2.0727 H   0  0  0  0  0  0  0  0  0  0  0  0
    3.9523   -1.8288    1.3283 H   0  0  0  0  0  0  0  0  0  0  0  0
    3.6549    1.2772   -0.7852 H   0  0  0  0  0  0  0  0  0  0  0  0
    2.6897    2.0085    0.5173 H   0  0  0  0  0  0  0  0  0  0  0  0
    2.7642   -1.5811   -1.2444 H   0  0  0  0  0  0  0  0  0  0  0  0
    1.9438   -1.9317    0.3043 H   0  0  0  0  0  0  0  0  0  0  0  0
    5.0277    2.0836    0.9058 H   0  0  0  0  0  0  0  0  0  0  0  0
    5.7014    0.9868    2.1392 H   0  0  0  0  0  0  0  0  0  0  0  0
   -1.8659   -2.5886   -1.9566 H   0  0  0  0  0  0  0  0  0  0  0  0
    5.9885    0.8913   -0.8992 H   0  0  0  0  0  0  0  0  0  0  0  0
    7.2556    0.9190    0.4369 H   0  0  0  0  0  0  0  0  0  0  0  0
   -3.9967   -2.8061    0.3540 H   0  0  0  0  0  0  0  0  0  0  0  0
   -3.1354   -4.1737   -0.5229 H   0  0  0  0  0  0  0  0  0  0  0  0
   -0.8781   -3.3406    0.2093 H   0  0  0  0  0  0  0  0  0  0  0  0
   -1.7814   -2.0430    1.1771 H   0  0  0  0  0  0  0  0  0  0  0  0
    7.0715   -1.3853   -0.4787 H   0  0  0  0  0  0  0  0  0  0  0  0
    6.3284   -1.2690    1.2117 H   0  0  0  0  0  0  0  0  0  0  0  0
    0.5594   -0.3838    1.0462 H   0  0  0  0  0  0  0  0  0  0  0  0
   -1.8599    1.0929   -1.4718 H   0  0  0  0  0  0  0  0  0  0  0  0
   -0.1869   -1.2539   -1.0964 H   0  0  0  0  0  0  0  0  0  0  0  0
   -1.4173    0.1451    1.4263 H   0  0  0  0  0  0  0  0  0  0  0  0
    0.9062    2.3840   -0.0887 H   0  0  0  0  0  0  0  0  0  0  0  0
   -4.6436   -1.1072   -0.7070 H   0  0  0  0  0  0  0  0  0  0  0  0
   -4.2469   -0.2352   -2.2083 H   0  0  0  0  0  0  0  0  0  0  0  0
   -1.3697    2.6441    1.4303 H   0  0  0  0  0  0  0  0  0  0  0  0
   -1.3150    2.5651   -0.3573 H   0  0  0  0  0  0  0  0  0  0  0  0
   -3.7673    1.8057   -1.1285 H   0  0  0  0  0  0  0  0  0  0  0  0
   -3.6662    0.0428    1.3588 H   0  0  0  0  0  0  0  0  0  0  0  0
   -6.1162    1.2307   -1.0904 H   0  0  0  0  0  0  0  0  0  0  0  0
   -0.6328   -1.0796   -3.4267 H   0  0  0  0  0  0  0  0  0  0  0  0
    1.0890   -1.3428   -2.8307 H   0  0  0  0  0  0  0  0  0  0  0  0
    0.7280   -0.1202   -4.1014 H   0  0  0  0  0  0  0  0  0  0  0  0
  7 10  1  0
  9 10  1  0
  6 11  1  0
  9 11  1  0
  6 12  1  0
 10 12  1  0
  9 13  1  0
  8 14  1  0
 13 15  1  0
 14 16  1  0
 14 17  1  0
 16 17  1  0
  7 18  1  0
 15 18  1  0
  6 19  1  0
  8 20  1  0
  2 21  1  0
 19 21  1  0
 20 21  1  0
 20 22  1  0
  1 23  1  0
 19 23  1  0
  8 24  1  0
 22 25  1  0
 23 25  1  0
 24 26  1  0
 22 27  1  0
 26 27  1  0
 27  3  1  0
  4 28  1  0
 26 28  1  0
 28  5  1  0
  2 29  1  0
 36 39  1  0
 38 39  1  0
 35 40  1  0
 38 40  1  0
 35 41  1  0
 39 41  1  0
 38 42  1  0
 37 43  1  0
 42 44  1  0
 43 45  1  0
 43 46  1  0
 45 46  1  0
 36 47  1  0
 44 47  1  0
 35 48  1  0
 37 49  1  0
 31 50  1  0
 48 50  1  0
 49 50  1  0
 49 51  1  0
 30 52  1  0
 48 52  1  0
 37 53  1  0
 51 54  1  0
 52 54  1  0
 53 55  1  0
 51 56  1  0
 55 56  1  0
 56 32  1  0
 33 57  1  0
 55 57  1  0
 57 34  1  0
 31 58  1  0
 65 68  1  0
 67 68  1  0
 64 69  1  0
 67 69  1  0
 64 70  1  0
 68 70  1  0
 67 71  1  0
 66 72  1  0
 71 73  1  0
 72 74  1  0
 72 75  1  0
 74 75  1  0
 65 76  1  0
 73 76  1  0
 64 77  1  0
 66 78  1  0
 60 79  1  0
 77 79  1  0
 78 79  1  0
 78 80  1  0
 59 81  1  0
 77 81  1  0
 66 82  1  0
 80 83  1  0
 81 83  1  0
 82 84  1  0
 80 85  1  0
 84 85  1  0
 85 61  1  0
 62 86  1  0
 84 86  1  0
 86 63  1  0
 60 87  1  0
 94 97  1  0
 96 97  1  0
 93 98  1  0
 96 98  1  0
 93 99  1  0
 97 99  1  0
 96100  1  0
 95101  1  0
100102  1  0
101103  1  0
101104  1  0
103104  1  0
 94105  1  0
102105  1  0
 93106  1  0
 95107  1  0
 89108  1  0
106108  1  0
107108  1  0
107109  1  0
 88110  1  0
106110  1  0
 95111  1  0
109112  1  0
110112  1  0
111113  1  0
109114  1  0
113114  1  0
114 90  1  0
 91115  1  0
113115  1  0
115 92  1  0
 89116  1  0
123126  1  0
125126  1  0
122127  1  0
125127  1  0
122128  1  0
126128  1  0
125129  1  0
124130  1  0
129131  1  0
130132  1  0
130133  1  0
132133  1  0
123134  1  0
131134  1  0
122135  1  0
124136  1  0
118137  1  0
135137  1  0
136137  1  0
136138  1  0
117139  1  0
135139  1  0
124140  1  0
138141  1  0
139141  1  0
140142  1  0
138143  1  0
142143  1  0
143119  1  0
120144  1  0
142144  1  0
144121  1  0
118145  1  0
152155  1  0
154155  1  0
151156  1  0
154156  1  0
151157  1  0
155157  1  0
154158  1  0
153159  1  0
158160  1  0
159161  1  0
159162  1  0
161162  1  0
152163  1  0
160163  1  0
151164  1  0
153165  1  0
147166  1  0
164166  1  0
165166  1  0
165167  1  0
146168  1  0
164168  1  0
153169  1  0
167170  1  0
168170  1  0
169171  1  0
167172  1  0
171172  1  0
172148  1  0
149173  1  0
171173  1  0
173150  1  0
147174  1  0
  3175  1  0
  4176  1  0
  5177  1  0
  7178  1  0
  9179  1  1
 10180  1  1
 11181  1  0
 11182  1  0
 12183  1  0
 12184  1  0
 13185  1  0
 13186  1  0
 14187  1  0
 15188  1  0
 15189  1  0
 16190  1  0
 16191  1  0
 17192  1  0
 17193  1  0
 18194  1  0
 18195  1  0
 19196  1  6
 20197  1  1
 21198  1  1
 22199  1  0
 23200  1  0
 24201  1  0
 24202  1  0
 25203  1  0
 25204  1  0
 26205  1  6
 27206  1  0
 28207  1  0
 29208  1  0
 29209  1  0
 29210  1  0
 32211  1  0
 33212  1  0
 34213  1  0
 36214  1  0
 38215  1  1
 39216  1  1
 40217  1  0
 40218  1  0
 41219  1  0
 41220  1  0
 42221  1  0
 42222  1  0
 43223  1  0
 44224  1  0
 44225  1  0
 45226  1  0
 45227  1  0
 46228  1  0
 46229  1  0
 47230  1  0
 47231  1  0
 48232  1  6
 49233  1  0
 50234  1  1
 51235  1  6
 52236  1  0
 53237  1  0
 53238  1  0
 54239  1  0
 54240  1  0
 55241  1  6
 56242  1  0
 57243  1  0
 58244  1  0
 58245  1  0
 58246  1  0
 61247  1  0
 62248  1  0
 63249  1  0
 65250  1  0
 67251  1  1
 68252  1  1
 69253  1  0
 69254  1  0
 70255  1  0
 70256  1  0
 71257  1  0
 71258  1  0
 72259  1  0
 73260  1  0
 73261  1  0
 74262  1  0
 74263  1  0
 75264  1  0
 75265  1  0
 76266  1  0
 76267  1  0
 77268  1  1
 78269  1  6
 79270  1  0
 80271  1  6
 81272  1  0
 82273  1  0
 82274  1  0
 83275  1  0
 83276  1  0
 84277  1  0
 85278  1  0
 86279  1  0
 87280  1  0
 87281  1  0
 87282  1  0
 90283  1  0
 91284  1  0
 92285  1  0
 94286  1  0
 96287  1  1
 97288  1  1
 98289  1  0
 98290  1  0
 99291  1  0
 99292  1  0
100293  1  0
100294  1  0
101295  1  0
102296  1  0
102297  1  0
103298  1  0
103299  1  0
104300  1  0
104301  1  0
105302  1  0
105303  1  0
106304  1  6
107305  1  1
108306  1  1
109307  1  0
110308  1  1
111309  1  0
111310  1  0
112311  1  0
112312  1  0
113313  1  6
114314  1  0
115315  1  0
116316  1  0
116317  1  0
116318  1  0
119319  1  0
120320  1  0
121321  1  0
123322  1  0
125323  1  1
126324  1  1
127325  1  0
127326  1  0
128327  1  0
128328  1  0
129329  1  0
129330  1  0
130331  1  0
131332  1  0
131333  1  0
132334  1  0
132335  1  0
133336  1  0
133337  1  0
134338  1  0
134339  1  0
135340  1  6
136341  1  0
137342  1  0
138343  1  6
139344  1  0
140345  1  0
140346  1  0
141347  1  0
141348  1  0
142349  1  6
143350  1  0
144351  1  0
145352  1  0
145353  1  0
145354  1  0
148355  1  0
149356  1  0
150357  1  0
152358  1  0
154359  1  1
155360  1  1
156361  1  0
156362  1  0
157363  1  0
157364  1  0
158365  1  0
158366  1  0
159367  1  0
160368  1  0
160369  1  0
161370  1  0
161371  1  0
162372  1  0
162373  1  0
163374  1  0
163375  1  0
164376  1  0
165377  1  6
166378  1  6
167379  1  0
168380  1  0
169381  1  0
169382  1  0
170383  1  0
170384  1  0
171385  1  0
172386  1  1
173387  1  0
174388  1  0
174389  1  0
174390  1  0
M  END
>  <PDBID>  (1) 
5CDQ

>  <PDB ID>  (1) 
5CDQ

>  <Generic Name>  (1) 
Moxifloxacin

>  <Brand Name>  (1) 
Act Moxifloxacin#Apo-moxifloxacin#Auro-moxifloxacin#Avelox#Avelox Abc Pack#Avelox I.V.#Bio-moxifloxacin#Dom-moxifloxacin#Ipg-moxifloxacin#Jamp-moxifloxacin#Jamp-moxifloxacin Tablets#Mar-moxifloxacin#Med-moxifloxacin#Moxeza#Moxifloxacin#Moxifloxacin Hydrochloride#Moxifloxacin Injection#Mylan-moxifloxacin#Mylan-moxifloxacin HCl Ophthalmic Solution#PHL-moxifloxacin#PMS-moxifloxacin#Priva-moxifloxacin#Riva-moxifloxacin#Sandoz Moxifloxacin#Teva-moxifloxacin#Torrent-moxifloxacin#Vigamox

>  <DrugBank ID>  (1) 
DB00218

>  <ATC Codes>  (1) 
J01MA14#S01AE07

>  <Ligand ID>  (1) 
MFX

>  <Target Name>  (1) 
DNA gyrase subunit A

>  <UniProt ID>  (1) 
P43700

>  <PDB ID.1>  (1) 
5CDQ

>  <Seq. Identity>  (1) 
53%

$$$$
