PDB_DB00674_01
     RDKit          3D

100106  0  0  0  0  0  0  0  0999 V2000
   -2.1105   -0.2256    0.1350 C   0  0  0  0  0  0  0  0  0  0  0  0
   -3.0268   -1.0289   -0.7578 C   0  0  0  0  0  0  0  0  0  0  0  0
   -2.7563   -2.4812   -0.5419 C   0  0  1  0  0  0  0  0  0  0  0  0
   -1.4168   -2.6523    0.0909 C   0  0  0  0  0  0  0  0  0  0  0  0
   -0.3503   -1.7557   -0.4988 C   0  0  1  0  0  0  0  0  0  0  0  0
   -0.6720   -0.2868   -0.3164 C   0  0  1  0  0  0  0  0  0  0  0  0
    0.8314   -2.0204    0.1135 O   0  0  0  0  0  0  0  0  0  0  0  0
    2.6196   -0.7275    0.8561 C   0  0  0  0  0  0  0  0  0  0  0  0
    2.9400    0.4189    1.7374 C   0  0  0  0  0  0  0  0  0  0  0  0
    2.2152    1.6333    1.2744 C   0  0  0  0  0  0  0  0  0  0  0  0
    0.1156    2.6065    0.5377 C   0  0  0  0  0  0  0  0  0  0  0  0
   -0.9434    2.4468   -0.3906 N   0  0  0  0  0  0  0  0  0  0  0  0
   -0.6065    1.8564   -1.6375 C   0  0  0  0  0  0  0  0  0  0  0  0
   -0.4377    0.3823   -1.6386 C   0  0  0  0  0  0  0  0  0  0  0  0
    1.1257   -1.0372    1.0184 C   0  0  0  0  0  0  0  0  0  0  0  0
    0.2685    0.1440    0.7560 C   0  0  0  0  0  0  0  0  0  0  0  0
    1.0282    1.3792    0.4178 C   0  0  0  0  0  0  0  0  0  0  0  0
    4.0538   -2.2663   -0.1051 C   0  0  0  0  0  0  0  0  0  0  0  0
    3.3698   -1.8462    1.0242 O   0  0  0  0  0  0  0  0  0  0  0  0
   -3.7277   -3.0346    0.2958 O   0  0  0  0  0  0  0  0  0  0  0  0
   -1.8597    3.5349   -0.4711 C   0  0  0  0  0  0  0  0  0  0  0  0
   -2.1105   -0.2256    0.1350 C   0  0  0  0  0  0  0  0  0  0  0  0
   -3.0268   -1.0289   -0.7578 C   0  0  0  0  0  0  0  0  0  0  0  0
   -2.7563   -2.4812   -0.5419 C   0  0  1  0  0  0  0  0  0  0  0  0
   -1.4168   -2.6523    0.0909 C   0  0  0  0  0  0  0  0  0  0  0  0
   -0.3503   -1.7557   -0.4988 C   0  0  1  0  0  0  0  0  0  0  0  0
   -0.6720   -0.2868   -0.3164 C   0  0  1  0  0  0  0  0  0  0  0  0
    0.8314   -2.0204    0.1135 O   0  0  0  0  0  0  0  0  0  0  0  0
    2.6196   -0.7275    0.8561 C   0  0  0  0  0  0  0  0  0  0  0  0
    2.9400    0.4189    1.7374 C   0  0  0  0  0  0  0  0  0  0  0  0
    2.2152    1.6333    1.2744 C   0  0  0  0  0  0  0  0  0  0  0  0
    0.1156    2.6065    0.5377 C   0  0  0  0  0  0  0  0  0  0  0  0
   -0.9434    2.4468   -0.3906 N   0  0  0  0  0  0  0  0  0  0  0  0
   -0.6065    1.8564   -1.6375 C   0  0  0  0  0  0  0  0  0  0  0  0
   -0.4377    0.3823   -1.6386 C   0  0  0  0  0  0  0  0  0  0  0  0
    1.1257   -1.0372    1.0184 C   0  0  0  0  0  0  0  0  0  0  0  0
    0.2685    0.1440    0.7560 C   0  0  0  0  0  0  0  0  0  0  0  0
    1.0282    1.3792    0.4178 C   0  0  0  0  0  0  0  0  0  0  0  0
    4.0538   -2.2663   -0.1051 C   0  0  0  0  0  0  0  0  0  0  0  0
    3.3698   -1.8462    1.0242 O   0  0  0  0  0  0  0  0  0  0  0  0
   -3.7277   -3.0346    0.2958 O   0  0  0  0  0  0  0  0  0  0  0  0
   -1.8597    3.5349   -0.4711 C   0  0  0  0  0  0  0  0  0  0  0  0
   -2.1465   -0.6873    1.1479 H   0  0  0  0  0  0  0  0  0  0  0  0
   -2.5194    0.7750    0.2210 H   0  0  0  0  0  0  0  0  0  0  0  0
   -4.0730   -0.8007   -0.3984 H   0  0  0  0  0  0  0  0  0  0  0  0
   -2.9998   -0.7366   -1.8062 H   0  0  0  0  0  0  0  0  0  0  0  0
   -2.8441   -3.0035   -1.5247 H   0  0  0  0  0  0  0  0  0  0  0  0
   -1.0782   -3.7037   -0.1445 H   0  0  0  0  0  0  0  0  0  0  0  0
   -1.4608   -2.6071    1.1924 H   0  0  0  0  0  0  0  0  0  0  0  0
   -0.2628   -2.0387   -1.5733 H   0  0  0  0  0  0  0  0  0  0  0  0
    2.7333   -0.3884   -0.2059 H   0  0  0  0  0  0  0  0  0  0  0  0
    4.0523    0.6081    1.6813 H   0  0  0  0  0  0  0  0  0  0  0  0
    2.6804    0.2101    2.8104 H   0  0  0  0  0  0  0  0  0  0  0  0
    2.9218    2.2922    0.6906 H   0  0  0  0  0  0  0  0  0  0  0  0
    1.9487    2.2643    2.1725 H   0  0  0  0  0  0  0  0  0  0  0  0
   -0.3197    2.6267    1.5721 H   0  0  0  0  0  0  0  0  0  0  0  0
    0.7177    3.5258    0.4087 H   0  0  0  0  0  0  0  0  0  0  0  0
    0.3047    2.3828   -2.0484 H   0  0  0  0  0  0  0  0  0  0  0  0
   -1.4196    2.1372   -2.3702 H   0  0  0  0  0  0  0  0  0  0  0  0
   -1.1458   -0.1001   -2.3693 H   0  0  0  0  0  0  0  0  0  0  0  0
    0.5791    0.0428   -1.9916 H   0  0  0  0  0  0  0  0  0  0  0  0
    1.0209   -1.3719    2.0818 H   0  0  0  0  0  0  0  0  0  0  0  0
   -0.3442    0.3762    1.6758 H   0  0  0  0  0  0  0  0  0  0  0  0
    1.3613    1.3541   -0.6395 H   0  0  0  0  0  0  0  0  0  0  0  0
    4.7614   -1.5449   -0.5071 H   0  0  0  0  0  0  0  0  0  0  0  0
    4.5229   -3.2504    0.0124 H   0  0  0  0  0  0  0  0  0  0  0  0
    3.2655   -2.4045   -0.9033 H   0  0  0  0  0  0  0  0  0  0  0  0
   -4.4616   -2.3794    0.4144 H   0  0  0  0  0  0  0  0  0  0  0  0
   -1.5687    4.3299   -1.1930 H   0  0  0  0  0  0  0  0  0  0  0  0
   -2.0453    3.9230    0.5498 H   0  0  0  0  0  0  0  0  0  0  0  0
   -2.8402    3.1294   -0.8552 H   0  0  0  0  0  0  0  0  0  0  0  0
   -2.1465   -0.6873    1.1479 H   0  0  0  0  0  0  0  0  0  0  0  0
   -2.5194    0.7750    0.2210 H   0  0  0  0  0  0  0  0  0  0  0  0
   -4.0730   -0.8007   -0.3984 H   0  0  0  0  0  0  0  0  0  0  0  0
   -2.9998   -0.7366   -1.8062 H   0  0  0  0  0  0  0  0  0  0  0  0
   -2.8441   -3.0035   -1.5247 H   0  0  0  0  0  0  0  0  0  0  0  0
   -1.0782   -3.7037   -0.1445 H   0  0  0  0  0  0  0  0  0  0  0  0
   -1.4608   -2.6071    1.1924 H   0  0  0  0  0  0  0  0  0  0  0  0
   -0.2628   -2.0387   -1.5733 H   0  0  0  0  0  0  0  0  0  0  0  0
    2.7333   -0.3884   -0.2059 H   0  0  0  0  0  0  0  0  0  0  0  0
    4.0523    0.6081    1.6813 H   0  0  0  0  0  0  0  0  0  0  0  0
    2.6804    0.2101    2.8104 H   0  0  0  0  0  0  0  0  0  0  0  0
    2.9218    2.2922    0.6906 H   0  0  0  0  0  0  0  0  0  0  0  0
    1.9487    2.2643    2.1725 H   0  0  0  0  0  0  0  0  0  0  0  0
   -0.3197    2.6267    1.5721 H   0  0  0  0  0  0  0  0  0  0  0  0
    0.7177    3.5258    0.4087 H   0  0  0  0  0  0  0  0  0  0  0  0
    0.3047    2.3828   -2.0484 H   0  0  0  0  0  0  0  0  0  0  0  0
   -1.4196    2.1372   -2.3702 H   0  0  0  0  0  0  0  0  0  0  0  0
   -1.1458   -0.1001   -2.3693 H   0  0  0  0  0  0  0  0  0  0  0  0
    0.5791    0.0428   -1.9916 H   0  0  0  0  0  0  0  0  0  0  0  0
    1.0209   -1.3719    2.0818 H   0  0  0  0  0  0  0  0  0  0  0  0
   -0.3442    0.3762    1.6758 H   0  0  0  0  0  0  0  0  0  0  0  0
    1.3613    1.3541   -0.6395 H   0  0  0  0  0  0  0  0  0  0  0  0
    4.7614   -1.5449   -0.5071 H   0  0  0  0  0  0  0  0  0  0  0  0
    4.5229   -3.2504    0.0124 H   0  0  0  0  0  0  0  0  0  0  0  0
    3.2655   -2.4045   -0.9033 H   0  0  0  0  0  0  0  0  0  0  0  0
   -4.4616   -2.3794    0.4144 H   0  0  0  0  0  0  0  0  0  0  0  0
   -1.5687    4.3299   -1.1930 H   0  0  0  0  0  0  0  0  0  0  0  0
   -2.0453    3.9230    0.5498 H   0  0  0  0  0  0  0  0  0  0  0  0
   -2.8402    3.1294   -0.8552 H   0  0  0  0  0  0  0  0  0  0  0  0
  1  2  1  0
  2  3  1  0
  3  4  1  0
  4  5  1  0
  6  1  1  1
  5  6  1  0
  5  7  1  0
  8  9  1  0
  9 10  1  0
 11 12  1  0
 12 13  1  0
  6 14  1  0
 13 14  1  0
  7 15  1  0
  8 15  1  0
  6 16  1  0
 15 16  1  0
 10 17  1  0
 11 17  1  0
 16 17  1  0
  8 19  1  0
 18 19  1  0
  3 20  1  0
 12 21  1  0
 22 23  1  0
 23 24  1  0
 24 25  1  0
 25 26  1  0
 27 22  1  1
 26 27  1  0
 26 28  1  0
 29 30  1  0
 30 31  1  0
 32 33  1  0
 33 34  1  0
 27 35  1  0
 34 35  1  0
 28 36  1  0
 29 36  1  0
 27 37  1  0
 36 37  1  0
 31 38  1  0
 32 38  1  0
 37 38  1  0
 29 40  1  0
 39 40  1  0
 24 41  1  0
 33 42  1  0
  1 43  1  0
  1 44  1  0
  2 45  1  0
  2 46  1  0
  3 47  1  6
  4 48  1  0
  4 49  1  0
  5 50  1  6
  8 51  1  0
  9 52  1  0
  9 53  1  0
 10 54  1  0
 10 55  1  0
 11 56  1  0
 11 57  1  0
 13 58  1  0
 13 59  1  0
 14 60  1  0
 14 61  1  0
 15 62  1  0
 16 63  1  0
 17 64  1  0
 18 65  1  0
 18 66  1  0
 18 67  1  0
 20 68  1  0
 21 69  1  0
 21 70  1  0
 21 71  1  0
 22 72  1  0
 22 73  1  0
 23 74  1  0
 23 75  1  0
 24 76  1  6
 25 77  1  0
 25 78  1  0
 26 79  1  6
 29 80  1  0
 30 81  1  0
 30 82  1  0
 31 83  1  0
 31 84  1  0
 32 85  1  0
 32 86  1  0
 34 87  1  0
 34 88  1  0
 35 89  1  0
 35 90  1  0
 36 91  1  0
 37 92  1  0
 38 93  1  0
 39 94  1  0
 39 95  1  0
 39 96  1  0
 41 97  1  0
 42 98  1  0
 42 99  1  0
 42100  1  0
M  END
>  <PDBID>  (1) 
4EY6

>  <PDB ID>  (1) 
4EY6

>  <Generic Name>  (1) 
Galantamine

>  <Brand Name>  (1) 
Apo-galantamine#Auro-galantamine ER#Galantamine#Galantamine ER#Galantamine Hydrobromide#Ipg-galantamine ER#Mar-galantamine ER#Mylan-galantamine ER#PMS-galantamine#PMS-galantamine ER#Pat-galantamine ER#Pendo-galantamine ER#Ratio-galantamine#Razadyne#Reminyl   -(12mg)#Reminyl   -(4mg)#Reminyl   -(8mg)#Reminyl ER#Sandoz Galantamine ER#Teva-galantamine ER#Lycoremine#Nivalin#Reminyl

>  <DrugBank ID>  (1) 
DB00674

>  <ATC Codes>  (1) 
N06DA04

>  <Ligand ID>  (1) 
GNT

>  <Target Name>  (1) 
Acetylcholinesterase

>  <UniProt ID>  (1) 
P22303

>  <PDB ID.1>  (1) 
4EY6

>  <Seq. Identity>  (1) 
97%

$$$$
