PDB_DB00537_01
     RDKit          3D

108114  0  0  0  0  0  0  0  0999 V2000
    4.0886    1.0448   -2.6736 O   0  0  0  0  0  0  0  0  0  0  0  0
    3.5324    1.5481   -1.4983 C   0  0  0  0  0  0  0  0  0  0  0  0
    4.4013    1.6387   -0.4464 O   0  0  0  0  0  0  0  0  0  0  0  0
    2.2192    0.8581   -1.1796 C   0  0  0  0  0  0  0  0  0  0  0  0
    1.6807    1.4494    0.1022 C   0  0  0  0  0  0  0  0  0  0  0  0
    1.5820    0.4335    1.0611 N   0  0  0  0  0  0  0  0  0  0  0  0
    0.7261   -0.6778    0.7619 C   0  0  0  0  0  0  0  0  0  0  0  0
   -0.6763   -0.2213    0.7172 C   0  0  0  0  0  0  0  0  0  0  0  0
   -1.5733   -0.7698   -0.3305 C   0  0  0  0  0  0  0  0  0  0  0  0
   -2.7135    0.1170   -0.4216 N   0  0  0  0  0  0  0  0  0  0  0  0
   -3.6100   -0.1001   -1.4624 C   0  0  0  0  0  0  0  0  0  0  0  0
   -5.0038   -0.4489   -0.9270 C   0  0  0  0  0  0  0  0  0  0  0  0
   -5.4347    0.7321   -0.2145 N   0  0  0  0  0  0  0  0  0  0  0  0
   -4.6462    0.8154    0.9816 C   0  0  0  0  0  0  0  0  0  0  0  0
   -3.2622    0.3319    0.8803 C   0  0  0  0  0  0  0  0  0  0  0  0
   -0.9400   -1.1004   -1.6249 C   0  0  0  0  0  0  0  0  0  0  0  0
   -0.8859    0.0294   -2.4146 F   0  0  0  0  0  0  0  0  0  0  0  0
    0.3382   -1.8186   -1.4732 C   0  0  0  0  0  0  0  0  0  0  0  0
    1.2832   -1.3577   -0.4328 C   0  0  0  0  0  0  0  0  0  0  0  0
    2.4754   -0.5933   -1.0377 C   0  0  0  0  0  0  0  0  0  0  0  0
    2.7739   -1.2147   -2.2290 O   0  0  0  0  0  0  0  0  0  0  0  0
    1.9067    0.7021    2.3874 C   0  0  0  0  0  0  0  0  0  0  0  0
    2.0566   -0.3346    3.4167 C   0  0  0  0  0  0  0  0  0  0  0  0
    3.2970    0.4104    2.9282 C   0  0  0  0  0  0  0  0  0  0  0  0
    2.3940    2.2215    0.5192 H   0  0  0  0  0  0  0  0  0  0  0  0
   -0.7242    0.9061    0.6324 H   0  0  0  0  0  0  0  0  0  0  0  0
   -3.7740    0.8822   -2.0015 H   0  0  0  0  0  0  0  0  0  0  0  0
   -3.4004   -0.8216   -2.2355 H   0  0  0  0  0  0  0  0  0  0  0  0
   -5.6637   -0.6366   -1.8025 H   0  0  0  0  0  0  0  0  0  0  0  0
   -4.9371   -1.2981   -0.2312 H   0  0  0  0  0  0  0  0  0  0  0  0
   -5.3840    1.5854   -0.7902 H   0  0  0  0  0  0  0  0  0  0  0  0
   -5.2273    0.2512    1.7718 H   0  0  0  0  0  0  0  0  0  0  0  0
   -4.7163    1.8873    1.3334 H   0  0  0  0  0  0  0  0  0  0  0  0
   -2.5977    1.0479    1.4188 H   0  0  0  0  0  0  0  0  0  0  0  0
   -3.1936   -0.6488    1.4287 H   0  0  0  0  0  0  0  0  0  0  0  0
    0.1241   -2.9284   -1.3977 H   0  0  0  0  0  0  0  0  0  0  0  0
    1.5272    1.6947    2.7761 H   0  0  0  0  0  0  0  0  0  0  0  0
    2.1290   -1.4094    3.2247 H   0  0  0  0  0  0  0  0  0  0  0  0
    1.7060   -0.1229    4.4706 H   0  0  0  0  0  0  0  0  0  0  0  0
    4.0190   -0.1046    2.2740 H   0  0  0  0  0  0  0  0  0  0  0  0
    3.7453    1.0584    3.6926 H   0  0  0  0  0  0  0  0  0  0  0  0
    4.0886    1.0448   -2.6736 O   0  0  0  0  0  0  0  0  0  0  0  0
    3.5324    1.5481   -1.4983 C   0  0  0  0  0  0  0  0  0  0  0  0
    4.4013    1.6387   -0.4464 O   0  0  0  0  0  0  0  0  0  0  0  0
    2.2192    0.8581   -1.1796 C   0  0  0  0  0  0  0  0  0  0  0  0
    1.6807    1.4494    0.1022 C   0  0  0  0  0  0  0  0  0  0  0  0
    1.5820    0.4335    1.0611 N   0  0  0  0  0  0  0  0  0  0  0  0
    0.7261   -0.6778    0.7619 C   0  0  0  0  0  0  0  0  0  0  0  0
   -0.6763   -0.2213    0.7172 C   0  0  0  0  0  0  0  0  0  0  0  0
   -1.5733   -0.7698   -0.3305 C   0  0  0  0  0  0  0  0  0  0  0  0
   -2.7135    0.1170   -0.4216 N   0  0  0  0  0  0  0  0  0  0  0  0
   -3.6100   -0.1001   -1.4624 C   0  0  0  0  0  0  0  0  0  0  0  0
   -5.0038   -0.4489   -0.9270 C   0  0  0  0  0  0  0  0  0  0  0  0
   -5.4347    0.7321   -0.2145 N   0  0  0  0  0  0  0  0  0  0  0  0
   -4.6462    0.8154    0.9816 C   0  0  0  0  0  0  0  0  0  0  0  0
   -3.2622    0.3319    0.8803 C   0  0  0  0  0  0  0  0  0  0  0  0
   -0.9400   -1.1004   -1.6249 C   0  0  0  0  0  0  0  0  0  0  0  0
   -0.8859    0.0294   -2.4146 F   0  0  0  0  0  0  0  0  0  0  0  0
    0.3382   -1.8186   -1.4732 C   0  0  0  0  0  0  0  0  0  0  0  0
    1.2832   -1.3577   -0.4328 C   0  0  0  0  0  0  0  0  0  0  0  0
    2.4754   -0.5933   -1.0377 C   0  0  0  0  0  0  0  0  0  0  0  0
    2.7739   -1.2147   -2.2290 O   0  0  0  0  0  0  0  0  0  0  0  0
    1.9067    0.7021    2.3874 C   0  0  0  0  0  0  0  0  0  0  0  0
    2.0567   -0.3346    3.4167 C   0  0  0  0  0  0  0  0  0  0  0  0
    3.2971    0.4104    2.9282 C   0  0  0  0  0  0  0  0  0  0  0  0
    2.3940    2.2215    0.5192 H   0  0  0  0  0  0  0  0  0  0  0  0
   -0.7242    0.9061    0.6324 H   0  0  0  0  0  0  0  0  0  0  0  0
   -3.7740    0.8822   -2.0015 H   0  0  0  0  0  0  0  0  0  0  0  0
   -3.4004   -0.8216   -2.2355 H   0  0  0  0  0  0  0  0  0  0  0  0
   -5.6637   -0.6366   -1.8025 H   0  0  0  0  0  0  0  0  0  0  0  0
   -4.9371   -1.2981   -0.2312 H   0  0  0  0  0  0  0  0  0  0  0  0
   -5.3840    1.5854   -0.7902 H   0  0  0  0  0  0  0  0  0  0  0  0
   -5.2273    0.2512    1.7718 H   0  0  0  0  0  0  0  0  0  0  0  0
   -4.7163    1.8873    1.3334 H   0  0  0  0  0  0  0  0  0  0  0  0
   -2.5977    1.0479    1.4188 H   0  0  0  0  0  0  0  0  0  0  0  0
   -3.1936   -0.6488    1.4287 H   0  0  0  0  0  0  0  0  0  0  0  0
    0.1241   -2.9284   -1.3977 H   0  0  0  0  0  0  0  0  0  0  0  0
    1.5272    1.6947    2.7761 H   0  0  0  0  0  0  0  0  0  0  0  0
    2.1290   -1.4094    3.2247 H   0  0  0  0  0  0  0  0  0  0  0  0
    1.7060   -0.1229    4.4706 H   0  0  0  0  0  0  0  0  0  0  0  0
    4.0190   -0.1046    2.2740 H   0  0  0  0  0  0  0  0  0  0  0  0
    3.7453    1.0584    3.6926 H   0  0  0  0  0  0  0  0  0  0  0  0
    4.8841    0.4852   -2.4447 H   0  0  0  0  0  0  0  0  0  0  0  0
    3.2425    2.6132   -1.7504 H   0  0  0  0  0  0  0  0  0  0  0  0
    4.5750    0.8420    0.0729 H   0  0  0  0  0  0  0  0  0  0  0  0
    1.5544    1.1096   -2.0501 H   0  0  0  0  0  0  0  0  0  0  0  0
    0.7729    2.0235   -0.1472 H   0  0  0  0  0  0  0  0  0  0  0  0
    0.8199   -1.3466    1.6763 H   0  0  0  0  0  0  0  0  0  0  0  0
   -1.1995   -0.4015    1.7059 H   0  0  0  0  0  0  0  0  0  0  0  0
   -1.9985   -1.7362    0.0793 H   0  0  0  0  0  0  0  0  0  0  0  0
   -1.6328   -1.8006   -2.1836 H   0  0  0  0  0  0  0  0  0  0  0  0
    0.8793   -1.7465   -2.4660 H   0  0  0  0  0  0  0  0  0  0  0  0
    1.8093   -2.3007   -0.0702 H   0  0  0  0  0  0  0  0  0  0  0  0
    3.3709   -0.7237   -0.3779 H   0  0  0  0  0  0  0  0  0  0  0  0
    3.2807   -2.0555   -1.9982 H   0  0  0  0  0  0  0  0  0  0  0  0
    4.8841    0.4852   -2.4447 H   0  0  0  0  0  0  0  0  0  0  0  0
    3.2425    2.6132   -1.7504 H   0  0  0  0  0  0  0  0  0  0  0  0
    4.5750    0.8420    0.0729 H   0  0  0  0  0  0  0  0  0  0  0  0
    1.5544    1.1096   -2.0501 H   0  0  0  0  0  0  0  0  0  0  0  0
    0.7729    2.0235   -0.1472 H   0  0  0  0  0  0  0  0  0  0  0  0
    0.8199   -1.3466    1.6763 H   0  0  0  0  0  0  0  0  0  0  0  0
   -1.1995   -0.4015    1.7059 H   0  0  0  0  0  0  0  0  0  0  0  0
   -1.9985   -1.7362    0.0793 H   0  0  0  0  0  0  0  0  0  0  0  0
   -1.6328   -1.8006   -2.1836 H   0  0  0  0  0  0  0  0  0  0  0  0
    0.8793   -1.7465   -2.4660 H   0  0  0  0  0  0  0  0  0  0  0  0
    1.8093   -2.3007   -0.0702 H   0  0  0  0  0  0  0  0  0  0  0  0
    3.3709   -0.7237   -0.3779 H   0  0  0  0  0  0  0  0  0  0  0  0
    3.2807   -2.0555   -1.9982 H   0  0  0  0  0  0  0  0  0  0  0  0
  1  2  1  0
  2  3  1  0
  2  4  1  0
  4  5  1  0
  5  6  1  0
  6  7  1  0
  7  8  1  0
  8  9  1  0
  9 10  1  0
 10 11  1  0
 11 12  1  0
 12 13  1  0
 13 14  1  0
 10 15  1  0
 14 15  1  0
  9 16  1  0
 16 17  1  0
 16 18  1  0
  7 19  1  0
 18 19  1  0
  4 20  1  0
 19 20  1  0
 20 21  1  0
  6 22  1  0
 22 23  1  0
 22 24  1  0
 23 24  1  0
  5 25  1  0
  8 26  1  0
 11 27  1  0
 11 28  1  0
 12 29  1  0
 12 30  1  0
 13 31  1  0
 14 32  1  0
 14 33  1  0
 15 34  1  0
 15 35  1  0
 18 36  1  0
 22 37  1  0
 23 38  1  0
 23 39  1  0
 24 40  1  0
 24 41  1  0
 43 42  1  0
 43 44  1  0
 43 45  1  0
 45 46  1  0
 46 47  1  0
 47 48  1  0
 48 49  1  0
 49 50  1  0
 50 51  1  0
 51 52  1  0
 52 53  1  0
 53 54  1  0
 54 55  1  0
 51 56  1  0
 55 56  1  0
 50 57  1  0
 57 58  1  0
 57 59  1  0
 48 60  1  0
 59 60  1  0
 45 61  1  0
 60 61  1  0
 61 62  1  0
 47 63  1  0
 63 64  1  0
 63 65  1  0
 64 65  1  0
 46 66  1  0
 49 67  1  0
 52 68  1  0
 52 69  1  0
 53 70  1  0
 53 71  1  0
 54 72  1  0
 55 73  1  0
 55 74  1  0
 56 75  1  0
 56 76  1  0
 59 77  1  0
 63 78  1  0
 64 79  1  0
 64 80  1  0
 65 81  1  0
 65 82  1  0
  1 83  1  0
  2 84  1  0
  3 85  1  0
  4 86  1  0
  5 87  1  0
  7 88  1  0
  8 89  1  0
  9 90  1  0
 16 91  1  0
 18 92  1  0
 19 93  1  0
 20 94  1  0
 21 95  1  0
 42 96  1  0
 43 97  1  0
 44 98  1  0
 45 99  1  0
 46100  1  0
 48101  1  0
 49102  1  0
 50103  1  0
 57104  1  0
 59105  1  0
 60106  1  0
 61107  1  0
 62108  1  0
M  END
>  <PDBID>  (1) 
5BTC

>  <PDB ID>  (1) 
5BTC

>  <Generic Name>  (1) 
Ciprofloxacin

>  <Brand Name>  (1) 
Act Ciprofloxacin#Apo-ciproflox#Auro-ciprofloxacin#Bio-ciprofloxacin#Ciloxan#Cipro#Cipro 100 - Tab 100mg#Cipro 250 - Tab 250mg#Cipro 500 - Tab 500mg#Cipro 750 - Tab 750mg#Cipro HC#Cipro HC Otic Suspension#Cipro I.V. - Liq 10mg/ml#Cipro I.V. Minibags 2mg/ml#Cipro IV 10mg/ml#Cipro Oral Suspension 10%#Cipro Tab 100mg#Cipro Tab 250mg#Cipro Tab 500mg#Cipro Tab 750mg#Cipro XL#Ciprodex#Ciprofloxacin#Ciprofloxacin Extended-release#Ciprofloxacin Hydrochloride#Ciprofloxacin Injection#Ciprofloxacin Injection USP#Ciprofloxacin Injection, USP#Ciprofloxacin Intravenous Infusion#Ciprofloxacin Intravenous Infusion BP#Ciprofloxacin Intravenous Infusion, BP#Ciprofloxacin Omega#Ciprofloxacin Otic#Ciprofloxacin Tablets#Ciprofloxacin Tablets USP - 100 mg#Ciprofloxacin Tablets USP - 250 mg#Ciprofloxacin Tablets USP - 500 mg#Ciprofloxacin Tablets USP - 750 mg#Ciprofloxacin-250#Ciprofloxacin-500#Ciprofloxacin-750#Dom-ciprofloxacin#Ipg-ciprofloxacin#Jamp-ciprofloxacin#Mar-ciprofloxacin#Mint-ciproflox#Mint-ciprofloxacin#Mylan-ciprofloxacin#Mylan-ciprofloxacin XL#Nu-ciproflox#Nu-ciprofloxacin Tablets#Otiprio#Otixal#Otovel#PHL-ciprofloxacin#PMS-ciprofloxacin#PMS-ciprofloxacin 0.3%#PMS-ciprofloxacin XL#Priva-ciprofloxacin#Pro-ciprofloxacin#Proquin XR#Q-ciprofloxacin#Ran-ciproflox#Ran-ciprofloxacin#Ratio-ciprofloxacin#Riva-ciprofloxacin#Sandoz Ciprofloxacin#Septa-ciprofloxacin#Taro-ciprofloxacin#Teva-ciprofloxacin#Van-ciprofloxacin#Bacquinor#Baycip#Ciflox#Cifloxin#Ciprinol#Ciprobay#Ciprocinol#Ciprodar#Ciproxan#Ciproxin#Flociprin#Proquin

>  <DrugBank ID>  (1) 
DB00537

>  <ATC Codes>  (1) 
J01MA02#J01RA11#J01RA12#S02AA15#S03AA07#S01AE03#J01RA10

>  <Ligand ID>  (1) 
CPF

>  <Target Name>  (1) 
DNA gyrase subunit A

>  <UniProt ID>  (1) 
P43700

>  <PDB ID.1>  (1) 
5BTC

>  <Seq. Identity>  (1) 
48%

$$$$
