PDB_DB00396_06
     RDKit          3D

118124  0  0  0  0  0  0  0  0999 V2000
   -2.7525    0.9271    1.6605 C   0  0  0  0  0  0  0  0  0  0  0  0
   -4.1633    0.5055    1.8985 C   0  0  0  0  0  0  0  0  0  0  0  0
   -5.0053    0.4735    0.6676 C   0  0  0  0  0  0  0  0  0  0  0  0
   -6.1911   -0.2253    0.9800 O   0  0  0  0  0  0  0  0  0  0  0  0
   -4.3134   -0.3539   -0.4122 C   0  0  0  0  0  0  0  0  0  0  0  0
   -2.9707    0.2502   -0.6641 C   0  0  2  0  0  0  0  0  0  0  0  0
   -2.3506   -0.4029   -1.8793 C   0  0  0  0  0  0  0  0  0  0  0  0
   -0.9510    0.0416   -2.1256 C   0  0  0  0  0  0  0  0  0  0  0  0
   -0.1346   -0.1514   -0.8374 C   0  0  2  0  0  0  0  0  0  0  0  0
   -0.7618    0.6704    0.2234 C   0  0  1  0  0  0  0  0  0  0  0  0
   -2.1166    0.0998    0.5596 C   0  0  1  0  0  0  0  0  0  0  0  0
    0.0636    0.8793    1.4509 C   0  0  0  0  0  0  0  0  0  0  0  0
    1.5162    1.0865    1.2073 C   0  0  0  0  0  0  0  0  0  0  0  0
    2.0472    0.1468    0.1872 C   0  0  1  0  0  0  0  0  0  0  0  0
    1.2547    0.3698   -1.0811 C   0  0  1  0  0  0  0  0  0  0  0  0
    2.0355   -0.3192   -2.1315 C   0  0  0  0  0  0  0  0  0  0  0  0
    3.4729   -0.1911   -1.6754 C   0  0  0  0  0  0  0  0  0  0  0  0
    3.4331    0.4897   -0.3001 C   0  0  2  0  0  0  0  0  0  0  0  0
    2.0071   -1.2719    0.6839 C   0  0  0  0  0  0  0  0  0  0  0  0
   -2.0101   -1.3261    1.0141 C   0  0  0  0  0  0  0  0  0  0  0  0
    4.5026   -0.1772    0.5286 C   0  0  0  0  0  0  0  0  0  0  0  0
    4.4513    0.1937    1.8680 O   0  0  0  0  0  0  0  0  0  0  0  0
    5.8531    0.1167   -0.0798 C   0  0  0  0  0  0  0  0  0  0  0  0
   -2.7525    0.9271    1.6605 C   0  0  0  0  0  0  0  0  0  0  0  0
   -4.1633    0.5055    1.8985 C   0  0  0  0  0  0  0  0  0  0  0  0
   -5.0053    0.4735    0.6676 C   0  0  0  0  0  0  0  0  0  0  0  0
   -6.1911   -0.2253    0.9800 O   0  0  0  0  0  0  0  0  0  0  0  0
   -4.3134   -0.3539   -0.4122 C   0  0  0  0  0  0  0  0  0  0  0  0
   -2.9707    0.2502   -0.6641 C   0  0  2  0  0  0  0  0  0  0  0  0
   -2.3506   -0.4029   -1.8793 C   0  0  0  0  0  0  0  0  0  0  0  0
   -0.9510    0.0416   -2.1256 C   0  0  0  0  0  0  0  0  0  0  0  0
   -0.1346   -0.1514   -0.8374 C   0  0  2  0  0  0  0  0  0  0  0  0
   -0.7618    0.6704    0.2234 C   0  0  1  0  0  0  0  0  0  0  0  0
   -2.1166    0.0998    0.5596 C   0  0  1  0  0  0  0  0  0  0  0  0
    0.0636    0.8793    1.4509 C   0  0  0  0  0  0  0  0  0  0  0  0
    1.5162    1.0865    1.2073 C   0  0  0  0  0  0  0  0  0  0  0  0
    2.0472    0.1468    0.1872 C   0  0  1  0  0  0  0  0  0  0  0  0
    1.2547    0.3698   -1.0811 C   0  0  1  0  0  0  0  0  0  0  0  0
    2.0355   -0.3192   -2.1315 C   0  0  0  0  0  0  0  0  0  0  0  0
    3.4729   -0.1911   -1.6754 C   0  0  0  0  0  0  0  0  0  0  0  0
    3.4331    0.4897   -0.3001 C   0  0  2  0  0  0  0  0  0  0  0  0
    2.0071   -1.2719    0.6839 C   0  0  0  0  0  0  0  0  0  0  0  0
   -2.0101   -1.3261    1.0141 C   0  0  0  0  0  0  0  0  0  0  0  0
    4.5026   -0.1772    0.5286 C   0  0  0  0  0  0  0  0  0  0  0  0
    4.4513    0.1937    1.8680 O   0  0  0  0  0  0  0  0  0  0  0  0
    5.8531    0.1167   -0.0798 C   0  0  0  0  0  0  0  0  0  0  0  0
   -2.1784    0.7391    2.6057 H   0  0  0  0  0  0  0  0  0  0  0  0
   -2.7023    1.9936    1.4433 H   0  0  0  0  0  0  0  0  0  0  0  0
   -4.6269    1.2647    2.5909 H   0  0  0  0  0  0  0  0  0  0  0  0
   -4.2665   -0.4619    2.4348 H   0  0  0  0  0  0  0  0  0  0  0  0
   -5.2445    1.4892    0.2990 H   0  0  0  0  0  0  0  0  0  0  0  0
   -6.0031   -1.2079    0.9576 H   0  0  0  0  0  0  0  0  0  0  0  0
   -4.9017   -0.2831   -1.3539 H   0  0  0  0  0  0  0  0  0  0  0  0
   -4.2627   -1.3897   -0.0503 H   0  0  0  0  0  0  0  0  0  0  0  0
   -3.0615    1.3241   -0.8887 H   0  0  0  0  0  0  0  0  0  0  0  0
   -2.9727   -0.1432   -2.7445 H   0  0  0  0  0  0  0  0  0  0  0  0
   -2.3435   -1.5148   -1.7695 H   0  0  0  0  0  0  0  0  0  0  0  0
   -0.8583    1.0722   -2.5057 H   0  0  0  0  0  0  0  0  0  0  0  0
   -0.4944   -0.6725   -2.8593 H   0  0  0  0  0  0  0  0  0  0  0  0
   -0.1308   -1.2454   -0.6626 H   0  0  0  0  0  0  0  0  0  0  0  0
   -0.9651    1.6885   -0.2288 H   0  0  0  0  0  0  0  0  0  0  0  0
   -0.0775    0.1159    2.2429 H   0  0  0  0  0  0  0  0  0  0  0  0
   -0.3193    1.8338    1.9255 H   0  0  0  0  0  0  0  0  0  0  0  0
    2.0436    0.9882    2.1860 H   0  0  0  0  0  0  0  0  0  0  0  0
    1.6614    2.1444    0.8849 H   0  0  0  0  0  0  0  0  0  0  0  0
    1.1714    1.4680   -1.2173 H   0  0  0  0  0  0  0  0  0  0  0  0
    1.7260   -1.3399   -2.3442 H   0  0  0  0  0  0  0  0  0  0  0  0
    1.9505    0.2624   -3.0900 H   0  0  0  0  0  0  0  0  0  0  0  0
    3.8934   -1.2144   -1.5837 H   0  0  0  0  0  0  0  0  0  0  0  0
    4.0852    0.4060   -2.3785 H   0  0  0  0  0  0  0  0  0  0  0  0
    3.5835    1.5539   -0.4620 H   0  0  0  0  0  0  0  0  0  0  0  0
    1.0057   -1.5704    0.9940 H   0  0  0  0  0  0  0  0  0  0  0  0
    2.3225   -1.9213   -0.1580 H   0  0  0  0  0  0  0  0  0  0  0  0
    2.6689   -1.3370    1.5545 H   0  0  0  0  0  0  0  0  0  0  0  0
   -1.2325   -1.4810    1.7816 H   0  0  0  0  0  0  0  0  0  0  0  0
   -2.9614   -1.6948    1.4687 H   0  0  0  0  0  0  0  0  0  0  0  0
   -1.8051   -2.0307    0.1808 H   0  0  0  0  0  0  0  0  0  0  0  0
    4.3465   -1.2884    0.3961 H   0  0  0  0  0  0  0  0  0  0  0  0
    5.3816    0.2280    2.2257 H   0  0  0  0  0  0  0  0  0  0  0  0
    6.0939    1.1779   -0.1379 H   0  0  0  0  0  0  0  0  0  0  0  0
    5.9178   -0.4079   -1.0594 H   0  0  0  0  0  0  0  0  0  0  0  0
    6.6400   -0.3768    0.5589 H   0  0  0  0  0  0  0  0  0  0  0  0
   -2.1784    0.7391    2.6057 H   0  0  0  0  0  0  0  0  0  0  0  0
   -2.7023    1.9936    1.4433 H   0  0  0  0  0  0  0  0  0  0  0  0
   -4.6269    1.2647    2.5909 H   0  0  0  0  0  0  0  0  0  0  0  0
   -4.2665   -0.4619    2.4348 H   0  0  0  0  0  0  0  0  0  0  0  0
   -5.2445    1.4892    0.2990 H   0  0  0  0  0  0  0  0  0  0  0  0
   -6.0031   -1.2079    0.9576 H   0  0  0  0  0  0  0  0  0  0  0  0
   -4.9017   -0.2831   -1.3539 H   0  0  0  0  0  0  0  0  0  0  0  0
   -4.2627   -1.3897   -0.0503 H   0  0  0  0  0  0  0  0  0  0  0  0
   -3.0615    1.3241   -0.8887 H   0  0  0  0  0  0  0  0  0  0  0  0
   -2.9727   -0.1432   -2.7445 H   0  0  0  0  0  0  0  0  0  0  0  0
   -2.3435   -1.5148   -1.7695 H   0  0  0  0  0  0  0  0  0  0  0  0
   -0.8583    1.0722   -2.5057 H   0  0  0  0  0  0  0  0  0  0  0  0
   -0.4944   -0.6725   -2.8593 H   0  0  0  0  0  0  0  0  0  0  0  0
   -0.1308   -1.2454   -0.6626 H   0  0  0  0  0  0  0  0  0  0  0  0
   -0.9651    1.6885   -0.2288 H   0  0  0  0  0  0  0  0  0  0  0  0
   -0.0775    0.1159    2.2429 H   0  0  0  0  0  0  0  0  0  0  0  0
   -0.3193    1.8338    1.9255 H   0  0  0  0  0  0  0  0  0  0  0  0
    2.0436    0.9882    2.1860 H   0  0  0  0  0  0  0  0  0  0  0  0
    1.6614    2.1444    0.8849 H   0  0  0  0  0  0  0  0  0  0  0  0
    1.1714    1.4680   -1.2173 H   0  0  0  0  0  0  0  0  0  0  0  0
    1.7260   -1.3399   -2.3442 H   0  0  0  0  0  0  0  0  0  0  0  0
    1.9505    0.2624   -3.0900 H   0  0  0  0  0  0  0  0  0  0  0  0
    3.8934   -1.2144   -1.5837 H   0  0  0  0  0  0  0  0  0  0  0  0
    4.0852    0.4060   -2.3785 H   0  0  0  0  0  0  0  0  0  0  0  0
    3.5835    1.5539   -0.4620 H   0  0  0  0  0  0  0  0  0  0  0  0
    1.0057   -1.5704    0.9940 H   0  0  0  0  0  0  0  0  0  0  0  0
    2.3225   -1.9213   -0.1580 H   0  0  0  0  0  0  0  0  0  0  0  0
    2.6689   -1.3370    1.5545 H   0  0  0  0  0  0  0  0  0  0  0  0
   -1.2325   -1.4810    1.7816 H   0  0  0  0  0  0  0  0  0  0  0  0
   -2.9614   -1.6948    1.4687 H   0  0  0  0  0  0  0  0  0  0  0  0
   -1.8051   -2.0307    0.1808 H   0  0  0  0  0  0  0  0  0  0  0  0
    4.3465   -1.2884    0.3961 H   0  0  0  0  0  0  0  0  0  0  0  0
    5.3816    0.2280    2.2257 H   0  0  0  0  0  0  0  0  0  0  0  0
    6.0939    1.1779   -0.1379 H   0  0  0  0  0  0  0  0  0  0  0  0
    5.9178   -0.4079   -1.0594 H   0  0  0  0  0  0  0  0  0  0  0  0
    6.6400   -0.3768    0.5589 H   0  0  0  0  0  0  0  0  0  0  0  0
  1  2  1  0
  2  3  1  0
  3  4  1  0
  3  5  1  0
  5  6  1  0
  6  7  1  0
  7  8  1  0
  8  9  1  0
  9 10  1  0
  1 11  1  0
  6 11  1  0
 10 11  1  0
 10 12  1  0
 12 13  1  0
 13 14  1  0
  9 15  1  0
 14 15  1  0
 15 16  1  0
 16 17  1  0
 14 18  1  0
 17 18  1  0
 14 19  1  1
 11 20  1  1
 18 21  1  0
 21 22  1  0
 21 23  1  0
 24 25  1  0
 25 26  1  0
 26 27  1  0
 26 28  1  0
 28 29  1  0
 29 30  1  0
 30 31  1  0
 31 32  1  0
 32 33  1  0
 24 34  1  0
 29 34  1  0
 33 34  1  0
 33 35  1  0
 35 36  1  0
 36 37  1  0
 32 38  1  0
 37 38  1  0
 38 39  1  0
 39 40  1  0
 37 41  1  0
 40 41  1  0
 37 42  1  1
 34 43  1  1
 41 44  1  0
 44 45  1  0
 44 46  1  0
  1 47  1  0
  1 48  1  0
  2 49  1  0
  2 50  1  0
  3 51  1  0
  4 52  1  0
  5 53  1  0
  5 54  1  0
  6 55  1  6
  7 56  1  0
  7 57  1  0
  8 58  1  0
  8 59  1  0
  9 60  1  1
 10 61  1  6
 12 62  1  0
 12 63  1  0
 13 64  1  0
 13 65  1  0
 15 66  1  6
 16 67  1  0
 16 68  1  0
 17 69  1  0
 17 70  1  0
 18 71  1  6
 19 72  1  0
 19 73  1  0
 19 74  1  0
 20 75  1  0
 20 76  1  0
 20 77  1  0
 21 78  1  0
 22 79  1  0
 23 80  1  0
 23 81  1  0
 23 82  1  0
 24 83  1  0
 24 84  1  0
 25 85  1  0
 25 86  1  0
 26 87  1  0
 27 88  1  0
 28 89  1  0
 28 90  1  0
 29 91  1  6
 30 92  1  0
 30 93  1  0
 31 94  1  0
 31 95  1  0
 32 96  1  1
 33 97  1  6
 35 98  1  0
 35 99  1  0
 36100  1  0
 36101  1  0
 38102  1  6
 39103  1  0
 39104  1  0
 40105  1  0
 40106  1  0
 41107  1  6
 42108  1  0
 42109  1  0
 42110  1  0
 43111  1  0
 43112  1  0
 43113  1  0
 44114  1  0
 45115  1  0
 46116  1  0
 46117  1  0
 46118  1  0
M  END
>  <PDBID>  (1) 
4FN9

>  <PDB ID>  (1) 
4FN9

>  <Generic Name>  (1) 
Progesterone

>  <Brand Name>  (1) 
Act Progesterone Injection#Crinone#Endometrin#Estrogel Propak#Gesterol In Oil-liq Im 50mg/ml#PMS-progesterone Inj 50mg/ml USP#Prochieve#Progesterone#Progesterone Inj 50mg/ml USP#Progesterone Injection USP#Prometrium#Teva-progesterone#Agolutin#Cyclogest#Gesterol#Gestone#Progestasert#Progestogel#Qi Ning#Relantan#Susten#Utrogestan#Utrogestran#Utrovin#Vasclor

>  <DrugBank ID>  (1) 
DB00396

>  <ATC Codes>  (1) 
G03DA04#G03FA04

>  <Ligand ID>  (1) 
STR

>  <Target Name>  (1) 
Estrogen receptor

>  <UniProt ID>  (1) 
P03372

>  <PDB ID.1>  (1) 
4FN9

>  <Seq. Identity>  (1) 
32%

$$$$
