PDB_DB00491_03
     RDKit          3D

 31 31  0  0  0  0  0  0  0  0999 V2000
    2.7589    1.9197   -0.6079 O   0  0  0  0  0  0  0  0  0  0  0  0
    0.7030   -2.9195   -0.7097 O   0  0  0  0  0  0  0  0  0  0  0  0
   -1.1158    2.6882   -0.6281 O   0  0  0  0  0  0  0  0  0  0  0  0
   -3.3351    0.8901    0.2847 O   0  0  0  0  0  0  0  0  0  0  0  0
   -1.6644   -0.5846    2.3433 O   0  0  0  0  0  0  0  0  0  0  0  0
    2.8208    0.9073    0.3189 C   0  0  0  0  0  0  0  0  0  0  0  0
   -0.4553   -2.2695   -0.3602 C   0  0  0  0  0  0  0  0  0  0  0  0
    1.9487   -0.2712    0.0315 C   0  0  0  0  0  0  0  0  0  0  0  0
    0.0198    0.6712   -1.1237 C   0  0  0  0  0  0  0  0  0  0  0  0
   -1.3010    1.2897   -0.7568 C   0  0  1  0  0  0  0  0  0  0  0  0
   -1.9341    0.8084    0.4856 C   0  0  2  0  0  0  0  0  0  0  0  0
   -1.6075   -0.5587    0.9294 C   0  0  1  0  0  0  0  0  0  0  0  0
   -0.2496   -1.0592    0.5279 C   0  0  2  0  0  0  0  0  0  0  0  0
    0.5628   -0.0498   -0.0500 N   0  0  0  0  0  0  0  0  0  0  0  0
    3.6096    2.4363   -0.5263 H   0  0  0  0  0  0  0  0  0  0  0  0
    0.6445   -3.1113   -1.6871 H   0  0  0  0  0  0  0  0  0  0  0  0
   -0.4043    3.0004   -1.2472 H   0  0  0  0  0  0  0  0  0  0  0  0
   -3.8186    0.7083    1.1118 H   0  0  0  0  0  0  0  0  0  0  0  0
   -0.8313   -0.9572    2.7296 H   0  0  0  0  0  0  0  0  0  0  0  0
    3.8835    0.5251    0.2954 H   0  0  0  0  0  0  0  0  0  0  0  0
    2.6915    1.2728    1.3644 H   0  0  0  0  0  0  0  0  0  0  0  0
   -1.0703   -3.0093    0.2381 H   0  0  0  0  0  0  0  0  0  0  0  0
   -1.0889   -2.0232   -1.2304 H   0  0  0  0  0  0  0  0  0  0  0  0
    2.1159   -0.9914    0.8928 H   0  0  0  0  0  0  0  0  0  0  0  0
    2.3822   -0.8205   -0.8405 H   0  0  0  0  0  0  0  0  0  0  0  0
    0.7038    1.4657   -1.4662 H   0  0  0  0  0  0  0  0  0  0  0  0
   -0.1309    0.0264   -2.0466 H   0  0  0  0  0  0  0  0  0  0  0  0
   -1.9803    1.1915   -1.6430 H   0  0  0  0  0  0  0  0  0  0  0  0
   -1.7537    1.5392    1.3263 H   0  0  0  0  0  0  0  0  0  0  0  0
   -2.4296   -1.2657    0.6207 H   0  0  0  0  0  0  0  0  0  0  0  0
    0.3258   -1.4492    1.4234 H   0  0  0  0  0  0  0  0  0  0  0  0
  1  6  1  0
  2  7  1  0
  6  8  1  0
  3 10  1  0
  9 10  1  0
  4 11  1  0
 10 11  1  0
  5 12  1  0
 11 12  1  0
  7 13  1  0
 12 13  1  0
  8 14  1  0
  9 14  1  0
 13 14  1  0
  1 15  1  0
  2 16  1  0
  3 17  1  0
  4 18  1  0
  5 19  1  0
  6 20  1  0
  6 21  1  0
  7 22  1  0
  7 23  1  0
  8 24  1  0
  8 25  1  0
  9 26  1  0
  9 27  1  0
 10 28  1  6
 11 29  1  1
 12 30  1  6
 13 31  1  1
M  END
>  <PDBID>  (1) 
3L4W

>  <PDB ID>  (1) 
3L4W

>  <Generic Name>  (1) 
Miglitol

>  <Brand Name>  (1) 
Glyset#Miglitol#Diaban#Diamig#Diaset#Diastabol#Elitox#Euglitol#Glycet#Laiping#Migbose#Miglit#Mignar#Migtor#Misobit#Plumarol#Seibule

>  <DrugBank ID>  (1) 
DB00491

>  <ATC Codes>  (1) 
A10BF02

>  <Ligand ID>  (1) 
MIG

>  <Target Name>  (1) 
Maltase-glucoamylase, intestinal

>  <UniProt ID>  (1) 
O43451

>  <PDB ID.1>  (1) 
3L4W

>  <Seq. Identity>  (1) 
99%

$$$$
