PDB_DB01586_00
     RDKit          3D

140146  0  0  0  0  0  0  0  0999 V2000
    3.1254    0.9779    2.8992 C   0  0  0  0  0  0  0  0  0  0  0  0
    2.6334    1.0859    1.4725 C   0  0  1  0  0  0  0  0  0  0  0  0
    0.1424    1.4080    1.5049 C   0  0  0  0  0  0  0  0  0  0  0  0
   -1.1789    0.9390    1.0196 C   0  0  0  0  0  0  0  0  0  0  0  0
   -1.0765    0.2334   -0.3090 C   0  0  1  0  0  0  0  0  0  0  0  0
   -0.1505   -0.9637    0.0434 C   0  0  1  0  0  0  0  0  0  0  0  0
   -0.4358   -1.8838   -1.0761 C   0  0  0  0  0  0  0  0  0  0  0  0
   -1.9747   -1.8845   -1.0051 C   0  0  0  0  0  0  0  0  0  0  0  0
   -2.3122   -0.4370   -0.7564 C   0  0  2  0  0  0  0  0  0  0  0  0
   -0.3886    1.1000   -1.3102 C   0  0  0  0  0  0  0  0  0  0  0  0
    2.5409    2.5993    1.2030 C   0  0  0  0  0  0  0  0  0  0  0  0
    2.0757   -2.6135   -0.4250 O   0  0  0  0  0  0  0  0  0  0  0  0
    6.2077   -0.8324    2.0018 O   0  0  0  0  0  0  0  0  0  0  0  0
    4.2956    0.0710    3.0806 C   0  0  0  0  0  0  0  0  0  0  0  0
   -3.0272    0.1824   -1.9034 C   0  0  2  0  0  0  0  0  0  0  0  0
   -3.5198    1.5721   -1.7147 C   0  0  0  0  0  0  0  0  0  0  0  0
   -4.2203   -0.6470   -2.3695 C   0  0  0  0  0  0  0  0  0  0  0  0
   -5.2482   -0.8536   -1.3023 C   0  0  0  0  0  0  0  0  0  0  0  0
   -6.3895   -1.6892   -1.8641 C   0  0  0  0  0  0  0  0  0  0  0  0
    5.4393    0.3324    2.1638 C   0  0  2  0  0  0  0  0  0  0  0  0
    5.0344    0.9229    0.8435 C   0  0  0  0  0  0  0  0  0  0  0  0
   -5.9639   -2.9267   -2.3000 O   0  0  0  0  0  0  0  0  0  0  0  0
   -7.0064   -0.9887   -2.9222 O   0  0  0  0  0  0  0  0  0  0  0  0
    3.6167    0.5540    0.4715 C   0  0  1  0  0  0  0  0  0  0  0  0
    3.5807   -0.9024    0.2314 C   0  0  0  0  0  0  0  0  0  0  0  0
    2.2268   -1.5399    0.4130 C   0  0  1  0  0  0  0  0  0  0  0  0
    1.2166   -0.4129    0.1346 C   0  0  2  0  0  0  0  0  0  0  0  0
    1.2690    0.4549    1.3734 C   0  0  1  0  0  0  0  0  0  0  0  0
    3.1254    0.9779    2.8992 C   0  0  0  0  0  0  0  0  0  0  0  0
    2.6334    1.0859    1.4725 C   0  0  1  0  0  0  0  0  0  0  0  0
    0.1424    1.4080    1.5049 C   0  0  0  0  0  0  0  0  0  0  0  0
   -1.1789    0.9390    1.0196 C   0  0  0  0  0  0  0  0  0  0  0  0
   -1.0765    0.2334   -0.3090 C   0  0  1  0  0  0  0  0  0  0  0  0
   -0.1505   -0.9637    0.0434 C   0  0  1  0  0  0  0  0  0  0  0  0
   -0.4358   -1.8838   -1.0761 C   0  0  0  0  0  0  0  0  0  0  0  0
   -1.9747   -1.8845   -1.0051 C   0  0  0  0  0  0  0  0  0  0  0  0
   -2.3122   -0.4370   -0.7564 C   0  0  2  0  0  0  0  0  0  0  0  0
   -0.3886    1.1000   -1.3102 C   0  0  0  0  0  0  0  0  0  0  0  0
    2.5409    2.5993    1.2030 C   0  0  0  0  0  0  0  0  0  0  0  0
    2.0757   -2.6135   -0.4250 O   0  0  0  0  0  0  0  0  0  0  0  0
    6.2077   -0.8324    2.0018 O   0  0  0  0  0  0  0  0  0  0  0  0
    4.2956    0.0710    3.0806 C   0  0  0  0  0  0  0  0  0  0  0  0
   -3.0272    0.1824   -1.9034 C   0  0  2  0  0  0  0  0  0  0  0  0
   -3.5198    1.5721   -1.7147 C   0  0  0  0  0  0  0  0  0  0  0  0
   -4.2203   -0.6470   -2.3695 C   0  0  0  0  0  0  0  0  0  0  0  0
   -5.2482   -0.8536   -1.3023 C   0  0  0  0  0  0  0  0  0  0  0  0
   -6.3895   -1.6892   -1.8641 C   0  0  0  0  0  0  0  0  0  0  0  0
    5.4393    0.3324    2.1638 C   0  0  2  0  0  0  0  0  0  0  0  0
    5.0344    0.9229    0.8435 C   0  0  0  0  0  0  0  0  0  0  0  0
   -5.9639   -2.9267   -2.3000 O   0  0  0  0  0  0  0  0  0  0  0  0
   -7.0064   -0.9887   -2.9222 O   0  0  0  0  0  0  0  0  0  0  0  0
    3.6167    0.5540    0.4715 C   0  0  1  0  0  0  0  0  0  0  0  0
    3.5807   -0.9024    0.2314 C   0  0  0  0  0  0  0  0  0  0  0  0
    2.2268   -1.5399    0.4130 C   0  0  1  0  0  0  0  0  0  0  0  0
    1.2166   -0.4129    0.1346 C   0  0  2  0  0  0  0  0  0  0  0  0
    1.2690    0.4549    1.3734 C   0  0  1  0  0  0  0  0  0  0  0  0
    3.3856    1.9531    3.3596 H   0  0  0  0  0  0  0  0  0  0  0  0
    2.3015    0.5707    3.5557 H   0  0  0  0  0  0  0  0  0  0  0  0
    0.3191    2.4241    1.0793 H   0  0  0  0  0  0  0  0  0  0  0  0
    0.0207    1.6128    2.6135 H   0  0  0  0  0  0  0  0  0  0  0  0
   -1.5744    0.1674    1.7470 H   0  0  0  0  0  0  0  0  0  0  0  0
   -1.8742    1.7676    1.0739 H   0  0  0  0  0  0  0  0  0  0  0  0
   -0.4427   -1.4145    0.9938 H   0  0  0  0  0  0  0  0  0  0  0  0
   -0.1782   -1.4955   -2.0677 H   0  0  0  0  0  0  0  0  0  0  0  0
   -0.1655   -2.9478   -0.9192 H   0  0  0  0  0  0  0  0  0  0  0  0
   -2.2034   -2.4672   -0.0895 H   0  0  0  0  0  0  0  0  0  0  0  0
   -2.3866   -2.3194   -1.9042 H   0  0  0  0  0  0  0  0  0  0  0  0
   -3.0310   -0.4099    0.1231 H   0  0  0  0  0  0  0  0  0  0  0  0
   -1.0782    1.8265   -1.7440 H   0  0  0  0  0  0  0  0  0  0  0  0
    0.3967    1.6944   -0.8088 H   0  0  0  0  0  0  0  0  0  0  0  0
    0.1252    0.5283   -2.1112 H   0  0  0  0  0  0  0  0  0  0  0  0
    2.2453    2.8362    0.1859 H   0  0  0  0  0  0  0  0  0  0  0  0
    1.9843    3.1173    2.0076 H   0  0  0  0  0  0  0  0  0  0  0  0
    3.5962    2.9898    1.3150 H   0  0  0  0  0  0  0  0  0  0  0  0
    1.9752   -3.4580    0.0905 H   0  0  0  0  0  0  0  0  0  0  0  0
    6.6739   -0.7394    1.1263 H   0  0  0  0  0  0  0  0  0  0  0  0
    4.6745    0.2657    4.1288 H   0  0  0  0  0  0  0  0  0  0  0  0
    3.9906   -1.0154    3.1236 H   0  0  0  0  0  0  0  0  0  0  0  0
   -2.3189    0.1086   -2.7958 H   0  0  0  0  0  0  0  0  0  0  0  0
   -4.6560    1.6289   -1.7353 H   0  0  0  0  0  0  0  0  0  0  0  0
   -3.2430    2.0888   -0.8047 H   0  0  0  0  0  0  0  0  0  0  0  0
   -3.2447    2.1909   -2.6146 H   0  0  0  0  0  0  0  0  0  0  0  0
   -3.9542   -1.5446   -2.9230 H   0  0  0  0  0  0  0  0  0  0  0  0
   -4.7203    0.0213   -3.1389 H   0  0  0  0  0  0  0  0  0  0  0  0
   -4.8662   -1.4137   -0.4256 H   0  0  0  0  0  0  0  0  0  0  0  0
   -5.6717    0.0838   -0.9315 H   0  0  0  0  0  0  0  0  0  0  0  0
   -7.1838   -1.8505   -1.1086 H   0  0  0  0  0  0  0  0  0  0  0  0
    6.1512    1.0754    2.6313 H   0  0  0  0  0  0  0  0  0  0  0  0
    5.2696    1.9827    0.7597 H   0  0  0  0  0  0  0  0  0  0  0  0
    5.6810    0.4145    0.0666 H   0  0  0  0  0  0  0  0  0  0  0  0
   -5.8054   -2.9621   -3.2866 H   0  0  0  0  0  0  0  0  0  0  0  0
   -7.1632   -0.0694   -2.5649 H   0  0  0  0  0  0  0  0  0  0  0  0
    3.4042    1.0878   -0.4931 H   0  0  0  0  0  0  0  0  0  0  0  0
    3.8570   -1.0841   -0.8503 H   0  0  0  0  0  0  0  0  0  0  0  0
    4.3176   -1.5029    0.8019 H   0  0  0  0  0  0  0  0  0  0  0  0
    2.0989   -1.8266    1.4770 H   0  0  0  0  0  0  0  0  0  0  0  0
    1.5918    0.0655   -0.7731 H   0  0  0  0  0  0  0  0  0  0  0  0
    1.1890   -0.2755    2.2325 H   0  0  0  0  0  0  0  0  0  0  0  0
    3.3856    1.9531    3.3596 H   0  0  0  0  0  0  0  0  0  0  0  0
    2.3015    0.5707    3.5557 H   0  0  0  0  0  0  0  0  0  0  0  0
    0.3191    2.4241    1.0793 H   0  0  0  0  0  0  0  0  0  0  0  0
    0.0207    1.6128    2.6135 H   0  0  0  0  0  0  0  0  0  0  0  0
   -1.5744    0.1674    1.7470 H   0  0  0  0  0  0  0  0  0  0  0  0
   -1.8742    1.7676    1.0739 H   0  0  0  0  0  0  0  0  0  0  0  0
   -0.4427   -1.4145    0.9938 H   0  0  0  0  0  0  0  0  0  0  0  0
   -0.1782   -1.4955   -2.0677 H   0  0  0  0  0  0  0  0  0  0  0  0
   -0.1655   -2.9478   -0.9192 H   0  0  0  0  0  0  0  0  0  0  0  0
   -2.2034   -2.4672   -0.0895 H   0  0  0  0  0  0  0  0  0  0  0  0
   -2.3866   -2.3194   -1.9042 H   0  0  0  0  0  0  0  0  0  0  0  0
   -3.0310   -0.4099    0.1231 H   0  0  0  0  0  0  0  0  0  0  0  0
   -1.0782    1.8265   -1.7440 H   0  0  0  0  0  0  0  0  0  0  0  0
    0.3967    1.6944   -0.8088 H   0  0  0  0  0  0  0  0  0  0  0  0
    0.1252    0.5283   -2.1112 H   0  0  0  0  0  0  0  0  0  0  0  0
    2.2453    2.8362    0.1859 H   0  0  0  0  0  0  0  0  0  0  0  0
    1.9843    3.1173    2.0076 H   0  0  0  0  0  0  0  0  0  0  0  0
    3.5962    2.9898    1.3150 H   0  0  0  0  0  0  0  0  0  0  0  0
    1.9752   -3.4580    0.0905 H   0  0  0  0  0  0  0  0  0  0  0  0
    6.6739   -0.7394    1.1263 H   0  0  0  0  0  0  0  0  0  0  0  0
    4.6745    0.2657    4.1288 H   0  0  0  0  0  0  0  0  0  0  0  0
    3.9906   -1.0154    3.1236 H   0  0  0  0  0  0  0  0  0  0  0  0
   -2.3189    0.1086   -2.7958 H   0  0  0  0  0  0  0  0  0  0  0  0
   -4.6560    1.6289   -1.7353 H   0  0  0  0  0  0  0  0  0  0  0  0
   -3.2430    2.0888   -0.8047 H   0  0  0  0  0  0  0  0  0  0  0  0
   -3.2447    2.1909   -2.6146 H   0  0  0  0  0  0  0  0  0  0  0  0
   -3.9542   -1.5446   -2.9230 H   0  0  0  0  0  0  0  0  0  0  0  0
   -4.7203    0.0213   -3.1389 H   0  0  0  0  0  0  0  0  0  0  0  0
   -4.8662   -1.4137   -0.4256 H   0  0  0  0  0  0  0  0  0  0  0  0
   -5.6717    0.0838   -0.9315 H   0  0  0  0  0  0  0  0  0  0  0  0
   -7.1838   -1.8505   -1.1086 H   0  0  0  0  0  0  0  0  0  0  0  0
    6.1512    1.0754    2.6313 H   0  0  0  0  0  0  0  0  0  0  0  0
    5.2696    1.9827    0.7597 H   0  0  0  0  0  0  0  0  0  0  0  0
    5.6810    0.4145    0.0666 H   0  0  0  0  0  0  0  0  0  0  0  0
   -5.8054   -2.9621   -3.2866 H   0  0  0  0  0  0  0  0  0  0  0  0
   -7.1632   -0.0694   -2.5649 H   0  0  0  0  0  0  0  0  0  0  0  0
    3.4042    1.0878   -0.4931 H   0  0  0  0  0  0  0  0  0  0  0  0
    3.8570   -1.0841   -0.8503 H   0  0  0  0  0  0  0  0  0  0  0  0
    4.3176   -1.5029    0.8019 H   0  0  0  0  0  0  0  0  0  0  0  0
    2.0989   -1.8266    1.4770 H   0  0  0  0  0  0  0  0  0  0  0  0
    1.5918    0.0655   -0.7731 H   0  0  0  0  0  0  0  0  0  0  0  0
    1.1890   -0.2755    2.2325 H   0  0  0  0  0  0  0  0  0  0  0  0
  1  2  1  0
  3  4  1  0
  4  5  1  0
  5  6  1  0
  6  7  1  0
  7  8  1  0
  5  9  1  0
  8  9  1  0
  5 10  1  6
  2 11  1  6
  1 14  1  0
  9 15  1  0
 15 16  1  0
 15 17  1  0
 17 18  1  0
 18 19  1  0
 13 20  1  0
 14 20  1  0
 20 21  1  0
 19 22  1  0
 19 23  1  0
  2 24  1  0
 21 24  1  0
 24 25  1  0
 12 26  1  0
 25 26  1  0
  6 27  1  0
 26 27  1  0
  2 28  1  0
  3 28  1  0
 27 28  1  0
 29 30  1  0
 31 32  1  0
 32 33  1  0
 33 34  1  0
 34 35  1  0
 35 36  1  0
 33 37  1  0
 36 37  1  0
 33 38  1  6
 30 39  1  6
 29 42  1  0
 37 43  1  0
 43 44  1  0
 43 45  1  0
 45 46  1  0
 46 47  1  0
 41 48  1  0
 42 48  1  0
 48 49  1  0
 47 50  1  0
 47 51  1  0
 30 52  1  0
 49 52  1  0
 52 53  1  0
 40 54  1  0
 53 54  1  0
 34 55  1  0
 54 55  1  0
 30 56  1  0
 31 56  1  0
 55 56  1  0
  1 57  1  0
  1 58  1  0
  3 59  1  0
  3 60  1  0
  4 61  1  0
  4 62  1  0
  6 63  1  1
  7 64  1  0
  7 65  1  0
  8 66  1  0
  8 67  1  0
  9 68  1  1
 10 69  1  0
 10 70  1  0
 10 71  1  0
 11 72  1  0
 11 73  1  0
 11 74  1  0
 12 75  1  0
 13 76  1  0
 14 77  1  0
 14 78  1  0
 15 79  1  6
 16 80  1  0
 16 81  1  0
 16 82  1  0
 17 83  1  0
 17 84  1  0
 18 85  1  0
 18 86  1  0
 19 87  1  0
 20 88  1  1
 21 89  1  0
 21 90  1  0
 22 91  1  0
 23 92  1  0
 24 93  1  6
 25 94  1  0
 25 95  1  0
 26 96  1  1
 27 97  1  6
 28 98  1  1
 29 99  1  0
 29100  1  0
 31101  1  0
 31102  1  0
 32103  1  0
 32104  1  0
 34105  1  1
 35106  1  0
 35107  1  0
 36108  1  0
 36109  1  0
 37110  1  1
 38111  1  0
 38112  1  0
 38113  1  0
 39114  1  0
 39115  1  0
 39116  1  0
 40117  1  0
 41118  1  0
 42119  1  0
 42120  1  0
 43121  1  6
 44122  1  0
 44123  1  0
 44124  1  0
 45125  1  0
 45126  1  0
 46127  1  0
 46128  1  0
 47129  1  0
 48130  1  1
 49131  1  0
 49132  1  0
 50133  1  0
 51134  1  0
 52135  1  6
 53136  1  0
 53137  1  0
 54138  1  1
 55139  1  6
 56140  1  1
M  END
>  <PDBID>  (1) 
1IHI

>  <PDB ID>  (1) 
1IHI

>  <Generic Name>  (1) 
Ursodeoxycholic acid

>  <Brand Name>  (1) 
Actigall#Dom-ursodiol C#Mint-ursodiol#Novo-ursodiol#PHL-ursodiol C#PMS-ursodiol#PMS-ursodiol C#Pendo-ursodiol C#Urso#Urso 250#Urso DS#Urso Forte#Ursodiol#Ursodiol Tablets USP#Ursodiol Tablets, 250 mg#Ursodiol Tablets, 500 mg#Ursofalk#Cholit-ursan#Delursan#Destolit#Deursil#Litursol#Solutrat#Ursacol#Ursochol#Ursolvan

>  <DrugBank ID>  (1) 
DB01586

>  <ATC Codes>  (1) 
A05AA02

>  <Ligand ID>  (1) 
IU5,JN3

>  <Target Name>  (1) 
Aldo-keto reductase family 1 member C2

>  <UniProt ID>  (1) 
P52895

>  <PDB ID.1>  (1) 
1IHI

>  <Seq. Identity>  (1) 
100%

$$$$
