PDB_DB06290_05
     RDKit          3D

492516  0  0  0  0  0  0  0  0999 V2000
   -0.0122    2.7986   -0.3245 C   0  0  0  0  0  0  0  0  0  0  0  0
   -1.1460    2.5388    0.6836 C   0  0  2  0  0  0  0  0  0  0  0  0
   -1.7214    1.2404    0.1781 C   0  0  1  0  0  0  0  0  0  0  0  0
   -0.6450    0.5610   -0.6310 C   0  0  0  0  0  0  0  0  0  0  0  0
    0.5673    1.4372   -0.4310 C   0  0  1  0  0  0  0  0  0  0  0  0
   -2.1358    0.2854    1.2764 C   0  0  1  0  0  0  0  0  0  0  0  0
   -1.6896    0.9049    2.4757 O   0  0  0  0  0  0  0  0  0  0  0  0
   -3.5274    0.1008    1.4262 N   0  0  0  0  0  0  0  0  0  0  0  0
   -2.0626    3.7038    0.6524 C   0  0  0  0  0  0  0  0  0  0  0  0
   -1.3154    4.8941    0.4766 O   0  0  0  0  0  0  0  0  0  0  0  0
   -4.7900   -0.6539   -0.3984 C   0  0  1  0  0  0  0  0  0  0  0  0
   -5.0218   -1.7767    1.9297 C   0  0  0  0  0  0  0  0  0  0  0  0
   -3.1067    3.7002   -0.3122 N   0  0  0  0  0  0  0  0  0  0  0  0
   -4.2014    4.5417    0.2107 C   0  0  0  0  0  0  0  0  0  0  0  0
   -2.7779    4.1943   -1.6128 C   0  0  0  0  0  0  0  0  0  0  0  0
   -4.1400   -1.0662    0.9138 C   0  0  2  0  0  0  0  0  0  0  0  0
   -3.8540   -1.7642   -0.3244 C   0  0  0  0  0  0  0  0  0  0  0  0
   -6.2565   -0.6848   -0.2468 C   0  0  0  0  0  0  0  0  0  0  0  0
   -5.5455    4.0494   -0.3368 C   0  0  0  0  0  0  0  0  0  0  0  0
   -5.3152    2.5554   -0.6082 C   0  0  0  0  0  0  0  0  0  0  0  0
   -6.5746    1.7737   -0.7743 C   0  0  0  0  0  0  0  0  0  0  0  0
   -6.7293    0.6782    0.2571 C   0  0  0  0  0  0  0  0  0  0  0  0
    1.3978    1.2048   -1.5009 O   0  0  0  0  0  0  0  0  0  0  0  0
    5.8337    3.0162   -0.5782 C   0  0  0  0  0  0  0  0  0  0  0  0
    4.4056    3.4048   -0.2521 C   0  0  0  0  0  0  0  0  0  0  0  0
    3.6062    3.1324   -1.5078 C   0  0  0  0  0  0  0  0  0  0  0  0
    3.6686    1.6858   -1.9474 C   0  0  0  0  0  0  0  0  0  0  0  0
    5.0639    1.1673   -2.0202 C   0  0  0  0  0  0  0  0  0  0  0  0
    5.9578    1.5435   -0.8655 C   0  0  0  0  0  0  0  0  0  0  0  0
    2.6803    0.8195   -1.2396 C   0  0  0  0  0  0  0  0  0  0  0  0
    2.7929   -0.6404   -1.6613 C   0  0  0  0  0  0  0  0  0  0  0  0
    4.1666   -1.1075   -1.9422 C   0  0  1  0  0  0  0  0  0  0  0  0
    5.1106   -0.1811   -2.4089 N   0  0  0  0  0  0  0  0  0  0  0  0
    4.7019   -1.8144   -0.7225 C   0  0  1  0  0  0  0  0  0  0  0  0
    3.6575   -3.2785   -0.3017 S   0  0  0  0  0  0  0  0  0  0  0  0
    5.0514   -4.3708    0.2226 C   0  0  0  0  0  0  0  0  0  0  0  0
    6.1644   -3.3374    0.1946 C   0  0  2  0  0  0  0  0  0  0  0  0
    5.9580   -2.5140   -0.9813 N   0  0  0  0  0  0  0  0  0  0  0  0
    7.5330   -3.9096    0.2054 C   0  0  0  0  0  0  0  0  0  0  0  0
    7.8401   -4.8125   -0.9549 C   0  0  0  0  0  0  0  0  0  0  0  0
    7.7454   -4.6938    1.4833 C   0  0  0  0  0  0  0  0  0  0  0  0
    6.6322    3.3673    0.4810 O   0  0  0  0  0  0  0  0  0  0  0  0
    7.5881    4.3243    0.2000 C   0  0  0  0  0  0  0  0  0  0  0  0
    7.3912    1.3246   -1.3722 C   0  0  0  0  0  0  0  0  0  0  0  0
   -5.3776   -3.0861    1.4105 N   0  0  0  0  0  0  0  0  0  0  0  0
   -4.1472   -2.0715    3.0084 O   0  0  0  0  0  0  0  0  0  0  0  0
   -6.4030   -3.9669    2.2402 S   0  0  0  0  0  0  0  0  0  0  0  0
   -7.1309   -5.0685    0.9789 C   0  0  0  0  0  0  0  0  0  0  0  0
   -7.3147   -3.6292    3.2402 O   0  0  0  0  0  0  0  0  0  0  0  0
   -5.3117   -5.3326    2.9456 O   0  0  0  0  0  0  0  0  0  0  0  0
   -8.5244   -5.4734    1.1578 C   0  0  0  0  0  0  0  0  0  0  0  0
   -8.1662   -4.4159    0.1131 C   0  0  0  0  0  0  0  0  0  0  0  0
    0.1845    2.3351    0.2775 C   0  0  0  0  0  0  0  0  0  0  0  0
   -1.2125    1.7965    0.6194 C   0  0  2  0  0  0  0  0  0  0  0  0
   -1.2670    0.4113    0.1400 C   0  0  1  0  0  0  0  0  0  0  0  0
    0.1832   -0.0604   -0.0134 C   0  0  0  0  0  0  0  0  0  0  0  0
    1.0638    1.1649    0.0875 C   0  0  1  0  0  0  0  0  0  0  0  0
   -1.8939   -0.6201    1.0015 C   0  0  0  0  0  0  0  0  0  0  0  0
   -0.9420   -0.8913    2.0310 O   0  0  0  0  0  0  0  0  0  0  0  0
   -3.1099   -0.4961    1.6159 N   0  0  0  0  0  0  0  0  0  0  0  0
   -2.2313    2.7813    0.2749 C   0  0  0  0  0  0  0  0  0  0  0  0
   -1.7730    4.0347    0.7714 O   0  0  0  0  0  0  0  0  0  0  0  0
   -5.1854   -0.0147    0.5197 C   0  0  1  0  0  0  0  0  0  0  0  0
   -4.8166   -2.2910    1.7110 C   0  0  2  0  0  0  0  0  0  0  0  0
   -2.7441    2.9394   -1.0234 N   0  0  0  0  0  0  0  0  0  0  0  0
   -3.6197    4.1276   -1.1453 C   0  0  0  0  0  0  0  0  0  0  0  0
   -1.7974    3.1193   -2.0997 C   0  0  0  0  0  0  0  0  0  0  0  0
   -4.2958   -1.1049    0.9753 C   0  0  2  0  0  0  0  0  0  0  0  0
   -4.5122   -0.8677   -0.4510 C   0  0  0  0  0  0  0  0  0  0  0  0
   -6.6611   -0.1465    0.5737 C   0  0  0  0  0  0  0  0  0  0  0  0
   -4.9791    3.6960   -1.7589 C   0  0  0  0  0  0  0  0  0  0  0  0
   -5.3030    2.5051   -0.8354 C   0  0  0  0  0  0  0  0  0  0  0  0
   -6.5534    1.7888   -1.0845 C   0  0  0  0  0  0  0  0  0  0  0  0
   -7.2393    1.1932    0.0952 C   0  0  0  0  0  0  0  0  0  0  0  0
    1.8674    1.1459   -1.0269 O   0  0  0  0  0  0  0  0  0  0  0  0
    5.6040    3.7865    0.3681 C   0  0  0  0  0  0  0  0  0  0  0  0
    4.0915    3.8107    0.4430 C   0  0  0  0  0  0  0  0  0  0  0  0
    3.5165    3.4623   -0.9165 C   0  0  0  0  0  0  0  0  0  0  0  0
    3.9399    2.1314   -1.4314 C   0  0  0  0  0  0  0  0  0  0  0  0
    5.4296    1.9767   -1.3567 C   0  0  0  0  0  0  0  0  0  0  0  0
    6.0515    2.4075   -0.0582 C   0  0  0  0  0  0  0  0  0  0  0  0
    3.2018    0.9518   -0.8555 C   0  0  0  0  0  0  0  0  0  0  0  0
    3.7076   -0.3471   -1.4524 C   0  0  0  0  0  0  0  0  0  0  0  0
    5.1815   -0.4426   -1.5403 C   0  0  0  0  0  0  0  0  0  0  0  0
    5.9376    0.7180   -1.7596 N   0  0  0  0  0  0  0  0  0  0  0  0
    5.6719   -1.0881   -0.2353 C   0  0  0  0  0  0  0  0  0  0  0  0
    7.4915   -1.2169   -0.2287 S   0  0  0  0  0  0  0  0  0  0  0  0
    7.5736   -2.9259   -0.8937 C   0  0  0  0  0  0  0  0  0  0  0  0
    6.1338   -3.2656   -1.0034 C   0  0  0  0  0  0  0  0  0  0  0  0
    5.3179   -2.4832   -0.1727 N   0  0  0  0  0  0  0  0  0  0  0  0
    6.0129   -4.7275   -0.5427 C   0  0  0  0  0  0  0  0  0  0  0  0
    4.6031   -5.2290   -0.5906 C   0  0  0  0  0  0  0  0  0  0  0  0
    6.5176   -4.8541    0.8784 C   0  0  0  0  0  0  0  0  0  0  0  0
    6.0699    3.9745    1.6737 O   0  0  0  0  0  0  0  0  0  0  0  0
    6.9106    5.0631    1.7505 C   0  0  0  0  0  0  0  0  0  0  0  0
    7.5598    2.5511   -0.3390 C   0  0  0  0  0  0  0  0  0  0  0  0
   -5.7436   -3.0255    0.9085 N   0  0  0  0  0  0  0  0  0  0  0  0
   -5.2374   -2.0326    3.0087 O   0  0  0  0  0  0  0  0  0  0  0  0
   -6.4574   -4.3000    1.5492 S   0  0  0  0  0  0  0  0  0  0  0  0
   -7.3546   -5.0406    0.1673 C   0  0  0  0  0  0  0  0  0  0  0  0
   -7.3207   -4.2241    2.7517 O   0  0  0  0  0  0  0  0  0  0  0  0
   -5.2850   -5.5647    1.7695 O   0  0  0  0  0  0  0  0  0  0  0  0
   -8.6550   -5.6538    0.4429 C   0  0  0  0  0  0  0  0  0  0  0  0
   -8.6237   -4.3037   -0.1999 C   0  0  0  0  0  0  0  0  0  0  0  0
    0.0891    2.3319    1.1353 C   0  0  0  0  0  0  0  0  0  0  0  0
   -1.3944    1.9221    1.1513 C   0  0  2  0  0  0  0  0  0  0  0  0
   -1.4610    0.5395    0.6873 C   0  0  1  0  0  0  0  0  0  0  0  0
   -0.0457   -0.0186    0.8387 C   0  0  0  0  0  0  0  0  0  0  0  0
    0.8985    1.1862    0.7276 C   0  0  1  0  0  0  0  0  0  0  0  0
   -2.3041   -0.4395    1.4167 C   0  0  0  0  0  0  0  0  0  0  0  0
   -1.5818   -0.8057    2.5896 O   0  0  0  0  0  0  0  0  0  0  0  0
   -3.5954   -0.2094    1.8269 N   0  0  0  0  0  0  0  0  0  0  0  0
   -2.2103    2.9840    0.5752 C   0  0  0  0  0  0  0  0  0  0  0  0
   -1.5685    4.2223    0.8635 O   0  0  0  0  0  0  0  0  0  0  0  0
   -5.3749    0.3757    0.3374 C   0  0  1  0  0  0  0  0  0  0  0  0
   -5.3815   -1.9130    1.5949 C   0  0  2  0  0  0  0  0  0  0  0  0
   -2.6249    3.0314   -0.7611 N   0  0  0  0  0  0  0  0  0  0  0  0
   -3.2450    4.3306   -1.1192 C   0  0  0  0  0  0  0  0  0  0  0  0
   -1.6353    2.8441   -1.7918 C   0  0  0  0  0  0  0  0  0  0  0  0
   -4.7015   -0.7357    0.9907 C   0  0  2  0  0  0  0  0  0  0  0  0
   -4.6415   -0.5565   -0.4611 C   0  0  0  0  0  0  0  0  0  0  0  0
   -6.8652    0.3874    0.1460 C   0  0  0  0  0  0  0  0  0  0  0  0
   -4.5689    4.0736   -1.8880 C   0  0  0  0  0  0  0  0  0  0  0  0
   -5.1382    2.9346   -1.0227 C   0  0  0  0  0  0  0  0  0  0  0  0
   -6.3778    2.3017   -1.4691 C   0  0  0  0  0  0  0  0  0  0  0  0
   -7.2657    1.7746   -0.3773 C   0  0  0  0  0  0  0  0  0  0  0  0
    1.4615    1.1122   -0.4968 O   0  0  0  0  0  0  0  0  0  0  0  0
    5.4080    3.1475    0.6734 C   0  0  0  0  0  0  0  0  0  0  0  0
    3.9179    3.4202    0.7252 C   0  0  0  0  0  0  0  0  0  0  0  0
    3.2832    3.2174   -0.6346 C   0  0  0  0  0  0  0  0  0  0  0  0
    3.5707    1.8516   -1.1904 C   0  0  0  0  0  0  0  0  0  0  0  0
    5.0515    1.5442   -1.1591 C   0  0  0  0  0  0  0  0  0  0  0  0
    5.6808    1.7554    0.1884 C   0  0  0  0  0  0  0  0  0  0  0  0
    2.7524    0.7419   -0.5972 C   0  0  0  0  0  0  0  0  0  0  0  0
    3.0255   -0.5739   -1.2754 C   0  0  0  0  0  0  0  0  0  0  0  0
    4.4677   -0.7930   -1.5957 C   0  0  0  0  0  0  0  0  0  0  0  0
    5.2995    0.3104   -1.7830 N   0  0  0  0  0  0  0  0  0  0  0  0
    5.0623   -1.6974   -0.5332 C   0  0  0  0  0  0  0  0  0  0  0  0
    4.2198   -3.3306   -0.5007 S   0  0  0  0  0  0  0  0  0  0  0  0
    5.7367   -4.3521   -0.7435 C   0  0  0  0  0  0  0  0  0  0  0  0
    6.5534   -3.2645   -1.4628 C   0  0  1  0  0  0  0  0  0  0  0  0
    6.4169   -2.0573   -0.7422 N   0  0  0  0  0  0  0  0  0  0  0  0
    7.9780   -3.7107   -1.5112 C   0  0  0  0  0  0  0  0  0  0  0  0
    8.1290   -5.0320   -2.2692 C   0  0  0  0  0  0  0  0  0  0  0  0
    8.6150   -3.9215   -0.1725 C   0  0  0  0  0  0  0  0  0  0  0  0
    5.8332    3.1761    2.0222 O   0  0  0  0  0  0  0  0  0  0  0  0
    6.7307    4.2041    2.1676 C   0  0  0  0  0  0  0  0  0  0  0  0
    7.1750    1.6041    0.0337 C   0  0  0  0  0  0  0  0  0  0  0  0
   -6.2635   -2.5448    0.6464 N   0  0  0  0  0  0  0  0  0  0  0  0
   -5.9626   -1.6523    2.8236 O   0  0  0  0  0  0  0  0  0  0  0  0
   -7.0779   -3.8519    1.3431 S   0  0  0  0  0  0  0  0  0  0  0  0
   -7.7035   -4.8059    0.0968 C   0  0  0  0  0  0  0  0  0  0  0  0
   -7.7322   -3.7616    2.5712 O   0  0  0  0  0  0  0  0  0  0  0  0
   -5.4789   -4.9064    1.6260 O   0  0  0  0  0  0  0  0  0  0  0  0
   -8.7591   -5.8549    0.5615 C   0  0  0  0  0  0  0  0  0  0  0  0
   -9.0919   -4.7472   -0.3674 C   0  0  0  0  0  0  0  0  0  0  0  0
    0.1001    2.2478    0.2146 C   0  0  0  0  0  0  0  0  0  0  0  0
   -1.3475    1.8368    0.4908 C   0  0  2  0  0  0  0  0  0  0  0  0
   -1.5395    0.4984   -0.0700 C   0  0  1  0  0  0  0  0  0  0  0  0
   -0.1553   -0.0285   -0.3656 C   0  0  0  0  0  0  0  0  0  0  0  0
    0.8600    1.0415   -0.0931 C   0  0  1  0  0  0  0  0  0  0  0  0
   -2.1558   -0.5617    0.7786 C   0  0  0  0  0  0  0  0  0  0  0  0
   -2.3096   -1.7528    0.0321 O   0  0  0  0  0  0  0  0  0  0  0  0
   -3.2961   -0.3755    1.5320 N   0  0  0  0  0  0  0  0  0  0  0  0
   -2.2977    2.9240    0.1639 C   0  0  0  0  0  0  0  0  0  0  0  0
   -1.6945    4.1241    0.6263 O   0  0  0  0  0  0  0  0  0  0  0  0
   -5.3888    0.3666    0.5225 C   0  0  1  0  0  0  0  0  0  0  0  0
   -5.2795   -1.8816    1.8109 C   0  0  0  0  0  0  0  0  0  0  0  0
   -2.7945    3.0838   -1.1436 N   0  0  0  0  0  0  0  0  0  0  0  0
   -3.6078    4.3204   -1.2237 C   0  0  0  0  0  0  0  0  0  0  0  0
   -1.8288    3.2406   -2.2011 C   0  0  0  0  0  0  0  0  0  0  0  0
   -4.5858   -0.8536    0.9704 C   0  0  2  0  0  0  0  0  0  0  0  0
   -4.9111   -0.6076   -0.4197 C   0  0  0  0  0  0  0  0  0  0  0  0
   -6.8588    0.3653    0.7836 C   0  0  0  0  0  0  0  0  0  0  0  0
   -5.0244    3.9789   -1.7600 C   0  0  0  0  0  0  0  0  0  0  0  0
   -5.3934    2.8271   -0.8080 C   0  0  0  0  0  0  0  0  0  0  0  0
   -6.6319    2.0998   -1.0739 C   0  0  0  0  0  0  0  0  0  0  0  0
   -7.3974    1.6558    0.1483 C   0  0  0  0  0  0  0  0  0  0  0  0
    1.6942    1.0535   -1.2025 O   0  0  0  0  0  0  0  0  0  0  0  0
    5.3677    3.1731    0.6717 C   0  0  0  0  0  0  0  0  0  0  0  0
    3.8655    3.4045    0.4970 C   0  0  0  0  0  0  0  0  0  0  0  0
    3.4750    3.1470   -0.9502 C   0  0  0  0  0  0  0  0  0  0  0  0
    3.8911    1.8060   -1.4311 C   0  0  0  0  0  0  0  0  0  0  0  0
    5.3390    1.4985   -1.1074 C   0  0  0  0  0  0  0  0  0  0  0  0
    5.6981    1.7125    0.3299 C   0  0  0  0  0  0  0  0  0  0  0  0
    2.9879    0.7195   -0.9549 C   0  0  0  0  0  0  0  0  0  0  0  0
    3.3788   -0.6262   -1.5488 C   0  0  0  0  0  0  0  0  0  0  0  0
    4.8444   -0.8471   -1.6061 C   0  0  1  0  0  0  0  0  0  0  0  0
    5.6899    0.2665   -1.6802 N   0  0  0  0  0  0  0  0  0  0  0  0
    5.2675   -1.6987   -0.4261 C   0  0  1  0  0  0  0  0  0  0  0  0
    4.4158   -3.3275   -0.4510 S   0  0  0  0  0  0  0  0  0  0  0  0
    5.9451   -4.3595   -0.4255 C   0  0  0  0  0  0  0  0  0  0  0  0
    6.8622   -3.3059   -1.0748 C   0  0  0  0  0  0  0  0  0  0  0  0
    6.6360   -2.0713   -0.4147 N   0  0  0  0  0  0  0  0  0  0  0  0
    8.2995   -3.7073   -0.9144 C   0  0  0  0  0  0  0  0  0  0  0  0
    8.5637   -5.0548   -1.5782 C   0  0  0  0  0  0  0  0  0  0  0  0
    8.7738   -3.7884    0.4999 C   0  0  0  0  0  0  0  0  0  0  0  0
    5.6832    3.3453    1.9996 O   0  0  0  0  0  0  0  0  0  0  0  0
    6.5906    4.3978    2.1933 C   0  0  0  0  0  0  0  0  0  0  0  0
    7.2080    1.5870    0.4356 C   0  0  0  0  0  0  0  0  0  0  0  0
   -6.3776   -2.4692    1.0061 N   0  0  0  0  0  0  0  0  0  0  0  0
   -4.3857   -2.9638    1.9529 O   0  0  0  0  0  0  0  0  0  0  0  0
   -7.3159   -3.4811    1.7183 S   0  0  0  0  0  0  0  0  0  0  0  0
   -7.8776   -4.7483    0.7716 C   0  0  0  0  0  0  0  0  0  0  0  0
   -8.2473   -3.0193    2.8358 O   0  0  0  0  0  0  0  0  0  0  0  0
   -5.9641   -4.4317    2.7473 O   0  0  0  0  0  0  0  0  0  0  0  0
   -9.1144   -5.5149    1.3190 C   0  0  0  0  0  0  0  0  0  0  0  0
   -9.2381   -4.5975    0.1394 C   0  0  0  0  0  0  0  0  0  0  0  0
    0.6361    3.5474    0.1614 H   0  0  0  0  0  0  0  0  0  0  0  0
   -0.5083    3.1600   -1.2339 H   0  0  0  0  0  0  0  0  0  0  0  0
   -0.7530    2.3855    1.6986 H   0  0  0  0  0  0  0  0  0  0  0  0
   -2.5854    1.5370   -0.4598 H   0  0  0  0  0  0  0  0  0  0  0  0
   -0.8812    0.5803   -1.7221 H   0  0  0  0  0  0  0  0  0  0  0  0
   -0.4456   -0.4716   -0.2763 H   0  0  0  0  0  0  0  0  0  0  0  0
    1.1175    1.2379    0.5117 H   0  0  0  0  0  0  0  0  0  0  0  0
   -1.5457   -0.6532    1.2318 H   0  0  0  0  0  0  0  0  0  0  0  0
   -2.2826    0.6050    3.2372 H   0  0  0  0  0  0  0  0  0  0  0  0
   -3.9404    0.4846    2.2811 H   0  0  0  0  0  0  0  0  0  0  0  0
   -2.5459    3.8309    1.6694 H   0  0  0  0  0  0  0  0  0  0  0  0
   -1.7513    5.6259    0.9389 H   0  0  0  0  0  0  0  0  0  0  0  0
   -4.4248    0.2262   -0.9591 H   0  0  0  0  0  0  0  0  0  0  0  0
   -5.8350   -1.1916    2.3252 H   0  0  0  0  0  0  0  0  0  0  0  0
   -4.1013    5.5887   -0.0929 H   0  0  0  0  0  0  0  0  0  0  0  0
   -4.2719    4.4970    1.3025 H   0  0  0  0  0  0  0  0  0  0  0  0
   -1.9936    4.9829   -1.6165 H   0  0  0  0  0  0  0  0  0  0  0  0
   -3.6896    4.7274   -2.0191 H   0  0  0  0  0  0  0  0  0  0  0  0
   -2.5935    3.3941   -2.3578 H   0  0  0  0  0  0  0  0  0  0  0  0
   -4.2811   -2.7656   -0.5033 H   0  0  0  0  0  0  0  0  0  0  0  0
   -2.8648   -1.6727   -0.8557 H   0  0  0  0  0  0  0  0  0  0  0  0
   -6.7724   -0.8045   -1.2459 H   0  0  0  0  0  0  0  0  0  0  0  0
   -6.6955   -1.4399    0.3969 H   0  0  0  0  0  0  0  0  0  0  0  0
   -5.8039    4.5385   -1.2997 H   0  0  0  0  0  0  0  0  0  0  0  0
   -6.3626    4.2189    0.3625 H   0  0  0  0  0  0  0  0  0  0  0  0
   -4.7365    2.2317    0.3070 H   0  0  0  0  0  0  0  0  0  0  0  0
   -4.6747    2.5404   -1.5159 H   0  0  0  0  0  0  0  0  0  0  0  0
   -6.6742    1.3112   -1.7821 H   0  0  0  0  0  0  0  0  0  0  0  0
   -7.4327    2.4620   -0.6518 H   0  0  0  0  0  0  0  0  0  0  0  0
   -7.7957    0.5675    0.5230 H   0  0  0  0  0  0  0  0  0  0  0  0
   -6.1756    0.9889    1.1559 H   0  0  0  0  0  0  0  0  0  0  0  0
    6.1262    3.5996   -1.4874 H   0  0  0  0  0  0  0  0  0  0  0  0
    4.0086    2.9101    0.6309 H   0  0  0  0  0  0  0  0  0  0  0  0
    4.3979    4.5114   -0.1130 H   0  0  0  0  0  0  0  0  0  0  0  0
    4.0406    3.7529   -2.3221 H   0  0  0  0  0  0  0  0  0  0  0  0
    2.5752    3.4517   -1.3832 H   0  0  0  0  0  0  0  0  0  0  0  0
    3.3258    1.7476   -3.0394 H   0  0  0  0  0  0  0  0  0  0  0  0
    5.5390    1.7425   -2.8909 H   0  0  0  0  0  0  0  0  0  0  0  0
    5.8518    0.9528    0.0339 H   0  0  0  0  0  0  0  0  0  0  0  0
    2.9288    0.7963   -0.1567 H   0  0  0  0  0  0  0  0  0  0  0  0
    2.2787   -1.2712   -0.8742 H   0  0  0  0  0  0  0  0  0  0  0  0
    2.1658   -0.7601   -2.5632 H   0  0  0  0  0  0  0  0  0  0  0  0
    4.1089   -1.9245   -2.7344 H   0  0  0  0  0  0  0  0  0  0  0  0
    6.0251   -0.5899   -2.6074 H   0  0  0  0  0  0  0  0  0  0  0  0
    4.8210   -1.1728    0.1483 H   0  0  0  0  0  0  0  0  0  0  0  0
    4.8803   -4.7496    1.2307 H   0  0  0  0  0  0  0  0  0  0  0  0
    5.1801   -5.1426   -0.5533 H   0  0  0  0  0  0  0  0  0  0  0  0
    6.0479   -2.7032    1.0988 H   0  0  0  0  0  0  0  0  0  0  0  0
    6.7631   -1.8875   -1.0599 H   0  0  0  0  0  0  0  0  0  0  0  0
    8.2588   -3.0671    0.2394 H   0  0  0  0  0  0  0  0  0  0  0  0
    7.7631   -4.2932   -1.9322 H   0  0  0  0  0  0  0  0  0  0  0  0
    7.2618   -5.7409   -0.8918 H   0  0  0  0  0  0  0  0  0  0  0  0
    8.9261   -5.1013   -0.8566 H   0  0  0  0  0  0  0  0  0  0  0  0
    6.7914   -5.1736    1.7742 H   0  0  0  0  0  0  0  0  0  0  0  0
    7.9824   -3.9467    2.2909 H   0  0  0  0  0  0  0  0  0  0  0  0
    8.5619   -5.4359    1.3754 H   0  0  0  0  0  0  0  0  0  0  0  0
    7.1869    5.2903   -0.1520 H   0  0  0  0  0  0  0  0  0  0  0  0
    8.4034    3.9730   -0.4623 H   0  0  0  0  0  0  0  0  0  0  0  0
    8.0890    4.5591    1.1833 H   0  0  0  0  0  0  0  0  0  0  0  0
    7.6295    2.0492   -2.1846 H   0  0  0  0  0  0  0  0  0  0  0  0
    7.5837    0.2844   -1.6330 H   0  0  0  0  0  0  0  0  0  0  0  0
    8.0559    1.6004   -0.5158 H   0  0  0  0  0  0  0  0  0  0  0  0
   -4.4309   -3.5812    1.3150 H   0  0  0  0  0  0  0  0  0  0  0  0
   -3.3699   -2.5447    2.6175 H   0  0  0  0  0  0  0  0  0  0  0  0
   -6.4120   -5.7143    0.4685 H   0  0  0  0  0  0  0  0  0  0  0  0
   -7.6738   -2.7670    3.5122 H   0  0  0  0  0  0  0  0  0  0  0  0
   -4.8474   -5.5676    2.0813 H   0  0  0  0  0  0  0  0  0  0  0  0
   -9.1488   -5.1124    1.9995 H   0  0  0  0  0  0  0  0  0  0  0  0
   -8.8398   -6.4414    0.7443 H   0  0  0  0  0  0  0  0  0  0  0  0
   -8.5119   -3.3920    0.3082 H   0  0  0  0  0  0  0  0  0  0  0  0
   -8.2291   -4.7099   -0.9612 H   0  0  0  0  0  0  0  0  0  0  0  0
    0.5865    2.9090    1.1676 H   0  0  0  0  0  0  0  0  0  0  0  0
    0.1866    3.0511   -0.5380 H   0  0  0  0  0  0  0  0  0  0  0  0
   -1.1992    1.7149    1.7567 H   0  0  0  0  0  0  0  0  0  0  0  0
   -1.6423    0.4461   -0.9023 H   0  0  0  0  0  0  0  0  0  0  0  0
    0.3195   -0.6088   -0.9752 H   0  0  0  0  0  0  0  0  0  0  0  0
    0.4631   -0.8296    0.7508 H   0  0  0  0  0  0  0  0  0  0  0  0
    1.7583    0.9891    0.9644 H   0  0  0  0  0  0  0  0  0  0  0  0
   -1.8638   -1.5847    0.4087 H   0  0  0  0  0  0  0  0  0  0  0  0
   -1.1327   -1.7307    2.4896 H   0  0  0  0  0  0  0  0  0  0  0  0
   -3.3698    0.4477    1.9021 H   0  0  0  0  0  0  0  0  0  0  0  0
   -3.1414    2.6286    0.9433 H   0  0  0  0  0  0  0  0  0  0  0  0
   -1.0868    4.4396    0.2264 H   0  0  0  0  0  0  0  0  0  0  0  0
   -4.8845    0.9124    0.9955 H   0  0  0  0  0  0  0  0  0  0  0  0
   -3.9224   -2.9865    1.8412 H   0  0  0  0  0  0  0  0  0  0  0  0
   -3.1748    4.9419   -1.7020 H   0  0  0  0  0  0  0  0  0  0  0  0
   -3.8514    4.4814   -0.1213 H   0  0  0  0  0  0  0  0  0  0  0  0
   -1.2833    4.1168   -2.0605 H   0  0  0  0  0  0  0  0  0  0  0  0
   -2.4543    3.2338   -3.0256 H   0  0  0  0  0  0  0  0  0  0  0  0
   -1.1566    2.2791   -2.3286 H   0  0  0  0  0  0  0  0  0  0  0  0
   -5.1499   -1.6104   -0.9806 H   0  0  0  0  0  0  0  0  0  0  0  0
   -3.7455   -0.5086   -1.1656 H   0  0  0  0  0  0  0  0  0  0  0  0
   -7.0695   -0.8968   -0.1337 H   0  0  0  0  0  0  0  0  0  0  0  0
   -7.0474   -0.3322    1.5877 H   0  0  0  0  0  0  0  0  0  0  0  0
   -4.8511    3.3890   -2.7931 H   0  0  0  0  0  0  0  0  0  0  0  0
   -5.7120    4.4735   -1.5546 H   0  0  0  0  0  0  0  0  0  0  0  0
   -5.3545    3.0059    0.1320 H   0  0  0  0  0  0  0  0  0  0  0  0
   -4.3720    1.8954   -1.0221 H   0  0  0  0  0  0  0  0  0  0  0  0
   -6.3943    1.0105   -1.8671 H   0  0  0  0  0  0  0  0  0  0  0  0
   -7.3012    2.4969   -1.5534 H   0  0  0  0  0  0  0  0  0  0  0  0
   -8.3349    1.0695   -0.0481 H   0  0  0  0  0  0  0  0  0  0  0  0
   -7.1300    1.8973    0.9723 H   0  0  0  0  0  0  0  0  0  0  0  0
    6.0260    4.5603   -0.2725 H   0  0  0  0  0  0  0  0  0  0  0  0
    3.7731    3.1448    1.2508 H   0  0  0  0  0  0  0  0  0  0  0  0
    3.8063    4.8677    0.6468 H   0  0  0  0  0  0  0  0  0  0  0  0
    3.9637    4.2235   -1.6144 H   0  0  0  0  0  0  0  0  0  0  0  0
    2.4457    3.6537   -0.9299 H   0  0  0  0  0  0  0  0  0  0  0  0
    3.6932    2.1207   -2.5285 H   0  0  0  0  0  0  0  0  0  0  0  0
    5.8251    2.7248   -2.1191 H   0  0  0  0  0  0  0  0  0  0  0  0
    5.9683    1.6731    0.7603 H   0  0  0  0  0  0  0  0  0  0  0  0
    3.4231    0.9028    0.2282 H   0  0  0  0  0  0  0  0  0  0  0  0
    3.3341   -1.1852   -0.8225 H   0  0  0  0  0  0  0  0  0  0  0  0
    3.2986   -0.5206   -2.4685 H   0  0  0  0  0  0  0  0  0  0  0  0
    5.4068   -1.2250   -2.3323 H   0  0  0  0  0  0  0  0  0  0  0  0
    6.2960    0.7091   -2.7624 H   0  0  0  0  0  0  0  0  0  0  0  0
    5.3005   -0.6034    0.6599 H   0  0  0  0  0  0  0  0  0  0  0  0
    8.0096   -2.8405   -1.9074 H   0  0  0  0  0  0  0  0  0  0  0  0
    8.1574   -3.5853   -0.2276 H   0  0  0  0  0  0  0  0  0  0  0  0
    5.7434   -3.2428   -2.0442 H   0  0  0  0  0  0  0  0  0  0  0  0
    5.1332   -2.8091    0.7769 H   0  0  0  0  0  0  0  0  0  0  0  0
    6.6841   -5.3600   -1.1722 H   0  0  0  0  0  0  0  0  0  0  0  0
    4.6518   -6.3346   -0.5122 H   0  0  0  0  0  0  0  0  0  0  0  0
    4.0507   -4.8869    0.3142 H   0  0  0  0  0  0  0  0  0  0  0  0
    4.0742   -4.9966   -1.5252 H   0  0  0  0  0  0  0  0  0  0  0  0
    6.7745   -3.8792    1.3360 H   0  0  0  0  0  0  0  0  0  0  0  0
    7.4059   -5.5415    0.9513 H   0  0  0  0  0  0  0  0  0  0  0  0
    5.7506   -5.3192    1.5551 H   0  0  0  0  0  0  0  0  0  0  0  0
    6.3149    5.9549    1.4208 H   0  0  0  0  0  0  0  0  0  0  0  0
    7.8215    4.9634    1.1486 H   0  0  0  0  0  0  0  0  0  0  0  0
    7.1835    5.1930    2.8390 H   0  0  0  0  0  0  0  0  0  0  0  0
    7.7589    3.4915   -0.8927 H   0  0  0  0  0  0  0  0  0  0  0  0
    7.8854    1.6694   -0.9091 H   0  0  0  0  0  0  0  0  0  0  0  0
    8.0889    2.5731    0.6294 H   0  0  0  0  0  0  0  0  0  0  0  0
   -5.1877   -3.3077    0.0324 H   0  0  0  0  0  0  0  0  0  0  0  0
   -5.0200   -2.7789    3.6448 H   0  0  0  0  0  0  0  0  0  0  0  0
   -6.7258   -5.3604   -0.6880 H   0  0  0  0  0  0  0  0  0  0  0  0
   -8.2790   -4.4652    2.8382 H   0  0  0  0  0  0  0  0  0  0  0  0
   -4.7986   -5.6378    0.8910 H   0  0  0  0  0  0  0  0  0  0  0  0
   -9.0567   -5.7857    1.4561 H   0  0  0  0  0  0  0  0  0  0  0  0
   -8.9056   -6.5317   -0.2214 H   0  0  0  0  0  0  0  0  0  0  0  0
   -8.9134   -3.4098    0.3836 H   0  0  0  0  0  0  0  0  0  0  0  0
   -8.8595   -4.2146   -1.2772 H   0  0  0  0  0  0  0  0  0  0  0  0
    0.4169    2.6131    2.1912 H   0  0  0  0  0  0  0  0  0  0  0  0
    0.1677    3.2674    0.5849 H   0  0  0  0  0  0  0  0  0  0  0  0
   -1.6509    1.8776    2.2662 H   0  0  0  0  0  0  0  0  0  0  0  0
   -1.6111    0.5730   -0.4086 H   0  0  0  0  0  0  0  0  0  0  0  0
    0.1796   -0.7585    0.0472 H   0  0  0  0  0  0  0  0  0  0  0  0
    0.1015   -0.5678    1.7886 H   0  0  0  0  0  0  0  0  0  0  0  0
    1.7273    0.9152    1.4583 H   0  0  0  0  0  0  0  0  0  0  0  0
   -2.2729   -1.3917    0.8001 H   0  0  0  0  0  0  0  0  0  0  0  0
   -1.9767   -1.6066    3.0059 H   0  0  0  0  0  0  0  0  0  0  0  0
   -3.8627    0.7681    2.0633 H   0  0  0  0  0  0  0  0  0  0  0  0
   -3.1666    3.1040    1.1856 H   0  0  0  0  0  0  0  0  0  0  0  0
   -1.2619    4.6082    0.0309 H   0  0  0  0  0  0  0  0  0  0  0  0
   -5.0964    1.3103    0.8333 H   0  0  0  0  0  0  0  0  0  0  0  0
   -4.5589   -2.6770    1.7745 H   0  0  0  0  0  0  0  0  0  0  0  0
   -2.5724    4.9681   -1.6757 H   0  0  0  0  0  0  0  0  0  0  0  0
   -3.5547    4.8340   -0.1828 H   0  0  0  0  0  0  0  0  0  0  0  0
   -1.5629    3.7014   -2.5114 H   0  0  0  0  0  0  0  0  0  0  0  0
   -2.0688    2.0215   -2.4470 H   0  0  0  0  0  0  0  0  0  0  0  0
   -0.6704    2.4680   -1.4818 H   0  0  0  0  0  0  0  0  0  0  0  0
   -5.2432   -1.2774   -1.0846 H   0  0  0  0  0  0  0  0  0  0  0  0
   -3.6558   -0.4383   -0.9201 H   0  0  0  0  0  0  0  0  0  0  0  0
   -7.1978   -0.3766   -0.5662 H   0  0  0  0  0  0  0  0  0  0  0  0
   -7.4181    0.2805    1.1041 H   0  0  0  0  0  0  0  0  0  0  0  0
   -4.3645    3.7298   -2.9118 H   0  0  0  0  0  0  0  0  0  0  0  0
   -5.1670    4.9790   -1.8028 H   0  0  0  0  0  0  0  0  0  0  0  0
   -5.1912    3.4434   -0.0374 H   0  0  0  0  0  0  0  0  0  0  0  0
   -4.3105    2.1974   -1.1367 H   0  0  0  0  0  0  0  0  0  0  0  0
   -6.1948    1.4630   -2.1785 H   0  0  0  0  0  0  0  0  0  0  0  0
   -6.9906    3.0635   -2.0286 H   0  0  0  0  0  0  0  0  0  0  0  0
   -8.3325    1.7140   -0.6471 H   0  0  0  0  0  0  0  0  0  0  0  0
   -7.1917    2.4639    0.5050 H   0  0  0  0  0  0  0  0  0  0  0  0
    5.8738    3.9252    0.0654 H   0  0  0  0  0  0  0  0  0  0  0  0
    3.3994    2.7419    1.4184 H   0  0  0  0  0  0  0  0  0  0  0  0
    3.7762    4.4771    0.9952 H   0  0  0  0  0  0  0  0  0  0  0  0
    3.7162    3.9530   -1.3635 H   0  0  0  0  0  0  0  0  0  0  0  0
    2.2126    3.3966   -0.5670 H   0  0  0  0  0  0  0  0  0  0  0  0
    3.3256    1.9277   -2.2950 H   0  0  0  0  0  0  0  0  0  0  0  0
    5.5092    2.3532   -1.8131 H   0  0  0  0  0  0  0  0  0  0  0  0
    5.3491    1.0656    0.9771 H   0  0  0  0  0  0  0  0  0  0  0  0
    3.1363    0.6026    0.4582 H   0  0  0  0  0  0  0  0  0  0  0  0
    2.6547   -1.4239   -0.6735 H   0  0  0  0  0  0  0  0  0  0  0  0
    2.4579   -0.5941   -2.2242 H   0  0  0  0  0  0  0  0  0  0  0  0
    4.5200   -1.4127   -2.5449 H   0  0  0  0  0  0  0  0  0  0  0  0
    5.7590    0.4061   -2.7067 H   0  0  0  0  0  0  0  0  0  0  0  0
    4.9627   -1.2183    0.4712 H   0  0  0  0  0  0  0  0  0  0  0  0
    5.5601   -5.2018   -1.3965 H   0  0  0  0  0  0  0  0  0  0  0  0
    6.2237   -4.5596    0.2115 H   0  0  0  0  0  0  0  0  0  0  0  0
    6.1759   -3.1394   -2.4967 H   0  0  0  0  0  0  0  0  0  0  0  0
    7.0297   -1.9042    0.0616 H   0  0  0  0  0  0  0  0  0  0  0  0
    8.6018   -2.9829   -2.0763 H   0  0  0  0  0  0  0  0  0  0  0  0
    9.2176   -5.1532   -2.4805 H   0  0  0  0  0  0  0  0  0  0  0  0
    7.8393   -5.8871   -1.6426 H   0  0  0  0  0  0  0  0  0  0  0  0
    7.6133   -4.9864   -3.2464 H   0  0  0  0  0  0  0  0  0  0  0  0
    8.2330   -4.8425    0.3482 H   0  0  0  0  0  0  0  0  0  0  0  0
    8.6437   -3.0514    0.4866 H   0  0  0  0  0  0  0  0  0  0  0  0
    9.6987   -4.1662   -0.3811 H   0  0  0  0  0  0  0  0  0  0  0  0
    6.2421    5.1755    1.9033 H   0  0  0  0  0  0  0  0  0  0  0  0
    7.6183    3.9917    1.5474 H   0  0  0  0  0  0  0  0  0  0  0  0
    6.9772    4.2855    3.2527 H   0  0  0  0  0  0  0  0  0  0  0  0
    7.5519    2.4671   -0.5493 H   0  0  0  0  0  0  0  0  0  0  0  0
    7.4577    0.6960   -0.5376 H   0  0  0  0  0  0  0  0  0  0  0  0
    7.6675    1.5177    1.0294 H   0  0  0  0  0  0  0  0  0  0  0  0
   -5.6669   -2.9785   -0.1282 H   0  0  0  0  0  0  0  0  0  0  0  0
   -5.2506   -1.7262    3.5112 H   0  0  0  0  0  0  0  0  0  0  0  0
   -6.9746   -5.2462   -0.6412 H   0  0  0  0  0  0  0  0  0  0  0  0
   -7.8308   -3.0482    3.2270 H   0  0  0  0  0  0  0  0  0  0  0  0
   -5.1841   -4.8755    0.6884 H   0  0  0  0  0  0  0  0  0  0  0  0
   -9.1472   -5.7506    1.5906 H   0  0  0  0  0  0  0  0  0  0  0  0
   -8.6277   -6.8862    0.2126 H   0  0  0  0  0  0  0  0  0  0  0  0
   -9.7265   -3.9101   -0.0423 H   0  0  0  0  0  0  0  0  0  0  0  0
   -9.3487   -5.0969   -1.4092 H   0  0  0  0  0  0  0  0  0  0  0  0
    0.5399    2.7393    1.1321 H   0  0  0  0  0  0  0  0  0  0  0  0
    0.0858    3.0626   -0.5316 H   0  0  0  0  0  0  0  0  0  0  0  0
   -1.3884    1.7097    1.6187 H   0  0  0  0  0  0  0  0  0  0  0  0
   -2.0138    0.6430   -1.0586 H   0  0  0  0  0  0  0  0  0  0  0  0
   -0.0808   -0.4403   -1.3991 H   0  0  0  0  0  0  0  0  0  0  0  0
    0.1216   -0.9051    0.2733 H   0  0  0  0  0  0  0  0  0  0  0  0
    1.4664    0.7429    0.8116 H   0  0  0  0  0  0  0  0  0  0  0  0
   -1.3407   -0.8387    1.5222 H   0  0  0  0  0  0  0  0  0  0  0  0
   -2.0494   -2.5125    0.5993 H   0  0  0  0  0  0  0  0  0  0  0  0
   -3.4599    0.6267    1.7548 H   0  0  0  0  0  0  0  0  0  0  0  0
   -3.1819    2.8392    0.8614 H   0  0  0  0  0  0  0  0  0  0  0  0
   -1.3046    4.6414   -0.1123 H   0  0  0  0  0  0  0  0  0  0  0  0
   -4.9555    1.2233    1.0208 H   0  0  0  0  0  0  0  0  0  0  0  0
   -5.6436   -1.5457    2.7785 H   0  0  0  0  0  0  0  0  0  0  0  0
   -3.1446    5.1072   -1.8091 H   0  0  0  0  0  0  0  0  0  0  0  0
   -3.7886    4.7023   -0.2000 H   0  0  0  0  0  0  0  0  0  0  0  0
   -1.2797    4.2234   -2.1245 H   0  0  0  0  0  0  0  0  0  0  0  0
   -2.4486    3.3868   -3.1388 H   0  0  0  0  0  0  0  0  0  0  0  0
   -1.1895    2.3982   -2.4152 H   0  0  0  0  0  0  0  0  0  0  0  0
   -5.6673   -1.2537   -0.9096 H   0  0  0  0  0  0  0  0  0  0  0  0
   -4.0665   -0.4934   -1.1256 H   0  0  0  0  0  0  0  0  0  0  0  0
   -7.3717   -0.4644    0.2682 H   0  0  0  0  0  0  0  0  0  0  0  0
   -7.1028    0.3858    1.8590 H   0  0  0  0  0  0  0  0  0  0  0  0
   -4.9927    3.6596   -2.7967 H   0  0  0  0  0  0  0  0  0  0  0  0
   -5.6313    4.8808   -1.5534 H   0  0  0  0  0  0  0  0  0  0  0  0
   -5.3594    3.3530    0.1604 H   0  0  0  0  0  0  0  0  0  0  0  0
   -4.5046    2.1594   -1.0147 H   0  0  0  0  0  0  0  0  0  0  0  0
   -6.4310    1.1798   -1.6705 H   0  0  0  0  0  0  0  0  0  0  0  0
   -7.3193    2.7072   -1.6966 H   0  0  0  0  0  0  0  0  0  0  0  0
   -8.4533    1.4501   -0.1234 H   0  0  0  0  0  0  0  0  0  0  0  0
   -7.4155    2.4127    0.9396 H   0  0  0  0  0  0  0  0  0  0  0  0
    5.8704    3.8749   -0.0185 H   0  0  0  0  0  0  0  0  0  0  0  0
    3.2546    2.8381    1.1975 H   0  0  0  0  0  0  0  0  0  0  0  0
    3.7000    4.4866    0.6764 H   0  0  0  0  0  0  0  0  0  0  0  0
    3.9732    3.9157   -1.5936 H   0  0  0  0  0  0  0  0  0  0  0  0
    2.4031    3.2934   -1.0604 H   0  0  0  0  0  0  0  0  0  0  0  0
    3.8404    1.8292   -2.5498 H   0  0  0  0  0  0  0  0  0  0  0  0
    5.9137    2.3022   -1.6672 H   0  0  0  0  0  0  0  0  0  0  0  0
    5.1564    1.1110    1.0539 H   0  0  0  0  0  0  0  0  0  0  0  0
    3.1162    0.5964    0.1391 H   0  0  0  0  0  0  0  0  0  0  0  0
    2.8978   -1.4484   -0.9918 H   0  0  0  0  0  0  0  0  0  0  0  0
    2.9623   -0.6428   -2.5730 H   0  0  0  0  0  0  0  0  0  0  0  0
    5.0641   -1.4975   -2.5084 H   0  0  0  0  0  0  0  0  0  0  0  0
    6.2052    0.3668   -2.5875 H   0  0  0  0  0  0  0  0  0  0  0  0
    5.0498   -1.1938    0.5406 H   0  0  0  0  0  0  0  0  0  0  0  0
    5.8623   -5.2257   -1.0777 H   0  0  0  0  0  0  0  0  0  0  0  0
    6.2714   -4.5360    0.6007 H   0  0  0  0  0  0  0  0  0  0  0  0
    6.6338   -3.2273   -2.1467 H   0  0  0  0  0  0  0  0  0  0  0  0
    7.0843   -1.9508    0.5006 H   0  0  0  0  0  0  0  0  0  0  0  0
    8.9336   -2.9647   -1.4424 H   0  0  0  0  0  0  0  0  0  0  0  0
    9.3546   -4.9952   -2.3370 H   0  0  0  0  0  0  0  0  0  0  0  0
    8.9290   -5.8075   -0.8275 H   0  0  0  0  0  0  0  0  0  0  0  0
    7.6498   -5.4890   -2.0329 H   0  0  0  0  0  0  0  0  0  0  0  0
    8.2307   -4.4786    1.1455 H   0  0  0  0  0  0  0  0  0  0  0  0
    8.8736   -2.7893    0.9943 H   0  0  0  0  0  0  0  0  0  0  0  0
    9.8294   -4.1780    0.4569 H   0  0  0  0  0  0  0  0  0  0  0  0
    6.2105    5.3626    1.8484 H   0  0  0  0  0  0  0  0  0  0  0  0
    7.5466    4.1063    1.6897 H   0  0  0  0  0  0  0  0  0  0  0  0
    6.7532    4.4529    3.2876 H   0  0  0  0  0  0  0  0  0  0  0  0
    7.6533    2.3558   -0.2481 H   0  0  0  0  0  0  0  0  0  0  0  0
    7.5191    0.6049   -0.0088 H   0  0  0  0  0  0  0  0  0  0  0  0
    7.5679    1.7158    1.4653 H   0  0  0  0  0  0  0  0  0  0  0  0
   -5.8708   -2.8802    0.1592 H   0  0  0  0  0  0  0  0  0  0  0  0
   -4.2966   -3.3425    1.0452 H   0  0  0  0  0  0  0  0  0  0  0  0
   -7.1280   -5.4253    0.3124 H   0  0  0  0  0  0  0  0  0  0  0  0
   -8.6129   -2.1018    2.8036 H   0  0  0  0  0  0  0  0  0  0  0  0
   -5.6891   -5.0226    2.0083 H   0  0  0  0  0  0  0  0  0  0  0  0
   -9.5155   -5.1887    2.2827 H   0  0  0  0  0  0  0  0  0  0  0  0
   -9.1483   -6.6034    1.1396 H   0  0  0  0  0  0  0  0  0  0  0  0
   -9.7759   -3.6452    0.3247 H   0  0  0  0  0  0  0  0  0  0  0  0
   -9.3201   -5.0071   -0.8943 H   0  0  0  0  0  0  0  0  0  0  0  0
  1  2  1  0
  2  3  1  0
  3  4  1  0
  1  5  1  0
  4  5  1  0
  3  6  1  0
  6  7  1  0
  6  8  1  0
  2  9  1  0
  9 10  1  0
  9 13  1  0
 13 14  1  0
 13 15  1  0
  8 16  1  0
 11 16  1  0
 16 12  1  1
 11 17  1  0
 16 17  1  0
 11 18  1  0
 14 19  1  0
 19 20  1  0
 20 21  1  0
 18 22  1  0
 21 22  1  0
  5 23  1  0
 24 25  1  0
 25 26  1  0
 26 27  1  0
 27 28  1  0
 24 29  1  0
 28 29  1  0
 23 30  1  0
 27 30  1  0
 30 31  1  0
 31 32  1  0
 28 33  1  0
 32 33  1  0
 32 34  1  0
 34 35  1  0
 35 36  1  0
 36 37  1  0
 34 38  1  0
 37 38  1  0
 37 39  1  0
 39 40  1  0
 39 41  1  0
 24 42  1  0
 42 43  1  0
 29 44  1  0
 12 45  1  0
 12 46  1  0
 45 47  1  0
 47 48  1  0
 47 49  1  0
 47 50  1  0
 48 51  1  0
 48 52  1  0
 51 52  1  0
 53 54  1  0
 54 55  1  0
 55 56  1  0
 53 57  1  0
 56 57  1  0
 55 58  1  0
 58 59  1  0
 58 60  1  0
 54 61  1  0
 61 62  1  0
 61 65  1  0
 65 66  1  0
 65 67  1  0
 68 60  1  6
 63 68  1  0
 64 68  1  0
 63 69  1  0
 68 69  1  0
 63 70  1  0
 66 71  1  0
 71 72  1  0
 72 73  1  0
 70 74  1  0
 73 74  1  0
 57 75  1  0
 76 77  1  0
 77 78  1  0
 78 79  1  0
 79 80  1  0
 76 81  1  0
 80 81  1  0
 75 82  1  0
 79 82  1  0
 82 83  1  0
 83 84  1  0
 80 85  1  0
 84 85  1  0
 84 86  1  0
 86 87  1  0
 87 88  1  0
 88 89  1  0
 86 90  1  0
 89 90  1  0
 89 91  1  0
 91 92  1  0
 91 93  1  0
 76 94  1  0
 94 95  1  0
 81 96  1  0
 64 97  1  0
 64 98  1  0
 97 99  1  0
 99100  1  0
 99101  1  0
 99102  1  0
100103  1  0
100104  1  0
103104  1  0
105106  1  0
106107  1  0
107108  1  0
105109  1  0
108109  1  0
107110  1  0
110111  1  0
110112  1  0
106113  1  0
113114  1  0
113117  1  0
117118  1  0
117119  1  0
120112  1  1
115120  1  0
116120  1  0
115121  1  0
120121  1  0
115122  1  0
118123  1  0
123124  1  0
124125  1  0
122126  1  0
125126  1  0
109127  1  0
128129  1  0
129130  1  0
130131  1  0
131132  1  0
128133  1  0
132133  1  0
127134  1  0
131134  1  0
134135  1  0
135136  1  0
132137  1  0
136137  1  0
136138  1  0
138139  1  0
139140  1  0
140141  1  0
138142  1  0
141142  1  0
141143  1  0
143144  1  0
143145  1  0
128146  1  0
146147  1  0
133148  1  0
116149  1  0
116150  1  0
149151  1  0
151152  1  0
151153  1  0
151154  1  0
152155  1  0
152156  1  0
155156  1  0
157158  1  0
158159  1  0
159160  1  0
157161  1  0
160161  1  0
159162  1  0
162163  1  0
162164  1  0
158165  1  0
165166  1  0
165169  1  0
169170  1  0
169171  1  0
164172  1  0
167172  1  0
172168  1  1
167173  1  0
172173  1  0
167174  1  0
170175  1  0
175176  1  0
176177  1  0
174178  1  0
177178  1  0
161179  1  0
180181  1  0
181182  1  0
182183  1  0
183184  1  0
180185  1  0
184185  1  0
179186  1  0
183186  1  0
186187  1  0
187188  1  0
184189  1  0
188189  1  0
188190  1  0
190191  1  0
191192  1  0
192193  1  0
190194  1  0
193194  1  0
193195  1  0
195196  1  0
195197  1  0
180198  1  0
198199  1  0
185200  1  0
168201  1  0
168202  1  0
201203  1  0
203204  1  0
203205  1  0
203206  1  0
204207  1  0
204208  1  0
207208  1  0
  1209  1  0
  1210  1  0
  2211  1  1
  3212  1  6
  4213  1  0
  4214  1  0
  5215  1  1
  6216  1  6
  7217  1  0
  8218  1  0
  9219  1  0
 10220  1  0
 11221  1  6
 12222  1  0
 14223  1  0
 14224  1  0
 15225  1  0
 15226  1  0
 15227  1  0
 17228  1  0
 17229  1  0
 18230  1  0
 18231  1  0
 19232  1  0
 19233  1  0
 20234  1  0
 20235  1  0
 21236  1  0
 21237  1  0
 22238  1  0
 22239  1  0
 24240  1  0
 25241  1  0
 25242  1  0
 26243  1  0
 26244  1  0
 27245  1  0
 28246  1  0
 29247  1  0
 30248  1  0
 31249  1  0
 31250  1  0
 32251  1  6
 33252  1  0
 34253  1  1
 36254  1  0
 36255  1  0
 37256  1  1
 38257  1  0
 39258  1  0
 40259  1  0
 40260  1  0
 40261  1  0
 41262  1  0
 41263  1  0
 41264  1  0
 43265  1  0
 43266  1  0
 43267  1  0
 44268  1  0
 44269  1  0
 44270  1  0
 45271  1  0
 46272  1  0
 48273  1  0
 49274  1  0
 50275  1  0
 51276  1  0
 51277  1  0
 52278  1  0
 52279  1  0
 53280  1  0
 53281  1  0
 54282  1  1
 55283  1  6
 56284  1  0
 56285  1  0
 57286  1  1
 58287  1  0
 59288  1  0
 60289  1  0
 61290  1  0
 62291  1  0
 63292  1  6
 64293  1  1
 66294  1  0
 66295  1  0
 67296  1  0
 67297  1  0
 67298  1  0
 69299  1  0
 69300  1  0
 70301  1  0
 70302  1  0
 71303  1  0
 71304  1  0
 72305  1  0
 72306  1  0
 73307  1  0
 73308  1  0
 74309  1  0
 74310  1  0
 76311  1  0
 77312  1  0
 77313  1  0
 78314  1  0
 78315  1  0
 79316  1  0
 80317  1  0
 81318  1  0
 82319  1  0
 83320  1  0
 83321  1  0
 84322  1  0
 85323  1  0
 86324  1  0
 88325  1  0
 88326  1  0
 89327  1  0
 90328  1  0
 91329  1  0
 92330  1  0
 92331  1  0
 92332  1  0
 93333  1  0
 93334  1  0
 93335  1  0
 95336  1  0
 95337  1  0
 95338  1  0
 96339  1  0
 96340  1  0
 96341  1  0
 97342  1  0
 98343  1  0
100344  1  0
101345  1  0
102346  1  0
103347  1  0
103348  1  0
104349  1  0
104350  1  0
105351  1  0
105352  1  0
106353  1  1
107354  1  6
108355  1  0
108356  1  0
109357  1  1
110358  1  0
111359  1  0
112360  1  0
113361  1  0
114362  1  0
115363  1  1
116364  1  1
118365  1  0
118366  1  0
119367  1  0
119368  1  0
119369  1  0
121370  1  0
121371  1  0
122372  1  0
122373  1  0
123374  1  0
123375  1  0
124376  1  0
124377  1  0
125378  1  0
125379  1  0
126380  1  0
126381  1  0
128382  1  0
129383  1  0
129384  1  0
130385  1  0
130386  1  0
131387  1  0
132388  1  0
133389  1  0
134390  1  0
135391  1  0
135392  1  0
136393  1  0
137394  1  0
138395  1  0
140396  1  0
140397  1  0
141398  1  6
142399  1  0
143400  1  0
144401  1  0
144402  1  0
144403  1  0
145404  1  0
145405  1  0
145406  1  0
147407  1  0
147408  1  0
147409  1  0
148410  1  0
148411  1  0
148412  1  0
149413  1  0
150414  1  0
152415  1  0
153416  1  0
154417  1  0
155418  1  0
155419  1  0
156420  1  0
156421  1  0
157422  1  0
157423  1  0
158424  1  1
159425  1  6
160426  1  0
160427  1  0
161428  1  1
162429  1  0
163430  1  0
164431  1  0
165432  1  0
166433  1  0
167434  1  6
168435  1  0
170436  1  0
170437  1  0
171438  1  0
171439  1  0
171440  1  0
173441  1  0
173442  1  0
174443  1  0
174444  1  0
175445  1  0
175446  1  0
176447  1  0
176448  1  0
177449  1  0
177450  1  0
178451  1  0
178452  1  0
180453  1  0
181454  1  0
181455  1  0
182456  1  0
182457  1  0
183458  1  0
184459  1  0
185460  1  0
186461  1  0
187462  1  0
187463  1  0
188464  1  6
189465  1  0
190466  1  1
192467  1  0
192468  1  0
193469  1  0
194470  1  0
195471  1  0
196472  1  0
196473  1  0
196474  1  0
197475  1  0
197476  1  0
197477  1  0
199478  1  0
199479  1  0
199480  1  0
200481  1  0
200482  1  0
200483  1  0
201484  1  0
202485  1  0
204486  1  0
205487  1  0
206488  1  0
207489  1  0
207490  1  0
208491  1  0
208492  1  0
M  END
>  <PDBID>  (1) 
3KEE

>  <PDB ID>  (1) 
3KEE

>  <Generic Name>  (1) 
Simeprevir

>  <Brand Name>  (1) 
Galexos#Olysio

>  <DrugBank ID>  (1) 
DB06290

>  <ATC Codes>  (1) 
J05AE14

>  <Ligand ID>  (1) 
30B

>  <Target Name>  (1) 
NS3 protease

>  <UniProt ID>  (1) 
Q91RS4

>  <PDB ID.1>  (1) 
3KEE

>  <Seq. Identity>  (1) 
82%

$$$$
