PDB_DB08916_04
     RDKit          3D

158164  0  0  0  0  0  0  0  0999 V2000
    3.7127    1.9713   -1.6505 C   0  0  0  0  0  0  0  0  0  0  0  0
    3.9758    0.5408   -1.7464 N   0  0  0  0  0  0  0  0  0  0  0  0
    3.3188    2.2050   -0.2359 N   0  0  0  0  0  0  0  0  0  0  0  0
    2.7360   -0.2510   -1.6471 C   0  0  0  0  0  0  0  0  0  0  0  0
    2.0429    1.5565   -0.1413 C   0  0  0  0  0  0  0  0  0  0  0  0
    2.1526    0.0301   -0.3136 C   0  0  0  0  0  0  0  0  0  0  0  0
   -0.3126    0.5356   -0.3560 C   0  0  0  0  0  0  0  0  0  0  0  0
    0.7453   -0.4854   -0.1036 C   0  0  0  0  0  0  0  0  0  0  0  0
   -0.2216    1.7273    0.5735 C   0  0  0  0  0  0  0  0  0  0  0  0
    1.2209    1.8016    1.0589 C   0  0  0  0  0  0  0  0  0  0  0  0
    3.1104   -1.6100   -1.8556 N   0  0  0  0  0  0  0  0  0  0  0  0
    5.0924   -3.7550    0.4920 C   0  0  0  0  0  0  0  0  0  0  0  0
    6.4731   -3.5250   -0.0373 C   0  0  0  0  0  0  0  0  0  0  0  0
    3.9842   -3.4600   -0.4903 C   0  0  0  0  0  0  0  0  0  0  0  0
    6.5930   -2.1937   -0.7570 C   0  0  0  0  0  0  0  0  0  0  0  0
    4.1679   -2.0444   -1.0108 C   0  0  0  0  0  0  0  0  0  0  0  0
    5.4974   -2.0561   -1.7972 C   0  0  0  0  0  0  0  0  0  0  0  0
    7.3272   -3.4673    1.0460 F   0  0  0  0  0  0  0  0  0  0  0  0
    5.0148   -5.4498    1.0456 Cl  0  0  0  0  0  0  0  0  0  0  0  0
   -0.6297    2.8266   -0.0882 O   0  0  0  0  0  0  0  0  0  0  0  0
   -1.6676    3.5657    0.3706 C   0  0  2  0  0  0  0  0  0  0  0  0
   -2.6442    3.9694   -0.7269 C   0  0  0  0  0  0  0  0  0  0  0  0
   -3.2282    5.1355   -0.2740 O   0  0  0  0  0  0  0  0  0  0  0  0
   -2.2516    5.8516    0.3996 C   0  0  0  0  0  0  0  0  0  0  0  0
   -1.1013    4.9595    0.7053 C   0  0  0  0  0  0  0  0  0  0  0  0
   -1.6026    0.0332   -0.4203 N   0  0  0  0  0  0  0  0  0  0  0  0
   -2.2643   -0.5734    0.6566 C   0  0  0  0  0  0  0  0  0  0  0  0
   -3.7840   -0.3862    0.4293 C   0  0  0  0  0  0  0  0  0  0  0  0
   -2.0945   -1.9596    0.7540 O   0  0  0  0  0  0  0  0  0  0  0  0
   -4.5343   -1.0324    1.5571 C   0  0  0  0  0  0  0  0  0  0  0  0
   -6.0083   -0.8926    1.4163 C   0  0  0  0  0  0  0  0  0  0  0  0
   -6.5890   -1.4437    0.2608 N   0  0  0  0  0  0  0  0  0  0  0  0
   -8.0043   -1.3340    0.1194 C   0  0  0  0  0  0  0  0  0  0  0  0
   -5.9765   -2.5583   -0.3576 C   0  0  0  0  0  0  0  0  0  0  0  0
    3.7127    1.9713   -1.6505 C   0  0  0  0  0  0  0  0  0  0  0  0
    3.9758    0.5408   -1.7464 N   0  0  0  0  0  0  0  0  0  0  0  0
    3.3188    2.2050   -0.2359 N   0  0  0  0  0  0  0  0  0  0  0  0
    2.7360   -0.2510   -1.6471 C   0  0  0  0  0  0  0  0  0  0  0  0
    2.0429    1.5565   -0.1413 C   0  0  0  0  0  0  0  0  0  0  0  0
    2.1526    0.0301   -0.3136 C   0  0  0  0  0  0  0  0  0  0  0  0
   -0.3126    0.5356   -0.3560 C   0  0  0  0  0  0  0  0  0  0  0  0
    0.7453   -0.4854   -0.1036 C   0  0  0  0  0  0  0  0  0  0  0  0
   -0.2216    1.7273    0.5735 C   0  0  0  0  0  0  0  0  0  0  0  0
    1.2209    1.8016    1.0589 C   0  0  0  0  0  0  0  0  0  0  0  0
    3.1104   -1.6100   -1.8556 N   0  0  0  0  0  0  0  0  0  0  0  0
    5.0924   -3.7550    0.4920 C   0  0  0  0  0  0  0  0  0  0  0  0
    6.4731   -3.5250   -0.0373 C   0  0  0  0  0  0  0  0  0  0  0  0
    3.9842   -3.4600   -0.4903 C   0  0  0  0  0  0  0  0  0  0  0  0
    6.5930   -2.1937   -0.7570 C   0  0  0  0  0  0  0  0  0  0  0  0
    4.1679   -2.0444   -1.0108 C   0  0  0  0  0  0  0  0  0  0  0  0
    5.4974   -2.0561   -1.7972 C   0  0  0  0  0  0  0  0  0  0  0  0
    7.3272   -3.4673    1.0460 F   0  0  0  0  0  0  0  0  0  0  0  0
    5.0148   -5.4498    1.0456 Cl  0  0  0  0  0  0  0  0  0  0  0  0
   -0.6297    2.8266   -0.0882 O   0  0  0  0  0  0  0  0  0  0  0  0
   -1.6676    3.5657    0.3706 C   0  0  2  0  0  0  0  0  0  0  0  0
   -2.6442    3.9694   -0.7269 C   0  0  0  0  0  0  0  0  0  0  0  0
   -3.2282    5.1355   -0.2740 O   0  0  0  0  0  0  0  0  0  0  0  0
   -2.2516    5.8516    0.3996 C   0  0  0  0  0  0  0  0  0  0  0  0
   -1.1013    4.9595    0.7053 C   0  0  0  0  0  0  0  0  0  0  0  0
   -1.6026    0.0332   -0.4203 N   0  0  0  0  0  0  0  0  0  0  0  0
   -2.2643   -0.5734    0.6566 C   0  0  0  0  0  0  0  0  0  0  0  0
   -3.7840   -0.3862    0.4293 C   0  0  0  0  0  0  0  0  0  0  0  0
   -2.0945   -1.9596    0.7540 O   0  0  0  0  0  0  0  0  0  0  0  0
   -4.5343   -1.0324    1.5571 C   0  0  0  0  0  0  0  0  0  0  0  0
   -6.0083   -0.8926    1.4163 C   0  0  0  0  0  0  0  0  0  0  0  0
   -6.5890   -1.4437    0.2608 N   0  0  0  0  0  0  0  0  0  0  0  0
   -8.0043   -1.3340    0.1194 C   0  0  0  0  0  0  0  0  0  0  0  0
   -5.9765   -2.5583   -0.3576 C   0  0  0  0  0  0  0  0  0  0  0  0
    4.6198    2.4995   -1.9081 H   0  0  0  0  0  0  0  0  0  0  0  0
    2.8448    2.2360   -2.2862 H   0  0  0  0  0  0  0  0  0  0  0  0
    4.5068    0.3297   -0.8645 H   0  0  0  0  0  0  0  0  0  0  0  0
    4.0451    1.8402    0.4019 H   0  0  0  0  0  0  0  0  0  0  0  0
    2.0580    0.0594   -2.4901 H   0  0  0  0  0  0  0  0  0  0  0  0
    1.5012    1.8971   -1.0843 H   0  0  0  0  0  0  0  0  0  0  0  0
    2.8159   -0.3332    0.4765 H   0  0  0  0  0  0  0  0  0  0  0  0
   -0.0850    0.9374   -1.4062 H   0  0  0  0  0  0  0  0  0  0  0  0
    0.6645   -0.9357    0.8998 H   0  0  0  0  0  0  0  0  0  0  0  0
    0.6136   -1.3034   -0.8415 H   0  0  0  0  0  0  0  0  0  0  0  0
   -0.8367    1.5511    1.4680 H   0  0  0  0  0  0  0  0  0  0  0  0
    1.4424    2.6856    1.6534 H   0  0  0  0  0  0  0  0  0  0  0  0
    1.3159    0.9250    1.7570 H   0  0  0  0  0  0  0  0  0  0  0  0
    3.2764   -1.9067   -2.8228 H   0  0  0  0  0  0  0  0  0  0  0  0
    4.9508   -3.1046    1.3769 H   0  0  0  0  0  0  0  0  0  0  0  0
    6.8446   -4.3281   -0.7045 H   0  0  0  0  0  0  0  0  0  0  0  0
    3.8855   -4.2087   -1.2851 H   0  0  0  0  0  0  0  0  0  0  0  0
    3.0372   -3.4533    0.1085 H   0  0  0  0  0  0  0  0  0  0  0  0
    7.5981   -2.1499   -1.1921 H   0  0  0  0  0  0  0  0  0  0  0  0
    6.5224   -1.3717   -0.0189 H   0  0  0  0  0  0  0  0  0  0  0  0
    4.3687   -1.4438   -0.1088 H   0  0  0  0  0  0  0  0  0  0  0  0
    5.6539   -1.1093   -2.3408 H   0  0  0  0  0  0  0  0  0  0  0  0
    5.5392   -2.9506   -2.4488 H   0  0  0  0  0  0  0  0  0  0  0  0
   -2.1517    3.2449    1.2921 H   0  0  0  0  0  0  0  0  0  0  0  0
   -3.3384    3.1883   -1.0185 H   0  0  0  0  0  0  0  0  0  0  0  0
   -1.9896    4.2457   -1.6081 H   0  0  0  0  0  0  0  0  0  0  0  0
   -2.6863    6.2052    1.3643 H   0  0  0  0  0  0  0  0  0  0  0  0
   -1.9634    6.7707   -0.1771 H   0  0  0  0  0  0  0  0  0  0  0  0
   -0.7904    5.0199    1.7652 H   0  0  0  0  0  0  0  0  0  0  0  0
   -0.2698    5.2019    0.0011 H   0  0  0  0  0  0  0  0  0  0  0  0
   -2.2011    0.3137   -1.2277 H   0  0  0  0  0  0  0  0  0  0  0  0
   -2.0751   -0.1626    1.6690 H   0  0  0  0  0  0  0  0  0  0  0  0
   -4.0301    0.7069    0.4572 H   0  0  0  0  0  0  0  0  0  0  0  0
   -4.0319   -0.7545   -0.5635 H   0  0  0  0  0  0  0  0  0  0  0  0
   -1.9556   -2.4119   -0.1041 H   0  0  0  0  0  0  0  0  0  0  0  0
   -4.2508   -0.4408    2.4830 H   0  0  0  0  0  0  0  0  0  0  0  0
   -4.1814   -2.0522    1.7465 H   0  0  0  0  0  0  0  0  0  0  0  0
   -6.5586   -1.2824    2.3122 H   0  0  0  0  0  0  0  0  0  0  0  0
   -6.2418    0.2074    1.4334 H   0  0  0  0  0  0  0  0  0  0  0  0
   -8.5691   -1.7892    0.9398 H   0  0  0  0  0  0  0  0  0  0  0  0
   -8.2677   -1.8241   -0.8617 H   0  0  0  0  0  0  0  0  0  0  0  0
   -8.2529   -0.2651   -0.0335 H   0  0  0  0  0  0  0  0  0  0  0  0
   -5.1991   -3.0737    0.2207 H   0  0  0  0  0  0  0  0  0  0  0  0
   -5.6532   -2.2956   -1.3955 H   0  0  0  0  0  0  0  0  0  0  0  0
   -6.7754   -3.3461   -0.5070 H   0  0  0  0  0  0  0  0  0  0  0  0
    4.6198    2.4995   -1.9081 H   0  0  0  0  0  0  0  0  0  0  0  0
    2.8448    2.2360   -2.2862 H   0  0  0  0  0  0  0  0  0  0  0  0
    4.5068    0.3297   -0.8645 H   0  0  0  0  0  0  0  0  0  0  0  0
    4.0451    1.8402    0.4019 H   0  0  0  0  0  0  0  0  0  0  0  0
    2.0580    0.0594   -2.4901 H   0  0  0  0  0  0  0  0  0  0  0  0
    1.5012    1.8971   -1.0843 H   0  0  0  0  0  0  0  0  0  0  0  0
    2.8159   -0.3332    0.4765 H   0  0  0  0  0  0  0  0  0  0  0  0
   -0.0850    0.9374   -1.4062 H   0  0  0  0  0  0  0  0  0  0  0  0
    0.6645   -0.9357    0.8998 H   0  0  0  0  0  0  0  0  0  0  0  0
    0.6136   -1.3034   -0.8415 H   0  0  0  0  0  0  0  0  0  0  0  0
   -0.8367    1.5511    1.4680 H   0  0  0  0  0  0  0  0  0  0  0  0
    1.4424    2.6856    1.6534 H   0  0  0  0  0  0  0  0  0  0  0  0
    1.3159    0.9250    1.7570 H   0  0  0  0  0  0  0  0  0  0  0  0
    3.2764   -1.9067   -2.8228 H   0  0  0  0  0  0  0  0  0  0  0  0
    4.9508   -3.1046    1.3769 H   0  0  0  0  0  0  0  0  0  0  0  0
    6.8446   -4.3281   -0.7045 H   0  0  0  0  0  0  0  0  0  0  0  0
    3.8855   -4.2087   -1.2851 H   0  0  0  0  0  0  0  0  0  0  0  0
    3.0372   -3.4533    0.1085 H   0  0  0  0  0  0  0  0  0  0  0  0
    7.5981   -2.1499   -1.1921 H   0  0  0  0  0  0  0  0  0  0  0  0
    6.5224   -1.3717   -0.0189 H   0  0  0  0  0  0  0  0  0  0  0  0
    4.3687   -1.4438   -0.1088 H   0  0  0  0  0  0  0  0  0  0  0  0
    5.6539   -1.1093   -2.3408 H   0  0  0  0  0  0  0  0  0  0  0  0
    5.5392   -2.9506   -2.4488 H   0  0  0  0  0  0  0  0  0  0  0  0
   -2.1517    3.2449    1.2921 H   0  0  0  0  0  0  0  0  0  0  0  0
   -3.3384    3.1883   -1.0185 H   0  0  0  0  0  0  0  0  0  0  0  0
   -1.9896    4.2457   -1.6081 H   0  0  0  0  0  0  0  0  0  0  0  0
   -2.6863    6.2052    1.3643 H   0  0  0  0  0  0  0  0  0  0  0  0
   -1.9634    6.7707   -0.1771 H   0  0  0  0  0  0  0  0  0  0  0  0
   -0.7904    5.0199    1.7652 H   0  0  0  0  0  0  0  0  0  0  0  0
   -0.2698    5.2019    0.0011 H   0  0  0  0  0  0  0  0  0  0  0  0
   -2.2011    0.3137   -1.2277 H   0  0  0  0  0  0  0  0  0  0  0  0
   -2.0751   -0.1626    1.6690 H   0  0  0  0  0  0  0  0  0  0  0  0
   -4.0301    0.7069    0.4572 H   0  0  0  0  0  0  0  0  0  0  0  0
   -4.0319   -0.7545   -0.5635 H   0  0  0  0  0  0  0  0  0  0  0  0
   -1.9556   -2.4119   -0.1041 H   0  0  0  0  0  0  0  0  0  0  0  0
   -4.2508   -0.4408    2.4830 H   0  0  0  0  0  0  0  0  0  0  0  0
   -4.1814   -2.0522    1.7465 H   0  0  0  0  0  0  0  0  0  0  0  0
   -6.5586   -1.2824    2.3122 H   0  0  0  0  0  0  0  0  0  0  0  0
   -6.2418    0.2074    1.4334 H   0  0  0  0  0  0  0  0  0  0  0  0
   -8.5691   -1.7892    0.9398 H   0  0  0  0  0  0  0  0  0  0  0  0
   -8.2677   -1.8241   -0.8617 H   0  0  0  0  0  0  0  0  0  0  0  0
   -8.2529   -0.2651   -0.0335 H   0  0  0  0  0  0  0  0  0  0  0  0
   -5.1991   -3.0737    0.2207 H   0  0  0  0  0  0  0  0  0  0  0  0
   -5.6532   -2.2956   -1.3955 H   0  0  0  0  0  0  0  0  0  0  0  0
   -6.7754   -3.3461   -0.5070 H   0  0  0  0  0  0  0  0  0  0  0  0
  1  2  1  0
  1  3  1  0
  2  4  1  0
  3  5  1  0
  4  6  1  0
  5  6  1  0
  6  8  1  0
  7  8  1  0
  7  9  1  0
  5 10  1  0
  9 10  1  0
  4 11  1  0
 12 13  1  0
 12 14  1  0
 13 15  1  0
 11 16  1  0
 14 16  1  0
 15 17  1  0
 16 17  1  0
 13 18  1  0
 12 19  1  0
  9 20  1  0
 20 21  1  0
 21 22  1  0
 22 23  1  0
 23 24  1  0
 21 25  1  0
 24 25  1  0
  7 26  1  0
 26 27  1  0
 27 28  1  0
 27 29  1  0
 28 30  1  0
 30 31  1  0
 31 32  1  0
 32 33  1  0
 32 34  1  0
 35 36  1  0
 35 37  1  0
 36 38  1  0
 37 39  1  0
 38 40  1  0
 39 40  1  0
 40 42  1  0
 41 42  1  0
 41 43  1  0
 39 44  1  0
 43 44  1  0
 38 45  1  0
 46 47  1  0
 46 48  1  0
 47 49  1  0
 45 50  1  0
 48 50  1  0
 49 51  1  0
 50 51  1  0
 47 52  1  0
 46 53  1  0
 43 54  1  0
 54 55  1  0
 55 56  1  0
 56 57  1  0
 57 58  1  0
 55 59  1  0
 58 59  1  0
 41 60  1  0
 60 61  1  0
 61 62  1  0
 61 63  1  0
 62 64  1  0
 64 65  1  0
 65 66  1  0
 66 67  1  0
 66 68  1  0
  1 69  1  0
  1 70  1  0
  2 71  1  0
  3 72  1  0
  4 73  1  0
  5 74  1  0
  6 75  1  0
  7 76  1  0
  8 77  1  0
  8 78  1  0
  9 79  1  0
 10 80  1  0
 10 81  1  0
 11 82  1  0
 12 83  1  0
 13 84  1  0
 14 85  1  0
 14 86  1  0
 15 87  1  0
 15 88  1  0
 16 89  1  0
 17 90  1  0
 17 91  1  0
 21 92  1  1
 22 93  1  0
 22 94  1  0
 24 95  1  0
 24 96  1  0
 25 97  1  0
 25 98  1  0
 26 99  1  0
 27100  1  0
 28101  1  0
 28102  1  0
 29103  1  0
 30104  1  0
 30105  1  0
 31106  1  0
 31107  1  0
 33108  1  0
 33109  1  0
 33110  1  0
 34111  1  0
 34112  1  0
 34113  1  0
 35114  1  0
 35115  1  0
 36116  1  0
 37117  1  0
 38118  1  0
 39119  1  0
 40120  1  0
 41121  1  0
 42122  1  0
 42123  1  0
 43124  1  0
 44125  1  0
 44126  1  0
 45127  1  0
 46128  1  0
 47129  1  0
 48130  1  0
 48131  1  0
 49132  1  0
 49133  1  0
 50134  1  0
 51135  1  0
 51136  1  0
 55137  1  1
 56138  1  0
 56139  1  0
 58140  1  0
 58141  1  0
 59142  1  0
 59143  1  0
 60144  1  0
 61145  1  0
 62146  1  0
 62147  1  0
 63148  1  0
 64149  1  0
 64150  1  0
 65151  1  0
 65152  1  0
 67153  1  0
 67154  1  0
 67155  1  0
 68156  1  0
 68157  1  0
 68158  1  0
M  END
>  <PDBID>  (1) 
4G5J

>  <PDB ID>  (1) 
4G5J

>  <Generic Name>  (1) 
Afatinib

>  <Brand Name>  (1) 
Gilotrif#Giotrif

>  <DrugBank ID>  (1) 
DB08916

>  <ATC Codes>  (1) 
L01XE13

>  <Ligand ID>  (1) 
0WM

>  <Target Name>  (1) 
Receptor tyrosine-protein kinase erbB-2

>  <UniProt ID>  (1) 
P04626

>  <PDB ID.1>  (1) 
4G5J

>  <Seq. Identity>  (1) 
78%

$$$$
