PDB_DB00615_07
     RDKit          3D

294304  0  0  0  0  0  0  0  0999 V2000
    2.1628    0.7614    1.1809 C   0  0  0  0  0  0  0  0  0  0  0  0
    2.3336    1.3101   -0.2190 C   0  0  0  0  0  0  0  0  0  0  0  0
    3.2044    0.4858   -1.0995 C   0  0  0  0  0  0  0  0  0  0  0  0
    3.1326   -0.9900   -0.8242 C   0  0  2  0  0  0  0  0  0  0  0  0
    1.6060   -2.7951   -0.1134 C   0  0  0  0  0  0  0  0  0  0  0  0
    0.5201   -3.0626    0.9091 C   0  0  0  0  0  0  0  0  0  0  0  0
    0.8376   -2.6006    2.2729 C   0  0  0  0  0  0  0  0  0  0  0  0
    1.8167   -1.4450    2.3178 C   0  0  0  0  0  0  0  0  0  0  0  0
    1.5213   -0.5927    1.0873 C   0  0  0  0  0  0  0  0  0  0  0  0
    1.8151   -1.3010   -0.1884 C   0  0  0  0  0  0  0  0  0  0  0  0
    0.8812   -3.3143   -1.3400 C   0  0  2  0  0  0  0  0  0  0  0  0
   -0.5945   -3.1130   -0.9439 C   0  0  2  0  0  0  0  0  0  0  0  0
   -1.2032   -2.3107   -2.0476 C   0  0  0  0  0  0  0  0  0  0  0  0
   -0.4122   -2.3418    3.0560 C   0  0  0  0  0  0  0  0  0  0  0  0
    1.9251    3.5824   -0.9258 C   0  0  0  0  0  0  0  0  0  0  0  0
    0.7185    4.0449   -0.0991 C   0  0  0  0  0  0  0  0  0  0  0  0
   -0.2192    4.8914   -0.8924 C   0  0  0  0  0  0  0  0  0  0  0  0
   -1.6112    4.2600   -0.8830 C   0  0  0  0  0  0  0  0  0  0  0  0
   -2.6716    5.2712   -0.5573 C   0  0  0  0  0  0  0  0  0  0  0  0
   -3.6061    4.7078    0.5226 C   0  0  1  0  0  0  0  0  0  0  0  0
   -4.1810    3.4468   -0.0171 C   0  0  1  0  0  0  0  0  0  0  0  0
   -4.7279    2.5013    1.0304 C   0  0  2  0  0  0  0  0  0  0  0  0
   -5.4105    1.3704    0.2446 C   0  0  2  0  0  0  0  0  0  0  0  0
   -5.5518    0.1137    1.0865 C   0  0  2  0  0  0  0  0  0  0  0  0
   -5.5088   -1.1530    0.2476 C   0  0  1  0  0  0  0  0  0  0  0  0
   -5.2655   -2.3393    1.0999 C   0  0  1  0  0  0  0  0  0  0  0  0
   -4.6367   -3.5271    0.4294 C   0  0  2  0  0  0  0  0  0  0  0  0
   -3.3366   -3.1859   -0.3036 C   0  0  0  0  0  0  0  0  0  0  0  0
   -2.5141   -4.4014   -0.5107 C   0  0  0  0  0  0  0  0  0  0  0  0
    1.2225    4.6772    1.1595 C   0  0  0  0  0  0  0  0  0  0  0  0
   -2.8101    4.5690    1.7742 C   0  0  0  0  0  0  0  0  0  0  0  0
   -5.7867    3.2283    1.7936 C   0  0  0  0  0  0  0  0  0  0  0  0
   -6.7961    0.2233    1.9114 C   0  0  0  0  0  0  0  0  0  0  0  0
   -4.3999   -1.9469    2.2714 C   0  0  0  0  0  0  0  0  0  0  0  0
   -6.4350   -1.2120   -1.9200 C   0  0  0  0  0  0  0  0  0  0  0  0
   -7.0629   -2.3745   -2.6708 C   0  0  0  0  0  0  0  0  0  0  0  0
   -5.7422   -5.4819   -0.0000 C   0  0  0  0  0  0  0  0  0  0  0  0
    5.2924   -0.4317   -0.6754 C   0  0  0  0  0  0  0  0  0  0  0  0
    5.8917   -1.1300   -1.8777 C   0  0  0  0  0  0  0  0  0  0  0  0
    6.3867   -0.0180    0.2828 C   0  0  0  0  0  0  0  0  0  0  0  0
    6.9427   -2.1210   -1.5101 C   0  0  0  0  0  0  0  0  0  0  0  0
    7.4177   -1.0811    0.4745 C   0  0  0  0  0  0  0  0  0  0  0  0
    8.6262   -0.4584   -1.5226 C   0  0  0  0  0  0  0  0  0  0  0  0
    9.9293    0.0980   -1.0572 C   0  0  0  0  0  0  0  0  0  0  0  0
   10.3575    1.2143   -2.0447 C   0  0  0  0  0  0  0  0  0  0  0  0
    9.9219    0.7033    0.3104 C   0  0  0  0  0  0  0  0  0  0  0  0
    2.6625    2.6785   -0.1251 N   0  0  0  0  0  0  0  0  0  0  0  0
    4.5885    0.7669   -1.0654 N   0  0  0  0  0  0  0  0  0  0  0  0
    4.2895   -1.2863   -0.0478 N   0  0  0  0  0  0  0  0  0  0  0  0
    8.0610   -1.5100   -0.7566 N   0  0  0  0  0  0  0  0  0  0  0  0
    3.3296    0.7683    1.9191 O   0  0  0  0  0  0  0  0  0  0  0  0
    1.4691   -0.6671    3.4263 O   0  0  0  0  0  0  0  0  0  0  0  0
   -0.5353   -2.3985    0.2784 O   0  0  0  0  0  0  0  0  0  0  0  0
    1.1727   -4.6937   -1.4069 O   0  0  0  0  0  0  0  0  0  0  0  0
   -1.1856   -4.3007   -0.6567 O   0  0  0  0  0  0  0  0  0  0  0  0
   -5.5047   -4.1946   -0.4111 O   0  0  0  0  0  0  0  0  0  0  0  0
   -6.5968   -1.2548   -0.5900 O   0  0  0  0  0  0  0  0  0  0  0  0
   -7.1195   -0.0545   -2.3759 O   0  0  0  0  0  0  0  0  0  0  0  0
   -4.6711    1.1132   -0.9205 O   0  0  0  0  0  0  0  0  0  0  0  0
   -5.2823    3.7931   -0.8355 O   0  0  0  0  0  0  0  0  0  0  0  0
    2.6298    4.6413   -1.4419 O   0  0  0  0  0  0  0  0  0  0  0  0
    2.4576    0.7146    2.3993 C   0  0  0  0  0  0  0  0  0  0  0  0
    2.9573    1.5759    1.2191 C   0  0  0  0  0  0  0  0  0  0  0  0
    3.6295    0.5977    0.3739 C   0  0  1  0  0  0  0  0  0  0  0  0
    2.5025   -0.0293   -0.4737 C   0  0  2  0  0  0  0  0  0  0  0  0
    0.7307   -1.6351   -0.1125 C   0  0  0  0  0  0  0  0  0  0  0  0
    1.2320   -2.9410    0.3707 C   0  0  0  0  0  0  0  0  0  0  0  0
    2.3706   -2.8731    1.3511 C   0  0  0  0  0  0  0  0  0  0  0  0
    2.3189   -1.7977    2.3441 C   0  0  0  0  0  0  0  0  0  0  0  0
    1.7342   -0.4944    1.8981 C   0  0  0  0  0  0  0  0  0  0  0  0
    1.4163   -0.4256    0.4207 C   0  0  1  0  0  0  0  0  0  0  0  0
   -0.7476   -1.6891    0.1599 C   0  0  0  0  0  0  0  0  0  0  0  0
   -1.0103   -3.0671    0.6586 C   0  0  2  0  0  0  0  0  0  0  0  0
   -1.6562   -3.1111    2.0368 C   0  0  0  0  0  0  0  0  0  0  0  0
    2.3646   -4.2170    2.0989 C   0  0  0  0  0  0  0  0  0  0  0  0
    3.1540    3.9570    1.1085 C   0  0  0  0  0  0  0  0  0  0  0  0
    1.7204    4.1620    1.4511 C   0  0  0  0  0  0  0  0  0  0  0  0
    0.8199    4.2952    0.2326 C   0  0  0  0  0  0  0  0  0  0  0  0
   -0.4362    3.4966    0.3494 C   0  0  0  0  0  0  0  0  0  0  0  0
   -1.6815    4.3379    0.3959 C   0  0  0  0  0  0  0  0  0  0  0  0
   -2.8635    3.5805    0.9452 C   0  0  1  0  0  0  0  0  0  0  0  0
   -3.5947    2.8154   -0.1313 C   0  0  1  0  0  0  0  0  0  0  0  0
   -4.8480    2.1940    0.3962 C   0  0  2  0  0  0  0  0  0  0  0  0
   -5.3373    1.1283   -0.5919 C   0  0  2  0  0  0  0  0  0  0  0  0
   -5.9862   -0.0408    0.1368 C   0  0  2  0  0  0  0  0  0  0  0  0
   -5.9612   -1.2459   -0.7750 C   0  0  1  0  0  0  0  0  0  0  0  0
   -6.1952   -2.5370   -0.0382 C   0  0  1  0  0  0  0  0  0  0  0  0
   -5.5233   -3.7350   -0.5869 C   0  0  2  0  0  0  0  0  0  0  0  0
   -4.1270   -3.5527   -1.1240 C   0  0  0  0  0  0  0  0  0  0  0  0
   -3.1909   -3.3084    0.0140 C   0  0  0  0  0  0  0  0  0  0  0  0
    1.6115    5.4879    2.2137 C   0  0  0  0  0  0  0  0  0  0  0  0
   -2.4995    2.7457    2.1289 C   0  0  0  0  0  0  0  0  0  0  0  0
   -5.9435    3.1864    0.6333 C   0  0  0  0  0  0  0  0  0  0  0  0
   -7.3602    0.3081    0.6248 C   0  0  0  0  0  0  0  0  0  0  0  0
   -5.9041   -2.3977    1.4221 C   0  0  0  0  0  0  0  0  0  0  0  0
   -6.1856   -1.0386   -3.1056 C   0  0  0  0  0  0  0  0  0  0  0  0
   -6.7567   -2.0707   -4.0869 C   0  0  0  0  0  0  0  0  0  0  0  0
   -6.7013   -5.6214   -1.0292 C   0  0  0  0  0  0  0  0  0  0  0  0
    4.5416   -0.3180   -1.3907 C   0  0  0  0  0  0  0  0  0  0  0  0
    5.5957   -1.2090   -0.8136 C   0  0  0  0  0  0  0  0  0  0  0  0
    4.9131   -0.0277   -2.8045 C   0  0  0  0  0  0  0  0  0  0  0  0
    6.9324   -0.5020   -0.7994 C   0  0  0  0  0  0  0  0  0  0  0  0
    6.2135    0.7846   -2.7379 C   0  0  0  0  0  0  0  0  0  0  0  0
    8.4828   -0.0473   -2.6053 C   0  0  0  0  0  0  0  0  0  0  0  0
    9.6943    0.4348   -1.8848 C   0  0  0  0  0  0  0  0  0  0  0  0
    9.6810    1.9326   -1.6522 C   0  0  0  0  0  0  0  0  0  0  0  0
   10.0002   -0.2415   -0.5913 C   0  0  0  0  0  0  0  0  0  0  0  0
    3.6960    2.7030    1.6580 N   0  0  0  0  0  0  0  0  0  0  0  0
    4.4822    0.9796   -0.6881 N   0  0  0  0  0  0  0  0  0  0  0  0
    3.2545   -0.9521   -1.2115 N   0  0  0  0  0  0  0  0  0  0  0  0
    7.2347    0.1878   -1.9820 N   0  0  0  0  0  0  0  0  0  0  0  0
    3.6453    0.3101    3.0564 O   0  0  0  0  0  0  0  0  0  0  0  0
    1.6922   -2.2932    3.5149 O   0  0  0  0  0  0  0  0  0  0  0  0
    0.1855   -3.7265    0.7963 O   0  0  0  0  0  0  0  0  0  0  0  0
   -1.1959   -0.6671    0.9761 O   0  0  0  0  0  0  0  0  0  0  0  0
   -1.8965   -3.7787   -0.1925 O   0  0  0  0  0  0  0  0  0  0  0  0
   -6.3524   -4.3665   -1.5103 O   0  0  0  0  0  0  0  0  0  0  0  0
   -6.7502   -1.0965   -1.8863 O   0  0  0  0  0  0  0  0  0  0  0  0
   -6.5122    0.2201   -3.6682 O   0  0  0  0  0  0  0  0  0  0  0  0
   -4.2234    0.6889   -1.3275 O   0  0  0  0  0  0  0  0  0  0  0  0
   -3.9621    3.7437   -1.1211 O   0  0  0  0  0  0  0  0  0  0  0  0
    3.9843    5.0004    1.4890 O   0  0  0  0  0  0  0  0  0  0  0  0
    1.4827    1.5038    1.7009 H   0  0  0  0  0  0  0  0  0  0  0  0
    1.2936    1.2549   -0.6688 H   0  0  0  0  0  0  0  0  0  0  0  0
    2.8618    0.6273   -2.1687 H   0  0  0  0  0  0  0  0  0  0  0  0
    3.1655   -1.5617   -1.7763 H   0  0  0  0  0  0  0  0  0  0  0  0
    2.5371   -3.3472    0.0947 H   0  0  0  0  0  0  0  0  0  0  0  0
    0.3154   -4.1739    0.9503 H   0  0  0  0  0  0  0  0  0  0  0  0
    1.3698   -3.4468    2.8034 H   0  0  0  0  0  0  0  0  0  0  0  0
    2.8608   -1.7534    2.3665 H   0  0  0  0  0  0  0  0  0  0  0  0
    0.4070   -0.3964    1.1613 H   0  0  0  0  0  0  0  0  0  0  0  0
    1.0419   -0.9357   -0.9315 H   0  0  0  0  0  0  0  0  0  0  0  0
    1.1517   -2.7909   -2.2528 H   0  0  0  0  0  0  0  0  0  0  0  0
   -1.8262   -2.9190   -2.7483 H   0  0  0  0  0  0  0  0  0  0  0  0
   -0.4276   -1.8488   -2.7328 H   0  0  0  0  0  0  0  0  0  0  0  0
   -1.7358   -1.4420   -1.6205 H   0  0  0  0  0  0  0  0  0  0  0  0
   -0.9041   -3.3456    3.2151 H   0  0  0  0  0  0  0  0  0  0  0  0
   -1.1073   -1.7462    2.4664 H   0  0  0  0  0  0  0  0  0  0  0  0
   -0.2318   -1.9542    4.0783 H   0  0  0  0  0  0  0  0  0  0  0  0
    1.4729    2.9936   -1.7766 H   0  0  0  0  0  0  0  0  0  0  0  0
    0.2023    3.0886    0.2048 H   0  0  0  0  0  0  0  0  0  0  0  0
   -0.3287    5.8650   -0.3557 H   0  0  0  0  0  0  0  0  0  0  0  0
    0.1645    5.0416   -1.9055 H   0  0  0  0  0  0  0  0  0  0  0  0
   -1.6069    3.3983   -0.1925 H   0  0  0  0  0  0  0  0  0  0  0  0
   -1.7814    3.9059   -1.9341 H   0  0  0  0  0  0  0  0  0  0  0  0
   -2.1602    6.1508   -0.0923 H   0  0  0  0  0  0  0  0  0  0  0  0
   -3.2743    5.5750   -1.4379 H   0  0  0  0  0  0  0  0  0  0  0  0
   -4.3898    5.5047    0.6422 H   0  0  0  0  0  0  0  0  0  0  0  0
   -3.5124    2.8606   -0.6637 H   0  0  0  0  0  0  0  0  0  0  0  0
   -3.9539    2.0231    1.6313 H   0  0  0  0  0  0  0  0  0  0  0  0
   -6.3861    1.7771   -0.0795 H   0  0  0  0  0  0  0  0  0  0  0  0
   -4.6703    0.0915    1.7516 H   0  0  0  0  0  0  0  0  0  0  0  0
   -4.6214   -1.0280   -0.4057 H   0  0  0  0  0  0  0  0  0  0  0  0
   -6.2073   -2.7447    1.5724 H   0  0  0  0  0  0  0  0  0  0  0  0
   -4.3448   -4.2368    1.2321 H   0  0  0  0  0  0  0  0  0  0  0  0
   -2.8707   -2.3847    0.2609 H   0  0  0  0  0  0  0  0  0  0  0  0
   -3.7075   -2.7565   -1.2829 H   0  0  0  0  0  0  0  0  0  0  0  0
   -3.0264   -5.0144   -1.3136 H   0  0  0  0  0  0  0  0  0  0  0  0
   -2.6711   -5.0449    0.4129 H   0  0  0  0  0  0  0  0  0  0  0  0
    0.7457    4.2595    2.0739 H   0  0  0  0  0  0  0  0  0  0  0  0
    2.3178    4.5368    1.2916 H   0  0  0  0  0  0  0  0  0  0  0  0
    1.0451    5.7730    1.0724 H   0  0  0  0  0  0  0  0  0  0  0  0
   -3.2589    3.9013    2.5359 H   0  0  0  0  0  0  0  0  0  0  0  0
   -2.7945    5.5876    2.2632 H   0  0  0  0  0  0  0  0  0  0  0  0
   -1.7403    4.3214    1.6204 H   0  0  0  0  0  0  0  0  0  0  0  0
   -5.6905    3.0812    2.9096 H   0  0  0  0  0  0  0  0  0  0  0  0
   -5.7646    4.3393    1.5826 H   0  0  0  0  0  0  0  0  0  0  0  0
   -6.8223    2.9287    1.5411 H   0  0  0  0  0  0  0  0  0  0  0  0
   -7.6115    0.6884    1.3210 H   0  0  0  0  0  0  0  0  0  0  0  0
   -7.1375   -0.7440    2.3295 H   0  0  0  0  0  0  0  0  0  0  0  0
   -6.6158    0.8850    2.7811 H   0  0  0  0  0  0  0  0  0  0  0  0
   -3.4535   -1.4655    1.9547 H   0  0  0  0  0  0  0  0  0  0  0  0
   -4.0436   -2.9011    2.7820 H   0  0  0  0  0  0  0  0  0  0  0  0
   -4.9488   -1.3878    3.0629 H   0  0  0  0  0  0  0  0  0  0  0  0
   -5.4109   -1.1007   -2.3201 H   0  0  0  0  0  0  0  0  0  0  0  0
   -6.3149   -2.9208   -3.2840 H   0  0  0  0  0  0  0  0  0  0  0  0
   -7.8304   -2.0246   -3.3822 H   0  0  0  0  0  0  0  0  0  0  0  0
   -7.4797   -3.1475   -1.9726 H   0  0  0  0  0  0  0  0  0  0  0  0
   -6.1874   -5.4384    1.0237 H   0  0  0  0  0  0  0  0  0  0  0  0
   -4.8010   -6.0481    0.0346 H   0  0  0  0  0  0  0  0  0  0  0  0
   -6.4525   -5.9301   -0.7284 H   0  0  0  0  0  0  0  0  0  0  0  0
    5.0905   -1.7075   -2.4102 H   0  0  0  0  0  0  0  0  0  0  0  0
    6.3108   -0.4191   -2.6239 H   0  0  0  0  0  0  0  0  0  0  0  0
    5.9271    0.1918    1.2591 H   0  0  0  0  0  0  0  0  0  0  0  0
    6.7680    0.9472   -0.0987 H   0  0  0  0  0  0  0  0  0  0  0  0
    6.5297   -2.8959   -0.8540 H   0  0  0  0  0  0  0  0  0  0  0  0
    7.3884   -2.5290   -2.4283 H   0  0  0  0  0  0  0  0  0  0  0  0
    8.1118   -0.7927    1.2618 H   0  0  0  0  0  0  0  0  0  0  0  0
    6.8778   -1.9809    0.8819 H   0  0  0  0  0  0  0  0  0  0  0  0
    8.8152   -0.8985   -2.5568 H   0  0  0  0  0  0  0  0  0  0  0  0
    7.9122    0.3923   -1.6886 H   0  0  0  0  0  0  0  0  0  0  0  0
   10.7291   -0.6945   -1.0688 H   0  0  0  0  0  0  0  0  0  0  0  0
    9.6792    2.0612   -1.8400 H   0  0  0  0  0  0  0  0  0  0  0  0
   10.1366    0.8290   -3.0450 H   0  0  0  0  0  0  0  0  0  0  0  0
   11.4203    1.4615   -1.8758 H   0  0  0  0  0  0  0  0  0  0  0  0
   10.7779    1.4688    0.3015 H   0  0  0  0  0  0  0  0  0  0  0  0
   10.2771   -0.0033    1.1109 H   0  0  0  0  0  0  0  0  0  0  0  0
    9.0058    1.2410    0.5420 H   0  0  0  0  0  0  0  0  0  0  0  0
    3.5788    2.9489    0.2002 H   0  0  0  0  0  0  0  0  0  0  0  0
    4.8955    1.6172   -0.6042 H   0  0  0  0  0  0  0  0  0  0  0  0
    4.6159   -2.2790   -0.1499 H   0  0  0  0  0  0  0  0  0  0  0  0
    3.2174    1.1508    2.8250 H   0  0  0  0  0  0  0  0  0  0  0  0
    0.5709   -0.2766    3.2125 H   0  0  0  0  0  0  0  0  0  0  0  0
    0.4568   -5.2450   -1.0440 H   0  0  0  0  0  0  0  0  0  0  0  0
   -7.1054   -0.0166   -3.3583 H   0  0  0  0  0  0  0  0  0  0  0  0
   -5.0032    1.6385   -1.6852 H   0  0  0  0  0  0  0  0  0  0  0  0
   -5.7332    4.5792   -0.4376 H   0  0  0  0  0  0  0  0  0  0  0  0
    3.1305    5.0943   -0.7332 H   0  0  0  0  0  0  0  0  0  0  0  0
    1.9222    1.3349    3.1146 H   0  0  0  0  0  0  0  0  0  0  0  0
    1.9956    1.9712    0.7719 H   0  0  0  0  0  0  0  0  0  0  0  0
    4.1653   -0.1837    0.9513 H   0  0  0  0  0  0  0  0  0  0  0  0
    2.2255    0.8132   -1.1792 H   0  0  0  0  0  0  0  0  0  0  0  0
    0.8370   -1.5664   -1.2399 H   0  0  0  0  0  0  0  0  0  0  0  0
    1.6610   -3.5070   -0.5163 H   0  0  0  0  0  0  0  0  0  0  0  0
    3.3683   -2.8546    0.8358 H   0  0  0  0  0  0  0  0  0  0  0  0
    3.3682   -1.5858    2.7068 H   0  0  0  0  0  0  0  0  0  0  0  0
    0.7282   -0.4399    2.4224 H   0  0  0  0  0  0  0  0  0  0  0  0
    0.6336    0.3989    0.3499 H   0  0  0  0  0  0  0  0  0  0  0  0
   -1.3358   -1.5686   -0.7925 H   0  0  0  0  0  0  0  0  0  0  0  0
   -2.6112   -2.6147    2.1203 H   0  0  0  0  0  0  0  0  0  0  0  0
   -0.9105   -2.8022    2.8036 H   0  0  0  0  0  0  0  0  0  0  0  0
   -1.8229   -4.2103    2.2397 H   0  0  0  0  0  0  0  0  0  0  0  0
    2.1428   -5.0345    1.4037 H   0  0  0  0  0  0  0  0  0  0  0  0
    1.5335   -4.2135    2.8501 H   0  0  0  0  0  0  0  0  0  0  0  0
    3.3237   -4.4012    2.6059 H   0  0  0  0  0  0  0  0  0  0  0  0
    3.2547    3.8635   -0.0125 H   0  0  0  0  0  0  0  0  0  0  0  0
    1.2724    3.4035    2.0923 H   0  0  0  0  0  0  0  0  0  0  0  0
    0.5456    5.3522    0.0287 H   0  0  0  0  0  0  0  0  0  0  0  0
    1.4476    3.9905   -0.6551 H   0  0  0  0  0  0  0  0  0  0  0  0
   -0.3801    2.7652    1.1863 H   0  0  0  0  0  0  0  0  0  0  0  0
   -0.5158    2.8654   -0.5839 H   0  0  0  0  0  0  0  0  0  0  0  0
   -1.4724    5.2108    1.0613 H   0  0  0  0  0  0  0  0  0  0  0  0
   -1.8802    4.6948   -0.6361 H   0  0  0  0  0  0  0  0  0  0  0  0
   -3.5853    4.3670    1.3155 H   0  0  0  0  0  0  0  0  0  0  0  0
   -2.9840    2.0307   -0.5906 H   0  0  0  0  0  0  0  0  0  0  0  0
   -4.6298    1.6951    1.3810 H   0  0  0  0  0  0  0  0  0  0  0  0
   -6.0865    1.6293   -1.2361 H   0  0  0  0  0  0  0  0  0  0  0  0
   -5.3478   -0.2241    1.0239 H   0  0  0  0  0  0  0  0  0  0  0  0
   -4.9176   -1.2838   -1.1495 H   0  0  0  0  0  0  0  0  0  0  0  0
   -7.3074   -2.7869   -0.0569 H   0  0  0  0  0  0  0  0  0  0  0  0
   -5.4015   -4.4567    0.2640 H   0  0  0  0  0  0  0  0  0  0  0  0
   -4.0339   -2.8927   -1.9817 H   0  0  0  0  0  0  0  0  0  0  0  0
   -3.8472   -4.5783   -1.5223 H   0  0  0  0  0  0  0  0  0  0  0  0
   -3.5823   -3.8854    0.8806 H   0  0  0  0  0  0  0  0  0  0  0  0
   -3.1106   -2.2348    0.1595 H   0  0  0  0  0  0  0  0  0  0  0  0
    1.4836    5.2867    3.3118 H   0  0  0  0  0  0  0  0  0  0  0  0
    2.5172    6.0999    2.0999 H   0  0  0  0  0  0  0  0  0  0  0  0
    0.7279    6.0615    1.8958 H   0  0  0  0  0  0  0  0  0  0  0  0
   -3.3603    2.6299    2.8362 H   0  0  0  0  0  0  0  0  0  0  0  0
   -1.7393    3.3365    2.7202 H   0  0  0  0  0  0  0  0  0  0  0  0
   -2.0316    1.7898    1.8855 H   0  0  0  0  0  0  0  0  0  0  0  0
   -5.5793    4.1972    0.9233 H   0  0  0  0  0  0  0  0  0  0  0  0
   -6.6341    2.8850    1.4727 H   0  0  0  0  0  0  0  0  0  0  0  0
   -6.6039    3.3390   -0.2560 H   0  0  0  0  0  0  0  0  0  0  0  0
   -7.6883    1.2289    0.0921 H   0  0  0  0  0  0  0  0  0  0  0  0
   -8.0976   -0.5042    0.4852 H   0  0  0  0  0  0  0  0  0  0  0  0
   -7.3727    0.5569    1.7068 H   0  0  0  0  0  0  0  0  0  0  0  0
   -4.9131   -2.0803    1.7072 H   0  0  0  0  0  0  0  0  0  0  0  0
   -6.0711   -3.3966    1.9235 H   0  0  0  0  0  0  0  0  0  0  0  0
   -6.6302   -1.7180    1.9426 H   0  0  0  0  0  0  0  0  0  0  0  0
   -5.1035   -1.1169   -3.1850 H   0  0  0  0  0  0  0  0  0  0  0  0
   -5.9726   -2.7678   -4.4475 H   0  0  0  0  0  0  0  0  0  0  0  0
   -7.2138   -1.6113   -4.9707 H   0  0  0  0  0  0  0  0  0  0  0  0
   -7.4919   -2.7322   -3.5410 H   0  0  0  0  0  0  0  0  0  0  0  0
   -7.2413   -5.5740   -0.0609 H   0  0  0  0  0  0  0  0  0  0  0  0
   -5.8041   -6.2786   -0.8614 H   0  0  0  0  0  0  0  0  0  0  0  0
   -7.3491   -6.1766   -1.7233 H   0  0  0  0  0  0  0  0  0  0  0  0
    5.3684   -1.6267    0.1670 H   0  0  0  0  0  0  0  0  0  0  0  0
    5.7088   -2.0699   -1.5127 H   0  0  0  0  0  0  0  0  0  0  0  0
    4.1865    0.6147   -3.3339 H   0  0  0  0  0  0  0  0  0  0  0  0
    5.1609   -0.9525   -3.3572 H   0  0  0  0  0  0  0  0  0  0  0  0
    7.0115    0.1258    0.1367 H   0  0  0  0  0  0  0  0  0  0  0  0
    7.6881   -1.3193   -0.6465 H   0  0  0  0  0  0  0  0  0  0  0  0
    6.5800    0.9687   -3.7742 H   0  0  0  0  0  0  0  0  0  0  0  0
    6.0078    1.8151   -2.3272 H   0  0  0  0  0  0  0  0  0  0  0  0
    8.6062   -1.1665   -2.7110 H   0  0  0  0  0  0  0  0  0  0  0  0
    8.5422    0.3328   -3.6532 H   0  0  0  0  0  0  0  0  0  0  0  0
   10.5914    0.2480   -2.5501 H   0  0  0  0  0  0  0  0  0  0  0  0
    8.8968    2.1412   -0.9135 H   0  0  0  0  0  0  0  0  0  0  0  0
    9.5749    2.4531   -2.6027 H   0  0  0  0  0  0  0  0  0  0  0  0
   10.6540    2.1639   -1.1400 H   0  0  0  0  0  0  0  0  0  0  0  0
   11.0598    0.0588   -0.3281 H   0  0  0  0  0  0  0  0  0  0  0  0
   10.0786   -1.3562   -0.6937 H   0  0  0  0  0  0  0  0  0  0  0  0
    9.4022    0.0839    0.2649 H   0  0  0  0  0  0  0  0  0  0  0  0
    4.6888    2.6762    1.3137 H   0  0  0  0  0  0  0  0  0  0  0  0
    5.4065    1.2821   -0.3572 H   0  0  0  0  0  0  0  0  0  0  0  0
    2.8930   -1.1821   -2.1758 H   0  0  0  0  0  0  0  0  0  0  0  0
    3.4358    0.1927    4.0253 H   0  0  0  0  0  0  0  0  0  0  0  0
    0.9859   -1.6198    3.7387 H   0  0  0  0  0  0  0  0  0  0  0  0
   -1.5419   -0.9201    1.8430 H   0  0  0  0  0  0  0  0  0  0  0  0
   -6.9310    0.1551   -4.5404 H   0  0  0  0  0  0  0  0  0  0  0  0
   -4.2747    1.0904   -2.2351 H   0  0  0  0  0  0  0  0  0  0  0  0
   -4.8607    4.1024   -0.9861 H   0  0  0  0  0  0  0  0  0  0  0  0
    4.7407    4.6780    2.0234 H   0  0  0  0  0  0  0  0  0  0  0  0
  1  2  1  0
  2  3  1  0
  3  4  1  0
  5  6  1  0
  6  7  1  0
  7  8  1  0
  1  9  1  0
  8  9  1  0
  4 10  1  0
  5 10  1  0
  9 10  1  0
  5 11  1  0
 11 12  1  0
 12 13  1  6
  7 14  1  0
 15 16  1  0
 16 17  1  0
 17 18  1  0
 18 19  1  0
 19 20  1  0
 20 21  1  0
 21 22  1  0
 22 23  1  0
 23 24  1  0
 24 25  1  0
 25 26  1  0
 26 27  1  0
 27 28  1  0
 28 29  1  0
 16 30  1  0
 20 31  1  0
 22 32  1  0
 24 33  1  0
 26 34  1  0
 35 36  1  0
 38 39  1  0
 38 40  1  0
 39 41  1  0
 40 42  1  0
 43 44  1  0
 44 45  1  0
 44 46  1  0
  2 47  1  0
 15 47  1  0
  3 48  1  0
 38 48  1  0
  4 49  1  0
 38 49  1  0
 41 50  1  0
 42 50  1  0
 43 50  1  0
  1 51  1  0
  8 52  1  0
  6 53  1  0
 12 53  1  0
 11 54  1  0
 12 55  1  0
 29 55  1  0
 27 56  1  0
 37 56  1  0
 25 57  1  0
 35 57  1  0
 35 58  1  0
 23 59  1  0
 21 60  1  0
 15 61  1  0
 62 63  1  0
 63 64  1  0
 64 65  1  0
 66 67  1  0
 67 68  1  0
 68 69  1  0
 62 70  1  0
 69 70  1  0
 65 71  1  0
 66 71  1  0
 70 71  1  0
 66 72  1  0
 72 73  1  0
 73 74  1  1
 68 75  1  0
 76 77  1  0
 77 78  1  0
 78 79  1  0
 79 80  1  0
 80 81  1  0
 81 82  1  0
 82 83  1  0
 83 84  1  0
 84 85  1  0
 85 86  1  0
 86 87  1  0
 87 88  1  0
 88 89  1  0
 89 90  1  0
 77 91  1  0
 81 92  1  0
 83 93  1  0
 85 94  1  0
 87 95  1  0
 96 97  1  0
 99100  1  0
 99101  1  0
100102  1  0
101103  1  0
104105  1  0
105106  1  0
105107  1  0
 63108  1  0
 76108  1  0
 64109  1  0
 99109  1  0
 65110  1  0
 99110  1  0
102111  1  0
103111  1  0
104111  1  0
 62112  1  0
 69113  1  0
 67114  1  0
 73114  1  0
 72115  1  0
 73116  1  0
 90116  1  0
 88117  1  0
 98117  1  0
 86118  1  0
 96118  1  0
 96119  1  0
 84120  1  0
 82121  1  0
 76122  1  0
  1123  1  0
  2124  1  0
  3125  1  0
  4126  1  6
  5127  1  0
  6128  1  0
  7129  1  0
  8130  1  0
  9131  1  0
 10132  1  0
 11133  1  6
 13134  1  0
 13135  1  0
 13136  1  0
 14137  1  0
 14138  1  0
 14139  1  0
 15140  1  0
 16141  1  0
 17142  1  0
 17143  1  0
 18144  1  0
 18145  1  0
 19146  1  0
 19147  1  0
 20148  1  1
 21149  1  6
 22150  1  1
 23151  1  6
 24152  1  1
 25153  1  6
 26154  1  1
 27155  1  1
 28156  1  0
 28157  1  0
 29158  1  0
 29159  1  0
 30160  1  0
 30161  1  0
 30162  1  0
 31163  1  0
 31164  1  0
 31165  1  0
 32166  1  0
 32167  1  0
 32168  1  0
 33169  1  0
 33170  1  0
 33171  1  0
 34172  1  0
 34173  1  0
 34174  1  0
 35175  1  0
 36176  1  0
 36177  1  0
 36178  1  0
 37179  1  0
 37180  1  0
 37181  1  0
 39182  1  0
 39183  1  0
 40184  1  0
 40185  1  0
 41186  1  0
 41187  1  0
 42188  1  0
 42189  1  0
 43190  1  0
 43191  1  0
 44192  1  0
 45193  1  0
 45194  1  0
 45195  1  0
 46196  1  0
 46197  1  0
 46198  1  0
 47199  1  0
 48200  1  0
 49201  1  0
 51202  1  0
 52203  1  0
 54204  1  0
 58205  1  0
 59206  1  0
 60207  1  0
 61208  1  0
 62209  1  0
 63210  1  0
 64211  1  1
 65212  1  6
 66213  1  0
 67214  1  0
 68215  1  0
 69216  1  0
 70217  1  0
 71218  1  1
 72219  1  0
 74220  1  0
 74221  1  0
 74222  1  0
 75223  1  0
 75224  1  0
 75225  1  0
 76226  1  0
 77227  1  0
 78228  1  0
 78229  1  0
 79230  1  0
 79231  1  0
 80232  1  0
 80233  1  0
 81234  1  1
 82235  1  6
 83236  1  1
 84237  1  6
 85238  1  1
 86239  1  6
 87240  1  1
 88241  1  1
 89242  1  0
 89243  1  0
 90244  1  0
 90245  1  0
 91246  1  0
 91247  1  0
 91248  1  0
 92249  1  0
 92250  1  0
 92251  1  0
 93252  1  0
 93253  1  0
 93254  1  0
 94255  1  0
 94256  1  0
 94257  1  0
 95258  1  0
 95259  1  0
 95260  1  0
 96261  1  0
 97262  1  0
 97263  1  0
 97264  1  0
 98265  1  0
 98266  1  0
 98267  1  0
100268  1  0
100269  1  0
101270  1  0
101271  1  0
102272  1  0
102273  1  0
103274  1  0
103275  1  0
104276  1  0
104277  1  0
105278  1  0
106279  1  0
106280  1  0
106281  1  0
107282  1  0
107283  1  0
107284  1  0
108285  1  0
109286  1  0
110287  1  0
112288  1  0
113289  1  0
115290  1  0
119291  1  0
120292  1  0
121293  1  0
122294  1  0
M  END
>  <PDBID>  (1) 
2A68

>  <PDB ID>  (1) 
2A68

>  <Generic Name>  (1) 
Rifabutin

>  <Brand Name>  (1) 
Mycobutin#Rifabutin#Ansatipin#Ansatipine#Ributin

>  <DrugBank ID>  (1) 
DB00615

>  <ATC Codes>  (1) 
J04AB04

>  <Ligand ID>  (1) 
RBT

>  <Target Name>  (1) 
DNA-directed RNA polymerase subunit beta

>  <UniProt ID>  (1) 
P0A8V2

>  <PDB ID.1>  (1) 
2A68

>  <Seq. Identity>  (1) 
51%

$$$$
