PDB_DB00410_07
     RDKit          3D

 85 86  0  0  0  0  0  0  0  0999 V2000
    2.1202    0.7729   -3.9453 C   0  0  0  0  0  0  0  0  0  0  0  0
    0.7096    1.1478   -3.7434 C   0  0  0  0  0  0  0  0  0  0  0  0
    0.2136    1.0071   -2.3555 C   0  0  0  0  0  0  0  0  0  0  0  0
   -1.2906    1.4087   -2.4264 C   0  0  0  0  0  0  0  0  0  0  0  0
   -1.8185    1.2680   -1.0271 C   0  0  1  0  0  0  0  0  0  0  0  0
   -3.2998    1.6344   -0.9524 C   0  0  1  0  0  0  0  0  0  0  0  0
   -3.6146    1.7063    0.5371 C   0  0  1  0  0  0  0  0  0  0  0  0
   -3.4139    0.3159    1.0777 C   0  0  1  0  0  0  0  0  0  0  0  0
   -4.1465   -0.7477    0.3352 C   0  0  0  0  0  0  0  0  0  0  0  0
   -5.6402   -0.6020    0.3013 C   0  0  1  0  0  0  0  0  0  0  0  0
   -6.3831   -0.5952    1.5925 C   0  0  2  0  0  0  0  0  0  0  0  0
   -7.8097   -1.0259    1.7189 C   0  0  2  0  0  0  0  0  0  0  0  0
   -8.0760   -2.4388    1.3296 C   0  0  2  0  0  0  0  0  0  0  0  0
   -7.2270   -3.3342    2.2376 C   0  0  0  0  0  0  0  0  0  0  0  0
    0.8713    1.9111   -1.3351 C   0  0  0  0  0  0  0  0  0  0  0  0
   -1.9192    0.0175    0.8615 C   0  0  0  0  0  0  0  0  0  0  0  0
    8.3448   -1.4857    3.3190 C   0  0  0  0  0  0  0  0  0  0  0  0
    7.8380   -2.3603    4.2937 O   0  0  0  0  0  0  0  0  0  0  0  0
    9.2581   -0.6494    3.9550 O   0  0  0  0  0  0  0  0  0  0  0  0
    7.1936   -0.6574    2.8336 C   0  0  0  0  0  0  0  0  0  0  0  0
    7.6062    0.3355    1.7707 C   0  0  0  0  0  0  0  0  0  0  0  0
    6.4718    1.1670    1.2790 C   0  0  0  0  0  0  0  0  0  0  0  0
    5.3571    0.3906    0.6660 C   0  0  0  0  0  0  0  0  0  0  0  0
    5.7927   -0.4197   -0.5331 C   0  0  0  0  0  0  0  0  0  0  0  0
    4.6885   -1.1967   -1.1507 C   0  0  0  0  0  0  0  0  0  0  0  0
    3.5224   -0.3627   -1.6456 C   0  0  0  0  0  0  0  0  0  0  0  0
    4.0036    0.5884   -2.6748 C   0  0  0  0  0  0  0  0  0  0  0  0
    3.0950    1.4201   -3.2630 O   0  0  0  0  0  0  0  0  0  0  0  0
    2.4133    0.9074   -5.3533 O   0  0  0  0  0  0  0  0  0  0  0  0
   -1.6511   -0.0043   -0.5105 O   0  0  0  0  0  0  0  0  0  0  0  0
   -2.5725    2.4902    1.0887 O   0  0  0  0  0  0  0  0  0  0  0  0
   -3.5099    2.8931   -1.5425 O   0  0  0  0  0  0  0  0  0  0  0  0
   -6.2470    0.5694    0.7434 O   0  0  0  0  0  0  0  0  0  0  0  0
   -8.7671   -0.0536    1.0477 C   0  0  0  0  0  0  0  0  0  0  0  0
   -7.7436   -2.6432    0.0076 O   0  0  0  0  0  0  0  0  0  0  0  0
    2.2422   -0.3342   -3.8071 H   0  0  0  0  0  0  0  0  0  0  0  0
    0.0951    0.4235   -4.3733 H   0  0  0  0  0  0  0  0  0  0  0  0
    0.4417    2.1381   -4.2001 H   0  0  0  0  0  0  0  0  0  0  0  0
    0.3297   -0.0323   -2.0131 H   0  0  0  0  0  0  0  0  0  0  0  0
   -1.8157    0.8273   -3.1807 H   0  0  0  0  0  0  0  0  0  0  0  0
   -1.2925    2.4779   -2.6884 H   0  0  0  0  0  0  0  0  0  0  0  0
   -1.2996    1.9991   -0.3849 H   0  0  0  0  0  0  0  0  0  0  0  0
   -3.9380    0.9282   -1.4910 H   0  0  0  0  0  0  0  0  0  0  0  0
   -4.5648    2.1746    0.7675 H   0  0  0  0  0  0  0  0  0  0  0  0
   -3.6236    0.2313    2.1440 H   0  0  0  0  0  0  0  0  0  0  0  0
   -3.9410   -1.7114    0.8856 H   0  0  0  0  0  0  0  0  0  0  0  0
   -3.7398   -0.9375   -0.6931 H   0  0  0  0  0  0  0  0  0  0  0  0
   -6.1044   -1.1629   -0.5297 H   0  0  0  0  0  0  0  0  0  0  0  0
   -5.7974   -0.4616    2.5396 H   0  0  0  0  0  0  0  0  0  0  0  0
   -8.0717   -0.9530    2.8194 H   0  0  0  0  0  0  0  0  0  0  0  0
   -9.1593   -2.6338    1.5234 H   0  0  0  0  0  0  0  0  0  0  0  0
   -6.8966   -4.2244    1.6611 H   0  0  0  0  0  0  0  0  0  0  0  0
   -7.8425   -3.5926    3.1150 H   0  0  0  0  0  0  0  0  0  0  0  0
   -6.3378   -2.7704    2.5748 H   0  0  0  0  0  0  0  0  0  0  0  0
    0.7323    1.4737   -0.3120 H   0  0  0  0  0  0  0  0  0  0  0  0
    1.8953    2.1899   -1.5290 H   0  0  0  0  0  0  0  0  0  0  0  0
    0.2763    2.8734   -1.3156 H   0  0  0  0  0  0  0  0  0  0  0  0
   -1.6454   -0.9481    1.2952 H   0  0  0  0  0  0  0  0  0  0  0  0
   -1.3429    0.8760    1.2839 H   0  0  0  0  0  0  0  0  0  0  0  0
    8.8080   -2.1120    2.5350 H   0  0  0  0  0  0  0  0  0  0  0  0
    8.5986   -2.7521    4.8287 H   0  0  0  0  0  0  0  0  0  0  0  0
    9.8502   -0.1935    3.2829 H   0  0  0  0  0  0  0  0  0  0  0  0
    6.6873   -0.1982    3.6790 H   0  0  0  0  0  0  0  0  0  0  0  0
    6.4699   -1.3521    2.3459 H   0  0  0  0  0  0  0  0  0  0  0  0
    8.1369   -0.1362    0.9361 H   0  0  0  0  0  0  0  0  0  0  0  0
    8.3417    1.0254    2.2559 H   0  0  0  0  0  0  0  0  0  0  0  0
    6.8826    1.9007    0.5512 H   0  0  0  0  0  0  0  0  0  0  0  0
    6.0593    1.7619    2.1142 H   0  0  0  0  0  0  0  0  0  0  0  0
    4.8683   -0.2038    1.4334 H   0  0  0  0  0  0  0  0  0  0  0  0
    4.6043    1.1241    0.2886 H   0  0  0  0  0  0  0  0  0  0  0  0
    6.3311    0.1789   -1.2862 H   0  0  0  0  0  0  0  0  0  0  0  0
    6.5542   -1.1803   -0.1856 H   0  0  0  0  0  0  0  0  0  0  0  0
    4.2957   -2.0116   -0.5362 H   0  0  0  0  0  0  0  0  0  0  0  0
    5.1118   -1.6878   -2.0738 H   0  0  0  0  0  0  0  0  0  0  0  0
    2.8000   -1.0886   -2.0615 H   0  0  0  0  0  0  0  0  0  0  0  0
    2.9956    0.1228   -0.7938 H   0  0  0  0  0  0  0  0  0  0  0  0
    4.8629    1.1539   -2.2356 H   0  0  0  0  0  0  0  0  0  0  0  0
    4.4981   -0.0408   -3.4797 H   0  0  0  0  0  0  0  0  0  0  0  0
    1.8053    0.2515   -5.7974 H   0  0  0  0  0  0  0  0  0  0  0  0
   -2.9003    3.0756    1.8016 H   0  0  0  0  0  0  0  0  0  0  0  0
   -4.4387    2.9790   -1.8810 H   0  0  0  0  0  0  0  0  0  0  0  0
   -9.1165    0.7384    1.7520 H   0  0  0  0  0  0  0  0  0  0  0  0
   -9.5961   -0.5603    0.5408 H   0  0  0  0  0  0  0  0  0  0  0  0
   -8.1874    0.5033    0.2606 H   0  0  0  0  0  0  0  0  0  0  0  0
   -7.2919   -3.5235   -0.0658 H   0  0  0  0  0  0  0  0  0  0  0  0
  1  2  1  0
  2  3  1  0
  3  4  1  0
  4  5  1  0
  5  6  1  0
  6  7  1  0
  7  8  1  0
  8  9  1  0
  9 10  1  0
 10 11  1  0
 11 12  1  0
 12 13  1  0
 13 14  1  0
  3 15  1  0
  8 16  1  0
 17 18  1  0
 17 19  1  0
 17 20  1  0
 20 21  1  0
 21 22  1  0
 22 23  1  0
 23 24  1  0
 24 25  1  0
 25 26  1  0
 26 27  1  0
  1 28  1  0
 27 28  1  0
  1 29  1  0
  5 30  1  0
 16 30  1  0
  7 31  1  0
  6 32  1  0
 10 33  1  0
 11 33  1  0
 12 34  1  0
 13 35  1  0
  1 36  1  0
  2 37  1  0
  2 38  1  0
  3 39  1  0
  4 40  1  0
  4 41  1  0
  5 42  1  1
  6 43  1  6
  7 44  1  6
  8 45  1  1
  9 46  1  0
  9 47  1  0
 10 48  1  6
 11 49  1  1
 12 50  1  1
 13 51  1  6
 14 52  1  0
 14 53  1  0
 14 54  1  0
 15 55  1  0
 15 56  1  0
 15 57  1  0
 16 58  1  0
 16 59  1  0
 17 60  1  0
 18 61  1  0
 19 62  1  0
 20 63  1  0
 20 64  1  0
 21 65  1  0
 21 66  1  0
 22 67  1  0
 22 68  1  0
 23 69  1  0
 23 70  1  0
 24 71  1  0
 24 72  1  0
 25 73  1  0
 25 74  1  0
 26 75  1  0
 26 76  1  0
 27 77  1  0
 27 78  1  0
 29 79  1  0
 31 80  1  0
 32 81  1  0
 34 82  1  0
 34 83  1  0
 34 84  1  0
 35 85  1  0
M  END
>  <PDBID>  (1) 
1FFY

>  <PDB ID>  (1) 
1FFY

>  <Generic Name>  (1) 
Mupirocin

>  <Brand Name>  (1) 
Bactroban#Bactroban Cream#Bactroban Nasal Ointment#Centany#Centany At#Mupirocin#Mupirocin 2%#Mupirocin Calcium#Taro-mupirocin#Bactroban Nasal#Plasimine#Spectroderm#T-Bact#Turixin

>  <DrugBank ID>  (1) 
DB00410

>  <ATC Codes>  (1) 
R01AX06#D06AX09

>  <Ligand ID>  (1) 
MRC

>  <Target Name>  (1) 
Isoleucine--tRNA ligase

>  <UniProt ID>  (1) 
P41972

>  <PDB ID.1>  (1) 
1FFY

>  <Seq. Identity>  (1) 
95%

$$$$
