PDB_DB08901_05
     RDKit          3D

184192  0  0  0  0  0  0  0  0999 V2000
   -7.9107   -1.0787    1.7221 N   0  0  0  0  0  0  0  0  0  0  0  0
    7.1869   -0.4780    0.7516 N   0  0  0  0  0  0  0  0  0  0  0  0
   -3.9797   -0.4507    0.2835 C   0  0  0  0  0  0  0  0  0  0  0  0
   -3.2699   -0.8463   -0.9933 C   0  0  0  0  0  0  0  0  0  0  0  0
   -3.1708    0.3104   -1.9681 C   0  0  0  0  0  0  0  0  0  0  0  0
   -1.8595    0.2792   -2.7216 C   0  0  0  0  0  0  0  0  0  0  0  0
   -0.6601    0.4440   -1.7594 C   0  0  0  0  0  0  0  0  0  0  0  0
   -1.9274   -1.4824   -0.7497 C   0  0  0  0  0  0  0  0  0  0  0  0
    2.2564    0.3829   -0.5158 C   0  0  0  0  0  0  0  0  0  0  0  0
    4.3457    0.0704    0.8453 C   0  0  0  0  0  0  0  0  0  0  0  0
    4.1740   -1.0129   -1.4146 C   0  0  0  0  0  0  0  0  0  0  0  0
    6.2504   -1.2738   -0.0607 C   0  0  0  0  0  0  0  0  0  0  0  0
    8.3442   -1.2554    1.0918 C   0  0  0  0  0  0  0  0  0  0  0  0
    9.1715   -0.4884    2.0900 C   0  0  0  0  0  0  0  0  0  0  0  0
    7.5968    0.6753   -0.0245 C   0  0  0  0  0  0  0  0  0  0  0  0
   -9.7581    0.2517    0.7942 C   0  0  0  0  0  0  0  0  0  0  0  0
  -10.0724    1.6845    0.4643 C   0  0  0  0  0  0  0  0  0  0  0  0
   -8.9029    2.4517   -0.0631 C   0  0  0  0  0  0  0  0  0  0  0  0
   -7.6802    2.2009    0.6726 N   0  0  0  0  0  0  0  0  0  0  0  0
   -7.4616    0.8436    0.6745 N   0  0  0  0  0  0  0  0  0  0  0  0
   -8.4481    0.2340    1.5478 C   0  0  0  0  0  0  0  0  0  0  0  0
   -6.5085   -0.7961    1.9813 C   0  0  0  0  0  0  0  0  0  0  0  0
   -6.1652    0.4324    1.1649 C   0  0  0  0  0  0  0  0  0  0  0  0
   -5.3668    0.0074   -0.0582 C   0  0  0  0  0  0  0  0  0  0  0  0
   -0.8169   -0.4670   -0.6072 C   0  0  0  0  0  0  0  0  0  0  0  0
   -4.2657    0.2433   -3.0118 C   0  0  0  0  0  0  0  0  0  0  0  0
    0.4175   -1.2265   -0.1992 C   0  0  0  0  0  0  0  0  0  0  0  0
    0.0729   -2.0797    0.9123 O   0  0  0  0  0  0  0  0  0  0  0  0
    1.5253   -0.5075    0.2568 N   0  0  0  0  0  0  0  0  0  0  0  0
    3.3123    1.0445    0.3732 C   0  0  0  0  0  0  0  0  0  0  0  0
    5.0751   -0.4155   -0.3850 C   0  0  0  0  0  0  0  0  0  0  0  0
    2.9664   -0.1871   -1.7099 C   0  0  0  0  0  0  0  0  0  0  0  0
    3.8493   -2.4726   -1.1812 C   0  0  0  0  0  0  0  0  0  0  0  0
    5.0133   -3.2180   -1.1891 F   0  0  0  0  0  0  0  0  0  0  0  0
    3.2589   -2.6797    0.0486 F   0  0  0  0  0  0  0  0  0  0  0  0
    3.0304   -2.9743   -2.1447 F   0  0  0  0  0  0  0  0  0  0  0  0
    9.0156    1.0802    0.2667 C   0  0  0  0  0  0  0  0  0  0  0  0
    8.8571    1.8704    2.4725 C   0  0  0  0  0  0  0  0  0  0  0  0
    9.4196    0.8406    1.6209 N   0  0  0  0  0  0  0  0  0  0  0  0
   -9.0112    0.8605    0.6836 N   0  0  0  0  0  0  0  0  0  0  0  0
    7.1010    0.0038   -0.1569 N   0  0  0  0  0  0  0  0  0  0  0  0
   -4.5009    1.1260   -0.5988 C   0  0  0  0  0  0  0  0  0  0  0  0
   -3.1521    0.6942   -0.1363 C   0  0  0  0  0  0  0  0  0  0  0  0
   -3.0933   -0.6740    0.4919 C   0  0  0  0  0  0  0  0  0  0  0  0
   -1.7532   -0.7495    1.2047 C   0  0  0  0  0  0  0  0  0  0  0  0
   -0.5889   -0.5703    0.2773 C   0  0  0  0  0  0  0  0  0  0  0  0
   -2.1318    0.7113   -1.2527 C   0  0  0  0  0  0  0  0  0  0  0  0
    2.3568    1.6008   -0.0227 C   0  0  0  0  0  0  0  0  0  0  0  0
    4.0034    0.9932    1.7495 C   0  0  0  0  0  0  0  0  0  0  0  0
    4.0353   -0.2886   -0.3473 C   0  0  0  0  0  0  0  0  0  0  0  0
    6.1749    0.2520    0.8390 C   0  0  0  0  0  0  0  0  0  0  0  0
    7.1008   -1.0026   -1.0979 C   0  0  0  0  0  0  0  0  0  0  0  0
    8.5240   -1.5973   -1.3223 C   0  0  0  0  0  0  0  0  0  0  0  0
    8.3476    0.7298   -0.0269 C   0  0  0  0  0  0  0  0  0  0  0  0
   -9.5511   -0.2433   -1.4360 C   0  0  0  0  0  0  0  0  0  0  0  0
   -8.9705   -1.6151   -1.1424 C   0  0  0  0  0  0  0  0  0  0  0  0
   -7.4624   -1.6134   -1.3336 C   0  0  0  0  0  0  0  0  0  0  0  0
   -6.9318   -0.5868   -0.4625 N   0  0  0  0  0  0  0  0  0  0  0  0
   -7.3370    0.6756   -0.8772 N   0  0  0  0  0  0  0  0  0  0  0  0
   -8.7720    0.8470   -0.7385 C   0  0  0  0  0  0  0  0  0  0  0  0
   -7.8106    1.4234    1.2604 C   0  0  0  0  0  0  0  0  0  0  0  0
   -6.8432    1.6246    0.1185 C   0  0  0  0  0  0  0  0  0  0  0  0
   -5.4594    1.1706    0.5586 C   0  0  0  0  0  0  0  0  0  0  0  0
   -0.7341    0.5565   -0.6912 C   0  0  0  0  0  0  0  0  0  0  0  0
   -3.1956   -1.7526   -0.5782 C   0  0  0  0  0  0  0  0  0  0  0  0
   -0.1233    1.8626   -0.2506 C   0  0  1  0  0  0  0  0  0  0  0  0
   -0.7285    2.2133    0.9651 O   0  0  0  0  0  0  0  0  0  0  0  0
    1.1808    2.1674   -0.4665 N   0  0  0  0  0  0  0  0  0  0  0  0
    2.6377    1.5436    1.4247 C   0  0  0  0  0  0  0  0  0  0  0  0
    4.8038    0.7075    0.4850 C   0  0  0  0  0  0  0  0  0  0  0  0
    2.7120    0.3615   -0.7609 C   0  0  0  0  0  0  0  0  0  0  0  0
    3.7075   -1.5683    0.4078 C   0  0  0  0  0  0  0  0  0  0  0  0
    4.7730   -2.2535    0.8825 F   0  0  0  0  0  0  0  0  0  0  0  0
    3.1325   -2.4340   -0.5643 F   0  0  0  0  0  0  0  0  0  0  0  0
    2.7276   -1.4258    1.3446 F   0  0  0  0  0  0  0  0  0  0  0  0
    9.4463   -0.2151    0.4257 C   0  0  0  0  0  0  0  0  0  0  0  0
    9.8226   -2.6036    0.4495 C   0  0  0  0  0  0  0  0  0  0  0  0
    9.2327   -1.4736   -0.1332 N   0  0  0  0  0  0  0  0  0  0  0  0
   -7.9206   -1.5522    0.7683 H   0  0  0  0  0  0  0  0  0  0  0  0
   -3.4104    0.2943    0.8699 H   0  0  0  0  0  0  0  0  0  0  0  0
   -4.0265   -1.3640    0.9097 H   0  0  0  0  0  0  0  0  0  0  0  0
   -3.9099   -1.6105   -1.4784 H   0  0  0  0  0  0  0  0  0  0  0  0
   -3.2278    1.3010   -1.4719 H   0  0  0  0  0  0  0  0  0  0  0  0
   -1.6966   -0.6454   -3.2811 H   0  0  0  0  0  0  0  0  0  0  0  0
   -1.7915    1.1453   -3.4086 H   0  0  0  0  0  0  0  0  0  0  0  0
   -0.6032    1.5294   -1.4699 H   0  0  0  0  0  0  0  0  0  0  0  0
    0.2030    0.2511   -2.4171 H   0  0  0  0  0  0  0  0  0  0  0  0
   -1.9893   -2.0589    0.1865 H   0  0  0  0  0  0  0  0  0  0  0  0
   -1.7364   -2.1963   -1.5730 H   0  0  0  0  0  0  0  0  0  0  0  0
    1.6439    1.2383   -0.8557 H   0  0  0  0  0  0  0  0  0  0  0  0
    3.9438   -0.7460    1.4640 H   0  0  0  0  0  0  0  0  0  0  0  0
    5.0748    0.6409    1.4551 H   0  0  0  0  0  0  0  0  0  0  0  0
    4.7785   -1.0164   -2.3742 H   0  0  0  0  0  0  0  0  0  0  0  0
    6.8024   -1.5491   -0.9749 H   0  0  0  0  0  0  0  0  0  0  0  0
    5.9897   -2.1596    0.5766 H   0  0  0  0  0  0  0  0  0  0  0  0
    8.0019   -2.2119    1.5572 H   0  0  0  0  0  0  0  0  0  0  0  0
    8.9562   -1.5230    0.1806 H   0  0  0  0  0  0  0  0  0  0  0  0
    8.5432   -0.4083    3.0173 H   0  0  0  0  0  0  0  0  0  0  0  0
   10.1017   -1.0323    2.3726 H   0  0  0  0  0  0  0  0  0  0  0  0
    7.5245    0.4962   -1.1212 H   0  0  0  0  0  0  0  0  0  0  0  0
    6.9231    1.5532    0.1784 H   0  0  0  0  0  0  0  0  0  0  0  0
   -9.6284   -0.3758   -0.1136 H   0  0  0  0  0  0  0  0  0  0  0  0
  -10.5420   -0.1390    1.4788 H   0  0  0  0  0  0  0  0  0  0  0  0
  -10.5919    2.1712    1.3052 H   0  0  0  0  0  0  0  0  0  0  0  0
  -10.8324    1.6505   -0.3703 H   0  0  0  0  0  0  0  0  0  0  0  0
   -8.7257    2.2703   -1.1387 H   0  0  0  0  0  0  0  0  0  0  0  0
   -9.1263    3.5342    0.0368 H   0  0  0  0  0  0  0  0  0  0  0  0
   -7.8276    2.5143    1.6519 H   0  0  0  0  0  0  0  0  0  0  0  0
   -8.5102    0.7444    2.5204 H   0  0  0  0  0  0  0  0  0  0  0  0
   -6.4414   -0.4948    3.0479 H   0  0  0  0  0  0  0  0  0  0  0  0
   -5.8634   -1.6494    1.7322 H   0  0  0  0  0  0  0  0  0  0  0  0
   -5.6555    1.1986    1.7494 H   0  0  0  0  0  0  0  0  0  0  0  0
   -5.8863   -0.8370   -0.5728 H   0  0  0  0  0  0  0  0  0  0  0  0
   -5.2874    0.8230   -0.7966 H   0  0  0  0  0  0  0  0  0  0  0  0
   -1.0624    0.1773    0.2929 H   0  0  0  0  0  0  0  0  0  0  0  0
   -5.0015   -0.5533   -2.7800 H   0  0  0  0  0  0  0  0  0  0  0  0
   -4.7620    1.2359   -3.1522 H   0  0  0  0  0  0  0  0  0  0  0  0
   -3.8681   -0.0198   -4.0289 H   0  0  0  0  0  0  0  0  0  0  0  0
    0.6151   -1.9563   -1.0131 H   0  0  0  0  0  0  0  0  0  0  0  0
   -0.0673   -1.4720    1.6813 H   0  0  0  0  0  0  0  0  0  0  0  0
    1.4235   -0.1838    1.2346 H   0  0  0  0  0  0  0  0  0  0  0  0
    3.8220    1.7952   -0.2668 H   0  0  0  0  0  0  0  0  0  0  0  0
    2.8020    1.5955    1.1828 H   0  0  0  0  0  0  0  0  0  0  0  0
    5.4983    0.5239   -0.8563 H   0  0  0  0  0  0  0  0  0  0  0  0
    2.3218   -0.7946   -2.3715 H   0  0  0  0  0  0  0  0  0  0  0  0
    3.2994    0.6826   -2.3299 H   0  0  0  0  0  0  0  0  0  0  0  0
    9.7038    0.6356   -0.4887 H   0  0  0  0  0  0  0  0  0  0  0  0
    9.0843    2.1880    0.1005 H   0  0  0  0  0  0  0  0  0  0  0  0
    8.8913    2.8217    1.9222 H   0  0  0  0  0  0  0  0  0  0  0  0
    9.3557    1.9055    3.4644 H   0  0  0  0  0  0  0  0  0  0  0  0
    7.7730    1.6759    2.6796 H   0  0  0  0  0  0  0  0  0  0  0  0
   -9.1788   -0.1281    0.9826 H   0  0  0  0  0  0  0  0  0  0  0  0
   -4.3904    2.1410   -1.0358 H   0  0  0  0  0  0  0  0  0  0  0  0
   -4.8978    0.4902   -1.4209 H   0  0  0  0  0  0  0  0  0  0  0  0
   -2.8684    1.4043    0.6926 H   0  0  0  0  0  0  0  0  0  0  0  0
   -3.8568   -0.8741    1.2351 H   0  0  0  0  0  0  0  0  0  0  0  0
   -1.7684   -0.0503    2.0389 H   0  0  0  0  0  0  0  0  0  0  0  0
   -1.6859   -1.7990    1.6101 H   0  0  0  0  0  0  0  0  0  0  0  0
    0.2983   -0.3869    0.9121 H   0  0  0  0  0  0  0  0  0  0  0  0
   -0.3612   -1.5578   -0.2264 H   0  0  0  0  0  0  0  0  0  0  0  0
   -2.3385   -0.1298   -1.9256 H   0  0  0  0  0  0  0  0  0  0  0  0
   -2.1365    1.6972   -1.7948 H   0  0  0  0  0  0  0  0  0  0  0  0
    3.1806    2.3547   -0.3997 H   0  0  0  0  0  0  0  0  0  0  0  0
    4.6562    1.7326    2.3054 H   0  0  0  0  0  0  0  0  0  0  0  0
    3.9543    0.1284    2.4360 H   0  0  0  0  0  0  0  0  0  0  0  0
    4.5901   -0.5036   -1.2591 H   0  0  0  0  0  0  0  0  0  0  0  0
    6.1681   -0.6184    1.5509 H   0  0  0  0  0  0  0  0  0  0  0  0
    6.6012    1.0791    1.5191 H   0  0  0  0  0  0  0  0  0  0  0  0
    6.4815   -1.9014   -0.9593 H   0  0  0  0  0  0  0  0  0  0  0  0
    6.7863   -0.5703   -2.1142 H   0  0  0  0  0  0  0  0  0  0  0  0
    8.4332   -2.6225   -1.6557 H   0  0  0  0  0  0  0  0  0  0  0  0
    9.0000   -0.9976   -2.1431 H   0  0  0  0  0  0  0  0  0  0  0  0
    8.2231    1.5905    0.6583 H   0  0  0  0  0  0  0  0  0  0  0  0
    8.6180    1.0536   -1.0661 H   0  0  0  0  0  0  0  0  0  0  0  0
  -10.5780   -0.2348   -1.0273 H   0  0  0  0  0  0  0  0  0  0  0  0
   -9.5216   -0.0811   -2.5217 H   0  0  0  0  0  0  0  0  0  0  0  0
   -9.3877   -2.3378   -1.8433 H   0  0  0  0  0  0  0  0  0  0  0  0
   -9.1584   -1.9299   -0.0911 H   0  0  0  0  0  0  0  0  0  0  0  0
   -7.1677   -1.3831   -2.3622 H   0  0  0  0  0  0  0  0  0  0  0  0
   -7.0887   -2.5952   -0.9640 H   0  0  0  0  0  0  0  0  0  0  0  0
   -7.2078   -0.7797    0.5433 H   0  0  0  0  0  0  0  0  0  0  0  0
   -9.0333    1.8174   -1.1960 H   0  0  0  0  0  0  0  0  0  0  0  0
   -7.4380    0.6880    2.0041 H   0  0  0  0  0  0  0  0  0  0  0  0
   -8.0262    2.3654    1.8001 H   0  0  0  0  0  0  0  0  0  0  0  0
   -6.8228    2.6496   -0.2480 H   0  0  0  0  0  0  0  0  0  0  0  0
   -5.0766    1.9132    1.3030 H   0  0  0  0  0  0  0  0  0  0  0  0
   -5.4849    0.2048    1.0571 H   0  0  0  0  0  0  0  0  0  0  0  0
   -0.1499    0.1885   -1.6157 H   0  0  0  0  0  0  0  0  0  0  0  0
   -2.2030   -2.0257   -0.9858 H   0  0  0  0  0  0  0  0  0  0  0  0
   -3.7201   -2.6638   -0.1679 H   0  0  0  0  0  0  0  0  0  0  0  0
   -3.8308   -1.4288   -1.4343 H   0  0  0  0  0  0  0  0  0  0  0  0
   -0.7040    2.6202   -0.9452 H   0  0  0  0  0  0  0  0  0  0  0  0
    0.0136    2.5788    1.5319 H   0  0  0  0  0  0  0  0  0  0  0  0
    1.3670    2.8737   -1.2572 H   0  0  0  0  0  0  0  0  0  0  0  0
    2.6720    2.5902    1.8846 H   0  0  0  0  0  0  0  0  0  0  0  0
    1.8830    0.9668    2.0084 H   0  0  0  0  0  0  0  0  0  0  0  0
    4.9144    1.6375   -0.0971 H   0  0  0  0  0  0  0  0  0  0  0  0
    1.9899   -0.4440   -0.7846 H   0  0  0  0  0  0  0  0  0  0  0  0
    2.8016    0.6832   -1.8550 H   0  0  0  0  0  0  0  0  0  0  0  0
   10.4056    0.2133    0.0193 H   0  0  0  0  0  0  0  0  0  0  0  0
    9.5510   -0.2048    1.5392 H   0  0  0  0  0  0  0  0  0  0  0  0
   10.5346   -3.0656   -0.2728 H   0  0  0  0  0  0  0  0  0  0  0  0
    9.0299   -3.3900    0.6062 H   0  0  0  0  0  0  0  0  0  0  0  0
   10.2591   -2.4154    1.4303 H   0  0  0  0  0  0  0  0  0  0  0  0
  3  4  1  0
  4  5  1  0
  5  6  1  0
  6  7  1  0
  4  8  1  0
  2 12  1  0
  2 13  1  0
 13 14  1  0
  2 15  1  0
 16 17  1  0
 17 18  1  0
 18 19  1  0
 19 20  1  0
  1 21  1  0
 16 21  1  0
 20 21  1  0
  1 22  1  0
 20 23  1  0
 22 23  1  0
  3 24  1  0
 23 24  1  0
  7 25  1  0
  8 25  1  0
  5 26  1  0
 25 27  1  0
 27 28  1  0
  9 29  1  0
 27 29  1  0
  9 30  1  0
 10 30  1  0
 10 31  1  0
 11 31  1  0
 12 31  1  0
  9 32  1  0
 11 32  1  0
 11 33  1  0
 33 34  1  0
 33 35  1  0
 33 36  1  0
 15 37  1  0
 14 39  1  0
 37 39  1  0
 38 39  1  0
 42 43  1  0
 43 44  1  0
 44 45  1  0
 45 46  1  0
 43 47  1  0
 41 51  1  0
 41 52  1  0
 52 53  1  0
 41 54  1  0
 55 56  1  0
 56 57  1  0
 57 58  1  0
 58 59  1  0
 40 60  1  0
 55 60  1  0
 59 60  1  0
 40 61  1  0
 59 62  1  0
 61 62  1  0
 42 63  1  0
 62 63  1  0
 46 64  1  0
 47 64  1  0
 44 65  1  0
 64 66  1  0
 66 67  1  0
 48 68  1  0
 66 68  1  0
 48 69  1  0
 49 69  1  0
 49 70  1  0
 50 70  1  0
 51 70  1  0
 48 71  1  0
 50 71  1  0
 50 72  1  0
 72 73  1  0
 72 74  1  0
 72 75  1  0
 54 76  1  0
 53 78  1  0
 76 78  1  0
 77 78  1  0
  1 79  1  0
  3 80  1  0
  3 81  1  0
  4 82  1  0
  5 83  1  0
  6 84  1  0
  6 85  1  0
  7 86  1  0
  7 87  1  0
  8 88  1  0
  8 89  1  0
  9 90  1  0
 10 91  1  0
 10 92  1  0
 11 93  1  0
 12 94  1  0
 12 95  1  0
 13 96  1  0
 13 97  1  0
 14 98  1  0
 14 99  1  0
 15100  1  0
 15101  1  0
 16102  1  0
 16103  1  0
 17104  1  0
 17105  1  0
 18106  1  0
 18107  1  0
 19108  1  0
 21109  1  0
 22110  1  0
 22111  1  0
 23112  1  0
 24113  1  0
 24114  1  0
 25115  1  0
 26116  1  0
 26117  1  0
 26118  1  0
 27119  1  0
 28120  1  0
 29121  1  0
 30122  1  0
 30123  1  0
 31124  1  0
 32125  1  0
 32126  1  0
 37127  1  0
 37128  1  0
 38129  1  0
 38130  1  0
 38131  1  0
 40132  1  0
 42133  1  0
 42134  1  0
 43135  1  0
 44136  1  0
 45137  1  0
 45138  1  0
 46139  1  0
 46140  1  0
 47141  1  0
 47142  1  0
 48143  1  0
 49144  1  0
 49145  1  0
 50146  1  0
 51147  1  0
 51148  1  0
 52149  1  0
 52150  1  0
 53151  1  0
 53152  1  0
 54153  1  0
 54154  1  0
 55155  1  0
 55156  1  0
 56157  1  0
 56158  1  0
 57159  1  0
 57160  1  0
 58161  1  0
 60162  1  0
 61163  1  0
 61164  1  0
 62165  1  0
 63166  1  0
 63167  1  0
 64168  1  0
 65169  1  0
 65170  1  0
 65171  1  0
 66172  1  6
 67173  1  0
 68174  1  0
 69175  1  0
 69176  1  0
 70177  1  0
 71178  1  0
 71179  1  0
 76180  1  0
 76181  1  0
 77182  1  0
 77183  1  0
 77184  1  0
M  END
>  <PDBID>  (1) 
3IK3

>  <PDB ID>  (1) 
3IK3

>  <Generic Name>  (1) 
Ponatinib

>  <Brand Name>  (1) 
Iclusig

>  <DrugBank ID>  (1) 
DB08901

>  <ATC Codes>  (1) 
L01XE24

>  <Ligand ID>  (1) 
0LI

>  <Target Name>  (1) 
Tyrosine-protein kinase ABL1

>  <UniProt ID>  (1) 
P00519

>  <PDB ID.1>  (1) 
3IK3

>  <Seq. Identity>  (1) 
95%

$$$$
