PDB_DB04868_08
     RDKit          3D

 91 95  0  0  0  0  0  0  0  0999 V2000
   -1.6061    1.7972   -0.3334 O   0  0  0  0  0  0  0  0  0  0  0  0
   -1.6197    0.9724    0.7513 C   0  0  1  0  0  0  0  0  0  0  0  0
   -2.8048    0.2050    0.9564 N   0  0  0  0  0  0  0  0  0  0  0  0
   -4.0014    1.0542    1.0952 C   0  0  2  0  0  0  0  0  0  0  0  0
   -5.1409    0.0908    1.4060 C   0  0  0  0  0  0  0  0  0  0  0  0
   -5.9783   -0.0310    0.1756 C   0  0  0  0  0  0  0  0  0  0  0  0
   -7.0074   -0.9941    0.1938 N   0  0  0  0  0  0  0  0  0  0  0  0
   -8.0512   -0.8267    1.1580 C   0  0  0  0  0  0  0  0  0  0  0  0
   -8.8300   -2.1132    1.0197 C   0  0  0  0  0  0  0  0  0  0  0  0
   -9.9864   -1.8388    0.0646 C   0  0  0  0  0  0  0  0  0  0  0  0
   -7.9336   -3.0361    0.3844 N   0  0  0  0  0  0  0  0  0  0  0  0
   -6.6290   -2.3619    0.3477 C   0  0  0  0  0  0  0  0  0  0  0  0
   -6.6505    1.3345   -0.0277 C   0  0  0  0  0  0  0  0  0  0  0  0
   -4.1725    1.8135   -0.1667 C   0  0  0  0  0  0  0  0  0  0  0  0
   -5.5768    2.2504   -0.4944 C   0  0  0  0  0  0  0  0  0  0  0  0
   -5.6663    2.3684   -2.0023 C   0  0  0  0  0  0  0  0  0  0  0  0
   -5.4981    1.0847   -2.5193 F   0  0  0  0  0  0  0  0  0  0  0  0
   -4.5264    3.0616   -2.4475 F   0  0  0  0  0  0  0  0  0  0  0  0
   -6.8108    2.9799   -2.4385 F   0  0  0  0  0  0  0  0  0  0  0  0
   -0.4404   -0.0011    0.6242 C   0  0  1  0  0  0  0  0  0  0  0  0
   -0.6087   -0.7774   -0.6424 C   0  0  0  0  0  0  0  0  0  0  0  0
    0.5952   -1.5264   -1.1000 C   0  0  0  0  0  0  0  0  0  0  0  0
    1.5656   -1.5775    0.0637 C   0  0  0  0  0  0  0  0  0  0  0  0
    2.6657   -2.5327   -0.2567 C   0  0  0  0  0  0  0  0  0  0  0  0
    2.0299   -0.1878    0.4164 C   0  0  2  0  0  0  0  0  0  0  0  0
    0.8556    0.7114    0.6798 C   0  0  0  0  0  0  0  0  0  0  0  0
    2.8406    0.3020   -0.6868 N   0  0  0  0  0  0  0  0  0  0  0  0
    3.8780    1.2075   -0.3059 C   0  0  0  0  0  0  0  0  0  0  0  0
    4.4621    1.7088   -1.5602 N   0  0  0  0  0  0  0  0  0  0  0  0
    5.1527    0.6944   -2.2935 C   0  0  0  0  0  0  0  0  0  0  0  0
    6.2968    0.1602   -1.4276 C   0  0  0  0  0  0  0  0  0  0  0  0
    6.1863    0.9246   -0.1144 C   0  0  0  0  0  0  0  0  0  0  0  0
    4.9332    0.5959    0.4937 N   0  0  0  0  0  0  0  0  0  0  0  0
    7.3817    0.7856    0.7659 C   0  0  0  0  0  0  0  0  0  0  0  0
    7.7415   -0.6079    1.1577 C   0  0  0  0  0  0  0  0  0  0  0  0
    9.2567   -0.8145    1.0082 C   0  0  0  0  0  0  0  0  0  0  0  0
    9.5999   -0.5575   -0.4305 C   0  0  0  0  0  0  0  0  0  0  0  0
    9.2900    0.7966   -0.8103 N   0  0  0  0  0  0  0  0  0  0  0  0
    8.5716    1.5161    0.2020 C   0  0  0  0  0  0  0  0  0  0  0  0
   -0.8213    1.8518   -0.8795 H   0  0  0  0  0  0  0  0  0  0  0  0
   -1.4784    1.6142    1.6614 H   0  0  0  0  0  0  0  0  0  0  0  0
   -2.6718   -0.2988    1.8784 H   0  0  0  0  0  0  0  0  0  0  0  0
   -3.8050    1.7256    1.9697 H   0  0  0  0  0  0  0  0  0  0  0  0
   -4.7945   -0.8563    1.8308 H   0  0  0  0  0  0  0  0  0  0  0  0
   -5.7721    0.6342    2.1670 H   0  0  0  0  0  0  0  0  0  0  0  0
   -5.3120   -0.2634   -0.6944 H   0  0  0  0  0  0  0  0  0  0  0  0
   -7.6944   -0.7993    2.2089 H   0  0  0  0  0  0  0  0  0  0  0  0
   -8.7107    0.0323    0.9176 H   0  0  0  0  0  0  0  0  0  0  0  0
   -9.2019   -2.4817    2.0013 H   0  0  0  0  0  0  0  0  0  0  0  0
  -10.9588   -1.7470    0.5970 H   0  0  0  0  0  0  0  0  0  0  0  0
   -9.8567   -0.8411   -0.4492 H   0  0  0  0  0  0  0  0  0  0  0  0
  -10.0709   -2.5870   -0.7416 H   0  0  0  0  0  0  0  0  0  0  0  0
   -8.1768   -3.1563   -0.6459 H   0  0  0  0  0  0  0  0  0  0  0  0
   -6.0485   -2.7072   -0.5311 H   0  0  0  0  0  0  0  0  0  0  0  0
   -6.1176   -2.5085    1.3142 H   0  0  0  0  0  0  0  0  0  0  0  0
   -7.0291    1.6273    0.9958 H   0  0  0  0  0  0  0  0  0  0  0  0
   -7.4951    1.2295   -0.7220 H   0  0  0  0  0  0  0  0  0  0  0  0
   -3.6030    2.7916   -0.0712 H   0  0  0  0  0  0  0  0  0  0  0  0
   -3.7578    1.2756   -1.0205 H   0  0  0  0  0  0  0  0  0  0  0  0
   -5.7956    3.2715   -0.0538 H   0  0  0  0  0  0  0  0  0  0  0  0
   -0.5141   -0.6564    1.5320 H   0  0  0  0  0  0  0  0  0  0  0  0
   -1.4823   -1.4984   -0.5333 H   0  0  0  0  0  0  0  0  0  0  0  0
   -0.8662   -0.0511   -1.4686 H   0  0  0  0  0  0  0  0  0  0  0  0
    0.3152   -2.5629   -1.3402 H   0  0  0  0  0  0  0  0  0  0  0  0
    1.0754   -1.0602   -1.9924 H   0  0  0  0  0  0  0  0  0  0  0  0
    1.0099   -1.9841    0.9329 H   0  0  0  0  0  0  0  0  0  0  0  0
    3.4889   -2.1436   -0.8576 H   0  0  0  0  0  0  0  0  0  0  0  0
    2.2206   -3.3893   -0.8437 H   0  0  0  0  0  0  0  0  0  0  0  0
    3.0807   -3.0358    0.6609 H   0  0  0  0  0  0  0  0  0  0  0  0
    2.6765   -0.2611    1.3177 H   0  0  0  0  0  0  0  0  0  0  0  0
    0.9397    1.5383   -0.0845 H   0  0  0  0  0  0  0  0  0  0  0  0
    0.9832    1.2157    1.6905 H   0  0  0  0  0  0  0  0  0  0  0  0
    2.3007    0.5502   -1.5161 H   0  0  0  0  0  0  0  0  0  0  0  0
    3.4950    2.0751    0.2330 H   0  0  0  0  0  0  0  0  0  0  0  0
    3.6884    2.1212   -2.1082 H   0  0  0  0  0  0  0  0  0  0  0  0
    4.5185   -0.1288   -2.6539 H   0  0  0  0  0  0  0  0  0  0  0  0
    5.6543    1.2078   -3.1617 H   0  0  0  0  0  0  0  0  0  0  0  0
    6.0556   -0.9034   -1.2141 H   0  0  0  0  0  0  0  0  0  0  0  0
    7.2689    0.2757   -1.9222 H   0  0  0  0  0  0  0  0  0  0  0  0
    6.1530    2.0175   -0.4200 H   0  0  0  0  0  0  0  0  0  0  0  0
    4.8117   -0.4219    0.5598 H   0  0  0  0  0  0  0  0  0  0  0  0
    7.1271    1.3295    1.7261 H   0  0  0  0  0  0  0  0  0  0  0  0
    7.2778   -1.4063    0.5627 H   0  0  0  0  0  0  0  0  0  0  0  0
    7.5160   -0.8208    2.2310 H   0  0  0  0  0  0  0  0  0  0  0  0
    9.7919   -0.1954    1.7288 H   0  0  0  0  0  0  0  0  0  0  0  0
    9.4697   -1.8942    1.2146 H   0  0  0  0  0  0  0  0  0  0  0  0
   10.6757   -0.7392   -0.6174 H   0  0  0  0  0  0  0  0  0  0  0  0
    9.0312   -1.2799   -1.0549 H   0  0  0  0  0  0  0  0  0  0  0  0
   10.1416    1.3461   -1.0363 H   0  0  0  0  0  0  0  0  0  0  0  0
    9.2789    1.8377    1.0173 H   0  0  0  0  0  0  0  0  0  0  0  0
    8.2243    2.4802   -0.2442 H   0  0  0  0  0  0  0  0  0  0  0  0
  1  2  1  0
  2  3  1  0
  3  4  1  0
  4  5  1  0
  5  6  1  0
  6  7  1  0
  7  8  1  0
  8  9  1  0
  9 10  1  0
  9 11  1  0
  7 12  1  0
 11 12  1  0
  6 13  1  0
  4 14  1  0
 13 15  1  0
 14 15  1  0
 15 16  1  0
 16 17  1  0
 16 18  1  0
 16 19  1  0
  2 20  1  0
 20 21  1  0
 21 22  1  0
 22 23  1  0
 23 24  1  0
 23 25  1  0
 20 26  1  0
 25 26  1  0
 25 27  1  0
 27 28  1  0
 28 29  1  0
 29 30  1  0
 30 31  1  0
 31 32  1  0
 28 33  1  0
 32 33  1  0
 32 34  1  0
 34 35  1  0
 35 36  1  0
 36 37  1  0
 37 38  1  0
 34 39  1  0
 38 39  1  0
  1 40  1  0
  2 41  1  1
  3 42  1  0
  4 43  1  1
  5 44  1  0
  5 45  1  0
  6 46  1  0
  8 47  1  0
  8 48  1  0
  9 49  1  0
 10 50  1  0
 10 51  1  0
 10 52  1  0
 11 53  1  0
 12 54  1  0
 12 55  1  0
 13 56  1  0
 13 57  1  0
 14 58  1  0
 14 59  1  0
 15 60  1  0
 20 61  1  1
 21 62  1  0
 21 63  1  0
 22 64  1  0
 22 65  1  0
 23 66  1  0
 24 67  1  0
 24 68  1  0
 24 69  1  0
 25 70  1  1
 26 71  1  0
 26 72  1  0
 27 73  1  0
 28 74  1  0
 29 75  1  0
 30 76  1  0
 30 77  1  0
 31 78  1  0
 31 79  1  0
 32 80  1  0
 33 81  1  0
 34 82  1  0
 35 83  1  0
 35 84  1  0
 36 85  1  0
 36 86  1  0
 37 87  1  0
 37 88  1  0
 38 89  1  0
 39 90  1  0
 39 91  1  0
M  END
>  <PDBID>  (1) 
5MO4

>  <PDB ID>  (1) 
5MO4

>  <Generic Name>  (1) 
Nilotinib

>  <Brand Name>  (1) 
Tasigna

>  <DrugBank ID>  (1) 
DB04868

>  <ATC Codes>  (1) 
L01XE08

>  <Ligand ID>  (1) 
NIL

>  <Target Name>  (1) 
Tyrosine-protein kinase ABL1

>  <UniProt ID>  (1) 
P00519

>  <PDB ID.1>  (1) 
5MO4

>  <Seq. Identity>  (1) 
97%

$$$$
