PDB_DB01011_00
     RDKit          3D

 45 46  0  0  0  0  0  0  0  0999 V2000
    4.0736   -0.1848    1.3920 N   0  0  0  0  0  0  0  0  0  0  0  0
    2.7896    0.3825    1.1946 C   0  0  0  0  0  0  0  0  0  0  0  0
    1.9331   -0.3727    0.1568 C   0  0  0  0  0  0  0  0  0  0  0  0
    2.6405   -0.2686   -1.1448 C   0  0  0  0  0  0  0  0  0  0  0  0
    4.0660    0.2803   -0.9333 C   0  0  0  0  0  0  0  0  0  0  0  0
    4.6823   -0.5715    0.1540 C   0  0  0  0  0  0  0  0  0  0  0  0
    0.5925    0.2508    0.2635 C   0  0  0  0  0  0  0  0  0  0  0  0
    0.6835    1.6111   -0.0424 O   0  0  0  0  0  0  0  0  0  0  0  0
   -0.8681   -1.7924    0.2216 C   0  0  0  0  0  0  0  0  0  0  0  0
   -0.5684   -0.4425   -0.3162 C   0  0  0  0  0  0  0  0  0  0  0  0
   -0.3187   -0.6195   -1.8235 C   0  0  0  0  0  0  0  0  0  0  0  0
   -1.8478    0.3986   -0.1806 C   0  0  0  0  0  0  0  0  0  0  0  0
   -2.1607    0.6856    1.2670 C   0  0  0  0  0  0  0  0  0  0  0  0
   -3.2551    1.6591    1.2915 N   0  0  0  0  0  0  0  0  0  0  0  0
   -4.4412    1.0417    0.7858 C   0  0  0  0  0  0  0  0  0  0  0  0
   -4.1833   -0.2935    0.1376 C   0  0  0  0  0  0  0  0  0  0  0  0
   -3.0137   -0.2938   -0.8046 C   0  0  0  0  0  0  0  0  0  0  0  0
    4.1420   -0.8859    2.1469 H   0  0  0  0  0  0  0  0  0  0  0  0
    2.8179    1.4333    0.8483 H   0  0  0  0  0  0  0  0  0  0  0  0
    2.2151    0.4170    2.1661 H   0  0  0  0  0  0  0  0  0  0  0  0
    1.9199   -1.4308    0.5100 H   0  0  0  0  0  0  0  0  0  0  0  0
    2.2054    0.3790   -1.9020 H   0  0  0  0  0  0  0  0  0  0  0  0
    2.8604   -1.3012   -1.5561 H   0  0  0  0  0  0  0  0  0  0  0  0
    4.0759    1.3510   -0.7413 H   0  0  0  0  0  0  0  0  0  0  0  0
    4.6468    0.0328   -1.8694 H   0  0  0  0  0  0  0  0  0  0  0  0
    5.7901   -0.5230    0.1594 H   0  0  0  0  0  0  0  0  0  0  0  0
    4.3465   -1.6303   -0.0502 H   0  0  0  0  0  0  0  0  0  0  0  0
    0.3948    0.2740    1.3973 H   0  0  0  0  0  0  0  0  0  0  0  0
    1.4367    1.8377   -0.6093 H   0  0  0  0  0  0  0  0  0  0  0  0
   -1.0620   -2.5539   -0.5777 H   0  0  0  0  0  0  0  0  0  0  0  0
   -1.8020   -1.7580    0.8118 H   0  0  0  0  0  0  0  0  0  0  0  0
   -0.0833   -2.1402    0.9276 H   0  0  0  0  0  0  0  0  0  0  0  0
   -0.1383    0.3676   -2.2420 H   0  0  0  0  0  0  0  0  0  0  0  0
    0.5238   -1.3193   -1.9318 H   0  0  0  0  0  0  0  0  0  0  0  0
   -1.1905   -1.1399   -2.2908 H   0  0  0  0  0  0  0  0  0  0  0  0
   -1.6931    1.3757   -0.7249 H   0  0  0  0  0  0  0  0  0  0  0  0
   -2.5045   -0.1706    1.8419 H   0  0  0  0  0  0  0  0  0  0  0  0
   -1.3291    1.1818    1.8167 H   0  0  0  0  0  0  0  0  0  0  0  0
   -2.9559    2.4967    0.7790 H   0  0  0  0  0  0  0  0  0  0  0  0
   -4.9094    1.7140    0.0375 H   0  0  0  0  0  0  0  0  0  0  0  0
   -5.1403    0.8535    1.6404 H   0  0  0  0  0  0  0  0  0  0  0  0
   -5.1406   -0.5605   -0.3837 H   0  0  0  0  0  0  0  0  0  0  0  0
   -4.0934   -1.0648    0.9467 H   0  0  0  0  0  0  0  0  0  0  0  0
   -2.8108   -1.3621   -1.0421 H   0  0  0  0  0  0  0  0  0  0  0  0
   -3.3262    0.2574   -1.7275 H   0  0  0  0  0  0  0  0  0  0  0  0
  1  2  1  0
  2  3  1  0
  3  4  1  0
  4  5  1  0
  1  6  1  0
  5  6  1  0
  3  7  1  0
  7  8  1  0
 10  7  1  0
  9 10  1  0
 10 11  1  0
 10 12  1  0
 12 13  1  0
 13 14  1  0
 14 15  1  0
 15 16  1  0
 12 17  1  0
 16 17  1  0
  1 18  1  0
  2 19  1  0
  2 20  1  0
  3 21  1  0
  4 22  1  0
  4 23  1  0
  5 24  1  0
  5 25  1  0
  6 26  1  0
  6 27  1  0
  7 28  1  0
  8 29  1  0
  9 30  1  0
  9 31  1  0
  9 32  1  0
 11 33  1  0
 11 34  1  0
 11 35  1  0
 12 36  1  0
 13 37  1  0
 13 38  1  0
 14 39  1  0
 15 40  1  0
 15 41  1  0
 16 42  1  0
 16 43  1  0
 17 44  1  0
 17 45  1  0
M  END
>  <PDBID>  (1) 
1W0G

>  <PDB ID>  (1) 
1W0G

>  <Generic Name>  (1) 
Metyrapone

>  <Brand Name>  (1) 
Metopirone#Metopiron

>  <DrugBank ID>  (1) 
DB01011

>  <ATC Codes>  (1) 
V04CD01

>  <Ligand ID>  (1) 
MYT

>  <Target Name>  (1) 
Cytochrome P450 11B1, mitochondrial

>  <UniProt ID>  (1) 
P15538

>  <PDB ID.1>  (1) 
1W0G

>  <Seq. Identity>  (1) 
32%

$$$$
