PDB_DB05239_09
     RDKit          3D

 65 68  0  0  0  0  0  0  0  0999 V2000
    1.0640   -2.3643   -1.2804 O   0  0  0  0  0  0  0  0  0  0  0  0
    0.4495   -1.8244   -0.1386 C   0  0  0  0  0  0  0  0  0  0  0  0
   -0.9592   -1.5436   -0.4327 C   0  0  0  0  0  0  0  0  0  0  0  0
   -1.6213   -2.8880   -0.7895 C   0  0  0  0  0  0  0  0  0  0  0  0
   -1.9171   -3.6808    0.4363 C   0  0  0  0  0  0  0  0  0  0  0  0
   -2.7387   -2.9565    1.4686 C   0  0  2  0  0  0  0  0  0  0  0  0
   -3.9547   -2.5356    1.0191 F   0  0  0  0  0  0  0  0  0  0  0  0
   -1.9653   -1.7029    1.8723 C   0  0  1  0  0  0  0  0  0  0  0  0
   -0.7905   -1.9942    2.4863 F   0  0  0  0  0  0  0  0  0  0  0  0
   -1.8026   -0.9041    0.6099 C   0  0  2  0  0  0  0  0  0  0  0  0
   -3.1448   -0.7620    0.0271 N   0  0  0  0  0  0  0  0  0  0  0  0
   -3.7401    0.5265    0.3043 C   0  0  0  0  0  0  0  0  0  0  0  0
   -2.9515    1.6350   -0.2975 C   0  0  0  0  0  0  0  0  0  0  0  0
   -3.8067    2.7307   -0.8789 C   0  0  0  0  0  0  0  0  0  0  0  0
   -5.1179    2.9091   -0.1787 C   0  0  1  0  0  0  0  0  0  0  0  0
   -6.2707    4.3134   -1.3255 I   0  0  0  0  0  0  0  0  0  0  0  0
   -5.0945    0.4668   -0.4287 C   0  0  0  0  0  0  0  0  0  0  0  0
   -4.8380    0.3964   -1.7829 F   0  0  0  0  0  0  0  0  0  0  0  0
   -5.9428    1.6590   -0.0603 C   0  0  0  0  0  0  0  0  0  0  0  0
    1.2744   -0.8328    0.4495 N   0  0  0  0  0  0  0  0  0  0  0  0
    1.4929    0.4251   -0.1835 C   0  0  0  0  0  0  0  0  0  0  0  0
    2.9046    0.3804    0.2939 C   0  0  0  0  0  0  0  0  0  0  0  0
    2.6801   -1.1335    0.0320 C   0  0  0  0  0  0  0  0  0  0  0  0
    3.1364    0.4727    1.6533 O   0  0  0  0  0  0  0  0  0  0  0  0
    3.9840    0.8991   -0.6247 C   0  0  2  0  0  0  0  0  0  0  0  0
    5.2261    0.0555   -0.6618 C   0  0  0  0  0  0  0  0  0  0  0  0
    6.0721    0.3801    0.5365 C   0  0  0  0  0  0  0  0  0  0  0  0
    6.5297    1.8141    0.5376 C   0  0  0  0  0  0  0  0  0  0  0  0
    5.6289    2.6652   -0.2949 C   0  0  0  0  0  0  0  0  0  0  0  0
    4.2859    2.2390   -0.2682 N   0  0  0  0  0  0  0  0  0  0  0  0
    1.6732   -3.1230   -1.0644 H   0  0  0  0  0  0  0  0  0  0  0  0
    0.5223   -2.7084    0.6076 H   0  0  0  0  0  0  0  0  0  0  0  0
   -1.0381   -0.9264   -1.3519 H   0  0  0  0  0  0  0  0  0  0  0  0
   -0.8888   -3.4574   -1.4010 H   0  0  0  0  0  0  0  0  0  0  0  0
   -2.5180   -2.6866   -1.3518 H   0  0  0  0  0  0  0  0  0  0  0  0
   -2.4964   -4.5892    0.1351 H   0  0  0  0  0  0  0  0  0  0  0  0
   -1.0134   -4.0569    0.9542 H   0  0  0  0  0  0  0  0  0  0  0  0
   -2.8815   -3.6436    2.3287 H   0  0  0  0  0  0  0  0  0  0  0  0
   -2.5558   -1.0749    2.5727 H   0  0  0  0  0  0  0  0  0  0  0  0
   -1.4718    0.1140    0.8996 H   0  0  0  0  0  0  0  0  0  0  0  0
   -3.0535   -0.7737   -1.0347 H   0  0  0  0  0  0  0  0  0  0  0  0
   -3.9471    0.6647    1.3873 H   0  0  0  0  0  0  0  0  0  0  0  0
   -2.2213    2.0718    0.4404 H   0  0  0  0  0  0  0  0  0  0  0  0
   -2.3002    1.2658   -1.1280 H   0  0  0  0  0  0  0  0  0  0  0  0
   -3.2443    3.6789   -0.7570 H   0  0  0  0  0  0  0  0  0  0  0  0
   -4.0042    2.5877   -1.9418 H   0  0  0  0  0  0  0  0  0  0  0  0
   -4.9997    3.3702    0.8416 H   0  0  0  0  0  0  0  0  0  0  0  0
   -5.6076   -0.4554   -0.0565 H   0  0  0  0  0  0  0  0  0  0  0  0
   -6.2951    1.4738    0.9847 H   0  0  0  0  0  0  0  0  0  0  0  0
   -6.8231    1.6382   -0.7299 H   0  0  0  0  0  0  0  0  0  0  0  0
    0.9679    1.3059    0.2593 H   0  0  0  0  0  0  0  0  0  0  0  0
    1.4295    0.4031   -1.2972 H   0  0  0  0  0  0  0  0  0  0  0  0
    3.2198   -1.7918    0.6973 H   0  0  0  0  0  0  0  0  0  0  0  0
    2.6657   -1.3498   -1.0492 H   0  0  0  0  0  0  0  0  0  0  0  0
    2.8001   -0.2827    2.1800 H   0  0  0  0  0  0  0  0  0  0  0  0
    3.5308    0.9532   -1.6867 H   0  0  0  0  0  0  0  0  0  0  0  0
    5.7789    0.2989   -1.6188 H   0  0  0  0  0  0  0  0  0  0  0  0
    5.0074   -1.0257   -0.7573 H   0  0  0  0  0  0  0  0  0  0  0  0
    6.9291   -0.3296    0.6414 H   0  0  0  0  0  0  0  0  0  0  0  0
    5.4087    0.2212    1.4287 H   0  0  0  0  0  0  0  0  0  0  0  0
    6.5294    2.2112    1.5955 H   0  0  0  0  0  0  0  0  0  0  0  0
    7.5743    1.8330    0.1275 H   0  0  0  0  0  0  0  0  0  0  0  0
    5.6352    3.7238    0.1279 H   0  0  0  0  0  0  0  0  0  0  0  0
    6.0661    2.7592   -1.3174 H   0  0  0  0  0  0  0  0  0  0  0  0
    3.5494    2.8552    0.0382 H   0  0  0  0  0  0  0  0  0  0  0  0
  1  2  1  0
  2  3  1  0
  3  4  1  0
  4  5  1  0
  5  6  1  0
  6  7  1  0
  6  8  1  0
  8  9  1  0
  3 10  1  0
  8 10  1  0
 10 11  1  0
 11 12  1  0
 12 13  1  0
 13 14  1  0
 14 15  1  0
 15 16  1  0
 12 17  1  0
 17 18  1  0
 15 19  1  0
 17 19  1  0
  2 20  1  0
 20 21  1  0
 21 22  1  0
 20 23  1  0
 22 23  1  0
 22 24  1  0
 22 25  1  0
 25 26  1  0
 26 27  1  0
 27 28  1  0
 28 29  1  0
 25 30  1  0
 29 30  1  0
  1 31  1  0
  2 32  1  0
  3 33  1  0
  4 34  1  0
  4 35  1  0
  5 36  1  0
  5 37  1  0
  6 38  1  1
  8 39  1  1
 10 40  1  1
 11 41  1  0
 12 42  1  0
 13 43  1  0
 13 44  1  0
 14 45  1  0
 14 46  1  0
 15 47  1  1
 17 48  1  0
 19 49  1  0
 19 50  1  0
 21 51  1  0
 21 52  1  0
 23 53  1  0
 23 54  1  0
 24 55  1  0
 25 56  1  6
 26 57  1  0
 26 58  1  0
 27 59  1  0
 27 60  1  0
 28 61  1  0
 28 62  1  0
 29 63  1  0
 29 64  1  0
 30 65  1  0
M  END
>  <PDBID>  (1) 
4LMN

>  <PDB ID>  (1) 
4LMN

>  <Generic Name>  (1) 
Cobimetinib

>  <Brand Name>  (1) 
Cotellic

>  <DrugBank ID>  (1) 
DB05239

>  <ATC Codes>  (1) 
nan

>  <Ligand ID>  (1) 
EUI

>  <Target Name>  (1) 
Dual specificity mitogen-activated protein kinase kinase 1

>  <UniProt ID>  (1) 
Q02750

>  <PDB ID.1>  (1) 
4LMN

>  <Seq. Identity>  (1) 
97%

$$$$
