PDB_DB00783_00
     RDKit          3D

 50 53  0  0  0  0  0  0  0  0999 V2000
   -1.8833    0.3200    1.1741 C   0  0  0  0  0  0  0  0  0  0  0  0
   -3.3362    0.3478    1.5455 C   0  0  0  0  0  0  0  0  0  0  0  0
   -4.2677    0.3662    0.3812 C   0  0  0  0  0  0  0  0  0  0  0  0
   -4.5139    1.6618   -0.1017 O   0  0  0  0  0  0  0  0  0  0  0  0
   -3.8509   -0.5826   -0.7008 C   0  0  0  0  0  0  0  0  0  0  0  0
   -2.4004   -0.5145   -1.0514 C   0  0  0  0  0  0  0  0  0  0  0  0
   -1.7240   -1.8275   -0.8900 C   0  0  0  0  0  0  0  0  0  0  0  0
   -0.2465   -1.8013   -0.9144 C   0  0  0  0  0  0  0  0  0  0  0  0
    0.3965   -0.6024   -0.3174 C   0  0  2  0  0  0  0  0  0  0  0  0
   -0.3071    0.6762   -0.7437 C   0  0  1  0  0  0  0  0  0  0  0  0
   -1.7175    0.6042   -0.2925 C   0  0  0  0  0  0  0  0  0  0  0  0
    0.3892    1.8994   -0.2568 C   0  0  0  0  0  0  0  0  0  0  0  0
    1.8556    1.9154   -0.5371 C   0  0  0  0  0  0  0  0  0  0  0  0
    2.4654    0.6478   -0.0618 C   0  0  1  0  0  0  0  0  0  0  0  0
    1.8048   -0.4973   -0.7990 C   0  0  1  0  0  0  0  0  0  0  0  0
    2.6776   -1.6519   -0.4824 C   0  0  0  0  0  0  0  0  0  0  0  0
    4.0593   -1.0615   -0.2147 C   0  0  0  0  0  0  0  0  0  0  0  0
    3.8972    0.4492   -0.4246 C   0  0  2  0  0  0  0  0  0  0  0  0
    4.7910    1.1539    0.3423 O   0  0  0  0  0  0  0  0  0  0  0  0
    2.3280    0.5278    1.4325 C   0  0  0  0  0  0  0  0  0  0  0  0
   -1.3545    1.0926    1.7655 H   0  0  0  0  0  0  0  0  0  0  0  0
   -1.5071   -0.7057    1.4158 H   0  0  0  0  0  0  0  0  0  0  0  0
   -3.5613    1.2295    2.2074 H   0  0  0  0  0  0  0  0  0  0  0  0
   -3.6212   -0.5412    2.1818 H   0  0  0  0  0  0  0  0  0  0  0  0
   -5.2737    0.0061    0.7491 H   0  0  0  0  0  0  0  0  0  0  0  0
   -5.1509    2.1056    0.5137 H   0  0  0  0  0  0  0  0  0  0  0  0
   -4.0868   -1.6209   -0.3380 H   0  0  0  0  0  0  0  0  0  0  0  0
   -4.5250   -0.4251   -1.5730 H   0  0  0  0  0  0  0  0  0  0  0  0
   -2.3389   -0.2224   -2.1382 H   0  0  0  0  0  0  0  0  0  0  0  0
   -2.1490   -2.3299    0.0240 H   0  0  0  0  0  0  0  0  0  0  0  0
   -2.0692   -2.4870   -1.7402 H   0  0  0  0  0  0  0  0  0  0  0  0
    0.1218   -2.6998   -0.3367 H   0  0  0  0  0  0  0  0  0  0  0  0
    0.1818   -1.9578   -1.9466 H   0  0  0  0  0  0  0  0  0  0  0  0
    0.4354   -0.6862    0.7939 H   0  0  0  0  0  0  0  0  0  0  0  0
   -0.2924    0.6898   -1.8526 H   0  0  0  0  0  0  0  0  0  0  0  0
   -2.2217    1.5523   -0.5450 H   0  0  0  0  0  0  0  0  0  0  0  0
   -0.0566    2.7725   -0.8183 H   0  0  0  0  0  0  0  0  0  0  0  0
    0.1560    2.1351    0.8210 H   0  0  0  0  0  0  0  0  0  0  0  0
    2.2983    2.8264   -0.0998 H   0  0  0  0  0  0  0  0  0  0  0  0
    1.9754    1.9871   -1.6532 H   0  0  0  0  0  0  0  0  0  0  0  0
    1.7803   -0.2352   -1.8757 H   0  0  0  0  0  0  0  0  0  0  0  0
    2.3341   -2.2778    0.3559 H   0  0  0  0  0  0  0  0  0  0  0  0
    2.7830   -2.2757   -1.4117 H   0  0  0  0  0  0  0  0  0  0  0  0
    4.8309   -1.4832   -0.8674 H   0  0  0  0  0  0  0  0  0  0  0  0
    4.2917   -1.2059    0.8753 H   0  0  0  0  0  0  0  0  0  0  0  0
    4.0164    0.6222   -1.5228 H   0  0  0  0  0  0  0  0  0  0  0  0
    5.5580    0.5308    0.5388 H   0  0  0  0  0  0  0  0  0  0  0  0
    3.0847    1.2270    1.8828 H   0  0  0  0  0  0  0  0  0  0  0  0
    1.3559    0.8253    1.8240 H   0  0  0  0  0  0  0  0  0  0  0  0
    2.5876   -0.4788    1.7987 H   0  0  0  0  0  0  0  0  0  0  0  0
  1  2  1  0
  2  3  1  0
  3  4  1  0
  3  5  1  0
  5  6  1  0
  6  7  1  0
  7  8  1  0
  8  9  1  0
  9 10  1  0
  1 11  1  0
  6 11  1  0
 10 11  1  0
 10 12  1  0
 12 13  1  0
 13 14  1  0
  9 15  1  0
 14 15  1  0
 15 16  1  0
 16 17  1  0
 14 18  1  0
 17 18  1  0
 18 19  1  0
 14 20  1  1
  1 21  1  0
  1 22  1  0
  2 23  1  0
  2 24  1  0
  3 25  1  0
  4 26  1  0
  5 27  1  0
  5 28  1  0
  6 29  1  0
  7 30  1  0
  7 31  1  0
  8 32  1  0
  8 33  1  0
  9 34  1  1
 10 35  1  6
 11 36  1  0
 12 37  1  0
 12 38  1  0
 13 39  1  0
 13 40  1  0
 15 41  1  6
 16 42  1  0
 16 43  1  0
 17 44  1  0
 17 45  1  0
 18 46  1  6
 19 47  1  0
 20 48  1  0
 20 49  1  0
 20 50  1  0
M  END
>  <PDBID>  (1) 
2OCF

>  <PDB ID>  (1) 
2OCF

>  <Generic Name>  (1) 
Estradiol

>  <Brand Name>  (1) 
Activella#Activelle#Activelle Ld#Alora#Amabelz#Angeliq#Climara#Climara 100#Climara 25#Climara 50#Climara 75#Climara Pro#Combipatch#Combipatch (estradiol/norethindrone Acetate Transdermal System)#Delestrogen#Delestrogen Inj 10mg/ml#Depo-estradiol#Divigel#Elestrin#Estalis 140/50 Mcg#Estalis 250/50 Mcg#Estalis Sequi#Estrace#Estrace Tab 1mg#Estrace Tab 2mg#Estracomb#Estraderm-100#Estraderm-25#Estraderm-50#Estradiol#Estradiol / Norethindrone Acetate#Estradiol Transdermal System#Estradiol Valerate#Estradot 100#Estradot 25#Estradot 37.5#Estradot 50#Estradot 75#Estring#Estrogel#Estrogel Propak#Evamist#Femring#Lopreeza#Lupin-estradiol#Menostar#Mimvey#Mimvey Lo#Minivelle#Natazia#Neo Pause Injection#Neo-diol Inj 20mg/ml#Oesclim#PMS-estradiol Valerate Inj 10mg/ml#Prefesta#Sandoz Estradiol Derm 100#Sandoz Estradiol Derm 50#Sandoz Estradiol Derm 75#Vagifem#Vagifem 10#Vivelle 100mcg#Vivelle 37.5mcg#Vivelle 50mcg#Vivelle 75mcg#Vivelle Dot#Vivelle-dot#Yuvafem#Estraderm MX#Estraderm TTS#Estrasorb#Estrofem#Femtrace#Innofem#Vivelle

>  <DrugBank ID>  (1) 
DB00783

>  <ATC Codes>  (1) 
G03FA16#G03FA11#G03FA12#G03FB12#G03FA17#G03FA05#G03FB09#G03FA14#G03FA08#G03AA14#G03EA03#G03FB01#G03AB08#G03EA02#G03FB05#G03HB01#G03FB11#G03CA53#G03FB04#G03FA07#G03FB07#G03FB02#G03FB10#G03FA06#G03CA03#G03FA15#G03FA09#G03FA13#G03EA01#G03FB06#G03FA01#G03FA02#G02BB01#G03FA03#G03FB08#G03FA10#G03FA04#G03FB03

>  <Ligand ID>  (1) 
EST

>  <Target Name>  (1) 
Estrogen receptor

>  <UniProt ID>  (1) 
P03372

>  <PDB ID.1>  (1) 
2OCF

>  <Seq. Identity>  (1) 
94%

$$$$
