PDB_DB04835_02
     RDKit          3D

180188  0  0  0  0  0  0  0  0999 V2000
   -7.2801    3.0948   -1.7387 F   0  0  0  0  0  0  0  0  0  0  0  0
   -5.3905    0.8186    0.9575 O   0  0  0  0  0  0  0  0  0  0  0  0
    3.4725    0.4411    0.0020 C   0  0  0  0  0  0  0  0  0  0  0  0
    4.9079    0.1944   -0.0699 N   0  0  0  0  0  0  0  0  0  0  0  0
   -0.5463    0.4481    0.2219 C   0  0  0  0  0  0  0  0  0  0  0  0
    6.5299    2.0158    0.3869 C   0  0  0  0  0  0  0  0  0  0  0  0
   -1.3253   -0.7893    0.2344 C   0  0  0  0  0  0  0  0  0  0  0  0
   -2.8051   -0.5362    0.3353 C   0  0  1  0  0  0  0  0  0  0  0  0
    6.5341   -1.5270   -0.5282 C   0  0  0  0  0  0  0  0  0  0  0  0
   -3.5286   -1.9073    0.4088 C   0  0  0  0  0  0  0  0  0  0  0  0
   -4.0935    1.3235    1.2944 C   0  0  2  0  0  0  0  0  0  0  0  0
   -3.8065    2.5196    0.4977 C   0  0  0  0  0  0  0  0  0  0  0  0
   -6.0341    3.3739   -1.2368 C   0  0  0  0  0  0  0  0  0  0  0  0
    7.6417    1.1785    0.9439 C   0  0  0  0  0  0  0  0  0  0  0  0
   -5.5097    4.5499   -1.7657 F   0  0  0  0  0  0  0  0  0  0  0  0
    0.8701    0.3043    0.0513 N   0  0  0  0  0  0  0  0  0  0  0  0
    1.3453    0.0117   -1.2591 C   0  0  1  0  0  0  0  0  0  0  0  0
    5.7132    2.4365    1.6373 C   0  0  0  0  0  0  0  0  0  0  0  0
   -3.7599    2.4989   -0.9701 C   0  0  0  0  0  0  0  0  0  0  0  0
   -4.8007    3.6442    0.9494 C   0  0  0  0  0  0  0  0  0  0  0  0
   -5.1000    2.2464   -1.6378 C   0  0  0  0  0  0  0  0  0  0  0  0
   -6.1300    3.4771    0.2742 C   0  0  0  0  0  0  0  0  0  0  0  0
   -3.1814   -2.6924   -0.8206 C   0  0  0  0  0  0  0  0  0  0  0  0
   -3.2385   -2.6664    1.6365 C   0  0  0  0  0  0  0  0  0  0  0  0
   -4.0972   -3.8879   -0.9117 C   0  0  0  0  0  0  0  0  0  0  0  0
   -3.0438   -4.1634    1.3659 C   0  0  0  0  0  0  0  0  0  0  0  0
   -4.0807   -4.6513    0.3793 C   0  0  0  0  0  0  0  0  0  0  0  0
    1.4315   -0.8073    0.7856 C   0  0  2  0  0  0  0  0  0  0  0  0
    6.3220    0.8739   -1.7718 N   0  0  0  0  0  0  0  0  0  0  0  0
    5.6276    1.3317   -0.5784 C   0  0  1  0  0  0  0  0  0  0  0  0
    5.5035   -0.1885   -2.2046 N   0  0  0  0  0  0  0  0  0  0  0  0
   -3.1575    0.2991    1.3730 N   0  0  0  0  0  0  0  0  0  0  0  0
    2.7627    0.6480   -1.2654 C   0  0  0  0  0  0  0  0  0  0  0  0
    2.8968   -0.5078    0.9933 C   0  0  0  0  0  0  0  0  0  0  0  0
    5.2552   -0.8549   -0.9703 C   0  0  0  0  0  0  0  0  0  0  0  0
    1.4244   -1.4520   -1.4519 C   0  0  0  0  0  0  0  0  0  0  0  0
    1.3756   -2.0457   -0.0841 C   0  0  0  0  0  0  0  0  0  0  0  0
   -7.0375    3.0725   -1.9079 F   0  0  0  0  0  0  0  0  0  0  0  0
   -5.2199    0.7041    0.9315 O   0  0  0  0  0  0  0  0  0  0  0  0
    3.5899    0.4737   -0.3751 C   0  0  0  0  0  0  0  0  0  0  0  0
    4.9335    0.2855   -0.7563 N   0  0  0  0  0  0  0  0  0  0  0  0
   -0.4007    0.3575    0.1420 C   0  0  0  0  0  0  0  0  0  0  0  0
    6.2651    1.3330    1.1331 C   0  0  0  0  0  0  0  0  0  0  0  0
   -1.2112   -0.8707    0.2479 C   0  0  0  0  0  0  0  0  0  0  0  0
   -2.6792   -0.5662    0.3281 C   0  0  1  0  0  0  0  0  0  0  0  0
    5.5573   -0.8982   -2.8120 C   0  0  0  0  0  0  0  0  0  0  0  0
   -3.4167   -1.9216    0.4346 C   0  0  0  0  0  0  0  0  0  0  0  0
   -3.9738    1.2271    1.3987 C   0  0  2  0  0  0  0  0  0  0  0  0
   -3.7457    2.4520    0.6125 C   0  0  0  0  0  0  0  0  0  0  0  0
   -5.8416    3.3035   -1.2811 C   0  0  0  0  0  0  0  0  0  0  0  0
    6.2073    0.2958    2.2085 C   0  0  0  0  0  0  0  0  0  0  0  0
   -5.2369    4.4500   -1.7789 F   0  0  0  0  0  0  0  0  0  0  0  0
    1.0039    0.1626    0.0069 N   0  0  0  0  0  0  0  0  0  0  0  0
    1.3898   -0.4216   -1.2602 C   0  0  1  0  0  0  0  0  0  0  0  0
    5.5059    2.6042    1.5262 C   0  0  0  0  0  0  0  0  0  0  0  0
   -3.6266    2.4189   -0.8547 C   0  0  0  0  0  0  0  0  0  0  0  0
   -4.8125    3.5198    1.0132 C   0  0  0  0  0  0  0  0  0  0  0  0
   -4.9172    2.1422   -1.6018 C   0  0  0  0  0  0  0  0  0  0  0  0
   -6.0586    3.3773    0.2055 C   0  0  0  0  0  0  0  0  0  0  0  0
   -3.1486   -2.8145   -0.7414 C   0  0  0  0  0  0  0  0  0  0  0  0
   -3.1644   -2.6240    1.7174 C   0  0  0  0  0  0  0  0  0  0  0  0
   -4.1475   -3.9696   -0.6708 C   0  0  0  0  0  0  0  0  0  0  0  0
   -2.9697   -4.1152    1.5436 C   0  0  0  0  0  0  0  0  0  0  0  0
   -4.0421   -4.6600    0.6593 C   0  0  0  0  0  0  0  0  0  0  0  0
    1.7013   -0.6545    0.9050 C   0  0  2  0  0  0  0  0  0  0  0  0
    6.2387    2.0408   -1.1310 N   0  0  0  0  0  0  0  0  0  0  0  0
    6.0263    0.8798   -0.2365 C   0  0  0  0  0  0  0  0  0  0  0  0
    6.3675    1.2788   -2.3276 N   0  0  0  0  0  0  0  0  0  0  0  0
   -2.9869    0.2535    1.4196 N   0  0  0  0  0  0  0  0  0  0  0  0
    2.7325    0.2122   -1.6015 C   0  0  0  0  0  0  0  0  0  0  0  0
    3.1655   -0.2326    0.8546 C   0  0  0  0  0  0  0  0  0  0  0  0
    5.1687    0.4223   -2.2048 C   0  0  0  0  0  0  0  0  0  0  0  0
    1.6142   -1.8834   -1.0710 C   0  0  0  0  0  0  0  0  0  0  0  0
    1.6953   -2.0924    0.4006 C   0  0  0  0  0  0  0  0  0  0  0  0
   -5.6720    0.3394    1.7786 H   0  0  0  0  0  0  0  0  0  0  0  0
    3.4073    1.4527    0.5326 H   0  0  0  0  0  0  0  0  0  0  0  0
   -0.7345    1.0375    1.1413 H   0  0  0  0  0  0  0  0  0  0  0  0
   -0.9111    1.0830   -0.6349 H   0  0  0  0  0  0  0  0  0  0  0  0
    6.9068    2.9846   -0.0007 H   0  0  0  0  0  0  0  0  0  0  0  0
   -1.1172   -1.3518   -0.7150 H   0  0  0  0  0  0  0  0  0  0  0  0
   -1.0964   -1.4559    1.1084 H   0  0  0  0  0  0  0  0  0  0  0  0
   -3.1741   -0.1247   -0.6495 H   0  0  0  0  0  0  0  0  0  0  0  0
    6.5568   -1.7475    0.5415 H   0  0  0  0  0  0  0  0  0  0  0  0
    6.5442   -2.5509   -1.0216 H   0  0  0  0  0  0  0  0  0  0  0  0
    7.4381   -1.0354   -0.9391 H   0  0  0  0  0  0  0  0  0  0  0  0
   -4.6215   -1.6899    0.3340 H   0  0  0  0  0  0  0  0  0  0  0  0
   -4.2048    1.7199    2.3853 H   0  0  0  0  0  0  0  0  0  0  0  0
   -2.8111    2.9379    0.8508 H   0  0  0  0  0  0  0  0  0  0  0  0
    7.2991    0.3049    1.5057 H   0  0  0  0  0  0  0  0  0  0  0  0
    8.3400    0.8746    0.1387 H   0  0  0  0  0  0  0  0  0  0  0  0
    8.2824    1.7688    1.6557 H   0  0  0  0  0  0  0  0  0  0  0  0
    0.7800    0.4825   -2.0745 H   0  0  0  0  0  0  0  0  0  0  0  0
    5.0923    3.3020    1.4475 H   0  0  0  0  0  0  0  0  0  0  0  0
    6.4915    2.6402    2.4339 H   0  0  0  0  0  0  0  0  0  0  0  0
    5.2079    1.5241    1.9918 H   0  0  0  0  0  0  0  0  0  0  0  0
   -3.5074    3.5733   -1.2999 H   0  0  0  0  0  0  0  0  0  0  0  0
   -3.0091    1.8930   -1.4138 H   0  0  0  0  0  0  0  0  0  0  0  0
   -4.3694    4.6103    0.7081 H   0  0  0  0  0  0  0  0  0  0  0  0
   -4.9021    3.5087    2.0289 H   0  0  0  0  0  0  0  0  0  0  0  0
   -4.9467    2.3713   -2.7346 H   0  0  0  0  0  0  0  0  0  0  0  0
   -5.5051    1.2459   -1.4833 H   0  0  0  0  0  0  0  0  0  0  0  0
   -6.7108    4.4146    0.4921 H   0  0  0  0  0  0  0  0  0  0  0  0
   -6.7453    2.6502    0.6576 H   0  0  0  0  0  0  0  0  0  0  0  0
   -2.1433   -3.1152   -0.7736 H   0  0  0  0  0  0  0  0  0  0  0  0
   -3.2600   -2.0604   -1.7441 H   0  0  0  0  0  0  0  0  0  0  0  0
   -4.1418   -2.5961    2.3145 H   0  0  0  0  0  0  0  0  0  0  0  0
   -2.3889   -2.3604    2.2530 H   0  0  0  0  0  0  0  0  0  0  0  0
   -5.1333   -3.5314   -1.1102 H   0  0  0  0  0  0  0  0  0  0  0  0
   -3.7567   -4.5526   -1.7649 H   0  0  0  0  0  0  0  0  0  0  0  0
   -3.2468   -4.6782    2.3359 H   0  0  0  0  0  0  0  0  0  0  0  0
   -2.0104   -4.3856    1.0725 H   0  0  0  0  0  0  0  0  0  0  0  0
   -3.8759   -5.7144    0.1773 H   0  0  0  0  0  0  0  0  0  0  0  0
   -5.0799   -4.5555    0.8849 H   0  0  0  0  0  0  0  0  0  0  0  0
    0.9680   -1.0149    1.7439 H   0  0  0  0  0  0  0  0  0  0  0  0
    6.3081    1.5965   -2.5221 H   0  0  0  0  0  0  0  0  0  0  0  0
    4.8527    2.0517   -0.9410 H   0  0  0  0  0  0  0  0  0  0  0  0
    5.9238   -0.7582   -2.9340 H   0  0  0  0  0  0  0  0  0  0  0  0
   -2.6293    0.2176    2.2659 H   0  0  0  0  0  0  0  0  0  0  0  0
    3.2200    0.2629   -2.1742 H   0  0  0  0  0  0  0  0  0  0  0  0
    2.5399    1.7190   -1.5050 H   0  0  0  0  0  0  0  0  0  0  0  0
    3.4211   -1.4835    0.9856 H   0  0  0  0  0  0  0  0  0  0  0  0
    3.0020   -0.1609    2.0501 H   0  0  0  0  0  0  0  0  0  0  0  0
    4.5163   -1.6684   -1.0256 H   0  0  0  0  0  0  0  0  0  0  0  0
    0.6268   -1.8757   -2.0734 H   0  0  0  0  0  0  0  0  0  0  0  0
    2.3769   -1.7576   -1.9957 H   0  0  0  0  0  0  0  0  0  0  0  0
    0.5749   -2.7402    0.1268 H   0  0  0  0  0  0  0  0  0  0  0  0
    2.3236   -2.6545    0.1241 H   0  0  0  0  0  0  0  0  0  0  0  0
   -5.5282    0.1173    1.6885 H   0  0  0  0  0  0  0  0  0  0  0  0
    3.4266    1.5766   -0.1621 H   0  0  0  0  0  0  0  0  0  0  0  0
   -0.5946    1.0257    0.9819 H   0  0  0  0  0  0  0  0  0  0  0  0
   -0.7226    0.8945   -0.7900 H   0  0  0  0  0  0  0  0  0  0  0  0
    7.3502    1.6963    1.1327 H   0  0  0  0  0  0  0  0  0  0  0  0
   -1.0636   -1.5863   -0.5877 H   0  0  0  0  0  0  0  0  0  0  0  0
   -0.9505   -1.3472    1.2344 H   0  0  0  0  0  0  0  0  0  0  0  0
   -3.0007   -0.1823   -0.6509 H   0  0  0  0  0  0  0  0  0  0  0  0
    5.3450   -1.7256   -2.0843 H   0  0  0  0  0  0  0  0  0  0  0  0
    5.0162   -1.0372   -3.7688 H   0  0  0  0  0  0  0  0  0  0  0  0
    6.6393   -0.9941   -3.0422 H   0  0  0  0  0  0  0  0  0  0  0  0
   -4.5302   -1.7198    0.3861 H   0  0  0  0  0  0  0  0  0  0  0  0
   -4.1673    1.5590    2.4691 H   0  0  0  0  0  0  0  0  0  0  0  0
   -2.7888    2.9191    1.0063 H   0  0  0  0  0  0  0  0  0  0  0  0
    6.0253   -0.7274    1.8090 H   0  0  0  0  0  0  0  0  0  0  0  0
    7.1403    0.2121    2.7997 H   0  0  0  0  0  0  0  0  0  0  0  0
    5.4208    0.5719    2.9338 H   0  0  0  0  0  0  0  0  0  0  0  0
    0.6838   -0.2533   -2.0722 H   0  0  0  0  0  0  0  0  0  0  0  0
    5.3025    3.1728    0.6230 H   0  0  0  0  0  0  0  0  0  0  0  0
    6.1540    3.2620    2.1834 H   0  0  0  0  0  0  0  0  0  0  0  0
    4.6367    2.3755    2.1423 H   0  0  0  0  0  0  0  0  0  0  0  0
   -3.4352    3.5429   -1.1391 H   0  0  0  0  0  0  0  0  0  0  0  0
   -2.7439    1.9446   -1.2299 H   0  0  0  0  0  0  0  0  0  0  0  0
   -4.3597    4.5182    0.9289 H   0  0  0  0  0  0  0  0  0  0  0  0
   -5.0626    3.2980    2.0602 H   0  0  0  0  0  0  0  0  0  0  0  0
   -4.6720    2.2566   -2.6966 H   0  0  0  0  0  0  0  0  0  0  0  0
   -5.3488    1.1638   -1.4421 H   0  0  0  0  0  0  0  0  0  0  0  0
   -6.6842    4.2843    0.4189 H   0  0  0  0  0  0  0  0  0  0  0  0
   -6.6275    2.4756    0.4982 H   0  0  0  0  0  0  0  0  0  0  0  0
   -2.1417   -3.2688   -0.7327 H   0  0  0  0  0  0  0  0  0  0  0  0
   -3.4016   -2.2765   -1.6847 H   0  0  0  0  0  0  0  0  0  0  0  0
   -4.0361   -2.5280    2.4317 H   0  0  0  0  0  0  0  0  0  0  0  0
   -2.3020   -2.2698    2.3121 H   0  0  0  0  0  0  0  0  0  0  0  0
   -5.1849   -3.5810   -0.7698 H   0  0  0  0  0  0  0  0  0  0  0  0
   -3.9798   -4.6859   -1.5014 H   0  0  0  0  0  0  0  0  0  0  0  0
   -3.1346   -4.5685    2.5672 H   0  0  0  0  0  0  0  0  0  0  0  0
   -1.9458   -4.3924    1.2492 H   0  0  0  0  0  0  0  0  0  0  0  0
   -3.8875   -5.7685    0.5428 H   0  0  0  0  0  0  0  0  0  0  0  0
   -5.0150   -4.5979    1.2346 H   0  0  0  0  0  0  0  0  0  0  0  0
    1.2578   -0.6406    1.8956 H   0  0  0  0  0  0  0  0  0  0  0  0
    7.1790    2.4066   -0.8450 H   0  0  0  0  0  0  0  0  0  0  0  0
    6.9234    0.2169   -0.4977 H   0  0  0  0  0  0  0  0  0  0  0  0
    6.2901    1.9618   -3.0837 H   0  0  0  0  0  0  0  0  0  0  0  0
   -2.2548    0.3376    2.1588 H   0  0  0  0  0  0  0  0  0  0  0  0
    3.1959   -0.5567   -2.2888 H   0  0  0  0  0  0  0  0  0  0  0  0
    2.4573    1.1393   -2.1472 H   0  0  0  0  0  0  0  0  0  0  0  0
    3.8216   -1.1246    0.9713 H   0  0  0  0  0  0  0  0  0  0  0  0
    3.2800    0.3876    1.7737 H   0  0  0  0  0  0  0  0  0  0  0  0
    4.3951    0.9781   -2.7314 H   0  0  0  0  0  0  0  0  0  0  0  0
    0.8836   -2.5353   -1.5947 H   0  0  0  0  0  0  0  0  0  0  0  0
    2.6153   -2.1884   -1.5059 H   0  0  0  0  0  0  0  0  0  0  0  0
    0.9228   -2.7249    0.8246 H   0  0  0  0  0  0  0  0  0  0  0  0
    2.6766   -2.5562    0.7147 H   0  0  0  0  0  0  0  0  0  0  0  0
  3  4  1  0
  5  7  1  0
  7  8  1  0
  8 10  1  0
  2 11  1  0
 11 12  1  0
 13  1  1  0
  6 14  1  0
 13 15  1  0
  5 16  1  0
 16 17  1  0
  6 18  1  0
 12 19  1  0
 12 20  1  0
 13 21  1  0
 19 21  1  0
 13 22  1  0
 20 22  1  0
 10 23  1  0
 10 24  1  0
 23 25  1  0
 24 26  1  0
 25 27  1  0
 26 27  1  0
 16 28  1  0
  4 30  1  0
  6 30  1  0
 29 30  1  0
 29 31  1  0
  8 32  1  0
 11 32  1  0
  3 33  1  0
 17 33  1  0
  3 34  1  0
 28 34  1  0
  4 35  1  0
  9 35  1  0
 31 35  1  0
 17 36  1  0
 28 37  1  0
 36 37  1  0
 40 41  1  0
 42 44  1  0
 44 45  1  0
 45 47  1  0
 39 48  1  0
 48 49  1  0
 50 38  1  0
 43 51  1  0
 50 52  1  0
 42 53  1  0
 53 54  1  0
 43 55  1  0
 49 56  1  0
 49 57  1  0
 50 58  1  0
 56 58  1  0
 50 59  1  0
 57 59  1  0
 47 60  1  0
 47 61  1  0
 60 62  1  0
 61 63  1  0
 62 64  1  0
 63 64  1  0
 53 65  1  0
 41 67  1  0
 43 67  1  0
 66 67  1  0
 66 68  1  0
 45 69  1  0
 48 69  1  0
 40 70  1  0
 54 70  1  0
 40 71  1  0
 65 71  1  0
 41 72  1  0
 46 72  1  0
 68 72  1  0
 54 73  1  0
 65 74  1  0
 73 74  1  0
  2 75  1  0
  3 76  1  0
  5 77  1  0
  5 78  1  0
  6 79  1  0
  7 80  1  0
  7 81  1  0
  8 82  1  6
  9 83  1  0
  9 84  1  0
  9 85  1  0
 10 86  1  0
 11 87  1  1
 12 88  1  0
 14 89  1  0
 14 90  1  0
 14 91  1  0
 17 92  1  6
 18 93  1  0
 18 94  1  0
 18 95  1  0
 19 96  1  0
 19 97  1  0
 20 98  1  0
 20 99  1  0
 21100  1  0
 21101  1  0
 22102  1  0
 22103  1  0
 23104  1  0
 23105  1  0
 24106  1  0
 24107  1  0
 25108  1  0
 25109  1  0
 26110  1  0
 26111  1  0
 27112  1  0
 27113  1  0
 28114  1  1
 29115  1  0
 30116  1  6
 31117  1  0
 32118  1  0
 33119  1  0
 33120  1  0
 34121  1  0
 34122  1  0
 35123  1  0
 36124  1  0
 36125  1  0
 37126  1  0
 37127  1  0
 39128  1  0
 40129  1  0
 42130  1  0
 42131  1  0
 43132  1  0
 44133  1  0
 44134  1  0
 45135  1  6
 46136  1  0
 46137  1  0
 46138  1  0
 47139  1  0
 48140  1  1
 49141  1  0
 51142  1  0
 51143  1  0
 51144  1  0
 54145  1  6
 55146  1  0
 55147  1  0
 55148  1  0
 56149  1  0
 56150  1  0
 57151  1  0
 57152  1  0
 58153  1  0
 58154  1  0
 59155  1  0
 59156  1  0
 60157  1  0
 60158  1  0
 61159  1  0
 61160  1  0
 62161  1  0
 62162  1  0
 63163  1  0
 63164  1  0
 64165  1  0
 64166  1  0
 65167  1  1
 66168  1  0
 67169  1  0
 68170  1  0
 69171  1  0
 70172  1  0
 70173  1  0
 71174  1  0
 71175  1  0
 72176  1  0
 73177  1  0
 73178  1  0
 74179  1  0
 74180  1  0
M  END
>  <PDBID>  (1) 
4MBS

>  <PDB ID>  (1) 
4MBS

>  <Generic Name>  (1) 
Maraviroc

>  <Brand Name>  (1) 
Celsentri#Selzentry

>  <DrugBank ID>  (1) 
DB04835

>  <ATC Codes>  (1) 
J05AX09

>  <Ligand ID>  (1) 
MRV

>  <Target Name>  (1) 
C-C chemokine receptor type 5

>  <UniProt ID>  (1) 
P51681

>  <PDB ID.1>  (1) 
4MBS

>  <Seq. Identity>  (1) 
74%

$$$$
