PDB_DB00864_04
     RDKit          3D

140143  0  0  0  0  0  0  0  0999 V2000
    1.6640   -1.2266    1.5055 C   0  0  0  0  0  0  0  0  0  0  0  0
    1.0234   -2.5770    1.2675 C   0  0  2  0  0  0  0  0  0  0  0  0
    2.1605   -3.5409    1.5290 C   0  0  0  0  0  0  0  0  0  0  0  0
    1.8406   -4.9655    1.1377 C   0  0  0  0  0  0  0  0  0  0  0  0
    1.7059   -4.8730   -0.3941 C   0  0  0  0  0  0  0  0  0  0  0  0
    0.5093   -4.0295   -0.6134 C   0  0  0  0  0  0  0  0  0  0  0  0
   -0.8339   -2.1769   -0.2571 C   0  0  0  0  0  0  0  0  0  0  0  0
   -2.0339   -2.4849    0.6327 C   0  0  0  0  0  0  0  0  0  0  0  0
   -3.3210   -2.5816   -0.1302 C   0  0  1  0  0  0  0  0  0  0  0  0
   -3.9098   -3.9617   -0.1974 C   0  0  1  0  0  0  0  0  0  0  0  0
   -5.3378   -3.9771   -0.6291 C   0  0  0  0  0  0  0  0  0  0  0  0
   -6.1750   -2.8386   -0.0161 C   0  0  1  0  0  0  0  0  0  0  0  0
   -5.4209   -1.5957   -0.3757 C   0  0  1  0  0  0  0  0  0  0  0  0
   -6.1286   -0.3209   -0.0230 C   0  0  2  0  0  0  0  0  0  0  0  0
   -5.1892    0.6636    0.6509 C   0  0  0  0  0  0  0  0  0  0  0  0
   -4.8127    1.8142   -0.2343 C   0  0  2  0  0  0  0  0  0  0  0  0
   -3.7984    2.6747    0.5192 C   0  0  0  0  0  0  0  0  0  0  0  0
   -2.4736    2.7445   -0.2075 C   0  0  0  0  0  0  0  0  0  0  0  0
   -1.3933    3.3261    0.6731 C   0  0  0  0  0  0  0  0  0  0  0  0
   -0.5449    4.3607    0.0194 C   0  0  2  0  0  0  0  0  0  0  0  0
    0.9229    4.2318    0.3615 C   0  0  0  0  0  0  0  0  0  0  0  0
    1.3234    2.7884    0.5953 C   0  0  0  0  0  0  0  0  0  0  0  0
    2.7909    2.6625    0.3523 C   0  0  1  0  0  0  0  0  0  0  0  0
    3.4277    1.3853    0.7834 C   0  0  2  0  0  0  0  0  0  0  0  0
    2.8864    0.1692    0.0715 C   0  0  1  0  0  0  0  0  0  0  0  0
    3.3878   -0.0161   -1.2873 C   0  0  0  0  0  0  0  0  0  0  0  0
    4.7736   -0.1652   -1.6639 C   0  0  0  0  0  0  0  0  0  0  0  0
    5.6372   -1.2740   -1.1764 C   0  0  1  0  0  0  0  0  0  0  0  0
    7.0086   -1.0256   -1.8724 C   0  0  0  0  0  0  0  0  0  0  0  0
    7.8669   -0.2664   -0.8855 C   0  0  2  0  0  0  0  0  0  0  0  0
    8.3418   -1.3446    0.0953 C   0  0  1  0  0  0  0  0  0  0  0  0
    7.1581   -1.9480    0.7286 C   0  0  0  0  0  0  0  0  0  0  0  0
    5.8048   -1.4927    0.2579 C   0  0  0  0  0  0  0  0  0  0  0  0
   -3.1844   -4.8866   -1.1589 C   0  0  0  0  0  0  0  0  0  0  0  0
   -6.0280    2.6451   -0.5927 C   0  0  0  0  0  0  0  0  0  0  0  0
   -2.6502    3.4580   -1.5047 C   0  0  0  0  0  0  0  0  0  0  0  0
   -0.9363    5.7743    0.4254 C   0  0  0  0  0  0  0  0  0  0  0  0
   -0.0457    6.7696   -0.2706 C   0  0  0  0  0  0  0  0  0  0  0  0
   -0.3788    8.1888    0.0863 C   0  0  0  0  0  0  0  0  0  0  0  0
    3.3926    1.2876    2.2798 C   0  0  0  0  0  0  0  0  0  0  0  0
    2.6345   -1.2223   -1.9055 C   0  0  0  0  0  0  0  0  0  0  0  0
   -8.4302   -3.3672    0.2171 C   0  0  0  0  0  0  0  0  0  0  0  0
   -8.3856    0.0172    0.3239 C   0  0  0  0  0  0  0  0  0  0  0  0
    7.7570    1.9315   -0.1972 C   0  0  0  0  0  0  0  0  0  0  0  0
    0.3755   -2.8245    0.0918 N   0  0  0  0  0  0  0  0  0  0  0  0
    2.8013   -0.9824    0.7796 O   0  0  0  0  0  0  0  0  0  0  0  0
    0.7539   -0.2024    1.5841 O   0  0  0  0  0  0  0  0  0  0  0  0
   -0.7244   -0.8008   -0.4847 O   0  0  0  0  0  0  0  0  0  0  0  0
   -1.8059   -3.4781    1.5426 O   0  0  0  0  0  0  0  0  0  0  0  0
   -4.2380   -1.6520    0.3529 O   0  0  0  0  0  0  0  0  0  0  0  0
   -3.0584   -2.1939   -1.4643 O   0  0  0  0  0  0  0  0  0  0  0  0
   -7.4126   -2.9671   -0.6074 O   0  0  0  0  0  0  0  0  0  0  0  0
   -7.2066   -0.4887    0.8337 O   0  0  0  0  0  0  0  0  0  0  0  0
    1.2595    4.9199    1.5283 O   0  0  0  0  0  0  0  0  0  0  0  0
    3.0131    2.9774   -0.9875 O   0  0  0  0  0  0  0  0  0  0  0  0
    7.1858    0.6622   -0.1352 O   0  0  0  0  0  0  0  0  0  0  0  0
    9.0229   -2.3028   -0.6514 O   0  0  0  0  0  0  0  0  0  0  0  0
    2.0465   -1.3240    2.5775 H   0  0  0  0  0  0  0  0  0  0  0  0
    0.3291   -2.7621    2.1503 H   0  0  0  0  0  0  0  0  0  0  0  0
    2.4984   -3.5393    2.5663 H   0  0  0  0  0  0  0  0  0  0  0  0
    2.9934   -3.2363    0.8287 H   0  0  0  0  0  0  0  0  0  0  0  0
    2.7134   -5.5738    1.3634 H   0  0  0  0  0  0  0  0  0  0  0  0
    0.8986   -5.3139    1.5601 H   0  0  0  0  0  0  0  0  0  0  0  0
    1.5228   -5.8777   -0.8225 H   0  0  0  0  0  0  0  0  0  0  0  0
    2.6303   -4.4605   -0.8299 H   0  0  0  0  0  0  0  0  0  0  0  0
   -0.3838   -4.7181   -0.5171 H   0  0  0  0  0  0  0  0  0  0  0  0
    0.4935   -3.7756   -1.7175 H   0  0  0  0  0  0  0  0  0  0  0  0
   -1.1354   -2.5680   -1.2659 H   0  0  0  0  0  0  0  0  0  0  0  0
   -2.1048   -1.5451    1.2711 H   0  0  0  0  0  0  0  0  0  0  0  0
   -3.9044   -4.4609    0.8187 H   0  0  0  0  0  0  0  0  0  0  0  0
   -5.3914   -3.8301   -1.7243 H   0  0  0  0  0  0  0  0  0  0  0  0
   -5.7786   -4.9585   -0.4010 H   0  0  0  0  0  0  0  0  0  0  0  0
   -6.2384   -2.9883    1.0678 H   0  0  0  0  0  0  0  0  0  0  0  0
   -5.2139   -1.5428   -1.4756 H   0  0  0  0  0  0  0  0  0  0  0  0
   -6.5292    0.1966   -0.9418 H   0  0  0  0  0  0  0  0  0  0  0  0
   -5.6174    1.0752    1.5895 H   0  0  0  0  0  0  0  0  0  0  0  0
   -4.2335    0.1708    0.9614 H   0  0  0  0  0  0  0  0  0  0  0  0
   -4.3313    1.4178   -1.1365 H   0  0  0  0  0  0  0  0  0  0  0  0
   -3.6897    2.3289    1.5561 H   0  0  0  0  0  0  0  0  0  0  0  0
   -4.2107    3.7196    0.5908 H   0  0  0  0  0  0  0  0  0  0  0  0
   -2.2288    1.6720   -0.4646 H   0  0  0  0  0  0  0  0  0  0  0  0
   -1.9347    3.8417    1.5213 H   0  0  0  0  0  0  0  0  0  0  0  0
   -0.8744    2.4880    1.1353 H   0  0  0  0  0  0  0  0  0  0  0  0
   -0.6270    4.2937   -1.0707 H   0  0  0  0  0  0  0  0  0  0  0  0
    1.5729    4.6243   -0.4458 H   0  0  0  0  0  0  0  0  0  0  0  0
    0.7472    2.2055   -0.1623 H   0  0  0  0  0  0  0  0  0  0  0  0
    1.0832    2.5213    1.6360 H   0  0  0  0  0  0  0  0  0  0  0  0
    3.3291    3.4819    0.9207 H   0  0  0  0  0  0  0  0  0  0  0  0
    4.5318    1.5171    0.5522 H   0  0  0  0  0  0  0  0  0  0  0  0
    1.7709    0.4635   -0.0551 H   0  0  0  0  0  0  0  0  0  0  0  0
    2.9605    0.8439   -1.9106 H   0  0  0  0  0  0  0  0  0  0  0  0
    4.7674   -0.3133   -2.8083 H   0  0  0  0  0  0  0  0  0  0  0  0
    5.3960    0.7719   -1.6096 H   0  0  0  0  0  0  0  0  0  0  0  0
    5.2754   -2.2154   -1.6880 H   0  0  0  0  0  0  0  0  0  0  0  0
    6.8689   -0.4954   -2.8215 H   0  0  0  0  0  0  0  0  0  0  0  0
    7.4957   -1.9857   -2.0826 H   0  0  0  0  0  0  0  0  0  0  0  0
    8.7346    0.2194   -1.3789 H   0  0  0  0  0  0  0  0  0  0  0  0
    9.0449   -0.8811    0.8380 H   0  0  0  0  0  0  0  0  0  0  0  0
    7.2604   -3.0585    0.7100 H   0  0  0  0  0  0  0  0  0  0  0  0
    7.1951   -1.6969    1.8321 H   0  0  0  0  0  0  0  0  0  0  0  0
    5.1328   -2.3358    0.5612 H   0  0  0  0  0  0  0  0  0  0  0  0
    5.4893   -0.6109    0.8377 H   0  0  0  0  0  0  0  0  0  0  0  0
   -2.5834   -5.6598   -0.6371 H   0  0  0  0  0  0  0  0  0  0  0  0
   -2.5511   -4.3812   -1.8840 H   0  0  0  0  0  0  0  0  0  0  0  0
   -3.9060   -5.4970   -1.7818 H   0  0  0  0  0  0  0  0  0  0  0  0
   -6.6588    2.7393    0.3007 H   0  0  0  0  0  0  0  0  0  0  0  0
   -6.6034    2.1617   -1.3896 H   0  0  0  0  0  0  0  0  0  0  0  0
   -5.7075    3.6372   -0.9769 H   0  0  0  0  0  0  0  0  0  0  0  0
   -2.7178    4.5492   -1.4383 H   0  0  0  0  0  0  0  0  0  0  0  0
   -1.8468    3.1102   -2.1890 H   0  0  0  0  0  0  0  0  0  0  0  0
   -3.5955    3.1151   -1.9727 H   0  0  0  0  0  0  0  0  0  0  0  0
   -0.7011    5.8712    1.5264 H   0  0  0  0  0  0  0  0  0  0  0  0
   -1.9971    5.9924    0.3286 H   0  0  0  0  0  0  0  0  0  0  0  0
    1.0151    6.5598   -0.1080 H   0  0  0  0  0  0  0  0  0  0  0  0
   -0.2573    6.6600   -1.3693 H   0  0  0  0  0  0  0  0  0  0  0  0
    0.4999    8.8622    0.0579 H   0  0  0  0  0  0  0  0  0  0  0  0
   -1.1149    8.6248   -0.6488 H   0  0  0  0  0  0  0  0  0  0  0  0
   -0.8626    8.2546    1.0997 H   0  0  0  0  0  0  0  0  0  0  0  0
    4.1416    2.0394    2.6796 H   0  0  0  0  0  0  0  0  0  0  0  0
    2.4571    1.5762    2.7594 H   0  0  0  0  0  0  0  0  0  0  0  0
    3.7948    0.3145    2.6520 H   0  0  0  0  0  0  0  0  0  0  0  0
    2.9663   -1.3864   -2.9490 H   0  0  0  0  0  0  0  0  0  0  0  0
    1.5753   -0.9077   -1.9488 H   0  0  0  0  0  0  0  0  0  0  0  0
    2.7072   -2.1030   -1.2667 H   0  0  0  0  0  0  0  0  0  0  0  0
   -8.6556   -2.7337    1.0820 H   0  0  0  0  0  0  0  0  0  0  0  0
   -8.3281   -4.4521    0.5222 H   0  0  0  0  0  0  0  0  0  0  0  0
   -9.3757   -3.3701   -0.3966 H   0  0  0  0  0  0  0  0  0  0  0  0
   -8.3701    1.0956    0.1056 H   0  0  0  0  0  0  0  0  0  0  0  0
   -9.1881   -0.2149    1.0593 H   0  0  0  0  0  0  0  0  0  0  0  0
   -8.5931   -0.4880   -0.6543 H   0  0  0  0  0  0  0  0  0  0  0  0
    7.1886    2.6590    0.4158 H   0  0  0  0  0  0  0  0  0  0  0  0
    8.8117    1.9540    0.0792 H   0  0  0  0  0  0  0  0  0  0  0  0
    7.6548    2.2874   -1.2606 H   0  0  0  0  0  0  0  0  0  0  0  0
    0.3512   -0.0799    2.4870 H   0  0  0  0  0  0  0  0  0  0  0  0
   -1.4769   -0.5252   -1.0322 H   0  0  0  0  0  0  0  0  0  0  0  0
   -1.9284   -4.3930    1.2759 H   0  0  0  0  0  0  0  0  0  0  0  0
   -3.6445   -2.6785   -2.0990 H   0  0  0  0  0  0  0  0  0  0  0  0
    1.0457    4.3311    2.2953 H   0  0  0  0  0  0  0  0  0  0  0  0
    3.9379    3.1849   -1.2038 H   0  0  0  0  0  0  0  0  0  0  0  0
    9.5897   -1.8963   -1.3545 H   0  0  0  0  0  0  0  0  0  0  0  0
  1  2  1  0
  2  3  1  0
  3  4  1  0
  4  5  1  0
  5  6  1  0
  7  8  1  0
  8  9  1  0
  9 10  1  0
 10 11  1  0
 11 12  1  0
 12 13  1  0
 13 14  1  0
 14 15  1  0
 15 16  1  0
 16 17  1  0
 17 18  1  0
 18 19  1  0
 19 20  1  0
 20 21  1  0
 21 22  1  0
 22 23  1  0
 23 24  1  0
 24 25  1  0
 25 26  1  0
 26 27  1  0
 27 28  1  0
 28 29  1  0
 29 30  1  0
 30 31  1  0
 31 32  1  0
 28 33  1  0
 32 33  1  0
 10 34  1  0
 16 35  1  0
 18 36  1  0
 20 37  1  0
 37 38  1  0
 38 39  1  0
 24 40  1  0
 26 41  1  0
  2 45  1  0
  6 45  1  0
  7 45  1  0
  1 46  1  0
 25 46  1  0
  1 47  1  0
  7 48  1  0
  8 49  1  0
  9 50  1  0
 13 50  1  0
  9 51  1  6
 12 52  1  0
 42 52  1  0
 14 53  1  0
 43 53  1  0
 21 54  1  0
 23 55  1  0
 30 56  1  0
 44 56  1  0
 31 57  1  0
  1 58  1  0
  2 59  1  1
  3 60  1  0
  3 61  1  0
  4 62  1  0
  4 63  1  0
  5 64  1  0
  5 65  1  0
  6 66  1  0
  6 67  1  0
  7 68  1  0
  8 69  1  0
 10 70  1  1
 11 71  1  0
 11 72  1  0
 12 73  1  1
 13 74  1  6
 14 75  1  6
 15 76  1  0
 15 77  1  0
 16 78  1  6
 17 79  1  0
 17 80  1  0
 18 81  1  0
 19 82  1  0
 19 83  1  0
 20 84  1  6
 21 85  1  0
 22 86  1  0
 22 87  1  0
 23 88  1  1
 24 89  1  6
 25 90  1  6
 26 91  1  0
 27 92  1  0
 27 93  1  0
 28 94  1  6
 29 95  1  0
 29 96  1  0
 30 97  1  6
 31 98  1  1
 32 99  1  0
 32100  1  0
 33101  1  0
 33102  1  0
 34103  1  0
 34104  1  0
 34105  1  0
 35106  1  0
 35107  1  0
 35108  1  0
 36109  1  0
 36110  1  0
 36111  1  0
 37112  1  0
 37113  1  0
 38114  1  0
 38115  1  0
 39116  1  0
 39117  1  0
 39118  1  0
 40119  1  0
 40120  1  0
 40121  1  0
 41122  1  0
 41123  1  0
 41124  1  0
 42125  1  0
 42126  1  0
 42127  1  0
 43128  1  0
 43129  1  0
 43130  1  0
 44131  1  0
 44132  1  0
 44133  1  0
 47134  1  0
 48135  1  0
 49136  1  0
 51137  1  0
 54138  1  0
 55139  1  0
 57140  1  0
M  END
>  <PDBID>  (1) 
1FKF

>  <PDB ID>  (1) 
1FKF

>  <Generic Name>  (1) 
Tacrolimus

>  <Brand Name>  (1) 
Ach-tacrolimus#Advagraf#Astagraf XL#Envarsus XR#Hecoria#Prograf#Protopic#Ran-tacrolimus#Sandoz Tacrolimus#Tacrolimus

>  <DrugBank ID>  (1) 
DB00864

>  <ATC Codes>  (1) 
D11AH01#L04AD02

>  <Ligand ID>  (1) 
FK5

>  <Target Name>  (1) 
Peptidyl-prolyl cis-trans isomerase FKBP1A

>  <UniProt ID>  (1) 
P62942

>  <PDB ID.1>  (1) 
1FKF

>  <Seq. Identity>  (1) 
100%

$$$$
