PDB_DB00559_07
     RDKit          3D

 94 97  0  0  0  0  0  0  0  0999 V2000
    4.0355    0.7731   -0.2616 C   0  0  0  0  0  0  0  0  0  0  0  0
   -0.9321   -0.4699    0.6770 C   0  0  0  0  0  0  0  0  0  0  0  0
   -3.0011    0.8937    0.1432 C   0  0  0  0  0  0  0  0  0  0  0  0
   -0.4672    3.1843    1.3049 C   0  0  0  0  0  0  0  0  0  0  0  0
    0.0739    5.9078    0.7968 C   0  0  0  0  0  0  0  0  0  0  0  0
   -5.0948    1.4681   -0.6788 C   0  0  0  0  0  0  0  0  0  0  0  0
    6.3341   -0.9766    0.3503 C   0  0  0  0  0  0  0  0  0  0  0  0
    6.4545    0.2496   -0.5515 C   0  0  0  0  0  0  0  0  0  0  0  0
    6.8338    1.4043    0.3509 C   0  0  0  0  0  0  0  0  0  0  0  0
    7.5891    0.0022   -1.4871 C   0  0  0  0  0  0  0  0  0  0  0  0
    5.1483    0.5182   -1.2546 C   0  0  0  0  0  0  0  0  0  0  0  0
    4.7803   -0.5243   -2.2499 C   0  0  0  0  0  0  0  0  0  0  0  0
    3.6062   -1.3774   -1.7957 C   0  0  0  0  0  0  0  0  0  0  0  0
    2.3769   -0.5336   -1.5297 C   0  0  0  0  0  0  0  0  0  0  0  0
    2.7351    0.8512   -1.0718 C   0  0  0  0  0  0  0  0  0  0  0  0
    1.3658   -1.2563   -0.3296 S   0  0  0  0  0  0  0  0  0  0  0  0
    2.0801   -1.3659    1.0793 O   0  0  0  0  0  0  0  0  0  0  0  0
    1.5395   -3.0578   -0.8505 O   0  0  0  0  0  0  0  0  0  0  0  0
   -0.1014   -1.0581   -0.3925 N   0  0  0  0  0  0  0  0  0  0  0  0
   -2.3822   -0.4441    0.3024 C   0  0  0  0  0  0  0  0  0  0  0  0
   -1.9709    1.9160   -0.1337 N   0  0  0  0  0  0  0  0  0  0  0  0
   -1.1826    1.8890    1.0942 C   0  0  0  0  0  0  0  0  0  0  0  0
   -0.3406    0.7576    1.0318 N   0  0  0  0  0  0  0  0  0  0  0  0
   -1.4781    4.2204    1.3981 N   0  0  0  0  0  0  0  0  0  0  0  0
   -0.9122    5.4481    1.8620 C   0  0  0  0  0  0  0  0  0  0  0  0
    0.2283    4.8765   -0.2857 C   0  0  0  0  0  0  0  0  0  0  0  0
    0.4082    3.5300    0.2051 N   0  0  0  0  0  0  0  0  0  0  0  0
   -3.8564    0.9456   -0.9419 O   0  0  0  0  0  0  0  0  0  0  0  0
   -5.8741    1.4291   -2.0001 C   0  0  0  0  0  0  0  0  0  0  0  0
   -5.9882    0.1268   -2.4637 O   0  0  0  0  0  0  0  0  0  0  0  0
   -3.0686   -1.2914    1.1628 O   0  0  0  0  0  0  0  0  0  0  0  0
   -3.5921   -2.4096    0.6006 C   0  0  0  0  0  0  0  0  0  0  0  0
   -5.0926   -2.3932    0.8161 C   0  0  0  0  0  0  0  0  0  0  0  0
   -5.6844   -3.3557   -0.1898 C   0  0  0  0  0  0  0  0  0  0  0  0
   -4.7050   -4.4595   -0.5320 C   0  0  0  0  0  0  0  0  0  0  0  0
   -3.8555   -4.8528    0.6405 C   0  0  0  0  0  0  0  0  0  0  0  0
   -3.0861   -3.6994    1.2411 C   0  0  0  0  0  0  0  0  0  0  0  0
   -3.2909   -3.7205    2.5982 O   0  0  0  0  0  0  0  0  0  0  0  0
   -2.0559   -3.8282    3.2298 C   0  0  0  0  0  0  0  0  0  0  0  0
    4.2055    1.7800    0.1705 H   0  0  0  0  0  0  0  0  0  0  0  0
    3.9195   -0.0169    0.4819 H   0  0  0  0  0  0  0  0  0  0  0  0
   -0.7560   -1.1774    1.5457 H   0  0  0  0  0  0  0  0  0  0  0  0
   -3.4890    1.2944    1.0807 H   0  0  0  0  0  0  0  0  0  0  0  0
    0.0686    3.1621    2.2756 H   0  0  0  0  0  0  0  0  0  0  0  0
   -0.3982    6.8051    0.3132 H   0  0  0  0  0  0  0  0  0  0  0  0
    1.0345    6.1542    1.2774 H   0  0  0  0  0  0  0  0  0  0  0  0
   -4.9546    2.5478   -0.4240 H   0  0  0  0  0  0  0  0  0  0  0  0
   -5.5956    0.9047    0.1062 H   0  0  0  0  0  0  0  0  0  0  0  0
    6.1217   -1.8965   -0.2334 H   0  0  0  0  0  0  0  0  0  0  0  0
    7.3640   -1.1321    0.7848 H   0  0  0  0  0  0  0  0  0  0  0  0
    5.6608   -0.8167    1.1942 H   0  0  0  0  0  0  0  0  0  0  0  0
    6.1208    1.4354    1.2068 H   0  0  0  0  0  0  0  0  0  0  0  0
    7.8851    1.2225    0.6896 H   0  0  0  0  0  0  0  0  0  0  0  0
    6.7475    2.3788   -0.1909 H   0  0  0  0  0  0  0  0  0  0  0  0
    8.5241   -0.0356   -0.8557 H   0  0  0  0  0  0  0  0  0  0  0  0
    7.5475   -0.9974   -1.9777 H   0  0  0  0  0  0  0  0  0  0  0  0
    7.7675    0.8183   -2.2099 H   0  0  0  0  0  0  0  0  0  0  0  0
    5.2932    1.4878   -1.8116 H   0  0  0  0  0  0  0  0  0  0  0  0
    4.4509   -0.0727   -3.2319 H   0  0  0  0  0  0  0  0  0  0  0  0
    5.5911   -1.2311   -2.5093 H   0  0  0  0  0  0  0  0  0  0  0  0
    3.8149   -1.9477   -0.8862 H   0  0  0  0  0  0  0  0  0  0  0  0
    3.3755   -2.0778   -2.6226 H   0  0  0  0  0  0  0  0  0  0  0  0
    1.8163   -0.4723   -2.4837 H   0  0  0  0  0  0  0  0  0  0  0  0
    1.9763    1.3129   -0.4317 H   0  0  0  0  0  0  0  0  0  0  0  0
    2.9660    1.5213   -1.9410 H   0  0  0  0  0  0  0  0  0  0  0  0
    1.8736   -2.1864    1.6111 H   0  0  0  0  0  0  0  0  0  0  0  0
    1.2293   -2.9222   -1.7752 H   0  0  0  0  0  0  0  0  0  0  0  0
   -0.7075   -1.4932   -1.1224 H   0  0  0  0  0  0  0  0  0  0  0  0
   -2.4545   -0.9524   -0.7090 H   0  0  0  0  0  0  0  0  0  0  0  0
   -1.3813    1.6201   -0.9428 H   0  0  0  0  0  0  0  0  0  0  0  0
   -1.8637    1.7600    1.9871 H   0  0  0  0  0  0  0  0  0  0  0  0
    0.3685    0.6735    1.7871 H   0  0  0  0  0  0  0  0  0  0  0  0
   -1.9206    4.3786    0.4673 H   0  0  0  0  0  0  0  0  0  0  0  0
   -1.7352    6.1753    2.0167 H   0  0  0  0  0  0  0  0  0  0  0  0
   -0.4389    5.2803    2.8373 H   0  0  0  0  0  0  0  0  0  0  0  0
    1.1681    5.1672   -0.8412 H   0  0  0  0  0  0  0  0  0  0  0  0
   -0.6387    4.9608   -0.9994 H   0  0  0  0  0  0  0  0  0  0  0  0
    0.1744    2.8895   -0.5855 H   0  0  0  0  0  0  0  0  0  0  0  0
   -6.8548    1.8999   -1.7941 H   0  0  0  0  0  0  0  0  0  0  0  0
   -5.3136    2.0380   -2.7456 H   0  0  0  0  0  0  0  0  0  0  0  0
   -5.1674   -0.3643   -2.2489 H   0  0  0  0  0  0  0  0  0  0  0  0
   -3.4233   -2.5309   -0.4788 H   0  0  0  0  0  0  0  0  0  0  0  0
   -5.2641   -2.8331    1.8390 H   0  0  0  0  0  0  0  0  0  0  0  0
   -5.5313   -1.3951    0.7691 H   0  0  0  0  0  0  0  0  0  0  0  0
   -6.6709   -3.7497    0.1288 H   0  0  0  0  0  0  0  0  0  0  0  0
   -5.8678   -2.7793   -1.1253 H   0  0  0  0  0  0  0  0  0  0  0  0
   -5.3209   -5.3456   -0.7976 H   0  0  0  0  0  0  0  0  0  0  0  0
   -4.1107   -4.2277   -1.4468 H   0  0  0  0  0  0  0  0  0  0  0  0
   -3.1658   -5.6504    0.2982 H   0  0  0  0  0  0  0  0  0  0  0  0
   -4.5584   -5.3169    1.3933 H   0  0  0  0  0  0  0  0  0  0  0  0
   -2.0051   -3.7715    0.9961 H   0  0  0  0  0  0  0  0  0  0  0  0
   -1.5149   -4.7518    2.9401 H   0  0  0  0  0  0  0  0  0  0  0  0
   -1.3804   -2.9775    3.0060 H   0  0  0  0  0  0  0  0  0  0  0  0
   -2.1584   -3.8636    4.3338 H   0  0  0  0  0  0  0  0  0  0  0  0
  8  7  1  0
  8  9  1  0
  8 10  1  0
  1 11  1  0
  8 11  1  0
 11 12  1  0
 12 13  1  0
 13 14  1  0
  1 15  1  0
 14 15  1  0
 14 16  1  0
 16 17  1  0
 16 18  1  0
  2 19  1  0
 16 19  1  0
  2 20  1  0
  3 20  1  0
  3 21  1  0
  4 22  1  0
 21 22  1  0
  2 23  1  0
 22 23  1  0
  4 24  1  0
  5 25  1  0
 24 25  1  0
  5 26  1  0
  4 27  1  0
 26 27  1  0
  3 28  1  0
  6 28  1  0
  6 29  1  0
 29 30  1  0
 20 31  1  0
 31 32  1  0
 32 33  1  0
 33 34  1  0
 34 35  1  0
 35 36  1  0
 32 37  1  0
 36 37  1  0
 37 38  1  0
 38 39  1  0
  1 40  1  0
  1 41  1  0
  2 42  1  0
  3 43  1  0
  4 44  1  0
  5 45  1  0
  5 46  1  0
  6 47  1  0
  6 48  1  0
  7 49  1  0
  7 50  1  0
  7 51  1  0
  9 52  1  0
  9 53  1  0
  9 54  1  0
 10 55  1  0
 10 56  1  0
 10 57  1  0
 11 58  1  0
 12 59  1  0
 12 60  1  0
 13 61  1  0
 13 62  1  0
 14 63  1  0
 15 64  1  0
 15 65  1  0
 17 66  1  0
 18 67  1  0
 19 68  1  0
 20 69  1  0
 21 70  1  0
 22 71  1  0
 23 72  1  0
 24 73  1  0
 25 74  1  0
 25 75  1  0
 26 76  1  0
 26 77  1  0
 27 78  1  0
 29 79  1  0
 29 80  1  0
 30 81  1  0
 32 82  1  0
 33 83  1  0
 33 84  1  0
 34 85  1  0
 34 86  1  0
 35 87  1  0
 35 88  1  0
 36 89  1  0
 36 90  1  0
 37 91  1  0
 39 92  1  0
 39 93  1  0
 39 94  1  0
M  END
>  <PDBID>  (1) 
5XPR

>  <PDB ID>  (1) 
5XPR

>  <Generic Name>  (1) 
Bosentan

>  <Brand Name>  (1) 
Accel-bosentan#Act Bosentan#Apo-bosentan#Bosentan Tablets#Ipg-bosentan#Mar-bosentan#Mylan-bosentan#PMS-bosentan#Sandoz Bosentan#Teva-bosentan#Tracleer

>  <DrugBank ID>  (1) 
DB00559

>  <ATC Codes>  (1) 
C02KX01

>  <Ligand ID>  (1) 
K86

>  <Target Name>  (1) 
Endothelin B receptor

>  <UniProt ID>  (1) 
P24530

>  <PDB ID.1>  (1) 
5XPR

>  <Seq. Identity>  (1) 
85%

$$$$
