PDB_DB00456_03
     RDKit          3D

 56 58  0  0  0  0  0  0  0  0999 V2000
    0.5728   -1.1029   -2.1838 S   0  0  0  0  0  0  0  0  0  0  0  0
    2.3713   -0.8171   -2.2135 C   0  0  0  0  0  0  0  0  0  0  0  0
    2.7049   -0.2685   -0.7652 C   0  0  0  0  0  0  0  0  0  0  0  0
    4.1785    0.0227   -0.9000 C   0  0  0  0  0  0  0  0  0  0  0  0
    4.8187    0.5903    0.1656 O   0  0  0  0  0  0  0  0  0  0  0  0
    4.3526    1.8589    0.4652 C   0  0  0  0  0  0  0  0  0  0  0  0
    4.0000    1.9361    1.8005 O   0  0  0  0  0  0  0  0  0  0  0  0
    5.4640    2.8966    0.2838 C   0  0  0  0  0  0  0  0  0  0  0  0
    2.4112   -1.3926    0.1488 C   0  0  0  0  0  0  0  0  0  0  0  0
    2.9687   -1.2547    1.5389 C   0  0  0  0  0  0  0  0  0  0  0  0
    3.0457   -2.6088    2.0400 O   0  0  0  0  0  0  0  0  0  0  0  0
    2.0664   -0.6702    2.4237 O   0  0  0  0  0  0  0  0  0  0  0  0
    1.1410   -1.9352    0.2434 N   0  0  0  0  0  0  0  0  0  0  0  0
    0.3662   -2.3151   -0.8541 C   0  0  1  0  0  0  0  0  0  0  0  0
   -0.8600   -2.1329    0.0188 C   0  0  1  0  0  0  0  0  0  0  0  0
    0.0840   -1.4727    1.0282 C   0  0  0  0  0  0  0  0  0  0  0  0
   -0.1885   -0.1640    1.2290 O   0  0  0  0  0  0  0  0  0  0  0  0
   -1.9250   -1.3397   -0.4933 N   0  0  0  0  0  0  0  0  0  0  0  0
   -2.7826   -0.9775    0.6101 C   0  0  2  0  0  0  0  0  0  0  0  0
   -3.8121   -1.9314    0.6457 O   0  0  0  0  0  0  0  0  0  0  0  0
   -3.3599    0.4130    0.4607 C   0  0  0  0  0  0  0  0  0  0  0  0
   -4.1905    0.4256   -0.7981 C   0  0  0  0  0  0  0  0  0  0  0  0
   -4.8070    1.8019   -1.0137 C   0  0  0  0  0  0  0  0  0  0  0  0
   -5.6932    2.0549    0.1584 C   0  0  0  0  0  0  0  0  0  0  0  0
   -6.6127    0.9162    0.4058 C   0  0  0  0  0  0  0  0  0  0  0  0
   -5.7825   -0.4696   -0.4657 S   0  0  0  0  0  0  0  0  0  0  0  0
    2.7015   -0.1078   -2.9575 H   0  0  0  0  0  0  0  0  0  0  0  0
    2.8543   -1.8144   -2.2294 H   0  0  0  0  0  0  0  0  0  0  0  0
    2.1054    0.6216   -0.6633 H   0  0  0  0  0  0  0  0  0  0  0  0
    4.3684    0.7303   -1.7685 H   0  0  0  0  0  0  0  0  0  0  0  0
    4.7387   -0.8929   -1.2361 H   0  0  0  0  0  0  0  0  0  0  0  0
    3.5318    2.2046   -0.1604 H   0  0  0  0  0  0  0  0  0  0  0  0
    3.8588    2.8804    2.0812 H   0  0  0  0  0  0  0  0  0  0  0  0
    6.0727    2.7134   -0.5950 H   0  0  0  0  0  0  0  0  0  0  0  0
    6.0818    2.9432    1.1955 H   0  0  0  0  0  0  0  0  0  0  0  0
    4.9557    3.8770    0.1572 H   0  0  0  0  0  0  0  0  0  0  0  0
    3.0664   -2.2491   -0.2859 H   0  0  0  0  0  0  0  0  0  0  0  0
    3.9460   -0.8426    1.6517 H   0  0  0  0  0  0  0  0  0  0  0  0
    2.3748   -3.1641    1.5840 H   0  0  0  0  0  0  0  0  0  0  0  0
    2.1410    0.2587    2.5993 H   0  0  0  0  0  0  0  0  0  0  0  0
    0.5774   -3.3759   -1.1611 H   0  0  0  0  0  0  0  0  0  0  0  0
   -1.2686   -3.1151    0.3546 H   0  0  0  0  0  0  0  0  0  0  0  0
    0.0068   -2.0443    1.9945 H   0  0  0  0  0  0  0  0  0  0  0  0
    0.1797    0.5087    0.6548 H   0  0  0  0  0  0  0  0  0  0  0  0
   -1.6882   -0.5605   -1.1063 H   0  0  0  0  0  0  0  0  0  0  0  0
   -2.2447   -1.0661    1.5584 H   0  0  0  0  0  0  0  0  0  0  0  0
   -3.5956   -2.7040    0.0891 H   0  0  0  0  0  0  0  0  0  0  0  0
   -2.5800    1.1849    0.5026 H   0  0  0  0  0  0  0  0  0  0  0  0
   -4.0596    0.5886    1.3236 H   0  0  0  0  0  0  0  0  0  0  0  0
   -3.7391   -0.0016   -1.6696 H   0  0  0  0  0  0  0  0  0  0  0  0
   -3.9851    2.5331   -1.0082 H   0  0  0  0  0  0  0  0  0  0  0  0
   -5.3696    1.8489   -1.9590 H   0  0  0  0  0  0  0  0  0  0  0  0
   -6.3052    2.9587   -0.0804 H   0  0  0  0  0  0  0  0  0  0  0  0
   -5.0907    2.3350    1.0584 H   0  0  0  0  0  0  0  0  0  0  0  0
   -7.6413    1.0449    0.0768 H   0  0  0  0  0  0  0  0  0  0  0  0
   -6.5255    0.6430    1.4871 H   0  0  0  0  0  0  0  0  0  0  0  0
  1  2  1  0
  2  3  1  0
  3  4  1  0
  4  5  1  0
  5  6  1  0
  6  7  1  0
  6  8  1  0
  3  9  1  0
  9 10  1  0
 10 11  1  0
 10 12  1  0
  9 13  1  0
  1 14  1  0
 13 14  1  0
 14 15  1  0
 13 16  1  0
 15 16  1  0
 16 17  1  0
 15 18  1  0
 18 19  1  0
 19 20  1  0
 19 21  1  0
 21 22  1  0
 22 23  1  0
 23 24  1  0
 24 25  1  0
 22 26  1  0
 25 26  1  0
  2 27  1  0
  2 28  1  0
  3 29  1  0
  4 30  1  0
  4 31  1  0
  6 32  1  0
  7 33  1  0
  8 34  1  0
  8 35  1  0
  8 36  1  0
  9 37  1  0
 10 38  1  0
 11 39  1  0
 12 40  1  0
 14 41  1  6
 15 42  1  1
 16 43  1  0
 17 44  1  0
 18 45  1  0
 19 46  1  1
 20 47  1  0
 21 48  1  0
 21 49  1  0
 22 50  1  0
 23 51  1  0
 23 52  1  0
 24 53  1  0
 24 54  1  0
 25 55  1  0
 25 56  1  0
M  END
>  <PDBID>  (1) 
1KVL

>  <PDB ID>  (1) 
1KVL

>  <Generic Name>  (1) 
Cefalotin

>  <Brand Name>  (1) 
Ceporacin#Keflin Add-vantage Inj 1gm/vial#Keflin Neutral Inj 1gm#Keflin Neutral Inj 2gm/vial#Coaxin#Keflin

>  <DrugBank ID>  (1) 
DB00456

>  <ATC Codes>  (1) 
J01DB03

>  <Ligand ID>  (1) 
CLS

>  <Target Name>  (1) 
Beta-lactamase

>  <UniProt ID>  (1) 
P00811

>  <PDB ID.1>  (1) 
1KVL

>  <Seq. Identity>  (1) 
100%

$$$$
