PDB_DB01044_07
     RDKit          3D

122128  0  0  0  0  0  0  0  0999 V2000
    5.5153    1.6013   -1.7241 C   0  0  0  0  0  0  0  0  0  0  0  0
    4.6241    1.1748   -0.5624 C   0  0  1  0  0  0  0  0  0  0  0  0
    3.5627    0.2430   -1.1312 C   0  0  0  0  0  0  0  0  0  0  0  0
    2.6503   -0.2293   -0.1330 N   0  0  0  0  0  0  0  0  0  0  0  0
    3.0012    0.3015    1.1380 C   0  0  0  0  0  0  0  0  0  0  0  0
    4.4590   -0.1062    1.3948 C   0  0  0  0  0  0  0  0  0  0  0  0
    5.3609    0.5488    0.4982 N   0  0  0  0  0  0  0  0  0  0  0  0
    1.3018   -0.0700   -0.5318 C   0  0  0  0  0  0  0  0  0  0  0  0
    0.9741    1.3948   -0.7227 C   0  0  0  0  0  0  0  0  0  0  0  0
   -0.0553    1.8693    0.2827 C   0  0  0  0  0  0  0  0  0  0  0  0
   -1.3574    1.1587    0.0176 C   0  0  0  0  0  0  0  0  0  0  0  0
   -1.0952   -0.2918   -0.2196 C   0  0  0  0  0  0  0  0  0  0  0  0
    0.2747   -0.6621    0.3643 C   0  0  0  0  0  0  0  0  0  0  0  0
    0.2986   -2.0088    0.5045 O   0  0  0  0  0  0  0  0  0  0  0  0
    0.4363   -2.5365    1.7498 C   0  0  0  0  0  0  0  0  0  0  0  0
   -2.0778   -1.1968    0.1884 N   0  0  0  0  0  0  0  0  0  0  0  0
   -3.1171   -0.7937    1.0191 C   0  0  0  0  0  0  0  0  0  0  0  0
   -3.5453    0.6440    0.9010 C   0  0  0  0  0  0  0  0  0  0  0  0
   -2.3024    1.4792    1.1243 C   0  0  0  0  0  0  0  0  0  0  0  0
   -1.8004    1.1285    2.3847 O   0  0  0  0  0  0  0  0  0  0  0  0
   -4.2365    0.9735   -0.3836 C   0  0  0  0  0  0  0  0  0  0  0  0
   -5.3754    0.1897   -0.4896 O   0  0  0  0  0  0  0  0  0  0  0  0
   -4.5380    2.3260   -0.4013 O   0  0  0  0  0  0  0  0  0  0  0  0
   -2.2579   -2.3327   -0.6492 C   0  0  0  0  0  0  0  0  0  0  0  0
   -2.6924   -2.2152   -2.0618 C   0  0  0  0  0  0  0  0  0  0  0  0
   -3.5817   -2.8727   -1.0256 C   0  0  0  0  0  0  0  0  0  0  0  0
    0.4334    1.6379   -1.9853 F   0  0  0  0  0  0  0  0  0  0  0  0
    4.8260    1.9616   -2.5253 H   0  0  0  0  0  0  0  0  0  0  0  0
    6.1002    0.7723   -2.1413 H   0  0  0  0  0  0  0  0  0  0  0  0
    6.1369    2.4777   -1.4530 H   0  0  0  0  0  0  0  0  0  0  0  0
    4.1923    2.1125   -0.1606 H   0  0  0  0  0  0  0  0  0  0  0  0
    4.1132   -0.6282   -1.5428 H   0  0  0  0  0  0  0  0  0  0  0  0
    3.0799    0.7369   -1.9860 H   0  0  0  0  0  0  0  0  0  0  0  0
    2.8700    1.3949    1.2350 H   0  0  0  0  0  0  0  0  0  0  0  0
    2.4153   -0.1540    1.9678 H   0  0  0  0  0  0  0  0  0  0  0  0
    4.4837   -1.2058    1.1516 H   0  0  0  0  0  0  0  0  0  0  0  0
    4.7170   -0.0171    2.4560 H   0  0  0  0  0  0  0  0  0  0  0  0
    6.1139   -0.0411    0.1136 H   0  0  0  0  0  0  0  0  0  0  0  0
    0.2858    1.8325    1.3152 H   0  0  0  0  0  0  0  0  0  0  0  0
    1.3445   -2.2718    2.3033 H   0  0  0  0  0  0  0  0  0  0  0  0
   -0.4966   -2.4212    2.3775 H   0  0  0  0  0  0  0  0  0  0  0  0
    0.5098   -3.6583    1.6118 H   0  0  0  0  0  0  0  0  0  0  0  0
   -2.8076   -0.9241    2.1003 H   0  0  0  0  0  0  0  0  0  0  0  0
   -1.4790   -3.1325   -0.4766 H   0  0  0  0  0  0  0  0  0  0  0  0
   -2.2000   -2.8411   -2.8332 H   0  0  0  0  0  0  0  0  0  0  0  0
   -3.1086   -1.2835   -2.4723 H   0  0  0  0  0  0  0  0  0  0  0  0
   -4.5296   -2.4106   -0.7569 H   0  0  0  0  0  0  0  0  0  0  0  0
   -3.6921   -3.9788   -1.1973 H   0  0  0  0  0  0  0  0  0  0  0  0
    5.5153    1.6013   -1.7241 C   0  0  0  0  0  0  0  0  0  0  0  0
    4.6241    1.1748   -0.5624 C   0  0  1  0  0  0  0  0  0  0  0  0
    3.5627    0.2430   -1.1312 C   0  0  0  0  0  0  0  0  0  0  0  0
    2.6503   -0.2293   -0.1330 N   0  0  0  0  0  0  0  0  0  0  0  0
    3.0012    0.3015    1.1380 C   0  0  0  0  0  0  0  0  0  0  0  0
    4.4590   -0.1062    1.3948 C   0  0  0  0  0  0  0  0  0  0  0  0
    5.3609    0.5488    0.4982 N   0  0  0  0  0  0  0  0  0  0  0  0
    1.3018   -0.0700   -0.5318 C   0  0  0  0  0  0  0  0  0  0  0  0
    0.9741    1.3948   -0.7227 C   0  0  0  0  0  0  0  0  0  0  0  0
   -0.0553    1.8693    0.2827 C   0  0  0  0  0  0  0  0  0  0  0  0
   -1.3574    1.1587    0.0176 C   0  0  0  0  0  0  0  0  0  0  0  0
   -1.0952   -0.2918   -0.2196 C   0  0  0  0  0  0  0  0  0  0  0  0
    0.2747   -0.6621    0.3643 C   0  0  0  0  0  0  0  0  0  0  0  0
    0.2986   -2.0088    0.5045 O   0  0  0  0  0  0  0  0  0  0  0  0
    0.4363   -2.5365    1.7498 C   0  0  0  0  0  0  0  0  0  0  0  0
   -2.0778   -1.1968    0.1884 N   0  0  0  0  0  0  0  0  0  0  0  0
   -3.1171   -0.7937    1.0191 C   0  0  0  0  0  0  0  0  0  0  0  0
   -3.5453    0.6440    0.9010 C   0  0  0  0  0  0  0  0  0  0  0  0
   -2.3024    1.4792    1.1243 C   0  0  0  0  0  0  0  0  0  0  0  0
   -1.8004    1.1285    2.3847 O   0  0  0  0  0  0  0  0  0  0  0  0
   -4.2365    0.9735   -0.3836 C   0  0  0  0  0  0  0  0  0  0  0  0
   -5.3754    0.1897   -0.4896 O   0  0  0  0  0  0  0  0  0  0  0  0
   -4.5380    2.3260   -0.4013 O   0  0  0  0  0  0  0  0  0  0  0  0
   -2.2579   -2.3327   -0.6492 C   0  0  0  0  0  0  0  0  0  0  0  0
   -2.6924   -2.2152   -2.0618 C   0  0  0  0  0  0  0  0  0  0  0  0
   -3.5817   -2.8727   -1.0256 C   0  0  0  0  0  0  0  0  0  0  0  0
    0.4334    1.6379   -1.9853 F   0  0  0  0  0  0  0  0  0  0  0  0
    4.8260    1.9616   -2.5253 H   0  0  0  0  0  0  0  0  0  0  0  0
    6.1002    0.7723   -2.1413 H   0  0  0  0  0  0  0  0  0  0  0  0
    6.1369    2.4777   -1.4530 H   0  0  0  0  0  0  0  0  0  0  0  0
    4.1923    2.1125   -0.1606 H   0  0  0  0  0  0  0  0  0  0  0  0
    4.1132   -0.6282   -1.5428 H   0  0  0  0  0  0  0  0  0  0  0  0
    3.0799    0.7369   -1.9860 H   0  0  0  0  0  0  0  0  0  0  0  0
    2.8700    1.3949    1.2350 H   0  0  0  0  0  0  0  0  0  0  0  0
    2.4153   -0.1540    1.9678 H   0  0  0  0  0  0  0  0  0  0  0  0
    4.4837   -1.2058    1.1516 H   0  0  0  0  0  0  0  0  0  0  0  0
    4.7170   -0.0171    2.4560 H   0  0  0  0  0  0  0  0  0  0  0  0
    6.1139   -0.0411    0.1136 H   0  0  0  0  0  0  0  0  0  0  0  0
    0.2858    1.8325    1.3152 H   0  0  0  0  0  0  0  0  0  0  0  0
    1.3445   -2.2718    2.3033 H   0  0  0  0  0  0  0  0  0  0  0  0
   -0.4966   -2.4212    2.3775 H   0  0  0  0  0  0  0  0  0  0  0  0
    0.5098   -3.6583    1.6118 H   0  0  0  0  0  0  0  0  0  0  0  0
   -2.8076   -0.9241    2.1003 H   0  0  0  0  0  0  0  0  0  0  0  0
   -1.4790   -3.1325   -0.4766 H   0  0  0  0  0  0  0  0  0  0  0  0
   -2.2000   -2.8411   -2.8332 H   0  0  0  0  0  0  0  0  0  0  0  0
   -3.1086   -1.2835   -2.4723 H   0  0  0  0  0  0  0  0  0  0  0  0
   -4.5296   -2.4106   -0.7569 H   0  0  0  0  0  0  0  0  0  0  0  0
   -3.6921   -3.9788   -1.1973 H   0  0  0  0  0  0  0  0  0  0  0  0
    1.1857   -0.5509   -1.5354 H   0  0  0  0  0  0  0  0  0  0  0  0
    1.8414    2.0528   -0.6294 H   0  0  0  0  0  0  0  0  0  0  0  0
   -0.2252    2.9600    0.0444 H   0  0  0  0  0  0  0  0  0  0  0  0
   -1.7823    1.6402   -0.9123 H   0  0  0  0  0  0  0  0  0  0  0  0
   -0.9491   -0.4136   -1.3344 H   0  0  0  0  0  0  0  0  0  0  0  0
    0.3863   -0.2055    1.3831 H   0  0  0  0  0  0  0  0  0  0  0  0
   -4.0230   -1.4223    0.9252 H   0  0  0  0  0  0  0  0  0  0  0  0
   -4.2400    0.8831    1.7321 H   0  0  0  0  0  0  0  0  0  0  0  0
   -2.5230    2.5661    1.0735 H   0  0  0  0  0  0  0  0  0  0  0  0
   -2.5291    1.1728    3.0581 H   0  0  0  0  0  0  0  0  0  0  0  0
   -3.6092    0.7480   -1.2778 H   0  0  0  0  0  0  0  0  0  0  0  0
   -5.9170    0.4157   -1.2915 H   0  0  0  0  0  0  0  0  0  0  0  0
   -5.3499    2.4778    0.1315 H   0  0  0  0  0  0  0  0  0  0  0  0
    1.1857   -0.5509   -1.5354 H   0  0  0  0  0  0  0  0  0  0  0  0
    1.8414    2.0528   -0.6294 H   0  0  0  0  0  0  0  0  0  0  0  0
   -0.2252    2.9600    0.0444 H   0  0  0  0  0  0  0  0  0  0  0  0
   -1.7823    1.6402   -0.9123 H   0  0  0  0  0  0  0  0  0  0  0  0
   -0.9491   -0.4136   -1.3344 H   0  0  0  0  0  0  0  0  0  0  0  0
    0.3863   -0.2055    1.3831 H   0  0  0  0  0  0  0  0  0  0  0  0
   -4.0230   -1.4223    0.9252 H   0  0  0  0  0  0  0  0  0  0  0  0
   -4.2400    0.8831    1.7321 H   0  0  0  0  0  0  0  0  0  0  0  0
   -2.5230    2.5661    1.0735 H   0  0  0  0  0  0  0  0  0  0  0  0
   -2.5291    1.1728    3.0581 H   0  0  0  0  0  0  0  0  0  0  0  0
   -3.6092    0.7480   -1.2778 H   0  0  0  0  0  0  0  0  0  0  0  0
   -5.9170    0.4157   -1.2915 H   0  0  0  0  0  0  0  0  0  0  0  0
   -5.3499    2.4778    0.1315 H   0  0  0  0  0  0  0  0  0  0  0  0
  1  2  1  0
  2  3  1  0
  3  4  1  0
  4  5  1  0
  5  6  1  0
  2  7  1  0
  6  7  1  0
  4  8  1  0
  8  9  1  0
  9 10  1  0
 10 11  1  0
 11 12  1  0
  8 13  1  0
 12 13  1  0
 13 14  1  0
 14 15  1  0
 12 16  1  0
 16 17  1  0
 17 18  1  0
 11 19  1  0
 18 19  1  0
 19 20  1  0
 18 21  1  0
 21 22  1  0
 21 23  1  0
 16 24  1  0
 24 25  1  0
 24 26  1  0
 25 26  1  0
  9 27  1  0
  1 28  1  0
  1 29  1  0
  1 30  1  0
  2 31  1  1
  3 32  1  0
  3 33  1  0
  5 34  1  0
  5 35  1  0
  6 36  1  0
  6 37  1  0
  7 38  1  0
 10 39  1  0
 15 40  1  0
 15 41  1  0
 15 42  1  0
 17 43  1  0
 24 44  1  0
 25 45  1  0
 25 46  1  0
 26 47  1  0
 26 48  1  0
 49 50  1  0
 50 51  1  0
 51 52  1  0
 52 53  1  0
 53 54  1  0
 50 55  1  0
 54 55  1  0
 52 56  1  0
 56 57  1  0
 57 58  1  0
 58 59  1  0
 59 60  1  0
 56 61  1  0
 60 61  1  0
 61 62  1  0
 62 63  1  0
 60 64  1  0
 64 65  1  0
 65 66  1  0
 59 67  1  0
 66 67  1  0
 67 68  1  0
 66 69  1  0
 69 70  1  0
 69 71  1  0
 64 72  1  0
 72 73  1  0
 72 74  1  0
 73 74  1  0
 57 75  1  0
 49 76  1  0
 49 77  1  0
 49 78  1  0
 50 79  1  1
 51 80  1  0
 51 81  1  0
 53 82  1  0
 53 83  1  0
 54 84  1  0
 54 85  1  0
 55 86  1  0
 58 87  1  0
 63 88  1  0
 63 89  1  0
 63 90  1  0
 65 91  1  0
 72 92  1  0
 73 93  1  0
 73 94  1  0
 74 95  1  0
 74 96  1  0
  8 97  1  0
  9 98  1  0
 10 99  1  0
 11100  1  0
 12101  1  0
 13102  1  0
 17103  1  0
 18104  1  0
 19105  1  0
 20106  1  0
 21107  1  0
 22108  1  0
 23109  1  0
 56110  1  0
 57111  1  0
 58112  1  0
 59113  1  0
 60114  1  0
 61115  1  0
 65116  1  0
 66117  1  0
 67118  1  0
 68119  1  0
 69120  1  0
 70121  1  0
 71122  1  0
M  END
>  <PDBID>  (1) 
5BTF

>  <PDB ID>  (1) 
5BTF

>  <Generic Name>  (1) 
Gatifloxacin

>  <Brand Name>  (1) 
Apo-gatifloxacin#Gatifloxacin#Tequin#Tequin IV#Zymar#Zymaxid

>  <DrugBank ID>  (1) 
DB01044

>  <ATC Codes>  (1) 
S01AE06#J01MA16

>  <Ligand ID>  (1) 
GFN

>  <Target Name>  (1) 
DNA gyrase subunit A

>  <UniProt ID>  (1) 
P72524

>  <PDB ID.1>  (1) 
5BTF

>  <Seq. Identity>  (1) 
53%

$$$$
