PDB_DB09078_06
     RDKit          3D

 69 72  0  0  0  0  0  0  0  0999 V2000
   -5.9229   -2.3484   -1.5328 C   0  0  0  0  0  0  0  0  0  0  0  0
   -5.3578   -1.4420   -0.6611 O   0  0  0  0  0  0  0  0  0  0  0  0
   -4.0394   -1.2398   -0.9496 C   0  0  0  0  0  0  0  0  0  0  0  0
   -3.2360   -1.8254    0.2246 C   0  0  0  0  0  0  0  0  0  0  0  0
   -3.4830   -0.9026    1.3905 C   0  0  0  0  0  0  0  0  0  0  0  0
   -3.3140   -1.5341    2.6840 N   0  0  0  0  0  0  0  0  0  0  0  0
   -2.8302   -0.5741    3.6628 C   0  0  0  0  0  0  0  0  0  0  0  0
   -1.4005   -0.3011    3.2845 C   0  0  0  0  0  0  0  0  0  0  0  0
   -1.3909    0.4159    1.9656 C   0  0  2  0  0  0  0  0  0  0  0  0
   -2.6891    0.3587    1.2485 C   0  0  0  0  0  0  0  0  0  0  0  0
   -2.4646    0.5903   -0.2139 C   0  0  0  0  0  0  0  0  0  0  0  0
   -3.6117    0.1715   -1.1028 C   0  0  2  0  0  0  0  0  0  0  0  0
   -4.6890    1.2056   -1.0082 C   0  0  2  0  0  0  0  0  0  0  0  0
   -5.6778    1.0515   -1.9751 O   0  0  0  0  0  0  0  0  0  0  0  0
   -4.1397    2.5395   -1.1662 N   0  0  0  0  0  0  0  0  0  0  0  0
   -0.3139    0.0317    1.1761 O   0  0  0  0  0  0  0  0  0  0  0  0
    0.6676    0.9920    1.0105 C   0  0  1  0  0  0  0  0  0  0  0  0
    1.9630    0.6155    1.6948 C   0  0  0  0  0  0  0  0  0  0  0  0
    3.0318    0.1833    0.7129 C   0  0  1  0  0  0  0  0  0  0  0  0
    3.3284    1.2203   -0.3159 C   0  0  2  0  0  0  0  0  0  0  0  0
    2.1790    2.2238   -0.4269 C   0  0  0  0  0  0  0  0  0  0  0  0
    0.9060    1.4054   -0.4188 C   0  0  0  0  0  0  0  0  0  0  0  0
    3.4891    0.6010   -1.5989 N   0  0  0  0  0  0  0  0  0  0  0  0
    4.5943   -0.3009   -1.7289 C   0  0  0  0  0  0  0  0  0  0  0  0
    4.5663   -1.3913   -0.8796 O   0  0  0  0  0  0  0  0  0  0  0  0
    5.8705    0.3951   -1.7416 N   0  0  0  0  0  0  0  0  0  0  0  0
    6.9167   -0.5916   -1.9028 C   0  0  0  0  0  0  0  0  0  0  0  0
    7.0998   -1.5920   -0.8525 C   0  0  0  0  0  0  0  0  0  0  0  0
    8.1285   -0.5326   -1.0545 C   0  0  0  0  0  0  0  0  0  0  0  0
    4.5136   -0.0993    1.6540 Cl  0  0  0  0  0  0  0  0  0  0  0  0
   -5.4544   -3.3474   -1.5273 H   0  0  0  0  0  0  0  0  0  0  0  0
   -6.9999   -2.5171   -1.2405 H   0  0  0  0  0  0  0  0  0  0  0  0
   -5.9123   -1.9900   -2.5889 H   0  0  0  0  0  0  0  0  0  0  0  0
   -3.7663   -1.8816   -1.8300 H   0  0  0  0  0  0  0  0  0  0  0  0
   -3.6869   -2.8341    0.4245 H   0  0  0  0  0  0  0  0  0  0  0  0
   -2.2029   -1.8862   -0.1123 H   0  0  0  0  0  0  0  0  0  0  0  0
   -4.5586   -0.6291    1.3406 H   0  0  0  0  0  0  0  0  0  0  0  0
   -4.1535   -2.0230    3.0229 H   0  0  0  0  0  0  0  0  0  0  0  0
   -2.9065   -1.0530    4.6673 H   0  0  0  0  0  0  0  0  0  0  0  0
   -3.4089    0.3786    3.6032 H   0  0  0  0  0  0  0  0  0  0  0  0
   -0.9659    0.2795    4.1206 H   0  0  0  0  0  0  0  0  0  0  0  0
   -0.8348   -1.2539    3.2629 H   0  0  0  0  0  0  0  0  0  0  0  0
   -1.1568    1.4917    2.2462 H   0  0  0  0  0  0  0  0  0  0  0  0
   -3.3411    1.2267    1.5839 H   0  0  0  0  0  0  0  0  0  0  0  0
   -2.2640    1.6410   -0.4095 H   0  0  0  0  0  0  0  0  0  0  0  0
   -1.5852   -0.0023   -0.5655 H   0  0  0  0  0  0  0  0  0  0  0  0
   -3.1972    0.2691   -2.1557 H   0  0  0  0  0  0  0  0  0  0  0  0
   -5.2104    1.2005   -0.0302 H   0  0  0  0  0  0  0  0  0  0  0  0
   -6.4905    1.5552   -1.6970 H   0  0  0  0  0  0  0  0  0  0  0  0
   -4.8350    3.1358   -1.6673 H   0  0  0  0  0  0  0  0  0  0  0  0
   -4.0117    3.0032   -0.2282 H   0  0  0  0  0  0  0  0  0  0  0  0
    0.3169    1.8938    1.5569 H   0  0  0  0  0  0  0  0  0  0  0  0
    2.3962    1.4312    2.3063 H   0  0  0  0  0  0  0  0  0  0  0  0
    1.7896   -0.2383    2.3810 H   0  0  0  0  0  0  0  0  0  0  0  0
    2.7060   -0.8033    0.3094 H   0  0  0  0  0  0  0  0  0  0  0  0
    4.2522    1.8064   -0.0662 H   0  0  0  0  0  0  0  0  0  0  0  0
    2.2595    2.8842    0.4661 H   0  0  0  0  0  0  0  0  0  0  0  0
    2.2538    2.7991   -1.3693 H   0  0  0  0  0  0  0  0  0  0  0  0
    1.1182    0.4737   -0.9833 H   0  0  0  0  0  0  0  0  0  0  0  0
    0.0532    1.9674   -0.8401 H   0  0  0  0  0  0  0  0  0  0  0  0
    3.5504    1.2728   -2.4001 H   0  0  0  0  0  0  0  0  0  0  0  0
    4.5024   -0.7149   -2.7821 H   0  0  0  0  0  0  0  0  0  0  0  0
    4.7818   -2.1997   -1.4013 H   0  0  0  0  0  0  0  0  0  0  0  0
    5.8935    0.9902   -2.6077 H   0  0  0  0  0  0  0  0  0  0  0  0
    7.1017   -0.9234   -2.9585 H   0  0  0  0  0  0  0  0  0  0  0  0
    6.6281   -1.5766    0.1398 H   0  0  0  0  0  0  0  0  0  0  0  0
    7.3323   -2.6322   -1.1845 H   0  0  0  0  0  0  0  0  0  0  0  0
    9.1097   -0.8046   -1.5096 H   0  0  0  0  0  0  0  0  0  0  0  0
    8.2029    0.2848   -0.3209 H   0  0  0  0  0  0  0  0  0  0  0  0
  1  2  1  0
  2  3  1  0
  3  4  1  0
  4  5  1  0
  5  6  1  0
  6  7  1  0
  7  8  1  0
  8  9  1  0
  5 10  1  0
  9 10  1  0
 10 11  1  0
  3 12  1  0
 11 12  1  0
 12 13  1  0
 13 14  1  0
 13 15  1  0
  9 16  1  0
 16 17  1  0
 17 18  1  0
 18 19  1  0
 19 20  1  0
 20 21  1  0
 17 22  1  0
 21 22  1  0
 20 23  1  0
 23 24  1  0
 24 25  1  0
 24 26  1  0
 26 27  1  0
 27 28  1  0
 27 29  1  0
 28 29  1  0
 19 30  1  0
  1 31  1  0
  1 32  1  0
  1 33  1  0
  3 34  1  0
  4 35  1  0
  4 36  1  0
  5 37  1  0
  6 38  1  0
  7 39  1  0
  7 40  1  0
  8 41  1  0
  8 42  1  0
  9 43  1  1
 10 44  1  0
 11 45  1  0
 11 46  1  0
 12 47  1  6
 13 48  1  1
 14 49  1  0
 15 50  1  0
 15 51  1  0
 17 52  1  1
 18 53  1  0
 18 54  1  0
 19 55  1  6
 20 56  1  1
 21 57  1  0
 21 58  1  0
 22 59  1  0
 22 60  1  0
 23 61  1  0
 24 62  1  0
 25 63  1  0
 26 64  1  0
 27 65  1  0
 28 66  1  0
 28 67  1  0
 29 68  1  0
 29 69  1  0
M  END
>  <PDBID>  (1) 
3WZD

>  <PDB ID>  (1) 
3WZD

>  <Generic Name>  (1) 
Lenvatinib

>  <Brand Name>  (1) 
Lenvima

>  <DrugBank ID>  (1) 
DB09078

>  <ATC Codes>  (1) 
L01XE29

>  <Ligand ID>  (1) 
LEV

>  <Target Name>  (1) 
Vascular endothelial growth factor receptor 3

>  <UniProt ID>  (1) 
P35916

>  <PDB ID.1>  (1) 
3WZD

>  <Seq. Identity>  (1) 
67%

$$$$
