PDB_DB00299_01
     RDKit          3D

 82 84  0  0  0  0  0  0  0  0999 V2000
   -2.8319   -0.7881   -1.4264 C   0  0  0  0  0  0  0  0  0  0  0  0
   -1.0636    0.5468   -0.4532 C   0  0  0  0  0  0  0  0  0  0  0  0
   -2.0734    1.4425    0.2094 C   0  0  0  0  0  0  0  0  0  0  0  0
    4.1000   -1.0451   -0.9852 C   0  0  0  0  0  0  0  0  0  0  0  0
    5.4150   -1.0839   -0.4933 O   0  0  0  0  0  0  0  0  0  0  0  0
    3.5737    0.7938    0.6111 C   0  0  0  0  0  0  0  0  0  0  0  0
    3.5008    1.7631   -0.3734 O   0  0  0  0  0  0  0  0  0  0  0  0
    3.1817   -0.5750    0.1378 C   0  0  0  0  0  0  0  0  0  0  0  0
    1.7323   -0.7028   -0.2670 C   0  0  0  0  0  0  0  0  0  0  0  0
    0.8338   -0.2455    0.8311 C   0  0  0  0  0  0  0  0  0  0  0  0
   -0.5671   -0.3480    0.5384 N   0  0  0  0  0  0  0  0  0  0  0  0
   -1.5664   -0.1655   -1.5861 N   0  0  0  0  0  0  0  0  0  0  0  0
   -2.7340   -2.1856   -1.0237 N   0  0  0  0  0  0  0  0  0  0  0  0
   -3.7139   -0.1241   -0.4963 N   0  0  0  0  0  0  0  0  0  0  0  0
   -3.4420    1.3205   -0.4639 C   0  0  0  0  0  0  0  0  0  0  0  0
   -4.3497    1.8474    0.4480 O   0  0  0  0  0  0  0  0  0  0  0  0
   -2.2683    0.8744    1.5246 N   0  0  0  0  0  0  0  0  0  0  0  0
   -1.3071   -0.1420    1.7477 C   0  0  0  0  0  0  0  0  0  0  0  0
   -2.8319   -0.7881   -1.4264 C   0  0  0  0  0  0  0  0  0  0  0  0
   -1.0636    0.5468   -0.4532 C   0  0  0  0  0  0  0  0  0  0  0  0
   -2.0734    1.4425    0.2094 C   0  0  0  0  0  0  0  0  0  0  0  0
    4.1000   -1.0451   -0.9852 C   0  0  0  0  0  0  0  0  0  0  0  0
    5.4150   -1.0839   -0.4933 O   0  0  0  0  0  0  0  0  0  0  0  0
    3.5737    0.7938    0.6111 C   0  0  0  0  0  0  0  0  0  0  0  0
    3.5008    1.7631   -0.3734 O   0  0  0  0  0  0  0  0  0  0  0  0
    3.1817   -0.5750    0.1378 C   0  0  0  0  0  0  0  0  0  0  0  0
    1.7323   -0.7028   -0.2670 C   0  0  0  0  0  0  0  0  0  0  0  0
    0.8338   -0.2455    0.8311 C   0  0  0  0  0  0  0  0  0  0  0  0
   -0.5671   -0.3480    0.5384 N   0  0  0  0  0  0  0  0  0  0  0  0
   -1.5664   -0.1655   -1.5861 N   0  0  0  0  0  0  0  0  0  0  0  0
   -2.7340   -2.1856   -1.0237 N   0  0  0  0  0  0  0  0  0  0  0  0
   -3.7139   -0.1241   -0.4963 N   0  0  0  0  0  0  0  0  0  0  0  0
   -3.4420    1.3205   -0.4639 C   0  0  0  0  0  0  0  0  0  0  0  0
   -4.3497    1.8474    0.4480 O   0  0  0  0  0  0  0  0  0  0  0  0
   -2.2683    0.8744    1.5246 N   0  0  0  0  0  0  0  0  0  0  0  0
   -1.3071   -0.1420    1.7477 C   0  0  0  0  0  0  0  0  0  0  0  0
   -3.3494   -0.7924   -2.4088 H   0  0  0  0  0  0  0  0  0  0  0  0
   -0.2101    1.1817   -0.7941 H   0  0  0  0  0  0  0  0  0  0  0  0
   -1.7629    2.4898    0.2223 H   0  0  0  0  0  0  0  0  0  0  0  0
    4.0875   -0.3672   -1.8456 H   0  0  0  0  0  0  0  0  0  0  0  0
    3.8033   -2.0468   -1.3405 H   0  0  0  0  0  0  0  0  0  0  0  0
    5.5871   -1.9353   -0.0107 H   0  0  0  0  0  0  0  0  0  0  0  0
    2.9598    1.0670    1.4718 H   0  0  0  0  0  0  0  0  0  0  0  0
    4.6335    0.6845    0.9874 H   0  0  0  0  0  0  0  0  0  0  0  0
    3.3261    1.4184   -1.2682 H   0  0  0  0  0  0  0  0  0  0  0  0
    3.4049   -1.2712    1.0010 H   0  0  0  0  0  0  0  0  0  0  0  0
    1.4960   -1.7251   -0.6188 H   0  0  0  0  0  0  0  0  0  0  0  0
    1.5857   -0.0132   -1.1388 H   0  0  0  0  0  0  0  0  0  0  0  0
    1.0311    0.8251    1.1017 H   0  0  0  0  0  0  0  0  0  0  0  0
    1.0502   -0.8255    1.7400 H   0  0  0  0  0  0  0  0  0  0  0  0
   -1.4006    0.3062   -2.4990 H   0  0  0  0  0  0  0  0  0  0  0  0
   -1.8645   -2.6213   -1.4035 H   0  0  0  0  0  0  0  0  0  0  0  0
   -2.8885   -2.3206   -0.0209 H   0  0  0  0  0  0  0  0  0  0  0  0
   -4.6938   -0.2889   -0.7710 H   0  0  0  0  0  0  0  0  0  0  0  0
   -3.4743    1.7564   -1.4584 H   0  0  0  0  0  0  0  0  0  0  0  0
   -4.7718    2.6777    0.1803 H   0  0  0  0  0  0  0  0  0  0  0  0
   -2.4630    1.5396    2.2739 H   0  0  0  0  0  0  0  0  0  0  0  0
   -0.6604    0.1460    2.6119 H   0  0  0  0  0  0  0  0  0  0  0  0
   -1.8460   -1.0679    2.0552 H   0  0  0  0  0  0  0  0  0  0  0  0
   -3.3494   -0.7924   -2.4088 H   0  0  0  0  0  0  0  0  0  0  0  0
   -0.2101    1.1817   -0.7941 H   0  0  0  0  0  0  0  0  0  0  0  0
   -1.7629    2.4898    0.2223 H   0  0  0  0  0  0  0  0  0  0  0  0
    4.0875   -0.3672   -1.8456 H   0  0  0  0  0  0  0  0  0  0  0  0
    3.8033   -2.0468   -1.3405 H   0  0  0  0  0  0  0  0  0  0  0  0
    5.5871   -1.9353   -0.0107 H   0  0  0  0  0  0  0  0  0  0  0  0
    2.9598    1.0670    1.4718 H   0  0  0  0  0  0  0  0  0  0  0  0
    4.6335    0.6845    0.9874 H   0  0  0  0  0  0  0  0  0  0  0  0
    3.3261    1.4184   -1.2682 H   0  0  0  0  0  0  0  0  0  0  0  0
    3.4049   -1.2712    1.0010 H   0  0  0  0  0  0  0  0  0  0  0  0
    1.4960   -1.7251   -0.6188 H   0  0  0  0  0  0  0  0  0  0  0  0
    1.5857   -0.0132   -1.1388 H   0  0  0  0  0  0  0  0  0  0  0  0
    1.0311    0.8251    1.1017 H   0  0  0  0  0  0  0  0  0  0  0  0
    1.0502   -0.8255    1.7400 H   0  0  0  0  0  0  0  0  0  0  0  0
   -1.4006    0.3062   -2.4990 H   0  0  0  0  0  0  0  0  0  0  0  0
   -1.8645   -2.6213   -1.4035 H   0  0  0  0  0  0  0  0  0  0  0  0
   -2.8885   -2.3206   -0.0209 H   0  0  0  0  0  0  0  0  0  0  0  0
   -4.6938   -0.2889   -0.7710 H   0  0  0  0  0  0  0  0  0  0  0  0
   -3.4743    1.7564   -1.4584 H   0  0  0  0  0  0  0  0  0  0  0  0
   -4.7718    2.6777    0.1803 H   0  0  0  0  0  0  0  0  0  0  0  0
   -2.4630    1.5396    2.2739 H   0  0  0  0  0  0  0  0  0  0  0  0
   -0.6604    0.1460    2.6119 H   0  0  0  0  0  0  0  0  0  0  0  0
   -1.8460   -1.0679    2.0552 H   0  0  0  0  0  0  0  0  0  0  0  0
  2  3  1  0
  4  5  1  0
  6  7  1  0
  4  8  1  0
  6  8  1  0
  8  9  1  0
  9 10  1  0
  2 11  1  0
 10 11  1  0
  1 12  1  0
  2 12  1  0
  1 13  1  0
  1 14  1  0
  3 15  1  0
 14 15  1  0
 15 16  1  0
  3 17  1  0
 11 18  1  0
 17 18  1  0
 20 21  1  0
 22 23  1  0
 24 25  1  0
 22 26  1  0
 24 26  1  0
 26 27  1  0
 27 28  1  0
 20 29  1  0
 28 29  1  0
 19 30  1  0
 20 30  1  0
 19 31  1  0
 19 32  1  0
 21 33  1  0
 32 33  1  0
 33 34  1  0
 21 35  1  0
 29 36  1  0
 35 36  1  0
  1 37  1  0
  2 38  1  0
  3 39  1  0
  4 40  1  0
  4 41  1  0
  5 42  1  0
  6 43  1  0
  6 44  1  0
  7 45  1  0
  8 46  1  0
  9 47  1  0
  9 48  1  0
 10 49  1  0
 10 50  1  0
 12 51  1  0
 13 52  1  0
 13 53  1  0
 14 54  1  0
 15 55  1  0
 16 56  1  0
 17 57  1  0
 18 58  1  0
 18 59  1  0
 19 60  1  0
 20 61  1  0
 21 62  1  0
 22 63  1  0
 22 64  1  0
 23 65  1  0
 24 66  1  0
 24 67  1  0
 25 68  1  0
 26 69  1  0
 27 70  1  0
 27 71  1  0
 28 72  1  0
 28 73  1  0
 30 74  1  0
 31 75  1  0
 31 76  1  0
 32 77  1  0
 33 78  1  0
 34 79  1  0
 35 80  1  0
 36 81  1  0
 36 82  1  0
M  END
>  <PDBID>  (1) 
1KI3

>  <PDB ID>  (1) 
1KI3

>  <Generic Name>  (1) 
Penciclovir

>  <Brand Name>  (1) 
Denavir#Penciclovir

>  <DrugBank ID>  (1) 
DB00299

>  <ATC Codes>  (1) 
D06BB06#J05AB13

>  <Ligand ID>  (1) 
PE2

>  <Target Name>  (1) 
Thymidine kinase

>  <UniProt ID>  (1) 
P06478

>  <PDB ID.1>  (1) 
1KI3

>  <Seq. Identity>  (1) 
98%

$$$$
