PDB_DB11363_01
     RDKit          3D

 90 95  0  0  0  0  0  0  0  0999 V2000
   -5.7271   -0.6758    1.3294 C   0  0  0  0  0  0  0  0  0  0  0  0
   -7.0763    1.3813    0.8709 C   0  0  0  0  0  0  0  0  0  0  0  0
   -7.1206   -0.1493    0.9774 C   0  0  0  0  0  0  0  0  0  0  0  0
   -3.4219   -0.3752    0.3573 C   0  0  0  0  0  0  0  0  0  0  0  0
   -2.9745    0.2333   -0.9608 C   0  0  0  0  0  0  0  0  0  0  0  0
    1.4971   -1.0911    0.3393 C   0  0  0  0  0  0  0  0  0  0  0  0
   -0.3837   -2.5904    0.4110 C   0  0  0  0  0  0  0  0  0  0  0  0
   -1.3045   -1.5178   -0.0653 C   0  0  0  0  0  0  0  0  0  0  0  0
   -1.5609    0.7221   -0.9171 C   0  0  0  0  0  0  0  0  0  0  0  0
   -0.9824    0.5451   -2.3013 C   0  0  0  0  0  0  0  0  0  0  0  0
   -1.5862    2.1781   -0.5216 C   0  0  0  0  0  0  0  0  0  0  0  0
    2.2024   -3.8879    1.2351 C   0  0  0  0  0  0  0  0  0  0  0  0
    5.3705    0.1752   -0.8961 C   0  0  0  0  0  0  0  0  0  0  0  0
    5.1875   -0.6613    0.3268 C   0  0  0  0  0  0  0  0  0  0  0  0
   -8.0186    3.3128   -0.1750 N   0  0  0  0  0  0  0  0  0  0  0  0
   -8.1059    1.8711   -0.1172 C   0  0  0  0  0  0  0  0  0  0  0  0
   -5.7079    1.7336    0.3781 C   0  0  0  0  0  0  0  0  0  0  0  0
   -5.2160    0.7285   -0.6709 C   0  0  0  0  0  0  0  0  0  0  0  0
   -4.9044   -0.5576    0.0779 C   0  0  0  0  0  0  0  0  0  0  0  0
   -3.9642    1.2407   -1.1728 N   0  0  0  0  0  0  0  0  0  0  0  0
   -0.8337   -0.1253    0.1268 C   0  0  0  0  0  0  0  0  0  0  0  0
   -2.6995   -1.6594    0.5663 C   0  0  0  0  0  0  0  0  0  0  0  0
   -3.3697   -2.7691    0.1139 O   0  0  0  0  0  0  0  0  0  0  0  0
    0.6139    0.1127    0.1769 C   0  0  0  0  0  0  0  0  0  0  0  0
    0.9464   -2.3331   -0.3142 C   0  0  0  0  0  0  0  0  0  0  0  0
    1.8876   -3.4733   -0.1524 C   0  0  0  0  0  0  0  0  0  0  0  0
    2.8334   -0.9141   -0.0470 N   0  0  0  0  0  0  0  0  0  0  0  0
    3.1288   -0.5928   -1.3812 C   0  0  0  0  0  0  0  0  0  0  0  0
    4.0094    0.6702   -1.3485 C   0  0  0  0  0  0  0  0  0  0  0  0
    3.7926   -0.5669    0.9291 C   0  0  0  0  0  0  0  0  0  0  0  0
    6.3609    1.1919   -0.7773 N   0  0  0  0  0  0  0  0  0  0  0  0
    6.1225    2.1944    0.2089 C   0  0  0  0  0  0  0  0  0  0  0  0
    7.3255    2.2780    1.1252 C   0  0  0  0  0  0  0  0  0  0  0  0
    8.4306    2.5973    0.3446 O   0  0  0  0  0  0  0  0  0  0  0  0
    8.7599    1.6157   -0.5658 C   0  0  0  0  0  0  0  0  0  0  0  0
    7.6543    0.5868   -0.7334 C   0  0  0  0  0  0  0  0  0  0  0  0
   -5.8654   -1.7379    1.6169 H   0  0  0  0  0  0  0  0  0  0  0  0
   -5.2613   -0.0919    2.1436 H   0  0  0  0  0  0  0  0  0  0  0  0
   -7.2315    1.7687    1.8781 H   0  0  0  0  0  0  0  0  0  0  0  0
   -7.3648   -0.5218   -0.0199 H   0  0  0  0  0  0  0  0  0  0  0  0
   -7.8517   -0.4879    1.7145 H   0  0  0  0  0  0  0  0  0  0  0  0
   -3.3379    0.3353    1.1940 H   0  0  0  0  0  0  0  0  0  0  0  0
   -3.1279   -0.5585   -1.7302 H   0  0  0  0  0  0  0  0  0  0  0  0
    1.4944   -1.3003    1.4531 H   0  0  0  0  0  0  0  0  0  0  0  0
   -0.7962   -3.5621    0.0840 H   0  0  0  0  0  0  0  0  0  0  0  0
   -0.1837   -2.5429    1.4991 H   0  0  0  0  0  0  0  0  0  0  0  0
   -1.4745   -1.6963   -1.1608 H   0  0  0  0  0  0  0  0  0  0  0  0
   -1.7030    0.0260   -2.9996 H   0  0  0  0  0  0  0  0  0  0  0  0
   -0.0723   -0.0732   -2.3309 H   0  0  0  0  0  0  0  0  0  0  0  0
   -0.8243    1.5466   -2.7893 H   0  0  0  0  0  0  0  0  0  0  0  0
   -1.9598    2.2568    0.4995 H   0  0  0  0  0  0  0  0  0  0  0  0
   -0.6292    2.6936   -0.7131 H   0  0  0  0  0  0  0  0  0  0  0  0
   -2.3302    2.6722   -1.2064 H   0  0  0  0  0  0  0  0  0  0  0  0
    3.1852   -4.4095    1.2251 H   0  0  0  0  0  0  0  0  0  0  0  0
    1.4528   -4.6828    1.5225 H   0  0  0  0  0  0  0  0  0  0  0  0
    2.1614   -3.1027    1.9915 H   0  0  0  0  0  0  0  0  0  0  0  0
    5.7163   -0.4921   -1.7427 H   0  0  0  0  0  0  0  0  0  0  0  0
    5.9015   -0.4222    1.1490 H   0  0  0  0  0  0  0  0  0  0  0  0
    5.3398   -1.7470    0.0881 H   0  0  0  0  0  0  0  0  0  0  0  0
   -7.7616    3.7121    0.7439 H   0  0  0  0  0  0  0  0  0  0  0  0
   -7.3055    3.6211   -0.8651 H   0  0  0  0  0  0  0  0  0  0  0  0
   -7.8846    1.4892   -1.1291 H   0  0  0  0  0  0  0  0  0  0  0  0
   -9.1342    1.5336    0.1648 H   0  0  0  0  0  0  0  0  0  0  0  0
   -5.6448    2.7204   -0.1008 H   0  0  0  0  0  0  0  0  0  0  0  0
   -4.9358    1.6847    1.1950 H   0  0  0  0  0  0  0  0  0  0  0  0
   -5.9602    0.5692   -1.4597 H   0  0  0  0  0  0  0  0  0  0  0  0
   -5.0043   -1.4458   -0.5828 H   0  0  0  0  0  0  0  0  0  0  0  0
   -4.0870    1.4045   -2.1937 H   0  0  0  0  0  0  0  0  0  0  0  0
   -1.2883    0.2259    1.1043 H   0  0  0  0  0  0  0  0  0  0  0  0
   -2.4957   -1.7442    1.6731 H   0  0  0  0  0  0  0  0  0  0  0  0
   -2.7669   -3.3670   -0.3867 H   0  0  0  0  0  0  0  0  0  0  0  0
    0.8817    0.8094    1.0180 H   0  0  0  0  0  0  0  0  0  0  0  0
    0.9033    0.7100   -0.7389 H   0  0  0  0  0  0  0  0  0  0  0  0
    0.7086   -2.1111   -1.3714 H   0  0  0  0  0  0  0  0  0  0  0  0
    2.8096   -3.2646   -0.7586 H   0  0  0  0  0  0  0  0  0  0  0  0
    1.4205   -4.3457   -0.6992 H   0  0  0  0  0  0  0  0  0  0  0  0
    3.7760   -1.3725   -1.8296 H   0  0  0  0  0  0  0  0  0  0  0  0
    2.2773   -0.4651   -2.0558 H   0  0  0  0  0  0  0  0  0  0  0  0
    3.5753    1.3561   -0.5718 H   0  0  0  0  0  0  0  0  0  0  0  0
    4.0320    1.1892   -2.3048 H   0  0  0  0  0  0  0  0  0  0  0  0
    3.6146    0.3759    1.4609 H   0  0  0  0  0  0  0  0  0  0  0  0
    3.7813   -1.3659    1.7279 H   0  0  0  0  0  0  0  0  0  0  0  0
    6.0262    3.1730   -0.3068 H   0  0  0  0  0  0  0  0  0  0  0  0
    5.2164    2.0573    0.8122 H   0  0  0  0  0  0  0  0  0  0  0  0
    7.1637    3.1191    1.8243 H   0  0  0  0  0  0  0  0  0  0  0  0
    7.4527    1.3514    1.7000 H   0  0  0  0  0  0  0  0  0  0  0  0
    8.9346    2.0900   -1.5521 H   0  0  0  0  0  0  0  0  0  0  0  0
    9.6898    1.1040   -0.1946 H   0  0  0  0  0  0  0  0  0  0  0  0
    7.8239    0.0487   -1.6848 H   0  0  0  0  0  0  0  0  0  0  0  0
    7.7787   -0.1611    0.0726 H   0  0  0  0  0  0  0  0  0  0  0  0
  1  3  1  0
  2  3  1  0
  4  5  1  0
  7  8  1  0
  5  9  1  0
  9 10  1  0
  9 11  1  0
 13 14  1  0
  2 16  1  0
 15 16  1  0
  2 17  1  0
 17 18  1  0
  1 19  1  0
  4 19  1  0
 18 19  1  0
  5 20  1  0
 18 20  1  0
  8 21  1  0
  9 21  1  0
  4 22  1  0
  8 22  1  0
 22 23  1  0
  6 24  1  0
 21 24  1  0
  6 25  1  0
  7 25  1  0
 12 26  1  0
 25 26  1  0
  6 27  1  0
 27 28  1  0
 13 29  1  0
 28 29  1  0
 14 30  1  0
 27 30  1  0
 13 31  1  0
 31 32  1  0
 32 33  1  0
 33 34  1  0
 34 35  1  0
 31 36  1  0
 35 36  1  0
  1 37  1  0
  1 38  1  0
  2 39  1  0
  3 40  1  0
  3 41  1  0
  4 42  1  0
  5 43  1  0
  6 44  1  0
  7 45  1  0
  7 46  1  0
  8 47  1  0
 10 48  1  0
 10 49  1  0
 10 50  1  0
 11 51  1  0
 11 52  1  0
 11 53  1  0
 12 54  1  0
 12 55  1  0
 12 56  1  0
 13 57  1  0
 14 58  1  0
 14 59  1  0
 15 60  1  0
 15 61  1  0
 16 62  1  0
 16 63  1  0
 17 64  1  0
 17 65  1  0
 18 66  1  0
 19 67  1  0
 20 68  1  0
 21 69  1  0
 22 70  1  0
 23 71  1  0
 24 72  1  0
 24 73  1  0
 25 74  1  0
 26 75  1  0
 26 76  1  0
 28 77  1  0
 28 78  1  0
 29 79  1  0
 29 80  1  0
 30 81  1  0
 30 82  1  0
 32 83  1  0
 32 84  1  0
 33 85  1  0
 33 86  1  0
 35 87  1  0
 35 88  1  0
 36 89  1  0
 36 90  1  0
M  END
>  <PDBID>  (1) 
3AOX

>  <PDB ID>  (1) 
3AOX

>  <Generic Name>  (1) 
Alectinib

>  <Brand Name>  (1) 
Alecensa#Alecensaro

>  <DrugBank ID>  (1) 
DB11363

>  <ATC Codes>  (1) 
nan

>  <Ligand ID>  (1) 
EMH

>  <Target Name>  (1) 
ALK tyrosine kinase receptor

>  <UniProt ID>  (1) 
Q9UM73

>  <PDB ID.1>  (1) 
3AOX

>  <Seq. Identity>  (1) 
100%

$$$$
