PDB_DB08915_05
     RDKit          3D

 74 77  0  0  0  0  0  0  0  0999 V2000
    2.8337    1.9293   -0.4763 C   0  0  0  0  0  0  0  0  0  0  0  0
    3.5021    1.1959    0.6624 C   0  0  0  0  0  0  0  0  0  0  0  0
    4.7781    0.8488    0.2669 O   0  0  0  0  0  0  0  0  0  0  0  0
    4.8484   -0.5604    0.3925 C   0  0  0  0  0  0  0  0  0  0  0  0
    5.9165   -1.1354   -0.4623 C   0  0  0  0  0  0  0  0  0  0  0  0
    5.7393   -0.8764   -1.9314 C   0  0  0  0  0  0  0  0  0  0  0  0
    7.0377   -0.3501   -2.5558 C   0  0  0  0  0  0  0  0  0  0  0  0
    7.4073    0.9565   -1.9118 C   0  0  0  0  0  0  0  0  0  0  0  0
    7.5515    0.7720   -0.4436 C   0  0  0  0  0  0  0  0  0  0  0  0
    7.2462   -0.6186    0.0509 C   0  0  0  0  0  0  0  0  0  0  0  0
    3.4994   -1.0170    0.0855 N   0  0  0  0  0  0  0  0  0  0  0  0
    2.7634   -0.1096    0.9724 C   0  0  0  0  0  0  0  0  0  0  0  0
    1.3210   -0.0221    0.5643 C   0  0  0  0  0  0  0  0  0  0  0  0
    0.5925   -1.2949    0.8646 C   0  0  0  0  0  0  0  0  0  0  0  0
   -0.7580   -1.2284    0.4955 O   0  0  0  0  0  0  0  0  0  0  0  0
   -1.4530   -0.2414    1.1842 C   0  0  0  0  0  0  0  0  0  0  0  0
   -1.9498    0.7691    0.2053 C   0  0  0  0  0  0  0  0  0  0  0  0
   -3.2721    0.3819   -0.4708 C   0  0  0  0  0  0  0  0  0  0  0  0
   -2.5564   -0.8180    1.9863 C   0  0  0  0  0  0  0  0  0  0  0  0
   -2.2682   -0.8797    3.4672 C   0  0  0  0  0  0  0  0  0  0  0  0
   -3.5137   -1.5585    4.0576 C   0  0  0  0  0  0  0  0  0  0  0  0
   -3.7579    0.1492    1.8980 C   0  0  0  0  0  0  0  0  0  0  0  0
   -4.8182   -0.6157    3.1618 S   0  0  0  0  0  0  0  0  0  0  0  0
   -4.3161   -0.0185    0.4946 C   0  0  0  0  0  0  0  0  0  0  0  0
   -5.6348    0.6510    0.3967 C   0  0  0  0  0  0  0  0  0  0  0  0
   -6.3986    0.4331   -0.8303 C   0  0  2  0  0  0  0  0  0  0  0  0
   -6.6872   -0.9157   -1.0324 O   0  0  0  0  0  0  0  0  0  0  0  0
   -8.0432   -1.2100   -0.8699 C   0  0  0  0  0  0  0  0  0  0  0  0
   -5.9397    1.1201   -2.0696 C   0  0  0  0  0  0  0  0  0  0  0  0
   -7.0859    1.1467   -2.9598 O   0  0  0  0  0  0  0  0  0  0  0  0
   -5.0215    0.3277   -2.8029 O   0  0  0  0  0  0  0  0  0  0  0  0
    2.7873    1.3723   -1.4108 H   0  0  0  0  0  0  0  0  0  0  0  0
    3.4184    2.8542   -0.6579 H   0  0  0  0  0  0  0  0  0  0  0  0
    1.8018    2.2495   -0.2074 H   0  0  0  0  0  0  0  0  0  0  0  0
    3.4763    1.8917    1.5300 H   0  0  0  0  0  0  0  0  0  0  0  0
    5.0085   -0.7515    1.4709 H   0  0  0  0  0  0  0  0  0  0  0  0
    5.9320   -2.2360   -0.3119 H   0  0  0  0  0  0  0  0  0  0  0  0
    5.4990   -1.7999   -2.4995 H   0  0  0  0  0  0  0  0  0  0  0  0
    4.9507   -0.1503   -2.1614 H   0  0  0  0  0  0  0  0  0  0  0  0
    7.8356   -1.0903   -2.3595 H   0  0  0  0  0  0  0  0  0  0  0  0
    6.8430   -0.2516   -3.6535 H   0  0  0  0  0  0  0  0  0  0  0  0
    8.3423    1.3446   -2.3537 H   0  0  0  0  0  0  0  0  0  0  0  0
    6.5894    1.7075   -2.1001 H   0  0  0  0  0  0  0  0  0  0  0  0
    6.9846    1.5602    0.1072 H   0  0  0  0  0  0  0  0  0  0  0  0
    8.6283    0.9709   -0.1689 H   0  0  0  0  0  0  0  0  0  0  0  0
    8.0876   -1.2960   -0.2105 H   0  0  0  0  0  0  0  0  0  0  0  0
    7.1694   -0.5696    1.1552 H   0  0  0  0  0  0  0  0  0  0  0  0
    3.2091   -0.7145   -0.8867 H   0  0  0  0  0  0  0  0  0  0  0  0
    2.9205   -0.3513    2.0236 H   0  0  0  0  0  0  0  0  0  0  0  0
    0.9072    0.8819    1.0114 H   0  0  0  0  0  0  0  0  0  0  0  0
    1.3200    0.1458   -0.5418 H   0  0  0  0  0  0  0  0  0  0  0  0
    0.6880   -1.5959    1.9379 H   0  0  0  0  0  0  0  0  0  0  0  0
    1.0309   -2.1224    0.2708 H   0  0  0  0  0  0  0  0  0  0  0  0
   -0.7548    0.2675    1.9233 H   0  0  0  0  0  0  0  0  0  0  0  0
   -2.1667    1.7351    0.7438 H   0  0  0  0  0  0  0  0  0  0  0  0
   -1.2404    0.9698   -0.6363 H   0  0  0  0  0  0  0  0  0  0  0  0
   -3.0250   -0.3840   -1.2193 H   0  0  0  0  0  0  0  0  0  0  0  0
   -3.5924    1.3639   -0.9314 H   0  0  0  0  0  0  0  0  0  0  0  0
   -2.9339   -1.7878    1.5957 H   0  0  0  0  0  0  0  0  0  0  0  0
   -2.2642    0.1631    3.8681 H   0  0  0  0  0  0  0  0  0  0  0  0
   -1.3523   -1.4254    3.6938 H   0  0  0  0  0  0  0  0  0  0  0  0
   -3.5734   -1.3691    5.1330 H   0  0  0  0  0  0  0  0  0  0  0  0
   -3.5407   -2.6215    3.7965 H   0  0  0  0  0  0  0  0  0  0  0  0
   -3.4919    1.1685    2.1618 H   0  0  0  0  0  0  0  0  0  0  0  0
   -4.4291   -1.1522    0.3778 H   0  0  0  0  0  0  0  0  0  0  0  0
   -5.4900    1.7705    0.6121 H   0  0  0  0  0  0  0  0  0  0  0  0
   -6.3086    0.3348    1.2697 H   0  0  0  0  0  0  0  0  0  0  0  0
   -7.4582    0.9191   -0.5732 H   0  0  0  0  0  0  0  0  0  0  0  0
   -8.1705   -2.2967   -1.0489 H   0  0  0  0  0  0  0  0  0  0  0  0
   -8.6197   -0.5998   -1.5888 H   0  0  0  0  0  0  0  0  0  0  0  0
   -8.3697   -0.9859    0.1772 H   0  0  0  0  0  0  0  0  0  0  0  0
   -5.5775    2.1235   -1.9908 H   0  0  0  0  0  0  0  0  0  0  0  0
   -7.5694    1.9907   -2.6920 H   0  0  0  0  0  0  0  0  0  0  0  0
   -5.0648    0.5559   -3.7766 H   0  0  0  0  0  0  0  0  0  0  0  0
  1  2  1  0
  2  3  1  0
  3  4  1  0
  4  5  1  0
  5  6  1  0
  6  7  1  0
  7  8  1  0
  8  9  1  0
  5 10  1  0
  9 10  1  0
  4 11  1  0
  2 12  1  0
 11 12  1  0
 12 13  1  0
 13 14  1  0
 14 15  1  0
 15 16  1  0
 16 17  1  0
 17 18  1  0
 16 19  1  0
 19 20  1  0
 20 21  1  0
 19 22  1  0
 21 23  1  0
 22 23  1  0
 18 24  1  0
 22 24  1  0
 24 25  1  0
 25 26  1  0
 26 27  1  0
 27 28  1  0
 26 29  1  0
 29 30  1  0
 29 31  1  0
  1 32  1  0
  1 33  1  0
  1 34  1  0
  2 35  1  0
  4 36  1  0
  5 37  1  0
  6 38  1  0
  6 39  1  0
  7 40  1  0
  7 41  1  0
  8 42  1  0
  8 43  1  0
  9 44  1  0
  9 45  1  0
 10 46  1  0
 10 47  1  0
 11 48  1  0
 12 49  1  0
 13 50  1  0
 13 51  1  0
 14 52  1  0
 14 53  1  0
 16 54  1  0
 17 55  1  0
 17 56  1  0
 18 57  1  0
 18 58  1  0
 19 59  1  0
 20 60  1  0
 20 61  1  0
 21 62  1  0
 21 63  1  0
 22 64  1  0
 24 65  1  0
 25 66  1  0
 25 67  1  0
 26 68  1  1
 28 69  1  0
 28 70  1  0
 28 71  1  0
 29 72  1  0
 30 73  1  0
 31 74  1  0
M  END
>  <PDBID>  (1) 
3G8I

>  <PDB ID>  (1) 
3G8I

>  <Generic Name>  (1) 
Aleglitazar

>  <Brand Name>  (1) 
nan

>  <DrugBank ID>  (1) 
DB08915

>  <ATC Codes>  (1) 
nan

>  <Ligand ID>  (1) 
RO7

>  <Target Name>  (1) 
Peroxisome proliferator-activated receptor alpha

>  <UniProt ID>  (1) 
Q07869

>  <PDB ID.1>  (1) 
3G8I

>  <Seq. Identity>  (1) 
100%

$$$$
