PDB_DB12332_04
     RDKit          3D

116122  0  0  0  0  0  0  0  0999 V2000
   -3.7978   -0.7251   -2.6782 O   0  0  0  0  0  0  0  0  0  0  0  0
   -3.8901   -1.4428   -1.4947 C   0  0  1  0  0  0  0  0  0  0  0  0
   -2.8326   -2.4329   -1.4406 N   0  0  0  0  0  0  0  0  0  0  0  0
   -2.5214   -2.8760   -0.1100 C   0  0  0  0  0  0  0  0  0  0  0  0
   -1.6817   -1.9268    0.6832 C   0  0  0  0  0  0  0  0  0  0  0  0
   -1.1828   -0.7483   -0.1344 C   0  0  0  0  0  0  0  0  0  0  0  0
   -2.2966    0.1613   -0.5615 C   0  0  0  0  0  0  0  0  0  0  0  0
   -3.6385   -0.4826   -0.3543 C   0  0  0  0  0  0  0  0  0  0  0  0
   -4.6839    0.6272   -0.2958 C   0  0  0  0  0  0  0  0  0  0  0  0
   -4.4560    1.2922    1.0650 C   0  0  0  0  0  0  0  0  0  0  0  0
   -5.3613    2.3222    1.2421 F   0  0  0  0  0  0  0  0  0  0  0  0
   -3.0410    1.7144    1.2815 C   0  0  0  0  0  0  0  0  0  0  0  0
   -2.1271    1.4644    0.1305 C   0  0  0  0  0  0  0  0  0  0  0  0
   -0.7642    1.4720    0.6182 N   0  0  0  0  0  0  0  0  0  0  0  0
   -0.3449    0.0935    0.7908 C   0  0  2  0  0  0  0  0  0  0  0  0
    1.0838   -0.0478    0.3984 C   0  0  0  0  0  0  0  0  0  0  0  0
    1.4110    0.4628   -0.9686 C   0  0  0  0  0  0  0  0  0  0  0  0
    2.7330   -0.1028   -1.4005 C   0  0  0  0  0  0  0  0  0  0  0  0
    2.0632    0.6371    1.3314 C   0  0  0  0  0  0  0  0  0  0  0  0
    3.3971   -0.0058    1.0335 C   0  0  0  0  0  0  0  0  0  0  0  0
    3.8214    0.0038   -0.3776 C   0  0  0  0  0  0  0  0  0  0  0  0
    4.7631    1.1426   -0.6981 C   0  0  0  0  0  0  0  0  0  0  0  0
    5.8271    1.2976    0.2391 N   0  0  0  0  0  0  0  0  0  0  0  0
    6.8011    0.2644    0.2786 C   0  0  0  0  0  0  0  0  0  0  0  0
   -3.7978   -0.7251   -2.6782 O   0  0  0  0  0  0  0  0  0  0  0  0
   -3.8901   -1.4428   -1.4947 C   0  0  1  0  0  0  0  0  0  0  0  0
   -2.8326   -2.4329   -1.4406 N   0  0  0  0  0  0  0  0  0  0  0  0
   -2.5214   -2.8760   -0.1100 C   0  0  0  0  0  0  0  0  0  0  0  0
   -1.6817   -1.9268    0.6832 C   0  0  0  0  0  0  0  0  0  0  0  0
   -1.1828   -0.7483   -0.1344 C   0  0  0  0  0  0  0  0  0  0  0  0
   -2.2966    0.1613   -0.5615 C   0  0  0  0  0  0  0  0  0  0  0  0
   -3.6385   -0.4826   -0.3543 C   0  0  0  0  0  0  0  0  0  0  0  0
   -4.6839    0.6272   -0.2958 C   0  0  0  0  0  0  0  0  0  0  0  0
   -4.4560    1.2922    1.0650 C   0  0  0  0  0  0  0  0  0  0  0  0
   -5.3613    2.3222    1.2421 F   0  0  0  0  0  0  0  0  0  0  0  0
   -3.0410    1.7144    1.2815 C   0  0  0  0  0  0  0  0  0  0  0  0
   -2.1271    1.4644    0.1305 C   0  0  0  0  0  0  0  0  0  0  0  0
   -0.7642    1.4720    0.6182 N   0  0  0  0  0  0  0  0  0  0  0  0
   -0.3449    0.0935    0.7908 C   0  0  2  0  0  0  0  0  0  0  0  0
    1.0838   -0.0478    0.3984 C   0  0  0  0  0  0  0  0  0  0  0  0
    1.4110    0.4628   -0.9686 C   0  0  0  0  0  0  0  0  0  0  0  0
    2.7330   -0.1028   -1.4005 C   0  0  0  0  0  0  0  0  0  0  0  0
    2.0632    0.6371    1.3314 C   0  0  0  0  0  0  0  0  0  0  0  0
    3.3971   -0.0058    1.0335 C   0  0  0  0  0  0  0  0  0  0  0  0
    3.8214    0.0038   -0.3776 C   0  0  0  0  0  0  0  0  0  0  0  0
    4.7631    1.1426   -0.6981 C   0  0  0  0  0  0  0  0  0  0  0  0
    5.8271    1.2976    0.2391 N   0  0  0  0  0  0  0  0  0  0  0  0
    6.8011    0.2644    0.2786 C   0  0  0  0  0  0  0  0  0  0  0  0
   -4.6903   -0.3697   -2.9570 H   0  0  0  0  0  0  0  0  0  0  0  0
   -4.8865   -1.9265   -1.4272 H   0  0  0  0  0  0  0  0  0  0  0  0
   -2.0272   -2.2222   -2.0361 H   0  0  0  0  0  0  0  0  0  0  0  0
   -2.0382   -3.8905   -0.2275 H   0  0  0  0  0  0  0  0  0  0  0  0
   -3.4599   -3.0539    0.4358 H   0  0  0  0  0  0  0  0  0  0  0  0
   -0.7445   -2.4911    0.9681 H   0  0  0  0  0  0  0  0  0  0  0  0
   -2.1225   -1.6235    1.6549 H   0  0  0  0  0  0  0  0  0  0  0  0
   -0.6239   -1.1968   -0.9750 H   0  0  0  0  0  0  0  0  0  0  0  0
   -2.1791    0.3328   -1.6517 H   0  0  0  0  0  0  0  0  0  0  0  0
   -3.7409   -1.0443    0.5741 H   0  0  0  0  0  0  0  0  0  0  0  0
   -5.6621    0.1145   -0.2242 H   0  0  0  0  0  0  0  0  0  0  0  0
   -4.6091    1.3305   -1.1245 H   0  0  0  0  0  0  0  0  0  0  0  0
   -4.7304    0.5163    1.8209 H   0  0  0  0  0  0  0  0  0  0  0  0
   -3.0485    2.8108    1.5008 H   0  0  0  0  0  0  0  0  0  0  0  0
   -2.6286    1.2373    2.1987 H   0  0  0  0  0  0  0  0  0  0  0  0
   -2.2131    2.3266   -0.5807 H   0  0  0  0  0  0  0  0  0  0  0  0
   -0.6756    1.9208    1.5653 H   0  0  0  0  0  0  0  0  0  0  0  0
   -0.4800   -0.2216    1.8665 H   0  0  0  0  0  0  0  0  0  0  0  0
    1.3364   -1.1501    0.4931 H   0  0  0  0  0  0  0  0  0  0  0  0
    1.4262    1.5733   -0.8980 H   0  0  0  0  0  0  0  0  0  0  0  0
    0.6278    0.1550   -1.6768 H   0  0  0  0  0  0  0  0  0  0  0  0
    3.0599    0.4621   -2.3033 H   0  0  0  0  0  0  0  0  0  0  0  0
    2.5664   -1.1487   -1.7342 H   0  0  0  0  0  0  0  0  0  0  0  0
    1.8190    0.4497    2.3824 H   0  0  0  0  0  0  0  0  0  0  0  0
    2.1134    1.7142    1.0734 H   0  0  0  0  0  0  0  0  0  0  0  0
    4.1456    0.4787    1.6797 H   0  0  0  0  0  0  0  0  0  0  0  0
    3.3214   -1.0622    1.4262 H   0  0  0  0  0  0  0  0  0  0  0  0
    4.4540   -0.9263   -0.5250 H   0  0  0  0  0  0  0  0  0  0  0  0
    4.1819    2.0919   -0.7381 H   0  0  0  0  0  0  0  0  0  0  0  0
    5.2259    0.9264   -1.7049 H   0  0  0  0  0  0  0  0  0  0  0  0
    5.6284    1.7131    1.1392 H   0  0  0  0  0  0  0  0  0  0  0  0
    7.0610   -0.1389   -0.7075 H   0  0  0  0  0  0  0  0  0  0  0  0
    6.5523   -0.5527    1.0067 H   0  0  0  0  0  0  0  0  0  0  0  0
    7.7598    0.7003    0.6854 H   0  0  0  0  0  0  0  0  0  0  0  0
   -4.6903   -0.3697   -2.9570 H   0  0  0  0  0  0  0  0  0  0  0  0
   -4.8865   -1.9265   -1.4272 H   0  0  0  0  0  0  0  0  0  0  0  0
   -2.0272   -2.2222   -2.0361 H   0  0  0  0  0  0  0  0  0  0  0  0
   -2.0382   -3.8905   -0.2275 H   0  0  0  0  0  0  0  0  0  0  0  0
   -3.4599   -3.0539    0.4358 H   0  0  0  0  0  0  0  0  0  0  0  0
   -0.7445   -2.4911    0.9681 H   0  0  0  0  0  0  0  0  0  0  0  0
   -2.1225   -1.6235    1.6549 H   0  0  0  0  0  0  0  0  0  0  0  0
   -0.6239   -1.1968   -0.9750 H   0  0  0  0  0  0  0  0  0  0  0  0
   -2.1791    0.3328   -1.6517 H   0  0  0  0  0  0  0  0  0  0  0  0
   -3.7409   -1.0443    0.5741 H   0  0  0  0  0  0  0  0  0  0  0  0
   -5.6621    0.1145   -0.2242 H   0  0  0  0  0  0  0  0  0  0  0  0
   -4.6091    1.3305   -1.1245 H   0  0  0  0  0  0  0  0  0  0  0  0
   -4.7304    0.5163    1.8209 H   0  0  0  0  0  0  0  0  0  0  0  0
   -3.0485    2.8108    1.5008 H   0  0  0  0  0  0  0  0  0  0  0  0
   -2.6286    1.2373    2.1987 H   0  0  0  0  0  0  0  0  0  0  0  0
   -2.2131    2.3266   -0.5807 H   0  0  0  0  0  0  0  0  0  0  0  0
   -0.6756    1.9208    1.5653 H   0  0  0  0  0  0  0  0  0  0  0  0
   -0.4800   -0.2216    1.8665 H   0  0  0  0  0  0  0  0  0  0  0  0
    1.3364   -1.1501    0.4931 H   0  0  0  0  0  0  0  0  0  0  0  0
    1.4262    1.5733   -0.8980 H   0  0  0  0  0  0  0  0  0  0  0  0
    0.6278    0.1550   -1.6768 H   0  0  0  0  0  0  0  0  0  0  0  0
    3.0599    0.4621   -2.3033 H   0  0  0  0  0  0  0  0  0  0  0  0
    2.5664   -1.1487   -1.7342 H   0  0  0  0  0  0  0  0  0  0  0  0
    1.8190    0.4497    2.3824 H   0  0  0  0  0  0  0  0  0  0  0  0
    2.1134    1.7142    1.0734 H   0  0  0  0  0  0  0  0  0  0  0  0
    4.1456    0.4787    1.6797 H   0  0  0  0  0  0  0  0  0  0  0  0
    3.3214   -1.0622    1.4262 H   0  0  0  0  0  0  0  0  0  0  0  0
    4.4540   -0.9263   -0.5250 H   0  0  0  0  0  0  0  0  0  0  0  0
    4.1819    2.0919   -0.7381 H   0  0  0  0  0  0  0  0  0  0  0  0
    5.2259    0.9264   -1.7049 H   0  0  0  0  0  0  0  0  0  0  0  0
    5.6284    1.7131    1.1392 H   0  0  0  0  0  0  0  0  0  0  0  0
    7.0610   -0.1389   -0.7075 H   0  0  0  0  0  0  0  0  0  0  0  0
    6.5523   -0.5527    1.0067 H   0  0  0  0  0  0  0  0  0  0  0  0
    7.7598    0.7003    0.6854 H   0  0  0  0  0  0  0  0  0  0  0  0
  1  2  1  0
  2  3  1  0
  3  4  1  0
  4  5  1  0
  5  6  1  0
  6  7  1  0
  2  8  1  0
  7  8  1  0
  8  9  1  0
  9 10  1  0
 10 11  1  0
 10 12  1  0
  7 13  1  0
 12 13  1  0
 13 14  1  0
  6 15  1  0
 14 15  1  0
 15 16  1  0
 16 17  1  0
 17 18  1  0
 16 19  1  0
 19 20  1  0
 18 21  1  0
 20 21  1  0
 21 22  1  0
 22 23  1  0
 23 24  1  0
 25 26  1  0
 26 27  1  0
 27 28  1  0
 28 29  1  0
 29 30  1  0
 30 31  1  0
 26 32  1  0
 31 32  1  0
 32 33  1  0
 33 34  1  0
 34 35  1  0
 34 36  1  0
 31 37  1  0
 36 37  1  0
 37 38  1  0
 30 39  1  0
 38 39  1  0
 39 40  1  0
 40 41  1  0
 41 42  1  0
 40 43  1  0
 43 44  1  0
 42 45  1  0
 44 45  1  0
 45 46  1  0
 46 47  1  0
 47 48  1  0
  1 49  1  0
  2 50  1  1
  3 51  1  0
  4 52  1  0
  4 53  1  0
  5 54  1  0
  5 55  1  0
  6 56  1  0
  7 57  1  0
  8 58  1  0
  9 59  1  0
  9 60  1  0
 10 61  1  0
 12 62  1  0
 12 63  1  0
 13 64  1  0
 14 65  1  0
 15 66  1  1
 16 67  1  0
 17 68  1  0
 17 69  1  0
 18 70  1  0
 18 71  1  0
 19 72  1  0
 19 73  1  0
 20 74  1  0
 20 75  1  0
 21 76  1  0
 22 77  1  0
 22 78  1  0
 23 79  1  0
 24 80  1  0
 24 81  1  0
 24 82  1  0
 25 83  1  0
 26 84  1  1
 27 85  1  0
 28 86  1  0
 28 87  1  0
 29 88  1  0
 29 89  1  0
 30 90  1  0
 31 91  1  0
 32 92  1  0
 33 93  1  0
 33 94  1  0
 34 95  1  0
 36 96  1  0
 36 97  1  0
 37 98  1  0
 38 99  1  0
 39100  1  1
 40101  1  0
 41102  1  0
 41103  1  0
 42104  1  0
 42105  1  0
 43106  1  0
 43107  1  0
 44108  1  0
 44109  1  0
 45110  1  0
 46111  1  0
 46112  1  0
 47113  1  0
 48114  1  0
 48115  1  0
 48116  1  0
M  END
>  <PDBID>  (1) 
4RV6

>  <PDB ID>  (1) 
4RV6

>  <Generic Name>  (1) 
Rucaparib

>  <Brand Name>  (1) 
Rubraca

>  <DrugBank ID>  (1) 
DB12332

>  <ATC Codes>  (1) 
nan

>  <Ligand ID>  (1) 
RPB

>  <Target Name>  (1) 
Poly [ADP-ribose] polymerase 1

>  <UniProt ID>  (1) 
P09874

>  <PDB ID.1>  (1) 
4RV6

>  <Seq. Identity>  (1) 
100%

$$$$
