PDB_DB01041_07
     RDKit          3D

172180  0  0  0  0  0  0  0  0999 V2000
    1.9792    0.7472    1.7148 O   0  0  0  0  0  0  0  0  0  0  0  0
    1.9667   -0.5019    1.0960 C   0  0  0  0  0  0  0  0  0  0  0  0
    3.2853   -1.0968    1.0819 N   0  0  0  0  0  0  0  0  0  0  0  0
    4.1832   -0.5454    0.1190 C   0  0  0  0  0  0  0  0  0  0  0  0
    4.7713    0.6562    0.4943 O   0  0  0  0  0  0  0  0  0  0  0  0
    3.6032   -0.3884   -1.2667 C   0  0  0  0  0  0  0  0  0  0  0  0
    2.2986    0.4154   -1.1416 C   0  0  0  0  0  0  0  0  0  0  0  0
    1.3784   -0.4362   -0.2961 C   0  0  2  0  0  0  0  0  0  0  0  0
    0.0395   -0.1614   -0.3657 N   0  0  0  0  0  0  0  0  0  0  0  0
   -3.8061    0.2740   -0.8497 C   0  0  0  0  0  0  0  0  0  0  0  0
   -2.9763    1.4764   -0.5339 C   0  0  0  0  0  0  0  0  0  0  0  0
   -1.7149    1.1955    0.2063 C   0  0  0  0  0  0  0  0  0  0  0  0
   -1.7166   -0.0479    1.0139 C   0  0  0  0  0  0  0  0  0  0  0  0
    0.3368    2.1954   -0.4905 O   0  0  0  0  0  0  0  0  0  0  0  0
   -0.5314   -2.1387    0.8268 O   0  0  0  0  0  0  0  0  0  0  0  0
   -3.0620   -0.5456    1.4115 C   0  0  0  0  0  0  0  0  0  0  0  0
   -4.0371   -0.6545    0.2834 C   0  0  0  0  0  0  0  0  0  0  0  0
   -0.9369   -1.0149    0.1535 C   0  0  2  0  0  0  0  0  0  0  0  0
   -0.4865    1.0869   -0.6842 C   0  0  0  0  0  0  0  0  0  0  0  0
    1.9792    0.7472    1.7148 O   0  0  0  0  0  0  0  0  0  0  0  0
    1.9667   -0.5019    1.0960 C   0  0  0  0  0  0  0  0  0  0  0  0
    3.2853   -1.0968    1.0819 N   0  0  0  0  0  0  0  0  0  0  0  0
    4.1832   -0.5454    0.1190 C   0  0  0  0  0  0  0  0  0  0  0  0
    4.7713    0.6562    0.4943 O   0  0  0  0  0  0  0  0  0  0  0  0
    3.6032   -0.3884   -1.2667 C   0  0  0  0  0  0  0  0  0  0  0  0
    2.2986    0.4154   -1.1416 C   0  0  0  0  0  0  0  0  0  0  0  0
    1.3784   -0.4362   -0.2961 C   0  0  2  0  0  0  0  0  0  0  0  0
    0.0395   -0.1614   -0.3657 N   0  0  0  0  0  0  0  0  0  0  0  0
   -3.8061    0.2740   -0.8497 C   0  0  0  0  0  0  0  0  0  0  0  0
   -2.9763    1.4764   -0.5339 C   0  0  0  0  0  0  0  0  0  0  0  0
   -1.7149    1.1955    0.2063 C   0  0  0  0  0  0  0  0  0  0  0  0
   -1.7166   -0.0479    1.0139 C   0  0  0  0  0  0  0  0  0  0  0  0
    0.3368    2.1954   -0.4905 O   0  0  0  0  0  0  0  0  0  0  0  0
   -0.5314   -2.1387    0.8268 O   0  0  0  0  0  0  0  0  0  0  0  0
   -3.0620   -0.5456    1.4115 C   0  0  0  0  0  0  0  0  0  0  0  0
   -4.0371   -0.6545    0.2834 C   0  0  0  0  0  0  0  0  0  0  0  0
   -0.9369   -1.0149    0.1535 C   0  0  2  0  0  0  0  0  0  0  0  0
   -0.4865    1.0869   -0.6842 C   0  0  0  0  0  0  0  0  0  0  0  0
    2.2182    0.9629    1.6283 O   0  0  0  0  0  0  0  0  0  0  0  0
    2.0245   -0.3137    1.1317 C   0  0  0  0  0  0  0  0  0  0  0  0
    3.3191   -0.9507    1.0638 N   0  0  0  0  0  0  0  0  0  0  0  0
    4.1909   -0.4633    0.0513 C   0  0  0  0  0  0  0  0  0  0  0  0
    4.8666    0.7047    0.4192 O   0  0  0  0  0  0  0  0  0  0  0  0
    3.5873   -0.3081   -1.3053 C   0  0  0  0  0  0  0  0  0  0  0  0
    2.2475    0.4377   -1.2063 C   0  0  0  0  0  0  0  0  0  0  0  0
    1.4138   -0.3674   -0.2195 C   0  0  2  0  0  0  0  0  0  0  0  0
    0.0368   -0.2340   -0.3630 N   0  0  0  0  0  0  0  0  0  0  0  0
   -3.7866    0.4388   -0.8685 C   0  0  0  0  0  0  0  0  0  0  0  0
   -2.9729    1.5329   -0.2260 C   0  0  0  0  0  0  0  0  0  0  0  0
   -1.7083    1.0290    0.3954 C   0  0  0  0  0  0  0  0  0  0  0  0
   -1.7804   -0.3087    1.0016 C   0  0  0  0  0  0  0  0  0  0  0  0
    0.2268    2.1353   -0.4962 O   0  0  0  0  0  0  0  0  0  0  0  0
   -0.1984   -2.1329    0.8913 O   0  0  0  0  0  0  0  0  0  0  0  0
   -3.1296   -0.9036    1.1666 C   0  0  0  0  0  0  0  0  0  0  0  0
   -4.1772   -0.5249    0.1993 C   0  0  0  0  0  0  0  0  0  0  0  0
   -0.8613   -1.1703    0.1503 C   0  0  0  0  0  0  0  0  0  0  0  0
   -0.5617    1.0036   -0.6010 C   0  0  0  0  0  0  0  0  0  0  0  0
    1.9792    0.7472    1.7148 O   0  0  0  0  0  0  0  0  0  0  0  0
    1.9667   -0.5019    1.0960 C   0  0  0  0  0  0  0  0  0  0  0  0
    3.2853   -1.0968    1.0819 N   0  0  0  0  0  0  0  0  0  0  0  0
    4.1832   -0.5454    0.1190 C   0  0  0  0  0  0  0  0  0  0  0  0
    4.7713    0.6562    0.4943 O   0  0  0  0  0  0  0  0  0  0  0  0
    3.6032   -0.3884   -1.2667 C   0  0  0  0  0  0  0  0  0  0  0  0
    2.2986    0.4154   -1.1416 C   0  0  0  0  0  0  0  0  0  0  0  0
    1.3784   -0.4362   -0.2961 C   0  0  2  0  0  0  0  0  0  0  0  0
    0.0395   -0.1614   -0.3657 N   0  0  0  0  0  0  0  0  0  0  0  0
   -3.8061    0.2740   -0.8497 C   0  0  0  0  0  0  0  0  0  0  0  0
   -2.9763    1.4764   -0.5339 C   0  0  0  0  0  0  0  0  0  0  0  0
   -1.7149    1.1955    0.2063 C   0  0  0  0  0  0  0  0  0  0  0  0
   -1.7166   -0.0479    1.0139 C   0  0  0  0  0  0  0  0  0  0  0  0
    0.3368    2.1954   -0.4905 O   0  0  0  0  0  0  0  0  0  0  0  0
   -0.5314   -2.1387    0.8268 O   0  0  0  0  0  0  0  0  0  0  0  0
   -3.0620   -0.5456    1.4115 C   0  0  0  0  0  0  0  0  0  0  0  0
   -4.0371   -0.6545    0.2834 C   0  0  0  0  0  0  0  0  0  0  0  0
   -0.9369   -1.0149    0.1535 C   0  0  2  0  0  0  0  0  0  0  0  0
   -0.4865    1.0869   -0.6842 C   0  0  0  0  0  0  0  0  0  0  0  0
    2.6063    1.3839    1.3430 H   0  0  0  0  0  0  0  0  0  0  0  0
    1.3399   -1.1524    1.7356 H   0  0  0  0  0  0  0  0  0  0  0  0
    3.2333   -2.1215    1.0885 H   0  0  0  0  0  0  0  0  0  0  0  0
    5.0261   -1.2858    0.0048 H   0  0  0  0  0  0  0  0  0  0  0  0
    5.5439    0.4280    1.0971 H   0  0  0  0  0  0  0  0  0  0  0  0
    3.3480   -1.3839   -1.6607 H   0  0  0  0  0  0  0  0  0  0  0  0
    4.3327    0.1760   -1.8761 H   0  0  0  0  0  0  0  0  0  0  0  0
    1.8294    0.4712   -2.1451 H   0  0  0  0  0  0  0  0  0  0  0  0
    2.5020    1.3902   -0.6901 H   0  0  0  0  0  0  0  0  0  0  0  0
    1.5386   -1.4909   -0.7015 H   0  0  0  0  0  0  0  0  0  0  0  0
   -4.8051    0.6482   -1.1936 H   0  0  0  0  0  0  0  0  0  0  0  0
   -3.3972   -0.2603   -1.7574 H   0  0  0  0  0  0  0  0  0  0  0  0
   -2.7165    1.9692   -1.4940 H   0  0  0  0  0  0  0  0  0  0  0  0
   -3.6128    2.2154    0.0236 H   0  0  0  0  0  0  0  0  0  0  0  0
   -1.5525    2.0579    0.9190 H   0  0  0  0  0  0  0  0  0  0  0  0
   -1.1238    0.0979    1.9423 H   0  0  0  0  0  0  0  0  0  0  0  0
    0.1435    2.5162    0.4412 H   0  0  0  0  0  0  0  0  0  0  0  0
   -0.9985   -2.2133    1.6963 H   0  0  0  0  0  0  0  0  0  0  0  0
   -2.9175   -1.5413    1.9020 H   0  0  0  0  0  0  0  0  0  0  0  0
   -3.4544    0.1285    2.2021 H   0  0  0  0  0  0  0  0  0  0  0  0
   -5.0630   -0.5698    0.7085 H   0  0  0  0  0  0  0  0  0  0  0  0
   -3.9671   -1.7014   -0.1071 H   0  0  0  0  0  0  0  0  0  0  0  0
   -1.5608   -1.3781   -0.7116 H   0  0  0  0  0  0  0  0  0  0  0  0
   -0.8487    1.1008   -1.7448 H   0  0  0  0  0  0  0  0  0  0  0  0
    2.6063    1.3839    1.3430 H   0  0  0  0  0  0  0  0  0  0  0  0
    1.3399   -1.1524    1.7356 H   0  0  0  0  0  0  0  0  0  0  0  0
    3.2333   -2.1215    1.0885 H   0  0  0  0  0  0  0  0  0  0  0  0
    5.0261   -1.2858    0.0048 H   0  0  0  0  0  0  0  0  0  0  0  0
    5.5439    0.4280    1.0971 H   0  0  0  0  0  0  0  0  0  0  0  0
    3.3480   -1.3839   -1.6607 H   0  0  0  0  0  0  0  0  0  0  0  0
    4.3327    0.1760   -1.8761 H   0  0  0  0  0  0  0  0  0  0  0  0
    1.8294    0.4712   -2.1451 H   0  0  0  0  0  0  0  0  0  0  0  0
    2.5020    1.3902   -0.6901 H   0  0  0  0  0  0  0  0  0  0  0  0
    1.5386   -1.4909   -0.7015 H   0  0  0  0  0  0  0  0  0  0  0  0
   -4.8051    0.6482   -1.1936 H   0  0  0  0  0  0  0  0  0  0  0  0
   -3.3972   -0.2603   -1.7574 H   0  0  0  0  0  0  0  0  0  0  0  0
   -2.7165    1.9692   -1.4940 H   0  0  0  0  0  0  0  0  0  0  0  0
   -3.6128    2.2154    0.0236 H   0  0  0  0  0  0  0  0  0  0  0  0
   -1.5525    2.0579    0.9190 H   0  0  0  0  0  0  0  0  0  0  0  0
   -1.1238    0.0979    1.9423 H   0  0  0  0  0  0  0  0  0  0  0  0
    0.1435    2.5162    0.4412 H   0  0  0  0  0  0  0  0  0  0  0  0
   -0.9985   -2.2133    1.6963 H   0  0  0  0  0  0  0  0  0  0  0  0
   -2.9175   -1.5413    1.9020 H   0  0  0  0  0  0  0  0  0  0  0  0
   -3.4544    0.1285    2.2021 H   0  0  0  0  0  0  0  0  0  0  0  0
   -5.0630   -0.5698    0.7085 H   0  0  0  0  0  0  0  0  0  0  0  0
   -3.9671   -1.7014   -0.1071 H   0  0  0  0  0  0  0  0  0  0  0  0
   -1.5608   -1.3781   -0.7116 H   0  0  0  0  0  0  0  0  0  0  0  0
   -0.8487    1.1008   -1.7448 H   0  0  0  0  0  0  0  0  0  0  0  0
    2.7796    1.5508    1.0900 H   0  0  0  0  0  0  0  0  0  0  0  0
    1.4256   -0.8598    1.8573 H   0  0  0  0  0  0  0  0  0  0  0  0
    3.2605   -1.9899    1.0652 H   0  0  0  0  0  0  0  0  0  0  0  0
    5.0111   -1.2339   -0.0557 H   0  0  0  0  0  0  0  0  0  0  0  0
    5.5462    0.5415    1.0945 H   0  0  0  0  0  0  0  0  0  0  0  0
    3.3134   -1.3388   -1.6729 H   0  0  0  0  0  0  0  0  0  0  0  0
    4.2942    0.2062   -1.9624 H   0  0  0  0  0  0  0  0  0  0  0  0
    1.7949    0.3694   -2.2263 H   0  0  0  0  0  0  0  0  0  0  0  0
    2.4020    1.4822   -0.9105 H   0  0  0  0  0  0  0  0  0  0  0  0
    1.6111   -1.4447   -0.5572 H   0  0  0  0  0  0  0  0  0  0  0  0
   -4.7116    0.9129   -1.2590 H   0  0  0  0  0  0  0  0  0  0  0  0
   -3.2884   -0.0184   -1.7448 H   0  0  0  0  0  0  0  0  0  0  0  0
   -2.6999    2.2504   -1.0252 H   0  0  0  0  0  0  0  0  0  0  0  0
   -3.5922    2.0612    0.5064 H   0  0  0  0  0  0  0  0  0  0  0  0
   -1.4128    1.7997    1.1680 H   0  0  0  0  0  0  0  0  0  0  0  0
   -1.2925   -0.2789    2.0168 H   0  0  0  0  0  0  0  0  0  0  0  0
    0.0145    2.5317    0.4033 H   0  0  0  0  0  0  0  0  0  0  0  0
   -0.7431   -2.2360    1.7352 H   0  0  0  0  0  0  0  0  0  0  0  0
   -3.0061   -2.0269    1.1335 H   0  0  0  0  0  0  0  0  0  0  0  0
   -3.4969   -0.7148    2.2193 H   0  0  0  0  0  0  0  0  0  0  0  0
   -5.0649   -0.0749    0.7345 H   0  0  0  0  0  0  0  0  0  0  0  0
   -4.6270   -1.4216   -0.3238 H   0  0  0  0  0  0  0  0  0  0  0  0
   -1.4562   -1.6423   -0.6845 H   0  0  0  0  0  0  0  0  0  0  0  0
   -1.0170    1.0077   -1.6192 H   0  0  0  0  0  0  0  0  0  0  0  0
    2.6063    1.3839    1.3430 H   0  0  0  0  0  0  0  0  0  0  0  0
    1.3399   -1.1524    1.7356 H   0  0  0  0  0  0  0  0  0  0  0  0
    3.2333   -2.1215    1.0885 H   0  0  0  0  0  0  0  0  0  0  0  0
    5.0261   -1.2858    0.0048 H   0  0  0  0  0  0  0  0  0  0  0  0
    5.5439    0.4280    1.0971 H   0  0  0  0  0  0  0  0  0  0  0  0
    3.3480   -1.3839   -1.6607 H   0  0  0  0  0  0  0  0  0  0  0  0
    4.3327    0.1760   -1.8761 H   0  0  0  0  0  0  0  0  0  0  0  0
    1.8294    0.4712   -2.1451 H   0  0  0  0  0  0  0  0  0  0  0  0
    2.5020    1.3902   -0.6901 H   0  0  0  0  0  0  0  0  0  0  0  0
    1.5386   -1.4909   -0.7015 H   0  0  0  0  0  0  0  0  0  0  0  0
   -4.8051    0.6482   -1.1936 H   0  0  0  0  0  0  0  0  0  0  0  0
   -3.3972   -0.2603   -1.7574 H   0  0  0  0  0  0  0  0  0  0  0  0
   -2.7165    1.9692   -1.4940 H   0  0  0  0  0  0  0  0  0  0  0  0
   -3.6128    2.2154    0.0236 H   0  0  0  0  0  0  0  0  0  0  0  0
   -1.5525    2.0579    0.9190 H   0  0  0  0  0  0  0  0  0  0  0  0
   -1.1238    0.0979    1.9423 H   0  0  0  0  0  0  0  0  0  0  0  0
    0.1435    2.5162    0.4412 H   0  0  0  0  0  0  0  0  0  0  0  0
   -0.9985   -2.2133    1.6963 H   0  0  0  0  0  0  0  0  0  0  0  0
   -2.9175   -1.5413    1.9020 H   0  0  0  0  0  0  0  0  0  0  0  0
   -3.4544    0.1285    2.2021 H   0  0  0  0  0  0  0  0  0  0  0  0
   -5.0630   -0.5698    0.7085 H   0  0  0  0  0  0  0  0  0  0  0  0
   -3.9671   -1.7014   -0.1071 H   0  0  0  0  0  0  0  0  0  0  0  0
   -1.5608   -1.3781   -0.7116 H   0  0  0  0  0  0  0  0  0  0  0  0
   -0.8487    1.1008   -1.7448 H   0  0  0  0  0  0  0  0  0  0  0  0
  1  2  1  0
  2  3  1  0
  3  4  1  0
  4  5  1  0
  4  6  1  0
  6  7  1  0
  2  8  1  0
  7  8  1  0
  8  9  1  0
 10 11  1  0
 11 12  1  0
 12 13  1  0
 13 16  1  0
 10 17  1  0
 16 17  1  0
  9 18  1  0
 13 18  1  0
 15 18  1  0
  9 19  1  0
 12 19  1  0
 14 19  1  0
 20 21  1  0
 21 22  1  0
 22 23  1  0
 23 24  1  0
 23 25  1  0
 25 26  1  0
 21 27  1  0
 26 27  1  0
 27 28  1  0
 29 30  1  0
 30 31  1  0
 31 32  1  0
 32 35  1  0
 29 36  1  0
 35 36  1  0
 28 37  1  0
 32 37  1  0
 34 37  1  0
 28 38  1  0
 31 38  1  0
 33 38  1  0
 39 40  1  0
 40 41  1  0
 41 42  1  0
 42 43  1  0
 42 44  1  0
 44 45  1  0
 40 46  1  0
 45 46  1  0
 46 47  1  0
 48 49  1  0
 49 50  1  0
 50 51  1  0
 51 54  1  0
 48 55  1  0
 54 55  1  0
 47 56  1  0
 51 56  1  0
 53 56  1  0
 47 57  1  0
 50 57  1  0
 52 57  1  0
 58 59  1  0
 59 60  1  0
 60 61  1  0
 61 62  1  0
 61 63  1  0
 63 64  1  0
 59 65  1  0
 64 65  1  0
 65 66  1  0
 67 68  1  0
 68 69  1  0
 69 70  1  0
 70 73  1  0
 67 74  1  0
 73 74  1  0
 66 75  1  0
 70 75  1  0
 72 75  1  0
 66 76  1  0
 69 76  1  0
 71 76  1  0
  1 77  1  0
  2 78  1  0
  3 79  1  0
  4 80  1  0
  5 81  1  0
  6 82  1  0
  6 83  1  0
  7 84  1  0
  7 85  1  0
  8 86  1  6
 10 87  1  0
 10 88  1  0
 11 89  1  0
 11 90  1  0
 12 91  1  0
 13 92  1  0
 14 93  1  0
 15 94  1  0
 16 95  1  0
 16 96  1  0
 17 97  1  0
 17 98  1  0
 18 99  1  6
 19100  1  0
 20101  1  0
 21102  1  0
 22103  1  0
 23104  1  0
 24105  1  0
 25106  1  0
 25107  1  0
 26108  1  0
 26109  1  0
 27110  1  6
 29111  1  0
 29112  1  0
 30113  1  0
 30114  1  0
 31115  1  0
 32116  1  0
 33117  1  0
 34118  1  0
 35119  1  0
 35120  1  0
 36121  1  0
 36122  1  0
 37123  1  6
 38124  1  0
 39125  1  0
 40126  1  0
 41127  1  0
 42128  1  0
 43129  1  0
 44130  1  0
 44131  1  0
 45132  1  0
 45133  1  0
 46134  1  6
 48135  1  0
 48136  1  0
 49137  1  0
 49138  1  0
 50139  1  0
 51140  1  0
 52141  1  0
 53142  1  0
 54143  1  0
 54144  1  0
 55145  1  0
 55146  1  0
 56147  1  0
 57148  1  0
 58149  1  0
 59150  1  0
 60151  1  0
 61152  1  0
 62153  1  0
 63154  1  0
 63155  1  0
 64156  1  0
 64157  1  0
 65158  1  6
 67159  1  0
 67160  1  0
 68161  1  0
 68162  1  0
 69163  1  0
 70164  1  0
 71165  1  0
 72166  1  0
 73167  1  0
 73168  1  0
 74169  1  0
 74170  1  0
 75171  1  6
 76172  1  0
M  END
>  <PDBID>  (1) 
4TZC

>  <PDB ID>  (1) 
4TZC

>  <Generic Name>  (1) 
Thalidomide

>  <Brand Name>  (1) 
Thalomid#Contergan#Distaval#K-17#Pro-ban M#Sedalis#Softenon#Talimol#Thaled

>  <DrugBank ID>  (1) 
DB01041

>  <ATC Codes>  (1) 
L04AX02

>  <Ligand ID>  (1) 
EF2

>  <Target Name>  (1) 
Protein cereblon

>  <UniProt ID>  (1) 
Q96SW2

>  <PDB ID.1>  (1) 
4TZC

>  <Seq. Identity>  (1) 
97%

$$$$
