PDB_DB00396_05
     RDKit          3D

118124  0  0  0  0  0  0  0  0999 V2000
    2.6594    1.5030    1.1661 C   0  0  0  0  0  0  0  0  0  0  0  0
    4.1224    1.4592    1.3672 C   0  0  0  0  0  0  0  0  0  0  0  0
    4.9396    0.8093    0.3258 C   0  0  0  0  0  0  0  0  0  0  0  0
    6.1638    0.4160    0.9228 O   0  0  0  0  0  0  0  0  0  0  0  0
    4.3580   -0.3976   -0.3056 C   0  0  0  0  0  0  0  0  0  0  0  0
    2.9556   -0.7277    0.1408 C   0  0  2  0  0  0  0  0  0  0  0  0
    2.4284   -1.7838   -0.7624 C   0  0  0  0  0  0  0  0  0  0  0  0
    0.9713   -1.9842   -0.7609 C   0  0  0  0  0  0  0  0  0  0  0  0
    0.1539   -0.7285   -0.5668 C   0  0  2  0  0  0  0  0  0  0  0  0
    0.7027    0.0225    0.6000 C   0  0  1  0  0  0  0  0  0  0  0  0
    2.0802    0.5060    0.2176 C   0  0  1  0  0  0  0  0  0  0  0  0
   -0.1846    1.1319    1.0853 C   0  0  0  0  0  0  0  0  0  0  0  0
   -1.5868    0.6128    1.2940 C   0  0  0  0  0  0  0  0  0  0  0  0
   -2.0868    0.0666    0.0114 C   0  0  1  0  0  0  0  0  0  0  0  0
   -1.2485   -1.1567   -0.3253 C   0  0  1  0  0  0  0  0  0  0  0  0
   -1.9813   -1.7083   -1.4944 C   0  0  0  0  0  0  0  0  0  0  0  0
   -3.4473   -1.4300   -1.1608 C   0  0  0  0  0  0  0  0  0  0  0  0
   -3.4436   -0.5858    0.0968 C   0  0  2  0  0  0  0  0  0  0  0  0
   -2.0848    1.0947   -1.0673 C   0  0  0  0  0  0  0  0  0  0  0  0
    2.0745    1.1195   -1.1765 C   0  0  0  0  0  0  0  0  0  0  0  0
   -4.5885    0.3640    0.1785 C   0  0  0  0  0  0  0  0  0  0  0  0
   -4.6866    1.2113   -0.9071 O   0  0  0  0  0  0  0  0  0  0  0  0
   -5.8704   -0.4310    0.2557 C   0  0  0  0  0  0  0  0  0  0  0  0
    2.6594    1.5030    1.1661 C   0  0  0  0  0  0  0  0  0  0  0  0
    4.1224    1.4592    1.3672 C   0  0  0  0  0  0  0  0  0  0  0  0
    4.9396    0.8093    0.3258 C   0  0  0  0  0  0  0  0  0  0  0  0
    6.1638    0.4160    0.9228 O   0  0  0  0  0  0  0  0  0  0  0  0
    4.3580   -0.3976   -0.3056 C   0  0  0  0  0  0  0  0  0  0  0  0
    2.9556   -0.7277    0.1408 C   0  0  2  0  0  0  0  0  0  0  0  0
    2.4284   -1.7838   -0.7624 C   0  0  0  0  0  0  0  0  0  0  0  0
    0.9713   -1.9842   -0.7609 C   0  0  0  0  0  0  0  0  0  0  0  0
    0.1539   -0.7285   -0.5668 C   0  0  2  0  0  0  0  0  0  0  0  0
    0.7027    0.0225    0.6000 C   0  0  1  0  0  0  0  0  0  0  0  0
    2.0802    0.5060    0.2176 C   0  0  1  0  0  0  0  0  0  0  0  0
   -0.1846    1.1319    1.0853 C   0  0  0  0  0  0  0  0  0  0  0  0
   -1.5868    0.6128    1.2940 C   0  0  0  0  0  0  0  0  0  0  0  0
   -2.0868    0.0666    0.0114 C   0  0  1  0  0  0  0  0  0  0  0  0
   -1.2485   -1.1567   -0.3253 C   0  0  1  0  0  0  0  0  0  0  0  0
   -1.9813   -1.7083   -1.4944 C   0  0  0  0  0  0  0  0  0  0  0  0
   -3.4473   -1.4300   -1.1608 C   0  0  0  0  0  0  0  0  0  0  0  0
   -3.4436   -0.5858    0.0968 C   0  0  2  0  0  0  0  0  0  0  0  0
   -2.0848    1.0947   -1.0673 C   0  0  0  0  0  0  0  0  0  0  0  0
    2.0745    1.1195   -1.1765 C   0  0  0  0  0  0  0  0  0  0  0  0
   -4.5885    0.3640    0.1785 C   0  0  0  0  0  0  0  0  0  0  0  0
   -4.6866    1.2113   -0.9071 O   0  0  0  0  0  0  0  0  0  0  0  0
   -5.8704   -0.4310    0.2557 C   0  0  0  0  0  0  0  0  0  0  0  0
    2.1879    1.3955    2.1878 H   0  0  0  0  0  0  0  0  0  0  0  0
    2.3175    2.5211    0.8212 H   0  0  0  0  0  0  0  0  0  0  0  0
    4.3947    1.0069    2.3666 H   0  0  0  0  0  0  0  0  0  0  0  0
    4.4811    2.5266    1.4673 H   0  0  0  0  0  0  0  0  0  0  0  0
    5.2606    1.5879   -0.4275 H   0  0  0  0  0  0  0  0  0  0  0  0
    6.6835    1.1961    1.2141 H   0  0  0  0  0  0  0  0  0  0  0  0
    4.9650   -1.3330   -0.1260 H   0  0  0  0  0  0  0  0  0  0  0  0
    4.3398   -0.2802   -1.4069 H   0  0  0  0  0  0  0  0  0  0  0  0
    2.9654   -1.1545    1.1849 H   0  0  0  0  0  0  0  0  0  0  0  0
    2.7759   -1.6267   -1.8255 H   0  0  0  0  0  0  0  0  0  0  0  0
    2.9207   -2.7559   -0.4676 H   0  0  0  0  0  0  0  0  0  0  0  0
    0.6578   -2.4064   -1.7606 H   0  0  0  0  0  0  0  0  0  0  0  0
    0.6431   -2.7317   -0.0064 H   0  0  0  0  0  0  0  0  0  0  0  0
    0.1937   -0.1800   -1.5275 H   0  0  0  0  0  0  0  0  0  0  0  0
    0.8363   -0.7025    1.4346 H   0  0  0  0  0  0  0  0  0  0  0  0
   -0.1618    2.0213    0.4234 H   0  0  0  0  0  0  0  0  0  0  0  0
    0.1652    1.4628    2.0849 H   0  0  0  0  0  0  0  0  0  0  0  0
   -1.4900   -0.2473    2.0156 H   0  0  0  0  0  0  0  0  0  0  0  0
   -2.2508    1.3563    1.7568 H   0  0  0  0  0  0  0  0  0  0  0  0
   -1.2974   -1.8148    0.5666 H   0  0  0  0  0  0  0  0  0  0  0  0
   -1.8414   -2.7919   -1.5745 H   0  0  0  0  0  0  0  0  0  0  0  0
   -1.6742   -1.1908   -2.4201 H   0  0  0  0  0  0  0  0  0  0  0  0
   -3.8951   -0.8074   -1.9679 H   0  0  0  0  0  0  0  0  0  0  0  0
   -4.0048   -2.3793   -1.0293 H   0  0  0  0  0  0  0  0  0  0  0  0
   -3.5179   -1.2846    0.9601 H   0  0  0  0  0  0  0  0  0  0  0  0
   -2.5234    2.0316   -0.6186 H   0  0  0  0  0  0  0  0  0  0  0  0
   -2.6451    0.8065   -1.9606 H   0  0  0  0  0  0  0  0  0  0  0  0
   -1.0765    1.4041   -1.4094 H   0  0  0  0  0  0  0  0  0  0  0  0
    2.1078    0.3587   -1.9732 H   0  0  0  0  0  0  0  0  0  0  0  0
    1.2701    1.8693   -1.3009 H   0  0  0  0  0  0  0  0  0  0  0  0
    3.0292    1.7133   -1.2880 H   0  0  0  0  0  0  0  0  0  0  0  0
   -4.4782    0.9280    1.1378 H   0  0  0  0  0  0  0  0  0  0  0  0
   -5.0816    2.0558   -0.5901 H   0  0  0  0  0  0  0  0  0  0  0  0
   -5.6664   -1.5244    0.3172 H   0  0  0  0  0  0  0  0  0  0  0  0
   -6.4932   -0.1243    1.1083 H   0  0  0  0  0  0  0  0  0  0  0  0
   -6.4979   -0.2893   -0.6605 H   0  0  0  0  0  0  0  0  0  0  0  0
    2.1879    1.3955    2.1878 H   0  0  0  0  0  0  0  0  0  0  0  0
    2.3175    2.5211    0.8212 H   0  0  0  0  0  0  0  0  0  0  0  0
    4.3947    1.0069    2.3666 H   0  0  0  0  0  0  0  0  0  0  0  0
    4.4811    2.5266    1.4673 H   0  0  0  0  0  0  0  0  0  0  0  0
    5.2606    1.5879   -0.4275 H   0  0  0  0  0  0  0  0  0  0  0  0
    6.6835    1.1961    1.2141 H   0  0  0  0  0  0  0  0  0  0  0  0
    4.9650   -1.3330   -0.1260 H   0  0  0  0  0  0  0  0  0  0  0  0
    4.3398   -0.2802   -1.4069 H   0  0  0  0  0  0  0  0  0  0  0  0
    2.9654   -1.1545    1.1849 H   0  0  0  0  0  0  0  0  0  0  0  0
    2.7759   -1.6267   -1.8255 H   0  0  0  0  0  0  0  0  0  0  0  0
    2.9207   -2.7559   -0.4676 H   0  0  0  0  0  0  0  0  0  0  0  0
    0.6578   -2.4064   -1.7606 H   0  0  0  0  0  0  0  0  0  0  0  0
    0.6431   -2.7317   -0.0064 H   0  0  0  0  0  0  0  0  0  0  0  0
    0.1937   -0.1800   -1.5275 H   0  0  0  0  0  0  0  0  0  0  0  0
    0.8363   -0.7025    1.4346 H   0  0  0  0  0  0  0  0  0  0  0  0
   -0.1618    2.0213    0.4234 H   0  0  0  0  0  0  0  0  0  0  0  0
    0.1652    1.4628    2.0849 H   0  0  0  0  0  0  0  0  0  0  0  0
   -1.4900   -0.2473    2.0156 H   0  0  0  0  0  0  0  0  0  0  0  0
   -2.2508    1.3563    1.7568 H   0  0  0  0  0  0  0  0  0  0  0  0
   -1.2974   -1.8148    0.5666 H   0  0  0  0  0  0  0  0  0  0  0  0
   -1.8414   -2.7919   -1.5745 H   0  0  0  0  0  0  0  0  0  0  0  0
   -1.6742   -1.1908   -2.4201 H   0  0  0  0  0  0  0  0  0  0  0  0
   -3.8951   -0.8074   -1.9679 H   0  0  0  0  0  0  0  0  0  0  0  0
   -4.0048   -2.3793   -1.0293 H   0  0  0  0  0  0  0  0  0  0  0  0
   -3.5179   -1.2846    0.9601 H   0  0  0  0  0  0  0  0  0  0  0  0
   -2.5234    2.0316   -0.6186 H   0  0  0  0  0  0  0  0  0  0  0  0
   -2.6451    0.8065   -1.9606 H   0  0  0  0  0  0  0  0  0  0  0  0
   -1.0765    1.4041   -1.4094 H   0  0  0  0  0  0  0  0  0  0  0  0
    2.1078    0.3587   -1.9732 H   0  0  0  0  0  0  0  0  0  0  0  0
    1.2701    1.8693   -1.3009 H   0  0  0  0  0  0  0  0  0  0  0  0
    3.0292    1.7133   -1.2880 H   0  0  0  0  0  0  0  0  0  0  0  0
   -4.4782    0.9280    1.1378 H   0  0  0  0  0  0  0  0  0  0  0  0
   -5.0816    2.0558   -0.5901 H   0  0  0  0  0  0  0  0  0  0  0  0
   -5.6664   -1.5244    0.3172 H   0  0  0  0  0  0  0  0  0  0  0  0
   -6.4932   -0.1243    1.1083 H   0  0  0  0  0  0  0  0  0  0  0  0
   -6.4979   -0.2893   -0.6605 H   0  0  0  0  0  0  0  0  0  0  0  0
  1  2  1  0
  2  3  1  0
  3  4  1  0
  3  5  1  0
  5  6  1  0
  6  7  1  0
  7  8  1  0
  8  9  1  0
  9 10  1  0
  1 11  1  0
  6 11  1  0
 10 11  1  0
 10 12  1  0
 12 13  1  0
 13 14  1  0
  9 15  1  0
 14 15  1  0
 15 16  1  0
 16 17  1  0
 14 18  1  0
 17 18  1  0
 14 19  1  6
 11 20  1  6
 18 21  1  0
 21 22  1  0
 21 23  1  0
 24 25  1  0
 25 26  1  0
 26 27  1  0
 26 28  1  0
 28 29  1  0
 29 30  1  0
 30 31  1  0
 31 32  1  0
 32 33  1  0
 24 34  1  0
 29 34  1  0
 33 34  1  0
 33 35  1  0
 35 36  1  0
 36 37  1  0
 32 38  1  0
 37 38  1  0
 38 39  1  0
 39 40  1  0
 37 41  1  0
 40 41  1  0
 37 42  1  6
 34 43  1  6
 41 44  1  0
 44 45  1  0
 44 46  1  0
  1 47  1  0
  1 48  1  0
  2 49  1  0
  2 50  1  0
  3 51  1  0
  4 52  1  0
  5 53  1  0
  5 54  1  0
  6 55  1  1
  7 56  1  0
  7 57  1  0
  8 58  1  0
  8 59  1  0
  9 60  1  6
 10 61  1  1
 12 62  1  0
 12 63  1  0
 13 64  1  0
 13 65  1  0
 15 66  1  1
 16 67  1  0
 16 68  1  0
 17 69  1  0
 17 70  1  0
 18 71  1  1
 19 72  1  0
 19 73  1  0
 19 74  1  0
 20 75  1  0
 20 76  1  0
 20 77  1  0
 21 78  1  0
 22 79  1  0
 23 80  1  0
 23 81  1  0
 23 82  1  0
 24 83  1  0
 24 84  1  0
 25 85  1  0
 25 86  1  0
 26 87  1  0
 27 88  1  0
 28 89  1  0
 28 90  1  0
 29 91  1  1
 30 92  1  0
 30 93  1  0
 31 94  1  0
 31 95  1  0
 32 96  1  6
 33 97  1  1
 35 98  1  0
 35 99  1  0
 36100  1  0
 36101  1  0
 38102  1  1
 39103  1  0
 39104  1  0
 40105  1  0
 40106  1  0
 41107  1  1
 42108  1  0
 42109  1  0
 42110  1  0
 43111  1  0
 43112  1  0
 43113  1  0
 44114  1  0
 45115  1  0
 46116  1  0
 46117  1  0
 46118  1  0
M  END
>  <PDBID>  (1) 
4FN9

>  <PDB ID>  (1) 
4FN9

>  <Generic Name>  (1) 
Progesterone

>  <Brand Name>  (1) 
Act Progesterone Injection#Crinone#Endometrin#Estrogel Propak#Gesterol In Oil-liq Im 50mg/ml#PMS-progesterone Inj 50mg/ml USP#Prochieve#Progesterone#Progesterone Inj 50mg/ml USP#Progesterone Injection USP#Prometrium#Teva-progesterone#Agolutin#Cyclogest#Gesterol#Gestone#Progestasert#Progestogel#Qi Ning#Relantan#Susten#Utrogestan#Utrogestran#Utrovin#Vasclor

>  <DrugBank ID>  (1) 
DB00396

>  <ATC Codes>  (1) 
G03DA04#G03FA04

>  <Ligand ID>  (1) 
STR

>  <Target Name>  (1) 
Estrogen receptor

>  <UniProt ID>  (1) 
P03372

>  <PDB ID.1>  (1) 
4FN9

>  <Seq. Identity>  (1) 
32%

$$$$
