PDB_DB00190_07
     RDKit          3D

 74 74  0  0  0  0  0  0  0  0999 V2000
   -2.9436    0.3569    1.3827 N   0  0  0  0  0  0  0  0  0  0  0  0
   -2.8955    1.7344    1.4530 N   0  0  0  0  0  0  0  0  0  0  0  0
   -2.0537   -0.1072    0.2435 C   0  0  2  0  0  0  0  0  0  0  0  0
   -0.7555    0.4030    0.6492 C   0  0  0  0  0  0  0  0  0  0  0  0
   -2.6107    0.6362   -0.9532 C   0  0  0  0  0  0  0  0  0  0  0  0
    0.4974    0.2428   -0.0926 C   0  0  0  0  0  0  0  0  0  0  0  0
    1.5002    1.0504    0.8209 C   0  0  0  0  0  0  0  0  0  0  0  0
    2.8149    1.2194    0.1592 C   0  0  0  0  0  0  0  0  0  0  0  0
    1.1337   -1.0928   -0.1875 C   0  0  0  0  0  0  0  0  0  0  0  0
    2.4780   -0.8948   -0.9278 C   0  0  0  0  0  0  0  0  0  0  0  0
    3.4010   -0.1954    0.0088 C   0  0  0  0  0  0  0  0  0  0  0  0
    4.6920   -0.1382   -0.4954 O   0  0  0  0  0  0  0  0  0  0  0  0
    2.7318    1.7763   -1.1063 O   0  0  0  0  0  0  0  0  0  0  0  0
   -2.3243   -1.5652    0.1933 C   0  0  0  0  0  0  0  0  0  0  0  0
   -3.7349   -1.7982    0.0297 O   0  0  0  0  0  0  0  0  0  0  0  0
   -1.8684   -2.0386   -1.0731 O   0  0  0  0  0  0  0  0  0  0  0  0
   -2.9436    0.3569    1.3827 N   0  0  0  0  0  0  0  0  0  0  0  0
   -2.8955    1.7344    1.4530 N   0  0  0  0  0  0  0  0  0  0  0  0
   -2.0537   -0.1072    0.2435 C   0  0  2  0  0  0  0  0  0  0  0  0
   -0.7555    0.4030    0.6492 C   0  0  0  0  0  0  0  0  0  0  0  0
   -2.6107    0.6362   -0.9532 C   0  0  0  0  0  0  0  0  0  0  0  0
    0.4974    0.2428   -0.0926 C   0  0  0  0  0  0  0  0  0  0  0  0
    1.5002    1.0504    0.8209 C   0  0  0  0  0  0  0  0  0  0  0  0
    2.8149    1.2194    0.1592 C   0  0  0  0  0  0  0  0  0  0  0  0
    1.1337   -1.0928   -0.1875 C   0  0  0  0  0  0  0  0  0  0  0  0
    2.4780   -0.8948   -0.9278 C   0  0  0  0  0  0  0  0  0  0  0  0
    3.4010   -0.1954    0.0088 C   0  0  0  0  0  0  0  0  0  0  0  0
    4.6920   -0.1382   -0.4954 O   0  0  0  0  0  0  0  0  0  0  0  0
    2.7318    1.7763   -1.1063 O   0  0  0  0  0  0  0  0  0  0  0  0
   -2.3243   -1.5652    0.1933 C   0  0  0  0  0  0  0  0  0  0  0  0
   -3.7349   -1.7982    0.0297 O   0  0  0  0  0  0  0  0  0  0  0  0
   -1.8684   -2.0386   -1.0731 O   0  0  0  0  0  0  0  0  0  0  0  0
   -3.8727   -0.0548    1.2721 H   0  0  0  0  0  0  0  0  0  0  0  0
   -3.8361    2.1817    1.5324 H   0  0  0  0  0  0  0  0  0  0  0  0
   -0.8895    1.5405    0.7554 H   0  0  0  0  0  0  0  0  0  0  0  0
   -0.5910    0.1319    1.7467 H   0  0  0  0  0  0  0  0  0  0  0  0
   -3.5746    0.1291   -1.2123 H   0  0  0  0  0  0  0  0  0  0  0  0
   -1.9101    0.6264   -1.8108 H   0  0  0  0  0  0  0  0  0  0  0  0
   -2.8592    1.6535   -0.6232 H   0  0  0  0  0  0  0  0  0  0  0  0
    0.5037    0.7512   -1.0570 H   0  0  0  0  0  0  0  0  0  0  0  0
    1.6123    0.4027    1.7127 H   0  0  0  0  0  0  0  0  0  0  0  0
    1.0304    1.9837    1.1299 H   0  0  0  0  0  0  0  0  0  0  0  0
    3.4797    1.7485    0.8377 H   0  0  0  0  0  0  0  0  0  0  0  0
    1.4537   -1.4494    0.8299 H   0  0  0  0  0  0  0  0  0  0  0  0
    0.6574   -1.8617   -0.7783 H   0  0  0  0  0  0  0  0  0  0  0  0
    2.2762   -0.2639   -1.8372 H   0  0  0  0  0  0  0  0  0  0  0  0
    2.8946   -1.8646   -1.2204 H   0  0  0  0  0  0  0  0  0  0  0  0
    3.4015   -0.7183    0.9785 H   0  0  0  0  0  0  0  0  0  0  0  0
    4.8907   -0.8812   -1.1266 H   0  0  0  0  0  0  0  0  0  0  0  0
    3.6354    1.9762   -1.4072 H   0  0  0  0  0  0  0  0  0  0  0  0
   -2.0234   -2.1728    1.0243 H   0  0  0  0  0  0  0  0  0  0  0  0
   -4.1335   -2.0574    0.8878 H   0  0  0  0  0  0  0  0  0  0  0  0
   -2.2080   -1.3902   -1.7387 H   0  0  0  0  0  0  0  0  0  0  0  0
   -3.8727   -0.0548    1.2721 H   0  0  0  0  0  0  0  0  0  0  0  0
   -3.8361    2.1817    1.5324 H   0  0  0  0  0  0  0  0  0  0  0  0
   -0.8895    1.5405    0.7554 H   0  0  0  0  0  0  0  0  0  0  0  0
   -0.5910    0.1319    1.7467 H   0  0  0  0  0  0  0  0  0  0  0  0
   -3.5746    0.1291   -1.2123 H   0  0  0  0  0  0  0  0  0  0  0  0
   -1.9101    0.6264   -1.8108 H   0  0  0  0  0  0  0  0  0  0  0  0
   -2.8592    1.6535   -0.6232 H   0  0  0  0  0  0  0  0  0  0  0  0
    0.5037    0.7512   -1.0570 H   0  0  0  0  0  0  0  0  0  0  0  0
    1.6123    0.4027    1.7127 H   0  0  0  0  0  0  0  0  0  0  0  0
    1.0304    1.9837    1.1299 H   0  0  0  0  0  0  0  0  0  0  0  0
    3.4797    1.7485    0.8377 H   0  0  0  0  0  0  0  0  0  0  0  0
    1.4537   -1.4494    0.8299 H   0  0  0  0  0  0  0  0  0  0  0  0
    0.6574   -1.8617   -0.7783 H   0  0  0  0  0  0  0  0  0  0  0  0
    2.2762   -0.2639   -1.8372 H   0  0  0  0  0  0  0  0  0  0  0  0
    2.8946   -1.8646   -1.2204 H   0  0  0  0  0  0  0  0  0  0  0  0
    3.4015   -0.7183    0.9785 H   0  0  0  0  0  0  0  0  0  0  0  0
    4.8907   -0.8812   -1.1266 H   0  0  0  0  0  0  0  0  0  0  0  0
    3.6354    1.9762   -1.4072 H   0  0  0  0  0  0  0  0  0  0  0  0
   -2.0234   -2.1728    1.0243 H   0  0  0  0  0  0  0  0  0  0  0  0
   -4.1335   -2.0574    0.8878 H   0  0  0  0  0  0  0  0  0  0  0  0
   -2.2080   -1.3902   -1.7387 H   0  0  0  0  0  0  0  0  0  0  0  0
  1  2  1  0
  3  1  1  1
  3  4  1  0
  3  5  1  0
  4  6  1  0
  6  7  1  0
  7  8  1  0
  6  9  1  0
  9 10  1  0
  8 11  1  0
 10 11  1  0
 11 12  1  0
  8 13  1  0
  3 14  1  0
 14 15  1  0
 14 16  1  0
 17 18  1  0
 19 17  1  1
 19 20  1  0
 19 21  1  0
 20 22  1  0
 22 23  1  0
 23 24  1  0
 22 25  1  0
 25 26  1  0
 24 27  1  0
 26 27  1  0
 27 28  1  0
 24 29  1  0
 19 30  1  0
 30 31  1  0
 30 32  1  0
  1 33  1  0
  2 34  1  0
  4 35  1  0
  4 36  1  0
  5 37  1  0
  5 38  1  0
  5 39  1  0
  6 40  1  0
  7 41  1  0
  7 42  1  0
  8 43  1  0
  9 44  1  0
  9 45  1  0
 10 46  1  0
 10 47  1  0
 11 48  1  0
 12 49  1  0
 13 50  1  0
 14 51  1  0
 15 52  1  0
 16 53  1  0
 17 54  1  0
 18 55  1  0
 20 56  1  0
 20 57  1  0
 21 58  1  0
 21 59  1  0
 21 60  1  0
 22 61  1  0
 23 62  1  0
 23 63  1  0
 24 64  1  0
 25 65  1  0
 25 66  1  0
 26 67  1  0
 26 68  1  0
 27 69  1  0
 28 70  1  0
 29 71  1  0
 30 72  1  0
 31 73  1  0
 32 74  1  0
M  END
>  <PDBID>  (1) 
1JS3

>  <PDB ID>  (1) 
1JS3

>  <Generic Name>  (1) 
Carbidopa

>  <Brand Name>  (1) 
Apo-levocarb - Tab 10mg/100mg#Apo-levocarb - Tab 25mg/250mg#Apo-levocarb CR#Apo-levocarb-tab 25mg/100mg#Carbidopa#Carbidopa Tablets, 25 mg#Carbidopa and Levodopa#Carbidopa, Levodopa and Entacapone#Carbidopa, Levodopa, and Entacapone#Dom-levo-carbidopa#Duodopa#Duopa#Lodosyn#Mint-levocarb#Nu-levocarb - Tab 10mg/100mg#Nu-levocarb - Tab 25 Mg/100 mg#Nu-levocarb - Tablets 25 Mg/250 mg#PMS-levocarb CR#Parcopa#Pro-lecarb-100/10 - Tab#Pro-lecarb-100/25 - Tab#Pro-levocarb - 100/25#Ratio-levodopa/carbidopa#Rytary#Sinemet#Sinemet 100/10#Sinemet 100/25#Sinemet 250/25#Sinemet CR#Sinemet CR 100/25#Sinemet CR 200/50#Stalevo#Teva-levocarbidopa

>  <DrugBank ID>  (1) 
DB00190

>  <ATC Codes>  (1) 
nan

>  <Ligand ID>  (1) 
142

>  <Target Name>  (1) 
Aromatic-L-amino-acid decarboxylase

>  <UniProt ID>  (1) 
P20711

>  <PDB ID.1>  (1) 
1JS3

>  <Seq. Identity>  (1) 
90%

$$$$
