PDB_DB00951_07
     RDKit          3D

 25 25  0  0  0  0  0  0  0  0999 V2000
    1.4742   -0.3055   -0.0744 C   0  0  2  0  0  0  0  0  0  0  0  0
    0.0075   -0.0489   -0.2755 C   0  0  0  0  0  0  0  0  0  0  0  0
   -2.7204   -0.2721    0.3087 N   0  0  0  0  0  0  0  0  0  0  0  0
    1.7781   -0.9795    1.0803 O   0  0  0  0  0  0  0  0  0  0  0  0
   -0.5848    0.7779    0.8383 C   0  0  0  0  0  0  0  0  0  0  0  0
    2.1819    0.9531   -0.1941 N   0  0  0  0  0  0  0  0  0  0  0  0
   -2.0489    0.9613    0.6291 C   0  0  0  0  0  0  0  0  0  0  0  0
    3.5574    0.8041   -0.0188 N   0  0  0  0  0  0  0  0  0  0  0  0
   -2.1761   -0.9085   -0.8687 C   0  0  0  0  0  0  0  0  0  0  0  0
   -0.7635   -1.3320   -0.5146 C   0  0  0  0  0  0  0  0  0  0  0  0
    1.8092   -0.9336   -0.9408 H   0  0  0  0  0  0  0  0  0  0  0  0
   -0.0862    0.5598   -1.2100 H   0  0  0  0  0  0  0  0  0  0  0  0
   -3.7360   -0.1860    0.3219 H   0  0  0  0  0  0  0  0  0  0  0  0
    2.5390   -1.5867    0.9136 H   0  0  0  0  0  0  0  0  0  0  0  0
   -0.1105    1.7994    0.7486 H   0  0  0  0  0  0  0  0  0  0  0  0
   -0.3002    0.4059    1.8334 H   0  0  0  0  0  0  0  0  0  0  0  0
    2.0333    1.3758   -1.1358 H   0  0  0  0  0  0  0  0  0  0  0  0
   -2.4878    1.3145    1.6019 H   0  0  0  0  0  0  0  0  0  0  0  0
   -2.2767    1.7434   -0.1057 H   0  0  0  0  0  0  0  0  0  0  0  0
    3.8105   -0.0337    0.5499 H   0  0  0  0  0  0  0  0  0  0  0  0
    4.0126    1.6749    0.3132 H   0  0  0  0  0  0  0  0  0  0  0  0
   -2.7966   -1.7848   -1.1031 H   0  0  0  0  0  0  0  0  0  0  0  0
   -2.0869   -0.1984   -1.7235 H   0  0  0  0  0  0  0  0  0  0  0  0
   -0.2797   -1.8361   -1.3730 H   0  0  0  0  0  0  0  0  0  0  0  0
   -0.7494   -1.9643    0.3990 H   0  0  0  0  0  0  0  0  0  0  0  0
  1  2  1  0
  1  4  1  0
  2  5  1  0
  1  6  1  0
  3  7  1  0
  5  7  1  0
  6  8  1  0
  3  9  1  0
  2 10  1  0
  9 10  1  0
  1 11  1  6
  2 12  1  0
  3 13  1  0
  4 14  1  0
  5 15  1  0
  5 16  1  0
  6 17  1  0
  7 18  1  0
  7 19  1  0
  8 20  1  0
  8 21  1  0
  9 22  1  0
  9 23  1  0
 10 24  1  0
 10 25  1  0
M  END
>  <PDBID>  (1) 
5KSG

>  <PDB ID>  (1) 
5KSG

>  <Generic Name>  (1) 
Isoniazid

>  <Brand Name>  (1) 
Dom-isoniazid 300mg Tablets#Isonarif#Isoniazid#Isoniazid Syrup 50mg/5ml#Isoniazid Tab 100mg#Isoniazid Tab 300mg#Isoniazid Tab 50mg#Isoniazide 100mg Tablets#Isotamine B 300#Isotamine Powder#Isotamine Syr Pediatric 50mg/5ml#Isotamine-100#Isotamine-300#Pdp-isoniazid#Rifamate#Rifater#Nicozid#Nidrazid#Nydrazid#Rimicid#Rimifon#Servizid#Tibinide

>  <DrugBank ID>  (1) 
DB00951

>  <ATC Codes>  (1) 
J04AM04#J04AM02#J04AM06#J04AM03#J04AM05#J04AM01#J04AC51#J04AC01

>  <Ligand ID>  (1) 
NIZ

>  <Target Name>  (1) 
Catalase-peroxidase

>  <UniProt ID>  (1) 
Q08129

>  <PDB ID.1>  (1) 
5KSG

>  <Seq. Identity>  (1) 
66%

$$$$
