PDB_DB01092_07
     RDKit          3D

178188  0  0  0  0  0  0  0  0999 V2000
   -1.5314    0.9914   -1.3426 C   0  0  2  0  0  0  0  0  0  0  0  0
   -1.9496   -0.2011   -2.0992 C   0  0  0  0  0  0  0  0  0  0  0  0
   -2.6499   -1.1843   -1.1456 C   0  0  1  0  0  0  0  0  0  0  0  0
   -1.5145   -1.6216   -0.2450 C   0  0  0  0  0  0  0  0  0  0  0  0
   -1.0502   -0.4766    0.6695 C   0  0  1  0  0  0  0  0  0  0  0  0
    0.1207   -1.0287    1.4362 C   0  0  0  0  0  0  0  0  0  0  0  0
    1.1836   -0.0555    1.8386 C   0  0  0  0  0  0  0  0  0  0  0  0
    1.5206    1.0091    0.8611 C   0  0  2  0  0  0  0  0  0  0  0  0
    0.7637    0.6610   -0.3864 C   0  0  1  0  0  0  0  0  0  0  0  0
   -0.6882    0.7646   -0.1295 C   0  0  1  0  0  0  0  0  0  0  0  0
    1.3967    1.2855   -1.5571 C   0  0  1  0  0  0  0  0  0  0  0  0
    2.7984    0.6360   -1.6543 C   0  0  0  0  0  0  0  0  0  0  0  0
    3.6742    0.8987   -0.5059 C   0  0  1  0  0  0  0  0  0  0  0  0
    2.9303    1.4251    0.7047 C   0  0  2  0  0  0  0  0  0  0  0  0
    3.8402    1.1397    1.8563 C   0  0  0  0  0  0  0  0  0  0  0  0
    4.9590    0.2307    1.3241 C   0  0  0  0  0  0  0  0  0  0  0  0
    4.4291   -0.2707    0.0176 C   0  0  2  0  0  0  0  0  0  0  0  0
    4.6999    1.9297   -0.9887 C   0  0  0  0  0  0  0  0  0  0  0  0
   -1.0939    1.8878    0.8375 C   0  0  0  0  0  0  0  0  0  0  0  0
    5.3685   -0.9649   -0.8656 C   0  0  1  0  0  0  0  0  0  0  0  0
    6.5498   -0.2872   -1.4064 C   0  0  0  0  0  0  0  0  0  0  0  0
    5.9643   -2.1446   -0.0936 C   0  0  0  0  0  0  0  0  0  0  0  0
    7.4554   -1.7754   -0.1250 C   0  0  0  0  0  0  0  0  0  0  0  0
   -4.9068   -1.2284   -0.6249 C   0  0  2  0  0  0  0  0  0  0  0  0
   -5.5104   -1.6692    0.6885 C   0  0  1  0  0  0  0  0  0  0  0  0
   -6.9934   -1.4471    0.7493 C   0  0  1  0  0  0  0  0  0  0  0  0
   -7.3827   -0.0314    0.3964 C   0  0  2  0  0  0  0  0  0  0  0  0
   -6.2219    0.5834   -0.3464 C   0  0  2  0  0  0  0  0  0  0  0  0
   -6.5824    1.9132   -0.9664 C   0  0  0  0  0  0  0  0  0  0  0  0
   -2.7484    1.6608   -1.0372 O   0  0  0  0  0  0  0  0  0  0  0  0
   -3.6928   -0.6015   -0.4750 O   0  0  0  0  0  0  0  0  0  0  0  0
   -2.1369   -0.2735    1.5225 O   0  0  0  0  0  0  0  0  0  0  0  0
    0.9114    0.8977   -2.8093 O   0  0  0  0  0  0  0  0  0  0  0  0
    2.9939    2.8388    0.5143 O   0  0  0  0  0  0  0  0  0  0  0  0
   -2.4907    1.7844    1.0964 O   0  0  0  0  0  0  0  0  0  0  0  0
    7.5193   -1.3283   -1.4660 O   0  0  0  0  0  0  0  0  0  0  0  0
    8.2609   -2.8653    0.0916 O   0  0  0  0  0  0  0  0  0  0  0  0
   -5.2706   -3.0274    0.8934 O   0  0  0  0  0  0  0  0  0  0  0  0
   -7.6981   -2.3900    0.0017 O   0  0  0  0  0  0  0  0  0  0  0  0
   -7.7072    0.7157    1.5440 O   0  0  0  0  0  0  0  0  0  0  0  0
   -5.7732   -0.3305   -1.2794 O   0  0  0  0  0  0  0  0  0  0  0  0
   -1.5113    0.9359   -1.2100 C   0  0  2  0  0  0  0  0  0  0  0  0
   -1.6354   -0.4510   -1.7736 C   0  0  0  0  0  0  0  0  0  0  0  0
   -2.3621   -1.2577   -0.6841 C   0  0  1  0  0  0  0  0  0  0  0  0
   -1.4018   -1.3444    0.4324 C   0  0  0  0  0  0  0  0  0  0  0  0
   -0.8909   -0.0760    1.0136 C   0  0  1  0  0  0  0  0  0  0  0  0
    0.3428   -0.4748    1.7869 C   0  0  0  0  0  0  0  0  0  0  0  0
    1.3636    0.5699    2.0058 C   0  0  0  0  0  0  0  0  0  0  0  0
    1.6525    1.4640    0.8423 C   0  0  2  0  0  0  0  0  0  0  0  0
    0.8332    0.9326   -0.3190 C   0  0  1  0  0  0  0  0  0  0  0  0
   -0.5970    1.0165   -0.0046 C   0  0  1  0  0  0  0  0  0  0  0  0
    1.4107    1.4744   -1.5518 C   0  0  1  0  0  0  0  0  0  0  0  0
    2.7759    0.7737   -1.7293 C   0  0  0  0  0  0  0  0  0  0  0  0
    3.6980    0.9629   -0.5926 C   0  0  1  0  0  0  0  0  0  0  0  0
    3.0859    1.7301    0.5482 C   0  0  2  0  0  0  0  0  0  0  0  0
    4.0330    1.4770    1.6972 C   0  0  0  0  0  0  0  0  0  0  0  0
    4.7572    0.1794    1.3977 C   0  0  0  0  0  0  0  0  0  0  0  0
    4.1828   -0.2710    0.0751 C   0  0  2  0  0  0  0  0  0  0  0  0
    4.8624    1.7984   -1.1387 C   0  0  0  0  0  0  0  0  0  0  0  0
   -1.0056    2.3071    0.7045 C   0  0  0  0  0  0  0  0  0  0  0  0
    5.0429   -1.1892   -0.6870 C   0  0  0  0  0  0  0  0  0  0  0  0
    5.3390   -2.4021    0.1819 C   0  0  0  0  0  0  0  0  0  0  0  0
    6.3893   -0.7440   -1.1025 C   0  0  0  0  0  0  0  0  0  0  0  0
    7.3071   -1.9364   -0.7427 C   0  0  0  0  0  0  0  0  0  0  0  0
   -4.6535   -1.5304   -0.4598 C   0  0  2  0  0  0  0  0  0  0  0  0
   -5.3555   -1.7115    0.8889 C   0  0  1  0  0  0  0  0  0  0  0  0
   -6.8528   -1.6369    0.7483 C   0  0  1  0  0  0  0  0  0  0  0  0
   -7.3050   -0.3188    0.1572 C   0  0  2  0  0  0  0  0  0  0  0  0
   -6.1536    0.2038   -0.6794 C   0  0  2  0  0  0  0  0  0  0  0  0
   -6.6199    1.2244   -1.6658 C   0  0  0  0  0  0  0  0  0  0  0  0
   -2.8367    1.2540   -0.8367 O   0  0  0  0  0  0  0  0  0  0  0  0
   -3.5413   -0.7149   -0.2877 O   0  0  0  0  0  0  0  0  0  0  0  0
   -1.8540    0.3464    1.9613 O   0  0  0  0  0  0  0  0  0  0  0  0
    0.7967    1.1660   -2.7525 O   0  0  0  0  0  0  0  0  0  0  0  0
    3.2753    3.0961    0.1963 O   0  0  0  0  0  0  0  0  0  0  0  0
   -2.3829    2.2377    1.0638 O   0  0  0  0  0  0  0  0  0  0  0  0
    6.6994   -2.3568    0.4466 O   0  0  0  0  0  0  0  0  0  0  0  0
    7.2648   -2.9153   -1.7100 O   0  0  0  0  0  0  0  0  0  0  0  0
   -5.0531   -3.0188    1.3051 O   0  0  0  0  0  0  0  0  0  0  0  0
   -7.3053   -2.6510   -0.0926 O   0  0  0  0  0  0  0  0  0  0  0  0
   -7.6873    0.5861    1.1430 O   0  0  0  0  0  0  0  0  0  0  0  0
   -5.5899   -0.9327   -1.3032 O   0  0  0  0  0  0  0  0  0  0  0  0
   -1.0319    1.7247   -1.9964 H   0  0  0  0  0  0  0  0  0  0  0  0
   -1.2091   -0.7890   -2.6203 H   0  0  0  0  0  0  0  0  0  0  0  0
   -2.7311    0.0921   -2.8274 H   0  0  0  0  0  0  0  0  0  0  0  0
   -2.9852   -2.0676   -1.6934 H   0  0  0  0  0  0  0  0  0  0  0  0
   -0.6840   -1.9500   -0.9096 H   0  0  0  0  0  0  0  0  0  0  0  0
   -1.8604   -2.4186    0.4288 H   0  0  0  0  0  0  0  0  0  0  0  0
   -0.2879   -1.4580    2.3775 H   0  0  0  0  0  0  0  0  0  0  0  0
    0.5793   -1.8978    0.9047 H   0  0  0  0  0  0  0  0  0  0  0  0
    0.9677    0.3748    2.8639 H   0  0  0  0  0  0  0  0  0  0  0  0
    2.0952   -0.6710    2.0184 H   0  0  0  0  0  0  0  0  0  0  0  0
    1.0380    1.9505    1.2769 H   0  0  0  0  0  0  0  0  0  0  0  0
    0.9828   -0.4472   -0.5526 H   0  0  0  0  0  0  0  0  0  0  0  0
    1.5134    2.3860   -1.4966 H   0  0  0  0  0  0  0  0  0  0  0  0
    3.2685    0.8706   -2.6270 H   0  0  0  0  0  0  0  0  0  0  0  0
    2.5741   -0.4701   -1.6989 H   0  0  0  0  0  0  0  0  0  0  0  0
    4.3197    2.0744    2.2850 H   0  0  0  0  0  0  0  0  0  0  0  0
    3.3736    0.6928    2.7459 H   0  0  0  0  0  0  0  0  0  0  0  0
    5.1661   -0.5813    2.0521 H   0  0  0  0  0  0  0  0  0  0  0  0
    5.8561    0.8391    1.2478 H   0  0  0  0  0  0  0  0  0  0  0  0
    3.6371   -1.0394    0.3000 H   0  0  0  0  0  0  0  0  0  0  0  0
    4.9980    1.7449   -2.0156 H   0  0  0  0  0  0  0  0  0  0  0  0
    5.4671    2.1527   -0.2556 H   0  0  0  0  0  0  0  0  0  0  0  0
    4.0807    2.8865   -1.0506 H   0  0  0  0  0  0  0  0  0  0  0  0
   -0.9206    2.8808    0.4822 H   0  0  0  0  0  0  0  0  0  0  0  0
   -0.7707    1.6655    1.8995 H   0  0  0  0  0  0  0  0  0  0  0  0
    4.7779   -1.3675   -1.7453 H   0  0  0  0  0  0  0  0  0  0  0  0
    6.4686   -0.0015   -2.4929 H   0  0  0  0  0  0  0  0  0  0  0  0
    7.0429    0.4748   -0.7928 H   0  0  0  0  0  0  0  0  0  0  0  0
    5.6583   -2.1697    0.9430 H   0  0  0  0  0  0  0  0  0  0  0  0
    5.8441   -3.0868   -0.6502 H   0  0  0  0  0  0  0  0  0  0  0  0
    7.6869   -0.9471    0.5525 H   0  0  0  0  0  0  0  0  0  0  0  0
   -4.7908   -2.1096   -1.2815 H   0  0  0  0  0  0  0  0  0  0  0  0
   -5.0602   -1.1334    1.5481 H   0  0  0  0  0  0  0  0  0  0  0  0
   -7.2953   -1.5973    1.8209 H   0  0  0  0  0  0  0  0  0  0  0  0
   -8.3035   -0.0560   -0.2215 H   0  0  0  0  0  0  0  0  0  0  0  0
   -5.4223    0.7864    0.3989 H   0  0  0  0  0  0  0  0  0  0  0  0
   -5.6262    2.3322   -1.3774 H   0  0  0  0  0  0  0  0  0  0  0  0
   -7.3483    1.8303   -1.7438 H   0  0  0  0  0  0  0  0  0  0  0  0
   -6.8916    2.5873   -0.1556 H   0  0  0  0  0  0  0  0  0  0  0  0
   -2.6759    2.6251   -1.0743 H   0  0  0  0  0  0  0  0  0  0  0  0
   -2.5751   -1.1219    1.7172 H   0  0  0  0  0  0  0  0  0  0  0  0
    1.0509   -0.0540   -2.9504 H   0  0  0  0  0  0  0  0  0  0  0  0
    3.8079    3.2018    0.9400 H   0  0  0  0  0  0  0  0  0  0  0  0
   -2.6813    2.5355    1.7086 H   0  0  0  0  0  0  0  0  0  0  0  0
    7.9176   -3.7023   -0.2594 H   0  0  0  0  0  0  0  0  0  0  0  0
   -4.4279   -3.1855    1.3883 H   0  0  0  0  0  0  0  0  0  0  0  0
   -7.6536   -3.2620    0.4827 H   0  0  0  0  0  0  0  0  0  0  0  0
   -8.6866    0.8262    1.6472 H   0  0  0  0  0  0  0  0  0  0  0  0
   -1.2513    1.7247   -1.9028 H   0  0  0  0  0  0  0  0  0  0  0  0
   -0.6754   -0.9855   -1.8968 H   0  0  0  0  0  0  0  0  0  0  0  0
   -2.2023   -0.4121   -2.6997 H   0  0  0  0  0  0  0  0  0  0  0  0
   -2.5320   -2.2777   -1.0779 H   0  0  0  0  0  0  0  0  0  0  0  0
   -0.5145   -1.9441    0.0735 H   0  0  0  0  0  0  0  0  0  0  0  0
   -1.8284   -1.9455    1.2603 H   0  0  0  0  0  0  0  0  0  0  0  0
    0.0028   -0.8557    2.7732 H   0  0  0  0  0  0  0  0  0  0  0  0
    0.8464   -1.3683    1.3075 H   0  0  0  0  0  0  0  0  0  0  0  0
    1.0792    1.1331    2.9460 H   0  0  0  0  0  0  0  0  0  0  0  0
    2.2884    0.0123    2.3460 H   0  0  0  0  0  0  0  0  0  0  0  0
    1.2726    2.4851    1.1574 H   0  0  0  0  0  0  0  0  0  0  0  0
    1.0916   -0.1793   -0.3317 H   0  0  0  0  0  0  0  0  0  0  0  0
    1.5595    2.5797   -1.5531 H   0  0  0  0  0  0  0  0  0  0  0  0
    3.1596    1.1206   -2.7158 H   0  0  0  0  0  0  0  0  0  0  0  0
    2.5527   -0.3044   -1.8567 H   0  0  0  0  0  0  0  0  0  0  0  0
    4.8489    2.2632    1.7299 H   0  0  0  0  0  0  0  0  0  0  0  0
    3.5813    1.5276    2.6871 H   0  0  0  0  0  0  0  0  0  0  0  0
    4.5930   -0.6021    2.1676 H   0  0  0  0  0  0  0  0  0  0  0  0
    5.8669    0.3040    1.3446 H   0  0  0  0  0  0  0  0  0  0  0  0
    3.2616   -0.8659    0.3587 H   0  0  0  0  0  0  0  0  0  0  0  0
    5.2939    1.3981   -2.0519 H   0  0  0  0  0  0  0  0  0  0  0  0
    4.3394    2.7523   -1.4786 H   0  0  0  0  0  0  0  0  0  0  0  0
    5.5397    2.1430   -0.3582 H   0  0  0  0  0  0  0  0  0  0  0  0
   -0.9112    3.2019    0.1113 H   0  0  0  0  0  0  0  0  0  0  0  0
   -0.5701    2.3621    1.7475 H   0  0  0  0  0  0  0  0  0  0  0  0
    4.4475   -1.5313   -1.5820 H   0  0  0  0  0  0  0  0  0  0  0  0
    4.7881   -2.3556    1.1439 H   0  0  0  0  0  0  0  0  0  0  0  0
    5.0930   -3.3025   -0.4057 H   0  0  0  0  0  0  0  0  0  0  0  0
    6.7941    0.1683   -0.6886 H   0  0  0  0  0  0  0  0  0  0  0  0
    6.4402   -0.6916   -2.2080 H   0  0  0  0  0  0  0  0  0  0  0  0
    8.3275   -1.5828   -0.5669 H   0  0  0  0  0  0  0  0  0  0  0  0
   -4.3838   -2.5031   -0.9013 H   0  0  0  0  0  0  0  0  0  0  0  0
   -5.0283   -0.9610    1.6279 H   0  0  0  0  0  0  0  0  0  0  0  0
   -7.2902   -1.7230    1.7419 H   0  0  0  0  0  0  0  0  0  0  0  0
   -8.1676   -0.4520   -0.5303 H   0  0  0  0  0  0  0  0  0  0  0  0
   -5.3957    0.6793    0.0005 H   0  0  0  0  0  0  0  0  0  0  0  0
   -5.8080    1.9640   -1.8861 H   0  0  0  0  0  0  0  0  0  0  0  0
   -6.9614    0.8035   -2.6273 H   0  0  0  0  0  0  0  0  0  0  0  0
   -7.4618    1.8149   -1.2445 H   0  0  0  0  0  0  0  0  0  0  0  0
   -3.3684    1.5654   -1.6062 H   0  0  0  0  0  0  0  0  0  0  0  0
   -2.4651   -0.3731    2.2050 H   0  0  0  0  0  0  0  0  0  0  0  0
    1.0196    0.2475   -3.0378 H   0  0  0  0  0  0  0  0  0  0  0  0
    2.4724    3.6241    0.4373 H   0  0  0  0  0  0  0  0  0  0  0  0
   -2.6073    3.0986    1.4480 H   0  0  0  0  0  0  0  0  0  0  0  0
    7.3451   -3.8161   -1.2899 H   0  0  0  0  0  0  0  0  0  0  0  0
   -4.3232   -3.0452    1.9594 H   0  0  0  0  0  0  0  0  0  0  0  0
   -8.0075   -3.1858    0.3525 H   0  0  0  0  0  0  0  0  0  0  0  0
   -8.6687    0.4879    1.3335 H   0  0  0  0  0  0  0  0  0  0  0  0
  1  2  1  0
  2  3  1  0
  3  4  1  0
  4  5  1  0
  5  6  1  0
  6  7  1  0
  7  8  1  0
  8  9  1  0
  1 10  1  0
  5 10  1  0
  9 10  1  0
  9 11  1  0
 11 12  1  0
 12 13  1  0
  8 14  1  0
 13 14  1  0
 14 15  1  0
 15 16  1  0
 13 17  1  0
 16 17  1  0
 13 18  1  6
 10 19  1  1
 17 20  1  0
 20 21  1  0
 20 22  1  0
 22 23  1  0
 24 25  1  0
 25 26  1  0
 26 27  1  0
 27 28  1  0
 28 29  1  0
  1 30  1  0
  3 31  1  0
 24 31  1  0
  5 32  1  1
 11 33  1  0
 14 34  1  6
 19 35  1  0
 21 36  1  0
 23 36  1  0
 23 37  1  0
 25 38  1  0
 26 39  1  0
 27 40  1  0
 24 41  1  0
 28 41  1  0
 42 43  1  0
 43 44  1  0
 44 45  1  0
 45 46  1  0
 46 47  1  0
 47 48  1  0
 48 49  1  0
 49 50  1  0
 42 51  1  0
 46 51  1  0
 50 51  1  0
 50 52  1  0
 52 53  1  0
 53 54  1  0
 49 55  1  0
 54 55  1  0
 55 56  1  0
 56 57  1  0
 54 58  1  0
 57 58  1  0
 54 59  1  6
 51 60  1  1
 58 61  1  0
 61 62  1  0
 61 63  1  0
 63 64  1  0
 65 66  1  0
 66 67  1  0
 67 68  1  0
 68 69  1  0
 69 70  1  0
 42 71  1  0
 44 72  1  0
 65 72  1  0
 46 73  1  1
 52 74  1  0
 55 75  1  6
 60 76  1  0
 62 77  1  0
 64 77  1  0
 64 78  1  0
 66 79  1  0
 67 80  1  0
 68 81  1  0
 65 82  1  0
 69 82  1  0
  1 83  1  6
  2 84  1  0
  2 85  1  0
  3 86  1  6
  4 87  1  0
  4 88  1  0
  6 89  1  0
  6 90  1  0
  7 91  1  0
  7 92  1  0
  8 93  1  1
  9 94  1  6
 11 95  1  1
 12 96  1  0
 12 97  1  0
 15 98  1  0
 15 99  1  0
 16100  1  0
 16101  1  0
 17102  1  1
 18103  1  0
 18104  1  0
 18105  1  0
 19106  1  0
 19107  1  0
 20108  1  6
 21109  1  0
 21110  1  0
 22111  1  0
 22112  1  0
 23113  1  0
 24114  1  6
 25115  1  1
 26116  1  1
 27117  1  6
 28118  1  1
 29119  1  0
 29120  1  0
 29121  1  0
 30122  1  0
 32123  1  0
 33124  1  0
 34125  1  0
 35126  1  0
 37127  1  0
 38128  1  0
 39129  1  0
 40130  1  0
 42131  1  6
 43132  1  0
 43133  1  0
 44134  1  6
 45135  1  0
 45136  1  0
 47137  1  0
 47138  1  0
 48139  1  0
 48140  1  0
 49141  1  1
 50142  1  6
 52143  1  1
 53144  1  0
 53145  1  0
 56146  1  0
 56147  1  0
 57148  1  0
 57149  1  0
 58150  1  1
 59151  1  0
 59152  1  0
 59153  1  0
 60154  1  0
 60155  1  0
 61156  1  0
 62157  1  0
 62158  1  0
 63159  1  0
 63160  1  0
 64161  1  0
 65162  1  6
 66163  1  1
 67164  1  1
 68165  1  6
 69166  1  1
 70167  1  0
 70168  1  0
 70169  1  0
 71170  1  0
 73171  1  0
 74172  1  0
 75173  1  0
 76174  1  0
 78175  1  0
 79176  1  0
 80177  1  0
 81178  1  0
M  END
>  <PDBID>  (1) 
3N23

>  <PDB ID>  (1) 
3N23

>  <Generic Name>  (1) 
Ouabain

>  <Brand Name>  (1) 
Strodival

>  <DrugBank ID>  (1) 
DB01092

>  <ATC Codes>  (1) 
C01AC01

>  <Ligand ID>  (1) 
OBN

>  <Target Name>  (1) 
Sodium/potassium-transporting ATPase subunit alpha-1

>  <UniProt ID>  (1) 
P05023

>  <PDB ID.1>  (1) 
3N23

>  <Seq. Identity>  (1) 
95%

$$$$
