PDB_DB00276_07
     RDKit          3D

138144  0  0  0  0  0  0  0  0999 V2000
    1.4859   -2.6038    0.8894 C   0  0  0  0  0  0  0  0  0  0  0  0
    1.7709   -1.6785   -0.0835 O   0  0  0  0  0  0  0  0  0  0  0  0
    1.5815   -0.3842    0.3819 C   0  0  0  0  0  0  0  0  0  0  0  0
    3.0211    0.1712    0.5139 C   0  0  0  0  0  0  0  0  0  0  0  0
    3.7116   -0.2933   -0.7486 C   0  0  0  0  0  0  0  0  0  0  0  0
    4.9819    0.3151   -0.9863 N   0  0  0  0  0  0  0  0  0  0  0  0
    6.1817    0.2587   -0.1358 S   0  0  0  0  0  0  0  0  0  0  0  0
    6.7527    1.9918    0.1758 C   0  0  0  0  0  0  0  0  0  0  0  0
    6.6371   -0.6481    0.8721 O   0  0  0  0  0  0  0  0  0  0  0  0
    7.5829    0.0998   -1.5450 O   0  0  0  0  0  0  0  0  0  0  0  0
    2.8236   -0.1272   -1.9380 C   0  0  0  0  0  0  0  0  0  0  0  0
    1.7338    0.8874   -1.6974 C   0  0  0  0  0  0  0  0  0  0  0  0
    0.8061    0.4901   -0.5808 C   0  0  0  0  0  0  0  0  0  0  0  0
   -0.4294   -0.0328   -1.0170 N   0  0  0  0  0  0  0  0  0  0  0  0
   -1.4634   -0.2304   -0.0373 C   0  0  0  0  0  0  0  0  0  0  0  0
   -1.8912    1.0674    0.5287 C   0  0  0  0  0  0  0  0  0  0  0  0
   -1.5461    1.2008    1.9883 C   0  0  0  0  0  0  0  0  0  0  0  0
   -2.3382    2.2344    2.7113 C   0  0  0  0  0  0  0  0  0  0  0  0
   -3.0127    3.2779    1.8884 C   0  0  0  0  0  0  0  0  0  0  0  0
   -3.4719    2.8898    0.5314 C   0  0  0  0  0  0  0  0  0  0  0  0
   -3.3609    1.3963    0.4024 C   0  0  0  0  0  0  0  0  0  0  0  0
   -3.9550    0.8353   -0.7727 N   0  0  0  0  0  0  0  0  0  0  0  0
   -3.9410   -0.6028   -0.5004 C   0  0  0  0  0  0  0  0  0  0  0  0
   -4.8194   -1.3560   -1.4678 C   0  0  0  0  0  0  0  0  0  0  0  0
   -4.8329   -2.7995   -1.0189 C   0  0  0  0  0  0  0  0  0  0  0  0
   -3.8369   -3.0761    0.0569 C   0  0  0  0  0  0  0  0  0  0  0  0
   -2.4787   -2.5014   -0.1733 C   0  0  0  0  0  0  0  0  0  0  0  0
   -2.5270   -1.0654   -0.6609 C   0  0  0  0  0  0  0  0  0  0  0  0
    1.4859   -2.6038    0.8894 C   0  0  0  0  0  0  0  0  0  0  0  0
    1.7709   -1.6785   -0.0835 O   0  0  0  0  0  0  0  0  0  0  0  0
    1.5815   -0.3842    0.3819 C   0  0  0  0  0  0  0  0  0  0  0  0
    3.0211    0.1712    0.5139 C   0  0  0  0  0  0  0  0  0  0  0  0
    3.7116   -0.2933   -0.7486 C   0  0  0  0  0  0  0  0  0  0  0  0
    4.9819    0.3151   -0.9863 N   0  0  0  0  0  0  0  0  0  0  0  0
    6.1817    0.2587   -0.1358 S   0  0  0  0  0  0  0  0  0  0  0  0
    6.7527    1.9918    0.1758 C   0  0  0  0  0  0  0  0  0  0  0  0
    6.6371   -0.6481    0.8721 O   0  0  0  0  0  0  0  0  0  0  0  0
    7.5829    0.0998   -1.5450 O   0  0  0  0  0  0  0  0  0  0  0  0
    2.8236   -0.1272   -1.9380 C   0  0  0  0  0  0  0  0  0  0  0  0
    1.7338    0.8874   -1.6974 C   0  0  0  0  0  0  0  0  0  0  0  0
    0.8061    0.4901   -0.5808 C   0  0  0  0  0  0  0  0  0  0  0  0
   -0.4294   -0.0328   -1.0170 N   0  0  0  0  0  0  0  0  0  0  0  0
   -1.4634   -0.2304   -0.0373 C   0  0  0  0  0  0  0  0  0  0  0  0
   -1.8912    1.0674    0.5287 C   0  0  0  0  0  0  0  0  0  0  0  0
   -1.5461    1.2008    1.9883 C   0  0  0  0  0  0  0  0  0  0  0  0
   -2.3382    2.2344    2.7113 C   0  0  0  0  0  0  0  0  0  0  0  0
   -3.0127    3.2779    1.8884 C   0  0  0  0  0  0  0  0  0  0  0  0
   -3.4719    2.8898    0.5314 C   0  0  0  0  0  0  0  0  0  0  0  0
   -3.3609    1.3963    0.4024 C   0  0  0  0  0  0  0  0  0  0  0  0
   -3.9550    0.8353   -0.7727 N   0  0  0  0  0  0  0  0  0  0  0  0
   -3.9410   -0.6028   -0.5004 C   0  0  0  0  0  0  0  0  0  0  0  0
   -4.8194   -1.3560   -1.4678 C   0  0  0  0  0  0  0  0  0  0  0  0
   -4.8329   -2.7995   -1.0189 C   0  0  0  0  0  0  0  0  0  0  0  0
   -3.8369   -3.0761    0.0569 C   0  0  0  0  0  0  0  0  0  0  0  0
   -2.4787   -2.5014   -0.1733 C   0  0  0  0  0  0  0  0  0  0  0  0
   -2.5270   -1.0654   -0.6609 C   0  0  0  0  0  0  0  0  0  0  0  0
    0.4582   -2.5891    1.2783 H   0  0  0  0  0  0  0  0  0  0  0  0
    1.6984   -3.6483    0.5608 H   0  0  0  0  0  0  0  0  0  0  0  0
    2.1419   -2.4673    1.7991 H   0  0  0  0  0  0  0  0  0  0  0  0
    1.2023   -0.3881    1.4042 H   0  0  0  0  0  0  0  0  0  0  0  0
    3.4562   -0.3640    1.3792 H   0  0  0  0  0  0  0  0  0  0  0  0
    3.0401    1.2405    0.6896 H   0  0  0  0  0  0  0  0  0  0  0  0
    3.9113   -1.3892   -0.5823 H   0  0  0  0  0  0  0  0  0  0  0  0
    4.8512    1.0256   -1.7631 H   0  0  0  0  0  0  0  0  0  0  0  0
    6.5074    2.5508   -0.7459 H   0  0  0  0  0  0  0  0  0  0  0  0
    6.1723    2.3228    1.0435 H   0  0  0  0  0  0  0  0  0  0  0  0
    7.8354    1.9043    0.3632 H   0  0  0  0  0  0  0  0  0  0  0  0
    6.9944   -1.5590    0.7275 H   0  0  0  0  0  0  0  0  0  0  0  0
    8.3062    0.1482   -0.8543 H   0  0  0  0  0  0  0  0  0  0  0  0
    2.3135   -1.0724   -2.2593 H   0  0  0  0  0  0  0  0  0  0  0  0
    3.4029    0.2740   -2.8234 H   0  0  0  0  0  0  0  0  0  0  0  0
    1.2030    0.9999   -2.6676 H   0  0  0  0  0  0  0  0  0  0  0  0
    2.1445    1.8971   -1.4843 H   0  0  0  0  0  0  0  0  0  0  0  0
    0.5826    1.4426   -0.0134 H   0  0  0  0  0  0  0  0  0  0  0  0
   -0.3838   -0.7686   -1.7489 H   0  0  0  0  0  0  0  0  0  0  0  0
   -0.9909   -0.8316    0.8034 H   0  0  0  0  0  0  0  0  0  0  0  0
   -1.3695    1.8913   -0.0163 H   0  0  0  0  0  0  0  0  0  0  0  0
   -1.7318    0.2136    2.4589 H   0  0  0  0  0  0  0  0  0  0  0  0
   -0.4647    1.3959    2.0785 H   0  0  0  0  0  0  0  0  0  0  0  0
   -3.1131    1.7472    3.3656 H   0  0  0  0  0  0  0  0  0  0  0  0
   -1.6563    2.7493    3.4221 H   0  0  0  0  0  0  0  0  0  0  0  0
   -2.3775    4.1915    1.7945 H   0  0  0  0  0  0  0  0  0  0  0  0
   -3.9179    3.6628    2.4516 H   0  0  0  0  0  0  0  0  0  0  0  0
   -4.5380    3.2300    0.3596 H   0  0  0  0  0  0  0  0  0  0  0  0
   -2.8097    3.4092   -0.2254 H   0  0  0  0  0  0  0  0  0  0  0  0
   -3.8859    0.9600    1.2800 H   0  0  0  0  0  0  0  0  0  0  0  0
   -4.9137    1.2024   -0.8657 H   0  0  0  0  0  0  0  0  0  0  0  0
   -4.3451   -0.7273    0.5180 H   0  0  0  0  0  0  0  0  0  0  0  0
   -5.8217   -0.9249   -1.5904 H   0  0  0  0  0  0  0  0  0  0  0  0
   -4.3094   -1.3448   -2.4559 H   0  0  0  0  0  0  0  0  0  0  0  0
   -4.7782   -3.5094   -1.8651 H   0  0  0  0  0  0  0  0  0  0  0  0
   -5.8531   -2.9541   -0.5603 H   0  0  0  0  0  0  0  0  0  0  0  0
   -4.1824   -2.7485    1.0635 H   0  0  0  0  0  0  0  0  0  0  0  0
   -3.7130   -4.1973    0.1207 H   0  0  0  0  0  0  0  0  0  0  0  0
   -1.9293   -2.5033    0.7926 H   0  0  0  0  0  0  0  0  0  0  0  0
   -1.9618   -3.1067   -0.9389 H   0  0  0  0  0  0  0  0  0  0  0  0
   -2.3408   -1.0819   -1.7803 H   0  0  0  0  0  0  0  0  0  0  0  0
    0.4582   -2.5891    1.2783 H   0  0  0  0  0  0  0  0  0  0  0  0
    1.6984   -3.6483    0.5608 H   0  0  0  0  0  0  0  0  0  0  0  0
    2.1419   -2.4673    1.7991 H   0  0  0  0  0  0  0  0  0  0  0  0
    1.2023   -0.3881    1.4042 H   0  0  0  0  0  0  0  0  0  0  0  0
    3.4562   -0.3640    1.3792 H   0  0  0  0  0  0  0  0  0  0  0  0
    3.0401    1.2405    0.6896 H   0  0  0  0  0  0  0  0  0  0  0  0
    3.9113   -1.3892   -0.5823 H   0  0  0  0  0  0  0  0  0  0  0  0
    4.8512    1.0256   -1.7631 H   0  0  0  0  0  0  0  0  0  0  0  0
    6.5074    2.5508   -0.7459 H   0  0  0  0  0  0  0  0  0  0  0  0
    6.1723    2.3228    1.0435 H   0  0  0  0  0  0  0  0  0  0  0  0
    7.8354    1.9043    0.3632 H   0  0  0  0  0  0  0  0  0  0  0  0
    6.9944   -1.5590    0.7275 H   0  0  0  0  0  0  0  0  0  0  0  0
    8.3062    0.1482   -0.8543 H   0  0  0  0  0  0  0  0  0  0  0  0
    2.3135   -1.0724   -2.2593 H   0  0  0  0  0  0  0  0  0  0  0  0
    3.4029    0.2740   -2.8234 H   0  0  0  0  0  0  0  0  0  0  0  0
    1.2030    0.9999   -2.6676 H   0  0  0  0  0  0  0  0  0  0  0  0
    2.1445    1.8971   -1.4843 H   0  0  0  0  0  0  0  0  0  0  0  0
    0.5826    1.4426   -0.0134 H   0  0  0  0  0  0  0  0  0  0  0  0
   -0.3838   -0.7686   -1.7489 H   0  0  0  0  0  0  0  0  0  0  0  0
   -0.9909   -0.8316    0.8034 H   0  0  0  0  0  0  0  0  0  0  0  0
   -1.3695    1.8913   -0.0163 H   0  0  0  0  0  0  0  0  0  0  0  0
   -1.7318    0.2136    2.4589 H   0  0  0  0  0  0  0  0  0  0  0  0
   -0.4647    1.3959    2.0785 H   0  0  0  0  0  0  0  0  0  0  0  0
   -3.1131    1.7472    3.3656 H   0  0  0  0  0  0  0  0  0  0  0  0
   -1.6563    2.7493    3.4221 H   0  0  0  0  0  0  0  0  0  0  0  0
   -2.3775    4.1915    1.7945 H   0  0  0  0  0  0  0  0  0  0  0  0
   -3.9179    3.6628    2.4516 H   0  0  0  0  0  0  0  0  0  0  0  0
   -4.5380    3.2300    0.3596 H   0  0  0  0  0  0  0  0  0  0  0  0
   -2.8097    3.4092   -0.2254 H   0  0  0  0  0  0  0  0  0  0  0  0
   -3.8859    0.9600    1.2800 H   0  0  0  0  0  0  0  0  0  0  0  0
   -4.9137    1.2024   -0.8657 H   0  0  0  0  0  0  0  0  0  0  0  0
   -4.3451   -0.7273    0.5180 H   0  0  0  0  0  0  0  0  0  0  0  0
   -5.8217   -0.9249   -1.5904 H   0  0  0  0  0  0  0  0  0  0  0  0
   -4.3094   -1.3448   -2.4559 H   0  0  0  0  0  0  0  0  0  0  0  0
   -4.7782   -3.5094   -1.8651 H   0  0  0  0  0  0  0  0  0  0  0  0
   -5.8531   -2.9541   -0.5603 H   0  0  0  0  0  0  0  0  0  0  0  0
   -4.1824   -2.7485    1.0635 H   0  0  0  0  0  0  0  0  0  0  0  0
   -3.7130   -4.1973    0.1207 H   0  0  0  0  0  0  0  0  0  0  0  0
   -1.9293   -2.5033    0.7926 H   0  0  0  0  0  0  0  0  0  0  0  0
   -1.9618   -3.1067   -0.9389 H   0  0  0  0  0  0  0  0  0  0  0  0
   -2.3408   -1.0819   -1.7803 H   0  0  0  0  0  0  0  0  0  0  0  0
  1  2  1  0
  2  3  1  0
  3  4  1  0
  4  5  1  0
  5  6  1  0
  6  7  1  0
  7  8  1  0
  7  9  1  0
  7 10  1  0
  5 11  1  0
 11 12  1  0
  3 13  1  0
 12 13  1  0
 13 14  1  0
 14 15  1  0
 15 16  1  0
 16 17  1  0
 17 18  1  0
 18 19  1  0
 19 20  1  0
 16 21  1  0
 20 21  1  0
 21 22  1  0
 22 23  1  0
 23 24  1  0
 24 25  1  0
 25 26  1  0
 26 27  1  0
 15 28  1  0
 23 28  1  0
 27 28  1  0
 29 30  1  0
 30 31  1  0
 31 32  1  0
 32 33  1  0
 33 34  1  0
 34 35  1  0
 35 36  1  0
 35 37  1  0
 35 38  1  0
 33 39  1  0
 39 40  1  0
 31 41  1  0
 40 41  1  0
 41 42  1  0
 42 43  1  0
 43 44  1  0
 44 45  1  0
 45 46  1  0
 46 47  1  0
 47 48  1  0
 44 49  1  0
 48 49  1  0
 49 50  1  0
 50 51  1  0
 51 52  1  0
 52 53  1  0
 53 54  1  0
 54 55  1  0
 43 56  1  0
 51 56  1  0
 55 56  1  0
  1 57  1  0
  1 58  1  0
  1 59  1  0
  3 60  1  0
  4 61  1  0
  4 62  1  0
  5 63  1  0
  6 64  1  0
  8 65  1  0
  8 66  1  0
  8 67  1  0
  9 68  1  0
 10 69  1  0
 11 70  1  0
 11 71  1  0
 12 72  1  0
 12 73  1  0
 13 74  1  0
 14 75  1  0
 15 76  1  0
 16 77  1  0
 17 78  1  0
 17 79  1  0
 18 80  1  0
 18 81  1  0
 19 82  1  0
 19 83  1  0
 20 84  1  0
 20 85  1  0
 21 86  1  0
 22 87  1  0
 23 88  1  0
 24 89  1  0
 24 90  1  0
 25 91  1  0
 25 92  1  0
 26 93  1  0
 26 94  1  0
 27 95  1  0
 27 96  1  0
 28 97  1  0
 29 98  1  0
 29 99  1  0
 29100  1  0
 31101  1  0
 32102  1  0
 32103  1  0
 33104  1  0
 34105  1  0
 36106  1  0
 36107  1  0
 36108  1  0
 37109  1  0
 38110  1  0
 39111  1  0
 39112  1  0
 40113  1  0
 40114  1  0
 41115  1  0
 42116  1  0
 43117  1  0
 44118  1  0
 45119  1  0
 45120  1  0
 46121  1  0
 46122  1  0
 47123  1  0
 47124  1  0
 48125  1  0
 48126  1  0
 49127  1  0
 50128  1  0
 51129  1  0
 52130  1  0
 52131  1  0
 53132  1  0
 53133  1  0
 54134  1  0
 54135  1  0
 55136  1  0
 55137  1  0
 56138  1  0
M  END
>  <PDBID>  (1) 
4G0U

>  <PDB ID>  (1) 
4G0U

>  <Generic Name>  (1) 
Amsacrine

>  <Brand Name>  (1) 
Amsa Pd Inj 50mg/ml#AMSA P-D#Amekrin#Amsidine#Amsidyl

>  <DrugBank ID>  (1) 
DB00276

>  <ATC Codes>  (1) 
L01XX01

>  <Ligand ID>  (1) 
ASW

>  <Target Name>  (1) 
DNA topoisomerase 2-alpha

>  <UniProt ID>  (1) 
P11388

>  <PDB ID.1>  (1) 
4G0U

>  <Seq. Identity>  (1) 
78%

$$$$
