PDB_DB11730_00
     RDKit          3D

 78 82  0  0  0  0  0  0  0  0999 V2000
    0.3379    0.6406   -0.5970 C   0  0  2  0  0  0  0  0  0  0  0  0
   -0.8484    0.4256    1.5064 C   0  0  0  0  0  0  0  0  0  0  0  0
   -1.5548   -0.5894    0.6829 C   0  0  0  0  0  0  0  0  0  0  0  0
   -1.8707   -0.0335   -0.6929 C   0  0  0  0  0  0  0  0  0  0  0  0
    3.3161   -0.3831    1.0229 C   0  0  0  0  0  0  0  0  0  0  0  0
    2.1535   -1.2037    0.7341 N   0  0  0  0  0  0  0  0  0  0  0  0
   -2.9332   -0.9424    1.2738 C   0  0  0  0  0  0  0  0  0  0  0  0
    4.3051   -1.0384   -1.1528 C   0  0  0  0  0  0  0  0  0  0  0  0
    4.5094   -1.0174    0.3449 C   0  0  0  0  0  0  0  0  0  0  0  0
   -3.7494   -0.9135    0.0016 C   0  0  0  0  0  0  0  0  0  0  0  0
    1.8614   -1.2530   -0.6898 C   0  0  0  0  0  0  0  0  0  0  0  0
   -5.1934   -1.0976    0.1426 C   0  0  2  0  0  0  0  0  0  0  0  0
   -4.2732    3.7434   -0.5319 C   0  0  0  0  0  0  0  0  0  0  0  0
   -4.4244    3.4207   -1.9734 C   0  0  0  0  0  0  0  0  0  0  0  0
   -3.6474    2.5301    0.1591 C   0  0  0  0  0  0  0  0  0  0  0  0
   -3.6327    2.1370   -2.1258 C   0  0  0  0  0  0  0  0  0  0  0  0
    6.8640   -0.9184    0.2446 C   0  0  0  0  0  0  0  0  0  0  0  0
    5.5866    1.1185    0.3783 C   0  0  0  0  0  0  0  0  0  0  0  0
    7.6966   -0.0012   -0.5903 C   0  0  0  0  0  0  0  0  0  0  0  0
    6.8910    1.8128    0.6926 C   0  0  0  0  0  0  0  0  0  0  0  0
   -3.8662    1.3820   -0.8132 C   0  0  0  0  0  0  0  0  0  0  0  0
   -4.9929   -3.5176    0.0840 C   0  0  0  0  0  0  0  0  0  0  0  0
   -5.5201   -2.3934    2.1715 C   0  0  0  0  0  0  0  0  0  0  0  0
    2.9173   -0.5122   -1.4824 C   0  0  0  0  0  0  0  0  0  0  0  0
    0.3585    0.8289    0.8219 N   0  0  0  0  0  0  0  0  0  0  0  0
   -0.9950    0.9661   -1.1538 N   0  0  0  0  0  0  0  0  0  0  0  0
   -3.2419    0.2110   -0.6551 N   0  0  0  0  0  0  0  0  0  0  0  0
    5.6874   -0.2641    0.7267 N   0  0  0  0  0  0  0  0  0  0  0  0
    0.5812   -0.7266   -0.9876 N   0  0  0  0  0  0  0  0  0  0  0  0
   -5.4357   -2.3710    0.7698 N   0  0  0  0  0  0  0  0  0  0  0  0
    8.0525    1.1514    0.1912 N   0  0  0  0  0  0  0  0  0  0  0  0
   -5.7590   -1.1608   -1.1330 O   0  0  0  0  0  0  0  0  0  0  0  0
   -0.5347    0.0038    2.4916 H   0  0  0  0  0  0  0  0  0  0  0  0
    3.1114    0.6295    0.6682 H   0  0  0  0  0  0  0  0  0  0  0  0
   -3.2378   -0.1862    2.0169 H   0  0  0  0  0  0  0  0  0  0  0  0
    5.0054   -0.4261   -1.7214 H   0  0  0  0  0  0  0  0  0  0  0  0
   -3.6500    4.6491   -0.4216 H   0  0  0  0  0  0  0  0  0  0  0  0
   -5.2675    3.9899   -0.1170 H   0  0  0  0  0  0  0  0  0  0  0  0
   -3.9633    4.1936   -2.6321 H   0  0  0  0  0  0  0  0  0  0  0  0
   -5.4763    3.2981   -2.3026 H   0  0  0  0  0  0  0  0  0  0  0  0
   -2.5954    2.7875    0.2773 H   0  0  0  0  0  0  0  0  0  0  0  0
   -4.2087    2.4119    1.1049 H   0  0  0  0  0  0  0  0  0  0  0  0
   -2.5770    2.4566   -2.2318 H   0  0  0  0  0  0  0  0  0  0  0  0
   -4.0458    1.6209   -2.9968 H   0  0  0  0  0  0  0  0  0  0  0  0
    6.6480   -1.8996   -0.2407 H   0  0  0  0  0  0  0  0  0  0  0  0
    7.4821   -1.1805    1.1458 H   0  0  0  0  0  0  0  0  0  0  0  0
    5.2473    1.2994   -0.6603 H   0  0  0  0  0  0  0  0  0  0  0  0
    4.8288    1.6058    1.0393 H   0  0  0  0  0  0  0  0  0  0  0  0
    7.2421    0.3549   -1.5146 H   0  0  0  0  0  0  0  0  0  0  0  0
    8.6140   -0.5681   -0.8856 H   0  0  0  0  0  0  0  0  0  0  0  0
    6.9841    1.8299    1.8165 H   0  0  0  0  0  0  0  0  0  0  0  0
    6.8576    2.8746    0.3630 H   0  0  0  0  0  0  0  0  0  0  0  0
   -4.9891    1.2279   -0.8056 H   0  0  0  0  0  0  0  0  0  0  0  0
   -5.4888   -4.4064    0.5424 H   0  0  0  0  0  0  0  0  0  0  0  0
   -5.1709   -3.5345   -0.9883 H   0  0  0  0  0  0  0  0  0  0  0  0
   -3.8962   -3.6779    0.3094 H   0  0  0  0  0  0  0  0  0  0  0  0
   -4.8521   -3.1716    2.6122 H   0  0  0  0  0  0  0  0  0  0  0  0
   -5.2015   -1.4245    2.6058 H   0  0  0  0  0  0  0  0  0  0  0  0
   -6.5557   -2.6642    2.4740 H   0  0  0  0  0  0  0  0  0  0  0  0
    2.8380    0.5629   -1.3376 H   0  0  0  0  0  0  0  0  0  0  0  0
    0.2559   -0.8652   -1.9510 H   0  0  0  0  0  0  0  0  0  0  0  0
    8.7450    0.8859    0.8993 H   0  0  0  0  0  0  0  0  0  0  0  0
    1.0273    1.3595   -1.0997 H   0  0  0  0  0  0  0  0  0  0  0  0
   -1.5241    1.2710    1.7527 H   0  0  0  0  0  0  0  0  0  0  0  0
   -1.0062   -1.5533    0.6543 H   0  0  0  0  0  0  0  0  0  0  0  0
   -1.7245   -0.9339   -1.3748 H   0  0  0  0  0  0  0  0  0  0  0  0
    3.4535   -0.4413    2.1324 H   0  0  0  0  0  0  0  0  0  0  0  0
    2.1967   -2.1437    1.1769 H   0  0  0  0  0  0  0  0  0  0  0  0
   -2.9473   -1.9491    1.7124 H   0  0  0  0  0  0  0  0  0  0  0  0
    4.3566   -2.0878   -1.4969 H   0  0  0  0  0  0  0  0  0  0  0  0
    4.5773   -2.0470    0.7412 H   0  0  0  0  0  0  0  0  0  0  0  0
   -3.3757   -1.8155   -0.5820 H   0  0  0  0  0  0  0  0  0  0  0  0
    1.8658   -2.3233   -0.9893 H   0  0  0  0  0  0  0  0  0  0  0  0
   -5.7096   -0.3463    0.7811 H   0  0  0  0  0  0  0  0  0  0  0  0
    2.7254   -0.7377   -2.5513 H   0  0  0  0  0  0  0  0  0  0  0  0
    0.7266    1.7550    1.1067 H   0  0  0  0  0  0  0  0  0  0  0  0
   -0.8337    0.8313   -2.1995 H   0  0  0  0  0  0  0  0  0  0  0  0
   -5.1374   -1.5463   -1.7804 H   0  0  0  0  0  0  0  0  0  0  0  0
  2  3  1  0
  3  4  1  0
  5  6  1  0
  3  7  1  0
  5  9  1  0
  8  9  1  0
  7 10  1  0
  6 11  1  0
 10 12  1  0
 13 14  1  0
 13 15  1  0
 14 16  1  0
 17 19  1  0
 18 20  1  0
 15 21  1  0
 16 21  1  0
  8 24  1  0
 11 24  1  0
  1 25  1  0
  2 25  1  0
  1 26  1  0
  4 26  1  0
  4 27  1  0
 10 27  1  0
 21 27  1  0
  9 28  1  0
 17 28  1  0
 18 28  1  0
  1 29  1  0
 11 29  1  0
 12 30  1  0
 22 30  1  0
 23 30  1  0
 19 31  1  0
 20 31  1  0
 12 32  1  0
  2 33  1  0
  5 34  1  0
  7 35  1  0
  8 36  1  0
 13 37  1  0
 13 38  1  0
 14 39  1  0
 14 40  1  0
 15 41  1  0
 15 42  1  0
 16 43  1  0
 16 44  1  0
 17 45  1  0
 17 46  1  0
 18 47  1  0
 18 48  1  0
 19 49  1  0
 19 50  1  0
 20 51  1  0
 20 52  1  0
 21 53  1  0
 22 54  1  0
 22 55  1  0
 22 56  1  0
 23 57  1  0
 23 58  1  0
 23 59  1  0
 24 60  1  0
 29 61  1  0
 31 62  1  0
  1 63  1  6
  2 64  1  0
  3 65  1  0
  4 66  1  0
  5 67  1  0
  6 68  1  0
  7 69  1  0
  8 70  1  0
  9 71  1  0
 10 72  1  0
 11 73  1  0
 12 74  1  1
 24 75  1  0
 25 76  1  0
 26 77  1  0
 32 78  1  0
M  END
>  <PDBID>  (1) 
5L2T

>  <PDB ID>  (1) 
5L2T

>  <Generic Name>  (1) 
Ribociclib

>  <Brand Name>  (1) 
Kisqali

>  <DrugBank ID>  (1) 
DB11730

>  <ATC Codes>  (1) 
nan

>  <Ligand ID>  (1) 
6ZZ

>  <Target Name>  (1) 
Cyclin-dependent kinase 6

>  <UniProt ID>  (1) 
Q00534

>  <PDB ID.1>  (1) 
5L2T

>  <Seq. Identity>  (1) 
100%

$$$$
