PDB_DB00712_09
     RDKit          3D

 90 92  0  0  0  0  0  0  0  0999 V2000
   -3.8602    0.9522    0.7260 C   0  0  0  0  0  0  0  0  0  0  0  0
   -2.8736    1.3055   -0.3927 C   0  0  0  0  0  0  0  0  0  0  0  0
   -1.9568    0.1431   -0.6836 C   0  0  0  0  0  0  0  0  0  0  0  0
   -2.7745   -1.1158   -0.6097 C   0  0  0  0  0  0  0  0  0  0  0  0
   -4.2407   -0.8674   -0.8910 C   0  0  0  0  0  0  0  0  0  0  0  0
   -4.8811   -0.0146    0.1558 C   0  0  0  0  0  0  0  0  0  0  0  0
   -0.8303    0.0372    0.3129 C   0  0  0  0  0  0  0  0  0  0  0  0
    0.0240   -1.1478   -0.0624 C   0  0  0  0  0  0  0  0  0  0  0  0
    1.0852   -0.7637   -1.0871 C   0  0  0  0  0  0  0  0  0  0  0  0
    2.0620    0.2303   -0.5265 C   0  0  0  0  0  0  0  0  0  0  0  0
    1.4521    0.8311    0.7112 C   0  0  0  0  0  0  0  0  0  0  0  0
    0.0410    1.2555    0.3521 C   0  0  0  0  0  0  0  0  0  0  0  0
    3.4218   -0.3646   -0.2821 C   0  0  2  0  0  0  0  0  0  0  0  0
    3.3968   -1.5055    0.6890 C   0  0  0  0  0  0  0  0  0  0  0  0
    4.4409    0.6419    0.1420 C   0  0  0  0  0  0  0  0  0  0  0  0
    5.6507   -0.0413    0.3340 O   0  0  0  0  0  0  0  0  0  0  0  0
    4.6968    1.5901   -0.8663 O   0  0  0  0  0  0  0  0  0  0  0  0
    0.1349    1.8812   -0.8937 F   0  0  0  0  0  0  0  0  0  0  0  0
   -3.8602    0.9522    0.7260 C   0  0  0  0  0  0  0  0  0  0  0  0
   -2.8736    1.3055   -0.3927 C   0  0  0  0  0  0  0  0  0  0  0  0
   -1.9568    0.1431   -0.6836 C   0  0  0  0  0  0  0  0  0  0  0  0
   -2.7745   -1.1158   -0.6097 C   0  0  0  0  0  0  0  0  0  0  0  0
   -4.2407   -0.8674   -0.8910 C   0  0  0  0  0  0  0  0  0  0  0  0
   -4.8811   -0.0146    0.1558 C   0  0  0  0  0  0  0  0  0  0  0  0
   -0.8303    0.0372    0.3129 C   0  0  0  0  0  0  0  0  0  0  0  0
    0.0240   -1.1478   -0.0624 C   0  0  0  0  0  0  0  0  0  0  0  0
    1.0852   -0.7637   -1.0871 C   0  0  0  0  0  0  0  0  0  0  0  0
    2.0620    0.2303   -0.5265 C   0  0  0  0  0  0  0  0  0  0  0  0
    1.4521    0.8311    0.7112 C   0  0  0  0  0  0  0  0  0  0  0  0
    0.0410    1.2555    0.3521 C   0  0  0  0  0  0  0  0  0  0  0  0
    3.4218   -0.3646   -0.2821 C   0  0  2  0  0  0  0  0  0  0  0  0
    3.3968   -1.5055    0.6890 C   0  0  0  0  0  0  0  0  0  0  0  0
    4.4409    0.6419    0.1420 C   0  0  0  0  0  0  0  0  0  0  0  0
    5.6507   -0.0413    0.3340 O   0  0  0  0  0  0  0  0  0  0  0  0
    4.6968    1.5901   -0.8663 O   0  0  0  0  0  0  0  0  0  0  0  0
    0.1349    1.8812   -0.8937 F   0  0  0  0  0  0  0  0  0  0  0  0
   -3.3076    0.5430    1.5782 H   0  0  0  0  0  0  0  0  0  0  0  0
   -4.3966    1.8908    0.9622 H   0  0  0  0  0  0  0  0  0  0  0  0
   -3.4962    1.4614   -1.2984 H   0  0  0  0  0  0  0  0  0  0  0  0
   -2.3571    2.2205   -0.1063 H   0  0  0  0  0  0  0  0  0  0  0  0
   -1.5270    0.2310   -1.6950 H   0  0  0  0  0  0  0  0  0  0  0  0
   -2.6948   -1.5239    0.4120 H   0  0  0  0  0  0  0  0  0  0  0  0
   -2.4441   -1.8929   -1.3307 H   0  0  0  0  0  0  0  0  0  0  0  0
   -4.3772   -0.4510   -1.9260 H   0  0  0  0  0  0  0  0  0  0  0  0
   -4.7402   -1.8521   -0.9028 H   0  0  0  0  0  0  0  0  0  0  0  0
   -5.6859    0.5749   -0.3378 H   0  0  0  0  0  0  0  0  0  0  0  0
   -5.3105   -0.6113    0.9934 H   0  0  0  0  0  0  0  0  0  0  0  0
   -1.2860   -0.1118    1.3145 H   0  0  0  0  0  0  0  0  0  0  0  0
   -0.5763   -1.9509   -0.5126 H   0  0  0  0  0  0  0  0  0  0  0  0
    0.4833   -1.5240    0.8734 H   0  0  0  0  0  0  0  0  0  0  0  0
    0.5049   -0.3154   -1.9466 H   0  0  0  0  0  0  0  0  0  0  0  0
    1.5436   -1.6796   -1.4622 H   0  0  0  0  0  0  0  0  0  0  0  0
    2.1657    1.0510   -1.2664 H   0  0  0  0  0  0  0  0  0  0  0  0
    1.4687    0.1533    1.5825 H   0  0  0  0  0  0  0  0  0  0  0  0
    1.9863    1.7523    1.0210 H   0  0  0  0  0  0  0  0  0  0  0  0
   -0.3483    1.9453    1.1267 H   0  0  0  0  0  0  0  0  0  0  0  0
    3.7676   -0.7850   -1.2634 H   0  0  0  0  0  0  0  0  0  0  0  0
    3.0070   -2.4481    0.2079 H   0  0  0  0  0  0  0  0  0  0  0  0
    2.9135   -1.2857    1.6403 H   0  0  0  0  0  0  0  0  0  0  0  0
    4.4705   -1.7455    0.9298 H   0  0  0  0  0  0  0  0  0  0  0  0
    4.2101    1.1338    1.1000 H   0  0  0  0  0  0  0  0  0  0  0  0
    5.9836   -0.2583   -0.5927 H   0  0  0  0  0  0  0  0  0  0  0  0
    5.0538    2.4309   -0.4812 H   0  0  0  0  0  0  0  0  0  0  0  0
   -3.3076    0.5430    1.5782 H   0  0  0  0  0  0  0  0  0  0  0  0
   -4.3966    1.8908    0.9622 H   0  0  0  0  0  0  0  0  0  0  0  0
   -3.4962    1.4614   -1.2984 H   0  0  0  0  0  0  0  0  0  0  0  0
   -2.3571    2.2205   -0.1063 H   0  0  0  0  0  0  0  0  0  0  0  0
   -1.5270    0.2310   -1.6950 H   0  0  0  0  0  0  0  0  0  0  0  0
   -2.6948   -1.5239    0.4120 H   0  0  0  0  0  0  0  0  0  0  0  0
   -2.4441   -1.8929   -1.3307 H   0  0  0  0  0  0  0  0  0  0  0  0
   -4.3772   -0.4510   -1.9260 H   0  0  0  0  0  0  0  0  0  0  0  0
   -4.7402   -1.8521   -0.9028 H   0  0  0  0  0  0  0  0  0  0  0  0
   -5.6859    0.5749   -0.3378 H   0  0  0  0  0  0  0  0  0  0  0  0
   -5.3105   -0.6113    0.9934 H   0  0  0  0  0  0  0  0  0  0  0  0
   -1.2860   -0.1118    1.3145 H   0  0  0  0  0  0  0  0  0  0  0  0
   -0.5763   -1.9509   -0.5126 H   0  0  0  0  0  0  0  0  0  0  0  0
    0.4833   -1.5240    0.8734 H   0  0  0  0  0  0  0  0  0  0  0  0
    0.5049   -0.3154   -1.9466 H   0  0  0  0  0  0  0  0  0  0  0  0
    1.5436   -1.6796   -1.4622 H   0  0  0  0  0  0  0  0  0  0  0  0
    2.1657    1.0510   -1.2664 H   0  0  0  0  0  0  0  0  0  0  0  0
    1.4687    0.1533    1.5825 H   0  0  0  0  0  0  0  0  0  0  0  0
    1.9863    1.7523    1.0210 H   0  0  0  0  0  0  0  0  0  0  0  0
   -0.3483    1.9453    1.1267 H   0  0  0  0  0  0  0  0  0  0  0  0
    3.7676   -0.7850   -1.2634 H   0  0  0  0  0  0  0  0  0  0  0  0
    3.0070   -2.4481    0.2079 H   0  0  0  0  0  0  0  0  0  0  0  0
    2.9135   -1.2857    1.6403 H   0  0  0  0  0  0  0  0  0  0  0  0
    4.4705   -1.7455    0.9298 H   0  0  0  0  0  0  0  0  0  0  0  0
    4.2101    1.1338    1.1000 H   0  0  0  0  0  0  0  0  0  0  0  0
    5.9836   -0.2583   -0.5927 H   0  0  0  0  0  0  0  0  0  0  0  0
    5.0538    2.4309   -0.4812 H   0  0  0  0  0  0  0  0  0  0  0  0
  1  2  1  0
  2  3  1  0
  3  4  1  0
  4  5  1  0
  1  6  1  0
  5  6  1  0
  3  7  1  0
  7  8  1  0
  8  9  1  0
  9 10  1  0
 10 11  1  0
  7 12  1  0
 11 12  1  0
 10 13  1  0
 13 14  1  0
 13 15  1  0
 15 16  1  0
 15 17  1  0
 12 18  1  0
 19 20  1  0
 20 21  1  0
 21 22  1  0
 22 23  1  0
 19 24  1  0
 23 24  1  0
 21 25  1  0
 25 26  1  0
 26 27  1  0
 27 28  1  0
 28 29  1  0
 25 30  1  0
 29 30  1  0
 28 31  1  0
 31 32  1  0
 31 33  1  0
 33 34  1  0
 33 35  1  0
 30 36  1  0
  1 37  1  0
  1 38  1  0
  2 39  1  0
  2 40  1  0
  3 41  1  0
  4 42  1  0
  4 43  1  0
  5 44  1  0
  5 45  1  0
  6 46  1  0
  6 47  1  0
  7 48  1  0
  8 49  1  0
  8 50  1  0
  9 51  1  0
  9 52  1  0
 10 53  1  0
 11 54  1  0
 11 55  1  0
 12 56  1  0
 13 57  1  6
 14 58  1  0
 14 59  1  0
 14 60  1  0
 15 61  1  0
 16 62  1  0
 17 63  1  0
 19 64  1  0
 19 65  1  0
 20 66  1  0
 20 67  1  0
 21 68  1  0
 22 69  1  0
 22 70  1  0
 23 71  1  0
 23 72  1  0
 24 73  1  0
 24 74  1  0
 25 75  1  0
 26 76  1  0
 26 77  1  0
 27 78  1  0
 27 79  1  0
 28 80  1  0
 29 81  1  0
 29 82  1  0
 30 83  1  0
 31 84  1  6
 32 85  1  0
 32 86  1  0
 32 87  1  0
 33 88  1  0
 34 89  1  0
 35 90  1  0
M  END
>  <PDBID>  (1) 
5JVZ

>  <PDB ID>  (1) 
5JVZ

>  <Generic Name>  (1) 
Flurbiprofen

>  <Brand Name>  (1) 
Ansaid Tablets 100 mg#Ansaid Tablets 50 mg#Antiphlamine Pain Relieving#Apo-flurbiprofen Fc Tablets 100mg#Apo-flurbiprofen Fc Tablets 50mg#Flurbiprofen#Flurbiprofen Sodium#Flurbiprofen-100 Tab 100mg#Flurbiprofen-50 Tab 50mg#Froben#Froben SR#Froben Tab 100mg#Froben Tab 50mg#Froben-SR Cap 200mg#Novo-flurprofen SR#Nu-flurbiprofen Tab 100mg#Nu-flurbiprofen Tab 50mg#Ocufen#Ocufen Oph Soln 0.03%#Ratio-flurbiprofen Tablets 100mg#Ratio-flurbiprofen Tablets 50mg#Teva-flurbiprofen#Acustop Cataplasma#Adofeed#Ansaid#Antadys#Cebutid#Flurofen#Ocuflur#Stayban#Strefen#Strepfen#Strepsils#Strepsils Intensive#TransAct#Urbifen#Zepolas

>  <DrugBank ID>  (1) 
DB00712

>  <ATC Codes>  (1) 
M02AA19#R02AX01#M01AE09#S01BC04

>  <Ligand ID>  (1) 
FLP,FLR

>  <Target Name>  (1) 
Prostaglandin G/H synthase 2

>  <UniProt ID>  (1) 
P35354

>  <PDB ID.1>  (1) 
5JVZ

>  <Seq. Identity>  (1) 
85%

$$$$
