PDB_DB01044_03
     RDKit          3D

122128  0  0  0  0  0  0  0  0999 V2000
    6.1061   -0.4456    0.8956 C   0  0  0  0  0  0  0  0  0  0  0  0
    5.0006   -0.2758   -0.1239 C   0  0  1  0  0  0  0  0  0  0  0  0
    3.6890   -0.5402    0.6291 C   0  0  0  0  0  0  0  0  0  0  0  0
    2.5529   -0.4409   -0.2245 N   0  0  0  0  0  0  0  0  0  0  0  0
    2.8036    0.5193   -1.2284 C   0  0  0  0  0  0  0  0  0  0  0  0
    3.7341    1.6386   -0.7521 C   0  0  0  0  0  0  0  0  0  0  0  0
    5.0685    1.0417   -0.6572 N   0  0  0  0  0  0  0  0  0  0  0  0
    1.2945   -0.5059    0.4068 C   0  0  0  0  0  0  0  0  0  0  0  0
    0.9501    0.5630    1.3898 C   0  0  0  0  0  0  0  0  0  0  0  0
    0.1096    1.6095    0.7324 C   0  0  0  0  0  0  0  0  0  0  0  0
   -1.3102    0.9990    0.6394 C   0  0  0  0  0  0  0  0  0  0  0  0
   -1.1855   -0.4086    0.1927 C   0  0  0  0  0  0  0  0  0  0  0  0
    0.1106   -0.6648   -0.5495 C   0  0  0  0  0  0  0  0  0  0  0  0
    0.0802   -1.9595   -1.0079 O   0  0  0  0  0  0  0  0  0  0  0  0
    0.1438   -2.0702   -2.3886 C   0  0  0  0  0  0  0  0  0  0  0  0
   -2.3192   -0.8332   -0.5109 N   0  0  0  0  0  0  0  0  0  0  0  0
   -3.4880    0.0219   -0.2961 C   0  0  0  0  0  0  0  0  0  0  0  0
   -3.3162    1.4173   -0.7771 C   0  0  0  0  0  0  0  0  0  0  0  0
   -2.0233    1.9395   -0.2985 C   0  0  0  0  0  0  0  0  0  0  0  0
   -1.1848    2.3370   -1.3372 O   0  0  0  0  0  0  0  0  0  0  0  0
   -4.5005    2.2831   -0.3464 C   0  0  0  0  0  0  0  0  0  0  0  0
   -5.6495    1.7191   -0.9075 O   0  0  0  0  0  0  0  0  0  0  0  0
   -4.6684    2.2669    1.0373 O   0  0  0  0  0  0  0  0  0  0  0  0
   -2.8210   -2.1669   -0.2307 C   0  0  0  0  0  0  0  0  0  0  0  0
   -3.3564   -2.4161    1.1892 C   0  0  0  0  0  0  0  0  0  0  0  0
   -2.1856   -3.1451    0.6467 C   0  0  0  0  0  0  0  0  0  0  0  0
    0.3070   -0.0044    2.4732 F   0  0  0  0  0  0  0  0  0  0  0  0
    5.7117   -0.0956    1.8713 H   0  0  0  0  0  0  0  0  0  0  0  0
    7.0024    0.1626    0.6554 H   0  0  0  0  0  0  0  0  0  0  0  0
    6.4051   -1.5263    0.9768 H   0  0  0  0  0  0  0  0  0  0  0  0
    5.1404   -1.0664   -0.8858 H   0  0  0  0  0  0  0  0  0  0  0  0
    3.8267   -1.5673    1.0205 H   0  0  0  0  0  0  0  0  0  0  0  0
    3.6389    0.1349    1.5149 H   0  0  0  0  0  0  0  0  0  0  0  0
    3.4363   -0.0256   -2.0041 H   0  0  0  0  0  0  0  0  0  0  0  0
    1.9656    0.8895   -1.8154 H   0  0  0  0  0  0  0  0  0  0  0  0
    3.4866    1.9621    0.2732 H   0  0  0  0  0  0  0  0  0  0  0  0
    3.7517    2.4192   -1.5075 H   0  0  0  0  0  0  0  0  0  0  0  0
    5.5060    0.9674   -1.6200 H   0  0  0  0  0  0  0  0  0  0  0  0
    0.0464    2.5494    1.3292 H   0  0  0  0  0  0  0  0  0  0  0  0
    0.1197   -3.1045   -2.7361 H   0  0  0  0  0  0  0  0  0  0  0  0
   -0.6272   -1.4098   -2.8181 H   0  0  0  0  0  0  0  0  0  0  0  0
    1.1339   -1.6472   -2.6946 H   0  0  0  0  0  0  0  0  0  0  0  0
   -3.7438    0.0391    0.7653 H   0  0  0  0  0  0  0  0  0  0  0  0
   -3.5858   -2.4770   -0.9979 H   0  0  0  0  0  0  0  0  0  0  0  0
   -4.2967   -2.9441    1.3305 H   0  0  0  0  0  0  0  0  0  0  0  0
   -3.1314   -1.6754    1.9703 H   0  0  0  0  0  0  0  0  0  0  0  0
   -1.1924   -3.0467    1.0620 H   0  0  0  0  0  0  0  0  0  0  0  0
   -2.4049   -4.2218    0.3624 H   0  0  0  0  0  0  0  0  0  0  0  0
    6.1061   -0.4456    0.8956 C   0  0  0  0  0  0  0  0  0  0  0  0
    5.0006   -0.2758   -0.1239 C   0  0  1  0  0  0  0  0  0  0  0  0
    3.6890   -0.5402    0.6291 C   0  0  0  0  0  0  0  0  0  0  0  0
    2.5529   -0.4409   -0.2245 N   0  0  0  0  0  0  0  0  0  0  0  0
    2.8036    0.5193   -1.2284 C   0  0  0  0  0  0  0  0  0  0  0  0
    3.7341    1.6386   -0.7521 C   0  0  0  0  0  0  0  0  0  0  0  0
    5.0685    1.0417   -0.6572 N   0  0  0  0  0  0  0  0  0  0  0  0
    1.2945   -0.5059    0.4068 C   0  0  0  0  0  0  0  0  0  0  0  0
    0.9501    0.5630    1.3898 C   0  0  0  0  0  0  0  0  0  0  0  0
    0.1096    1.6095    0.7324 C   0  0  0  0  0  0  0  0  0  0  0  0
   -1.3102    0.9990    0.6394 C   0  0  0  0  0  0  0  0  0  0  0  0
   -1.1855   -0.4086    0.1927 C   0  0  0  0  0  0  0  0  0  0  0  0
    0.1106   -0.6648   -0.5495 C   0  0  0  0  0  0  0  0  0  0  0  0
    0.0802   -1.9595   -1.0079 O   0  0  0  0  0  0  0  0  0  0  0  0
    0.1438   -2.0702   -2.3886 C   0  0  0  0  0  0  0  0  0  0  0  0
   -2.3192   -0.8332   -0.5109 N   0  0  0  0  0  0  0  0  0  0  0  0
   -3.4880    0.0219   -0.2961 C   0  0  0  0  0  0  0  0  0  0  0  0
   -3.3162    1.4173   -0.7771 C   0  0  0  0  0  0  0  0  0  0  0  0
   -2.0233    1.9395   -0.2985 C   0  0  0  0  0  0  0  0  0  0  0  0
   -1.1848    2.3370   -1.3372 O   0  0  0  0  0  0  0  0  0  0  0  0
   -4.5005    2.2831   -0.3464 C   0  0  0  0  0  0  0  0  0  0  0  0
   -5.6495    1.7191   -0.9075 O   0  0  0  0  0  0  0  0  0  0  0  0
   -4.6684    2.2669    1.0373 O   0  0  0  0  0  0  0  0  0  0  0  0
   -2.8210   -2.1669   -0.2307 C   0  0  0  0  0  0  0  0  0  0  0  0
   -3.3564   -2.4161    1.1892 C   0  0  0  0  0  0  0  0  0  0  0  0
   -2.1856   -3.1451    0.6467 C   0  0  0  0  0  0  0  0  0  0  0  0
    0.3070   -0.0044    2.4732 F   0  0  0  0  0  0  0  0  0  0  0  0
    5.7117   -0.0956    1.8713 H   0  0  0  0  0  0  0  0  0  0  0  0
    7.0024    0.1626    0.6554 H   0  0  0  0  0  0  0  0  0  0  0  0
    6.4051   -1.5263    0.9768 H   0  0  0  0  0  0  0  0  0  0  0  0
    5.1404   -1.0664   -0.8858 H   0  0  0  0  0  0  0  0  0  0  0  0
    3.8267   -1.5673    1.0205 H   0  0  0  0  0  0  0  0  0  0  0  0
    3.6389    0.1349    1.5149 H   0  0  0  0  0  0  0  0  0  0  0  0
    3.4363   -0.0256   -2.0041 H   0  0  0  0  0  0  0  0  0  0  0  0
    1.9656    0.8895   -1.8154 H   0  0  0  0  0  0  0  0  0  0  0  0
    3.4866    1.9621    0.2732 H   0  0  0  0  0  0  0  0  0  0  0  0
    3.7517    2.4192   -1.5075 H   0  0  0  0  0  0  0  0  0  0  0  0
    5.5060    0.9674   -1.6200 H   0  0  0  0  0  0  0  0  0  0  0  0
    0.0464    2.5494    1.3292 H   0  0  0  0  0  0  0  0  0  0  0  0
    0.1197   -3.1045   -2.7361 H   0  0  0  0  0  0  0  0  0  0  0  0
   -0.6272   -1.4098   -2.8181 H   0  0  0  0  0  0  0  0  0  0  0  0
    1.1339   -1.6472   -2.6946 H   0  0  0  0  0  0  0  0  0  0  0  0
   -3.7438    0.0391    0.7653 H   0  0  0  0  0  0  0  0  0  0  0  0
   -3.5858   -2.4770   -0.9979 H   0  0  0  0  0  0  0  0  0  0  0  0
   -4.2967   -2.9441    1.3305 H   0  0  0  0  0  0  0  0  0  0  0  0
   -3.1314   -1.6754    1.9703 H   0  0  0  0  0  0  0  0  0  0  0  0
   -1.1924   -3.0467    1.0620 H   0  0  0  0  0  0  0  0  0  0  0  0
   -2.4049   -4.2218    0.3624 H   0  0  0  0  0  0  0  0  0  0  0  0
    1.3257   -1.4689    1.0172 H   0  0  0  0  0  0  0  0  0  0  0  0
    1.8507    1.0514    1.8351 H   0  0  0  0  0  0  0  0  0  0  0  0
    0.3794    1.8087   -0.3225 H   0  0  0  0  0  0  0  0  0  0  0  0
   -1.7346    1.1107    1.6558 H   0  0  0  0  0  0  0  0  0  0  0  0
   -1.1167   -1.0506    1.1234 H   0  0  0  0  0  0  0  0  0  0  0  0
    0.1808    0.0606   -1.3584 H   0  0  0  0  0  0  0  0  0  0  0  0
   -4.3013   -0.4492   -0.9228 H   0  0  0  0  0  0  0  0  0  0  0  0
   -3.3146    1.4884   -1.9046 H   0  0  0  0  0  0  0  0  0  0  0  0
   -2.2391    2.8581    0.3192 H   0  0  0  0  0  0  0  0  0  0  0  0
   -1.4056    1.8055   -2.1215 H   0  0  0  0  0  0  0  0  0  0  0  0
   -4.4053    3.3120   -0.7284 H   0  0  0  0  0  0  0  0  0  0  0  0
   -5.8860    0.9274   -0.3348 H   0  0  0  0  0  0  0  0  0  0  0  0
   -5.4645    1.7507    1.3250 H   0  0  0  0  0  0  0  0  0  0  0  0
    1.3257   -1.4689    1.0172 H   0  0  0  0  0  0  0  0  0  0  0  0
    1.8507    1.0514    1.8351 H   0  0  0  0  0  0  0  0  0  0  0  0
    0.3794    1.8087   -0.3225 H   0  0  0  0  0  0  0  0  0  0  0  0
   -1.7346    1.1107    1.6558 H   0  0  0  0  0  0  0  0  0  0  0  0
   -1.1167   -1.0506    1.1234 H   0  0  0  0  0  0  0  0  0  0  0  0
    0.1808    0.0606   -1.3584 H   0  0  0  0  0  0  0  0  0  0  0  0
   -4.3013   -0.4492   -0.9228 H   0  0  0  0  0  0  0  0  0  0  0  0
   -3.3146    1.4884   -1.9046 H   0  0  0  0  0  0  0  0  0  0  0  0
   -2.2391    2.8581    0.3192 H   0  0  0  0  0  0  0  0  0  0  0  0
   -1.4056    1.8055   -2.1215 H   0  0  0  0  0  0  0  0  0  0  0  0
   -4.4053    3.3120   -0.7284 H   0  0  0  0  0  0  0  0  0  0  0  0
   -5.8860    0.9274   -0.3348 H   0  0  0  0  0  0  0  0  0  0  0  0
   -5.4645    1.7507    1.3250 H   0  0  0  0  0  0  0  0  0  0  0  0
  1  2  1  0
  2  3  1  0
  3  4  1  0
  4  5  1  0
  5  6  1  0
  2  7  1  0
  6  7  1  0
  4  8  1  0
  8  9  1  0
  9 10  1  0
 10 11  1  0
 11 12  1  0
  8 13  1  0
 12 13  1  0
 13 14  1  0
 14 15  1  0
 12 16  1  0
 16 17  1  0
 17 18  1  0
 11 19  1  0
 18 19  1  0
 19 20  1  0
 18 21  1  0
 21 22  1  0
 21 23  1  0
 16 24  1  0
 24 25  1  0
 24 26  1  0
 25 26  1  0
  9 27  1  0
  1 28  1  0
  1 29  1  0
  1 30  1  0
  2 31  1  6
  3 32  1  0
  3 33  1  0
  5 34  1  0
  5 35  1  0
  6 36  1  0
  6 37  1  0
  7 38  1  0
 10 39  1  0
 15 40  1  0
 15 41  1  0
 15 42  1  0
 17 43  1  0
 24 44  1  0
 25 45  1  0
 25 46  1  0
 26 47  1  0
 26 48  1  0
 49 50  1  0
 50 51  1  0
 51 52  1  0
 52 53  1  0
 53 54  1  0
 50 55  1  0
 54 55  1  0
 52 56  1  0
 56 57  1  0
 57 58  1  0
 58 59  1  0
 59 60  1  0
 56 61  1  0
 60 61  1  0
 61 62  1  0
 62 63  1  0
 60 64  1  0
 64 65  1  0
 65 66  1  0
 59 67  1  0
 66 67  1  0
 67 68  1  0
 66 69  1  0
 69 70  1  0
 69 71  1  0
 64 72  1  0
 72 73  1  0
 72 74  1  0
 73 74  1  0
 57 75  1  0
 49 76  1  0
 49 77  1  0
 49 78  1  0
 50 79  1  6
 51 80  1  0
 51 81  1  0
 53 82  1  0
 53 83  1  0
 54 84  1  0
 54 85  1  0
 55 86  1  0
 58 87  1  0
 63 88  1  0
 63 89  1  0
 63 90  1  0
 65 91  1  0
 72 92  1  0
 73 93  1  0
 73 94  1  0
 74 95  1  0
 74 96  1  0
  8 97  1  0
  9 98  1  0
 10 99  1  0
 11100  1  0
 12101  1  0
 13102  1  0
 17103  1  0
 18104  1  0
 19105  1  0
 20106  1  0
 21107  1  0
 22108  1  0
 23109  1  0
 56110  1  0
 57111  1  0
 58112  1  0
 59113  1  0
 60114  1  0
 61115  1  0
 65116  1  0
 66117  1  0
 67118  1  0
 68119  1  0
 69120  1  0
 70121  1  0
 71122  1  0
M  END
>  <PDBID>  (1) 
5BTF

>  <PDB ID>  (1) 
5BTF

>  <Generic Name>  (1) 
Gatifloxacin

>  <Brand Name>  (1) 
Apo-gatifloxacin#Gatifloxacin#Tequin#Tequin IV#Zymar#Zymaxid

>  <DrugBank ID>  (1) 
DB01044

>  <ATC Codes>  (1) 
S01AE06#J01MA16

>  <Ligand ID>  (1) 
GFN

>  <Target Name>  (1) 
DNA gyrase subunit A

>  <UniProt ID>  (1) 
P72524

>  <PDB ID.1>  (1) 
5BTF

>  <Seq. Identity>  (1) 
53%

$$$$
