PDB_DB01026_06
     RDKit          3D

164172  0  0  0  0  0  0  0  0999 V2000
   -5.0928    2.2254   -1.1744 C   0  0  0  0  0  0  0  0  0  0  0  0
   -4.5025    0.9780   -1.6050 N   0  0  0  0  0  0  0  0  0  0  0  0
   -2.3745    0.3322    0.1200 O   0  0  0  0  0  0  0  0  0  0  0  0
   -6.0093   -4.5729    1.9141 Cl  0  0  0  0  0  0  0  0  0  0  0  0
   -6.5181    1.4040   -2.6835 C   0  0  0  0  0  0  0  0  0  0  0  0
   -5.9052    2.6798   -2.2961 N   0  0  0  0  0  0  0  0  0  0  0  0
   -3.9585    1.6463    0.9615 O   0  0  0  0  0  0  0  0  0  0  0  0
   -5.8247    0.7358    2.9933 Cl  0  0  0  0  0  0  0  0  0  0  0  0
   -5.3320    0.4863   -2.6844 C   0  0  0  0  0  0  0  0  0  0  0  0
    4.7446   -0.1304   -0.1512 N   0  0  0  0  0  0  0  0  0  0  0  0
   -0.2883    1.6328   -1.4043 O   0  0  0  0  0  0  0  0  0  0  0  0
   -4.5789   -0.0111   -0.5277 C   0  0  0  0  0  0  0  0  0  0  0  0
    7.1651   -0.7104    0.9434 N   0  0  0  0  0  0  0  0  0  0  0  0
    7.5871   -2.9875    0.5392 O   0  0  0  0  0  0  0  0  0  0  0  0
   -3.7020    0.3103    0.6063 C   0  0  1  0  0  0  0  0  0  0  0  0
   -1.7688    1.4835    0.5092 C   0  0  2  0  0  0  0  0  0  0  0  0
   -2.7729    2.2273    1.3132 C   0  0  0  0  0  0  0  0  0  0  0  0
   -3.6986   -0.5267    1.8198 C   0  0  0  0  0  0  0  0  0  0  0  0
   -4.9425   -0.7533    2.5734 C   0  0  0  0  0  0  0  0  0  0  0  0
   -5.8328   -1.8632    2.1397 C   0  0  0  0  0  0  0  0  0  0  0  0
   -5.0246   -3.1608    2.3403 C   0  0  0  0  0  0  0  0  0  0  0  0
   -3.8848   -3.0047    1.3279 C   0  0  0  0  0  0  0  0  0  0  0  0
   -3.0024   -1.8613    1.6802 C   0  0  0  0  0  0  0  0  0  0  0  0
   -1.2246    2.2911   -0.6637 C   0  0  0  0  0  0  0  0  0  0  0  0
    0.8872    1.2904   -0.7597 C   0  0  0  0  0  0  0  0  0  0  0  0
    2.0100    1.9961   -1.4513 C   0  0  0  0  0  0  0  0  0  0  0  0
    3.2274    1.1202   -1.6591 C   0  0  0  0  0  0  0  0  0  0  0  0
    3.4290    0.3834   -0.3548 C   0  0  0  0  0  0  0  0  0  0  0  0
    2.3762   -0.7108   -0.3790 C   0  0  0  0  0  0  0  0  0  0  0  0
    1.0244   -0.1911   -0.6664 C   0  0  0  0  0  0  0  0  0  0  0  0
    5.6794    0.9470   -0.1015 C   0  0  0  0  0  0  0  0  0  0  0  0
    7.0345    0.6075    0.4276 C   0  0  0  0  0  0  0  0  0  0  0  0
    6.0372   -1.0719    1.7211 C   0  0  0  0  0  0  0  0  0  0  0  0
    4.7229   -0.9488    1.0354 C   0  0  0  0  0  0  0  0  0  0  0  0
    7.6726   -1.6995    0.0536 C   0  0  0  0  0  0  0  0  0  0  0  0
    9.0895   -1.3656   -0.3702 C   0  0  0  0  0  0  0  0  0  0  0  0
   -5.9159    2.6307    0.3977 C   0  0  0  0  0  0  0  0  0  0  0  0
   -5.8108    1.4834   -0.4696 N   0  0  0  0  0  0  0  0  0  0  0  0
   -2.4545    0.1714    0.0640 O   0  0  0  0  0  0  0  0  0  0  0  0
   -2.8913   -4.6043    2.4111 Cl  0  0  0  0  0  0  0  0  0  0  0  0
   -7.8295    2.4675   -0.9187 C   0  0  0  0  0  0  0  0  0  0  0  0
   -7.1751    3.2862    0.0862 N   0  0  0  0  0  0  0  0  0  0  0  0
   -3.5468    1.6685    1.2616 O   0  0  0  0  0  0  0  0  0  0  0  0
   -6.2864   -2.4072    0.8689 Cl  0  0  0  0  0  0  0  0  0  0  0  0
   -6.6101    1.8557   -1.6091 C   0  0  0  0  0  0  0  0  0  0  0  0
    4.7708   -0.7292   -0.2545 N   0  0  0  0  0  0  0  0  0  0  0  0
   -0.3451    0.5232   -1.7453 O   0  0  0  0  0  0  0  0  0  0  0  0
   -4.4713    1.1323   -0.8138 C   0  0  0  0  0  0  0  0  0  0  0  0
    7.3801   -0.1055    0.6571 N   0  0  0  0  0  0  0  0  0  0  0  0
    7.5811   -2.0519   -0.5263 O   0  0  0  0  0  0  0  0  0  0  0  0
   -3.7426    0.5925    0.3963 C   0  0  1  0  0  0  0  0  0  0  0  0
   -1.6246    1.2862    0.1291 C   0  0  2  0  0  0  0  0  0  0  0  0
   -2.4267    2.3358    0.7947 C   0  0  0  0  0  0  0  0  0  0  0  0
   -4.4779   -0.4744    1.1004 C   0  0  0  0  0  0  0  0  0  0  0  0
   -4.7345   -1.7088    0.2864 C   0  0  0  0  0  0  0  0  0  0  0  0
   -3.6860   -2.7642    0.5421 C   0  0  0  0  0  0  0  0  0  0  0  0
   -4.0459   -3.3784    1.9018 C   0  0  0  0  0  0  0  0  0  0  0  0
   -4.1895   -2.2333    2.8808 C   0  0  0  0  0  0  0  0  0  0  0  0
   -3.6862   -0.9235    2.3157 C   0  0  0  0  0  0  0  0  0  0  0  0
   -1.1352    1.5845   -1.2452 C   0  0  0  0  0  0  0  0  0  0  0  0
    0.8541    0.3794   -1.0856 C   0  0  0  0  0  0  0  0  0  0  0  0
    1.9397    0.6169   -2.1109 C   0  0  0  0  0  0  0  0  0  0  0  0
    3.0415   -0.4210   -1.9669 C   0  0  0  0  0  0  0  0  0  0  0  0
    3.4009   -0.3346   -0.4771 C   0  0  0  0  0  0  0  0  0  0  0  0
    2.3672   -1.1384    0.2245 C   0  0  0  0  0  0  0  0  0  0  0  0
    1.0132   -0.9227   -0.3758 C   0  0  0  0  0  0  0  0  0  0  0  0
    5.6032    0.2254   -0.9993 C   0  0  0  0  0  0  0  0  0  0  0  0
    6.6923    0.8366   -0.1862 C   0  0  0  0  0  0  0  0  0  0  0  0
    6.5004   -0.8645    1.5026 C   0  0  0  0  0  0  0  0  0  0  0  0
    5.0765   -0.4987    1.1427 C   0  0  0  0  0  0  0  0  0  0  0  0
    8.2872   -0.9553   -0.0947 C   0  0  2  0  0  0  0  0  0  0  0  0
    9.4147   -1.3088    0.8669 C   0  0  0  0  0  0  0  0  0  0  0  0
   -5.8302    2.0822   -0.3400 H   0  0  0  0  0  0  0  0  0  0  0  0
   -4.3652    3.0312   -0.9768 H   0  0  0  0  0  0  0  0  0  0  0  0
   -7.2759    1.1873   -1.9282 H   0  0  0  0  0  0  0  0  0  0  0  0
   -7.0005    1.4837   -3.6801 H   0  0  0  0  0  0  0  0  0  0  0  0
   -5.3131    2.9661   -3.1213 H   0  0  0  0  0  0  0  0  0  0  0  0
   -4.8342    0.6303   -3.6779 H   0  0  0  0  0  0  0  0  0  0  0  0
   -5.6756   -0.5569   -2.5468 H   0  0  0  0  0  0  0  0  0  0  0  0
   -4.3272   -0.9753   -1.0395 H   0  0  0  0  0  0  0  0  0  0  0  0
   -5.6607   -0.0581   -0.3142 H   0  0  0  0  0  0  0  0  0  0  0  0
    6.7440   -3.4360    0.2705 H   0  0  0  0  0  0  0  0  0  0  0  0
   -0.8893    1.3143    1.1926 H   0  0  0  0  0  0  0  0  0  0  0  0
   -2.6324    2.0365    2.4145 H   0  0  0  0  0  0  0  0  0  0  0  0
   -2.7448    3.3248    1.1578 H   0  0  0  0  0  0  0  0  0  0  0  0
   -3.0190    0.0293    2.5635 H   0  0  0  0  0  0  0  0  0  0  0  0
   -4.5949   -1.1045    3.6044 H   0  0  0  0  0  0  0  0  0  0  0  0
   -6.1448   -1.8925    1.1025 H   0  0  0  0  0  0  0  0  0  0  0  0
   -6.6911   -1.8877    2.8511 H   0  0  0  0  0  0  0  0  0  0  0  0
   -4.6291   -3.2075    3.3551 H   0  0  0  0  0  0  0  0  0  0  0  0
   -4.3790   -2.9124    0.3439 H   0  0  0  0  0  0  0  0  0  0  0  0
   -3.2625   -3.9218    1.3770 H   0  0  0  0  0  0  0  0  0  0  0  0
   -2.5337   -2.1243    2.6762 H   0  0  0  0  0  0  0  0  0  0  0  0
   -2.1434   -1.8166    0.9841 H   0  0  0  0  0  0  0  0  0  0  0  0
   -0.8122    3.2293   -0.2167 H   0  0  0  0  0  0  0  0  0  0  0  0
   -2.0572    2.5729   -1.3211 H   0  0  0  0  0  0  0  0  0  0  0  0
    0.8188    1.6817    0.2736 H   0  0  0  0  0  0  0  0  0  0  0  0
    2.3626    2.8839   -0.8798 H   0  0  0  0  0  0  0  0  0  0  0  0
    1.7266    2.3761   -2.4575 H   0  0  0  0  0  0  0  0  0  0  0  0
    3.0517    0.3699   -2.4649 H   0  0  0  0  0  0  0  0  0  0  0  0
    4.0483    1.7590   -1.9685 H   0  0  0  0  0  0  0  0  0  0  0  0
    3.2017    1.0645    0.5127 H   0  0  0  0  0  0  0  0  0  0  0  0
    2.7172   -1.4128   -1.1865 H   0  0  0  0  0  0  0  0  0  0  0  0
    2.4011   -1.3184    0.5504 H   0  0  0  0  0  0  0  0  0  0  0  0
    0.3289   -0.5634    0.1411 H   0  0  0  0  0  0  0  0  0  0  0  0
    0.6468   -0.6681   -1.5958 H   0  0  0  0  0  0  0  0  0  0  0  0
    5.8376    1.3016   -1.1602 H   0  0  0  0  0  0  0  0  0  0  0  0
    5.2617    1.7702    0.5251 H   0  0  0  0  0  0  0  0  0  0  0  0
    7.3116    1.3066    1.2716 H   0  0  0  0  0  0  0  0  0  0  0  0
    7.8466    0.7963   -0.3278 H   0  0  0  0  0  0  0  0  0  0  0  0
    6.2197   -2.0993    2.1475 H   0  0  0  0  0  0  0  0  0  0  0  0
    6.0141   -0.4079    2.6316 H   0  0  0  0  0  0  0  0  0  0  0  0
    3.9130   -0.5629    1.7030 H   0  0  0  0  0  0  0  0  0  0  0  0
    4.4035   -1.9678    0.7234 H   0  0  0  0  0  0  0  0  0  0  0  0
    7.0641   -1.6473   -0.8845 H   0  0  0  0  0  0  0  0  0  0  0  0
    9.2128   -1.3040   -1.4621 H   0  0  0  0  0  0  0  0  0  0  0  0
    9.4261   -0.4178    0.0746 H   0  0  0  0  0  0  0  0  0  0  0  0
    9.8090   -2.1421    0.0217 H   0  0  0  0  0  0  0  0  0  0  0  0
   -5.8136    2.3979    1.4628 H   0  0  0  0  0  0  0  0  0  0  0  0
   -5.0807    3.3308    0.0988 H   0  0  0  0  0  0  0  0  0  0  0  0
   -8.3361    1.6285   -0.3714 H   0  0  0  0  0  0  0  0  0  0  0  0
   -8.4940    3.0034   -1.5910 H   0  0  0  0  0  0  0  0  0  0  0  0
   -7.0522    4.2598   -0.2631 H   0  0  0  0  0  0  0  0  0  0  0  0
   -6.0986    2.6470   -2.1760 H   0  0  0  0  0  0  0  0  0  0  0  0
   -6.8990    0.9735   -2.2180 H   0  0  0  0  0  0  0  0  0  0  0  0
   -3.9587    2.1346   -1.0072 H   0  0  0  0  0  0  0  0  0  0  0  0
   -4.3342    0.5786   -1.7326 H   0  0  0  0  0  0  0  0  0  0  0  0
    8.1208   -2.8853   -0.4441 H   0  0  0  0  0  0  0  0  0  0  0  0
   -0.7366    1.0869    0.7803 H   0  0  0  0  0  0  0  0  0  0  0  0
   -1.9310    2.7512    1.7111 H   0  0  0  0  0  0  0  0  0  0  0  0
   -2.6926    3.2026    0.1588 H   0  0  0  0  0  0  0  0  0  0  0  0
   -5.4544   -0.0907    1.4980 H   0  0  0  0  0  0  0  0  0  0  0  0
   -4.8929   -1.5003   -0.7862 H   0  0  0  0  0  0  0  0  0  0  0  0
   -2.6560   -2.4067    0.4944 H   0  0  0  0  0  0  0  0  0  0  0  0
   -3.8374   -3.5955   -0.2125 H   0  0  0  0  0  0  0  0  0  0  0  0
   -5.0494   -3.8463    1.7669 H   0  0  0  0  0  0  0  0  0  0  0  0
   -3.5459   -2.4819    3.7440 H   0  0  0  0  0  0  0  0  0  0  0  0
   -5.2258   -2.1317    3.2671 H   0  0  0  0  0  0  0  0  0  0  0  0
   -3.8333   -0.1648    3.1120 H   0  0  0  0  0  0  0  0  0  0  0  0
   -2.6413   -1.0594    2.0207 H   0  0  0  0  0  0  0  0  0  0  0  0
   -0.4547    2.4964   -1.1878 H   0  0  0  0  0  0  0  0  0  0  0  0
   -1.9050    1.8472   -1.9603 H   0  0  0  0  0  0  0  0  0  0  0  0
    0.9328    1.1868   -0.3344 H   0  0  0  0  0  0  0  0  0  0  0  0
    2.4110    1.6058   -2.0011 H   0  0  0  0  0  0  0  0  0  0  0  0
    1.5573    0.5322   -3.1428 H   0  0  0  0  0  0  0  0  0  0  0  0
    2.6430   -1.4341   -2.1730 H   0  0  0  0  0  0  0  0  0  0  0  0
    3.8593   -0.1447   -2.6187 H   0  0  0  0  0  0  0  0  0  0  0  0
    3.3231    0.7306   -0.1516 H   0  0  0  0  0  0  0  0  0  0  0  0
    2.6401   -2.2152    0.1280 H   0  0  0  0  0  0  0  0  0  0  0  0
    2.2871   -0.9182    1.3084 H   0  0  0  0  0  0  0  0  0  0  0  0
    0.2509   -1.1379    0.3708 H   0  0  0  0  0  0  0  0  0  0  0  0
    0.8905   -1.7189   -1.1701 H   0  0  0  0  0  0  0  0  0  0  0  0
    5.9935   -0.3148   -1.8984 H   0  0  0  0  0  0  0  0  0  0  0  0
    4.9880    1.0557   -1.4051 H   0  0  0  0  0  0  0  0  0  0  0  0
    6.3300    1.7039    0.3851 H   0  0  0  0  0  0  0  0  0  0  0  0
    7.4473    1.2487   -0.8984 H   0  0  0  0  0  0  0  0  0  0  0  0
    6.6932   -1.9456    1.4189 H   0  0  0  0  0  0  0  0  0  0  0  0
    6.6531   -0.5735    2.5555 H   0  0  0  0  0  0  0  0  0  0  0  0
    4.9351    0.5753    1.3544 H   0  0  0  0  0  0  0  0  0  0  0  0
    4.4215   -1.0817    1.8174 H   0  0  0  0  0  0  0  0  0  0  0  0
    8.6650   -0.3497   -0.9389 H   0  0  0  0  0  0  0  0  0  0  0  0
    9.1551   -2.3213    1.2786 H   0  0  0  0  0  0  0  0  0  0  0  0
    9.5113   -0.5832    1.6813 H   0  0  0  0  0  0  0  0  0  0  0  0
   10.3776   -1.3274    0.3241 H   0  0  0  0  0  0  0  0  0  0  0  0
  1  2  1  0
  1  6  1  0
  5  6  1  0
  2  9  1  0
  5  9  1  0
  2 12  1  0
  3 15  1  0
  7 15  1  0
 15 12  1  6
  3 16  1  0
  7 17  1  0
 16 17  1  0
 15 18  1  0
  8 19  1  0
 18 19  1  0
 19 20  1  0
  4 21  1  0
 20 21  1  0
 21 22  1  0
 18 23  1  0
 22 23  1  0
 11 24  1  0
 16 24  1  0
 11 25  1  0
 25 26  1  0
 26 27  1  0
 10 28  1  0
 27 28  1  0
 28 29  1  0
 25 30  1  0
 29 30  1  0
 10 31  1  0
 13 32  1  0
 31 32  1  0
 13 33  1  0
 10 34  1  0
 33 34  1  0
 13 35  1  0
 14 35  1  0
 35 36  1  0
 37 38  1  0
 37 42  1  0
 41 42  1  0
 38 45  1  0
 41 45  1  0
 38 48  1  0
 39 51  1  0
 43 51  1  0
 51 48  1  6
 39 52  1  0
 43 53  1  0
 52 53  1  0
 51 54  1  0
 44 55  1  0
 54 55  1  0
 55 56  1  0
 40 57  1  0
 56 57  1  0
 57 58  1  0
 54 59  1  0
 58 59  1  0
 47 60  1  0
 52 60  1  0
 47 61  1  0
 61 62  1  0
 62 63  1  0
 46 64  1  0
 63 64  1  0
 64 65  1  0
 61 66  1  0
 65 66  1  0
 46 67  1  0
 49 68  1  0
 67 68  1  0
 49 69  1  0
 46 70  1  0
 69 70  1  0
 49 71  1  0
 50 71  1  0
 71 72  1  0
  1 73  1  0
  1 74  1  0
  5 75  1  0
  5 76  1  0
  6 77  1  0
  9 78  1  0
  9 79  1  0
 12 80  1  0
 12 81  1  0
 14 82  1  0
 16 83  1  1
 17 84  1  0
 17 85  1  0
 18 86  1  0
 19 87  1  0
 20 88  1  0
 20 89  1  0
 21 90  1  0
 22 91  1  0
 22 92  1  0
 23 93  1  0
 23 94  1  0
 24 95  1  0
 24 96  1  0
 25 97  1  0
 26 98  1  0
 26 99  1  0
 27100  1  0
 27101  1  0
 28102  1  0
 29103  1  0
 29104  1  0
 30105  1  0
 30106  1  0
 31107  1  0
 31108  1  0
 32109  1  0
 32110  1  0
 33111  1  0
 33112  1  0
 34113  1  0
 34114  1  0
 35115  1  0
 36116  1  0
 36117  1  0
 36118  1  0
 37119  1  0
 37120  1  0
 41121  1  0
 41122  1  0
 42123  1  0
 45124  1  0
 45125  1  0
 48126  1  0
 48127  1  0
 50128  1  0
 52129  1  1
 53130  1  0
 53131  1  0
 54132  1  0
 55133  1  0
 56134  1  0
 56135  1  0
 57136  1  0
 58137  1  0
 58138  1  0
 59139  1  0
 59140  1  0
 60141  1  0
 60142  1  0
 61143  1  0
 62144  1  0
 62145  1  0
 63146  1  0
 63147  1  0
 64148  1  0
 65149  1  0
 65150  1  0
 66151  1  0
 66152  1  0
 67153  1  0
 67154  1  0
 68155  1  0
 68156  1  0
 69157  1  0
 69158  1  0
 70159  1  0
 70160  1  0
 71161  1  6
 72162  1  0
 72163  1  0
 72164  1  0
M  END
>  <PDBID>  (1) 
3LD6

>  <PDB ID>  (1) 
3LD6

>  <Generic Name>  (1) 
Ketoconazole

>  <Brand Name>  (1) 
Apo-ketoconazole#Extina#Ketoconazole#Ketodan#Ketoderm Cream 2%#Nizoral#Nizoral  - 2%#Nizoral A-D#Nizoral Cream 2%#Nizoral Oral Suspension 20mg/ml#Nizoral Shp 2%#Nizoral Tablets 200mg#Nu-ketocon Tablets - 200mg#Teva-ketoconazole#Xolegel#Fungarest#Fungoral#Ketoderm#Ketoisdin#Ketozole#Nizoral Cream#Nizoral Shampoo#Orifungal#Orifungal M#Panfungol

>  <DrugBank ID>  (1) 
DB01026

>  <ATC Codes>  (1) 
G01AF11#D01AC08#J02AB02

>  <Ligand ID>  (1) 
KKK,KLN,KTN

>  <Target Name>  (1) 
Lanosterol 14-alpha demethylase

>  <UniProt ID>  (1) 
P10613

>  <PDB ID.1>  (1) 
3LD6

>  <Seq. Identity>  (1) 
40%

$$$$
