PDB_DB00696_09
     RDKit          3D

100107  0  0  0  0  0  0  0  0999 V2000
    8.0365   -0.2519   -0.6600 C   0  0  0  0  0  0  0  0  0  0  0  0
    8.6502    0.7913    0.1845 N   0  0  0  0  0  0  0  0  0  0  0  0
    1.4550   -1.0327    2.8426 O   0  0  0  0  0  0  0  0  0  0  0  0
    5.0883    2.9322    1.0124 C   0  0  0  0  0  0  0  0  0  0  0  0
    6.3680    3.3913    1.6556 C   0  0  0  0  0  0  0  0  0  0  0  0
    7.4393    2.3318    1.6972 C   0  0  0  0  0  0  0  0  0  0  0  0
    7.6813    1.8313    0.3160 C   0  0  0  0  0  0  0  0  0  0  0  0
    6.3772    1.2995   -0.2222 C   0  0  0  0  0  0  0  0  0  0  0  0
    2.5643   -0.3535   -2.7431 C   0  0  0  0  0  0  0  0  0  0  0  0
    1.2715   -1.3517    1.4623 C   0  0  0  0  0  0  0  0  0  0  0  0
   -1.0609   -1.2091    1.2309 C   0  0  2  0  0  0  0  0  0  0  0  0
   -2.2091   -0.1959    1.0982 C   0  0  0  0  0  0  0  0  0  0  0  0
   -4.3513   -1.0846    0.4733 C   0  0  2  0  0  0  0  0  0  0  0  0
    3.2921   -0.7982   -1.6107 N   0  0  0  0  0  0  0  0  0  0  0  0
    6.6451   -0.2094   -0.1593 C   0  0  0  0  0  0  0  0  0  0  0  0
   -1.3697   -2.1840    0.3183 O   0  0  0  0  0  0  0  0  0  0  0  0
   -4.5901   -2.5620    0.3770 C   0  0  0  0  0  0  0  0  0  0  0  0
   -5.0381   -3.5482   -1.7842 C   0  0  0  0  0  0  0  0  0  0  0  0
   -4.5656   -2.9809   -3.0889 C   0  0  0  0  0  0  0  0  0  0  0  0
   -3.3280   -2.1754   -2.7736 C   0  0  0  0  0  0  0  0  0  0  0  0
   -2.9650   -2.6537   -1.4016 C   0  0  1  0  0  0  0  0  0  0  0  0
   -2.2433   -1.6049   -0.6312 C   0  0  1  0  0  0  0  0  0  0  0  0
   -1.1214   -1.7177    2.6627 C   0  0  0  0  0  0  0  0  0  0  0  0
   -5.4167   -0.3748   -0.3234 C   0  0  0  0  0  0  0  0  0  0  0  0
   -5.3144    1.1256   -0.3023 C   0  0  0  0  0  0  0  0  0  0  0  0
   -6.4116    1.7418   -1.1479 C   0  0  0  0  0  0  0  0  0  0  0  0
    5.5878   -0.8490   -0.9635 C   0  0  0  0  0  0  0  0  0  0  0  0
    0.1876   -0.5348    0.9593 N   0  0  0  0  0  0  0  0  0  0  0  0
   -1.6894    1.0592    0.7923 O   0  0  0  0  0  0  0  0  0  0  0  0
   -7.2854    2.6282   -0.2941 C   0  0  0  0  0  0  0  0  0  0  0  0
   -6.4808    3.7373    0.3445 C   0  0  0  0  0  0  0  0  0  0  0  0
   -5.2802    3.1692    1.0577 C   0  0  0  0  0  0  0  0  0  0  0  0
   -5.4216    1.6576    1.1120 C   0  0  0  0  0  0  0  0  0  0  0  0
    4.3473    0.0034   -1.1371 C   0  0  2  0  0  0  0  0  0  0  0  0
   -3.0583   -0.6628    0.0479 N   0  0  0  0  0  0  0  0  0  0  0  0
   -5.9976   -2.7310    0.3689 O   0  0  0  0  0  0  0  0  0  0  0  0
    2.4813   -1.5036   -0.6905 C   0  0  0  0  0  0  0  0  0  0  0  0
   -4.0964   -3.2053   -0.7683 N   0  0  0  0  0  0  0  0  0  0  0  0
   -1.4673   -0.8847   -1.5744 O   0  0  0  0  0  0  0  0  0  0  0  0
    2.5871   -1.1451    0.7372 C   0  0  1  0  0  0  0  0  0  0  0  0
    3.1245    0.2101    1.0507 C   0  0  0  0  0  0  0  0  0  0  0  0
    4.0177    0.8465    0.0488 C   0  0  1  0  0  0  0  0  0  0  0  0
    5.2267    1.4762    0.7110 C   0  0  0  0  0  0  0  0  0  0  0  0
    8.0674    0.0232   -1.7244 H   0  0  0  0  0  0  0  0  0  0  0  0
    8.5582   -1.1978   -0.4715 H   0  0  0  0  0  0  0  0  0  0  0  0
    8.8582    0.3753    1.1133 H   0  0  0  0  0  0  0  0  0  0  0  0
    1.7516   -1.8395    3.3322 H   0  0  0  0  0  0  0  0  0  0  0  0
    4.2698    3.1181    1.7139 H   0  0  0  0  0  0  0  0  0  0  0  0
    4.8889    3.5237    0.0927 H   0  0  0  0  0  0  0  0  0  0  0  0
    6.1974    3.7013    2.7227 H   0  0  0  0  0  0  0  0  0  0  0  0
    6.7920    4.2797    1.1498 H   0  0  0  0  0  0  0  0  0  0  0  0
    8.3603    2.8386    2.0721 H   0  0  0  0  0  0  0  0  0  0  0  0
    7.2125    1.5142    2.3862 H   0  0  0  0  0  0  0  0  0  0  0  0
    8.0091    2.7139   -0.2953 H   0  0  0  0  0  0  0  0  0  0  0  0
    6.1820    1.6632   -1.2307 H   0  0  0  0  0  0  0  0  0  0  0  0
    2.3571    0.7286   -2.7633 H   0  0  0  0  0  0  0  0  0  0  0  0
    3.1486   -0.6865   -3.6530 H   0  0  0  0  0  0  0  0  0  0  0  0
    1.5853   -0.8747   -2.8480 H   0  0  0  0  0  0  0  0  0  0  0  0
    0.9332   -2.4012    1.4487 H   0  0  0  0  0  0  0  0  0  0  0  0
   -2.7766   -0.1174    2.0244 H   0  0  0  0  0  0  0  0  0  0  0  0
   -4.4798   -0.7965    1.5320 H   0  0  0  0  0  0  0  0  0  0  0  0
    6.6108   -0.4907    0.9208 H   0  0  0  0  0  0  0  0  0  0  0  0
   -4.2368   -3.0775    1.2904 H   0  0  0  0  0  0  0  0  0  0  0  0
   -5.0341   -4.6729   -1.8666 H   0  0  0  0  0  0  0  0  0  0  0  0
   -6.0820   -3.2698   -1.5320 H   0  0  0  0  0  0  0  0  0  0  0  0
   -5.3323   -2.3236   -3.5132 H   0  0  0  0  0  0  0  0  0  0  0  0
   -4.3454   -3.7758   -3.8496 H   0  0  0  0  0  0  0  0  0  0  0  0
   -3.4751   -1.0939   -2.8427 H   0  0  0  0  0  0  0  0  0  0  0  0
   -2.5342   -2.4296   -3.5279 H   0  0  0  0  0  0  0  0  0  0  0  0
   -2.2284   -3.5044   -1.5523 H   0  0  0  0  0  0  0  0  0  0  0  0
   -0.5849   -2.6700    2.7523 H   0  0  0  0  0  0  0  0  0  0  0  0
   -0.8171   -0.9359    3.3843 H   0  0  0  0  0  0  0  0  0  0  0  0
   -2.1868   -1.9555    2.9369 H   0  0  0  0  0  0  0  0  0  0  0  0
   -5.3564   -0.6590   -1.4156 H   0  0  0  0  0  0  0  0  0  0  0  0
   -6.4314   -0.7287   -0.0242 H   0  0  0  0  0  0  0  0  0  0  0  0
   -4.3330    1.4114   -0.7141 H   0  0  0  0  0  0  0  0  0  0  0  0
   -5.9614    2.4200   -1.9265 H   0  0  0  0  0  0  0  0  0  0  0  0
   -7.0360    0.9962   -1.6593 H   0  0  0  0  0  0  0  0  0  0  0  0
    5.9925   -1.1118   -1.9621 H   0  0  0  0  0  0  0  0  0  0  0  0
    5.3375   -1.8386   -0.4784 H   0  0  0  0  0  0  0  0  0  0  0  0
    0.2618   -0.3823   -0.0497 H   0  0  0  0  0  0  0  0  0  0  0  0
   -2.4022    1.7135    0.9711 H   0  0  0  0  0  0  0  0  0  0  0  0
   -7.9114    2.0744    0.4299 H   0  0  0  0  0  0  0  0  0  0  0  0
   -8.0178    3.1447   -0.9785 H   0  0  0  0  0  0  0  0  0  0  0  0
   -6.1949    4.4862   -0.4191 H   0  0  0  0  0  0  0  0  0  0  0  0
   -7.1256    4.2389    1.0872 H   0  0  0  0  0  0  0  0  0  0  0  0
   -4.3788    3.4877    0.5363 H   0  0  0  0  0  0  0  0  0  0  0  0
   -5.2375    3.5031    2.1272 H   0  0  0  0  0  0  0  0  0  0  0  0
   -4.6217    1.2877    1.7396 H   0  0  0  0  0  0  0  0  0  0  0  0
   -6.3892    1.4045    1.5799 H   0  0  0  0  0  0  0  0  0  0  0  0
    4.6067    0.6957   -2.0013 H   0  0  0  0  0  0  0  0  0  0  0  0
   -6.4107   -2.5039    1.2161 H   0  0  0  0  0  0  0  0  0  0  0  0
    1.4398   -1.4884   -1.0850 H   0  0  0  0  0  0  0  0  0  0  0  0
    2.7311   -2.6250   -0.8272 H   0  0  0  0  0  0  0  0  0  0  0  0
   -1.9606   -0.0831   -1.8549 H   0  0  0  0  0  0  0  0  0  0  0  0
    3.2853   -1.9018    1.2132 H   0  0  0  0  0  0  0  0  0  0  0  0
    2.2379    0.8577    1.3216 H   0  0  0  0  0  0  0  0  0  0  0  0
    3.6902    0.1405    2.0131 H   0  0  0  0  0  0  0  0  0  0  0  0
    3.4468    1.7355   -0.3676 H   0  0  0  0  0  0  0  0  0  0  0  0
    5.4036    0.9311    1.6609 H   0  0  0  0  0  0  0  0  0  0  0  0
  1  2  1  0
  4  5  1  0
  5  6  1  0
  2  7  1  0
  6  7  1  0
  7  8  1  0
  3 10  1  0
 11 12  1  0
  9 14  1  0
  1 15  1  0
  8 15  1  0
 11 16  1  0
 13 17  1  0
 18 19  1  0
 19 20  1  0
 20 21  1  0
 16 22  1  0
 21 22  1  0
 11 23  1  0
 13 24  1  0
 24 25  1  0
 25 26  1  0
 15 27  1  0
 10 28  1  0
 11 28  1  6
 12 29  1  0
 26 30  1  0
 30 31  1  0
 31 32  1  0
 25 33  1  0
 32 33  1  0
 14 34  1  0
 27 34  1  0
 12 35  1  0
 13 35  1  0
 22 35  1  0
 17 36  1  0
 14 37  1  0
 17 38  1  0
 18 38  1  0
 21 38  1  0
 22 39  1  6
 10 40  1  0
 37 40  1  0
 40 41  1  0
 34 42  1  0
 41 42  1  0
  4 43  1  0
  8 43  1  0
 42 43  1  0
  1 44  1  0
  1 45  1  0
  2 46  1  0
  3 47  1  0
  4 48  1  0
  4 49  1  0
  5 50  1  0
  5 51  1  0
  6 52  1  0
  6 53  1  0
  7 54  1  0
  8 55  1  0
  9 56  1  0
  9 57  1  0
  9 58  1  0
 10 59  1  0
 12 60  1  0
 13 61  1  1
 15 62  1  0
 17 63  1  0
 18 64  1  0
 18 65  1  0
 19 66  1  0
 19 67  1  0
 20 68  1  0
 20 69  1  0
 21 70  1  6
 23 71  1  0
 23 72  1  0
 23 73  1  0
 24 74  1  0
 24 75  1  0
 25 76  1  0
 26 77  1  0
 26 78  1  0
 27 79  1  0
 27 80  1  0
 28 81  1  0
 29 82  1  0
 30 83  1  0
 30 84  1  0
 31 85  1  0
 31 86  1  0
 32 87  1  0
 32 88  1  0
 33 89  1  0
 33 90  1  0
 34 91  1  6
 36 92  1  0
 37 93  1  0
 37 94  1  0
 39 95  1  0
 40 96  1  1
 41 97  1  0
 41 98  1  0
 42 99  1  6
 43100  1  0
M  END
>  <PDBID>  (1) 
4IB4

>  <PDB ID>  (1) 
4IB4

>  <Generic Name>  (1) 
Ergotamine

>  <Brand Name>  (1) 
Cafergot#Cafergot Sup#Cafergot Tab#Ergodryl Cap#Ergomar#Ergomar Slt 2mg#Ergomar Sublingual#Ergotamine#Ergotamine Tartrate and Caffeine#Gravergol Capsules#Megral Tabs#Migergot#Anervan#Antimigraine#Enxak#Ergam#Ergo-Kranit#Gynaemine#Wigrettes

>  <DrugBank ID>  (1) 
DB00696

>  <ATC Codes>  (1) 
N02CA52#N02CA72#N02CA02

>  <Ligand ID>  (1) 
ERM

>  <Target Name>  (1) 
5-hydroxytryptamine receptor 2A

>  <UniProt ID>  (1) 
P28223

>  <PDB ID.1>  (1) 
4IB4

>  <Seq. Identity>  (1) 
58%

$$$$
