PDB_DB01044_08
     RDKit          3D

122128  0  0  0  0  0  0  0  0999 V2000
   -5.6461    1.4450   -0.2423 C   0  0  0  0  0  0  0  0  0  0  0  0
   -4.5846    0.3660   -0.2201 C   0  0  1  0  0  0  0  0  0  0  0  0
   -3.5128    0.8423    0.7666 C   0  0  0  0  0  0  0  0  0  0  0  0
   -2.3785   -0.0615    0.7828 N   0  0  0  0  0  0  0  0  0  0  0  0
   -2.7961   -1.4026    0.6102 C   0  0  0  0  0  0  0  0  0  0  0  0
   -4.2326   -1.5304    1.1411 C   0  0  0  0  0  0  0  0  0  0  0  0
   -5.1587   -0.8846    0.2310 N   0  0  0  0  0  0  0  0  0  0  0  0
   -1.3834    0.4294   -0.1332 C   0  0  0  0  0  0  0  0  0  0  0  0
   -0.9331    1.7570    0.3669 C   0  0  0  0  0  0  0  0  0  0  0  0
    0.5772    1.9229    0.3179 C   0  0  0  0  0  0  0  0  0  0  0  0
    1.0663    0.7295    1.1067 C   0  0  0  0  0  0  0  0  0  0  0  0
    0.9731   -0.4643    0.1907 C   0  0  0  0  0  0  0  0  0  0  0  0
   -0.3352   -0.5400   -0.5397 C   0  0  0  0  0  0  0  0  0  0  0  0
   -0.0308   -0.4514   -1.9035 O   0  0  0  0  0  0  0  0  0  0  0  0
   -0.4014   -1.5527   -2.6242 C   0  0  0  0  0  0  0  0  0  0  0  0
    2.1234   -0.6783   -0.6358 N   0  0  0  0  0  0  0  0  0  0  0  0
    2.9962    0.4149   -0.8691 C   0  0  0  0  0  0  0  0  0  0  0  0
    3.2120    1.3468    0.2677 C   0  0  0  0  0  0  0  0  0  0  0  0
    2.5035    0.8665    1.5307 C   0  0  0  0  0  0  0  0  0  0  0  0
    2.6439    1.7681    2.5524 O   0  0  0  0  0  0  0  0  0  0  0  0
    4.6721    1.5043    0.6610 C   0  0  0  0  0  0  0  0  0  0  0  0
    5.3736    1.9943   -0.4231 O   0  0  0  0  0  0  0  0  0  0  0  0
    4.7964    2.3499    1.7672 O   0  0  0  0  0  0  0  0  0  0  0  0
    2.8541   -1.8835   -0.3590 C   0  0  0  0  0  0  0  0  0  0  0  0
    2.3343   -3.2383   -0.4866 C   0  0  0  0  0  0  0  0  0  0  0  0
    3.0690   -2.7208   -1.6514 C   0  0  0  0  0  0  0  0  0  0  0  0
   -1.2456    1.9073    1.7273 F   0  0  0  0  0  0  0  0  0  0  0  0
   -6.3554    1.2986   -1.0995 H   0  0  0  0  0  0  0  0  0  0  0  0
   -6.2597    1.4280    0.6898 H   0  0  0  0  0  0  0  0  0  0  0  0
   -5.1976    2.4418   -0.3751 H   0  0  0  0  0  0  0  0  0  0  0  0
   -4.1746    0.3075   -1.2472 H   0  0  0  0  0  0  0  0  0  0  0  0
   -3.9753    0.8806    1.7688 H   0  0  0  0  0  0  0  0  0  0  0  0
   -3.2607    1.8610    0.4711 H   0  0  0  0  0  0  0  0  0  0  0  0
   -2.8514   -1.7605   -0.4317 H   0  0  0  0  0  0  0  0  0  0  0  0
   -2.1832   -2.0968    1.2445 H   0  0  0  0  0  0  0  0  0  0  0  0
   -4.3035   -1.1066    2.1500 H   0  0  0  0  0  0  0  0  0  0  0  0
   -4.4987   -2.6055    1.1659 H   0  0  0  0  0  0  0  0  0  0  0  0
   -5.3840   -1.5026   -0.5818 H   0  0  0  0  0  0  0  0  0  0  0  0
    0.8103    2.8808    0.8270 H   0  0  0  0  0  0  0  0  0  0  0  0
    0.0383   -2.5043   -2.3372 H   0  0  0  0  0  0  0  0  0  0  0  0
   -1.5199   -1.5934   -2.6950 H   0  0  0  0  0  0  0  0  0  0  0  0
   -0.0746   -1.3641   -3.6850 H   0  0  0  0  0  0  0  0  0  0  0  0
    2.7626    0.9727   -1.8165 H   0  0  0  0  0  0  0  0  0  0  0  0
    3.8233   -1.6780    0.1794 H   0  0  0  0  0  0  0  0  0  0  0  0
    1.2615   -3.4336   -0.5067 H   0  0  0  0  0  0  0  0  0  0  0  0
    2.8885   -4.0120    0.1261 H   0  0  0  0  0  0  0  0  0  0  0  0
    2.4942   -2.4655   -2.5430 H   0  0  0  0  0  0  0  0  0  0  0  0
    4.1104   -3.0282   -1.8817 H   0  0  0  0  0  0  0  0  0  0  0  0
   -5.6461    1.4450   -0.2423 C   0  0  0  0  0  0  0  0  0  0  0  0
   -4.5846    0.3660   -0.2201 C   0  0  1  0  0  0  0  0  0  0  0  0
   -3.5128    0.8423    0.7666 C   0  0  0  0  0  0  0  0  0  0  0  0
   -2.3785   -0.0615    0.7828 N   0  0  0  0  0  0  0  0  0  0  0  0
   -2.7961   -1.4026    0.6102 C   0  0  0  0  0  0  0  0  0  0  0  0
   -4.2326   -1.5304    1.1411 C   0  0  0  0  0  0  0  0  0  0  0  0
   -5.1587   -0.8846    0.2310 N   0  0  0  0  0  0  0  0  0  0  0  0
   -1.3834    0.4294   -0.1332 C   0  0  0  0  0  0  0  0  0  0  0  0
   -0.9331    1.7570    0.3669 C   0  0  0  0  0  0  0  0  0  0  0  0
    0.5772    1.9229    0.3179 C   0  0  0  0  0  0  0  0  0  0  0  0
    1.0663    0.7295    1.1067 C   0  0  0  0  0  0  0  0  0  0  0  0
    0.9731   -0.4643    0.1907 C   0  0  0  0  0  0  0  0  0  0  0  0
   -0.3352   -0.5400   -0.5397 C   0  0  0  0  0  0  0  0  0  0  0  0
   -0.0308   -0.4514   -1.9035 O   0  0  0  0  0  0  0  0  0  0  0  0
   -0.4014   -1.5527   -2.6242 C   0  0  0  0  0  0  0  0  0  0  0  0
    2.1234   -0.6783   -0.6358 N   0  0  0  0  0  0  0  0  0  0  0  0
    2.9962    0.4149   -0.8691 C   0  0  0  0  0  0  0  0  0  0  0  0
    3.2120    1.3468    0.2677 C   0  0  0  0  0  0  0  0  0  0  0  0
    2.5035    0.8665    1.5307 C   0  0  0  0  0  0  0  0  0  0  0  0
    2.6439    1.7681    2.5524 O   0  0  0  0  0  0  0  0  0  0  0  0
    4.6721    1.5043    0.6610 C   0  0  0  0  0  0  0  0  0  0  0  0
    5.3736    1.9943   -0.4231 O   0  0  0  0  0  0  0  0  0  0  0  0
    4.7964    2.3499    1.7672 O   0  0  0  0  0  0  0  0  0  0  0  0
    2.8541   -1.8835   -0.3590 C   0  0  0  0  0  0  0  0  0  0  0  0
    2.3343   -3.2383   -0.4866 C   0  0  0  0  0  0  0  0  0  0  0  0
    3.0690   -2.7208   -1.6514 C   0  0  0  0  0  0  0  0  0  0  0  0
   -1.2456    1.9073    1.7273 F   0  0  0  0  0  0  0  0  0  0  0  0
   -6.3554    1.2986   -1.0995 H   0  0  0  0  0  0  0  0  0  0  0  0
   -6.2597    1.4280    0.6898 H   0  0  0  0  0  0  0  0  0  0  0  0
   -5.1976    2.4418   -0.3751 H   0  0  0  0  0  0  0  0  0  0  0  0
   -4.1746    0.3075   -1.2472 H   0  0  0  0  0  0  0  0  0  0  0  0
   -3.9753    0.8806    1.7688 H   0  0  0  0  0  0  0  0  0  0  0  0
   -3.2607    1.8610    0.4711 H   0  0  0  0  0  0  0  0  0  0  0  0
   -2.8514   -1.7605   -0.4317 H   0  0  0  0  0  0  0  0  0  0  0  0
   -2.1832   -2.0968    1.2445 H   0  0  0  0  0  0  0  0  0  0  0  0
   -4.3035   -1.1066    2.1500 H   0  0  0  0  0  0  0  0  0  0  0  0
   -4.4987   -2.6055    1.1659 H   0  0  0  0  0  0  0  0  0  0  0  0
   -5.3840   -1.5026   -0.5818 H   0  0  0  0  0  0  0  0  0  0  0  0
    0.8103    2.8808    0.8270 H   0  0  0  0  0  0  0  0  0  0  0  0
    0.0383   -2.5043   -2.3372 H   0  0  0  0  0  0  0  0  0  0  0  0
   -1.5199   -1.5934   -2.6950 H   0  0  0  0  0  0  0  0  0  0  0  0
   -0.0746   -1.3641   -3.6850 H   0  0  0  0  0  0  0  0  0  0  0  0
    2.7626    0.9727   -1.8165 H   0  0  0  0  0  0  0  0  0  0  0  0
    3.8233   -1.6780    0.1794 H   0  0  0  0  0  0  0  0  0  0  0  0
    1.2615   -3.4336   -0.5067 H   0  0  0  0  0  0  0  0  0  0  0  0
    2.8885   -4.0120    0.1261 H   0  0  0  0  0  0  0  0  0  0  0  0
    2.4942   -2.4655   -2.5430 H   0  0  0  0  0  0  0  0  0  0  0  0
    4.1104   -3.0282   -1.8817 H   0  0  0  0  0  0  0  0  0  0  0  0
   -1.9659    0.6492   -1.0854 H   0  0  0  0  0  0  0  0  0  0  0  0
   -1.3536    2.6243   -0.2013 H   0  0  0  0  0  0  0  0  0  0  0  0
    0.8531    1.9126   -0.7335 H   0  0  0  0  0  0  0  0  0  0  0  0
    0.4489    0.5514    1.9994 H   0  0  0  0  0  0  0  0  0  0  0  0
    0.9795   -1.3461    0.9082 H   0  0  0  0  0  0  0  0  0  0  0  0
   -0.8137   -1.5549   -0.4270 H   0  0  0  0  0  0  0  0  0  0  0  0
    4.0142   -0.0307   -1.1034 H   0  0  0  0  0  0  0  0  0  0  0  0
    2.7872    2.3544    0.0607 H   0  0  0  0  0  0  0  0  0  0  0  0
    2.8703   -0.1484    1.7647 H   0  0  0  0  0  0  0  0  0  0  0  0
    2.0966    2.5532    2.3871 H   0  0  0  0  0  0  0  0  0  0  0  0
    5.0500    0.4916    0.9053 H   0  0  0  0  0  0  0  0  0  0  0  0
    5.3302    2.9934   -0.3867 H   0  0  0  0  0  0  0  0  0  0  0  0
    4.9967    1.7939    2.5577 H   0  0  0  0  0  0  0  0  0  0  0  0
   -1.9659    0.6492   -1.0854 H   0  0  0  0  0  0  0  0  0  0  0  0
   -1.3536    2.6243   -0.2013 H   0  0  0  0  0  0  0  0  0  0  0  0
    0.8531    1.9126   -0.7335 H   0  0  0  0  0  0  0  0  0  0  0  0
    0.4489    0.5514    1.9994 H   0  0  0  0  0  0  0  0  0  0  0  0
    0.9795   -1.3461    0.9082 H   0  0  0  0  0  0  0  0  0  0  0  0
   -0.8137   -1.5549   -0.4270 H   0  0  0  0  0  0  0  0  0  0  0  0
    4.0142   -0.0307   -1.1034 H   0  0  0  0  0  0  0  0  0  0  0  0
    2.7872    2.3544    0.0607 H   0  0  0  0  0  0  0  0  0  0  0  0
    2.8703   -0.1484    1.7647 H   0  0  0  0  0  0  0  0  0  0  0  0
    2.0966    2.5532    2.3871 H   0  0  0  0  0  0  0  0  0  0  0  0
    5.0500    0.4916    0.9053 H   0  0  0  0  0  0  0  0  0  0  0  0
    5.3302    2.9934   -0.3867 H   0  0  0  0  0  0  0  0  0  0  0  0
    4.9967    1.7939    2.5577 H   0  0  0  0  0  0  0  0  0  0  0  0
  1  2  1  0
  2  3  1  0
  3  4  1  0
  4  5  1  0
  5  6  1  0
  2  7  1  0
  6  7  1  0
  4  8  1  0
  8  9  1  0
  9 10  1  0
 10 11  1  0
 11 12  1  0
  8 13  1  0
 12 13  1  0
 13 14  1  0
 14 15  1  0
 12 16  1  0
 16 17  1  0
 17 18  1  0
 11 19  1  0
 18 19  1  0
 19 20  1  0
 18 21  1  0
 21 22  1  0
 21 23  1  0
 16 24  1  0
 24 25  1  0
 24 26  1  0
 25 26  1  0
  9 27  1  0
  1 28  1  0
  1 29  1  0
  1 30  1  0
  2 31  1  6
  3 32  1  0
  3 33  1  0
  5 34  1  0
  5 35  1  0
  6 36  1  0
  6 37  1  0
  7 38  1  0
 10 39  1  0
 15 40  1  0
 15 41  1  0
 15 42  1  0
 17 43  1  0
 24 44  1  0
 25 45  1  0
 25 46  1  0
 26 47  1  0
 26 48  1  0
 49 50  1  0
 50 51  1  0
 51 52  1  0
 52 53  1  0
 53 54  1  0
 50 55  1  0
 54 55  1  0
 52 56  1  0
 56 57  1  0
 57 58  1  0
 58 59  1  0
 59 60  1  0
 56 61  1  0
 60 61  1  0
 61 62  1  0
 62 63  1  0
 60 64  1  0
 64 65  1  0
 65 66  1  0
 59 67  1  0
 66 67  1  0
 67 68  1  0
 66 69  1  0
 69 70  1  0
 69 71  1  0
 64 72  1  0
 72 73  1  0
 72 74  1  0
 73 74  1  0
 57 75  1  0
 49 76  1  0
 49 77  1  0
 49 78  1  0
 50 79  1  6
 51 80  1  0
 51 81  1  0
 53 82  1  0
 53 83  1  0
 54 84  1  0
 54 85  1  0
 55 86  1  0
 58 87  1  0
 63 88  1  0
 63 89  1  0
 63 90  1  0
 65 91  1  0
 72 92  1  0
 73 93  1  0
 73 94  1  0
 74 95  1  0
 74 96  1  0
  8 97  1  0
  9 98  1  0
 10 99  1  0
 11100  1  0
 12101  1  0
 13102  1  0
 17103  1  0
 18104  1  0
 19105  1  0
 20106  1  0
 21107  1  0
 22108  1  0
 23109  1  0
 56110  1  0
 57111  1  0
 58112  1  0
 59113  1  0
 60114  1  0
 61115  1  0
 65116  1  0
 66117  1  0
 67118  1  0
 68119  1  0
 69120  1  0
 70121  1  0
 71122  1  0
M  END
>  <PDBID>  (1) 
5BTF

>  <PDB ID>  (1) 
5BTF

>  <Generic Name>  (1) 
Gatifloxacin

>  <Brand Name>  (1) 
Apo-gatifloxacin#Gatifloxacin#Tequin#Tequin IV#Zymar#Zymaxid

>  <DrugBank ID>  (1) 
DB01044

>  <ATC Codes>  (1) 
S01AE06#J01MA16

>  <Ligand ID>  (1) 
GFN

>  <Target Name>  (1) 
DNA gyrase subunit A

>  <UniProt ID>  (1) 
P72524

>  <PDB ID.1>  (1) 
5BTF

>  <Seq. Identity>  (1) 
53%

$$$$
