PDB_DB01144_01
     RDKit          3D

 32 32  0  0  0  0  0  0  0  0999 V2000
   -2.4302    0.5477   -1.0873 S   0  0  0  0  0  0  0  0  0  0  0  0
   -2.0433    0.7886   -2.6702 O   0  0  0  0  0  0  0  0  0  0  0  0
   -1.8762    2.0890   -0.3999 O   0  0  0  0  0  0  0  0  0  0  0  0
   -3.7902    0.1853   -0.6792 N   0  0  0  0  0  0  0  0  0  0  0  0
    2.5413    0.7758    0.1337 S   0  0  0  0  0  0  0  0  0  0  0  0
    1.8450    1.9807    0.9795 O   0  0  0  0  0  0  0  0  0  0  0  0
    3.7797    0.1790    0.7228 O   0  0  0  0  0  0  0  0  0  0  0  0
    2.7256    1.2789   -1.4400 N   0  0  0  0  0  0  0  0  0  0  0  0
   -1.1925   -0.5002   -0.4707 C   0  0  0  0  0  0  0  0  0  0  0  0
    0.1323    0.1343   -0.7013 C   0  0  0  0  0  0  0  0  0  0  0  0
    1.2810   -0.5188   -0.0267 C   0  0  0  0  0  0  0  0  0  0  0  0
    0.9965   -1.0072    1.3635 C   0  0  0  0  0  0  0  0  0  0  0  0
   -0.2851   -1.8094    1.3712 C   0  0  0  0  0  0  0  0  0  0  0  0
   -1.3998   -0.8736    0.9641 C   0  0  0  0  0  0  0  0  0  0  0  0
    2.3486   -2.0142    1.9041 Cl  0  0  0  0  0  0  0  0  0  0  0  0
   -0.1555   -3.1609    0.2090 Cl  0  0  0  0  0  0  0  0  0  0  0  0
   -2.3299    0.0136   -3.2156 H   0  0  0  0  0  0  0  0  0  0  0  0
   -1.8216    1.8837    0.5837 H   0  0  0  0  0  0  0  0  0  0  0  0
   -4.5617    0.8873   -0.5315 H   0  0  0  0  0  0  0  0  0  0  0  0
   -4.0982   -0.6559   -0.1058 H   0  0  0  0  0  0  0  0  0  0  0  0
    2.3829    2.3063    1.7568 H   0  0  0  0  0  0  0  0  0  0  0  0
    3.9854    0.2728    1.6837 H   0  0  0  0  0  0  0  0  0  0  0  0
    2.9285    0.4598   -2.0700 H   0  0  0  0  0  0  0  0  0  0  0  0
    3.4613    2.0098   -1.4914 H   0  0  0  0  0  0  0  0  0  0  0  0
   -1.2275   -1.4520   -1.0721 H   0  0  0  0  0  0  0  0  0  0  0  0
    0.0898    1.2092   -0.4021 H   0  0  0  0  0  0  0  0  0  0  0  0
    0.3411    0.1202   -1.8118 H   0  0  0  0  0  0  0  0  0  0  0  0
    1.7170   -1.3543   -0.5958 H   0  0  0  0  0  0  0  0  0  0  0  0
    0.8302   -0.1282    2.0126 H   0  0  0  0  0  0  0  0  0  0  0  0
   -0.4902   -2.2529    2.3568 H   0  0  0  0  0  0  0  0  0  0  0  0
   -1.3335    0.0108    1.6193 H   0  0  0  0  0  0  0  0  0  0  0  0
   -2.3510   -1.4053    1.1106 H   0  0  0  0  0  0  0  0  0  0  0  0
  1  2  1  0
  1  3  1  0
  1  4  1  0
  5  6  1  0
  5  7  1  0
  5  8  1  0
  1  9  1  0
  9 10  1  0
  5 11  1  0
 10 11  1  0
 11 12  1  0
 12 13  1  0
  9 14  1  0
 13 14  1  0
 12 15  1  0
 13 16  1  0
  2 17  1  0
  3 18  1  0
  4 19  1  0
  4 20  1  0
  6 21  1  0
  7 22  1  0
  8 23  1  0
  8 24  1  0
  9 25  1  0
 10 26  1  0
 10 27  1  0
 11 28  1  0
 12 29  1  0
 13 30  1  0
 14 31  1  0
 14 32  1  0
M  END
>  <PDBID>  (1) 
2POU

>  <PDB ID>  (1) 
2POU

>  <Generic Name>  (1) 
Diclofenamide

>  <Brand Name>  (1) 
Daranide#Keveyis#Oratrol

>  <DrugBank ID>  (1) 
DB01144

>  <ATC Codes>  (1) 
S01EC02

>  <Ligand ID>  (1) 
I7A

>  <Target Name>  (1) 
Carbonic anhydrase 1

>  <UniProt ID>  (1) 
P00915

>  <PDB ID.1>  (1) 
2POU

>  <Seq. Identity>  (1) 
61%

$$$$
