PDB_DB01128_08
     RDKit          3D

 63 64  0  0  0  0  0  0  0  0999 V2000
   -4.6086   -1.2987    1.6922 C   0  0  0  0  0  0  0  0  0  0  0  0
   -5.7973   -0.4004    1.7654 C   0  0  0  0  0  0  0  0  0  0  0  0
   -6.5947   -0.3497    0.4981 C   0  0  0  0  0  0  0  0  0  0  0  0
   -7.3212    0.8286    0.4929 F   0  0  0  0  0  0  0  0  0  0  0  0
   -5.8660   -0.5855   -0.7475 C   0  0  0  0  0  0  0  0  0  0  0  0
   -4.4842   -1.1389   -0.6997 C   0  0  0  0  0  0  0  0  0  0  0  0
   -3.6724   -0.8741    0.5064 C   0  0  0  0  0  0  0  0  0  0  0  0
   -3.0543    0.6704    0.7475 S   0  0  0  0  0  0  0  0  0  0  0  0
   -4.4303    1.7533    0.3065 O   0  0  0  0  0  0  0  0  0  0  0  0
   -2.7194    1.1082    2.1266 O   0  0  0  0  0  0  0  0  0  0  0  0
   -1.9168    1.1359   -0.4479 C   0  0  0  0  0  0  0  0  0  0  0  0
   -0.6447    0.3890   -0.5430 C   0  0  1  0  0  0  0  0  0  0  0  0
    0.0929    0.4455    0.6572 O   0  0  0  0  0  0  0  0  0  0  0  0
   -0.7951   -1.0396   -0.8961 C   0  0  0  0  0  0  0  0  0  0  0  0
    0.2329    1.0136   -1.6624 C   0  0  1  0  0  0  0  0  0  0  0  0
    0.2969    2.3586   -1.3486 O   0  0  0  0  0  0  0  0  0  0  0  0
    1.4052    0.3279   -1.8468 N   0  0  0  0  0  0  0  0  0  0  0  0
    2.4264    0.1663   -0.9303 C   0  0  2  0  0  0  0  0  0  0  0  0
    3.1298    1.4020   -0.4576 C   0  0  0  0  0  0  0  0  0  0  0  0
    3.4641   -0.7778   -1.5797 C   0  0  0  0  0  0  0  0  0  0  0  0
    4.4724   -1.2618   -0.5971 C   0  0  0  0  0  0  0  0  0  0  0  0
    4.5378   -0.3713    0.6000 C   0  0  0  0  0  0  0  0  0  0  0  0
    5.7346   -0.6291    1.4667 C   0  0  0  0  0  0  0  0  0  0  0  0
    5.7129   -2.0152    1.9807 N   0  0  0  0  0  0  0  0  0  0  0  0
    4.3864    1.0870    0.3395 C   0  0  0  0  0  0  0  0  0  0  0  0
    5.5924    1.7372   -0.3134 C   0  0  0  0  0  0  0  0  0  0  0  0
    5.8108    1.2896   -1.6008 F   0  0  0  0  0  0  0  0  0  0  0  0
    6.7586    1.5887    0.3922 F   0  0  0  0  0  0  0  0  0  0  0  0
    5.3820    3.1386   -0.3382 F   0  0  0  0  0  0  0  0  0  0  0  0
   -4.0205   -1.2512    2.6104 H   0  0  0  0  0  0  0  0  0  0  0  0
   -4.9191   -2.3289    1.4227 H   0  0  0  0  0  0  0  0  0  0  0  0
   -5.4402    0.6059    2.0692 H   0  0  0  0  0  0  0  0  0  0  0  0
   -6.4174   -0.7635    2.6125 H   0  0  0  0  0  0  0  0  0  0  0  0
   -7.3851   -1.1567    0.5954 H   0  0  0  0  0  0  0  0  0  0  0  0
   -5.7984    0.3954   -1.3089 H   0  0  0  0  0  0  0  0  0  0  0  0
   -6.4504   -1.2403   -1.4631 H   0  0  0  0  0  0  0  0  0  0  0  0
   -4.5379   -2.2589   -0.8436 H   0  0  0  0  0  0  0  0  0  0  0  0
   -3.9075   -0.7780   -1.6047 H   0  0  0  0  0  0  0  0  0  0  0  0
   -2.8784   -1.6403    0.6099 H   0  0  0  0  0  0  0  0  0  0  0  0
   -3.9966    2.6266    0.1691 H   0  0  0  0  0  0  0  0  0  0  0  0
   -2.4617    0.5548    2.8843 H   0  0  0  0  0  0  0  0  0  0  0  0
   -2.4454    1.1870   -1.4526 H   0  0  0  0  0  0  0  0  0  0  0  0
   -1.6441    2.2326   -0.2748 H   0  0  0  0  0  0  0  0  0  0  0  0
   -0.1129    1.2735    1.1620 H   0  0  0  0  0  0  0  0  0  0  0  0
   -1.7044   -1.3213   -1.4297 H   0  0  0  0  0  0  0  0  0  0  0  0
    0.0375   -1.3774   -1.6009 H   0  0  0  0  0  0  0  0  0  0  0  0
   -0.6447   -1.7102   -0.0159 H   0  0  0  0  0  0  0  0  0  0  0  0
   -0.4125    0.9229   -2.5730 H   0  0  0  0  0  0  0  0  0  0  0  0
    0.5596    2.8869   -2.1630 H   0  0  0  0  0  0  0  0  0  0  0  0
    1.4451   -0.2472   -2.7101 H   0  0  0  0  0  0  0  0  0  0  0  0
    2.0931   -0.4047   -0.0414 H   0  0  0  0  0  0  0  0  0  0  0  0
    3.4210    2.0852   -1.2548 H   0  0  0  0  0  0  0  0  0  0  0  0
    2.4235    1.8842    0.2814 H   0  0  0  0  0  0  0  0  0  0  0  0
    3.8794   -0.3451   -2.5044 H   0  0  0  0  0  0  0  0  0  0  0  0
    2.8824   -1.6798   -1.9385 H   0  0  0  0  0  0  0  0  0  0  0  0
    5.4445   -1.4052   -1.1126 H   0  0  0  0  0  0  0  0  0  0  0  0
    4.1940   -2.2874   -0.2252 H   0  0  0  0  0  0  0  0  0  0  0  0
    3.6415   -0.6512    1.2429 H   0  0  0  0  0  0  0  0  0  0  0  0
    6.7029   -0.5525    0.9151 H   0  0  0  0  0  0  0  0  0  0  0  0
    5.8006    0.0303    2.3472 H   0  0  0  0  0  0  0  0  0  0  0  0
    4.8814   -2.5272    1.6743 H   0  0  0  0  0  0  0  0  0  0  0  0
    5.8998   -2.0243    2.9923 H   0  0  0  0  0  0  0  0  0  0  0  0
    4.3396    1.5673    1.3658 H   0  0  0  0  0  0  0  0  0  0  0  0
  1  2  1  0
  2  3  1  0
  3  4  1  0
  3  5  1  0
  5  6  1  0
  1  7  1  0
  6  7  1  0
  7  8  1  0
  8  9  1  0
  8 10  1  0
  8 11  1  0
 11 12  1  0
 12 13  1  1
 12 14  1  0
 12 15  1  0
 15 16  1  0
 15 17  1  0
 17 18  1  0
 18 19  1  0
 18 20  1  0
 20 21  1  0
 21 22  1  0
 22 23  1  0
 23 24  1  0
 19 25  1  0
 22 25  1  0
 25 26  1  0
 26 27  1  0
 26 28  1  0
 26 29  1  0
  1 30  1  0
  1 31  1  0
  2 32  1  0
  2 33  1  0
  3 34  1  0
  5 35  1  0
  5 36  1  0
  6 37  1  0
  6 38  1  0
  7 39  1  0
  9 40  1  0
 10 41  1  0
 11 42  1  0
 11 43  1  0
 13 44  1  0
 14 45  1  0
 14 46  1  0
 14 47  1  0
 15 48  1  6
 16 49  1  0
 17 50  1  0
 18 51  1  1
 19 52  1  0
 19 53  1  0
 20 54  1  0
 20 55  1  0
 21 56  1  0
 21 57  1  0
 22 58  1  0
 23 59  1  0
 23 60  1  0
 24 61  1  0
 24 62  1  0
 25 63  1  0
M  END
>  <PDBID>  (1) 
1Z95

>  <PDB ID>  (1) 
1Z95

>  <Generic Name>  (1) 
Bicalutamide

>  <Brand Name>  (1) 
Accel-bicalutamide Tablets USP#Ach-bicalutamide#Act Bicalutamide#Ag-bicalutamide#Apo-bicalutamide#Ava-bicalutamide#Bicalutamide#Bicalutamide Tablets#Casodex#Dom-bicalutamide#Jamp-bicalutamide#Med-bicalutamide#Mylan-bicalutamide#Ntp-bicalutamide#Nu-bicalutamide#PHL-bicalutamide#PMS-bicalutamide#Pro-bicalutamide - 50#Ran-bicalutamide#Ratio-bicalutamide#Sandoz Bicalutamide#Teva-bicalutamide#Van-bicalutamide

>  <DrugBank ID>  (1) 
DB01128

>  <ATC Codes>  (1) 
L02BB03

>  <Ligand ID>  (1) 
0U9,198

>  <Target Name>  (1) 
Androgen receptor

>  <UniProt ID>  (1) 
P10275

>  <PDB ID.1>  (1) 
1Z95

>  <Seq. Identity>  (1) 
100%

$$$$
