PDB_DB00212_02
     RDKit          3D

220226  0  0  0  0  0  0  0  0999 V2000
   -3.8934   -3.2846    0.6104 O   0  0  0  0  0  0  0  0  0  0  0  0
   -3.3600   -1.7917   -0.4763 S   0  0  0  0  0  0  0  0  0  0  0  0
   -2.3041   -2.3821   -1.2948 O   0  0  0  0  0  0  0  0  0  0  0  0
   -4.9338   -1.6204   -1.1527 C   0  0  0  0  0  0  0  0  0  0  0  0
   -5.2910   -2.9773   -1.8448 C   0  0  0  0  0  0  0  0  0  0  0  0
   -5.9698   -1.4771   -0.0712 C   0  0  0  0  0  0  0  0  0  0  0  0
   -5.0129   -0.6062   -2.2340 C   0  0  0  0  0  0  0  0  0  0  0  0
   -3.0139   -0.7204    0.7465 C   0  0  0  0  0  0  0  0  0  0  0  0
   -2.4377    0.6260    0.4792 C   0  0  1  0  0  0  0  0  0  0  0  0
   -3.1383    1.6136   -0.3220 C   0  0  0  0  0  0  0  0  0  0  0  0
   -4.4596    2.1571    0.0097 C   0  0  0  0  0  0  0  0  0  0  0  0
   -4.7827    3.1448   -1.1568 C   0  0  0  0  0  0  0  0  0  0  0  0
   -6.2351    3.4768   -1.2063 C   0  0  0  0  0  0  0  0  0  0  0  0
   -6.7723    3.4189    0.2039 C   0  0  0  0  0  0  0  0  0  0  0  0
   -5.7258    3.9872    1.1117 C   0  0  0  0  0  0  0  0  0  0  0  0
   -4.5050    3.0701    1.2254 C   0  0  0  0  0  0  0  0  0  0  0  0
   -1.7770    1.1738    1.7385 C   0  0  0  0  0  0  0  0  0  0  0  0
   -1.3270    2.4671    1.3606 O   0  0  0  0  0  0  0  0  0  0  0  0
   -0.7938    0.3853    2.2448 N   0  0  0  0  0  0  0  0  0  0  0  0
    0.4439    0.0015    1.9243 C   0  0  1  0  0  0  0  0  0  0  0  0
    0.9339   -1.1081    2.8445 C   0  0  0  0  0  0  0  0  0  0  0  0
    0.1452   -2.3536    2.8382 C   0  0  0  0  0  0  0  0  0  0  0  0
    0.0425   -3.1110    1.5693 C   0  0  0  0  0  0  0  0  0  0  0  0
   -0.2306   -4.4878    2.0262 N   0  0  0  0  0  0  0  0  0  0  0  0
    0.1345   -4.5436    3.4010 C   0  0  0  0  0  0  0  0  0  0  0  0
    0.7862   -3.3044    3.7379 N   0  0  0  0  0  0  0  0  0  0  0  0
    0.9964   -0.2667    0.5590 C   0  0  0  0  0  0  0  0  0  0  0  0
    0.9399    0.9753   -0.1422 O   0  0  0  0  0  0  0  0  0  0  0  0
    2.4129   -0.5679    0.6250 N   0  0  0  0  0  0  0  0  0  0  0  0
    3.2606    0.2300   -0.2350 C   0  0  2  0  0  0  0  0  0  0  0  0
    3.0795   -0.0444   -1.6660 C   0  0  1  0  0  0  0  0  0  0  0  0
    3.8888    0.6957   -2.5388 O   0  0  0  0  0  0  0  0  0  0  0  0
    2.8591   -1.4540   -2.1202 C   0  0  2  0  0  0  0  0  0  0  0  0
    4.1674   -2.1240   -2.4365 C   0  0  0  0  0  0  0  0  0  0  0  0
    5.2494   -2.3697   -1.5003 C   0  0  0  0  0  0  0  0  0  0  0  0
    4.4668   -3.5266   -2.1524 C   0  0  0  0  0  0  0  0  0  0  0  0
    2.1619   -1.4578   -3.3658 O   0  0  0  0  0  0  0  0  0  0  0  0
    4.6088    0.3620    0.3612 C   0  0  0  0  0  0  0  0  0  0  0  0
    5.6094    1.1771   -0.4224 C   0  0  0  0  0  0  0  0  0  0  0  0
    6.9185    1.1824    0.3937 C   0  0  0  0  0  0  0  0  0  0  0  0
    7.9897    2.0056   -0.2254 C   0  0  0  0  0  0  0  0  0  0  0  0
    7.5352    3.3889   -0.5475 C   0  0  0  0  0  0  0  0  0  0  0  0
    6.1627    3.5718    0.1027 C   0  0  0  0  0  0  0  0  0  0  0  0
    5.1837    2.6162   -0.5631 C   0  0  0  0  0  0  0  0  0  0  0  0
   -3.8934   -3.2846    0.6104 O   0  0  0  0  0  0  0  0  0  0  0  0
   -3.3600   -1.7917   -0.4763 S   0  0  0  0  0  0  0  0  0  0  0  0
   -2.3041   -2.3821   -1.2948 O   0  0  0  0  0  0  0  0  0  0  0  0
   -4.9338   -1.6204   -1.1527 C   0  0  0  0  0  0  0  0  0  0  0  0
   -5.2910   -2.9773   -1.8448 C   0  0  0  0  0  0  0  0  0  0  0  0
   -5.9698   -1.4771   -0.0712 C   0  0  0  0  0  0  0  0  0  0  0  0
   -5.0129   -0.6062   -2.2340 C   0  0  0  0  0  0  0  0  0  0  0  0
   -3.0139   -0.7204    0.7465 C   0  0  0  0  0  0  0  0  0  0  0  0
   -2.4377    0.6260    0.4792 C   0  0  1  0  0  0  0  0  0  0  0  0
   -3.1383    1.6136   -0.3220 C   0  0  0  0  0  0  0  0  0  0  0  0
   -4.4596    2.1571    0.0097 C   0  0  0  0  0  0  0  0  0  0  0  0
   -4.7827    3.1448   -1.1568 C   0  0  0  0  0  0  0  0  0  0  0  0
   -6.2351    3.4768   -1.2063 C   0  0  0  0  0  0  0  0  0  0  0  0
   -6.7723    3.4189    0.2039 C   0  0  0  0  0  0  0  0  0  0  0  0
   -5.7258    3.9872    1.1117 C   0  0  0  0  0  0  0  0  0  0  0  0
   -4.5050    3.0701    1.2254 C   0  0  0  0  0  0  0  0  0  0  0  0
   -1.7770    1.1738    1.7385 C   0  0  0  0  0  0  0  0  0  0  0  0
   -1.3270    2.4671    1.3606 O   0  0  0  0  0  0  0  0  0  0  0  0
   -0.7938    0.3853    2.2448 N   0  0  0  0  0  0  0  0  0  0  0  0
    0.4439    0.0015    1.9243 C   0  0  1  0  0  0  0  0  0  0  0  0
    0.9339   -1.1081    2.8445 C   0  0  0  0  0  0  0  0  0  0  0  0
    0.1452   -2.3536    2.8382 C   0  0  0  0  0  0  0  0  0  0  0  0
    0.0425   -3.1110    1.5693 C   0  0  0  0  0  0  0  0  0  0  0  0
   -0.2306   -4.4878    2.0262 N   0  0  0  0  0  0  0  0  0  0  0  0
    0.1345   -4.5436    3.4010 C   0  0  0  0  0  0  0  0  0  0  0  0
    0.7862   -3.3044    3.7379 N   0  0  0  0  0  0  0  0  0  0  0  0
    0.9964   -0.2667    0.5590 C   0  0  0  0  0  0  0  0  0  0  0  0
    0.9399    0.9753   -0.1422 O   0  0  0  0  0  0  0  0  0  0  0  0
    2.4129   -0.5679    0.6250 N   0  0  0  0  0  0  0  0  0  0  0  0
    3.2606    0.2300   -0.2350 C   0  0  2  0  0  0  0  0  0  0  0  0
    3.0795   -0.0444   -1.6660 C   0  0  1  0  0  0  0  0  0  0  0  0
    3.8888    0.6957   -2.5388 O   0  0  0  0  0  0  0  0  0  0  0  0
    2.8591   -1.4540   -2.1202 C   0  0  2  0  0  0  0  0  0  0  0  0
    4.1674   -2.1240   -2.4365 C   0  0  0  0  0  0  0  0  0  0  0  0
    5.2494   -2.3697   -1.5003 C   0  0  0  0  0  0  0  0  0  0  0  0
    4.4668   -3.5266   -2.1524 C   0  0  0  0  0  0  0  0  0  0  0  0
    2.1619   -1.4578   -3.3658 O   0  0  0  0  0  0  0  0  0  0  0  0
    4.6088    0.3620    0.3612 C   0  0  0  0  0  0  0  0  0  0  0  0
    5.6094    1.1771   -0.4224 C   0  0  0  0  0  0  0  0  0  0  0  0
    6.9185    1.1824    0.3937 C   0  0  0  0  0  0  0  0  0  0  0  0
    7.9897    2.0056   -0.2254 C   0  0  0  0  0  0  0  0  0  0  0  0
    7.5352    3.3889   -0.5475 C   0  0  0  0  0  0  0  0  0  0  0  0
    6.1627    3.5718    0.1027 C   0  0  0  0  0  0  0  0  0  0  0  0
    5.1837    2.6162   -0.5631 C   0  0  0  0  0  0  0  0  0  0  0  0
   -3.6773   -3.9575   -0.0696 H   0  0  0  0  0  0  0  0  0  0  0  0
   -2.3876   -2.4882   -2.2964 H   0  0  0  0  0  0  0  0  0  0  0  0
   -5.4265   -3.7173   -1.0375 H   0  0  0  0  0  0  0  0  0  0  0  0
   -6.2280   -2.7518   -2.4004 H   0  0  0  0  0  0  0  0  0  0  0  0
   -4.4393   -3.2174   -2.4744 H   0  0  0  0  0  0  0  0  0  0  0  0
   -6.7995   -2.2463   -0.1669 H   0  0  0  0  0  0  0  0  0  0  0  0
   -5.4954   -1.7440    0.9053 H   0  0  0  0  0  0  0  0  0  0  0  0
   -6.4942   -0.5195   -0.0542 H   0  0  0  0  0  0  0  0  0  0  0  0
   -5.7191   -0.9952   -3.0404 H   0  0  0  0  0  0  0  0  0  0  0  0
   -4.0298   -0.3628   -2.7038 H   0  0  0  0  0  0  0  0  0  0  0  0
   -5.4913    0.3235   -1.8919 H   0  0  0  0  0  0  0  0  0  0  0  0
   -3.9235   -0.6276    1.4499 H   0  0  0  0  0  0  0  0  0  0  0  0
   -2.2763   -1.1917    1.4781 H   0  0  0  0  0  0  0  0  0  0  0  0
   -1.5099    0.3434   -0.1775 H   0  0  0  0  0  0  0  0  0  0  0  0
   -2.4367    2.5402   -0.3217 H   0  0  0  0  0  0  0  0  0  0  0  0
   -3.0666    1.3410   -1.4235 H   0  0  0  0  0  0  0  0  0  0  0  0
   -5.2931    1.4752    0.1248 H   0  0  0  0  0  0  0  0  0  0  0  0
   -4.1594    4.0541   -1.0584 H   0  0  0  0  0  0  0  0  0  0  0  0
   -4.5033    2.6545   -2.1167 H   0  0  0  0  0  0  0  0  0  0  0  0
   -6.4366    4.4864   -1.6256 H   0  0  0  0  0  0  0  0  0  0  0  0
   -6.8049    2.7573   -1.8108 H   0  0  0  0  0  0  0  0  0  0  0  0
   -7.7079    4.0351    0.2392 H   0  0  0  0  0  0  0  0  0  0  0  0
   -7.0699    2.3802    0.4205 H   0  0  0  0  0  0  0  0  0  0  0  0
   -5.4042    4.9666    0.6606 H   0  0  0  0  0  0  0  0  0  0  0  0
   -6.1711    4.2128    2.1035 H   0  0  0  0  0  0  0  0  0  0  0  0
   -3.6340    3.7677    1.2109 H   0  0  0  0  0  0  0  0  0  0  0  0
   -4.6178    2.5030    2.1666 H   0  0  0  0  0  0  0  0  0  0  0  0
   -2.6096    1.3914    2.4714 H   0  0  0  0  0  0  0  0  0  0  0  0
   -0.9200    2.9260    2.1359 H   0  0  0  0  0  0  0  0  0  0  0  0
   -1.0480    0.0768    3.2287 H   0  0  0  0  0  0  0  0  0  0  0  0
    1.1700    0.9151    2.2636 H   0  0  0  0  0  0  0  0  0  0  0  0
    2.0306   -1.2556    2.7381 H   0  0  0  0  0  0  0  0  0  0  0  0
    0.8320   -0.6748    3.8871 H   0  0  0  0  0  0  0  0  0  0  0  0
   -0.8831   -2.1484    3.2116 H   0  0  0  0  0  0  0  0  0  0  0  0
    0.9967   -3.1994    1.0077 H   0  0  0  0  0  0  0  0  0  0  0  0
   -0.7748   -2.8718    0.8959 H   0  0  0  0  0  0  0  0  0  0  0  0
    0.2783   -5.1865    1.4485 H   0  0  0  0  0  0  0  0  0  0  0  0
    0.7889   -5.4281    3.5797 H   0  0  0  0  0  0  0  0  0  0  0  0
   -0.8027   -4.6854    4.0133 H   0  0  0  0  0  0  0  0  0  0  0  0
    1.7813   -3.3840    3.3743 H   0  0  0  0  0  0  0  0  0  0  0  0
    0.5197   -1.0781   -0.0027 H   0  0  0  0  0  0  0  0  0  0  0  0
    1.0557    1.6785    0.5329 H   0  0  0  0  0  0  0  0  0  0  0  0
    2.6310   -1.5699    0.4784 H   0  0  0  0  0  0  0  0  0  0  0  0
    2.8284    1.3110   -0.1186 H   0  0  0  0  0  0  0  0  0  0  0  0
    2.0438    0.4382   -1.9332 H   0  0  0  0  0  0  0  0  0  0  0  0
    4.2868    0.1991   -3.2638 H   0  0  0  0  0  0  0  0  0  0  0  0
    2.2102   -2.0360   -1.4600 H   0  0  0  0  0  0  0  0  0  0  0  0
    4.5392   -1.7788   -3.4713 H   0  0  0  0  0  0  0  0  0  0  0  0
    6.3224   -2.2299   -1.8418 H   0  0  0  0  0  0  0  0  0  0  0  0
    5.2041   -2.4545   -0.4125 H   0  0  0  0  0  0  0  0  0  0  0  0
    3.8434   -4.1746   -1.5211 H   0  0  0  0  0  0  0  0  0  0  0  0
    5.0983   -4.1066   -2.8833 H   0  0  0  0  0  0  0  0  0  0  0  0
    2.1636   -2.3467   -3.7705 H   0  0  0  0  0  0  0  0  0  0  0  0
    4.4480    0.9927    1.3151 H   0  0  0  0  0  0  0  0  0  0  0  0
    5.0858   -0.5289    0.7621 H   0  0  0  0  0  0  0  0  0  0  0  0
    5.8345    0.7786   -1.4266 H   0  0  0  0  0  0  0  0  0  0  0  0
    6.6946    1.3715    1.4387 H   0  0  0  0  0  0  0  0  0  0  0  0
    7.2634    0.1051    0.3564 H   0  0  0  0  0  0  0  0  0  0  0  0
    8.8000    2.1041    0.5594 H   0  0  0  0  0  0  0  0  0  0  0  0
    8.4992    1.4736   -1.0629 H   0  0  0  0  0  0  0  0  0  0  0  0
    8.2102    4.1494   -0.1499 H   0  0  0  0  0  0  0  0  0  0  0  0
    7.4014    3.4525   -1.6558 H   0  0  0  0  0  0  0  0  0  0  0  0
    5.7877    4.6007   -0.0284 H   0  0  0  0  0  0  0  0  0  0  0  0
    6.2019    3.3049    1.1753 H   0  0  0  0  0  0  0  0  0  0  0  0
    5.2139    2.8984   -1.6545 H   0  0  0  0  0  0  0  0  0  0  0  0
    4.1629    2.8009   -0.1338 H   0  0  0  0  0  0  0  0  0  0  0  0
   -3.6773   -3.9575   -0.0696 H   0  0  0  0  0  0  0  0  0  0  0  0
   -2.3876   -2.4882   -2.2964 H   0  0  0  0  0  0  0  0  0  0  0  0
   -5.4265   -3.7173   -1.0375 H   0  0  0  0  0  0  0  0  0  0  0  0
   -6.2280   -2.7518   -2.4004 H   0  0  0  0  0  0  0  0  0  0  0  0
   -4.4393   -3.2174   -2.4744 H   0  0  0  0  0  0  0  0  0  0  0  0
   -6.7995   -2.2463   -0.1669 H   0  0  0  0  0  0  0  0  0  0  0  0
   -5.4954   -1.7440    0.9053 H   0  0  0  0  0  0  0  0  0  0  0  0
   -6.4942   -0.5195   -0.0542 H   0  0  0  0  0  0  0  0  0  0  0  0
   -5.7191   -0.9952   -3.0404 H   0  0  0  0  0  0  0  0  0  0  0  0
   -4.0298   -0.3628   -2.7038 H   0  0  0  0  0  0  0  0  0  0  0  0
   -5.4913    0.3235   -1.8919 H   0  0  0  0  0  0  0  0  0  0  0  0
   -3.9235   -0.6276    1.4499 H   0  0  0  0  0  0  0  0  0  0  0  0
   -2.2763   -1.1917    1.4781 H   0  0  0  0  0  0  0  0  0  0  0  0
   -1.5099    0.3434   -0.1775 H   0  0  0  0  0  0  0  0  0  0  0  0
   -2.4367    2.5402   -0.3217 H   0  0  0  0  0  0  0  0  0  0  0  0
   -3.0666    1.3410   -1.4235 H   0  0  0  0  0  0  0  0  0  0  0  0
   -5.2931    1.4752    0.1248 H   0  0  0  0  0  0  0  0  0  0  0  0
   -4.1594    4.0541   -1.0584 H   0  0  0  0  0  0  0  0  0  0  0  0
   -4.5033    2.6545   -2.1167 H   0  0  0  0  0  0  0  0  0  0  0  0
   -6.4366    4.4864   -1.6256 H   0  0  0  0  0  0  0  0  0  0  0  0
   -6.8049    2.7573   -1.8108 H   0  0  0  0  0  0  0  0  0  0  0  0
   -7.7079    4.0351    0.2392 H   0  0  0  0  0  0  0  0  0  0  0  0
   -7.0699    2.3802    0.4205 H   0  0  0  0  0  0  0  0  0  0  0  0
   -5.4042    4.9666    0.6606 H   0  0  0  0  0  0  0  0  0  0  0  0
   -6.1711    4.2128    2.1035 H   0  0  0  0  0  0  0  0  0  0  0  0
   -3.6340    3.7677    1.2109 H   0  0  0  0  0  0  0  0  0  0  0  0
   -4.6178    2.5030    2.1666 H   0  0  0  0  0  0  0  0  0  0  0  0
   -2.6096    1.3914    2.4714 H   0  0  0  0  0  0  0  0  0  0  0  0
   -0.9200    2.9260    2.1359 H   0  0  0  0  0  0  0  0  0  0  0  0
   -1.0480    0.0768    3.2287 H   0  0  0  0  0  0  0  0  0  0  0  0
    1.1700    0.9151    2.2636 H   0  0  0  0  0  0  0  0  0  0  0  0
    2.0306   -1.2556    2.7381 H   0  0  0  0  0  0  0  0  0  0  0  0
    0.8320   -0.6748    3.8871 H   0  0  0  0  0  0  0  0  0  0  0  0
   -0.8831   -2.1484    3.2116 H   0  0  0  0  0  0  0  0  0  0  0  0
    0.9967   -3.1994    1.0077 H   0  0  0  0  0  0  0  0  0  0  0  0
   -0.7748   -2.8718    0.8959 H   0  0  0  0  0  0  0  0  0  0  0  0
    0.2783   -5.1865    1.4485 H   0  0  0  0  0  0  0  0  0  0  0  0
    0.7889   -5.4281    3.5797 H   0  0  0  0  0  0  0  0  0  0  0  0
   -0.8027   -4.6854    4.0133 H   0  0  0  0  0  0  0  0  0  0  0  0
    1.7813   -3.3840    3.3743 H   0  0  0  0  0  0  0  0  0  0  0  0
    0.5197   -1.0781   -0.0027 H   0  0  0  0  0  0  0  0  0  0  0  0
    1.0557    1.6785    0.5329 H   0  0  0  0  0  0  0  0  0  0  0  0
    2.6310   -1.5699    0.4784 H   0  0  0  0  0  0  0  0  0  0  0  0
    2.8284    1.3110   -0.1186 H   0  0  0  0  0  0  0  0  0  0  0  0
    2.0438    0.4382   -1.9332 H   0  0  0  0  0  0  0  0  0  0  0  0
    4.2868    0.1991   -3.2638 H   0  0  0  0  0  0  0  0  0  0  0  0
    2.2102   -2.0360   -1.4600 H   0  0  0  0  0  0  0  0  0  0  0  0
    4.5392   -1.7788   -3.4713 H   0  0  0  0  0  0  0  0  0  0  0  0
    6.3224   -2.2299   -1.8418 H   0  0  0  0  0  0  0  0  0  0  0  0
    5.2041   -2.4545   -0.4125 H   0  0  0  0  0  0  0  0  0  0  0  0
    3.8434   -4.1746   -1.5211 H   0  0  0  0  0  0  0  0  0  0  0  0
    5.0983   -4.1066   -2.8833 H   0  0  0  0  0  0  0  0  0  0  0  0
    2.1636   -2.3467   -3.7705 H   0  0  0  0  0  0  0  0  0  0  0  0
    4.4480    0.9927    1.3151 H   0  0  0  0  0  0  0  0  0  0  0  0
    5.0858   -0.5289    0.7621 H   0  0  0  0  0  0  0  0  0  0  0  0
    5.8345    0.7786   -1.4266 H   0  0  0  0  0  0  0  0  0  0  0  0
    6.6946    1.3715    1.4387 H   0  0  0  0  0  0  0  0  0  0  0  0
    7.2634    0.1051    0.3564 H   0  0  0  0  0  0  0  0  0  0  0  0
    8.8000    2.1041    0.5594 H   0  0  0  0  0  0  0  0  0  0  0  0
    8.4992    1.4736   -1.0629 H   0  0  0  0  0  0  0  0  0  0  0  0
    8.2102    4.1494   -0.1499 H   0  0  0  0  0  0  0  0  0  0  0  0
    7.4014    3.4525   -1.6558 H   0  0  0  0  0  0  0  0  0  0  0  0
    5.7877    4.6007   -0.0284 H   0  0  0  0  0  0  0  0  0  0  0  0
    6.2019    3.3049    1.1753 H   0  0  0  0  0  0  0  0  0  0  0  0
    5.2139    2.8984   -1.6545 H   0  0  0  0  0  0  0  0  0  0  0  0
    4.1629    2.8009   -0.1338 H   0  0  0  0  0  0  0  0  0  0  0  0
  2  1  1  0
  2  3  1  0
  2  4  1  0
  4  5  1  0
  4  6  1  0
  4  7  1  0
  2  8  1  0
  8  9  1  0
  9 10  1  0
 10 11  1  0
 11 12  1  0
 12 13  1  0
 13 14  1  0
 14 15  1  0
 11 16  1  0
 15 16  1  0
  9 17  1  0
 17 18  1  0
 17 19  1  0
 19 20  1  0
 20 21  1  0
 21 22  1  0
 22 23  1  0
 23 24  1  0
 24 25  1  0
 22 26  1  0
 25 26  1  0
 20 27  1  0
 27 28  1  0
 27 29  1  0
 29 30  1  0
 30 31  1  0
 31 32  1  0
 31 33  1  0
 33 34  1  0
 34 35  1  0
 34 36  1  0
 35 36  1  0
 33 37  1  0
 30 38  1  0
 38 39  1  0
 39 40  1  0
 40 41  1  0
 41 42  1  0
 42 43  1  0
 39 44  1  0
 43 44  1  0
 46 45  1  0
 46 47  1  0
 46 48  1  0
 48 49  1  0
 48 50  1  0
 48 51  1  0
 46 52  1  0
 52 53  1  0
 53 54  1  0
 54 55  1  0
 55 56  1  0
 56 57  1  0
 57 58  1  0
 58 59  1  0
 55 60  1  0
 59 60  1  0
 53 61  1  0
 61 62  1  0
 61 63  1  0
 63 64  1  0
 64 65  1  0
 65 66  1  0
 66 67  1  0
 67 68  1  0
 68 69  1  0
 66 70  1  0
 69 70  1  0
 64 71  1  0
 71 72  1  0
 71 73  1  0
 73 74  1  0
 74 75  1  0
 75 76  1  0
 75 77  1  0
 77 78  1  0
 78 79  1  0
 78 80  1  0
 79 80  1  0
 77 81  1  0
 74 82  1  0
 82 83  1  0
 83 84  1  0
 84 85  1  0
 85 86  1  0
 86 87  1  0
 83 88  1  0
 87 88  1  0
  1 89  1  0
  3 90  1  0
  5 91  1  0
  5 92  1  0
  5 93  1  0
  6 94  1  0
  6 95  1  0
  6 96  1  0
  7 97  1  0
  7 98  1  0
  7 99  1  0
  8100  1  0
  8101  1  0
  9102  1  6
 10103  1  0
 10104  1  0
 11105  1  0
 12106  1  0
 12107  1  0
 13108  1  0
 13109  1  0
 14110  1  0
 14111  1  0
 15112  1  0
 15113  1  0
 16114  1  0
 16115  1  0
 17116  1  0
 18117  1  0
 19118  1  0
 20119  1  1
 21120  1  0
 21121  1  0
 22122  1  0
 23123  1  0
 23124  1  0
 24125  1  0
 25126  1  0
 25127  1  0
 26128  1  0
 27129  1  0
 28130  1  0
 29131  1  0
 30132  1  6
 31133  1  6
 32134  1  0
 33135  1  1
 34136  1  0
 35137  1  0
 35138  1  0
 36139  1  0
 36140  1  0
 37141  1  0
 38142  1  0
 38143  1  0
 39144  1  0
 40145  1  0
 40146  1  0
 41147  1  0
 41148  1  0
 42149  1  0
 42150  1  0
 43151  1  0
 43152  1  0
 44153  1  0
 44154  1  0
 45155  1  0
 47156  1  0
 49157  1  0
 49158  1  0
 49159  1  0
 50160  1  0
 50161  1  0
 50162  1  0
 51163  1  0
 51164  1  0
 51165  1  0
 52166  1  0
 52167  1  0
 53168  1  6
 54169  1  0
 54170  1  0
 55171  1  0
 56172  1  0
 56173  1  0
 57174  1  0
 57175  1  0
 58176  1  0
 58177  1  0
 59178  1  0
 59179  1  0
 60180  1  0
 60181  1  0
 61182  1  0
 62183  1  0
 63184  1  0
 64185  1  1
 65186  1  0
 65187  1  0
 66188  1  0
 67189  1  0
 67190  1  0
 68191  1  0
 69192  1  0
 69193  1  0
 70194  1  0
 71195  1  0
 72196  1  0
 73197  1  0
 74198  1  6
 75199  1  6
 76200  1  0
 77201  1  1
 78202  1  0
 79203  1  0
 79204  1  0
 80205  1  0
 80206  1  0
 81207  1  0
 82208  1  0
 82209  1  0
 83210  1  0
 84211  1  0
 84212  1  0
 85213  1  0
 85214  1  0
 86215  1  0
 86216  1  0
 87217  1  0
 87218  1  0
 88219  1  0
 88220  1  0
M  END
>  <PDBID>  (1) 
3D91

>  <PDB ID>  (1) 
3D91

>  <Generic Name>  (1) 
Remikiren

>  <Brand Name>  (1) 
nan

>  <DrugBank ID>  (1) 
DB00212

>  <ATC Codes>  (1) 
C09XA01

>  <Ligand ID>  (1) 
REM

>  <Target Name>  (1) 
Renin

>  <UniProt ID>  (1) 
P00797

>  <PDB ID.1>  (1) 
3D91

>  <Seq. Identity>  (1) 
100%

$$$$
