PDB_DB00806_09
     RDKit          3D

 96 98  0  0  0  0  0  0  0  0999 V2000
    6.5601   -0.6242   -0.5655 C   0  0  0  0  0  0  0  0  0  0  0  0
    5.4833    0.0067    0.3024 C   0  0  0  0  0  0  0  0  0  0  0  0
    5.6895    1.3714    0.3118 O   0  0  0  0  0  0  0  0  0  0  0  0
    4.1591   -0.3190   -0.3265 C   0  0  0  0  0  0  0  0  0  0  0  0
    2.9972    0.2641    0.4556 C   0  0  0  0  0  0  0  0  0  0  0  0
    1.7064   -0.1234   -0.2665 C   0  0  0  0  0  0  0  0  0  0  0  0
    0.5695    0.4589    0.4925 C   0  0  0  0  0  0  0  0  0  0  0  0
   -0.7136    0.2184   -0.0065 N   0  0  0  0  0  0  0  0  0  0  0  0
   -1.8064    0.8021    0.6775 C   0  0  0  0  0  0  0  0  0  0  0  0
   -1.4020    1.0670    1.9992 O   0  0  0  0  0  0  0  0  0  0  0  0
   -2.9557   -0.1255    0.6143 C   0  0  0  0  0  0  0  0  0  0  0  0
   -4.2496    0.4586    0.8105 N   0  0  0  0  0  0  0  0  0  0  0  0
   -4.3664    1.8203    0.3964 C   0  0  0  0  0  0  0  0  0  0  0  0
   -5.1621   -0.3393    0.0046 C   0  0  0  0  0  0  0  0  0  0  0  0
   -4.3280   -1.2825   -0.7572 N   0  0  0  0  0  0  0  0  0  0  0  0
   -3.1065   -0.5732   -0.8465 C   0  0  0  0  0  0  0  0  0  0  0  0
   -1.9632   -1.2172   -1.3477 N   0  0  0  0  0  0  0  0  0  0  0  0
   -1.5005   -2.3606   -0.6490 C   0  0  0  0  0  0  0  0  0  0  0  0
   -0.8874   -0.2046   -1.3314 C   0  0  0  0  0  0  0  0  0  0  0  0
   -1.3189    0.7915   -2.2216 O   0  0  0  0  0  0  0  0  0  0  0  0
    6.5601   -0.6242   -0.5655 C   0  0  0  0  0  0  0  0  0  0  0  0
    5.4833    0.0067    0.3024 C   0  0  0  0  0  0  0  0  0  0  0  0
    5.6895    1.3714    0.3118 O   0  0  0  0  0  0  0  0  0  0  0  0
    4.1591   -0.3190   -0.3265 C   0  0  0  0  0  0  0  0  0  0  0  0
    2.9972    0.2641    0.4556 C   0  0  0  0  0  0  0  0  0  0  0  0
    1.7064   -0.1234   -0.2665 C   0  0  0  0  0  0  0  0  0  0  0  0
    0.5695    0.4589    0.4925 C   0  0  0  0  0  0  0  0  0  0  0  0
   -0.7136    0.2184   -0.0065 N   0  0  0  0  0  0  0  0  0  0  0  0
   -1.8064    0.8021    0.6775 C   0  0  0  0  0  0  0  0  0  0  0  0
   -1.4020    1.0670    1.9992 O   0  0  0  0  0  0  0  0  0  0  0  0
   -2.9557   -0.1255    0.6143 C   0  0  0  0  0  0  0  0  0  0  0  0
   -4.2496    0.4586    0.8105 N   0  0  0  0  0  0  0  0  0  0  0  0
   -4.3664    1.8203    0.3964 C   0  0  0  0  0  0  0  0  0  0  0  0
   -5.1621   -0.3393    0.0046 C   0  0  0  0  0  0  0  0  0  0  0  0
   -4.3280   -1.2825   -0.7572 N   0  0  0  0  0  0  0  0  0  0  0  0
   -3.1065   -0.5732   -0.8465 C   0  0  0  0  0  0  0  0  0  0  0  0
   -1.9632   -1.2172   -1.3477 N   0  0  0  0  0  0  0  0  0  0  0  0
   -1.5005   -2.3606   -0.6490 C   0  0  0  0  0  0  0  0  0  0  0  0
   -0.8874   -0.2046   -1.3314 C   0  0  0  0  0  0  0  0  0  0  0  0
   -1.3189    0.7915   -2.2216 O   0  0  0  0  0  0  0  0  0  0  0  0
    7.5467   -0.2707   -0.2085 H   0  0  0  0  0  0  0  0  0  0  0  0
    6.3762   -0.3077   -1.6210 H   0  0  0  0  0  0  0  0  0  0  0  0
    6.4507   -1.7118   -0.5272 H   0  0  0  0  0  0  0  0  0  0  0  0
    5.5156   -0.4543    1.3105 H   0  0  0  0  0  0  0  0  0  0  0  0
    5.5236    1.7136    1.2253 H   0  0  0  0  0  0  0  0  0  0  0  0
    4.0441   -1.4194   -0.3448 H   0  0  0  0  0  0  0  0  0  0  0  0
    4.1428    0.0144   -1.3880 H   0  0  0  0  0  0  0  0  0  0  0  0
    3.1246    1.3457    0.5069 H   0  0  0  0  0  0  0  0  0  0  0  0
    3.0341   -0.2016    1.4671 H   0  0  0  0  0  0  0  0  0  0  0  0
    1.6578   -1.2191   -0.2594 H   0  0  0  0  0  0  0  0  0  0  0  0
    1.7713    0.3310   -1.2757 H   0  0  0  0  0  0  0  0  0  0  0  0
    0.6242    0.0256    1.5366 H   0  0  0  0  0  0  0  0  0  0  0  0
    0.7061    1.5613    0.6643 H   0  0  0  0  0  0  0  0  0  0  0  0
   -2.0201    1.7927    0.2277 H   0  0  0  0  0  0  0  0  0  0  0  0
   -1.0685    1.9770    2.1211 H   0  0  0  0  0  0  0  0  0  0  0  0
   -2.8548   -0.9659    1.3039 H   0  0  0  0  0  0  0  0  0  0  0  0
   -5.4655    2.0344    0.2487 H   0  0  0  0  0  0  0  0  0  0  0  0
   -3.8854    2.0831   -0.5428 H   0  0  0  0  0  0  0  0  0  0  0  0
   -4.0611    2.4937    1.2425 H   0  0  0  0  0  0  0  0  0  0  0  0
   -5.6736    0.2873   -0.7748 H   0  0  0  0  0  0  0  0  0  0  0  0
   -5.9337   -0.8341    0.5890 H   0  0  0  0  0  0  0  0  0  0  0  0
   -4.7578   -1.5449   -1.6501 H   0  0  0  0  0  0  0  0  0  0  0  0
   -3.2804    0.3538   -1.4307 H   0  0  0  0  0  0  0  0  0  0  0  0
   -0.4168   -2.4887   -0.8529 H   0  0  0  0  0  0  0  0  0  0  0  0
   -1.9821   -3.3062   -0.9953 H   0  0  0  0  0  0  0  0  0  0  0  0
   -1.6083   -2.3295    0.4472 H   0  0  0  0  0  0  0  0  0  0  0  0
    0.0241   -0.7160   -1.6803 H   0  0  0  0  0  0  0  0  0  0  0  0
   -0.9384    1.6666   -2.0313 H   0  0  0  0  0  0  0  0  0  0  0  0
    7.5467   -0.2707   -0.2085 H   0  0  0  0  0  0  0  0  0  0  0  0
    6.3762   -0.3077   -1.6210 H   0  0  0  0  0  0  0  0  0  0  0  0
    6.4507   -1.7118   -0.5272 H   0  0  0  0  0  0  0  0  0  0  0  0
    5.5156   -0.4543    1.3105 H   0  0  0  0  0  0  0  0  0  0  0  0
    5.5236    1.7136    1.2253 H   0  0  0  0  0  0  0  0  0  0  0  0
    4.0441   -1.4194   -0.3448 H   0  0  0  0  0  0  0  0  0  0  0  0
    4.1428    0.0144   -1.3880 H   0  0  0  0  0  0  0  0  0  0  0  0
    3.1246    1.3457    0.5069 H   0  0  0  0  0  0  0  0  0  0  0  0
    3.0341   -0.2016    1.4671 H   0  0  0  0  0  0  0  0  0  0  0  0
    1.6578   -1.2191   -0.2594 H   0  0  0  0  0  0  0  0  0  0  0  0
    1.7713    0.3310   -1.2757 H   0  0  0  0  0  0  0  0  0  0  0  0
    0.6242    0.0256    1.5366 H   0  0  0  0  0  0  0  0  0  0  0  0
    0.7061    1.5613    0.6643 H   0  0  0  0  0  0  0  0  0  0  0  0
   -2.0201    1.7927    0.2277 H   0  0  0  0  0  0  0  0  0  0  0  0
   -1.0685    1.9770    2.1211 H   0  0  0  0  0  0  0  0  0  0  0  0
   -2.8548   -0.9659    1.3039 H   0  0  0  0  0  0  0  0  0  0  0  0
   -5.4655    2.0344    0.2487 H   0  0  0  0  0  0  0  0  0  0  0  0
   -3.8854    2.0831   -0.5428 H   0  0  0  0  0  0  0  0  0  0  0  0
   -4.0611    2.4937    1.2425 H   0  0  0  0  0  0  0  0  0  0  0  0
   -5.6736    0.2873   -0.7748 H   0  0  0  0  0  0  0  0  0  0  0  0
   -5.9337   -0.8341    0.5890 H   0  0  0  0  0  0  0  0  0  0  0  0
   -4.7578   -1.5449   -1.6501 H   0  0  0  0  0  0  0  0  0  0  0  0
   -3.2804    0.3538   -1.4307 H   0  0  0  0  0  0  0  0  0  0  0  0
   -0.4168   -2.4887   -0.8529 H   0  0  0  0  0  0  0  0  0  0  0  0
   -1.9821   -3.3062   -0.9953 H   0  0  0  0  0  0  0  0  0  0  0  0
   -1.6083   -2.3295    0.4472 H   0  0  0  0  0  0  0  0  0  0  0  0
    0.0241   -0.7160   -1.6803 H   0  0  0  0  0  0  0  0  0  0  0  0
   -0.9384    1.6666   -2.0313 H   0  0  0  0  0  0  0  0  0  0  0  0
  1  2  1  0
  2  3  1  0
  2  4  1  0
  4  5  1  0
  5  6  1  0
  6  7  1  0
  7  8  1  0
  8  9  1  0
  9 10  1  0
  9 11  1  0
 11 12  1  0
 12 13  1  0
 12 14  1  0
 14 15  1  0
 11 16  1  0
 15 16  1  0
 16 17  1  0
 17 18  1  0
  8 19  1  0
 17 19  1  0
 19 20  1  0
 21 22  1  0
 22 23  1  0
 22 24  1  0
 24 25  1  0
 25 26  1  0
 26 27  1  0
 27 28  1  0
 28 29  1  0
 29 30  1  0
 29 31  1  0
 31 32  1  0
 32 33  1  0
 32 34  1  0
 34 35  1  0
 31 36  1  0
 35 36  1  0
 36 37  1  0
 37 38  1  0
 28 39  1  0
 37 39  1  0
 39 40  1  0
  1 41  1  0
  1 42  1  0
  1 43  1  0
  2 44  1  0
  3 45  1  0
  4 46  1  0
  4 47  1  0
  5 48  1  0
  5 49  1  0
  6 50  1  0
  6 51  1  0
  7 52  1  0
  7 53  1  0
  9 54  1  0
 10 55  1  0
 11 56  1  0
 13 57  1  0
 13 58  1  0
 13 59  1  0
 14 60  1  0
 14 61  1  0
 15 62  1  0
 16 63  1  0
 18 64  1  0
 18 65  1  0
 18 66  1  0
 19 67  1  0
 20 68  1  0
 21 69  1  0
 21 70  1  0
 21 71  1  0
 22 72  1  0
 23 73  1  0
 24 74  1  0
 24 75  1  0
 25 76  1  0
 25 77  1  0
 26 78  1  0
 26 79  1  0
 27 80  1  0
 27 81  1  0
 29 82  1  0
 30 83  1  0
 31 84  1  0
 33 85  1  0
 33 86  1  0
 33 87  1  0
 34 88  1  0
 34 89  1  0
 35 90  1  0
 36 91  1  0
 38 92  1  0
 38 93  1  0
 38 94  1  0
 39 95  1  0
 40 96  1  0
M  END
>  <PDBID>  (1) 
3TVX

>  <PDB ID>  (1) 
3TVX

>  <Generic Name>  (1) 
Pentoxifylline

>  <Brand Name>  (1) 
Gapeam Budibac#Nu-pentoxifylline-SR 400 mg#Pentoxifylline#Pentoxifylline SR#Ratio-pentoxifylline#Trental#Trental Srt 400mg#Trental Tab 400mg#Agapurin#Agapurin SR#An Ruo Ning#Angiopent#Ao Le Ni#Ao Nuo Hong#Aotong#Azupentat#Behrifil#Bo Shu Te#Claudicat#Durapental#Elorgan#Endopentoksas#Pentilin#Pentilin Retard#Pentoflux#Pentofyllin#Pentoksifilin#Pentolab#Pentomer#Pentoxil#Rentylin#Torental#Trentilin Retard

>  <DrugBank ID>  (1) 
DB00806

>  <ATC Codes>  (1) 
C04AD03

>  <Ligand ID>  (1) 
PNX

>  <Target Name>  (1) 
cAMP-specific 3',5'-cyclic phosphodiesterase 4B

>  <UniProt ID>  (1) 
Q07343

>  <PDB ID.1>  (1) 
3TVX

>  <Seq. Identity>  (1) 
84%

$$$$
