PDB_DB00176_00
     RDKit          3D

 51 51  0  0  0  0  0  0  0  0999 V2000
    6.3935   -1.0943    0.2093 C   0  0  0  0  0  0  0  0  0  0  0  0
    4.9865   -0.9254    0.3214 O   0  0  0  0  0  0  0  0  0  0  0  0
    4.5574   -0.6223   -0.9552 C   0  0  0  0  0  0  0  0  0  0  0  0
    3.1240   -0.6105   -1.0945 C   0  0  0  0  0  0  0  0  0  0  0  0
    2.2514    0.3197   -0.2150 C   0  0  0  0  0  0  0  0  0  0  0  0
    0.8613   -0.0612   -0.7432 C   0  0  0  0  0  0  0  0  0  0  0  0
   -0.3042    0.4280    0.0399 C   0  0  0  0  0  0  0  0  0  0  0  0
   -0.4310    1.7473    0.1088 N   0  0  0  0  0  0  0  0  0  0  0  0
   -0.4081    2.7030   -0.7614 O   0  0  0  0  0  0  0  0  0  0  0  0
   -1.4880    3.5781   -0.2561 C   0  0  0  0  0  0  0  0  0  0  0  0
   -0.7689    4.8632   -0.0362 C   0  0  0  0  0  0  0  0  0  0  0  0
   -1.4626    5.9457    0.4966 N   0  0  0  0  0  0  0  0  0  0  0  0
   -1.4232   -0.5203   -0.1850 C   0  0  0  0  0  0  0  0  0  0  0  0
   -0.9261   -1.8800    0.3763 C   0  0  0  0  0  0  0  0  0  0  0  0
   -1.7723   -2.9571   -0.1852 C   0  0  0  0  0  0  0  0  0  0  0  0
   -3.2482   -2.7514    0.0419 C   0  0  0  0  0  0  0  0  0  0  0  0
   -3.6951   -1.3266    0.0900 C   0  0  0  0  0  0  0  0  0  0  0  0
   -2.6847   -0.3264    0.5629 C   0  0  0  0  0  0  0  0  0  0  0  0
   -3.6645   -3.5700    1.2349 C   0  0  0  0  0  0  0  0  0  0  0  0
   -5.0128   -3.4426    1.4883 F   0  0  0  0  0  0  0  0  0  0  0  0
   -3.4108   -4.9041    1.0916 F   0  0  0  0  0  0  0  0  0  0  0  0
   -2.9505   -3.0885    2.3327 F   0  0  0  0  0  0  0  0  0  0  0  0
    6.5132   -1.9695   -0.4990 H   0  0  0  0  0  0  0  0  0  0  0  0
    6.7613   -1.4296    1.2035 H   0  0  0  0  0  0  0  0  0  0  0  0
    6.8770   -0.2063   -0.1743 H   0  0  0  0  0  0  0  0  0  0  0  0
    4.9397   -1.4498   -1.6420 H   0  0  0  0  0  0  0  0  0  0  0  0
    5.0100    0.3233   -1.3260 H   0  0  0  0  0  0  0  0  0  0  0  0
    2.8186   -0.4677   -2.1927 H   0  0  0  0  0  0  0  0  0  0  0  0
    2.6753   -1.6674   -0.8046 H   0  0  0  0  0  0  0  0  0  0  0  0
    2.5604    1.3445   -0.4684 H   0  0  0  0  0  0  0  0  0  0  0  0
    2.3611    0.1804    0.8393 H   0  0  0  0  0  0  0  0  0  0  0  0
    0.8387   -1.0769   -1.1073 H   0  0  0  0  0  0  0  0  0  0  0  0
    0.8156    0.5669   -1.7310 H   0  0  0  0  0  0  0  0  0  0  0  0
    0.0295    0.1106    1.1714 H   0  0  0  0  0  0  0  0  0  0  0  0
    0.3310    2.1098    0.8528 H   0  0  0  0  0  0  0  0  0  0  0  0
   -2.1152    3.1296    0.4447 H   0  0  0  0  0  0  0  0  0  0  0  0
   -2.0888    3.7186   -1.2281 H   0  0  0  0  0  0  0  0  0  0  0  0
    0.0033    4.5635    0.8637 H   0  0  0  0  0  0  0  0  0  0  0  0
   -0.1242    5.1441   -0.8700 H   0  0  0  0  0  0  0  0  0  0  0  0
   -2.3740    5.8442    0.9348 H   0  0  0  0  0  0  0  0  0  0  0  0
   -0.7511    6.3940    1.2002 H   0  0  0  0  0  0  0  0  0  0  0  0
   -1.6426   -0.6902   -1.2730 H   0  0  0  0  0  0  0  0  0  0  0  0
   -1.0110   -1.7568    1.5070 H   0  0  0  0  0  0  0  0  0  0  0  0
    0.1120   -2.0890    0.1617 H   0  0  0  0  0  0  0  0  0  0  0  0
   -1.4986   -3.0954   -1.2633 H   0  0  0  0  0  0  0  0  0  0  0  0
   -1.4682   -3.8930    0.3451 H   0  0  0  0  0  0  0  0  0  0  0  0
   -3.7457   -3.1821   -0.8462 H   0  0  0  0  0  0  0  0  0  0  0  0
   -4.5464   -1.2418    0.7948 H   0  0  0  0  0  0  0  0  0  0  0  0
   -4.0960   -0.9855   -0.9113 H   0  0  0  0  0  0  0  0  0  0  0  0
   -3.1426    0.6693    0.3879 H   0  0  0  0  0  0  0  0  0  0  0  0
   -2.5654   -0.4025    1.6676 H   0  0  0  0  0  0  0  0  0  0  0  0
  1  2  1  0
  2  3  1  0
  3  4  1  0
  4  5  1  0
  5  6  1  0
  6  7  1  0
  7  8  1  0
  8  9  1  0
  9 10  1  0
 10 11  1  0
 11 12  1  0
  7 13  1  0
 13 14  1  0
 14 15  1  0
 15 16  1  0
 16 17  1  0
 13 18  1  0
 17 18  1  0
 16 19  1  0
 19 20  1  0
 19 21  1  0
 19 22  1  0
  1 23  1  0
  1 24  1  0
  1 25  1  0
  3 26  1  0
  3 27  1  0
  4 28  1  0
  4 29  1  0
  5 30  1  0
  5 31  1  0
  6 32  1  0
  6 33  1  0
  7 34  1  0
  8 35  1  0
 10 36  1  0
 10 37  1  0
 11 38  1  0
 11 39  1  0
 12 40  1  0
 12 41  1  0
 13 42  1  0
 14 43  1  0
 14 44  1  0
 15 45  1  0
 15 46  1  0
 16 47  1  0
 17 48  1  0
 17 49  1  0
 18 50  1  0
 18 51  1  0
M  END
>  <PDBID>  (1) 
6AWP

>  <PDB ID>  (1) 
6AWP

>  <Generic Name>  (1) 
Fluvoxamine

>  <Brand Name>  (1) 
Act Fluvoxamine#Apo-fluvoxamine Tablets#Ava-fluvoxamine#Bci Fluvoxamine Tablets#Dom-fluvoxamine#Fluvoxamine Maleate#Fluvoxamine Maleate Extended-release#Fluvoxamine Tablets#Fluvoxamine-100#Fluvoxamine-50#Gen-fluvoxamine 100mg#Gen-fluvoxamine 50mg#Luvox#Luvox CR#Novo-fluvoxamine#Nu-fluvoxamine 100 Mg Tab#Nu-fluvoxamine 50 Mg Tab#PHL-fluvoxamine#PMS-fluvoxamine#Ratio-fluvoxamine#Riva-fluvox#Riva-fluvox 100mg Tablets#Riva-fluvox 50mg Tablets#Sandoz Fluvoxamine#Dumirox#Faverin#Fevarin#Floxyfral#Maveral

>  <DrugBank ID>  (1) 
DB00176

>  <ATC Codes>  (1) 
N06AB08

>  <Ligand ID>  (1) 
FVX

>  <Target Name>  (1) 
Sodium-dependent serotonin transporter

>  <UniProt ID>  (1) 
P31645

>  <PDB ID.1>  (1) 
6AWP

>  <Seq. Identity>  (1) 
99%

$$$$
