PDB_DB01045_00
     RDKit          3D

141145  0  0  0  0  0  0  0  0999 V2000
    3.4251    0.1206   -2.6401 C   0  0  0  0  0  0  0  0  0  0  0  0
    3.3189    1.2162   -1.5841 C   0  0  2  0  0  0  0  0  0  0  0  0
    3.4578    0.6771   -0.2012 C   0  0  0  0  0  0  0  0  0  0  0  0
    2.8252   -0.6347    0.0706 C   0  0  0  0  0  0  0  0  0  0  0  0
    1.2214   -2.2434   -0.7994 C   0  0  0  0  0  0  0  0  0  0  0  0
    1.1441   -3.3527   -1.8605 C   0  0  0  0  0  0  0  0  0  0  0  0
    0.8877   -2.6852   -3.1607 C   0  0  0  0  0  0  0  0  0  0  0  0
    2.0714   -1.7921   -3.4864 C   0  0  0  0  0  0  0  0  0  0  0  0
    2.2738   -0.7940   -2.3911 C   0  0  0  0  0  0  0  0  0  0  0  0
    2.5100   -1.5042   -1.0733 C   0  0  0  0  0  0  0  0  0  0  0  0
    1.1942   -3.0528    0.4422 C   0  0  0  0  0  0  0  0  0  0  0  0
    0.3991   -4.2865   -0.0072 C   0  0  2  0  0  0  0  0  0  0  0  0
    1.2028   -5.5400    0.1412 C   0  0  0  0  0  0  0  0  0  0  0  0
    0.8183   -3.7363   -4.2518 C   0  0  0  0  0  0  0  0  0  0  0  0
    1.8485    2.9827   -2.3439 C   0  0  0  0  0  0  0  0  0  0  0  0
    1.1773    3.9581   -1.3934 C   0  0  1  0  0  0  0  0  0  0  0  0
   -0.2687    3.5408   -1.1029 C   0  0  0  0  0  0  0  0  0  0  0  0
   -1.0904    4.7871   -1.0641 C   0  0  0  0  0  0  0  0  0  0  0  0
   -2.3005    4.7175   -0.1991 C   0  0  0  0  0  0  0  0  0  0  0  0
   -3.2121    3.5698   -0.4668 C   0  0  1  0  0  0  0  0  0  0  0  0
   -4.5653    3.9090    0.1708 C   0  0  1  0  0  0  0  0  0  0  0  0
   -4.8571    3.0772    1.3745 C   0  0  2  0  0  0  0  0  0  0  0  0
   -5.4225    1.7000    0.9990 C   0  0  2  0  0  0  0  0  0  0  0  0
   -4.6852    0.6303    1.8030 C   0  0  2  0  0  0  0  0  0  0  0  0
   -5.0494   -0.7038    1.1886 C   0  0  1  0  0  0  0  0  0  0  0  0
   -4.1021   -1.8148    1.4825 C   0  0  1  0  0  0  0  0  0  0  0  0
   -3.9828   -2.7061    0.2731 C   0  0  2  0  0  0  0  0  0  0  0  0
   -3.1546   -3.9567    0.6308 C   0  0  0  0  0  0  0  0  0  0  0  0
   -1.7864   -3.7896    0.0612 C   0  0  0  0  0  0  0  0  0  0  0  0
    1.9649    4.1056   -0.1262 C   0  0  0  0  0  0  0  0  0  0  0  0
   -3.4637    3.3213   -1.9360 C   0  0  0  0  0  0  0  0  0  0  0  0
   -5.9533    3.8023    2.1652 C   0  0  0  0  0  0  0  0  0  0  0  0
   -4.9222    0.7388    3.2540 C   0  0  0  0  0  0  0  0  0  0  0  0
   -2.7295   -1.2161    1.8217 C   0  0  0  0  0  0  0  0  0  0  0  0
   -7.2340   -1.0264    0.3530 C   0  0  2  0  0  0  0  0  0  0  0  0
   -7.7666   -2.4244    0.1221 C   0  0  0  0  0  0  0  0  0  0  0  0
   -3.9047   -1.9623   -1.9377 C   0  0  0  0  0  0  0  0  0  0  0  0
    9.9855    0.3447    3.7049 C   0  0  0  0  0  0  0  0  0  0  0  0
    8.6284    0.7680    1.8565 C   0  0  0  0  0  0  0  0  0  0  0  0
    7.3788    0.3574    1.0672 C   0  0  0  0  0  0  0  0  0  0  0  0
    6.6509   -1.0104    2.8052 C   0  0  0  0  0  0  0  0  0  0  0  0
    7.8852   -0.6823    3.6258 C   0  0  0  0  0  0  0  0  0  0  0  0
    4.9414    0.7114    0.1929 C   0  0  0  0  0  0  0  0  0  0  0  0
    1.9372    1.7119   -1.6978 N   0  0  0  0  0  0  0  0  0  0  0  0
    5.0580    0.1893    1.5254 N   0  0  0  0  0  0  0  0  0  0  0  0
    6.3319    0.1574    2.0181 N   0  0  0  0  0  0  0  0  0  0  0  0
    8.9934   -0.2530    2.8019 N   0  0  0  0  0  0  0  0  0  0  0  0
    4.5963   -0.6038   -2.4803 O   0  0  0  0  0  0  0  0  0  0  0  0
    3.1965   -2.5024   -3.8323 O   0  0  0  0  0  0  0  0  0  0  0  0
    0.1125   -4.0985   -1.3517 O   0  0  0  0  0  0  0  0  0  0  0  0
    2.4712   -3.4240    0.8268 O   0  0  0  0  0  0  0  0  0  0  0  0
   -0.7700   -4.3925    0.7601 O   0  0  0  0  0  0  0  0  0  0  0  0
   -3.2939   -2.0237   -0.7196 O   0  0  0  0  0  0  0  0  0  0  0  0
   -6.3765   -1.0259    1.3764 O   0  0  0  0  0  0  0  0  0  0  0  0
   -8.3602   -0.2178    0.5060 O   0  0  0  0  0  0  0  0  0  0  0  0
   -5.1948    1.5426   -0.3481 O   0  0  0  0  0  0  0  0  0  0  0  0
   -4.6196    5.2690    0.5203 O   0  0  0  0  0  0  0  0  0  0  0  0
    1.0089    2.8213   -3.4635 O   0  0  0  0  0  0  0  0  0  0  0  0
    1.6812   -0.5063    0.8956 O   0  0  0  0  0  0  0  0  0  0  0  0
    3.3989    0.5914   -3.6459 H   0  0  0  0  0  0  0  0  0  0  0  0
    4.0460    2.0114   -1.7362 H   0  0  0  0  0  0  0  0  0  0  0  0
    2.9299    1.4349    0.4584 H   0  0  0  0  0  0  0  0  0  0  0  0
    3.5476   -1.2040    0.7327 H   0  0  0  0  0  0  0  0  0  0  0  0
    0.3803   -1.5434   -0.9428 H   0  0  0  0  0  0  0  0  0  0  0  0
    2.1070   -3.8928   -1.9084 H   0  0  0  0  0  0  0  0  0  0  0  0
   -0.0167   -2.0433   -3.1509 H   0  0  0  0  0  0  0  0  0  0  0  0
    1.7626   -1.2113   -4.4031 H   0  0  0  0  0  0  0  0  0  0  0  0
    1.3612   -0.1979   -2.2841 H   0  0  0  0  0  0  0  0  0  0  0  0
    3.2960   -2.2859   -1.2272 H   0  0  0  0  0  0  0  0  0  0  0  0
    0.6430   -2.5660    1.2725 H   0  0  0  0  0  0  0  0  0  0  0  0
    1.9956   -5.3675    0.8863 H   0  0  0  0  0  0  0  0  0  0  0  0
    1.6719   -5.8544   -0.8299 H   0  0  0  0  0  0  0  0  0  0  0  0
    0.5304   -6.3921    0.4144 H   0  0  0  0  0  0  0  0  0  0  0  0
    0.5641   -3.2827   -5.2390 H   0  0  0  0  0  0  0  0  0  0  0  0
    0.0850   -4.5327   -4.0160 H   0  0  0  0  0  0  0  0  0  0  0  0
    1.8417   -4.1575   -4.3642 H   0  0  0  0  0  0  0  0  0  0  0  0
    2.8108    3.4065   -2.6261 H   0  0  0  0  0  0  0  0  0  0  0  0
    1.1944    4.9477   -1.9162 H   0  0  0  0  0  0  0  0  0  0  0  0
   -0.6060    2.7917   -1.8186 H   0  0  0  0  0  0  0  0  0  0  0  0
   -0.2614    3.0968   -0.0712 H   0  0  0  0  0  0  0  0  0  0  0  0
   -0.4313    5.5937   -0.6251 H   0  0  0  0  0  0  0  0  0  0  0  0
   -1.2820    5.1228   -2.1026 H   0  0  0  0  0  0  0  0  0  0  0  0
   -1.9473    4.6299    0.8606 H   0  0  0  0  0  0  0  0  0  0  0  0
   -2.8784    5.6538   -0.3475 H   0  0  0  0  0  0  0  0  0  0  0  0
   -2.8597    2.6198    0.0265 H   0  0  0  0  0  0  0  0  0  0  0  0
   -5.3987    3.7597   -0.5528 H   0  0  0  0  0  0  0  0  0  0  0  0
   -3.9785    2.9304    2.0350 H   0  0  0  0  0  0  0  0  0  0  0  0
   -6.4802    1.6309    1.2455 H   0  0  0  0  0  0  0  0  0  0  0  0
   -3.6184    0.8044    1.5891 H   0  0  0  0  0  0  0  0  0  0  0  0
   -4.9543   -0.4995    0.1039 H   0  0  0  0  0  0  0  0  0  0  0  0
   -4.3684   -2.3923    2.3979 H   0  0  0  0  0  0  0  0  0  0  0  0
   -4.9756   -3.0336   -0.0582 H   0  0  0  0  0  0  0  0  0  0  0  0
   -3.1802   -4.1520    1.7056 H   0  0  0  0  0  0  0  0  0  0  0  0
   -3.6539   -4.8035    0.1246 H   0  0  0  0  0  0  0  0  0  0  0  0
   -1.7854   -4.2539   -0.9688 H   0  0  0  0  0  0  0  0  0  0  0  0
   -1.5464   -2.7100   -0.1521 H   0  0  0  0  0  0  0  0  0  0  0  0
    3.0162    3.8222   -0.3587 H   0  0  0  0  0  0  0  0  0  0  0  0
    1.5448    3.3975    0.6341 H   0  0  0  0  0  0  0  0  0  0  0  0
    1.9421    5.1439    0.2043 H   0  0  0  0  0  0  0  0  0  0  0  0
   -4.5458    3.4912   -2.2113 H   0  0  0  0  0  0  0  0  0  0  0  0
   -2.8886    3.9736   -2.6022 H   0  0  0  0  0  0  0  0  0  0  0  0
   -3.1840    2.2633   -2.2029 H   0  0  0  0  0  0  0  0  0  0  0  0
   -5.6867    3.8159    3.2542 H   0  0  0  0  0  0  0  0  0  0  0  0
   -6.9172    3.2467    2.1060 H   0  0  0  0  0  0  0  0  0  0  0  0
   -6.1438    4.8038    1.7820 H   0  0  0  0  0  0  0  0  0  0  0  0
   -4.0352    1.2013    3.7354 H   0  0  0  0  0  0  0  0  0  0  0  0
   -5.0187   -0.2750    3.6943 H   0  0  0  0  0  0  0  0  0  0  0  0
   -5.7718    1.3981    3.5380 H   0  0  0  0  0  0  0  0  0  0  0  0
   -2.8553   -0.6333    2.7507 H   0  0  0  0  0  0  0  0  0  0  0  0
   -2.0208   -2.0379    2.1008 H   0  0  0  0  0  0  0  0  0  0  0  0
   -2.3698   -0.6274    0.9786 H   0  0  0  0  0  0  0  0  0  0  0  0
   -6.6797   -0.7548   -0.5907 H   0  0  0  0  0  0  0  0  0  0  0  0
   -8.8370   -2.5090    0.4555 H   0  0  0  0  0  0  0  0  0  0  0  0
   -7.6484   -2.7600   -0.9286 H   0  0  0  0  0  0  0  0  0  0  0  0
   -7.2192   -3.1279    0.7798 H   0  0  0  0  0  0  0  0  0  0  0  0
   -4.8924   -1.4851   -1.9909 H   0  0  0  0  0  0  0  0  0  0  0  0
   -4.0507   -2.9892   -2.3945 H   0  0  0  0  0  0  0  0  0  0  0  0
   -3.2646   -1.3493   -2.6430 H   0  0  0  0  0  0  0  0  0  0  0  0
   10.3820   -0.3973    4.4245 H   0  0  0  0  0  0  0  0  0  0  0  0
    9.4557    1.1227    4.2946 H   0  0  0  0  0  0  0  0  0  0  0  0
   10.7844    0.8679    3.1500 H   0  0  0  0  0  0  0  0  0  0  0  0
    9.4793    0.9786    1.2072 H   0  0  0  0  0  0  0  0  0  0  0  0
    8.3248    1.7099    2.3997 H   0  0  0  0  0  0  0  0  0  0  0  0
    7.1985    1.1296    0.3178 H   0  0  0  0  0  0  0  0  0  0  0  0
    7.6296   -0.6380    0.6165 H   0  0  0  0  0  0  0  0  0  0  0  0
    6.8188   -1.8600    2.1162 H   0  0  0  0  0  0  0  0  0  0  0  0
    5.8372   -1.1988    3.5286 H   0  0  0  0  0  0  0  0  0  0  0  0
    7.6193    0.0822    4.3570 H   0  0  0  0  0  0  0  0  0  0  0  0
    8.2154   -1.6426    4.1128 H   0  0  0  0  0  0  0  0  0  0  0  0
    5.5872    0.2298   -0.5493 H   0  0  0  0  0  0  0  0  0  0  0  0
    5.2709    1.7895    0.2504 H   0  0  0  0  0  0  0  0  0  0  0  0
    1.4028    1.6114   -0.8311 H   0  0  0  0  0  0  0  0  0  0  0  0
    4.4481    0.7275    2.1505 H   0  0  0  0  0  0  0  0  0  0  0  0
    5.2600   -0.4242   -3.2086 H   0  0  0  0  0  0  0  0  0  0  0  0
    3.5626   -3.0502   -3.1035 H   0  0  0  0  0  0  0  0  0  0  0  0
    2.4421   -3.5672    1.8124 H   0  0  0  0  0  0  0  0  0  0  0  0
   -8.9939   -0.7075    1.0891 H   0  0  0  0  0  0  0  0  0  0  0  0
   -5.9797    1.5317   -0.9177 H   0  0  0  0  0  0  0  0  0  0  0  0
   -4.0826    5.4399    1.3532 H   0  0  0  0  0  0  0  0  0  0  0  0
    1.4454    3.1398   -4.2809 H   0  0  0  0  0  0  0  0  0  0  0  0
    1.9435   -0.2976    1.8359 H   0  0  0  0  0  0  0  0  0  0  0  0
  1  2  1  0
  2  3  1  0
  3  4  1  0
  5  6  1  0
  6  7  1  0
  7  8  1  0
  1  9  1  0
  8  9  1  0
  4 10  1  0
  5 10  1  0
  9 10  1  0
  5 11  1  0
 11 12  1  0
 12 13  1  6
  7 14  1  0
 15 16  1  0
 16 17  1  0
 17 18  1  0
 18 19  1  0
 19 20  1  0
 20 21  1  0
 21 22  1  0
 22 23  1  0
 23 24  1  0
 24 25  1  0
 25 26  1  0
 26 27  1  0
 27 28  1  0
 28 29  1  0
 16 30  1  0
 20 31  1  0
 22 32  1  0
 24 33  1  0
 26 34  1  0
 35 36  1  0
 39 40  1  0
 41 42  1  0
  3 43  1  0
  2 44  1  0
 15 44  1  0
 43 45  1  0
 40 46  1  0
 41 46  1  0
 45 46  1  0
 38 47  1  0
 39 47  1  0
 42 47  1  0
  1 48  1  0
  8 49  1  0
  6 50  1  0
 12 50  1  0
 11 51  1  0
 12 52  1  0
 29 52  1  0
 27 53  1  0
 37 53  1  0
 25 54  1  0
 35 54  1  0
 35 55  1  0
 23 56  1  0
 21 57  1  0
 15 58  1  0
  4 59  1  0
  1 60  1  0
  2 61  1  6
  3 62  1  0
  4 63  1  0
  5 64  1  0
  6 65  1  0
  7 66  1  0
  8 67  1  0
  9 68  1  0
 10 69  1  0
 11 70  1  0
 13 71  1  0
 13 72  1  0
 13 73  1  0
 14 74  1  0
 14 75  1  0
 14 76  1  0
 15 77  1  0
 16 78  1  6
 17 79  1  0
 17 80  1  0
 18 81  1  0
 18 82  1  0
 19 83  1  0
 19 84  1  0
 20 85  1  1
 21 86  1  6
 22 87  1  1
 23 88  1  6
 24 89  1  1
 25 90  1  6
 26 91  1  1
 27 92  1  6
 28 93  1  0
 28 94  1  0
 29 95  1  0
 29 96  1  0
 30 97  1  0
 30 98  1  0
 30 99  1  0
 31100  1  0
 31101  1  0
 31102  1  0
 32103  1  0
 32104  1  0
 32105  1  0
 33106  1  0
 33107  1  0
 33108  1  0
 34109  1  0
 34110  1  0
 34111  1  0
 35112  1  6
 36113  1  0
 36114  1  0
 36115  1  0
 37116  1  0
 37117  1  0
 37118  1  0
 38119  1  0
 38120  1  0
 38121  1  0
 39122  1  0
 39123  1  0
 40124  1  0
 40125  1  0
 41126  1  0
 41127  1  0
 42128  1  0
 42129  1  0
 43130  1  0
 43131  1  0
 44132  1  0
 45133  1  0
 48134  1  0
 49135  1  0
 51136  1  0
 55137  1  0
 56138  1  0
 57139  1  0
 58140  1  0
 59141  1  0
M  END
>  <PDBID>  (1) 
5UAC

>  <PDB ID>  (1) 
5UAC

>  <Generic Name>  (1) 
Rifampicin

>  <Brand Name>  (1) 
Isonarif#Rifadin#Rifadin Cap 300mg#Rifadin IV#Rifadin IV Novaplus#Rifamate#Rifampin#Rifater#Rofact 150mg#Rofact 300mg#Rifadine#Rifaldin#Rifoldin#Rimactan#Rimactane#Rofact#Tubocin

>  <DrugBank ID>  (1) 
DB01045

>  <ATC Codes>  (1) 
J04AM02#J04AB02#J04AM06#J04AM05

>  <Ligand ID>  (1) 
RFP

>  <Target Name>  (1) 
DNA-directed RNA polymerase subunit beta

>  <UniProt ID>  (1) 
P0A8V2

>  <PDB ID.1>  (1) 
5UAC

>  <Seq. Identity>  (1) 
100%

$$$$
