PDB_DB04835_09
     RDKit          3D

180188  0  0  0  0  0  0  0  0999 V2000
   -8.0603    3.3673   -0.9408 F   0  0  0  0  0  0  0  0  0  0  0  0
   -4.0467   -0.6279   -1.5748 O   0  0  0  0  0  0  0  0  0  0  0  0
    3.5107    0.6391   -1.3100 C   0  0  0  0  0  0  0  0  0  0  0  0
    4.7982    0.1370   -0.8775 N   0  0  0  0  0  0  0  0  0  0  0  0
   -0.2763   -0.3248    0.4256 C   0  0  0  0  0  0  0  0  0  0  0  0
    6.0625    1.1741    0.9835 C   0  0  0  0  0  0  0  0  0  0  0  0
   -1.4285   -0.9123   -0.3630 C   0  0  0  0  0  0  0  0  0  0  0  0
   -2.6253   -1.0639    0.4909 C   0  0  1  0  0  0  0  0  0  0  0  0
    5.3962    0.6442   -3.2008 C   0  0  0  0  0  0  0  0  0  0  0  0
   -2.4729   -1.8731    1.7322 C   0  0  0  0  0  0  0  0  0  0  0  0
   -4.3179    0.2457   -0.5445 C   0  0  2  0  0  0  0  0  0  0  0  0
   -4.4753    1.6420   -1.0911 C   0  0  0  0  0  0  0  0  0  0  0  0
   -6.6953    3.5910   -1.0893 C   0  0  0  0  0  0  0  0  0  0  0  0
    6.8234   -0.0551    1.3641 C   0  0  0  0  0  0  0  0  0  0  0  0
   -6.5566    4.9578   -1.3066 F   0  0  0  0  0  0  0  0  0  0  0  0
    0.8426   -0.0094   -0.3249 N   0  0  0  0  0  0  0  0  0  0  0  0
    1.5908   -0.9952   -0.9972 C   0  0  1  0  0  0  0  0  0  0  0  0
    6.8793    2.3928    1.3083 C   0  0  0  0  0  0  0  0  0  0  0  0
   -5.6861    1.5497   -2.0178 C   0  0  0  0  0  0  0  0  0  0  0  0
   -4.5808    2.7151   -0.0865 C   0  0  0  0  0  0  0  0  0  0  0  0
   -6.2092    2.9044   -2.3212 C   0  0  0  0  0  0  0  0  0  0  0  0
   -6.0224    3.1585    0.1784 C   0  0  0  0  0  0  0  0  0  0  0  0
   -3.8335   -1.8361    2.4890 C   0  0  0  0  0  0  0  0  0  0  0  0
   -2.2026   -3.3116    1.4087 C   0  0  0  0  0  0  0  0  0  0  0  0
   -3.7737   -2.8661    3.5783 C   0  0  0  0  0  0  0  0  0  0  0  0
   -3.4372   -4.1719    1.5117 C   0  0  0  0  0  0  0  0  0  0  0  0
   -3.9031   -4.2516    2.9514 C   0  0  0  0  0  0  0  0  0  0  0  0
    1.9144    0.5115    0.6074 C   0  0  2  0  0  0  0  0  0  0  0  0
    6.8818    1.0879   -1.2412 N   0  0  0  0  0  0  0  0  0  0  0  0
    5.6653    1.2240   -0.4685 C   0  0  1  0  0  0  0  0  0  0  0  0
    6.8638   -0.2953   -1.5930 N   0  0  0  0  0  0  0  0  0  0  0  0
   -3.5503    0.0274    0.6023 N   0  0  0  0  0  0  0  0  0  0  0  0
    2.6187   -0.3632   -1.9371 C   0  0  0  0  0  0  0  0  0  0  0  0
    2.7708    1.3992   -0.2447 C   0  0  0  0  0  0  0  0  0  0  0  0
    5.4796   -0.3587   -2.0664 C   0  0  0  0  0  0  0  0  0  0  0  0
    2.2524   -1.7987    0.0713 C   0  0  0  0  0  0  0  0  0  0  0  0
    2.5554   -0.7342    1.0950 C   0  0  0  0  0  0  0  0  0  0  0  0
   -6.3850    4.2624   -0.8712 F   0  0  0  0  0  0  0  0  0  0  0  0
   -5.4844   -0.7734   -0.9418 O   0  0  0  0  0  0  0  0  0  0  0  0
    3.0200    0.9352   -1.1419 C   0  0  0  0  0  0  0  0  0  0  0  0
    4.2985    0.4233   -0.6807 N   0  0  0  0  0  0  0  0  0  0  0  0
   -0.6898   -0.1815    0.6890 C   0  0  0  0  0  0  0  0  0  0  0  0
    5.6433    1.5796    1.0483 C   0  0  0  0  0  0  0  0  0  0  0  0
   -1.6735   -0.8260   -0.2842 C   0  0  0  0  0  0  0  0  0  0  0  0
   -2.9134   -1.3165    0.3826 C   0  0  1  0  0  0  0  0  0  0  0  0
    4.9379    0.3186   -3.0698 C   0  0  0  0  0  0  0  0  0  0  0  0
   -2.5754   -2.3524    1.4488 C   0  0  0  0  0  0  0  0  0  0  0  0
   -4.7453    0.1976   -0.1861 C   0  0  2  0  0  0  0  0  0  0  0  0
   -4.2457    1.1702   -1.1811 C   0  0  0  0  0  0  0  0  0  0  0  0
   -5.0759    4.0773   -1.2829 C   0  0  0  0  0  0  0  0  0  0  0  0
    6.2194    0.2986    1.6049 C   0  0  0  0  0  0  0  0  0  0  0  0
   -4.5204    5.2568   -1.6719 F   0  0  0  0  0  0  0  0  0  0  0  0
    0.4382    0.2895   -0.0368 N   0  0  0  0  0  0  0  0  0  0  0  0
    1.2408   -0.7583   -0.5478 C   0  0  1  0  0  0  0  0  0  0  0  0
    6.7759    2.6138    1.0815 C   0  0  0  0  0  0  0  0  0  0  0  0
   -5.5270    1.7550   -1.8496 C   0  0  0  0  0  0  0  0  0  0  0  0
   -3.4465    2.3120   -0.6521 C   0  0  0  0  0  0  0  0  0  0  0  0
   -5.1398    3.0897   -2.4439 C   0  0  0  0  0  0  0  0  0  0  0  0
   -4.2952    3.4575   -0.1259 C   0  0  0  0  0  0  0  0  0  0  0  0
   -3.8790   -2.8053    2.1192 C   0  0  0  0  0  0  0  0  0  0  0  0
   -1.9412   -3.5393    0.7775 C   0  0  0  0  0  0  0  0  0  0  0  0
   -3.4683   -3.7697    3.2091 C   0  0  0  0  0  0  0  0  0  0  0  0
   -2.7185   -4.8226    1.0583 C   0  0  0  0  0  0  0  0  0  0  0  0
   -2.8588   -4.9651    2.5532 C   0  0  0  0  0  0  0  0  0  0  0  0
    1.3925    1.0146    0.7908 C   0  0  2  0  0  0  0  0  0  0  0  0
    6.5205    0.9765   -1.0618 N   0  0  0  0  0  0  0  0  0  0  0  0
    5.2730    1.4325   -0.4135 C   0  0  0  0  0  0  0  0  0  0  0  0
    6.3047   -0.4031   -1.2759 N   0  0  0  0  0  0  0  0  0  0  0  0
   -3.9274   -0.4445    0.7374 N   0  0  0  0  0  0  0  0  0  0  0  0
    2.1391   -0.1696   -1.6139 C   0  0  0  0  0  0  0  0  0  0  0  0
    2.2968    1.7772   -0.1488 C   0  0  0  0  0  0  0  0  0  0  0  0
    4.8991   -0.3536   -1.7213 C   0  0  0  0  0  0  0  0  0  0  0  0
    2.0175   -1.2314    0.6585 C   0  0  0  0  0  0  0  0  0  0  0  0
    2.1145   -0.0503    1.5766 C   0  0  0  0  0  0  0  0  0  0  0  0
   -4.7733   -1.2150   -1.8411 H   0  0  0  0  0  0  0  0  0  0  0  0
    3.7523    1.4267   -2.0917 H   0  0  0  0  0  0  0  0  0  0  0  0
   -0.6952    0.6320    0.8610 H   0  0  0  0  0  0  0  0  0  0  0  0
   -0.0896   -0.9469    1.3387 H   0  0  0  0  0  0  0  0  0  0  0  0
    5.1644    1.1975    1.6542 H   0  0  0  0  0  0  0  0  0  0  0  0
   -1.1204   -1.9185   -0.7761 H   0  0  0  0  0  0  0  0  0  0  0  0
   -1.6803   -0.2511   -1.2120 H   0  0  0  0  0  0  0  0  0  0  0  0
   -3.2631   -1.8520   -0.1824 H   0  0  0  0  0  0  0  0  0  0  0  0
    6.2203    0.3716   -3.9065 H   0  0  0  0  0  0  0  0  0  0  0  0
    5.6743    1.6264   -2.7747 H   0  0  0  0  0  0  0  0  0  0  0  0
    4.4774    0.6137   -3.7755 H   0  0  0  0  0  0  0  0  0  0  0  0
   -1.7238   -1.5043    2.4465 H   0  0  0  0  0  0  0  0  0  0  0  0
   -5.4089   -0.0851   -0.2217 H   0  0  0  0  0  0  0  0  0  0  0  0
   -3.5835    1.8423   -1.7469 H   0  0  0  0  0  0  0  0  0  0  0  0
    7.9251    0.1375    1.4733 H   0  0  0  0  0  0  0  0  0  0  0  0
    6.5873   -0.8976    0.7033 H   0  0  0  0  0  0  0  0  0  0  0  0
    6.5328   -0.4130    2.3962 H   0  0  0  0  0  0  0  0  0  0  0  0
    0.9820   -1.6526   -1.6559 H   0  0  0  0  0  0  0  0  0  0  0  0
    6.2340    3.3102    1.4712 H   0  0  0  0  0  0  0  0  0  0  0  0
    7.5860    2.7009    0.5266 H   0  0  0  0  0  0  0  0  0  0  0  0
    7.4693    2.2685    2.2462 H   0  0  0  0  0  0  0  0  0  0  0  0
   -6.4930    0.9810   -1.4594 H   0  0  0  0  0  0  0  0  0  0  0  0
   -5.4039    1.0098   -2.9420 H   0  0  0  0  0  0  0  0  0  0  0  0
   -4.1843    2.4557    0.9156 H   0  0  0  0  0  0  0  0  0  0  0  0
   -4.0291    3.6530   -0.3718 H   0  0  0  0  0  0  0  0  0  0  0  0
   -5.4712    3.5317   -2.8670 H   0  0  0  0  0  0  0  0  0  0  0  0
   -7.0759    2.8076   -3.0693 H   0  0  0  0  0  0  0  0  0  0  0  0
   -5.9302    4.0657    0.8141 H   0  0  0  0  0  0  0  0  0  0  0  0
   -6.5865    2.3474    0.6625 H   0  0  0  0  0  0  0  0  0  0  0  0
   -4.6658   -1.9735    1.7905 H   0  0  0  0  0  0  0  0  0  0  0  0
   -3.8806   -0.8324    2.9587 H   0  0  0  0  0  0  0  0  0  0  0  0
   -1.7743   -3.4760    0.4028 H   0  0  0  0  0  0  0  0  0  0  0  0
   -1.4448   -3.7580    2.1120 H   0  0  0  0  0  0  0  0  0  0  0  0
   -4.6239   -2.6751    4.2873 H   0  0  0  0  0  0  0  0  0  0  0  0
   -2.8071   -2.7919    4.0936 H   0  0  0  0  0  0  0  0  0  0  0  0
   -3.2177   -5.1945    1.1226 H   0  0  0  0  0  0  0  0  0  0  0  0
   -4.2260   -3.7358    0.8893 H   0  0  0  0  0  0  0  0  0  0  0  0
   -4.9925   -4.5504    2.9863 H   0  0  0  0  0  0  0  0  0  0  0  0
   -3.3055   -4.9490    3.5635 H   0  0  0  0  0  0  0  0  0  0  0  0
    1.4240    1.1068    1.3939 H   0  0  0  0  0  0  0  0  0  0  0  0
    7.7554    1.2775   -0.7540 H   0  0  0  0  0  0  0  0  0  0  0  0
    5.2079    2.1994   -0.6912 H   0  0  0  0  0  0  0  0  0  0  0  0
    7.5362   -0.4717   -2.3734 H   0  0  0  0  0  0  0  0  0  0  0  0
   -2.9788    0.8572    0.9212 H   0  0  0  0  0  0  0  0  0  0  0  0
    1.9712    0.1946   -2.6838 H   0  0  0  0  0  0  0  0  0  0  0  0
    3.0907   -1.1630   -2.5024 H   0  0  0  0  0  0  0  0  0  0  0  0
    2.0348    2.0690   -0.7897 H   0  0  0  0  0  0  0  0  0  0  0  0
    3.3892    2.0999    0.3388 H   0  0  0  0  0  0  0  0  0  0  0  0
    5.1940   -1.3653   -2.3479 H   0  0  0  0  0  0  0  0  0  0  0  0
    3.1641   -2.3057   -0.3179 H   0  0  0  0  0  0  0  0  0  0  0  0
    1.5881   -2.6039    0.4312 H   0  0  0  0  0  0  0  0  0  0  0  0
    2.0799   -1.0696    2.0400 H   0  0  0  0  0  0  0  0  0  0  0  0
    3.6367   -0.6512    1.3115 H   0  0  0  0  0  0  0  0  0  0  0  0
   -6.3501   -0.3883   -1.2156 H   0  0  0  0  0  0  0  0  0  0  0  0
    3.1847    1.6108   -2.0405 H   0  0  0  0  0  0  0  0  0  0  0  0
   -1.2170    0.6189    1.2281 H   0  0  0  0  0  0  0  0  0  0  0  0
   -0.3990   -0.9156    1.4909 H   0  0  0  0  0  0  0  0  0  0  0  0
    4.8134    1.8808    1.6982 H   0  0  0  0  0  0  0  0  0  0  0  0
   -1.1936   -1.7132   -0.7794 H   0  0  0  0  0  0  0  0  0  0  0  0
   -1.9253   -0.0535   -1.0244 H   0  0  0  0  0  0  0  0  0  0  0  0
   -3.3676   -2.0252   -0.4550 H   0  0  0  0  0  0  0  0  0  0  0  0
    5.9039    0.0452   -3.5938 H   0  0  0  0  0  0  0  0  0  0  0  0
    4.9330    1.4052   -3.0327 H   0  0  0  0  0  0  0  0  0  0  0  0
    4.1313   -0.0093   -3.7601 H   0  0  0  0  0  0  0  0  0  0  0  0
   -1.9487   -1.9244    2.2187 H   0  0  0  0  0  0  0  0  0  0  0  0
   -5.6013    0.7042    0.4258 H   0  0  0  0  0  0  0  0  0  0  0  0
   -3.7554    0.6630   -2.0525 H   0  0  0  0  0  0  0  0  0  0  0  0
    7.2593    0.1263    1.2600 H   0  0  0  0  0  0  0  0  0  0  0  0
    5.6145   -0.5389    1.2148 H   0  0  0  0  0  0  0  0  0  0  0  0
    6.1660    0.3881    2.7258 H   0  0  0  0  0  0  0  0  0  0  0  0
    0.7568   -1.6220   -0.9881 H   0  0  0  0  0  0  0  0  0  0  0  0
    6.3036    3.6245    0.9946 H   0  0  0  0  0  0  0  0  0  0  0  0
    7.3743    2.4593    0.1470 H   0  0  0  0  0  0  0  0  0  0  0  0
    7.3802    2.5317    2.0020 H   0  0  0  0  0  0  0  0  0  0  0  0
   -6.2797    1.9349   -1.0350 H   0  0  0  0  0  0  0  0  0  0  0  0
   -5.8920    1.0349   -2.5936 H   0  0  0  0  0  0  0  0  0  0  0  0
   -2.8494    1.9761    0.2374 H   0  0  0  0  0  0  0  0  0  0  0  0
   -2.7485    2.7307   -1.3980 H   0  0  0  0  0  0  0  0  0  0  0  0
   -4.1289    3.0053   -2.8619 H   0  0  0  0  0  0  0  0  0  0  0  0
   -5.8714    3.4252   -3.2062 H   0  0  0  0  0  0  0  0  0  0  0  0
   -3.5961    4.2305    0.2360 H   0  0  0  0  0  0  0  0  0  0  0  0
   -4.9578    3.1502    0.6943 H   0  0  0  0  0  0  0  0  0  0  0  0
   -4.5620   -3.2139    1.3776 H   0  0  0  0  0  0  0  0  0  0  0  0
   -4.2885   -1.8623    2.5784 H   0  0  0  0  0  0  0  0  0  0  0  0
   -1.9460   -3.4645   -0.3399 H   0  0  0  0  0  0  0  0  0  0  0  0
   -0.9190   -3.6899    1.1806 H   0  0  0  0  0  0  0  0  0  0  0  0
   -4.3524   -3.9850    3.8434 H   0  0  0  0  0  0  0  0  0  0  0  0
   -2.6839   -3.2306    3.8192 H   0  0  0  0  0  0  0  0  0  0  0  0
   -2.0686   -5.6541    0.6684 H   0  0  0  0  0  0  0  0  0  0  0  0
   -3.6931   -4.8503    0.5662 H   0  0  0  0  0  0  0  0  0  0  0  0
   -3.5192   -5.8395    2.8030 H   0  0  0  0  0  0  0  0  0  0  0  0
   -1.8393   -5.1842    2.9807 H   0  0  0  0  0  0  0  0  0  0  0  0
    0.9046    1.7658    1.4434 H   0  0  0  0  0  0  0  0  0  0  0  0
    6.6660    1.4069   -1.9891 H   0  0  0  0  0  0  0  0  0  0  0  0
    5.0418    2.3946   -0.8731 H   0  0  0  0  0  0  0  0  0  0  0  0
    6.9392   -0.7808   -1.9875 H   0  0  0  0  0  0  0  0  0  0  0  0
   -3.6077    0.2085    1.4973 H   0  0  0  0  0  0  0  0  0  0  0  0
    1.4241    0.2746   -2.3696 H   0  0  0  0  0  0  0  0  0  0  0  0
    2.6427   -0.9780   -2.1642 H   0  0  0  0  0  0  0  0  0  0  0  0
    1.5871    2.4434   -0.7362 H   0  0  0  0  0  0  0  0  0  0  0  0
    2.9371    2.5110    0.3860 H   0  0  0  0  0  0  0  0  0  0  0  0
    4.5856   -1.3954   -1.7716 H   0  0  0  0  0  0  0  0  0  0  0  0
    2.9677   -1.7129    0.4194 H   0  0  0  0  0  0  0  0  0  0  0  0
    1.3859   -1.9952    1.1705 H   0  0  0  0  0  0  0  0  0  0  0  0
    1.5198   -0.2076    2.5241 H   0  0  0  0  0  0  0  0  0  0  0  0
    3.1175    0.2096    1.9031 H   0  0  0  0  0  0  0  0  0  0  0  0
  3  4  1  0
  5  7  1  0
  7  8  1  0
  8 10  1  0
  2 11  1  0
 11 12  1  0
 13  1  1  0
  6 14  1  0
 13 15  1  0
  5 16  1  0
 16 17  1  0
  6 18  1  0
 12 19  1  0
 12 20  1  0
 13 21  1  0
 19 21  1  0
 13 22  1  0
 20 22  1  0
 10 23  1  0
 10 24  1  0
 23 25  1  0
 24 26  1  0
 25 27  1  0
 26 27  1  0
 16 28  1  0
  4 30  1  0
  6 30  1  0
 29 30  1  0
 29 31  1  0
  8 32  1  0
 11 32  1  0
  3 33  1  0
 17 33  1  0
  3 34  1  0
 28 34  1  0
  4 35  1  0
  9 35  1  0
 31 35  1  0
 17 36  1  0
 28 37  1  0
 36 37  1  0
 40 41  1  0
 42 44  1  0
 44 45  1  0
 45 47  1  0
 39 48  1  0
 48 49  1  0
 50 38  1  0
 43 51  1  0
 50 52  1  0
 42 53  1  0
 53 54  1  0
 43 55  1  0
 49 56  1  0
 49 57  1  0
 50 58  1  0
 56 58  1  0
 50 59  1  0
 57 59  1  0
 47 60  1  0
 47 61  1  0
 60 62  1  0
 61 63  1  0
 62 64  1  0
 63 64  1  0
 53 65  1  0
 41 67  1  0
 43 67  1  0
 66 67  1  0
 66 68  1  0
 45 69  1  0
 48 69  1  0
 40 70  1  0
 54 70  1  0
 40 71  1  0
 65 71  1  0
 41 72  1  0
 46 72  1  0
 68 72  1  0
 54 73  1  0
 65 74  1  0
 73 74  1  0
  2 75  1  0
  3 76  1  0
  5 77  1  0
  5 78  1  0
  6 79  1  0
  7 80  1  0
  7 81  1  0
  8 82  1  6
  9 83  1  0
  9 84  1  0
  9 85  1  0
 10 86  1  0
 11 87  1  1
 12 88  1  0
 14 89  1  0
 14 90  1  0
 14 91  1  0
 17 92  1  6
 18 93  1  0
 18 94  1  0
 18 95  1  0
 19 96  1  0
 19 97  1  0
 20 98  1  0
 20 99  1  0
 21100  1  0
 21101  1  0
 22102  1  0
 22103  1  0
 23104  1  0
 23105  1  0
 24106  1  0
 24107  1  0
 25108  1  0
 25109  1  0
 26110  1  0
 26111  1  0
 27112  1  0
 27113  1  0
 28114  1  1
 29115  1  0
 30116  1  1
 31117  1  0
 32118  1  0
 33119  1  0
 33120  1  0
 34121  1  0
 34122  1  0
 35123  1  0
 36124  1  0
 36125  1  0
 37126  1  0
 37127  1  0
 39128  1  0
 40129  1  0
 42130  1  0
 42131  1  0
 43132  1  0
 44133  1  0
 44134  1  0
 45135  1  6
 46136  1  0
 46137  1  0
 46138  1  0
 47139  1  0
 48140  1  1
 49141  1  0
 51142  1  0
 51143  1  0
 51144  1  0
 54145  1  6
 55146  1  0
 55147  1  0
 55148  1  0
 56149  1  0
 56150  1  0
 57151  1  0
 57152  1  0
 58153  1  0
 58154  1  0
 59155  1  0
 59156  1  0
 60157  1  0
 60158  1  0
 61159  1  0
 61160  1  0
 62161  1  0
 62162  1  0
 63163  1  0
 63164  1  0
 64165  1  0
 64166  1  0
 65167  1  1
 66168  1  0
 67169  1  0
 68170  1  0
 69171  1  0
 70172  1  0
 70173  1  0
 71174  1  0
 71175  1  0
 72176  1  0
 73177  1  0
 73178  1  0
 74179  1  0
 74180  1  0
M  END
>  <PDBID>  (1) 
4MBS

>  <PDB ID>  (1) 
4MBS

>  <Generic Name>  (1) 
Maraviroc

>  <Brand Name>  (1) 
Celsentri#Selzentry

>  <DrugBank ID>  (1) 
DB04835

>  <ATC Codes>  (1) 
J05AX09

>  <Ligand ID>  (1) 
MRV

>  <Target Name>  (1) 
C-C chemokine receptor type 5

>  <UniProt ID>  (1) 
P51681

>  <PDB ID.1>  (1) 
4MBS

>  <Seq. Identity>  (1) 
74%

$$$$
