PDB_DB01076_07
     RDKit          3D

408420  0  0  0  0  0  0  0  0999 V2000
   -1.6036   -2.3223    2.4803 C   0  0  0  0  0  0  0  0  0  0  0  0
   -2.0545   -1.3561    1.3915 C   0  0  0  0  0  0  0  0  0  0  0  0
   -3.2036   -2.0384    0.7038 C   0  0  0  0  0  0  0  0  0  0  0  0
   -3.4704   -3.4311    1.2928 C   0  0  0  0  0  0  0  0  0  0  0  0
   -3.7455   -3.4125    2.7560 C   0  0  0  0  0  0  0  0  0  0  0  0
   -2.7482   -2.5320    3.4697 C   0  0  0  0  0  0  0  0  0  0  0  0
    0.0231   -4.7347   -1.0541 C   0  0  0  0  0  0  0  0  0  0  0  0
    0.6625   -3.8528    0.0389 C   0  0  0  0  0  0  0  0  0  0  0  0
    0.8115   -2.4610   -0.3827 C   0  0  0  0  0  0  0  0  0  0  0  0
    1.1526   -2.6219   -1.9110 C   0  0  0  0  0  0  0  0  0  0  0  0
    1.9967   -3.8115   -2.1387 C   0  0  0  0  0  0  0  0  0  0  0  0
    1.0701   -5.0364   -2.1204 C   0  0  0  0  0  0  0  0  0  0  0  0
    0.4882   -5.0759   -3.3786 F   0  0  0  0  0  0  0  0  0  0  0  0
   -0.1952   -1.4594   -0.4151 C   0  0  0  0  0  0  0  0  0  0  0  0
   -3.8757    2.8151    0.9295 C   0  0  0  0  0  0  0  0  0  0  0  0
   -5.2106    3.0061    1.5664 C   0  0  0  0  0  0  0  0  0  0  0  0
   -5.8060    4.2921    1.0289 C   0  0  0  0  0  0  0  0  0  0  0  0
   -4.8155    5.4299    1.0913 C   0  0  0  0  0  0  0  0  0  0  0  0
   -3.5588    5.1112    1.8448 C   0  0  0  0  0  0  0  0  0  0  0  0
   -2.8799    3.8483    1.3442 C   0  0  0  0  0  0  0  0  0  0  0  0
    9.4793    0.5772   -0.1779 O   0  0  0  0  0  0  0  0  0  0  0  0
    8.3438    2.4796    0.5116 O   0  0  0  0  0  0  0  0  0  0  0  0
    5.7542    0.7906    1.6525 O   0  0  0  0  0  0  0  0  0  0  0  0
    8.3013    1.0952    0.4276 C   0  0  0  0  0  0  0  0  0  0  0  0
    7.0776    0.6030   -0.3105 C   0  0  0  0  0  0  0  0  0  0  0  0
    5.8530    1.1762    0.3353 C   0  0  1  0  0  0  0  0  0  0  0  0
    4.5683    0.8814   -0.4236 C   0  0  0  0  0  0  0  0  0  0  0  0
    3.4658    1.6858    0.2062 C   0  0  1  0  0  0  0  0  0  0  0  0
    2.1208    1.5283   -0.4639 C   0  0  0  0  0  0  0  0  0  0  0  0
    1.7019    0.0801   -0.3297 C   0  0  0  0  0  0  0  0  0  0  0  0
    0.5180   -0.2666   -0.9885 N   0  0  0  0  0  0  0  0  0  0  0  0
   -1.0034   -0.7645    0.5798 C   0  0  0  0  0  0  0  0  0  0  0  0
   -1.3690    0.5354   -0.1391 C   0  0  0  0  0  0  0  0  0  0  0  0
   -2.7207    1.0411   -0.2225 C   0  0  0  0  0  0  0  0  0  0  0  0
   -3.3688    1.4350    1.0302 N   0  0  0  0  0  0  0  0  0  0  0  0
   -3.6384    0.3490   -0.9793 O   0  0  0  0  0  0  0  0  0  0  0  0
   -0.4553    0.6874   -1.2921 C   0  0  0  0  0  0  0  0  0  0  0  0
   -0.8935    0.7500   -2.6756 C   0  0  0  0  0  0  0  0  0  0  0  0
    0.3636    1.1126   -3.5151 C   0  0  0  0  0  0  0  0  0  0  0  0
   -1.4247   -0.4405   -3.3777 C   0  0  0  0  0  0  0  0  0  0  0  0
    3.3985    1.2738    1.5607 O   0  0  0  0  0  0  0  0  0  0  0  0
   -1.6036   -2.3223    2.4803 C   0  0  0  0  0  0  0  0  0  0  0  0
   -2.0545   -1.3561    1.3915 C   0  0  0  0  0  0  0  0  0  0  0  0
   -3.2036   -2.0384    0.7038 C   0  0  0  0  0  0  0  0  0  0  0  0
   -3.4704   -3.4311    1.2928 C   0  0  0  0  0  0  0  0  0  0  0  0
   -3.7455   -3.4125    2.7560 C   0  0  0  0  0  0  0  0  0  0  0  0
   -2.7482   -2.5320    3.4697 C   0  0  0  0  0  0  0  0  0  0  0  0
    0.0231   -4.7347   -1.0541 C   0  0  0  0  0  0  0  0  0  0  0  0
    0.6625   -3.8528    0.0389 C   0  0  0  0  0  0  0  0  0  0  0  0
    0.8115   -2.4610   -0.3827 C   0  0  0  0  0  0  0  0  0  0  0  0
    1.1526   -2.6219   -1.9110 C   0  0  0  0  0  0  0  0  0  0  0  0
    1.9967   -3.8115   -2.1387 C   0  0  0  0  0  0  0  0  0  0  0  0
    1.0701   -5.0364   -2.1204 C   0  0  0  0  0  0  0  0  0  0  0  0
    0.4882   -5.0759   -3.3786 F   0  0  0  0  0  0  0  0  0  0  0  0
   -0.1952   -1.4594   -0.4151 C   0  0  0  0  0  0  0  0  0  0  0  0
   -3.8757    2.8151    0.9295 C   0  0  0  0  0  0  0  0  0  0  0  0
   -5.2106    3.0061    1.5664 C   0  0  0  0  0  0  0  0  0  0  0  0
   -5.8060    4.2921    1.0289 C   0  0  0  0  0  0  0  0  0  0  0  0
   -4.8155    5.4299    1.0913 C   0  0  0  0  0  0  0  0  0  0  0  0
   -3.5588    5.1112    1.8448 C   0  0  0  0  0  0  0  0  0  0  0  0
   -2.8799    3.8483    1.3442 C   0  0  0  0  0  0  0  0  0  0  0  0
    9.4793    0.5772   -0.1779 O   0  0  0  0  0  0  0  0  0  0  0  0
    8.3438    2.4796    0.5116 O   0  0  0  0  0  0  0  0  0  0  0  0
    5.7542    0.7906    1.6525 O   0  0  0  0  0  0  0  0  0  0  0  0
    8.3013    1.0952    0.4276 C   0  0  0  0  0  0  0  0  0  0  0  0
    7.0776    0.6030   -0.3105 C   0  0  0  0  0  0  0  0  0  0  0  0
    5.8530    1.1762    0.3353 C   0  0  1  0  0  0  0  0  0  0  0  0
    4.5683    0.8814   -0.4236 C   0  0  0  0  0  0  0  0  0  0  0  0
    3.4658    1.6858    0.2062 C   0  0  1  0  0  0  0  0  0  0  0  0
    2.1208    1.5283   -0.4639 C   0  0  0  0  0  0  0  0  0  0  0  0
    1.7019    0.0801   -0.3297 C   0  0  0  0  0  0  0  0  0  0  0  0
    0.5180   -0.2666   -0.9885 N   0  0  0  0  0  0  0  0  0  0  0  0
   -1.0034   -0.7645    0.5798 C   0  0  0  0  0  0  0  0  0  0  0  0
   -1.3690    0.5354   -0.1391 C   0  0  0  0  0  0  0  0  0  0  0  0
   -2.7207    1.0411   -0.2225 C   0  0  0  0  0  0  0  0  0  0  0  0
   -3.3688    1.4350    1.0302 N   0  0  0  0  0  0  0  0  0  0  0  0
   -3.6384    0.3490   -0.9793 O   0  0  0  0  0  0  0  0  0  0  0  0
   -0.4553    0.6874   -1.2921 C   0  0  0  0  0  0  0  0  0  0  0  0
   -0.8935    0.7500   -2.6756 C   0  0  0  0  0  0  0  0  0  0  0  0
    0.3636    1.1126   -3.5151 C   0  0  0  0  0  0  0  0  0  0  0  0
   -1.4247   -0.4405   -3.3777 C   0  0  0  0  0  0  0  0  0  0  0  0
    3.3985    1.2738    1.5607 O   0  0  0  0  0  0  0  0  0  0  0  0
   -1.6036   -2.3223    2.4803 C   0  0  0  0  0  0  0  0  0  0  0  0
   -2.0545   -1.3561    1.3915 C   0  0  0  0  0  0  0  0  0  0  0  0
   -3.2036   -2.0384    0.7038 C   0  0  0  0  0  0  0  0  0  0  0  0
   -3.4704   -3.4311    1.2928 C   0  0  0  0  0  0  0  0  0  0  0  0
   -3.7455   -3.4125    2.7560 C   0  0  0  0  0  0  0  0  0  0  0  0
   -2.7482   -2.5320    3.4697 C   0  0  0  0  0  0  0  0  0  0  0  0
    0.0231   -4.7347   -1.0541 C   0  0  0  0  0  0  0  0  0  0  0  0
    0.6625   -3.8528    0.0389 C   0  0  0  0  0  0  0  0  0  0  0  0
    0.8115   -2.4610   -0.3827 C   0  0  0  0  0  0  0  0  0  0  0  0
    1.1526   -2.6219   -1.9110 C   0  0  0  0  0  0  0  0  0  0  0  0
    1.9967   -3.8115   -2.1387 C   0  0  0  0  0  0  0  0  0  0  0  0
    1.0701   -5.0364   -2.1204 C   0  0  0  0  0  0  0  0  0  0  0  0
    0.4882   -5.0759   -3.3786 F   0  0  0  0  0  0  0  0  0  0  0  0
   -0.1952   -1.4594   -0.4151 C   0  0  0  0  0  0  0  0  0  0  0  0
   -3.8757    2.8151    0.9295 C   0  0  0  0  0  0  0  0  0  0  0  0
   -5.2106    3.0061    1.5664 C   0  0  0  0  0  0  0  0  0  0  0  0
   -5.8060    4.2921    1.0289 C   0  0  0  0  0  0  0  0  0  0  0  0
   -4.8155    5.4299    1.0913 C   0  0  0  0  0  0  0  0  0  0  0  0
   -3.5588    5.1112    1.8448 C   0  0  0  0  0  0  0  0  0  0  0  0
   -2.8799    3.8483    1.3442 C   0  0  0  0  0  0  0  0  0  0  0  0
    9.4793    0.5772   -0.1779 O   0  0  0  0  0  0  0  0  0  0  0  0
    8.3438    2.4796    0.5116 O   0  0  0  0  0  0  0  0  0  0  0  0
    5.7542    0.7906    1.6525 O   0  0  0  0  0  0  0  0  0  0  0  0
    8.3013    1.0952    0.4276 C   0  0  0  0  0  0  0  0  0  0  0  0
    7.0776    0.6030   -0.3105 C   0  0  0  0  0  0  0  0  0  0  0  0
    5.8530    1.1762    0.3353 C   0  0  1  0  0  0  0  0  0  0  0  0
    4.5683    0.8814   -0.4236 C   0  0  0  0  0  0  0  0  0  0  0  0
    3.4658    1.6858    0.2062 C   0  0  1  0  0  0  0  0  0  0  0  0
    2.1208    1.5283   -0.4639 C   0  0  0  0  0  0  0  0  0  0  0  0
    1.7019    0.0801   -0.3297 C   0  0  0  0  0  0  0  0  0  0  0  0
    0.5180   -0.2666   -0.9885 N   0  0  0  0  0  0  0  0  0  0  0  0
   -1.0034   -0.7645    0.5798 C   0  0  0  0  0  0  0  0  0  0  0  0
   -1.3690    0.5354   -0.1391 C   0  0  0  0  0  0  0  0  0  0  0  0
   -2.7207    1.0411   -0.2225 C   0  0  0  0  0  0  0  0  0  0  0  0
   -3.3688    1.4350    1.0302 N   0  0  0  0  0  0  0  0  0  0  0  0
   -3.6384    0.3490   -0.9793 O   0  0  0  0  0  0  0  0  0  0  0  0
   -0.4553    0.6874   -1.2921 C   0  0  0  0  0  0  0  0  0  0  0  0
   -0.8935    0.7500   -2.6756 C   0  0  0  0  0  0  0  0  0  0  0  0
    0.3636    1.1126   -3.5151 C   0  0  0  0  0  0  0  0  0  0  0  0
   -1.4247   -0.4405   -3.3777 C   0  0  0  0  0  0  0  0  0  0  0  0
    3.3985    1.2738    1.5607 O   0  0  0  0  0  0  0  0  0  0  0  0
   -1.6036   -2.3223    2.4803 C   0  0  0  0  0  0  0  0  0  0  0  0
   -2.0545   -1.3561    1.3915 C   0  0  0  0  0  0  0  0  0  0  0  0
   -3.2036   -2.0384    0.7038 C   0  0  0  0  0  0  0  0  0  0  0  0
   -3.4704   -3.4311    1.2928 C   0  0  0  0  0  0  0  0  0  0  0  0
   -3.7455   -3.4125    2.7560 C   0  0  0  0  0  0  0  0  0  0  0  0
   -2.7482   -2.5320    3.4697 C   0  0  0  0  0  0  0  0  0  0  0  0
    0.0231   -4.7347   -1.0541 C   0  0  0  0  0  0  0  0  0  0  0  0
    0.6625   -3.8528    0.0389 C   0  0  0  0  0  0  0  0  0  0  0  0
    0.8115   -2.4610   -0.3827 C   0  0  0  0  0  0  0  0  0  0  0  0
    1.1526   -2.6219   -1.9110 C   0  0  0  0  0  0  0  0  0  0  0  0
    1.9967   -3.8115   -2.1387 C   0  0  0  0  0  0  0  0  0  0  0  0
    1.0701   -5.0364   -2.1204 C   0  0  0  0  0  0  0  0  0  0  0  0
    0.4882   -5.0759   -3.3786 F   0  0  0  0  0  0  0  0  0  0  0  0
   -0.1952   -1.4594   -0.4151 C   0  0  0  0  0  0  0  0  0  0  0  0
   -3.8757    2.8151    0.9295 C   0  0  0  0  0  0  0  0  0  0  0  0
   -5.2106    3.0061    1.5664 C   0  0  0  0  0  0  0  0  0  0  0  0
   -5.8060    4.2921    1.0289 C   0  0  0  0  0  0  0  0  0  0  0  0
   -4.8155    5.4299    1.0913 C   0  0  0  0  0  0  0  0  0  0  0  0
   -3.5588    5.1112    1.8448 C   0  0  0  0  0  0  0  0  0  0  0  0
   -2.8799    3.8483    1.3442 C   0  0  0  0  0  0  0  0  0  0  0  0
    9.4793    0.5772   -0.1779 O   0  0  0  0  0  0  0  0  0  0  0  0
    8.3438    2.4796    0.5116 O   0  0  0  0  0  0  0  0  0  0  0  0
    5.7542    0.7906    1.6525 O   0  0  0  0  0  0  0  0  0  0  0  0
    8.3013    1.0952    0.4276 C   0  0  0  0  0  0  0  0  0  0  0  0
    7.0776    0.6030   -0.3105 C   0  0  0  0  0  0  0  0  0  0  0  0
    5.8530    1.1762    0.3353 C   0  0  1  0  0  0  0  0  0  0  0  0
    4.5683    0.8814   -0.4236 C   0  0  0  0  0  0  0  0  0  0  0  0
    3.4658    1.6858    0.2062 C   0  0  1  0  0  0  0  0  0  0  0  0
    2.1208    1.5283   -0.4639 C   0  0  0  0  0  0  0  0  0  0  0  0
    1.7019    0.0801   -0.3297 C   0  0  0  0  0  0  0  0  0  0  0  0
    0.5180   -0.2666   -0.9885 N   0  0  0  0  0  0  0  0  0  0  0  0
   -1.0034   -0.7645    0.5798 C   0  0  0  0  0  0  0  0  0  0  0  0
   -1.3690    0.5354   -0.1391 C   0  0  0  0  0  0  0  0  0  0  0  0
   -2.7207    1.0411   -0.2225 C   0  0  0  0  0  0  0  0  0  0  0  0
   -3.3688    1.4350    1.0302 N   0  0  0  0  0  0  0  0  0  0  0  0
   -3.6384    0.3490   -0.9793 O   0  0  0  0  0  0  0  0  0  0  0  0
   -0.4553    0.6874   -1.2921 C   0  0  0  0  0  0  0  0  0  0  0  0
   -0.8935    0.7500   -2.6756 C   0  0  0  0  0  0  0  0  0  0  0  0
    0.3636    1.1126   -3.5151 C   0  0  0  0  0  0  0  0  0  0  0  0
   -1.4247   -0.4405   -3.3777 C   0  0  0  0  0  0  0  0  0  0  0  0
    3.3985    1.2738    1.5607 O   0  0  0  0  0  0  0  0  0  0  0  0
   -0.7369   -1.8643    2.9959 H   0  0  0  0  0  0  0  0  0  0  0  0
   -1.3184   -3.2936    2.0925 H   0  0  0  0  0  0  0  0  0  0  0  0
   -2.5437   -0.5548    2.0017 H   0  0  0  0  0  0  0  0  0  0  0  0
   -3.0185   -2.2200   -0.3721 H   0  0  0  0  0  0  0  0  0  0  0  0
   -4.1902   -1.5424    0.8746 H   0  0  0  0  0  0  0  0  0  0  0  0
   -2.7182   -4.1690    0.9739 H   0  0  0  0  0  0  0  0  0  0  0  0
   -4.4252   -3.7716    0.7824 H   0  0  0  0  0  0  0  0  0  0  0  0
   -3.5959   -4.4680    3.1191 H   0  0  0  0  0  0  0  0  0  0  0  0
   -4.7837   -3.0971    2.9879 H   0  0  0  0  0  0  0  0  0  0  0  0
   -3.1259   -1.5727    3.8053 H   0  0  0  0  0  0  0  0  0  0  0  0
   -2.2874   -3.0598    4.3191 H   0  0  0  0  0  0  0  0  0  0  0  0
   -0.2178   -5.6984   -0.5735 H   0  0  0  0  0  0  0  0  0  0  0  0
   -0.8919   -4.2934   -1.4361 H   0  0  0  0  0  0  0  0  0  0  0  0
    0.2219   -4.1345    0.9651 H   0  0  0  0  0  0  0  0  0  0  0  0
    1.6951   -4.3528    0.1100 H   0  0  0  0  0  0  0  0  0  0  0  0
    1.8354   -2.1433    0.0032 H   0  0  0  0  0  0  0  0  0  0  0  0
    0.1441   -2.8373   -2.3864 H   0  0  0  0  0  0  0  0  0  0  0  0
    1.4786   -1.7017   -2.3550 H   0  0  0  0  0  0  0  0  0  0  0  0
    2.4611   -3.7163   -3.1586 H   0  0  0  0  0  0  0  0  0  0  0  0
    2.8081   -3.8652   -1.4048 H   0  0  0  0  0  0  0  0  0  0  0  0
    1.6681   -5.9210   -1.9284 H   0  0  0  0  0  0  0  0  0  0  0  0
   -0.9509   -1.7881   -1.2092 H   0  0  0  0  0  0  0  0  0  0  0  0
   -4.0272    2.9585   -0.1825 H   0  0  0  0  0  0  0  0  0  0  0  0
   -5.9068    2.1901    1.3130 H   0  0  0  0  0  0  0  0  0  0  0  0
   -5.1284    3.1591    2.6687 H   0  0  0  0  0  0  0  0  0  0  0  0
   -6.0643    4.1459   -0.0545 H   0  0  0  0  0  0  0  0  0  0  0  0
   -6.7762    4.5278    1.5115 H   0  0  0  0  0  0  0  0  0  0  0  0
   -4.6050    5.8579    0.0967 H   0  0  0  0  0  0  0  0  0  0  0  0
   -5.3134    6.2648    1.6621 H   0  0  0  0  0  0  0  0  0  0  0  0
   -2.8607    5.9702    1.6659 H   0  0  0  0  0  0  0  0  0  0  0  0
   -3.7557    5.0281    2.9335 H   0  0  0  0  0  0  0  0  0  0  0  0
   -2.1839    3.4951    2.1167 H   0  0  0  0  0  0  0  0  0  0  0  0
   -2.2207    4.1729    0.4862 H   0  0  0  0  0  0  0  0  0  0  0  0
   10.1148    1.3262   -0.3583 H   0  0  0  0  0  0  0  0  0  0  0  0
    8.2943    2.9623   -0.3302 H   0  0  0  0  0  0  0  0  0  0  0  0
    6.2231   -0.0578    1.8682 H   0  0  0  0  0  0  0  0  0  0  0  0
    8.2840    0.7086    1.4905 H   0  0  0  0  0  0  0  0  0  0  0  0
    7.1616    0.9701   -1.3677 H   0  0  0  0  0  0  0  0  0  0  0  0
    7.0669   -0.4960   -0.3204 H   0  0  0  0  0  0  0  0  0  0  0  0
    5.9309    2.3103    0.3724 H   0  0  0  0  0  0  0  0  0  0  0  0
    4.4233   -0.2287   -0.2662 H   0  0  0  0  0  0  0  0  0  0  0  0
    4.6539    1.0307   -1.5076 H   0  0  0  0  0  0  0  0  0  0  0  0
    3.7608    2.7743    0.2900 H   0  0  0  0  0  0  0  0  0  0  0  0
    1.4532    2.1905    0.1672 H   0  0  0  0  0  0  0  0  0  0  0  0
    2.2121    1.8941   -1.4955 H   0  0  0  0  0  0  0  0  0  0  0  0
    1.6720   -0.0406    0.7988 H   0  0  0  0  0  0  0  0  0  0  0  0
    2.5687   -0.4752   -0.7462 H   0  0  0  0  0  0  0  0  0  0  0  0
   -0.2054   -0.5013    1.3824 H   0  0  0  0  0  0  0  0  0  0  0  0
   -0.9285    1.3220    0.6427 H   0  0  0  0  0  0  0  0  0  0  0  0
   -2.6473    2.0298   -0.7861 H   0  0  0  0  0  0  0  0  0  0  0  0
   -2.5186    1.5882    1.7020 H   0  0  0  0  0  0  0  0  0  0  0  0
   -4.4045    0.9066   -1.2468 H   0  0  0  0  0  0  0  0  0  0  0  0
    0.0857    1.7094   -1.1817 H   0  0  0  0  0  0  0  0  0  0  0  0
   -1.5494    1.6210   -2.9300 H   0  0  0  0  0  0  0  0  0  0  0  0
    0.5856    2.1926   -3.3512 H   0  0  0  0  0  0  0  0  0  0  0  0
    1.1616    0.4535   -3.1986 H   0  0  0  0  0  0  0  0  0  0  0  0
    0.0751    0.9516   -4.5671 H   0  0  0  0  0  0  0  0  0  0  0  0
   -1.8723   -0.0444   -4.3549 H   0  0  0  0  0  0  0  0  0  0  0  0
   -0.5984   -1.0915   -3.7967 H   0  0  0  0  0  0  0  0  0  0  0  0
   -2.2537   -0.9781   -2.9410 H   0  0  0  0  0  0  0  0  0  0  0  0
    3.4749    0.2999    1.6622 H   0  0  0  0  0  0  0  0  0  0  0  0
   -0.7369   -1.8643    2.9959 H   0  0  0  0  0  0  0  0  0  0  0  0
   -1.3184   -3.2936    2.0925 H   0  0  0  0  0  0  0  0  0  0  0  0
   -2.5437   -0.5548    2.0017 H   0  0  0  0  0  0  0  0  0  0  0  0
   -3.0185   -2.2200   -0.3721 H   0  0  0  0  0  0  0  0  0  0  0  0
   -4.1902   -1.5424    0.8746 H   0  0  0  0  0  0  0  0  0  0  0  0
   -2.7182   -4.1690    0.9739 H   0  0  0  0  0  0  0  0  0  0  0  0
   -4.4252   -3.7716    0.7824 H   0  0  0  0  0  0  0  0  0  0  0  0
   -3.5959   -4.4680    3.1191 H   0  0  0  0  0  0  0  0  0  0  0  0
   -4.7837   -3.0971    2.9879 H   0  0  0  0  0  0  0  0  0  0  0  0
   -3.1259   -1.5727    3.8053 H   0  0  0  0  0  0  0  0  0  0  0  0
   -2.2874   -3.0598    4.3191 H   0  0  0  0  0  0  0  0  0  0  0  0
   -0.2178   -5.6984   -0.5735 H   0  0  0  0  0  0  0  0  0  0  0  0
   -0.8919   -4.2934   -1.4361 H   0  0  0  0  0  0  0  0  0  0  0  0
    0.2219   -4.1345    0.9651 H   0  0  0  0  0  0  0  0  0  0  0  0
    1.6951   -4.3528    0.1100 H   0  0  0  0  0  0  0  0  0  0  0  0
    1.8354   -2.1433    0.0032 H   0  0  0  0  0  0  0  0  0  0  0  0
    0.1441   -2.8373   -2.3864 H   0  0  0  0  0  0  0  0  0  0  0  0
    1.4786   -1.7017   -2.3550 H   0  0  0  0  0  0  0  0  0  0  0  0
    2.4611   -3.7163   -3.1586 H   0  0  0  0  0  0  0  0  0  0  0  0
    2.8081   -3.8652   -1.4048 H   0  0  0  0  0  0  0  0  0  0  0  0
    1.6681   -5.9210   -1.9284 H   0  0  0  0  0  0  0  0  0  0  0  0
   -0.9509   -1.7881   -1.2092 H   0  0  0  0  0  0  0  0  0  0  0  0
   -4.0272    2.9585   -0.1825 H   0  0  0  0  0  0  0  0  0  0  0  0
   -5.9068    2.1901    1.3130 H   0  0  0  0  0  0  0  0  0  0  0  0
   -5.1284    3.1591    2.6687 H   0  0  0  0  0  0  0  0  0  0  0  0
   -6.0643    4.1459   -0.0545 H   0  0  0  0  0  0  0  0  0  0  0  0
   -6.7762    4.5278    1.5115 H   0  0  0  0  0  0  0  0  0  0  0  0
   -4.6050    5.8579    0.0967 H   0  0  0  0  0  0  0  0  0  0  0  0
   -5.3134    6.2648    1.6621 H   0  0  0  0  0  0  0  0  0  0  0  0
   -2.8607    5.9702    1.6659 H   0  0  0  0  0  0  0  0  0  0  0  0
   -3.7557    5.0281    2.9335 H   0  0  0  0  0  0  0  0  0  0  0  0
   -2.1839    3.4951    2.1167 H   0  0  0  0  0  0  0  0  0  0  0  0
   -2.2207    4.1729    0.4862 H   0  0  0  0  0  0  0  0  0  0  0  0
   10.1148    1.3262   -0.3583 H   0  0  0  0  0  0  0  0  0  0  0  0
    8.2943    2.9623   -0.3302 H   0  0  0  0  0  0  0  0  0  0  0  0
    6.2231   -0.0578    1.8682 H   0  0  0  0  0  0  0  0  0  0  0  0
    8.2840    0.7086    1.4905 H   0  0  0  0  0  0  0  0  0  0  0  0
    7.1616    0.9701   -1.3677 H   0  0  0  0  0  0  0  0  0  0  0  0
    7.0669   -0.4960   -0.3204 H   0  0  0  0  0  0  0  0  0  0  0  0
    5.9309    2.3103    0.3724 H   0  0  0  0  0  0  0  0  0  0  0  0
    4.4233   -0.2287   -0.2662 H   0  0  0  0  0  0  0  0  0  0  0  0
    4.6539    1.0307   -1.5076 H   0  0  0  0  0  0  0  0  0  0  0  0
    3.7608    2.7743    0.2900 H   0  0  0  0  0  0  0  0  0  0  0  0
    1.4532    2.1905    0.1672 H   0  0  0  0  0  0  0  0  0  0  0  0
    2.2121    1.8941   -1.4955 H   0  0  0  0  0  0  0  0  0  0  0  0
    1.6720   -0.0406    0.7988 H   0  0  0  0  0  0  0  0  0  0  0  0
    2.5687   -0.4752   -0.7462 H   0  0  0  0  0  0  0  0  0  0  0  0
   -0.2054   -0.5013    1.3824 H   0  0  0  0  0  0  0  0  0  0  0  0
   -0.9285    1.3220    0.6427 H   0  0  0  0  0  0  0  0  0  0  0  0
   -2.6473    2.0298   -0.7861 H   0  0  0  0  0  0  0  0  0  0  0  0
   -2.5186    1.5882    1.7020 H   0  0  0  0  0  0  0  0  0  0  0  0
   -4.4045    0.9066   -1.2468 H   0  0  0  0  0  0  0  0  0  0  0  0
    0.0857    1.7094   -1.1817 H   0  0  0  0  0  0  0  0  0  0  0  0
   -1.5494    1.6210   -2.9300 H   0  0  0  0  0  0  0  0  0  0  0  0
    0.5856    2.1926   -3.3512 H   0  0  0  0  0  0  0  0  0  0  0  0
    1.1616    0.4535   -3.1986 H   0  0  0  0  0  0  0  0  0  0  0  0
    0.0751    0.9516   -4.5671 H   0  0  0  0  0  0  0  0  0  0  0  0
   -1.8723   -0.0444   -4.3549 H   0  0  0  0  0  0  0  0  0  0  0  0
   -0.5984   -1.0915   -3.7967 H   0  0  0  0  0  0  0  0  0  0  0  0
   -2.2537   -0.9781   -2.9410 H   0  0  0  0  0  0  0  0  0  0  0  0
    3.4749    0.2999    1.6622 H   0  0  0  0  0  0  0  0  0  0  0  0
   -0.7369   -1.8643    2.9959 H   0  0  0  0  0  0  0  0  0  0  0  0
   -1.3184   -3.2936    2.0925 H   0  0  0  0  0  0  0  0  0  0  0  0
   -2.5437   -0.5548    2.0017 H   0  0  0  0  0  0  0  0  0  0  0  0
   -3.0185   -2.2200   -0.3721 H   0  0  0  0  0  0  0  0  0  0  0  0
   -4.1902   -1.5424    0.8746 H   0  0  0  0  0  0  0  0  0  0  0  0
   -2.7182   -4.1690    0.9739 H   0  0  0  0  0  0  0  0  0  0  0  0
   -4.4252   -3.7716    0.7824 H   0  0  0  0  0  0  0  0  0  0  0  0
   -3.5959   -4.4680    3.1191 H   0  0  0  0  0  0  0  0  0  0  0  0
   -4.7837   -3.0971    2.9879 H   0  0  0  0  0  0  0  0  0  0  0  0
   -3.1259   -1.5727    3.8053 H   0  0  0  0  0  0  0  0  0  0  0  0
   -2.2874   -3.0598    4.3191 H   0  0  0  0  0  0  0  0  0  0  0  0
   -0.2178   -5.6984   -0.5735 H   0  0  0  0  0  0  0  0  0  0  0  0
   -0.8919   -4.2934   -1.4361 H   0  0  0  0  0  0  0  0  0  0  0  0
    0.2219   -4.1345    0.9651 H   0  0  0  0  0  0  0  0  0  0  0  0
    1.6951   -4.3528    0.1100 H   0  0  0  0  0  0  0  0  0  0  0  0
    1.8354   -2.1433    0.0032 H   0  0  0  0  0  0  0  0  0  0  0  0
    0.1441   -2.8373   -2.3864 H   0  0  0  0  0  0  0  0  0  0  0  0
    1.4786   -1.7017   -2.3550 H   0  0  0  0  0  0  0  0  0  0  0  0
    2.4611   -3.7163   -3.1586 H   0  0  0  0  0  0  0  0  0  0  0  0
    2.8081   -3.8652   -1.4048 H   0  0  0  0  0  0  0  0  0  0  0  0
    1.6681   -5.9210   -1.9284 H   0  0  0  0  0  0  0  0  0  0  0  0
   -0.9509   -1.7881   -1.2092 H   0  0  0  0  0  0  0  0  0  0  0  0
   -4.0272    2.9585   -0.1825 H   0  0  0  0  0  0  0  0  0  0  0  0
   -5.9068    2.1901    1.3130 H   0  0  0  0  0  0  0  0  0  0  0  0
   -5.1284    3.1591    2.6687 H   0  0  0  0  0  0  0  0  0  0  0  0
   -6.0643    4.1459   -0.0545 H   0  0  0  0  0  0  0  0  0  0  0  0
   -6.7762    4.5278    1.5115 H   0  0  0  0  0  0  0  0  0  0  0  0
   -4.6050    5.8579    0.0967 H   0  0  0  0  0  0  0  0  0  0  0  0
   -5.3134    6.2648    1.6621 H   0  0  0  0  0  0  0  0  0  0  0  0
   -2.8607    5.9702    1.6659 H   0  0  0  0  0  0  0  0  0  0  0  0
   -3.7557    5.0281    2.9335 H   0  0  0  0  0  0  0  0  0  0  0  0
   -2.1839    3.4951    2.1167 H   0  0  0  0  0  0  0  0  0  0  0  0
   -2.2207    4.1729    0.4862 H   0  0  0  0  0  0  0  0  0  0  0  0
   10.1148    1.3262   -0.3583 H   0  0  0  0  0  0  0  0  0  0  0  0
    8.2943    2.9623   -0.3302 H   0  0  0  0  0  0  0  0  0  0  0  0
    6.2231   -0.0578    1.8682 H   0  0  0  0  0  0  0  0  0  0  0  0
    8.2840    0.7086    1.4905 H   0  0  0  0  0  0  0  0  0  0  0  0
    7.1616    0.9701   -1.3677 H   0  0  0  0  0  0  0  0  0  0  0  0
    7.0669   -0.4960   -0.3204 H   0  0  0  0  0  0  0  0  0  0  0  0
    5.9309    2.3103    0.3724 H   0  0  0  0  0  0  0  0  0  0  0  0
    4.4233   -0.2287   -0.2662 H   0  0  0  0  0  0  0  0  0  0  0  0
    4.6539    1.0307   -1.5076 H   0  0  0  0  0  0  0  0  0  0  0  0
    3.7608    2.7743    0.2900 H   0  0  0  0  0  0  0  0  0  0  0  0
    1.4532    2.1905    0.1672 H   0  0  0  0  0  0  0  0  0  0  0  0
    2.2121    1.8941   -1.4955 H   0  0  0  0  0  0  0  0  0  0  0  0
    1.6720   -0.0406    0.7988 H   0  0  0  0  0  0  0  0  0  0  0  0
    2.5687   -0.4752   -0.7462 H   0  0  0  0  0  0  0  0  0  0  0  0
   -0.2054   -0.5013    1.3824 H   0  0  0  0  0  0  0  0  0  0  0  0
   -0.9285    1.3220    0.6427 H   0  0  0  0  0  0  0  0  0  0  0  0
   -2.6473    2.0298   -0.7861 H   0  0  0  0  0  0  0  0  0  0  0  0
   -2.5186    1.5882    1.7020 H   0  0  0  0  0  0  0  0  0  0  0  0
   -4.4045    0.9066   -1.2468 H   0  0  0  0  0  0  0  0  0  0  0  0
    0.0857    1.7094   -1.1817 H   0  0  0  0  0  0  0  0  0  0  0  0
   -1.5494    1.6210   -2.9300 H   0  0  0  0  0  0  0  0  0  0  0  0
    0.5856    2.1926   -3.3512 H   0  0  0  0  0  0  0  0  0  0  0  0
    1.1616    0.4535   -3.1986 H   0  0  0  0  0  0  0  0  0  0  0  0
    0.0751    0.9516   -4.5671 H   0  0  0  0  0  0  0  0  0  0  0  0
   -1.8723   -0.0444   -4.3549 H   0  0  0  0  0  0  0  0  0  0  0  0
   -0.5984   -1.0915   -3.7967 H   0  0  0  0  0  0  0  0  0  0  0  0
   -2.2537   -0.9781   -2.9410 H   0  0  0  0  0  0  0  0  0  0  0  0
    3.4749    0.2999    1.6622 H   0  0  0  0  0  0  0  0  0  0  0  0
   -0.7369   -1.8643    2.9959 H   0  0  0  0  0  0  0  0  0  0  0  0
   -1.3184   -3.2936    2.0925 H   0  0  0  0  0  0  0  0  0  0  0  0
   -2.5437   -0.5548    2.0017 H   0  0  0  0  0  0  0  0  0  0  0  0
   -3.0185   -2.2200   -0.3721 H   0  0  0  0  0  0  0  0  0  0  0  0
   -4.1902   -1.5424    0.8746 H   0  0  0  0  0  0  0  0  0  0  0  0
   -2.7182   -4.1690    0.9739 H   0  0  0  0  0  0  0  0  0  0  0  0
   -4.4252   -3.7716    0.7824 H   0  0  0  0  0  0  0  0  0  0  0  0
   -3.5959   -4.4680    3.1191 H   0  0  0  0  0  0  0  0  0  0  0  0
   -4.7837   -3.0971    2.9879 H   0  0  0  0  0  0  0  0  0  0  0  0
   -3.1259   -1.5727    3.8053 H   0  0  0  0  0  0  0  0  0  0  0  0
   -2.2874   -3.0598    4.3191 H   0  0  0  0  0  0  0  0  0  0  0  0
   -0.2178   -5.6984   -0.5735 H   0  0  0  0  0  0  0  0  0  0  0  0
   -0.8919   -4.2934   -1.4361 H   0  0  0  0  0  0  0  0  0  0  0  0
    0.2219   -4.1345    0.9651 H   0  0  0  0  0  0  0  0  0  0  0  0
    1.6951   -4.3528    0.1100 H   0  0  0  0  0  0  0  0  0  0  0  0
    1.8354   -2.1433    0.0032 H   0  0  0  0  0  0  0  0  0  0  0  0
    0.1441   -2.8373   -2.3864 H   0  0  0  0  0  0  0  0  0  0  0  0
    1.4786   -1.7017   -2.3550 H   0  0  0  0  0  0  0  0  0  0  0  0
    2.4611   -3.7163   -3.1586 H   0  0  0  0  0  0  0  0  0  0  0  0
    2.8081   -3.8652   -1.4048 H   0  0  0  0  0  0  0  0  0  0  0  0
    1.6681   -5.9210   -1.9284 H   0  0  0  0  0  0  0  0  0  0  0  0
   -0.9509   -1.7881   -1.2092 H   0  0  0  0  0  0  0  0  0  0  0  0
   -4.0272    2.9585   -0.1825 H   0  0  0  0  0  0  0  0  0  0  0  0
   -5.9068    2.1901    1.3130 H   0  0  0  0  0  0  0  0  0  0  0  0
   -5.1284    3.1591    2.6687 H   0  0  0  0  0  0  0  0  0  0  0  0
   -6.0643    4.1459   -0.0545 H   0  0  0  0  0  0  0  0  0  0  0  0
   -6.7762    4.5278    1.5115 H   0  0  0  0  0  0  0  0  0  0  0  0
   -4.6050    5.8579    0.0967 H   0  0  0  0  0  0  0  0  0  0  0  0
   -5.3134    6.2648    1.6621 H   0  0  0  0  0  0  0  0  0  0  0  0
   -2.8607    5.9702    1.6659 H   0  0  0  0  0  0  0  0  0  0  0  0
   -3.7557    5.0281    2.9335 H   0  0  0  0  0  0  0  0  0  0  0  0
   -2.1839    3.4951    2.1167 H   0  0  0  0  0  0  0  0  0  0  0  0
   -2.2207    4.1729    0.4862 H   0  0  0  0  0  0  0  0  0  0  0  0
   10.1148    1.3262   -0.3583 H   0  0  0  0  0  0  0  0  0  0  0  0
    8.2943    2.9623   -0.3302 H   0  0  0  0  0  0  0  0  0  0  0  0
    6.2231   -0.0578    1.8682 H   0  0  0  0  0  0  0  0  0  0  0  0
    8.2840    0.7086    1.4905 H   0  0  0  0  0  0  0  0  0  0  0  0
    7.1616    0.9701   -1.3677 H   0  0  0  0  0  0  0  0  0  0  0  0
    7.0669   -0.4960   -0.3204 H   0  0  0  0  0  0  0  0  0  0  0  0
    5.9309    2.3103    0.3724 H   0  0  0  0  0  0  0  0  0  0  0  0
    4.4233   -0.2287   -0.2662 H   0  0  0  0  0  0  0  0  0  0  0  0
    4.6539    1.0307   -1.5076 H   0  0  0  0  0  0  0  0  0  0  0  0
    3.7608    2.7743    0.2900 H   0  0  0  0  0  0  0  0  0  0  0  0
    1.4532    2.1905    0.1672 H   0  0  0  0  0  0  0  0  0  0  0  0
    2.2121    1.8941   -1.4955 H   0  0  0  0  0  0  0  0  0  0  0  0
    1.6720   -0.0406    0.7988 H   0  0  0  0  0  0  0  0  0  0  0  0
    2.5687   -0.4752   -0.7462 H   0  0  0  0  0  0  0  0  0  0  0  0
   -0.2054   -0.5013    1.3824 H   0  0  0  0  0  0  0  0  0  0  0  0
   -0.9285    1.3220    0.6427 H   0  0  0  0  0  0  0  0  0  0  0  0
   -2.6473    2.0298   -0.7861 H   0  0  0  0  0  0  0  0  0  0  0  0
   -2.5186    1.5882    1.7020 H   0  0  0  0  0  0  0  0  0  0  0  0
   -4.4045    0.9066   -1.2468 H   0  0  0  0  0  0  0  0  0  0  0  0
    0.0857    1.7094   -1.1817 H   0  0  0  0  0  0  0  0  0  0  0  0
   -1.5494    1.6210   -2.9300 H   0  0  0  0  0  0  0  0  0  0  0  0
    0.5856    2.1926   -3.3512 H   0  0  0  0  0  0  0  0  0  0  0  0
    1.1616    0.4535   -3.1986 H   0  0  0  0  0  0  0  0  0  0  0  0
    0.0751    0.9516   -4.5671 H   0  0  0  0  0  0  0  0  0  0  0  0
   -1.8723   -0.0444   -4.3549 H   0  0  0  0  0  0  0  0  0  0  0  0
   -0.5984   -1.0915   -3.7967 H   0  0  0  0  0  0  0  0  0  0  0  0
   -2.2537   -0.9781   -2.9410 H   0  0  0  0  0  0  0  0  0  0  0  0
    3.4749    0.2999    1.6622 H   0  0  0  0  0  0  0  0  0  0  0  0
  1  2  1  0
  2  3  1  0
  3  4  1  0
  4  5  1  0
  1  6  1  0
  5  6  1  0
  7  8  1  0
  8  9  1  0
  9 10  1  0
 10 11  1  0
  7 12  1  0
 11 12  1  0
 12 13  1  0
  9 14  1  0
 15 16  1  0
 16 17  1  0
 17 18  1  0
 18 19  1  0
 15 20  1  0
 19 20  1  0
 21 24  1  0
 22 24  1  0
 24 25  1  0
 23 26  1  0
 25 26  1  0
 26 27  1  0
 27 28  1  0
 28 29  1  0
 29 30  1  0
 14 31  1  0
 30 31  1  0
  2 32  1  0
 14 32  1  0
 32 33  1  0
 33 34  1  0
 15 35  1  0
 34 35  1  0
 34 36  1  0
 31 37  1  0
 33 37  1  0
 37 38  1  0
 38 39  1  0
 38 40  1  0
 28 41  1  0
 42 43  1  0
 43 44  1  0
 44 45  1  0
 45 46  1  0
 42 47  1  0
 46 47  1  0
 48 49  1  0
 49 50  1  0
 50 51  1  0
 51 52  1  0
 48 53  1  0
 52 53  1  0
 53 54  1  0
 50 55  1  0
 56 57  1  0
 57 58  1  0
 58 59  1  0
 59 60  1  0
 56 61  1  0
 60 61  1  0
 62 65  1  0
 63 65  1  0
 65 66  1  0
 64 67  1  0
 66 67  1  0
 67 68  1  0
 68 69  1  0
 69 70  1  0
 70 71  1  0
 55 72  1  0
 71 72  1  0
 43 73  1  0
 55 73  1  0
 73 74  1  0
 74 75  1  0
 56 76  1  0
 75 76  1  0
 75 77  1  0
 72 78  1  0
 74 78  1  0
 78 79  1  0
 79 80  1  0
 79 81  1  0
 69 82  1  0
 83 84  1  0
 84 85  1  0
 85 86  1  0
 86 87  1  0
 83 88  1  0
 87 88  1  0
 89 90  1  0
 90 91  1  0
 91 92  1  0
 92 93  1  0
 89 94  1  0
 93 94  1  0
 94 95  1  0
 91 96  1  0
 97 98  1  0
 98 99  1  0
 99100  1  0
100101  1  0
 97102  1  0
101102  1  0
103106  1  0
104106  1  0
106107  1  0
105108  1  0
107108  1  0
108109  1  0
109110  1  0
110111  1  0
111112  1  0
 96113  1  0
112113  1  0
 84114  1  0
 96114  1  0
114115  1  0
115116  1  0
 97117  1  0
116117  1  0
116118  1  0
113119  1  0
115119  1  0
119120  1  0
120121  1  0
120122  1  0
110123  1  0
124125  1  0
125126  1  0
126127  1  0
127128  1  0
124129  1  0
128129  1  0
130131  1  0
131132  1  0
132133  1  0
133134  1  0
130135  1  0
134135  1  0
135136  1  0
132137  1  0
138139  1  0
139140  1  0
140141  1  0
141142  1  0
138143  1  0
142143  1  0
144147  1  0
145147  1  0
147148  1  0
146149  1  0
148149  1  0
149150  1  0
150151  1  0
151152  1  0
152153  1  0
137154  1  0
153154  1  0
125155  1  0
137155  1  0
155156  1  0
156157  1  0
138158  1  0
157158  1  0
157159  1  0
154160  1  0
156160  1  0
160161  1  0
161162  1  0
161163  1  0
151164  1  0
  1165  1  0
  1166  1  0
  2167  1  0
  3168  1  0
  3169  1  0
  4170  1  0
  4171  1  0
  5172  1  0
  5173  1  0
  6174  1  0
  6175  1  0
  7176  1  0
  7177  1  0
  8178  1  0
  8179  1  0
  9180  1  0
 10181  1  0
 10182  1  0
 11183  1  0
 11184  1  0
 12185  1  0
 14186  1  0
 15187  1  0
 16188  1  0
 16189  1  0
 17190  1  0
 17191  1  0
 18192  1  0
 18193  1  0
 19194  1  0
 19195  1  0
 20196  1  0
 20197  1  0
 21198  1  0
 22199  1  0
 23200  1  0
 24201  1  0
 25202  1  0
 25203  1  0
 26204  1  1
 27205  1  0
 27206  1  0
 28207  1  1
 29208  1  0
 29209  1  0
 30210  1  0
 30211  1  0
 32212  1  0
 33213  1  0
 34214  1  0
 35215  1  0
 36216  1  0
 37217  1  0
 38218  1  0
 39219  1  0
 39220  1  0
 39221  1  0
 40222  1  0
 40223  1  0
 40224  1  0
 41225  1  0
 42226  1  0
 42227  1  0
 43228  1  0
 44229  1  0
 44230  1  0
 45231  1  0
 45232  1  0
 46233  1  0
 46234  1  0
 47235  1  0
 47236  1  0
 48237  1  0
 48238  1  0
 49239  1  0
 49240  1  0
 50241  1  0
 51242  1  0
 51243  1  0
 52244  1  0
 52245  1  0
 53246  1  0
 55247  1  0
 56248  1  0
 57249  1  0
 57250  1  0
 58251  1  0
 58252  1  0
 59253  1  0
 59254  1  0
 60255  1  0
 60256  1  0
 61257  1  0
 61258  1  0
 62259  1  0
 63260  1  0
 64261  1  0
 65262  1  0
 66263  1  0
 66264  1  0
 67265  1  1
 68266  1  0
 68267  1  0
 69268  1  1
 70269  1  0
 70270  1  0
 71271  1  0
 71272  1  0
 73273  1  0
 74274  1  0
 75275  1  0
 76276  1  0
 77277  1  0
 78278  1  0
 79279  1  0
 80280  1  0
 80281  1  0
 80282  1  0
 81283  1  0
 81284  1  0
 81285  1  0
 82286  1  0
 83287  1  0
 83288  1  0
 84289  1  0
 85290  1  0
 85291  1  0
 86292  1  0
 86293  1  0
 87294  1  0
 87295  1  0
 88296  1  0
 88297  1  0
 89298  1  0
 89299  1  0
 90300  1  0
 90301  1  0
 91302  1  0
 92303  1  0
 92304  1  0
 93305  1  0
 93306  1  0
 94307  1  0
 96308  1  0
 97309  1  0
 98310  1  0
 98311  1  0
 99312  1  0
 99313  1  0
100314  1  0
100315  1  0
101316  1  0
101317  1  0
102318  1  0
102319  1  0
103320  1  0
104321  1  0
105322  1  0
106323  1  0
107324  1  0
107325  1  0
108326  1  1
109327  1  0
109328  1  0
110329  1  1
111330  1  0
111331  1  0
112332  1  0
112333  1  0
114334  1  0
115335  1  0
116336  1  0
117337  1  0
118338  1  0
119339  1  0
120340  1  0
121341  1  0
121342  1  0
121343  1  0
122344  1  0
122345  1  0
122346  1  0
123347  1  0
124348  1  0
124349  1  0
125350  1  0
126351  1  0
126352  1  0
127353  1  0
127354  1  0
128355  1  0
128356  1  0
129357  1  0
129358  1  0
130359  1  0
130360  1  0
131361  1  0
131362  1  0
132363  1  0
133364  1  0
133365  1  0
134366  1  0
134367  1  0
135368  1  0
137369  1  0
138370  1  0
139371  1  0
139372  1  0
140373  1  0
140374  1  0
141375  1  0
141376  1  0
142377  1  0
142378  1  0
143379  1  0
143380  1  0
144381  1  0
145382  1  0
146383  1  0
147384  1  0
148385  1  0
148386  1  0
149387  1  1
150388  1  0
150389  1  0
151390  1  1
152391  1  0
152392  1  0
153393  1  0
153394  1  0
155395  1  0
156396  1  0
157397  1  0
158398  1  0
159399  1  0
160400  1  0
161401  1  0
162402  1  0
162403  1  0
162404  1  0
163405  1  0
163406  1  0
163407  1  0
164408  1  0
M  END
>  <PDBID>  (1) 
1HWK

>  <PDB ID>  (1) 
1HWK

>  <Generic Name>  (1) 
Atorvastatin

>  <Brand Name>  (1) 
Ach-atorvastatin Calcium#Act Atorvastatin#Amlodipine Besylate and Atorvastatin Calcium#Amlodipine Besylate/atorvastatin Calcium#Apo-amlodipine-atorvastatin#Apo-atorvastatin#Atorvastatin#Atorvastatin Calcium#Atorvastatin-10#Atorvastatin-20#Atorvastatin-40#Atorvastatin-80#Auro-atorvastatin#Ava-atorvastatin#Caduet#Dom-atorvastatin#Gd-amlodipine/atorvastatin#Gd-atorvastatin#Jamp-atorvastatin#Lipitor#Liptruzet#Mar-atorvastatin#Mylan-amlodipine/atorvastatin#Mylan-atorvastatin#Novo-atorvastatin#Ntp-atorvastatin#PMS-amlodipine-atorvastatin#PMS-atorvastatin#Pendo-amlodipine-atorvastatin#Q-gen Atorvastatin#Ran-atorvastatin#Ratio-atorvastatin#Rbx-atorvastatin#Reddy-atorvastatin#Riva-atorvastatin#Sandoz Atorvastatin#Atogal#Cardyl#Faboxim#Hipolixan#Lipotropic#Liprimar#Lowden#Normalip#Sincol#Sortis#Torvacard#Torvast#Totalip#Tulip#Vastina#Xanator#Xarator#Zurinel

>  <DrugBank ID>  (1) 
DB01076

>  <ATC Codes>  (1) 
C10AA05#C10BA05#C10BX06#C10BX11#C10BX03#C10BX08

>  <Ligand ID>  (1) 
117

>  <Target Name>  (1) 
3-hydroxy-3-methylglutaryl-coenzyme A reductase

>  <UniProt ID>  (1) 
P04035

>  <PDB ID.1>  (1) 
1HWK

>  <Seq. Identity>  (1) 
97%

$$$$
