PDB_DB00563_07
     RDKit          3D

 77 79  0  0  0  0  0  0  0  0999 V2000
   -7.4118    0.1367    1.7603 N   0  0  0  0  0  0  0  0  0  0  0  0
   -8.3262   -0.4238    0.8155 C   0  0  0  0  0  0  0  0  0  0  0  0
   -8.3918   -1.8793    0.8736 N   0  0  0  0  0  0  0  0  0  0  0  0
   -8.0275   -0.0685   -0.5650 N   0  0  0  0  0  0  0  0  0  0  0  0
   -6.7224   -0.5250   -0.9691 C   0  0  2  0  0  0  0  0  0  0  0  0
   -6.8014   -1.8785   -1.5228 N   0  0  0  0  0  0  0  0  0  0  0  0
   -5.7556   -0.4981    0.1730 C   0  0  0  0  0  0  0  0  0  0  0  0
   -4.4245   -0.2073   -0.3884 N   0  0  0  0  0  0  0  0  0  0  0  0
   -3.5457   -0.1237    0.7620 C   0  0  0  0  0  0  0  0  0  0  0  0
   -3.9061    1.0942    1.5312 C   0  0  0  0  0  0  0  0  0  0  0  0
   -5.1947    0.8136    2.1886 N   0  0  0  0  0  0  0  0  0  0  0  0
   -6.1630    0.5829    1.1418 C   0  0  0  0  0  0  0  0  0  0  0  0
   -2.1049   -0.3263    0.4778 C   0  0  0  0  0  0  0  0  0  0  0  0
   -1.4725    0.5644   -0.4219 N   0  0  0  0  0  0  0  0  0  0  0  0
   -1.9049    0.4628   -1.7955 C   0  0  0  0  0  0  0  0  0  0  0  0
    2.8122    1.1765   -0.3058 C   0  0  0  0  0  0  0  0  0  0  0  0
    2.1344    0.1591    0.5636 C   0  0  0  0  0  0  0  0  0  0  0  0
    0.6673    0.5336    0.8512 C   0  0  0  0  0  0  0  0  0  0  0  0
   -0.0477    0.3142   -0.4245 C   0  0  0  0  0  0  0  0  0  0  0  0
    0.5996    1.1632   -1.4928 C   0  0  0  0  0  0  0  0  0  0  0  0
    1.7542    1.9809   -1.0374 C   0  0  0  0  0  0  0  0  0  0  0  0
    3.7201    0.4497   -1.2417 C   0  0  2  0  0  0  0  0  0  0  0  0
    2.9620   -0.4461   -2.0620 O   0  0  0  0  0  0  0  0  0  0  0  0
    4.6607   -0.3809   -0.5755 N   0  0  0  0  0  0  0  0  0  0  0  0
    5.6280    0.2010    0.2664 C   0  0  2  0  0  0  0  0  0  0  0  0
    6.5583    1.1278   -0.4348 C   0  0  0  0  0  0  0  0  0  0  0  0
    7.2471    0.5788   -1.4768 O   0  0  0  0  0  0  0  0  0  0  0  0
    5.8583    2.2934   -0.8665 O   0  0  0  0  0  0  0  0  0  0  0  0
    6.1155   -0.6042    1.3972 C   0  0  0  0  0  0  0  0  0  0  0  0
    6.7142   -1.9268    1.2549 C   0  0  0  0  0  0  0  0  0  0  0  0
    7.9328   -2.0793    0.4190 C   0  0  0  0  0  0  0  0  0  0  0  0
    8.9661   -1.2750    0.8364 O   0  0  0  0  0  0  0  0  0  0  0  0
    7.7493   -2.1463   -0.9338 O   0  0  0  0  0  0  0  0  0  0  0  0
   -7.8427    0.9075    2.3195 H   0  0  0  0  0  0  0  0  0  0  0  0
   -9.3840   -0.0792    0.9840 H   0  0  0  0  0  0  0  0  0  0  0  0
   -9.0059   -2.1961    1.6553 H   0  0  0  0  0  0  0  0  0  0  0  0
   -8.7821   -2.2126   -0.0347 H   0  0  0  0  0  0  0  0  0  0  0  0
   -8.1198    0.9689   -0.7004 H   0  0  0  0  0  0  0  0  0  0  0  0
   -6.4102    0.1240   -1.8216 H   0  0  0  0  0  0  0  0  0  0  0  0
   -6.5353   -2.5772   -0.8106 H   0  0  0  0  0  0  0  0  0  0  0  0
   -6.1118   -1.9654   -2.3174 H   0  0  0  0  0  0  0  0  0  0  0  0
   -5.6538   -1.4937    0.6724 H   0  0  0  0  0  0  0  0  0  0  0  0
   -4.5406    0.7143   -0.8683 H   0  0  0  0  0  0  0  0  0  0  0  0
   -3.8571   -1.0024    1.4108 H   0  0  0  0  0  0  0  0  0  0  0  0
   -3.2088    1.3325    2.3540 H   0  0  0  0  0  0  0  0  0  0  0  0
   -4.1238    1.9722    0.8873 H   0  0  0  0  0  0  0  0  0  0  0  0
   -5.5177    1.6276    2.7328 H   0  0  0  0  0  0  0  0  0  0  0  0
   -6.3432    1.4999    0.5391 H   0  0  0  0  0  0  0  0  0  0  0  0
   -1.5520   -0.2651    1.4427 H   0  0  0  0  0  0  0  0  0  0  0  0
   -1.9601   -1.3676    0.1144 H   0  0  0  0  0  0  0  0  0  0  0  0
   -2.6652   -0.3271   -1.9544 H   0  0  0  0  0  0  0  0  0  0  0  0
   -1.0795    0.1853   -2.4842 H   0  0  0  0  0  0  0  0  0  0  0  0
   -2.2401    1.4679   -2.1223 H   0  0  0  0  0  0  0  0  0  0  0  0
    3.3525    1.8936    0.3308 H   0  0  0  0  0  0  0  0  0  0  0  0
    2.0595   -0.8514    0.0674 H   0  0  0  0  0  0  0  0  0  0  0  0
    2.6530   -0.0203    1.5239 H   0  0  0  0  0  0  0  0  0  0  0  0
    0.4037   -0.1538    1.6800 H   0  0  0  0  0  0  0  0  0  0  0  0
    0.6318    1.6104    1.1550 H   0  0  0  0  0  0  0  0  0  0  0  0
    0.0928   -0.7529   -0.7110 H   0  0  0  0  0  0  0  0  0  0  0  0
   -0.1715    1.8909   -1.9032 H   0  0  0  0  0  0  0  0  0  0  0  0
    0.9108    0.5535   -2.3654 H   0  0  0  0  0  0  0  0  0  0  0  0
    1.4762    2.8482   -0.4207 H   0  0  0  0  0  0  0  0  0  0  0  0
    2.2620    2.3618   -1.9658 H   0  0  0  0  0  0  0  0  0  0  0  0
    4.2003    1.1262   -1.9887 H   0  0  0  0  0  0  0  0  0  0  0  0
    3.4431   -0.5922   -2.9223 H   0  0  0  0  0  0  0  0  0  0  0  0
    4.9862   -1.1966   -1.1106 H   0  0  0  0  0  0  0  0  0  0  0  0
    4.9644    1.0348    0.8664 H   0  0  0  0  0  0  0  0  0  0  0  0
    7.2832    1.4947    0.3755 H   0  0  0  0  0  0  0  0  0  0  0  0
    7.4566    1.2307   -2.1700 H   0  0  0  0  0  0  0  0  0  0  0  0
    6.3497    2.6527   -1.6637 H   0  0  0  0  0  0  0  0  0  0  0  0
    6.8646    0.0828    1.9521 H   0  0  0  0  0  0  0  0  0  0  0  0
    5.3029   -0.6624    2.2252 H   0  0  0  0  0  0  0  0  0  0  0  0
    5.9459   -2.6967    0.8783 H   0  0  0  0  0  0  0  0  0  0  0  0
    6.9774   -2.3751    2.2777 H   0  0  0  0  0  0  0  0  0  0  0  0
    8.3342   -3.1668    0.6640 H   0  0  0  0  0  0  0  0  0  0  0  0
    8.7327   -0.6050    1.5154 H   0  0  0  0  0  0  0  0  0  0  0  0
    8.5425   -1.8647   -1.4242 H   0  0  0  0  0  0  0  0  0  0  0  0
  1  2  1  0
  2  3  1  0
  2  4  1  0
  4  5  1  0
  5  6  1  0
  5  7  1  0
  7  8  1  0
  8  9  1  0
  9 10  1  0
 10 11  1  0
  1 12  1  0
  7 12  1  0
 11 12  1  0
  9 13  1  0
 13 14  1  0
 14 15  1  0
 16 17  1  0
 17 18  1  0
 14 19  1  0
 18 19  1  0
 19 20  1  0
 16 21  1  0
 20 21  1  0
 16 22  1  0
 22 23  1  0
 22 24  1  0
 24 25  1  0
 25 26  1  0
 26 27  1  0
 26 28  1  0
 25 29  1  0
 29 30  1  0
 30 31  1  0
 31 32  1  0
 31 33  1  0
  1 34  1  0
  2 35  1  0
  3 36  1  0
  3 37  1  0
  4 38  1  0
  5 39  1  6
  6 40  1  0
  6 41  1  0
  7 42  1  0
  8 43  1  0
  9 44  1  0
 10 45  1  0
 10 46  1  0
 11 47  1  0
 12 48  1  0
 13 49  1  0
 13 50  1  0
 15 51  1  0
 15 52  1  0
 15 53  1  0
 16 54  1  0
 17 55  1  0
 17 56  1  0
 18 57  1  0
 18 58  1  0
 19 59  1  0
 20 60  1  0
 20 61  1  0
 21 62  1  0
 21 63  1  0
 22 64  1  6
 23 65  1  0
 24 66  1  0
 25 67  1  1
 26 68  1  0
 27 69  1  0
 28 70  1  0
 29 71  1  0
 29 72  1  0
 30 73  1  0
 30 74  1  0
 31 75  1  0
 32 76  1  0
 33 77  1  0
M  END
>  <PDBID>  (1) 
1U72

>  <PDB ID>  (1) 
1U72

>  <Generic Name>  (1) 
Methotrexate

>  <Brand Name>  (1) 
Apo-methotrexate#Jamp-methotrexate#Methotrexate#Methotrexate Dbl Inj 10mg/ml#Methotrexate Dbl Inj 2.5mg/ml#Methotrexate Dbl Inj 25mg/ml#Methotrexate Injection BP#Methotrexate Injection USP#Methotrexate Injection, BP#Methotrexate Injection, USP#Methotrexate PF/sa Injection#Methotrexate Sod Inj 25mg/ml USP#Methotrexate Sodium#Methotrexate Sodium Inj 20mg#Methotrexate Sodium Inj 25.0mg/ml#Methotrexate Sodium Inj 25mg/ml#Methotrexate Sodium Inj 25mg/ml USP#Methotrexate Sodium Injection#Methotrexate Sodium Injection USP#Methotrexate Tab 2.5mg#Methotrexate Tab 2.5mg USP#Methotrexate Tablets, USP#Methotrexate-liq Im IV Iar Int Ivr 25mg/ml#Methotrexate-pws Im IV Iar Int Ivr 20mg/vial#Metoject#Metoject Subcutaneous#Otrexup#Rasuvo#Ratio-methotrexate Sodium#Rheumatrex Dose Pack#Rheumatrex Tab 2.5mg#Rheumatrex-tab 2.5mg#Trexall#Abitrexate#Alltrex#Artrait#Atrexel#Bendatrexat#Carditrex#Dermotrex#Ebetrex#Emtexate#Ledertrexate#Maxtrex#Meisusheng#Mexate#Rheumatrex#Trexan#Zexate

>  <DrugBank ID>  (1) 
DB00563

>  <ATC Codes>  (1) 
L01BA01#L04AX03

>  <Ligand ID>  (1) 
MTX

>  <Target Name>  (1) 
Dihydrofolate reductase

>  <UniProt ID>  (1) 
P00374

>  <PDB ID.1>  (1) 
1U72

>  <Seq. Identity>  (1) 
100%

$$$$
