PDB_DB00293_04
     RDKit          3D

296304  0  0  0  0  0  0  0  0999 V2000
    5.9579    0.7314   -0.8041 N   0  0  0  0  0  0  0  0  0  0  0  0
    7.2534    0.8581   -0.1703 C   0  0  0  0  0  0  0  0  0  0  0  0
    7.7279    2.3031   -0.1580 C   0  0  0  0  0  0  0  0  0  0  0  0
    7.1470    0.3975    1.1939 N   0  0  0  0  0  0  0  0  0  0  0  0
    6.7796   -0.9788    1.2883 C   0  0  0  0  0  0  0  0  0  0  0  0
    7.8241   -1.7644    0.8209 O   0  0  0  0  0  0  0  0  0  0  0  0
    5.4777   -1.2760    0.5619 C   0  0  0  0  0  0  0  0  0  0  0  0
    4.3579   -0.7876    1.3973 C   0  0  0  0  0  0  0  0  0  0  0  0
    3.0117   -0.7081    0.6949 C   0  0  0  0  0  0  0  0  0  0  0  0
    3.1672   -1.3381   -0.6691 C   0  0  0  0  0  0  0  0  0  0  0  0
    4.2293   -0.7442   -1.5294 C   0  0  0  0  0  0  0  0  0  0  0  0
    5.5547   -0.6545   -0.7983 C   0  0  0  0  0  0  0  0  0  0  0  0
    2.6061    0.7162    0.6842 C   0  0  0  0  0  0  0  0  0  0  0  0
    1.3905    1.1119    0.1304 N   0  0  0  0  0  0  0  0  0  0  0  0
   -2.4776    0.3914    0.5060 C   0  0  0  0  0  0  0  0  0  0  0  0
   -1.2165    1.4312   -0.2882 S   0  0  0  0  0  0  0  0  0  0  0  0
    0.1842    0.8015    0.7486 C   0  0  0  0  0  0  0  0  0  0  0  0
   -0.2409   -0.6032    0.9044 C   0  0  0  0  0  0  0  0  0  0  0  0
   -1.7003   -0.7857    0.9396 C   0  0  0  0  0  0  0  0  0  0  0  0
   -3.6469    0.0744   -0.4225 C   0  0  0  0  0  0  0  0  0  0  0  0
   -4.2346    1.2476   -0.7952 O   0  0  0  0  0  0  0  0  0  0  0  0
   -4.4239   -0.8851    0.2056 N   0  0  0  0  0  0  0  0  0  0  0  0
   -5.7430   -1.1768    0.0395 C   0  0  1  0  0  0  0  0  0  0  0  0
   -6.8399   -0.3038    0.4712 C   0  0  0  0  0  0  0  0  0  0  0  0
   -6.9947    1.0757   -0.0174 C   0  0  0  0  0  0  0  0  0  0  0  0
   -8.3562    1.6066    0.5426 C   0  0  0  0  0  0  0  0  0  0  0  0
   -9.3742    0.7914    0.0884 O   0  0  0  0  0  0  0  0  0  0  0  0
   -8.4774    2.9113    0.0164 O   0  0  0  0  0  0  0  0  0  0  0  0
   -6.0982   -1.5971   -1.4130 C   0  0  0  0  0  0  0  0  0  0  0  0
   -5.7877   -0.5955   -2.2961 O   0  0  0  0  0  0  0  0  0  0  0  0
   -7.4867   -1.7660   -1.4126 O   0  0  0  0  0  0  0  0  0  0  0  0
    1.3507    1.4088   -1.2675 C   0  0  0  0  0  0  0  0  0  0  0  0
    5.9579    0.7314   -0.8041 N   0  0  0  0  0  0  0  0  0  0  0  0
    7.2534    0.8581   -0.1703 C   0  0  0  0  0  0  0  0  0  0  0  0
    7.7279    2.3031   -0.1580 C   0  0  0  0  0  0  0  0  0  0  0  0
    7.1470    0.3975    1.1939 N   0  0  0  0  0  0  0  0  0  0  0  0
    6.7796   -0.9788    1.2883 C   0  0  0  0  0  0  0  0  0  0  0  0
    7.8241   -1.7644    0.8209 O   0  0  0  0  0  0  0  0  0  0  0  0
    5.4777   -1.2760    0.5619 C   0  0  0  0  0  0  0  0  0  0  0  0
    4.3579   -0.7876    1.3973 C   0  0  0  0  0  0  0  0  0  0  0  0
    3.0117   -0.7081    0.6949 C   0  0  0  0  0  0  0  0  0  0  0  0
    3.1672   -1.3381   -0.6691 C   0  0  0  0  0  0  0  0  0  0  0  0
    4.2293   -0.7442   -1.5294 C   0  0  0  0  0  0  0  0  0  0  0  0
    5.5547   -0.6545   -0.7983 C   0  0  0  0  0  0  0  0  0  0  0  0
    2.6061    0.7162    0.6842 C   0  0  0  0  0  0  0  0  0  0  0  0
    1.3905    1.1119    0.1304 N   0  0  0  0  0  0  0  0  0  0  0  0
   -2.4776    0.3914    0.5060 C   0  0  0  0  0  0  0  0  0  0  0  0
   -1.2165    1.4312   -0.2882 S   0  0  0  0  0  0  0  0  0  0  0  0
    0.1842    0.8015    0.7486 C   0  0  0  0  0  0  0  0  0  0  0  0
   -0.2409   -0.6032    0.9044 C   0  0  0  0  0  0  0  0  0  0  0  0
   -1.7003   -0.7857    0.9396 C   0  0  0  0  0  0  0  0  0  0  0  0
   -3.6469    0.0744   -0.4225 C   0  0  0  0  0  0  0  0  0  0  0  0
   -4.2346    1.2476   -0.7952 O   0  0  0  0  0  0  0  0  0  0  0  0
   -4.4239   -0.8851    0.2056 N   0  0  0  0  0  0  0  0  0  0  0  0
   -5.7430   -1.1768    0.0395 C   0  0  1  0  0  0  0  0  0  0  0  0
   -6.8399   -0.3038    0.4712 C   0  0  0  0  0  0  0  0  0  0  0  0
   -6.9947    1.0757   -0.0174 C   0  0  0  0  0  0  0  0  0  0  0  0
   -8.3562    1.6066    0.5426 C   0  0  0  0  0  0  0  0  0  0  0  0
   -9.3742    0.7914    0.0884 O   0  0  0  0  0  0  0  0  0  0  0  0
   -8.4774    2.9113    0.0164 O   0  0  0  0  0  0  0  0  0  0  0  0
   -6.0982   -1.5971   -1.4130 C   0  0  0  0  0  0  0  0  0  0  0  0
   -5.7877   -0.5955   -2.2961 O   0  0  0  0  0  0  0  0  0  0  0  0
   -7.4867   -1.7660   -1.4126 O   0  0  0  0  0  0  0  0  0  0  0  0
    1.3507    1.4088   -1.2675 C   0  0  0  0  0  0  0  0  0  0  0  0
    5.9579    0.7314   -0.8041 N   0  0  0  0  0  0  0  0  0  0  0  0
    7.2534    0.8581   -0.1703 C   0  0  0  0  0  0  0  0  0  0  0  0
    7.7279    2.3031   -0.1580 C   0  0  0  0  0  0  0  0  0  0  0  0
    7.1470    0.3975    1.1939 N   0  0  0  0  0  0  0  0  0  0  0  0
    6.7796   -0.9788    1.2883 C   0  0  0  0  0  0  0  0  0  0  0  0
    7.8241   -1.7644    0.8209 O   0  0  0  0  0  0  0  0  0  0  0  0
    5.4777   -1.2760    0.5619 C   0  0  0  0  0  0  0  0  0  0  0  0
    4.3579   -0.7876    1.3973 C   0  0  0  0  0  0  0  0  0  0  0  0
    3.0117   -0.7081    0.6949 C   0  0  0  0  0  0  0  0  0  0  0  0
    3.1672   -1.3381   -0.6691 C   0  0  0  0  0  0  0  0  0  0  0  0
    4.2293   -0.7442   -1.5294 C   0  0  0  0  0  0  0  0  0  0  0  0
    5.5547   -0.6545   -0.7983 C   0  0  0  0  0  0  0  0  0  0  0  0
    2.6061    0.7162    0.6842 C   0  0  0  0  0  0  0  0  0  0  0  0
    1.3905    1.1119    0.1304 N   0  0  0  0  0  0  0  0  0  0  0  0
   -2.4776    0.3914    0.5060 C   0  0  0  0  0  0  0  0  0  0  0  0
   -1.2165    1.4312   -0.2882 S   0  0  0  0  0  0  0  0  0  0  0  0
    0.1842    0.8015    0.7486 C   0  0  0  0  0  0  0  0  0  0  0  0
   -0.2409   -0.6032    0.9044 C   0  0  0  0  0  0  0  0  0  0  0  0
   -1.7003   -0.7857    0.9396 C   0  0  0  0  0  0  0  0  0  0  0  0
   -3.6469    0.0744   -0.4225 C   0  0  0  0  0  0  0  0  0  0  0  0
   -4.2346    1.2476   -0.7952 O   0  0  0  0  0  0  0  0  0  0  0  0
   -4.4239   -0.8851    0.2056 N   0  0  0  0  0  0  0  0  0  0  0  0
   -5.7430   -1.1768    0.0395 C   0  0  1  0  0  0  0  0  0  0  0  0
   -6.8399   -0.3038    0.4712 C   0  0  0  0  0  0  0  0  0  0  0  0
   -6.9947    1.0757   -0.0174 C   0  0  0  0  0  0  0  0  0  0  0  0
   -8.3562    1.6066    0.5426 C   0  0  0  0  0  0  0  0  0  0  0  0
   -9.3742    0.7914    0.0884 O   0  0  0  0  0  0  0  0  0  0  0  0
   -8.4774    2.9113    0.0164 O   0  0  0  0  0  0  0  0  0  0  0  0
   -6.0982   -1.5971   -1.4130 C   0  0  0  0  0  0  0  0  0  0  0  0
   -5.7877   -0.5955   -2.2961 O   0  0  0  0  0  0  0  0  0  0  0  0
   -7.4867   -1.7660   -1.4126 O   0  0  0  0  0  0  0  0  0  0  0  0
    1.3507    1.4088   -1.2675 C   0  0  0  0  0  0  0  0  0  0  0  0
    5.9579    0.7314   -0.8041 N   0  0  0  0  0  0  0  0  0  0  0  0
    7.2534    0.8581   -0.1703 C   0  0  0  0  0  0  0  0  0  0  0  0
    7.7279    2.3031   -0.1580 C   0  0  0  0  0  0  0  0  0  0  0  0
    7.1470    0.3975    1.1939 N   0  0  0  0  0  0  0  0  0  0  0  0
    6.7796   -0.9788    1.2883 C   0  0  0  0  0  0  0  0  0  0  0  0
    7.8241   -1.7644    0.8209 O   0  0  0  0  0  0  0  0  0  0  0  0
    5.4777   -1.2760    0.5619 C   0  0  0  0  0  0  0  0  0  0  0  0
    4.3579   -0.7876    1.3973 C   0  0  0  0  0  0  0  0  0  0  0  0
    3.0117   -0.7081    0.6949 C   0  0  0  0  0  0  0  0  0  0  0  0
    3.1672   -1.3381   -0.6691 C   0  0  0  0  0  0  0  0  0  0  0  0
    4.2293   -0.7442   -1.5294 C   0  0  0  0  0  0  0  0  0  0  0  0
    5.5547   -0.6545   -0.7983 C   0  0  0  0  0  0  0  0  0  0  0  0
    2.6061    0.7162    0.6842 C   0  0  0  0  0  0  0  0  0  0  0  0
    1.3905    1.1119    0.1304 N   0  0  0  0  0  0  0  0  0  0  0  0
   -2.4776    0.3914    0.5060 C   0  0  0  0  0  0  0  0  0  0  0  0
   -1.2165    1.4312   -0.2882 S   0  0  0  0  0  0  0  0  0  0  0  0
    0.1842    0.8015    0.7486 C   0  0  0  0  0  0  0  0  0  0  0  0
   -0.2409   -0.6032    0.9044 C   0  0  0  0  0  0  0  0  0  0  0  0
   -1.7003   -0.7857    0.9396 C   0  0  0  0  0  0  0  0  0  0  0  0
   -3.6469    0.0744   -0.4225 C   0  0  0  0  0  0  0  0  0  0  0  0
   -4.2346    1.2476   -0.7952 O   0  0  0  0  0  0  0  0  0  0  0  0
   -4.4239   -0.8851    0.2056 N   0  0  0  0  0  0  0  0  0  0  0  0
   -5.7430   -1.1768    0.0395 C   0  0  1  0  0  0  0  0  0  0  0  0
   -6.8399   -0.3038    0.4712 C   0  0  0  0  0  0  0  0  0  0  0  0
   -6.9947    1.0757   -0.0174 C   0  0  0  0  0  0  0  0  0  0  0  0
   -8.3562    1.6066    0.5426 C   0  0  0  0  0  0  0  0  0  0  0  0
   -9.3742    0.7914    0.0884 O   0  0  0  0  0  0  0  0  0  0  0  0
   -8.4774    2.9113    0.0164 O   0  0  0  0  0  0  0  0  0  0  0  0
   -6.0982   -1.5971   -1.4130 C   0  0  0  0  0  0  0  0  0  0  0  0
   -5.7877   -0.5955   -2.2961 O   0  0  0  0  0  0  0  0  0  0  0  0
   -7.4867   -1.7660   -1.4126 O   0  0  0  0  0  0  0  0  0  0  0  0
    1.3507    1.4088   -1.2675 C   0  0  0  0  0  0  0  0  0  0  0  0
    6.1004    0.9837   -1.8201 H   0  0  0  0  0  0  0  0  0  0  0  0
    7.9740    0.2125   -0.7397 H   0  0  0  0  0  0  0  0  0  0  0  0
    7.0648    2.9658   -0.7707 H   0  0  0  0  0  0  0  0  0  0  0  0
    7.7324    2.6989    0.8856 H   0  0  0  0  0  0  0  0  0  0  0  0
    8.7488    2.3168   -0.5758 H   0  0  0  0  0  0  0  0  0  0  0  0
    6.5334    0.9978    1.7522 H   0  0  0  0  0  0  0  0  0  0  0  0
    6.6655   -1.1972    2.3953 H   0  0  0  0  0  0  0  0  0  0  0  0
    8.1037   -2.4510    1.4714 H   0  0  0  0  0  0  0  0  0  0  0  0
    5.4351   -2.3748    0.4308 H   0  0  0  0  0  0  0  0  0  0  0  0
    4.6522    0.2156    1.8210 H   0  0  0  0  0  0  0  0  0  0  0  0
    4.3197   -1.4436    2.3118 H   0  0  0  0  0  0  0  0  0  0  0  0
    2.3452   -1.3839    1.2770 H   0  0  0  0  0  0  0  0  0  0  0  0
    2.2249   -1.3767   -1.2320 H   0  0  0  0  0  0  0  0  0  0  0  0
    3.4791   -2.4019   -0.4667 H   0  0  0  0  0  0  0  0  0  0  0  0
    4.3763   -1.4660   -2.3902 H   0  0  0  0  0  0  0  0  0  0  0  0
    3.9419    0.2043   -2.0313 H   0  0  0  0  0  0  0  0  0  0  0  0
    6.3586   -1.2064   -1.3701 H   0  0  0  0  0  0  0  0  0  0  0  0
    3.4337    1.2859    0.1597 H   0  0  0  0  0  0  0  0  0  0  0  0
    2.6535    1.1162    1.7408 H   0  0  0  0  0  0  0  0  0  0  0  0
   -2.8462    0.9506    1.3816 H   0  0  0  0  0  0  0  0  0  0  0  0
    0.1433    1.3101    1.7463 H   0  0  0  0  0  0  0  0  0  0  0  0
    0.1444   -0.9394    1.9223 H   0  0  0  0  0  0  0  0  0  0  0  0
    0.2543   -1.3102    0.1907 H   0  0  0  0  0  0  0  0  0  0  0  0
   -1.9382   -1.6137    0.1914 H   0  0  0  0  0  0  0  0  0  0  0  0
   -2.0721   -1.2173    1.9052 H   0  0  0  0  0  0  0  0  0  0  0  0
   -3.1855   -0.4242   -1.3515 H   0  0  0  0  0  0  0  0  0  0  0  0
   -3.9765    1.9763   -0.1537 H   0  0  0  0  0  0  0  0  0  0  0  0
   -3.8687   -1.5763    0.8016 H   0  0  0  0  0  0  0  0  0  0  0  0
   -5.9197   -2.2020    0.5833 H   0  0  0  0  0  0  0  0  0  0  0  0
   -7.8291   -0.8476    0.2930 H   0  0  0  0  0  0  0  0  0  0  0  0
   -6.8232   -0.2546    1.6257 H   0  0  0  0  0  0  0  0  0  0  0  0
   -6.2484    1.7526    0.5379 H   0  0  0  0  0  0  0  0  0  0  0  0
   -7.0136    1.2629   -1.0811 H   0  0  0  0  0  0  0  0  0  0  0  0
   -8.2593    1.6108    1.6166 H   0  0  0  0  0  0  0  0  0  0  0  0
   -9.8015    0.3078    0.8451 H   0  0  0  0  0  0  0  0  0  0  0  0
   -8.0885    2.8962   -0.9014 H   0  0  0  0  0  0  0  0  0  0  0  0
   -5.6525   -2.5499   -1.6897 H   0  0  0  0  0  0  0  0  0  0  0  0
   -6.2931   -0.7084   -3.1241 H   0  0  0  0  0  0  0  0  0  0  0  0
   -7.7434   -2.6977   -1.6042 H   0  0  0  0  0  0  0  0  0  0  0  0
    1.0402    0.5803   -1.9227 H   0  0  0  0  0  0  0  0  0  0  0  0
    2.3164    1.8645   -1.5638 H   0  0  0  0  0  0  0  0  0  0  0  0
    0.5966    2.2400   -1.4144 H   0  0  0  0  0  0  0  0  0  0  0  0
    6.1004    0.9837   -1.8201 H   0  0  0  0  0  0  0  0  0  0  0  0
    7.9740    0.2125   -0.7397 H   0  0  0  0  0  0  0  0  0  0  0  0
    7.0648    2.9658   -0.7707 H   0  0  0  0  0  0  0  0  0  0  0  0
    7.7324    2.6989    0.8856 H   0  0  0  0  0  0  0  0  0  0  0  0
    8.7488    2.3168   -0.5758 H   0  0  0  0  0  0  0  0  0  0  0  0
    6.5334    0.9978    1.7522 H   0  0  0  0  0  0  0  0  0  0  0  0
    6.6655   -1.1972    2.3953 H   0  0  0  0  0  0  0  0  0  0  0  0
    8.1037   -2.4510    1.4714 H   0  0  0  0  0  0  0  0  0  0  0  0
    5.4351   -2.3748    0.4308 H   0  0  0  0  0  0  0  0  0  0  0  0
    4.6522    0.2156    1.8210 H   0  0  0  0  0  0  0  0  0  0  0  0
    4.3197   -1.4436    2.3118 H   0  0  0  0  0  0  0  0  0  0  0  0
    2.3452   -1.3839    1.2770 H   0  0  0  0  0  0  0  0  0  0  0  0
    2.2249   -1.3767   -1.2320 H   0  0  0  0  0  0  0  0  0  0  0  0
    3.4791   -2.4019   -0.4667 H   0  0  0  0  0  0  0  0  0  0  0  0
    4.3763   -1.4660   -2.3902 H   0  0  0  0  0  0  0  0  0  0  0  0
    3.9419    0.2043   -2.0313 H   0  0  0  0  0  0  0  0  0  0  0  0
    6.3586   -1.2064   -1.3701 H   0  0  0  0  0  0  0  0  0  0  0  0
    3.4337    1.2859    0.1597 H   0  0  0  0  0  0  0  0  0  0  0  0
    2.6535    1.1162    1.7408 H   0  0  0  0  0  0  0  0  0  0  0  0
   -2.8462    0.9506    1.3816 H   0  0  0  0  0  0  0  0  0  0  0  0
    0.1433    1.3101    1.7463 H   0  0  0  0  0  0  0  0  0  0  0  0
    0.1444   -0.9394    1.9223 H   0  0  0  0  0  0  0  0  0  0  0  0
    0.2543   -1.3102    0.1907 H   0  0  0  0  0  0  0  0  0  0  0  0
   -1.9382   -1.6137    0.1914 H   0  0  0  0  0  0  0  0  0  0  0  0
   -2.0721   -1.2173    1.9052 H   0  0  0  0  0  0  0  0  0  0  0  0
   -3.1855   -0.4242   -1.3515 H   0  0  0  0  0  0  0  0  0  0  0  0
   -3.9765    1.9763   -0.1537 H   0  0  0  0  0  0  0  0  0  0  0  0
   -3.8687   -1.5763    0.8016 H   0  0  0  0  0  0  0  0  0  0  0  0
   -5.9197   -2.2020    0.5833 H   0  0  0  0  0  0  0  0  0  0  0  0
   -7.8291   -0.8476    0.2930 H   0  0  0  0  0  0  0  0  0  0  0  0
   -6.8232   -0.2546    1.6257 H   0  0  0  0  0  0  0  0  0  0  0  0
   -6.2484    1.7526    0.5379 H   0  0  0  0  0  0  0  0  0  0  0  0
   -7.0136    1.2629   -1.0811 H   0  0  0  0  0  0  0  0  0  0  0  0
   -8.2593    1.6108    1.6166 H   0  0  0  0  0  0  0  0  0  0  0  0
   -9.8015    0.3078    0.8451 H   0  0  0  0  0  0  0  0  0  0  0  0
   -8.0885    2.8962   -0.9014 H   0  0  0  0  0  0  0  0  0  0  0  0
   -5.6525   -2.5499   -1.6897 H   0  0  0  0  0  0  0  0  0  0  0  0
   -6.2931   -0.7084   -3.1241 H   0  0  0  0  0  0  0  0  0  0  0  0
   -7.7434   -2.6977   -1.6042 H   0  0  0  0  0  0  0  0  0  0  0  0
    1.0402    0.5803   -1.9227 H   0  0  0  0  0  0  0  0  0  0  0  0
    2.3164    1.8645   -1.5638 H   0  0  0  0  0  0  0  0  0  0  0  0
    0.5966    2.2400   -1.4144 H   0  0  0  0  0  0  0  0  0  0  0  0
    6.1004    0.9837   -1.8201 H   0  0  0  0  0  0  0  0  0  0  0  0
    7.9740    0.2125   -0.7397 H   0  0  0  0  0  0  0  0  0  0  0  0
    7.0648    2.9658   -0.7707 H   0  0  0  0  0  0  0  0  0  0  0  0
    7.7324    2.6989    0.8856 H   0  0  0  0  0  0  0  0  0  0  0  0
    8.7488    2.3168   -0.5758 H   0  0  0  0  0  0  0  0  0  0  0  0
    6.5334    0.9978    1.7522 H   0  0  0  0  0  0  0  0  0  0  0  0
    6.6655   -1.1972    2.3953 H   0  0  0  0  0  0  0  0  0  0  0  0
    8.1037   -2.4510    1.4714 H   0  0  0  0  0  0  0  0  0  0  0  0
    5.4351   -2.3748    0.4308 H   0  0  0  0  0  0  0  0  0  0  0  0
    4.6522    0.2156    1.8210 H   0  0  0  0  0  0  0  0  0  0  0  0
    4.3197   -1.4436    2.3118 H   0  0  0  0  0  0  0  0  0  0  0  0
    2.3452   -1.3839    1.2770 H   0  0  0  0  0  0  0  0  0  0  0  0
    2.2249   -1.3767   -1.2320 H   0  0  0  0  0  0  0  0  0  0  0  0
    3.4791   -2.4019   -0.4667 H   0  0  0  0  0  0  0  0  0  0  0  0
    4.3763   -1.4660   -2.3902 H   0  0  0  0  0  0  0  0  0  0  0  0
    3.9419    0.2043   -2.0313 H   0  0  0  0  0  0  0  0  0  0  0  0
    6.3586   -1.2064   -1.3701 H   0  0  0  0  0  0  0  0  0  0  0  0
    3.4337    1.2859    0.1597 H   0  0  0  0  0  0  0  0  0  0  0  0
    2.6535    1.1162    1.7408 H   0  0  0  0  0  0  0  0  0  0  0  0
   -2.8462    0.9506    1.3816 H   0  0  0  0  0  0  0  0  0  0  0  0
    0.1433    1.3101    1.7463 H   0  0  0  0  0  0  0  0  0  0  0  0
    0.1444   -0.9394    1.9223 H   0  0  0  0  0  0  0  0  0  0  0  0
    0.2543   -1.3102    0.1907 H   0  0  0  0  0  0  0  0  0  0  0  0
   -1.9382   -1.6137    0.1914 H   0  0  0  0  0  0  0  0  0  0  0  0
   -2.0721   -1.2173    1.9052 H   0  0  0  0  0  0  0  0  0  0  0  0
   -3.1855   -0.4242   -1.3515 H   0  0  0  0  0  0  0  0  0  0  0  0
   -3.9765    1.9763   -0.1537 H   0  0  0  0  0  0  0  0  0  0  0  0
   -3.8687   -1.5763    0.8016 H   0  0  0  0  0  0  0  0  0  0  0  0
   -5.9197   -2.2020    0.5833 H   0  0  0  0  0  0  0  0  0  0  0  0
   -7.8291   -0.8476    0.2930 H   0  0  0  0  0  0  0  0  0  0  0  0
   -6.8232   -0.2546    1.6257 H   0  0  0  0  0  0  0  0  0  0  0  0
   -6.2484    1.7526    0.5379 H   0  0  0  0  0  0  0  0  0  0  0  0
   -7.0136    1.2629   -1.0811 H   0  0  0  0  0  0  0  0  0  0  0  0
   -8.2593    1.6108    1.6166 H   0  0  0  0  0  0  0  0  0  0  0  0
   -9.8015    0.3078    0.8451 H   0  0  0  0  0  0  0  0  0  0  0  0
   -8.0885    2.8962   -0.9014 H   0  0  0  0  0  0  0  0  0  0  0  0
   -5.6525   -2.5499   -1.6897 H   0  0  0  0  0  0  0  0  0  0  0  0
   -6.2931   -0.7084   -3.1241 H   0  0  0  0  0  0  0  0  0  0  0  0
   -7.7434   -2.6977   -1.6042 H   0  0  0  0  0  0  0  0  0  0  0  0
    1.0402    0.5803   -1.9227 H   0  0  0  0  0  0  0  0  0  0  0  0
    2.3164    1.8645   -1.5638 H   0  0  0  0  0  0  0  0  0  0  0  0
    0.5966    2.2400   -1.4144 H   0  0  0  0  0  0  0  0  0  0  0  0
    6.1004    0.9837   -1.8201 H   0  0  0  0  0  0  0  0  0  0  0  0
    7.9740    0.2125   -0.7397 H   0  0  0  0  0  0  0  0  0  0  0  0
    7.0648    2.9658   -0.7707 H   0  0  0  0  0  0  0  0  0  0  0  0
    7.7324    2.6989    0.8856 H   0  0  0  0  0  0  0  0  0  0  0  0
    8.7488    2.3168   -0.5758 H   0  0  0  0  0  0  0  0  0  0  0  0
    6.5334    0.9978    1.7522 H   0  0  0  0  0  0  0  0  0  0  0  0
    6.6655   -1.1972    2.3953 H   0  0  0  0  0  0  0  0  0  0  0  0
    8.1037   -2.4510    1.4714 H   0  0  0  0  0  0  0  0  0  0  0  0
    5.4351   -2.3748    0.4308 H   0  0  0  0  0  0  0  0  0  0  0  0
    4.6522    0.2156    1.8210 H   0  0  0  0  0  0  0  0  0  0  0  0
    4.3197   -1.4436    2.3118 H   0  0  0  0  0  0  0  0  0  0  0  0
    2.3452   -1.3839    1.2770 H   0  0  0  0  0  0  0  0  0  0  0  0
    2.2249   -1.3767   -1.2320 H   0  0  0  0  0  0  0  0  0  0  0  0
    3.4791   -2.4019   -0.4667 H   0  0  0  0  0  0  0  0  0  0  0  0
    4.3763   -1.4660   -2.3902 H   0  0  0  0  0  0  0  0  0  0  0  0
    3.9419    0.2043   -2.0313 H   0  0  0  0  0  0  0  0  0  0  0  0
    6.3586   -1.2064   -1.3701 H   0  0  0  0  0  0  0  0  0  0  0  0
    3.4337    1.2859    0.1597 H   0  0  0  0  0  0  0  0  0  0  0  0
    2.6535    1.1162    1.7408 H   0  0  0  0  0  0  0  0  0  0  0  0
   -2.8462    0.9506    1.3816 H   0  0  0  0  0  0  0  0  0  0  0  0
    0.1433    1.3101    1.7463 H   0  0  0  0  0  0  0  0  0  0  0  0
    0.1444   -0.9394    1.9223 H   0  0  0  0  0  0  0  0  0  0  0  0
    0.2543   -1.3102    0.1907 H   0  0  0  0  0  0  0  0  0  0  0  0
   -1.9382   -1.6137    0.1914 H   0  0  0  0  0  0  0  0  0  0  0  0
   -2.0721   -1.2173    1.9052 H   0  0  0  0  0  0  0  0  0  0  0  0
   -3.1855   -0.4242   -1.3515 H   0  0  0  0  0  0  0  0  0  0  0  0
   -3.9765    1.9763   -0.1537 H   0  0  0  0  0  0  0  0  0  0  0  0
   -3.8687   -1.5763    0.8016 H   0  0  0  0  0  0  0  0  0  0  0  0
   -5.9197   -2.2020    0.5833 H   0  0  0  0  0  0  0  0  0  0  0  0
   -7.8291   -0.8476    0.2930 H   0  0  0  0  0  0  0  0  0  0  0  0
   -6.8232   -0.2546    1.6257 H   0  0  0  0  0  0  0  0  0  0  0  0
   -6.2484    1.7526    0.5379 H   0  0  0  0  0  0  0  0  0  0  0  0
   -7.0136    1.2629   -1.0811 H   0  0  0  0  0  0  0  0  0  0  0  0
   -8.2593    1.6108    1.6166 H   0  0  0  0  0  0  0  0  0  0  0  0
   -9.8015    0.3078    0.8451 H   0  0  0  0  0  0  0  0  0  0  0  0
   -8.0885    2.8962   -0.9014 H   0  0  0  0  0  0  0  0  0  0  0  0
   -5.6525   -2.5499   -1.6897 H   0  0  0  0  0  0  0  0  0  0  0  0
   -6.2931   -0.7084   -3.1241 H   0  0  0  0  0  0  0  0  0  0  0  0
   -7.7434   -2.6977   -1.6042 H   0  0  0  0  0  0  0  0  0  0  0  0
    1.0402    0.5803   -1.9227 H   0  0  0  0  0  0  0  0  0  0  0  0
    2.3164    1.8645   -1.5638 H   0  0  0  0  0  0  0  0  0  0  0  0
    0.5966    2.2400   -1.4144 H   0  0  0  0  0  0  0  0  0  0  0  0
  1  2  1  0
  2  3  1  0
  2  4  1  0
  4  5  1  0
  5  6  1  0
  5  7  1  0
  7  8  1  0
  8  9  1  0
  9 10  1  0
 10 11  1  0
  1 12  1  0
  7 12  1  0
 11 12  1  0
  9 13  1  0
 13 14  1  0
 15 16  1  0
 14 17  1  0
 16 17  1  0
 17 18  1  0
 15 19  1  0
 18 19  1  0
 15 20  1  0
 20 21  1  0
 20 22  1  0
 22 23  1  0
 23 24  1  0
 24 25  1  0
 25 26  1  0
 26 27  1  0
 26 28  1  0
 23 29  1  0
 29 30  1  0
 29 31  1  0
 14 32  1  0
 33 34  1  0
 34 35  1  0
 34 36  1  0
 36 37  1  0
 37 38  1  0
 37 39  1  0
 39 40  1  0
 40 41  1  0
 41 42  1  0
 42 43  1  0
 33 44  1  0
 39 44  1  0
 43 44  1  0
 41 45  1  0
 45 46  1  0
 47 48  1  0
 46 49  1  0
 48 49  1  0
 49 50  1  0
 47 51  1  0
 50 51  1  0
 47 52  1  0
 52 53  1  0
 52 54  1  0
 54 55  1  0
 55 56  1  0
 56 57  1  0
 57 58  1  0
 58 59  1  0
 58 60  1  0
 55 61  1  0
 61 62  1  0
 61 63  1  0
 46 64  1  0
 65 66  1  0
 66 67  1  0
 66 68  1  0
 68 69  1  0
 69 70  1  0
 69 71  1  0
 71 72  1  0
 72 73  1  0
 73 74  1  0
 74 75  1  0
 65 76  1  0
 71 76  1  0
 75 76  1  0
 73 77  1  0
 77 78  1  0
 79 80  1  0
 78 81  1  0
 80 81  1  0
 81 82  1  0
 79 83  1  0
 82 83  1  0
 79 84  1  0
 84 85  1  0
 84 86  1  0
 86 87  1  0
 87 88  1  0
 88 89  1  0
 89 90  1  0
 90 91  1  0
 90 92  1  0
 87 93  1  0
 93 94  1  0
 93 95  1  0
 78 96  1  0
 97 98  1  0
 98 99  1  0
 98100  1  0
100101  1  0
101102  1  0
101103  1  0
103104  1  0
104105  1  0
105106  1  0
106107  1  0
 97108  1  0
103108  1  0
107108  1  0
105109  1  0
109110  1  0
111112  1  0
110113  1  0
112113  1  0
113114  1  0
111115  1  0
114115  1  0
111116  1  0
116117  1  0
116118  1  0
118119  1  0
119120  1  0
120121  1  0
121122  1  0
122123  1  0
122124  1  0
119125  1  0
125126  1  0
125127  1  0
110128  1  0
  1129  1  0
  2130  1  0
  3131  1  0
  3132  1  0
  3133  1  0
  4134  1  0
  5135  1  0
  6136  1  0
  7137  1  0
  8138  1  0
  8139  1  0
  9140  1  0
 10141  1  0
 10142  1  0
 11143  1  0
 11144  1  0
 12145  1  0
 13146  1  0
 13147  1  0
 15148  1  0
 17149  1  0
 18150  1  0
 18151  1  0
 19152  1  0
 19153  1  0
 20154  1  0
 21155  1  0
 22156  1  0
 23157  1  1
 24158  1  0
 24159  1  0
 25160  1  0
 25161  1  0
 26162  1  0
 27163  1  0
 28164  1  0
 29165  1  0
 30166  1  0
 31167  1  0
 32168  1  0
 32169  1  0
 32170  1  0
 33171  1  0
 34172  1  0
 35173  1  0
 35174  1  0
 35175  1  0
 36176  1  0
 37177  1  0
 38178  1  0
 39179  1  0
 40180  1  0
 40181  1  0
 41182  1  0
 42183  1  0
 42184  1  0
 43185  1  0
 43186  1  0
 44187  1  0
 45188  1  0
 45189  1  0
 47190  1  0
 49191  1  0
 50192  1  0
 50193  1  0
 51194  1  0
 51195  1  0
 52196  1  0
 53197  1  0
 54198  1  0
 55199  1  1
 56200  1  0
 56201  1  0
 57202  1  0
 57203  1  0
 58204  1  0
 59205  1  0
 60206  1  0
 61207  1  0
 62208  1  0
 63209  1  0
 64210  1  0
 64211  1  0
 64212  1  0
 65213  1  0
 66214  1  0
 67215  1  0
 67216  1  0
 67217  1  0
 68218  1  0
 69219  1  0
 70220  1  0
 71221  1  0
 72222  1  0
 72223  1  0
 73224  1  0
 74225  1  0
 74226  1  0
 75227  1  0
 75228  1  0
 76229  1  0
 77230  1  0
 77231  1  0
 79232  1  0
 81233  1  0
 82234  1  0
 82235  1  0
 83236  1  0
 83237  1  0
 84238  1  0
 85239  1  0
 86240  1  0
 87241  1  1
 88242  1  0
 88243  1  0
 89244  1  0
 89245  1  0
 90246  1  0
 91247  1  0
 92248  1  0
 93249  1  0
 94250  1  0
 95251  1  0
 96252  1  0
 96253  1  0
 96254  1  0
 97255  1  0
 98256  1  0
 99257  1  0
 99258  1  0
 99259  1  0
100260  1  0
101261  1  0
102262  1  0
103263  1  0
104264  1  0
104265  1  0
105266  1  0
106267  1  0
106268  1  0
107269  1  0
107270  1  0
108271  1  0
109272  1  0
109273  1  0
111274  1  0
113275  1  0
114276  1  0
114277  1  0
115278  1  0
115279  1  0
116280  1  0
117281  1  0
118282  1  0
119283  1  1
120284  1  0
120285  1  0
121286  1  0
121287  1  0
122288  1  0
123289  1  0
124290  1  0
125291  1  0
126292  1  0
127293  1  0
128294  1  0
128295  1  0
128296  1  0
M  END
>  <PDBID>  (1) 
1HVY

>  <PDB ID>  (1) 
1HVY

>  <Generic Name>  (1) 
Raltitrexed

>  <Brand Name>  (1) 
Tomudex

>  <DrugBank ID>  (1) 
DB00293

>  <ATC Codes>  (1) 
L01BA03

>  <Ligand ID>  (1) 
D16

>  <Target Name>  (1) 
Thymidylate synthase

>  <UniProt ID>  (1) 
P04818

>  <PDB ID.1>  (1) 
1HVY

>  <Seq. Identity>  (1) 
100%

$$$$
