PDB_DB00456_00
     RDKit          3D

 56 58  0  0  0  0  0  0  0  0999 V2000
   -0.9004    0.7197    1.5682 S   0  0  0  0  0  0  0  0  0  0  0  0
   -2.6849    0.5673    1.2334 C   0  0  0  0  0  0  0  0  0  0  0  0
   -2.9565   -0.3390    0.0647 C   0  0  0  0  0  0  0  0  0  0  0  0
   -4.3882   -0.7653    0.0586 C   0  0  0  0  0  0  0  0  0  0  0  0
   -5.3641    0.1419   -0.0147 O   0  0  0  0  0  0  0  0  0  0  0  0
   -5.6789    1.0642    0.8781 C   0  0  0  0  0  0  0  0  0  0  0  0
   -7.0710    0.9437    1.2095 O   0  0  0  0  0  0  0  0  0  0  0  0
   -5.6466    2.4351    0.1517 C   0  0  0  0  0  0  0  0  0  0  0  0
   -2.0397   -1.5195    0.1150 C   0  0  0  0  0  0  0  0  0  0  0  0
   -2.4361   -2.6827   -0.7229 C   0  0  0  0  0  0  0  0  0  0  0  0
   -2.3764   -2.4537   -2.0970 O   0  0  0  0  0  0  0  0  0  0  0  0
   -3.5943   -3.3285   -0.4201 O   0  0  0  0  0  0  0  0  0  0  0  0
   -0.6835   -1.2372   -0.1631 N   0  0  0  0  0  0  0  0  0  0  0  0
    0.0537   -0.6620    0.9392 C   0  0  1  0  0  0  0  0  0  0  0  0
    1.0918   -0.2978   -0.1385 C   0  0  1  0  0  0  0  0  0  0  0  0
   -0.2062   -0.2273   -0.9847 C   0  0  0  0  0  0  0  0  0  0  0  0
   -0.7132    1.0447   -0.9762 O   0  0  0  0  0  0  0  0  0  0  0  0
    1.7200    0.9597    0.0577 N   0  0  0  0  0  0  0  0  0  0  0  0
    2.7597    1.1733   -0.8937 C   0  0  2  0  0  0  0  0  0  0  0  0
    2.2824    1.1426   -2.2205 O   0  0  0  0  0  0  0  0  0  0  0  0
    3.8874    0.2029   -0.8137 C   0  0  0  0  0  0  0  0  0  0  0  0
    4.5938    0.1982    0.5086 C   0  0  0  0  0  0  0  0  0  0  0  0
    5.7075   -0.8147    0.4776 C   0  0  0  0  0  0  0  0  0  0  0  0
    6.8573   -0.2159   -0.2677 C   0  0  0  0  0  0  0  0  0  0  0  0
    7.2305    1.0665    0.4538 C   0  0  0  0  0  0  0  0  0  0  0  0
    5.5552    1.7424    0.7618 S   0  0  0  0  0  0  0  0  0  0  0  0
   -3.1147    0.1919    2.1769 H   0  0  0  0  0  0  0  0  0  0  0  0
   -3.0378    1.5998    1.0817 H   0  0  0  0  0  0  0  0  0  0  0  0
   -2.8187    0.2136   -0.9150 H   0  0  0  0  0  0  0  0  0  0  0  0
   -4.6307   -1.4721    0.8989 H   0  0  0  0  0  0  0  0  0  0  0  0
   -4.5681   -1.4569   -0.8582 H   0  0  0  0  0  0  0  0  0  0  0  0
   -5.1663    1.1564    1.8269 H   0  0  0  0  0  0  0  0  0  0  0  0
   -7.2179    1.7009    1.8505 H   0  0  0  0  0  0  0  0  0  0  0  0
   -4.6832    2.6049   -0.3414 H   0  0  0  0  0  0  0  0  0  0  0  0
   -6.3995    2.3062   -0.6784 H   0  0  0  0  0  0  0  0  0  0  0  0
   -5.9978    3.2412    0.8072 H   0  0  0  0  0  0  0  0  0  0  0  0
   -2.0798   -1.8839    1.1881 H   0  0  0  0  0  0  0  0  0  0  0  0
   -1.6185   -3.5121   -0.6026 H   0  0  0  0  0  0  0  0  0  0  0  0
   -2.6287   -1.4978   -2.2991 H   0  0  0  0  0  0  0  0  0  0  0  0
   -3.5660   -4.3116   -0.5323 H   0  0  0  0  0  0  0  0  0  0  0  0
    0.4147   -1.3966    1.6840 H   0  0  0  0  0  0  0  0  0  0  0  0
    1.6700   -1.1675   -0.4356 H   0  0  0  0  0  0  0  0  0  0  0  0
    0.0531   -0.5590   -2.0210 H   0  0  0  0  0  0  0  0  0  0  0  0
   -0.0973    1.7500   -0.7302 H   0  0  0  0  0  0  0  0  0  0  0  0
    2.1112    1.0158    1.0024 H   0  0  0  0  0  0  0  0  0  0  0  0
    3.1879    2.1962   -0.6899 H   0  0  0  0  0  0  0  0  0  0  0  0
    1.6628    1.9221   -2.3793 H   0  0  0  0  0  0  0  0  0  0  0  0
    3.5703   -0.8089   -1.0481 H   0  0  0  0  0  0  0  0  0  0  0  0
    4.6404    0.4945   -1.5796 H   0  0  0  0  0  0  0  0  0  0  0  0
    3.9512   -0.0061    1.3694 H   0  0  0  0  0  0  0  0  0  0  0  0
    5.4447   -1.7654    0.0146 H   0  0  0  0  0  0  0  0  0  0  0  0
    6.0709   -1.0481    1.5077 H   0  0  0  0  0  0  0  0  0  0  0  0
    7.6937   -0.9362   -0.2199 H   0  0  0  0  0  0  0  0  0  0  0  0
    6.6232    0.0500   -1.3100 H   0  0  0  0  0  0  0  0  0  0  0  0
    7.7092    0.7860    1.3964 H   0  0  0  0  0  0  0  0  0  0  0  0
    7.8222    1.7342   -0.1808 H   0  0  0  0  0  0  0  0  0  0  0  0
  1  2  1  0
  2  3  1  0
  3  4  1  0
  4  5  1  0
  5  6  1  0
  6  7  1  0
  6  8  1  0
  3  9  1  0
  9 10  1  0
 10 11  1  0
 10 12  1  0
  9 13  1  0
  1 14  1  0
 13 14  1  0
 14 15  1  0
 13 16  1  0
 15 16  1  0
 16 17  1  0
 15 18  1  0
 18 19  1  0
 19 20  1  0
 19 21  1  0
 21 22  1  0
 22 23  1  0
 23 24  1  0
 24 25  1  0
 22 26  1  0
 25 26  1  0
  2 27  1  0
  2 28  1  0
  3 29  1  0
  4 30  1  0
  4 31  1  0
  6 32  1  0
  7 33  1  0
  8 34  1  0
  8 35  1  0
  8 36  1  0
  9 37  1  0
 10 38  1  0
 11 39  1  0
 12 40  1  0
 14 41  1  1
 15 42  1  6
 16 43  1  0
 17 44  1  0
 18 45  1  0
 19 46  1  1
 20 47  1  0
 21 48  1  0
 21 49  1  0
 22 50  1  0
 23 51  1  0
 23 52  1  0
 24 53  1  0
 24 54  1  0
 25 55  1  0
 25 56  1  0
M  END
>  <PDBID>  (1) 
1KVL

>  <PDB ID>  (1) 
1KVL

>  <Generic Name>  (1) 
Cefalotin

>  <Brand Name>  (1) 
Ceporacin#Keflin Add-vantage Inj 1gm/vial#Keflin Neutral Inj 1gm#Keflin Neutral Inj 2gm/vial#Coaxin#Keflin

>  <DrugBank ID>  (1) 
DB00456

>  <ATC Codes>  (1) 
J01DB03

>  <Ligand ID>  (1) 
CLS

>  <Target Name>  (1) 
Beta-lactamase

>  <UniProt ID>  (1) 
P00811

>  <PDB ID.1>  (1) 
1KVL

>  <Seq. Identity>  (1) 
100%

$$$$
