PDB_DB01263_08
     RDKit          3D

119125  0  0  0  0  0  0  0  0999 V2000
   11.9271   -2.4989   -0.4334 C   0  0  0  0  0  0  0  0  0  0  0  0
   12.4030    1.8422   -0.9793 C   0  0  0  0  0  0  0  0  0  0  0  0
    9.8664    0.9498    1.7437 O   0  0  0  0  0  0  0  0  0  0  0  0
   13.6999    1.0339    0.7928 O   0  0  0  0  0  0  0  0  0  0  0  0
  -11.2152    0.9184    0.5753 F   0  0  0  0  0  0  0  0  0  0  0  0
  -12.8274   -0.9757    3.6280 F   0  0  0  0  0  0  0  0  0  0  0  0
  -11.0385    0.4164    2.8229 C   0  0  0  0  0  0  0  0  0  0  0  0
   -2.5474   -1.2347   -1.5171 C   0  0  0  0  0  0  0  0  0  0  0  0
   -2.2767   -2.2016    0.6753 C   0  0  0  0  0  0  0  0  0  0  0  0
   -1.6634   -0.0479   -1.2652 C   0  0  0  0  0  0  0  0  0  0  0  0
   -0.8822   -1.8149    0.2868 C   0  0  0  0  0  0  0  0  0  0  0  0
    5.1623   -0.5723   -0.0337 C   0  0  0  0  0  0  0  0  0  0  0  0
    5.1405    1.8829    0.4999 C   0  0  0  0  0  0  0  0  0  0  0  0
    6.6747   -0.6136   -0.1828 C   0  0  0  0  0  0  0  0  0  0  0  0
    6.5502    1.5279    1.0096 C   0  0  0  0  0  0  0  0  0  0  0  0
  -11.9874   -0.7424    2.5839 C   0  0  0  0  0  0  0  0  0  0  0  0
  -10.3759    2.5577   -2.6832 C   0  0  0  0  0  0  0  0  0  0  0  0
   -9.5147   -0.6238    1.2441 C   0  0  1  0  0  0  0  0  0  0  0  0
   -8.5958    2.3163   -1.1884 C   0  0  0  0  0  0  0  0  0  0  0  0
    9.0255    0.6009   -1.5603 C   0  0  0  0  0  0  0  0  0  0  0  0
   12.6534   -1.1633   -0.4968 C   0  0  0  0  0  0  0  0  0  0  0  0
   -7.2884    0.3032    0.8915 C   0  0  0  0  0  0  0  0  0  0  0  0
    1.1362    0.8735    0.8279 C   0  0  0  0  0  0  0  0  0  0  0  0
    1.2132   -0.0489   -1.3977 C   0  0  0  0  0  0  0  0  0  0  0  0
    2.6192    0.4957    0.9694 C   0  0  0  0  0  0  0  0  0  0  0  0
    2.6848   -0.3369   -1.1755 C   0  0  0  0  0  0  0  0  0  0  0  0
   -4.8942    0.1459    0.3903 C   0  0  0  0  0  0  0  0  0  0  0  0
   -8.7700   -0.1245   -1.0891 C   0  0  0  0  0  0  0  0  0  0  0  0
   -9.4372    3.3043   -1.9082 N   0  0  0  0  0  0  0  0  0  0  0  0
   -9.8575    1.2025   -2.6063 N   0  0  0  0  0  0  0  0  0  0  0  0
   10.1755   -0.2116   -1.4202 N   0  0  0  0  0  0  0  0  0  0  0  0
   -3.6819   -0.3676    0.3666 O   0  0  0  0  0  0  0  0  0  0  0  0
   -7.8619   -1.8438    0.2033 O   0  0  0  0  0  0  0  0  0  0  0  0
  -10.2438    0.6243    1.5496 C   0  0  0  0  0  0  0  0  0  0  0  0
  -10.4846   -1.7304    0.9138 C   0  0  0  0  0  0  0  0  0  0  0  0
   -3.3287   -1.5382   -0.1783 C   0  0  0  0  0  0  0  0  0  0  0  0
   -0.7884   -0.3649   -0.0516 C   0  0  0  0  0  0  0  0  0  0  0  0
    4.6170    0.7988   -0.3810 C   0  0  0  0  0  0  0  0  0  0  0  0
    7.1866    0.7729   -0.1205 C   0  0  0  0  0  0  0  0  0  0  0  0
  -11.2142   -2.0150    2.2372 C   0  0  0  0  0  0  0  0  0  0  0  0
    9.4063    0.1897    0.6791 C   0  0  0  0  0  0  0  0  0  0  0  0
   12.3655    1.1701    0.3550 C   0  0  2  0  0  0  0  0  0  0  0  0
   11.7876   -0.2057    0.3321 C   0  0  1  0  0  0  0  0  0  0  0  0
    0.5101    0.1336   -0.1757 N   0  0  0  0  0  0  0  0  0  0  0  0
    3.1836    0.7571   -0.3293 N   0  0  0  0  0  0  0  0  0  0  0  0
   -9.3390    1.1271   -1.3066 N   0  0  0  0  0  0  0  0  0  0  0  0
    8.5862    0.9891   -0.2085 N   0  0  0  0  0  0  0  0  0  0  0  0
   10.4611   -0.3615   -0.0907 N   0  0  0  0  0  0  0  0  0  0  0  0
   -8.3614   -0.5299    0.2884 C   0  0  2  0  0  0  0  0  0  0  0  0
   -6.4822   -1.7341    0.1308 C   0  0  0  0  0  0  0  0  0  0  0  0
   -6.0513   -0.5923    1.0155 C   0  0  2  0  0  0  0  0  0  0  0  0
   11.9834   -2.9588    0.5625 H   0  0  0  0  0  0  0  0  0  0  0  0
   12.2295   -3.1808   -1.2510 H   0  0  0  0  0  0  0  0  0  0  0  0
   10.8259   -2.3183   -0.6034 H   0  0  0  0  0  0  0  0  0  0  0  0
   12.8428    1.2589   -1.7945 H   0  0  0  0  0  0  0  0  0  0  0  0
   11.3980    2.2084   -1.3102 H   0  0  0  0  0  0  0  0  0  0  0  0
   13.0167    2.7834   -0.9237 H   0  0  0  0  0  0  0  0  0  0  0  0
    9.7177    0.5098    2.6336 H   0  0  0  0  0  0  0  0  0  0  0  0
   13.8396    1.4640    1.6541 H   0  0  0  0  0  0  0  0  0  0  0  0
  -10.3446    0.2511    3.6592 H   0  0  0  0  0  0  0  0  0  0  0  0
  -11.6945    1.3004    2.9850 H   0  0  0  0  0  0  0  0  0  0  0  0
   -3.2497   -1.1008   -2.3344 H   0  0  0  0  0  0  0  0  0  0  0  0
   -1.9370   -2.1217   -1.6864 H   0  0  0  0  0  0  0  0  0  0  0  0
   -2.3237   -3.3175    0.6367 H   0  0  0  0  0  0  0  0  0  0  0  0
   -2.4300   -1.9347    1.7570 H   0  0  0  0  0  0  0  0  0  0  0  0
   -2.2335    0.8693   -1.1196 H   0  0  0  0  0  0  0  0  0  0  0  0
   -1.0140    0.0739   -2.1623 H   0  0  0  0  0  0  0  0  0  0  0  0
   -0.4046   -2.4798   -0.4592 H   0  0  0  0  0  0  0  0  0  0  0  0
   -0.2467   -1.9569    1.2122 H   0  0  0  0  0  0  0  0  0  0  0  0
    4.8109   -0.8275    0.9817 H   0  0  0  0  0  0  0  0  0  0  0  0
    4.6742   -1.2964   -0.7170 H   0  0  0  0  0  0  0  0  0  0  0  0
    5.2150    2.8039   -0.1547 H   0  0  0  0  0  0  0  0  0  0  0  0
    4.5572    2.1681    1.3588 H   0  0  0  0  0  0  0  0  0  0  0  0
    7.0143   -1.2692    0.6621 H   0  0  0  0  0  0  0  0  0  0  0  0
    6.8526   -1.0967   -1.1618 H   0  0  0  0  0  0  0  0  0  0  0  0
    7.0337    2.4582    1.3012 H   0  0  0  0  0  0  0  0  0  0  0  0
    6.4024    0.8464    1.9000 H   0  0  0  0  0  0  0  0  0  0  0  0
  -12.5570   -0.4872    1.6648 H   0  0  0  0  0  0  0  0  0  0  0  0
  -10.4593    2.8525   -3.7364 H   0  0  0  0  0  0  0  0  0  0  0  0
  -11.4065    2.5713   -2.2595 H   0  0  0  0  0  0  0  0  0  0  0  0
   -9.0382   -0.9557    2.2217 H   0  0  0  0  0  0  0  0  0  0  0  0
   -8.6015    2.7184   -0.1406 H   0  0  0  0  0  0  0  0  0  0  0  0
   -7.5807    2.3017   -1.6453 H   0  0  0  0  0  0  0  0  0  0  0  0
    9.1745    1.5075   -2.1846 H   0  0  0  0  0  0  0  0  0  0  0  0
    8.2164    0.0380   -2.0579 H   0  0  0  0  0  0  0  0  0  0  0  0
   12.7087   -0.8722   -1.5585 H   0  0  0  0  0  0  0  0  0  0  0  0
   13.6399   -1.3302   -0.0183 H   0  0  0  0  0  0  0  0  0  0  0  0
   -6.9779    1.1557    0.2947 H   0  0  0  0  0  0  0  0  0  0  0  0
   -7.5412    0.6730    1.9214 H   0  0  0  0  0  0  0  0  0  0  0  0
    0.6186    0.7435    1.7956 H   0  0  0  0  0  0  0  0  0  0  0  0
    1.1216    1.9548    0.5852 H   0  0  0  0  0  0  0  0  0  0  0  0
    0.7812   -0.8747   -1.9960 H   0  0  0  0  0  0  0  0  0  0  0  0
    1.1443    0.8754   -2.0041 H   0  0  0  0  0  0  0  0  0  0  0  0
    3.0344    1.0221    1.8088 H   0  0  0  0  0  0  0  0  0  0  0  0
    2.6081   -0.5992    1.1736 H   0  0  0  0  0  0  0  0  0  0  0  0
    3.1919   -0.4257   -2.1299 H   0  0  0  0  0  0  0  0  0  0  0  0
    2.6924   -1.3039   -0.5933 H   0  0  0  0  0  0  0  0  0  0  0  0
   -4.8447    1.1259    0.9934 H   0  0  0  0  0  0  0  0  0  0  0  0
   -5.2621    0.5441   -0.6120 H   0  0  0  0  0  0  0  0  0  0  0  0
   -9.4010   -0.9468   -1.5319 H   0  0  0  0  0  0  0  0  0  0  0  0
   -7.8212   -0.1902   -1.7096 H   0  0  0  0  0  0  0  0  0  0  0  0
   -9.9672    3.9108   -1.2510 H   0  0  0  0  0  0  0  0  0  0  0  0
  -10.6383    0.5214   -2.6396 H   0  0  0  0  0  0  0  0  0  0  0  0
   10.9353   -0.1177   -2.0842 H   0  0  0  0  0  0  0  0  0  0  0  0
   -9.6017    1.5025    1.7332 H   0  0  0  0  0  0  0  0  0  0  0  0
  -11.1787   -1.4240    0.1274 H   0  0  0  0  0  0  0  0  0  0  0  0
   -9.9294   -2.6809    0.6655 H   0  0  0  0  0  0  0  0  0  0  0  0
   -4.0556   -2.2491   -0.5294 H   0  0  0  0  0  0  0  0  0  0  0  0
   -1.2903    0.1886    0.8008 H   0  0  0  0  0  0  0  0  0  0  0  0
    4.8541    0.9741   -1.4729 H   0  0  0  0  0  0  0  0  0  0  0  0
    6.7739    1.2792   -1.0629 H   0  0  0  0  0  0  0  0  0  0  0  0
  -10.4317   -2.1575    3.0068 H   0  0  0  0  0  0  0  0  0  0  0  0
  -11.9319   -2.8275    2.1649 H   0  0  0  0  0  0  0  0  0  0  0  0
    8.8634   -0.6702    1.1363 H   0  0  0  0  0  0  0  0  0  0  0  0
   11.8840    1.8456    1.0721 H   0  0  0  0  0  0  0  0  0  0  0  0
   11.8547   -0.6472    1.3781 H   0  0  0  0  0  0  0  0  0  0  0  0
   -6.0783   -2.6676    0.5668 H   0  0  0  0  0  0  0  0  0  0  0  0
   -6.2121   -1.5719   -0.9276 H   0  0  0  0  0  0  0  0  0  0  0  0
   -5.8529   -0.8835    2.0469 H   0  0  0  0  0  0  0  0  0  0  0  0
  8 10  1  0
  9 11  1  0
 12 14  1  0
 13 15  1  0
  6 16  1  0
  7 16  1  0
  1 21  1  0
 23 25  1  0
 24 26  1  0
 17 29  1  0
 19 29  1  0
 17 30  1  0
 20 31  1  0
 27 32  1  0
  5 34  1  0
  7 34  1  0
 18 34  1  0
 18 35  1  0
  8 36  1  0
  9 36  1  0
 32 36  1  0
 10 37  1  0
 11 37  1  0
 12 38  1  0
 13 38  1  0
 14 39  1  0
 15 39  1  0
 16 40  1  0
 35 40  1  0
  3 41  1  0
  2 42  1  0
  4 42  1  0
 21 43  1  0
 42 43  1  0
 23 44  1  0
 24 44  1  0
 37 44  1  0
 25 45  1  0
 26 45  1  0
 38 45  1  0
 19 46  1  0
 28 46  1  0
 30 46  1  0
 20 47  1  0
 39 47  1  0
 41 47  1  0
 31 48  1  0
 41 48  1  0
 43 48  1  0
 18 49  1  0
 22 49  1  0
 49 28  1  6
 33 49  1  0
 33 50  1  0
 22 51  1  0
 27 51  1  0
 50 51  1  0
  1 52  1  0
  1 53  1  0
  1 54  1  0
  2 55  1  0
  2 56  1  0
  2 57  1  0
  3 58  1  0
  4 59  1  0
  7 60  1  0
  7 61  1  0
  8 62  1  0
  8 63  1  0
  9 64  1  0
  9 65  1  0
 10 66  1  0
 10 67  1  0
 11 68  1  0
 11 69  1  0
 12 70  1  0
 12 71  1  0
 13 72  1  0
 13 73  1  0
 14 74  1  0
 14 75  1  0
 15 76  1  0
 15 77  1  0
 16 78  1  0
 17 79  1  0
 17 80  1  0
 18 81  1  1
 19 82  1  0
 19 83  1  0
 20 84  1  0
 20 85  1  0
 21 86  1  0
 21 87  1  0
 22 88  1  0
 22 89  1  0
 23 90  1  0
 23 91  1  0
 24 92  1  0
 24 93  1  0
 25 94  1  0
 25 95  1  0
 26 96  1  0
 26 97  1  0
 27 98  1  0
 27 99  1  0
 28100  1  0
 28101  1  0
 29102  1  0
 30103  1  0
 31104  1  0
 34105  1  0
 35106  1  0
 35107  1  0
 36108  1  0
 37109  1  0
 38110  1  0
 39111  1  0
 40112  1  0
 40113  1  0
 41114  1  0
 42115  1  1
 43116  1  1
 50117  1  0
 50118  1  0
 51119  1  1
M  END
>  <PDBID>  (1) 
4ZE1

>  <PDB ID>  (1) 
4ZE1

>  <Generic Name>  (1) 
Posaconazole

>  <Brand Name>  (1) 
Noxafil#Posanol

>  <DrugBank ID>  (1) 
DB01263

>  <ATC Codes>  (1) 
J02AC04

>  <Ligand ID>  (1) 
X2N

>  <Target Name>  (1) 
Lanosterol 14-alpha demethylase

>  <UniProt ID>  (1) 
P10613

>  <PDB ID.1>  (1) 
4ZE1

>  <Seq. Identity>  (1) 
65%

$$$$
