PDB_DB09034_03
     RDKit          3D

 75 79  0  0  0  0  0  0  0  0999 V2000
    3.4969   -0.6099   -0.5783 C   0  0  0  0  0  0  0  0  0  0  0  0
    2.3138   -0.0637   -0.0023 N   0  0  0  0  0  0  0  0  0  0  0  0
    4.2960   -1.1107    0.4341 O   0  0  0  0  0  0  0  0  0  0  0  0
    9.2148    0.3246   -1.7746 Cl  0  0  0  0  0  0  0  0  0  0  0  0
    4.2805    0.2661   -1.3815 N   0  0  0  0  0  0  0  0  0  0  0  0
   -1.7006    0.6998    2.4961 O   0  0  0  0  0  0  0  0  0  0  0  0
    5.6313    0.2741   -0.8622 C   0  0  0  0  0  0  0  0  0  0  0  0
   -0.4840    0.1444    0.6132 N   0  0  0  0  0  0  0  0  0  0  0  0
    6.5784   -0.3928   -1.8259 C   0  0  0  0  0  0  0  0  0  0  0  0
   -4.5429   -0.6084   -0.9077 N   0  0  0  0  0  0  0  0  0  0  0  0
    7.8982   -0.7608   -1.2373 C   0  0  0  0  0  0  0  0  0  0  0  0
   -4.5728   -1.8725   -0.3949 N   0  0  0  0  0  0  0  0  0  0  0  0
    7.8910   -0.7747    0.2783 C   0  0  0  0  0  0  0  0  0  0  0  0
   -5.1362   -0.5953   -2.1424 N   0  0  0  0  0  0  0  0  0  0  0  0
    6.5861   -1.4732    0.6656 C   0  0  0  0  0  0  0  0  0  0  0  0
    5.4956   -0.4474    0.4359 C   0  0  0  0  0  0  0  0  0  0  0  0
    1.4038    0.5581   -0.8852 C   0  0  0  0  0  0  0  0  0  0  0  0
   -0.0575    0.1266   -0.7128 C   0  0  0  0  0  0  0  0  0  0  0  0
    0.4404   -0.3865    1.5560 C   0  0  1  0  0  0  0  0  0  0  0  0
    1.3837    0.6784    2.0717 C   0  0  0  0  0  0  0  0  0  0  0  0
    2.6261    0.6457    1.2108 C   0  0  0  0  0  0  0  0  0  0  0  0
   -1.6544    0.7434    1.0547 C   0  0  0  0  0  0  0  0  0  0  0  0
   -2.9283    0.1545    0.6121 C   0  0  0  0  0  0  0  0  0  0  0  0
   -3.2406    0.0614   -0.8475 C   0  0  0  0  0  0  0  0  0  0  0  0
   -3.4929    1.4143   -1.4850 C   0  0  0  0  0  0  0  0  0  0  0  0
   -4.0115    2.4438   -0.5486 C   0  0  0  0  0  0  0  0  0  0  0  0
   -4.7171    1.9459    0.6637 C   0  0  0  0  0  0  0  0  0  0  0  0
   -4.1250    0.7605    1.3371 C   0  0  0  0  0  0  0  0  0  0  0  0
   -5.9714   -2.2477   -0.6560 C   0  0  0  0  0  0  0  0  0  0  0  0
   -6.3436   -1.3949   -1.8555 C   0  0  0  0  0  0  0  0  0  0  0  0
   -6.2130    1.7401    0.4092 C   0  0  0  0  0  0  0  0  0  0  0  0
   -0.1402   -1.1299    2.7021 C   0  0  0  0  0  0  0  0  0  0  0  0
    3.2218   -1.4990   -1.2168 H   0  0  0  0  0  0  0  0  0  0  0  0
    4.3310   -0.0435   -2.3850 H   0  0  0  0  0  0  0  0  0  0  0  0
   -1.2224    1.4568    2.8848 H   0  0  0  0  0  0  0  0  0  0  0  0
    5.9974    1.3135   -0.7166 H   0  0  0  0  0  0  0  0  0  0  0  0
    6.7892    0.3777   -2.6255 H   0  0  0  0  0  0  0  0  0  0  0  0
    6.1072   -1.2355   -2.3860 H   0  0  0  0  0  0  0  0  0  0  0  0
    8.1211   -1.8167   -1.5464 H   0  0  0  0  0  0  0  0  0  0  0  0
   -3.9804   -2.5838   -0.8838 H   0  0  0  0  0  0  0  0  0  0  0  0
    8.7126   -1.3751    0.6664 H   0  0  0  0  0  0  0  0  0  0  0  0
    7.8402    0.2562    0.6839 H   0  0  0  0  0  0  0  0  0  0  0  0
   -4.6400   -1.0698   -2.9016 H   0  0  0  0  0  0  0  0  0  0  0  0
    6.5886   -1.7204    1.7433 H   0  0  0  0  0  0  0  0  0  0  0  0
    6.4055   -2.3570    0.0465 H   0  0  0  0  0  0  0  0  0  0  0  0
    5.6253    0.3040    1.2461 H   0  0  0  0  0  0  0  0  0  0  0  0
    1.4369    1.6862   -0.8536 H   0  0  0  0  0  0  0  0  0  0  0  0
    1.6680    0.2925   -1.9324 H   0  0  0  0  0  0  0  0  0  0  0  0
   -0.6147    0.8683   -1.3201 H   0  0  0  0  0  0  0  0  0  0  0  0
   -0.1608   -0.8566   -1.2382 H   0  0  0  0  0  0  0  0  0  0  0  0
    1.0315   -1.1691    0.9688 H   0  0  0  0  0  0  0  0  0  0  0  0
    0.9662    1.7139    1.9496 H   0  0  0  0  0  0  0  0  0  0  0  0
    1.6204    0.5124    3.1478 H   0  0  0  0  0  0  0  0  0  0  0  0
    3.3377   -0.0271    1.7677 H   0  0  0  0  0  0  0  0  0  0  0  0
    3.0689    1.6452    1.0408 H   0  0  0  0  0  0  0  0  0  0  0  0
   -1.6195    1.8698    0.8676 H   0  0  0  0  0  0  0  0  0  0  0  0
   -2.9571   -0.9414    0.9627 H   0  0  0  0  0  0  0  0  0  0  0  0
   -2.4812   -0.5012   -1.3786 H   0  0  0  0  0  0  0  0  0  0  0  0
   -2.6139    1.7871   -2.0386 H   0  0  0  0  0  0  0  0  0  0  0  0
   -4.2684    1.2633   -2.3041 H   0  0  0  0  0  0  0  0  0  0  0  0
   -4.7684    3.0780   -1.1053 H   0  0  0  0  0  0  0  0  0  0  0  0
   -3.2400    3.1984   -0.2444 H   0  0  0  0  0  0  0  0  0  0  0  0
   -4.6748    2.7836    1.4249 H   0  0  0  0  0  0  0  0  0  0  0  0
   -4.9243   -0.0289    1.4292 H   0  0  0  0  0  0  0  0  0  0  0  0
   -3.7988    0.9410    2.3811 H   0  0  0  0  0  0  0  0  0  0  0  0
   -6.5227   -1.9364    0.2645 H   0  0  0  0  0  0  0  0  0  0  0  0
   -6.0872   -3.3230   -0.8522 H   0  0  0  0  0  0  0  0  0  0  0  0
   -7.1359   -0.6779   -1.5035 H   0  0  0  0  0  0  0  0  0  0  0  0
   -6.6944   -1.9635   -2.7157 H   0  0  0  0  0  0  0  0  0  0  0  0
   -6.5122    0.6816    0.6393 H   0  0  0  0  0  0  0  0  0  0  0  0
   -6.8473    2.3759    1.0587 H   0  0  0  0  0  0  0  0  0  0  0  0
   -6.4705    2.0213   -0.6363 H   0  0  0  0  0  0  0  0  0  0  0  0
   -0.1649   -0.5672    3.6600 H   0  0  0  0  0  0  0  0  0  0  0  0
   -1.1534   -1.5449    2.5426 H   0  0  0  0  0  0  0  0  0  0  0  0
    0.4793   -2.0472    2.9658 H   0  0  0  0  0  0  0  0  0  0  0  0
  1  2  1  0
  1  3  1  0
  1  5  1  0
  5  7  1  0
  7  9  1  0
  4 11  1  0
  9 11  1  0
 10 12  1  0
 11 13  1  0
 10 14  1  0
 13 15  1  0
  3 16  1  0
  7 16  1  0
 15 16  1  0
  2 17  1  0
  8 18  1  0
 17 18  1  0
  8 19  1  0
 19 20  1  0
  2 21  1  0
 20 21  1  0
  6 22  1  0
  8 22  1  0
 22 23  1  0
 10 24  1  0
 23 24  1  0
 24 25  1  0
 25 26  1  0
 26 27  1  0
 23 28  1  0
 27 28  1  0
 12 29  1  0
 14 30  1  0
 29 30  1  0
 27 31  1  0
 19 32  1  0
  1 33  1  0
  5 34  1  0
  6 35  1  0
  7 36  1  0
  9 37  1  0
  9 38  1  0
 11 39  1  0
 12 40  1  0
 13 41  1  0
 13 42  1  0
 14 43  1  0
 15 44  1  0
 15 45  1  0
 16 46  1  0
 17 47  1  0
 17 48  1  0
 18 49  1  0
 18 50  1  0
 19 51  1  6
 20 52  1  0
 20 53  1  0
 21 54  1  0
 21 55  1  0
 22 56  1  0
 23 57  1  0
 24 58  1  0
 25 59  1  0
 25 60  1  0
 26 61  1  0
 26 62  1  0
 27 63  1  0
 28 64  1  0
 28 65  1  0
 29 66  1  0
 29 67  1  0
 30 68  1  0
 30 69  1  0
 31 70  1  0
 31 71  1  0
 31 72  1  0
 32 73  1  0
 32 74  1  0
 32 75  1  0
M  END
>  <PDBID>  (1) 
4ZJ8

>  <PDB ID>  (1) 
4ZJ8

>  <Generic Name>  (1) 
Suvorexant

>  <Brand Name>  (1) 
Belsomra

>  <DrugBank ID>  (1) 
DB09034

>  <ATC Codes>  (1) 
nan

>  <Ligand ID>  (1) 
SUV

>  <Target Name>  (1) 
Orexin receptor type 1

>  <UniProt ID>  (1) 
O43613

>  <PDB ID.1>  (1) 
4ZJ8

>  <Seq. Identity>  (1) 
85%

$$$$
