PDB_DB01261_04
     RDKit          3D

110114  0  0  0  0  0  0  0  0999 V2000
   -5.7357   -0.2182   -1.4679 C   0  0  0  0  0  0  0  0  0  0  0  0
   -4.4038   -0.7577   -0.9920 C   0  0  0  0  0  0  0  0  0  0  0  0
   -4.0626   -0.0555    0.2993 C   0  0  0  0  0  0  0  0  0  0  0  0
   -5.1479   -0.4696    1.2851 C   0  0  0  0  0  0  0  0  0  0  0  0
   -6.4048    0.2414    0.9031 C   0  0  0  0  0  0  0  0  0  0  0  0
   -6.3872    0.7342   -0.5269 C   0  0  0  0  0  0  0  0  0  0  0  0
   -7.4915   -0.5616    1.1644 F   0  0  0  0  0  0  0  0  0  0  0  0
   -4.5954   -2.1038   -0.6810 F   0  0  0  0  0  0  0  0  0  0  0  0
   -2.6958   -0.3512    0.8216 C   0  0  0  0  0  0  0  0  0  0  0  0
   -1.6175    0.0459   -0.1289 C   0  0  2  0  0  0  0  0  0  0  0  0
   -0.2332   -0.2678    0.4430 C   0  0  0  0  0  0  0  0  0  0  0  0
    0.8110    0.1652   -0.5958 C   0  0  1  0  0  0  0  0  0  0  0  0
    2.1407   -0.0668   -0.2015 N   0  0  0  0  0  0  0  0  0  0  0  0
   -1.6601    1.4393   -0.4879 N   0  0  0  0  0  0  0  0  0  0  0  0
    0.4869   -0.4028   -1.8383 O   0  0  0  0  0  0  0  0  0  0  0  0
    2.6698    0.5865    0.9129 C   0  0  0  0  0  0  0  0  0  0  0  0
    4.0416    1.1771    0.7225 C   0  0  0  0  0  0  0  0  0  0  0  0
    4.9150    0.4569   -0.1190 N   0  0  0  0  0  0  0  0  0  0  0  0
    4.3968   -0.3291   -1.1511 C   0  0  0  0  0  0  0  0  0  0  0  0
    2.9866   -0.8146   -1.0240 C   0  0  0  0  0  0  0  0  0  0  0  0
    6.0093   -0.2125    0.4691 C   0  0  0  0  0  0  0  0  0  0  0  0
    6.3518   -1.2580   -0.4678 N   0  0  0  0  0  0  0  0  0  0  0  0
    5.2553   -1.5077   -1.2677 N   0  0  0  0  0  0  0  0  0  0  0  0
    7.1797    0.7616    0.6208 C   0  0  0  0  0  0  0  0  0  0  0  0
    6.7445    1.7859    1.4245 F   0  0  0  0  0  0  0  0  0  0  0  0
    7.4878    1.3058   -0.6192 F   0  0  0  0  0  0  0  0  0  0  0  0
    8.3016    0.1358    1.0838 F   0  0  0  0  0  0  0  0  0  0  0  0
   -7.7302    0.8387   -0.9169 F   0  0  0  0  0  0  0  0  0  0  0  0
   -5.6541   -0.2007   -1.5163 C   0  0  0  0  0  0  0  0  0  0  0  0
   -4.3747   -0.7947   -0.9560 C   0  0  0  0  0  0  0  0  0  0  0  0
   -4.0458   -0.0495    0.3139 C   0  0  0  0  0  0  0  0  0  0  0  0
   -5.1782   -0.3480    1.2824 C   0  0  0  0  0  0  0  0  0  0  0  0
   -6.3855    0.4144    0.7977 C   0  0  0  0  0  0  0  0  0  0  0  0
   -6.2797    0.8310   -0.6339 C   0  0  0  0  0  0  0  0  0  0  0  0
   -7.5335   -0.3304    1.0103 F   0  0  0  0  0  0  0  0  0  0  0  0
   -4.6594   -2.1045   -0.5983 F   0  0  0  0  0  0  0  0  0  0  0  0
   -2.7096   -0.3639    0.8962 C   0  0  0  0  0  0  0  0  0  0  0  0
   -1.6035   -0.0353   -0.0637 C   0  0  2  0  0  0  0  0  0  0  0  0
   -0.2233   -0.3388    0.5110 C   0  0  0  0  0  0  0  0  0  0  0  0
    0.8187    0.0186   -0.5543 C   0  0  0  0  0  0  0  0  0  0  0  0
    2.1341   -0.2296   -0.1184 N   0  0  0  0  0  0  0  0  0  0  0  0
   -1.6003    1.3414   -0.4708 N   0  0  0  0  0  0  0  0  0  0  0  0
    0.4587   -0.6933   -1.6992 O   0  0  0  0  0  0  0  0  0  0  0  0
    2.6548    0.4799    0.9712 C   0  0  0  0  0  0  0  0  0  0  0  0
    3.9665    1.1739    0.7093 C   0  0  0  0  0  0  0  0  0  0  0  0
    4.8594    0.5058   -0.1593 N   0  0  0  0  0  0  0  0  0  0  0  0
    4.3458   -0.2931   -1.1902 C   0  0  0  0  0  0  0  0  0  0  0  0
    3.0087   -0.9322   -0.9602 C   0  0  0  0  0  0  0  0  0  0  0  0
    5.9738   -0.1505    0.4035 C   0  0  0  0  0  0  0  0  0  0  0  0
    6.3786   -1.1126   -0.5950 N   0  0  0  0  0  0  0  0  0  0  0  0
    5.2950   -1.3754   -1.4111 N   0  0  0  0  0  0  0  0  0  0  0  0
    7.0954    0.8427    0.6644 C   0  0  0  0  0  0  0  0  0  0  0  0
    6.6809    1.8173    1.5309 F   0  0  0  0  0  0  0  0  0  0  0  0
    7.4253    1.4084   -0.5480 F   0  0  0  0  0  0  0  0  0  0  0  0
    8.2241    0.2484    1.1832 F   0  0  0  0  0  0  0  0  0  0  0  0
   -7.5906    1.0086   -1.1044 F   0  0  0  0  0  0  0  0  0  0  0  0
   -5.5222    0.3516   -2.4185 H   0  0  0  0  0  0  0  0  0  0  0  0
   -6.4313   -1.0371   -1.7822 H   0  0  0  0  0  0  0  0  0  0  0  0
   -3.6125   -0.6442   -1.7321 H   0  0  0  0  0  0  0  0  0  0  0  0
   -4.2088    1.0253    0.1338 H   0  0  0  0  0  0  0  0  0  0  0  0
   -5.2843   -1.5711    1.1238 H   0  0  0  0  0  0  0  0  0  0  0  0
   -4.7953   -0.2941    2.2975 H   0  0  0  0  0  0  0  0  0  0  0  0
   -6.4984    1.1422    1.5512 H   0  0  0  0  0  0  0  0  0  0  0  0
   -5.9913    1.7676   -0.5831 H   0  0  0  0  0  0  0  0  0  0  0  0
   -2.5054    0.1234    1.7983 H   0  0  0  0  0  0  0  0  0  0  0  0
   -2.6326   -1.4525    1.0090 H   0  0  0  0  0  0  0  0  0  0  0  0
   -1.7250   -0.5450   -1.0688 H   0  0  0  0  0  0  0  0  0  0  0  0
   -0.0976    0.2677    1.3832 H   0  0  0  0  0  0  0  0  0  0  0  0
   -0.2071   -1.3451    0.6322 H   0  0  0  0  0  0  0  0  0  0  0  0
    0.6528    1.2650   -0.7214 H   0  0  0  0  0  0  0  0  0  0  0  0
   -2.1671    1.6369   -1.3695 H   0  0  0  0  0  0  0  0  0  0  0  0
   -1.9621    2.0527    0.2999 H   0  0  0  0  0  0  0  0  0  0  0  0
    0.3742   -1.3726   -1.6703 H   0  0  0  0  0  0  0  0  0  0  0  0
    2.6872   -0.1217    1.7903 H   0  0  0  0  0  0  0  0  0  0  0  0
    1.9910    1.4311    1.2150 H   0  0  0  0  0  0  0  0  0  0  0  0
    4.0183    2.2407    0.3949 H   0  0  0  0  0  0  0  0  0  0  0  0
    4.5057    1.2040    1.7505 H   0  0  0  0  0  0  0  0  0  0  0  0
    4.5625    0.2250   -2.1236 H   0  0  0  0  0  0  0  0  0  0  0  0
    2.5597   -0.8447   -2.0581 H   0  0  0  0  0  0  0  0  0  0  0  0
    2.9808   -1.8771   -0.6717 H   0  0  0  0  0  0  0  0  0  0  0  0
    5.8021   -0.6660    1.4613 H   0  0  0  0  0  0  0  0  0  0  0  0
    7.1320   -0.9016   -1.0671 H   0  0  0  0  0  0  0  0  0  0  0  0
    4.7620   -2.3580   -0.8614 H   0  0  0  0  0  0  0  0  0  0  0  0
   -5.3587    0.3245   -2.4730 H   0  0  0  0  0  0  0  0  0  0  0  0
   -6.3562   -0.9924   -1.8350 H   0  0  0  0  0  0  0  0  0  0  0  0
   -3.5460   -0.7344   -1.6636 H   0  0  0  0  0  0  0  0  0  0  0  0
   -4.1065    1.0324    0.0723 H   0  0  0  0  0  0  0  0  0  0  0  0
   -5.4065   -1.4383    1.1439 H   0  0  0  0  0  0  0  0  0  0  0  0
   -4.9154   -0.1678    2.3255 H   0  0  0  0  0  0  0  0  0  0  0  0
   -6.4847    1.3283    1.4205 H   0  0  0  0  0  0  0  0  0  0  0  0
   -5.7979    1.8447   -0.7587 H   0  0  0  0  0  0  0  0  0  0  0  0
   -2.5830    0.1237    1.8732 H   0  0  0  0  0  0  0  0  0  0  0  0
   -2.6680   -1.4816    1.0706 H   0  0  0  0  0  0  0  0  0  0  0  0
   -1.6871   -0.6744   -0.9705 H   0  0  0  0  0  0  0  0  0  0  0  0
   -0.1068    0.2605    1.4239 H   0  0  0  0  0  0  0  0  0  0  0  0
   -0.2084   -1.3921    0.7835 H   0  0  0  0  0  0  0  0  0  0  0  0
    0.6767    1.1061   -0.7372 H   0  0  0  0  0  0  0  0  0  0  0  0
   -1.9538    1.9848    0.2639 H   0  0  0  0  0  0  0  0  0  0  0  0
   -2.0231    1.4784   -1.4086 H   0  0  0  0  0  0  0  0  0  0  0  0
    0.2586   -1.6244   -1.3994 H   0  0  0  0  0  0  0  0  0  0  0  0
    2.7701   -0.2043    1.8524 H   0  0  0  0  0  0  0  0  0  0  0  0
    1.9256    1.2635    1.3013 H   0  0  0  0  0  0  0  0  0  0  0  0
    3.8337    2.2288    0.3616 H   0  0  0  0  0  0  0  0  0  0  0  0
    4.4561    1.2858    1.7202 H   0  0  0  0  0  0  0  0  0  0  0  0
    4.3498    0.3106   -2.1467 H   0  0  0  0  0  0  0  0  0  0  0  0
    2.5345   -1.0212   -1.9844 H   0  0  0  0  0  0  0  0  0  0  0  0
    3.1360   -1.9582   -0.5859 H   0  0  0  0  0  0  0  0  0  0  0  0
    5.7605   -0.6813    1.3588 H   0  0  0  0  0  0  0  0  0  0  0  0
    7.1099   -0.6302   -1.1991 H   0  0  0  0  0  0  0  0  0  0  0  0
    4.9090   -2.3095   -1.1270 H   0  0  0  0  0  0  0  0  0  0  0  0
  1  2  1  0
  2  3  1  0
  3  4  1  0
  4  5  1  0
  1  6  1  0
  5  6  1  0
  5  7  1  0
  2  8  1  0
  3  9  1  0
  9 10  1  0
 10 11  1  0
 11 12  1  0
 12 13  1  0
 10 14  1  0
 12 15  1  0
 13 16  1  0
 16 17  1  0
 17 18  1  0
 18 19  1  0
 13 20  1  0
 19 20  1  0
 18 21  1  0
 21 22  1  0
 19 23  1  0
 22 23  1  0
 21 24  1  0
 24 25  1  0
 24 26  1  0
 24 27  1  0
  6 28  1  0
 29 30  1  0
 30 31  1  0
 31 32  1  0
 32 33  1  0
 29 34  1  0
 33 34  1  0
 33 35  1  0
 30 36  1  0
 31 37  1  0
 37 38  1  0
 38 39  1  0
 39 40  1  0
 40 41  1  0
 38 42  1  0
 40 43  1  0
 41 44  1  0
 44 45  1  0
 45 46  1  0
 46 47  1  0
 41 48  1  0
 47 48  1  0
 46 49  1  0
 49 50  1  0
 47 51  1  0
 50 51  1  0
 49 52  1  0
 52 53  1  0
 52 54  1  0
 52 55  1  0
 34 56  1  0
  1 57  1  0
  1 58  1  0
  2 59  1  0
  3 60  1  0
  4 61  1  0
  4 62  1  0
  5 63  1  0
  6 64  1  0
  9 65  1  0
  9 66  1  0
 10 67  1  6
 11 68  1  0
 11 69  1  0
 12 70  1  6
 14 71  1  0
 14 72  1  0
 15 73  1  0
 16 74  1  0
 16 75  1  0
 17 76  1  0
 17 77  1  0
 19 78  1  0
 20 79  1  0
 20 80  1  0
 21 81  1  0
 22 82  1  0
 23 83  1  0
 29 84  1  0
 29 85  1  0
 30 86  1  0
 31 87  1  0
 32 88  1  0
 32 89  1  0
 33 90  1  0
 34 91  1  0
 37 92  1  0
 37 93  1  0
 38 94  1  6
 39 95  1  0
 39 96  1  0
 40 97  1  0
 42 98  1  0
 42 99  1  0
 43100  1  0
 44101  1  0
 44102  1  0
 45103  1  0
 45104  1  0
 47105  1  0
 48106  1  0
 48107  1  0
 49108  1  0
 50109  1  0
 51110  1  0
M  END
>  <PDBID>  (1) 
1X70

>  <PDB ID>  (1) 
1X70

>  <Generic Name>  (1) 
Sitagliptin

>  <Brand Name>  (1) 
Janumet#Janumet XR#Januvia#Xelevia

>  <DrugBank ID>  (1) 
DB01261

>  <ATC Codes>  (1) 
A10BD12#A10BH51#A10BH01#A10BD07

>  <Ligand ID>  (1) 
715

>  <Target Name>  (1) 
Dipeptidyl peptidase 4

>  <UniProt ID>  (1) 
P27487

>  <PDB ID.1>  (1) 
1X70

>  <Seq. Identity>  (1) 
100%

$$$$
