PDB_DB00806_03
     RDKit          3D

 96 98  0  0  0  0  0  0  0  0999 V2000
    5.6001   -0.2526   -0.0502 C   0  0  0  0  0  0  0  0  0  0  0  0
    4.9833    0.1889   -1.3376 C   0  0  0  0  0  0  0  0  0  0  0  0
    5.5965    1.3321   -1.7927 O   0  0  0  0  0  0  0  0  0  0  0  0
    3.4654    0.3568   -1.2079 C   0  0  0  0  0  0  0  0  0  0  0  0
    2.9249   -0.9903   -0.8131 C   0  0  0  0  0  0  0  0  0  0  0  0
    1.4442   -1.0440   -0.6336 C   0  0  0  0  0  0  0  0  0  0  0  0
    0.9177   -0.1122    0.4389 C   0  0  0  0  0  0  0  0  0  0  0  0
   -0.4972   -0.2164    0.5568 N   0  0  0  0  0  0  0  0  0  0  0  0
   -1.2362    0.3017   -0.5703 C   0  0  0  0  0  0  0  0  0  0  0  0
   -1.3301   -0.5515   -1.6373 O   0  0  0  0  0  0  0  0  0  0  0  0
   -2.6113    0.6268   -0.0523 C   0  0  0  0  0  0  0  0  0  0  0  0
   -3.6638    0.3902   -1.0092 N   0  0  0  0  0  0  0  0  0  0  0  0
   -3.7598    1.4157   -2.0178 C   0  0  0  0  0  0  0  0  0  0  0  0
   -4.8286    0.3648   -0.1423 C   0  0  0  0  0  0  0  0  0  0  0  0
   -4.3888   -0.1698    1.1341 N   0  0  0  0  0  0  0  0  0  0  0  0
   -2.9931   -0.4425    0.9826 C   0  0  0  0  0  0  0  0  0  0  0  0
   -2.2141   -0.3477    2.1741 N   0  0  0  0  0  0  0  0  0  0  0  0
   -1.8016   -1.7244    2.4967 C   0  0  0  0  0  0  0  0  0  0  0  0
   -0.9628    0.3418    1.8076 C   0  0  0  0  0  0  0  0  0  0  0  0
   -0.0758    0.1021    2.8354 O   0  0  0  0  0  0  0  0  0  0  0  0
    5.6001   -0.2526   -0.0502 C   0  0  0  0  0  0  0  0  0  0  0  0
    4.9833    0.1889   -1.3376 C   0  0  0  0  0  0  0  0  0  0  0  0
    5.5965    1.3321   -1.7927 O   0  0  0  0  0  0  0  0  0  0  0  0
    3.4654    0.3568   -1.2079 C   0  0  0  0  0  0  0  0  0  0  0  0
    2.9249   -0.9903   -0.8131 C   0  0  0  0  0  0  0  0  0  0  0  0
    1.4442   -1.0440   -0.6336 C   0  0  0  0  0  0  0  0  0  0  0  0
    0.9177   -0.1122    0.4389 C   0  0  0  0  0  0  0  0  0  0  0  0
   -0.4972   -0.2164    0.5568 N   0  0  0  0  0  0  0  0  0  0  0  0
   -1.2362    0.3017   -0.5703 C   0  0  0  0  0  0  0  0  0  0  0  0
   -1.3301   -0.5515   -1.6373 O   0  0  0  0  0  0  0  0  0  0  0  0
   -2.6113    0.6268   -0.0523 C   0  0  0  0  0  0  0  0  0  0  0  0
   -3.6638    0.3902   -1.0092 N   0  0  0  0  0  0  0  0  0  0  0  0
   -3.7598    1.4157   -2.0178 C   0  0  0  0  0  0  0  0  0  0  0  0
   -4.8286    0.3648   -0.1423 C   0  0  0  0  0  0  0  0  0  0  0  0
   -4.3888   -0.1698    1.1341 N   0  0  0  0  0  0  0  0  0  0  0  0
   -2.9931   -0.4425    0.9826 C   0  0  0  0  0  0  0  0  0  0  0  0
   -2.2141   -0.3477    2.1741 N   0  0  0  0  0  0  0  0  0  0  0  0
   -1.8016   -1.7244    2.4967 C   0  0  0  0  0  0  0  0  0  0  0  0
   -0.9628    0.3418    1.8076 C   0  0  0  0  0  0  0  0  0  0  0  0
   -0.0758    0.1021    2.8354 O   0  0  0  0  0  0  0  0  0  0  0  0
    5.5319   -1.3448    0.1023 H   0  0  0  0  0  0  0  0  0  0  0  0
    5.1405    0.3096    0.8074 H   0  0  0  0  0  0  0  0  0  0  0  0
    6.6634    0.0169   -0.0700 H   0  0  0  0  0  0  0  0  0  0  0  0
    5.1477   -0.6228   -2.0881 H   0  0  0  0  0  0  0  0  0  0  0  0
    6.3307    1.6549   -1.1908 H   0  0  0  0  0  0  0  0  0  0  0  0
    3.2552    1.1629   -0.4917 H   0  0  0  0  0  0  0  0  0  0  0  0
    3.0774    0.6049   -2.2022 H   0  0  0  0  0  0  0  0  0  0  0  0
    3.4844   -1.3275    0.0858 H   0  0  0  0  0  0  0  0  0  0  0  0
    3.1920   -1.7013   -1.6211 H   0  0  0  0  0  0  0  0  0  0  0  0
    0.9899   -0.7745   -1.6265 H   0  0  0  0  0  0  0  0  0  0  0  0
    1.1799   -2.1055   -0.4262 H   0  0  0  0  0  0  0  0  0  0  0  0
    1.1382    0.9315    0.0677 H   0  0  0  0  0  0  0  0  0  0  0  0
    1.4291   -0.2323    1.3941 H   0  0  0  0  0  0  0  0  0  0  0  0
   -0.7150    1.2330   -0.8993 H   0  0  0  0  0  0  0  0  0  0  0  0
   -1.4119   -1.4702   -1.3344 H   0  0  0  0  0  0  0  0  0  0  0  0
   -2.7301    1.6329    0.3407 H   0  0  0  0  0  0  0  0  0  0  0  0
   -3.1334    1.0707   -2.8817 H   0  0  0  0  0  0  0  0  0  0  0  0
   -4.7990    1.4244   -2.3760 H   0  0  0  0  0  0  0  0  0  0  0  0
   -3.4061    2.3902   -1.6408 H   0  0  0  0  0  0  0  0  0  0  0  0
   -5.6602   -0.2209   -0.5845 H   0  0  0  0  0  0  0  0  0  0  0  0
   -5.1346    1.4295    0.0052 H   0  0  0  0  0  0  0  0  0  0  0  0
   -4.5902    0.4821    1.9175 H   0  0  0  0  0  0  0  0  0  0  0  0
   -2.8984   -1.4249    0.4652 H   0  0  0  0  0  0  0  0  0  0  0  0
   -0.7506   -1.9264    2.1985 H   0  0  0  0  0  0  0  0  0  0  0  0
   -2.4222   -2.4769    1.9552 H   0  0  0  0  0  0  0  0  0  0  0  0
   -1.8874   -1.8996    3.5793 H   0  0  0  0  0  0  0  0  0  0  0  0
   -1.1282    1.4369    1.7733 H   0  0  0  0  0  0  0  0  0  0  0  0
   -0.4619   -0.4407    3.5790 H   0  0  0  0  0  0  0  0  0  0  0  0
    5.5319   -1.3448    0.1023 H   0  0  0  0  0  0  0  0  0  0  0  0
    5.1405    0.3096    0.8074 H   0  0  0  0  0  0  0  0  0  0  0  0
    6.6634    0.0169   -0.0700 H   0  0  0  0  0  0  0  0  0  0  0  0
    5.1477   -0.6228   -2.0881 H   0  0  0  0  0  0  0  0  0  0  0  0
    6.3307    1.6549   -1.1908 H   0  0  0  0  0  0  0  0  0  0  0  0
    3.2552    1.1629   -0.4917 H   0  0  0  0  0  0  0  0  0  0  0  0
    3.0774    0.6049   -2.2022 H   0  0  0  0  0  0  0  0  0  0  0  0
    3.4844   -1.3275    0.0858 H   0  0  0  0  0  0  0  0  0  0  0  0
    3.1920   -1.7013   -1.6211 H   0  0  0  0  0  0  0  0  0  0  0  0
    0.9899   -0.7745   -1.6265 H   0  0  0  0  0  0  0  0  0  0  0  0
    1.1799   -2.1055   -0.4262 H   0  0  0  0  0  0  0  0  0  0  0  0
    1.1382    0.9315    0.0677 H   0  0  0  0  0  0  0  0  0  0  0  0
    1.4291   -0.2323    1.3941 H   0  0  0  0  0  0  0  0  0  0  0  0
   -0.7150    1.2330   -0.8993 H   0  0  0  0  0  0  0  0  0  0  0  0
   -1.4119   -1.4702   -1.3344 H   0  0  0  0  0  0  0  0  0  0  0  0
   -2.7301    1.6329    0.3407 H   0  0  0  0  0  0  0  0  0  0  0  0
   -3.1334    1.0707   -2.8817 H   0  0  0  0  0  0  0  0  0  0  0  0
   -4.7990    1.4244   -2.3760 H   0  0  0  0  0  0  0  0  0  0  0  0
   -3.4061    2.3902   -1.6408 H   0  0  0  0  0  0  0  0  0  0  0  0
   -5.6602   -0.2209   -0.5845 H   0  0  0  0  0  0  0  0  0  0  0  0
   -5.1346    1.4295    0.0052 H   0  0  0  0  0  0  0  0  0  0  0  0
   -4.5902    0.4821    1.9175 H   0  0  0  0  0  0  0  0  0  0  0  0
   -2.8984   -1.4249    0.4652 H   0  0  0  0  0  0  0  0  0  0  0  0
   -0.7506   -1.9264    2.1985 H   0  0  0  0  0  0  0  0  0  0  0  0
   -2.4222   -2.4769    1.9552 H   0  0  0  0  0  0  0  0  0  0  0  0
   -1.8874   -1.8996    3.5793 H   0  0  0  0  0  0  0  0  0  0  0  0
   -1.1282    1.4369    1.7733 H   0  0  0  0  0  0  0  0  0  0  0  0
   -0.4619   -0.4407    3.5790 H   0  0  0  0  0  0  0  0  0  0  0  0
  1  2  1  0
  2  3  1  0
  2  4  1  0
  4  5  1  0
  5  6  1  0
  6  7  1  0
  7  8  1  0
  8  9  1  0
  9 10  1  0
  9 11  1  0
 11 12  1  0
 12 13  1  0
 12 14  1  0
 14 15  1  0
 11 16  1  0
 15 16  1  0
 16 17  1  0
 17 18  1  0
  8 19  1  0
 17 19  1  0
 19 20  1  0
 21 22  1  0
 22 23  1  0
 22 24  1  0
 24 25  1  0
 25 26  1  0
 26 27  1  0
 27 28  1  0
 28 29  1  0
 29 30  1  0
 29 31  1  0
 31 32  1  0
 32 33  1  0
 32 34  1  0
 34 35  1  0
 31 36  1  0
 35 36  1  0
 36 37  1  0
 37 38  1  0
 28 39  1  0
 37 39  1  0
 39 40  1  0
  1 41  1  0
  1 42  1  0
  1 43  1  0
  2 44  1  0
  3 45  1  0
  4 46  1  0
  4 47  1  0
  5 48  1  0
  5 49  1  0
  6 50  1  0
  6 51  1  0
  7 52  1  0
  7 53  1  0
  9 54  1  0
 10 55  1  0
 11 56  1  0
 13 57  1  0
 13 58  1  0
 13 59  1  0
 14 60  1  0
 14 61  1  0
 15 62  1  0
 16 63  1  0
 18 64  1  0
 18 65  1  0
 18 66  1  0
 19 67  1  0
 20 68  1  0
 21 69  1  0
 21 70  1  0
 21 71  1  0
 22 72  1  0
 23 73  1  0
 24 74  1  0
 24 75  1  0
 25 76  1  0
 25 77  1  0
 26 78  1  0
 26 79  1  0
 27 80  1  0
 27 81  1  0
 29 82  1  0
 30 83  1  0
 31 84  1  0
 33 85  1  0
 33 86  1  0
 33 87  1  0
 34 88  1  0
 34 89  1  0
 35 90  1  0
 36 91  1  0
 38 92  1  0
 38 93  1  0
 38 94  1  0
 39 95  1  0
 40 96  1  0
M  END
>  <PDBID>  (1) 
3TVX

>  <PDB ID>  (1) 
3TVX

>  <Generic Name>  (1) 
Pentoxifylline

>  <Brand Name>  (1) 
Gapeam Budibac#Nu-pentoxifylline-SR 400 mg#Pentoxifylline#Pentoxifylline SR#Ratio-pentoxifylline#Trental#Trental Srt 400mg#Trental Tab 400mg#Agapurin#Agapurin SR#An Ruo Ning#Angiopent#Ao Le Ni#Ao Nuo Hong#Aotong#Azupentat#Behrifil#Bo Shu Te#Claudicat#Durapental#Elorgan#Endopentoksas#Pentilin#Pentilin Retard#Pentoflux#Pentofyllin#Pentoksifilin#Pentolab#Pentomer#Pentoxil#Rentylin#Torental#Trentilin Retard

>  <DrugBank ID>  (1) 
DB00806

>  <ATC Codes>  (1) 
C04AD03

>  <Ligand ID>  (1) 
PNX

>  <Target Name>  (1) 
cAMP-specific 3',5'-cyclic phosphodiesterase 4B

>  <UniProt ID>  (1) 
Q07343

>  <PDB ID.1>  (1) 
3TVX

>  <Seq. Identity>  (1) 
84%

$$$$
