PDB_DB00705_02
     RDKit          3D

 78 81  0  0  0  0  0  0  0  0999 V2000
   -4.1981    0.3823    0.8668 C   0  0  0  0  0  0  0  0  0  0  0  0
   -5.0250   -0.8227    0.4906 C   0  0  0  0  0  0  0  0  0  0  0  0
   -5.9450   -1.2872    1.6106 C   0  0  0  0  0  0  0  0  0  0  0  0
   -5.0950   -1.5150    2.8396 C   0  0  0  0  0  0  0  0  0  0  0  0
   -4.6538   -0.0802    3.2174 C   0  0  0  0  0  0  0  0  0  0  0  0
   -2.0454    1.3072    0.6585 C   0  0  0  0  0  0  0  0  0  0  0  0
   -0.8815    1.5938   -0.2933 C   0  0  0  0  0  0  0  0  0  0  0  0
   -1.7475    0.0800   -1.9125 C   0  0  0  0  0  0  0  0  0  0  0  0
   -3.0650    0.5868   -1.2947 C   0  0  0  0  0  0  0  0  0  0  0  0
    0.6268    0.1017   -1.5583 C   0  0  0  0  0  0  0  0  0  0  0  0
    1.5107   -0.4986   -0.5224 C   0  0  0  0  0  0  0  0  0  0  0  0
    2.7965   -1.0073   -1.1383 C   0  0  0  0  0  0  0  0  0  0  0  0
    4.9260   -1.7396    0.0170 C   0  0  0  0  0  0  0  0  0  0  0  0
    5.8871   -0.6285   -0.3346 C   0  0  0  0  0  0  0  0  0  0  0  0
    5.7292    0.4546    0.7066 C   0  0  0  0  0  0  0  0  0  0  0  0
    4.3168    0.9702    0.6363 C   0  0  0  0  0  0  0  0  0  0  0  0
    3.2861   -0.0784    0.9405 C   0  0  0  0  0  0  0  0  0  0  0  0
    3.5253   -1.3516    0.1762 C   0  0  0  0  0  0  0  0  0  0  0  0
   -6.6842    0.0233   -1.1491 C   0  0  0  0  0  0  0  0  0  0  0  0
   -7.9937   -0.1959   -0.3526 C   0  0  0  0  0  0  0  0  0  0  0  0
   -6.4536    1.4754   -1.3768 C   0  0  0  0  0  0  0  0  0  0  0  0
    9.3330    0.4542    0.6457 C   0  0  0  0  0  0  0  0  0  0  0  0
   -5.6528   -0.8065   -0.7543 N   0  0  0  0  0  0  0  0  0  0  0  0
   -3.6908    0.2668    2.2335 N   0  0  0  0  0  0  0  0  0  0  0  0
   -2.9538    0.3404    0.0850 N   0  0  0  0  0  0  0  0  0  0  0  0
   -0.6303    0.5703   -1.1919 N   0  0  0  0  0  0  0  0  0  0  0  0
    2.0017    0.4146    0.4854 N   0  0  0  0  0  0  0  0  0  0  0  0
    7.2341   -1.1692   -0.1929 N   0  0  0  0  0  0  0  0  0  0  0  0
    0.3639   -0.9993   -2.4642 O   0  0  0  0  0  0  0  0  0  0  0  0
    9.5815   -1.2479   -1.4000 O   0  0  0  0  0  0  0  0  0  0  0  0
    8.0478    0.8418   -1.7556 O   0  0  0  0  0  0  0  0  0  0  0  0
    8.4003   -0.1379   -0.6056 S   0  0  0  0  0  0  0  0  0  0  0  0
   -4.6986    1.3415    0.7814 H   0  0  0  0  0  0  0  0  0  0  0  0
   -4.2525   -1.6525    0.4293 H   0  0  0  0  0  0  0  0  0  0  0  0
   -6.6848   -0.5444    1.9066 H   0  0  0  0  0  0  0  0  0  0  0  0
   -6.3424   -2.2761    1.3295 H   0  0  0  0  0  0  0  0  0  0  0  0
   -5.7211   -1.8714    3.6799 H   0  0  0  0  0  0  0  0  0  0  0  0
   -4.2135   -2.1338    2.6628 H   0  0  0  0  0  0  0  0  0  0  0  0
   -4.1710   -0.0735    4.1918 H   0  0  0  0  0  0  0  0  0  0  0  0
   -5.5372    0.5544    3.1494 H   0  0  0  0  0  0  0  0  0  0  0  0
   -2.5297    2.2740    0.8635 H   0  0  0  0  0  0  0  0  0  0  0  0
   -1.6841    0.9012    1.6160 H   0  0  0  0  0  0  0  0  0  0  0  0
   -1.2202    2.4993   -0.8880 H   0  0  0  0  0  0  0  0  0  0  0  0
   -0.0829    1.9672    0.3349 H   0  0  0  0  0  0  0  0  0  0  0  0
   -1.8013   -1.0407   -1.8192 H   0  0  0  0  0  0  0  0  0  0  0  0
   -1.7286    0.3529   -2.9887 H   0  0  0  0  0  0  0  0  0  0  0  0
   -3.8395    0.0792   -1.8631 H   0  0  0  0  0  0  0  0  0  0  0  0
   -3.1633    1.6842   -1.5543 H   0  0  0  0  0  0  0  0  0  0  0  0
    1.1919    0.8298   -2.1523 H   0  0  0  0  0  0  0  0  0  0  0  0
    1.0566   -1.4102   -0.0549 H   0  0  0  0  0  0  0  0  0  0  0  0
    2.6552   -1.8732   -1.7802 H   0  0  0  0  0  0  0  0  0  0  0  0
    3.3920   -0.1801   -1.6073 H   0  0  0  0  0  0  0  0  0  0  0  0
    4.9986   -2.6067   -0.6761 H   0  0  0  0  0  0  0  0  0  0  0  0
    5.2921   -2.1419    1.0008 H   0  0  0  0  0  0  0  0  0  0  0  0
    5.6919   -0.2495   -1.3564 H   0  0  0  0  0  0  0  0  0  0  0  0
    6.3717    1.3067    0.3561 H   0  0  0  0  0  0  0  0  0  0  0  0
    6.0332    0.0767    1.6805 H   0  0  0  0  0  0  0  0  0  0  0  0
    4.2182    1.7953    1.3666 H   0  0  0  0  0  0  0  0  0  0  0  0
    4.1747    1.4102   -0.3724 H   0  0  0  0  0  0  0  0  0  0  0  0
    3.2235   -0.2537    2.0250 H   0  0  0  0  0  0  0  0  0  0  0  0
    2.9389   -2.1569    0.6452 H   0  0  0  0  0  0  0  0  0  0  0  0
   -6.9905   -0.3595   -2.1895 H   0  0  0  0  0  0  0  0  0  0  0  0
   -8.8816   -0.1015   -1.0492 H   0  0  0  0  0  0  0  0  0  0  0  0
   -8.1579    0.5578    0.4106 H   0  0  0  0  0  0  0  0  0  0  0  0
   -7.9911   -1.2434   -0.0489 H   0  0  0  0  0  0  0  0  0  0  0  0
   -6.5168    2.1144   -0.4746 H   0  0  0  0  0  0  0  0  0  0  0  0
   -5.6145    1.6367   -2.0384 H   0  0  0  0  0  0  0  0  0  0  0  0
   -7.3547    1.8287   -1.9881 H   0  0  0  0  0  0  0  0  0  0  0  0
   10.4323    0.4563    0.3817 H   0  0  0  0  0  0  0  0  0  0  0  0
    9.1400    1.4935    1.0030 H   0  0  0  0  0  0  0  0  0  0  0  0
    9.2824   -0.1937    1.5638 H   0  0  0  0  0  0  0  0  0  0  0  0
   -5.4501   -1.6194   -1.3800 H   0  0  0  0  0  0  0  0  0  0  0  0
   -2.9755   -0.5257    2.2089 H   0  0  0  0  0  0  0  0  0  0  0  0
    2.1434    1.3374   -0.0079 H   0  0  0  0  0  0  0  0  0  0  0  0
    7.2692   -1.6197    0.7396 H   0  0  0  0  0  0  0  0  0  0  0  0
    0.0941   -1.7852   -1.9420 H   0  0  0  0  0  0  0  0  0  0  0  0
    9.0205   -1.9474   -1.8041 H   0  0  0  0  0  0  0  0  0  0  0  0
    8.1312    1.8063   -1.6040 H   0  0  0  0  0  0  0  0  0  0  0  0
  1  2  1  0
  2  3  1  0
  3  4  1  0
  4  5  1  0
  6  7  1  0
  8  9  1  0
 10 11  1  0
 11 12  1  0
 13 14  1  0
 14 15  1  0
 15 16  1  0
 16 17  1  0
 12 18  1  0
 13 18  1  0
 17 18  1  0
 19 20  1  0
 19 21  1  0
  2 23  1  0
 19 23  1  0
  1 24  1  0
  5 24  1  0
  1 25  1  0
  6 25  1  0
  9 25  1  0
  7 26  1  0
  8 26  1  0
 10 26  1  0
 11 27  1  0
 17 27  1  0
 14 28  1  0
 10 29  1  0
 22 32  1  0
 28 32  1  0
 32 30  1  0
 31 32  1  0
  1 33  1  0
  2 34  1  0
  3 35  1  0
  3 36  1  0
  4 37  1  0
  4 38  1  0
  5 39  1  0
  5 40  1  0
  6 41  1  0
  6 42  1  0
  7 43  1  0
  7 44  1  0
  8 45  1  0
  8 46  1  0
  9 47  1  0
  9 48  1  0
 10 49  1  0
 11 50  1  0
 12 51  1  0
 12 52  1  0
 13 53  1  0
 13 54  1  0
 14 55  1  0
 15 56  1  0
 15 57  1  0
 16 58  1  0
 16 59  1  0
 17 60  1  0
 18 61  1  0
 19 62  1  0
 20 63  1  0
 20 64  1  0
 20 65  1  0
 21 66  1  0
 21 67  1  0
 21 68  1  0
 22 69  1  0
 22 70  1  0
 22 71  1  0
 23 72  1  0
 24 73  1  0
 27 74  1  0
 28 75  1  0
 29 76  1  0
 30 77  1  0
 31 78  1  0
M  END
>  <PDBID>  (1) 
1KLM

>  <PDB ID>  (1) 
1KLM

>  <Generic Name>  (1) 
Delavirdine

>  <Brand Name>  (1) 
Rescriptor

>  <DrugBank ID>  (1) 
DB00705

>  <ATC Codes>  (1) 
J05AG02

>  <Ligand ID>  (1) 
SPP

>  <Target Name>  (1) 
Reverse transcriptase/RNaseH

>  <UniProt ID>  (1) 
Q72547

>  <PDB ID.1>  (1) 
1KLM

>  <Seq. Identity>  (1) 
95%

$$$$
