PDB_DB00773_00
     RDKit          3D

176188  0  0  0  0  0  0  0  0999 V2000
   -0.3529   -5.8250   -0.3251 C   0  0  0  0  0  0  0  0  0  0  0  0
    0.7205   -4.9054   -0.3733 O   0  0  0  0  0  0  0  0  0  0  0  0
   -1.1673   -3.7748   -0.6688 C   0  0  0  0  0  0  0  0  0  0  0  0
   -1.5267   -5.0788   -0.5125 O   0  0  0  0  0  0  0  0  0  0  0  0
   -2.0469   -2.7838    0.0306 C   0  0  0  0  0  0  0  0  0  0  0  0
   -0.1050    2.0181   -2.6354 O   0  0  0  0  0  0  0  0  0  0  0  0
   -1.4858   -1.4210    0.1885 C   0  0  0  0  0  0  0  0  0  0  0  0
   -1.2089    0.6062   -3.9405 O   0  0  0  0  0  0  0  0  0  0  0  0
   -2.0324   -0.4104   -0.7920 C   0  0  2  0  0  0  0  0  0  0  0  0
   -6.5909    0.0810   -0.5524 O   0  0  0  0  0  0  0  0  0  0  0  0
   -0.9704    0.1531   -1.5932 C   0  0  1  0  0  0  0  0  0  0  0  0
   -5.4774    2.2828   -1.0405 O   0  0  0  0  0  0  0  0  0  0  0  0
   -1.2260    1.1848   -2.6436 C   0  0  1  0  0  0  0  0  0  0  0  0
   -3.6042    3.4297    0.2615 O   0  0  0  0  0  0  0  0  0  0  0  0
    0.8850    1.3815   -1.8815 C   0  0  0  0  0  0  0  0  0  0  0  0
    1.9607   -0.2042   -0.0471 O   0  0  0  0  0  0  0  0  0  0  0  0
    0.0074    0.8996   -0.7215 C   0  0  2  0  0  0  0  0  0  0  0  0
    3.4710    1.3541    0.3092 O   0  0  0  0  0  0  0  0  0  0  0  0
    0.6110   -0.0168    0.2398 C   0  0  1  0  0  0  0  0  0  0  0  0
    6.4192    2.1824   -1.1172 O   0  0  0  0  0  0  0  0  0  0  0  0
    0.0011   -1.3902    0.3433 C   0  0  0  0  0  0  0  0  0  0  0  0
    6.7702    0.1388   -0.1044 O   0  0  0  0  0  0  0  0  0  0  0  0
    0.7790   -2.4685   -0.3368 C   0  0  0  0  0  0  0  0  0  0  0  0
    4.9780   -2.1924    0.3318 O   0  0  0  0  0  0  0  0  0  0  0  0
    0.1444   -3.7828    0.1450 C   0  0  0  0  0  0  0  0  0  0  0  0
    3.9730   -0.1646    2.9171 O   0  0  0  0  0  0  0  0  0  0  0  0
   -3.0819    0.4937   -0.3221 C   0  0  0  0  0  0  0  0  0  0  0  0
   -4.3292   -0.4173   -0.0756 C   0  0  0  0  0  0  0  0  0  0  0  0
   -5.5316    0.3644    0.3098 C   0  0  0  0  0  0  0  0  0  0  0  0
   -5.3193    1.8429    0.2721 C   0  0  0  0  0  0  0  0  0  0  0  0
   -4.0834    2.3104    0.9382 C   0  0  0  0  0  0  0  0  0  0  0  0
   -2.9587    1.2496    0.9431 C   0  0  0  0  0  0  0  0  0  0  0  0
   -7.7014   -0.4038    0.1393 C   0  0  0  0  0  0  0  0  0  0  0  0
   -3.4744    4.5353    1.0833 C   0  0  0  0  0  0  0  0  0  0  0  0
    2.8026    0.3182    0.9292 C   0  0  2  0  0  0  0  0  0  0  0  0
    4.8146    1.4260    0.5252 C   0  0  2  0  0  0  0  0  0  0  0  0
    5.4088    2.5578   -0.2384 C   0  0  0  0  0  0  0  0  0  0  0  0
    7.3304    1.3144   -0.5360 C   0  0  2  0  0  0  0  0  0  0  0  0
    5.4033    0.1205   -0.0229 C   0  0  2  0  0  0  0  0  0  0  0  0
    4.9871   -0.9339    0.9776 C   0  0  1  0  0  0  0  0  0  0  0  0
    3.6751   -0.6627    1.6215 C   0  0  1  0  0  0  0  0  0  0  0  0
    8.1461    1.9919    0.5518 C   0  0  0  0  0  0  0  0  0  0  0  0
   -0.3529   -5.8250   -0.3251 C   0  0  0  0  0  0  0  0  0  0  0  0
    0.7205   -4.9054   -0.3733 O   0  0  0  0  0  0  0  0  0  0  0  0
   -1.1673   -3.7748   -0.6688 C   0  0  0  0  0  0  0  0  0  0  0  0
   -1.5267   -5.0788   -0.5125 O   0  0  0  0  0  0  0  0  0  0  0  0
   -2.0469   -2.7838    0.0306 C   0  0  0  0  0  0  0  0  0  0  0  0
   -0.1050    2.0181   -2.6354 O   0  0  0  0  0  0  0  0  0  0  0  0
   -1.4858   -1.4210    0.1885 C   0  0  0  0  0  0  0  0  0  0  0  0
   -1.2089    0.6062   -3.9405 O   0  0  0  0  0  0  0  0  0  0  0  0
   -2.0324   -0.4104   -0.7920 C   0  0  2  0  0  0  0  0  0  0  0  0
   -6.5909    0.0810   -0.5524 O   0  0  0  0  0  0  0  0  0  0  0  0
   -0.9704    0.1531   -1.5932 C   0  0  1  0  0  0  0  0  0  0  0  0
   -5.4774    2.2828   -1.0405 O   0  0  0  0  0  0  0  0  0  0  0  0
   -1.2260    1.1848   -2.6436 C   0  0  1  0  0  0  0  0  0  0  0  0
   -3.6042    3.4297    0.2615 O   0  0  0  0  0  0  0  0  0  0  0  0
    0.8850    1.3815   -1.8815 C   0  0  0  0  0  0  0  0  0  0  0  0
    1.9607   -0.2042   -0.0471 O   0  0  0  0  0  0  0  0  0  0  0  0
    0.0074    0.8996   -0.7215 C   0  0  2  0  0  0  0  0  0  0  0  0
    3.4710    1.3541    0.3092 O   0  0  0  0  0  0  0  0  0  0  0  0
    0.6110   -0.0168    0.2398 C   0  0  1  0  0  0  0  0  0  0  0  0
    6.4192    2.1824   -1.1172 O   0  0  0  0  0  0  0  0  0  0  0  0
    0.0011   -1.3902    0.3433 C   0  0  0  0  0  0  0  0  0  0  0  0
    6.7702    0.1388   -0.1044 O   0  0  0  0  0  0  0  0  0  0  0  0
    0.7790   -2.4685   -0.3368 C   0  0  0  0  0  0  0  0  0  0  0  0
    4.9780   -2.1924    0.3318 O   0  0  0  0  0  0  0  0  0  0  0  0
    0.1444   -3.7828    0.1450 C   0  0  0  0  0  0  0  0  0  0  0  0
    3.9730   -0.1646    2.9171 O   0  0  0  0  0  0  0  0  0  0  0  0
   -3.0819    0.4937   -0.3221 C   0  0  0  0  0  0  0  0  0  0  0  0
   -4.3292   -0.4173   -0.0756 C   0  0  0  0  0  0  0  0  0  0  0  0
   -5.5316    0.3644    0.3098 C   0  0  0  0  0  0  0  0  0  0  0  0
   -5.3193    1.8429    0.2721 C   0  0  0  0  0  0  0  0  0  0  0  0
   -4.0834    2.3104    0.9382 C   0  0  0  0  0  0  0  0  0  0  0  0
   -2.9587    1.2496    0.9431 C   0  0  0  0  0  0  0  0  0  0  0  0
   -7.7014   -0.4038    0.1393 C   0  0  0  0  0  0  0  0  0  0  0  0
   -3.4744    4.5353    1.0833 C   0  0  0  0  0  0  0  0  0  0  0  0
    2.8026    0.3182    0.9292 C   0  0  2  0  0  0  0  0  0  0  0  0
    4.8146    1.4260    0.5252 C   0  0  2  0  0  0  0  0  0  0  0  0
    5.4088    2.5578   -0.2384 C   0  0  0  0  0  0  0  0  0  0  0  0
    7.3304    1.3144   -0.5360 C   0  0  2  0  0  0  0  0  0  0  0  0
    5.4033    0.1205   -0.0229 C   0  0  2  0  0  0  0  0  0  0  0  0
    4.9871   -0.9339    0.9776 C   0  0  1  0  0  0  0  0  0  0  0  0
    3.6751   -0.6627    1.6215 C   0  0  1  0  0  0  0  0  0  0  0  0
    8.1461    1.9919    0.5518 C   0  0  0  0  0  0  0  0  0  0  0  0
   -0.2397   -6.6331   -1.0484 H   0  0  0  0  0  0  0  0  0  0  0  0
   -0.3307   -6.2229    0.7272 H   0  0  0  0  0  0  0  0  0  0  0  0
   -0.9158   -3.5072   -1.7091 H   0  0  0  0  0  0  0  0  0  0  0  0
   -3.0110   -2.7806   -0.5296 H   0  0  0  0  0  0  0  0  0  0  0  0
   -2.3209   -3.2731    1.0151 H   0  0  0  0  0  0  0  0  0  0  0  0
   -1.9027   -1.0762    1.1892 H   0  0  0  0  0  0  0  0  0  0  0  0
   -0.5653   -0.1143   -4.0156 H   0  0  0  0  0  0  0  0  0  0  0  0
   -2.5528   -1.1417   -1.5539 H   0  0  0  0  0  0  0  0  0  0  0  0
   -0.3430   -0.6124   -2.1397 H   0  0  0  0  0  0  0  0  0  0  0  0
   -5.7974    1.5585   -1.6382 H   0  0  0  0  0  0  0  0  0  0  0  0
   -2.1655    1.7200   -2.5945 H   0  0  0  0  0  0  0  0  0  0  0  0
    1.2426    0.5262   -2.4786 H   0  0  0  0  0  0  0  0  0  0  0  0
    1.6402    2.1022   -1.5828 H   0  0  0  0  0  0  0  0  0  0  0  0
   -0.3873    1.8510   -0.3061 H   0  0  0  0  0  0  0  0  0  0  0  0
    0.5190    0.5265    1.2478 H   0  0  0  0  0  0  0  0  0  0  0  0
    0.1885   -1.6758    1.4393 H   0  0  0  0  0  0  0  0  0  0  0  0
    1.8237   -2.3932    0.0125 H   0  0  0  0  0  0  0  0  0  0  0  0
    0.7683   -2.5311   -1.4081 H   0  0  0  0  0  0  0  0  0  0  0  0
    5.4016   -2.8874    0.8809 H   0  0  0  0  0  0  0  0  0  0  0  0
   -0.0509   -3.7820    1.2127 H   0  0  0  0  0  0  0  0  0  0  0  0
    3.2368    0.4205    3.1965 H   0  0  0  0  0  0  0  0  0  0  0  0
   -3.4098    1.2066   -1.0937 H   0  0  0  0  0  0  0  0  0  0  0  0
   -4.5453   -1.0230   -0.9638 H   0  0  0  0  0  0  0  0  0  0  0  0
   -4.0941   -1.1064    0.7583 H   0  0  0  0  0  0  0  0  0  0  0  0
   -5.8908    0.1105    1.3476 H   0  0  0  0  0  0  0  0  0  0  0  0
   -6.1932    2.2966    0.8300 H   0  0  0  0  0  0  0  0  0  0  0  0
   -4.2451    2.5959    1.9950 H   0  0  0  0  0  0  0  0  0  0  0  0
   -2.0849    1.8371    1.1573 H   0  0  0  0  0  0  0  0  0  0  0  0
   -3.2519    0.5831    1.8030 H   0  0  0  0  0  0  0  0  0  0  0  0
   -8.5246   -0.6222   -0.5438 H   0  0  0  0  0  0  0  0  0  0  0  0
   -8.0458    0.2624    0.9357 H   0  0  0  0  0  0  0  0  0  0  0  0
   -7.3853   -1.3837    0.5901 H   0  0  0  0  0  0  0  0  0  0  0  0
   -2.7444    4.2370    1.8922 H   0  0  0  0  0  0  0  0  0  0  0  0
   -2.9759    5.3619    0.5478 H   0  0  0  0  0  0  0  0  0  0  0  0
   -4.3839    4.8379    1.5953 H   0  0  0  0  0  0  0  0  0  0  0  0
    2.1537    0.7837    1.7265 H   0  0  0  0  0  0  0  0  0  0  0  0
    4.9848    1.4884    1.6196 H   0  0  0  0  0  0  0  0  0  0  0  0
    5.7478    3.3366    0.4783 H   0  0  0  0  0  0  0  0  0  0  0  0
    4.6191    3.0354   -0.8525 H   0  0  0  0  0  0  0  0  0  0  0  0
    8.0651    1.0524   -1.3404 H   0  0  0  0  0  0  0  0  0  0  0  0
    4.8914   -0.1212   -0.9819 H   0  0  0  0  0  0  0  0  0  0  0  0
    5.8091   -1.0063    1.7186 H   0  0  0  0  0  0  0  0  0  0  0  0
    3.1624   -1.6242    1.8198 H   0  0  0  0  0  0  0  0  0  0  0  0
    8.0579    3.0807    0.4829 H   0  0  0  0  0  0  0  0  0  0  0  0
    7.8024    1.5669    1.5173 H   0  0  0  0  0  0  0  0  0  0  0  0
    9.2299    1.7392    0.4671 H   0  0  0  0  0  0  0  0  0  0  0  0
   -0.2397   -6.6331   -1.0484 H   0  0  0  0  0  0  0  0  0  0  0  0
   -0.3307   -6.2229    0.7272 H   0  0  0  0  0  0  0  0  0  0  0  0
   -0.9158   -3.5072   -1.7091 H   0  0  0  0  0  0  0  0  0  0  0  0
   -3.0110   -2.7806   -0.5296 H   0  0  0  0  0  0  0  0  0  0  0  0
   -2.3209   -3.2731    1.0151 H   0  0  0  0  0  0  0  0  0  0  0  0
   -1.9027   -1.0762    1.1892 H   0  0  0  0  0  0  0  0  0  0  0  0
   -0.5653   -0.1143   -4.0156 H   0  0  0  0  0  0  0  0  0  0  0  0
   -2.5528   -1.1417   -1.5539 H   0  0  0  0  0  0  0  0  0  0  0  0
   -0.3430   -0.6124   -2.1397 H   0  0  0  0  0  0  0  0  0  0  0  0
   -5.7974    1.5585   -1.6382 H   0  0  0  0  0  0  0  0  0  0  0  0
   -2.1655    1.7200   -2.5945 H   0  0  0  0  0  0  0  0  0  0  0  0
    1.2426    0.5262   -2.4786 H   0  0  0  0  0  0  0  0  0  0  0  0
    1.6402    2.1022   -1.5828 H   0  0  0  0  0  0  0  0  0  0  0  0
   -0.3873    1.8510   -0.3061 H   0  0  0  0  0  0  0  0  0  0  0  0
    0.5190    0.5265    1.2478 H   0  0  0  0  0  0  0  0  0  0  0  0
    0.1885   -1.6758    1.4393 H   0  0  0  0  0  0  0  0  0  0  0  0
    1.8237   -2.3932    0.0125 H   0  0  0  0  0  0  0  0  0  0  0  0
    0.7683   -2.5311   -1.4081 H   0  0  0  0  0  0  0  0  0  0  0  0
    5.4016   -2.8874    0.8809 H   0  0  0  0  0  0  0  0  0  0  0  0
   -0.0509   -3.7820    1.2127 H   0  0  0  0  0  0  0  0  0  0  0  0
    3.2368    0.4205    3.1965 H   0  0  0  0  0  0  0  0  0  0  0  0
   -3.4098    1.2066   -1.0937 H   0  0  0  0  0  0  0  0  0  0  0  0
   -4.5453   -1.0230   -0.9638 H   0  0  0  0  0  0  0  0  0  0  0  0
   -4.0941   -1.1064    0.7583 H   0  0  0  0  0  0  0  0  0  0  0  0
   -5.8908    0.1105    1.3476 H   0  0  0  0  0  0  0  0  0  0  0  0
   -6.1932    2.2966    0.8300 H   0  0  0  0  0  0  0  0  0  0  0  0
   -4.2451    2.5959    1.9950 H   0  0  0  0  0  0  0  0  0  0  0  0
   -2.0849    1.8371    1.1573 H   0  0  0  0  0  0  0  0  0  0  0  0
   -3.2519    0.5831    1.8030 H   0  0  0  0  0  0  0  0  0  0  0  0
   -8.5246   -0.6222   -0.5438 H   0  0  0  0  0  0  0  0  0  0  0  0
   -8.0458    0.2624    0.9357 H   0  0  0  0  0  0  0  0  0  0  0  0
   -7.3853   -1.3837    0.5901 H   0  0  0  0  0  0  0  0  0  0  0  0
   -2.7444    4.2370    1.8922 H   0  0  0  0  0  0  0  0  0  0  0  0
   -2.9759    5.3619    0.5478 H   0  0  0  0  0  0  0  0  0  0  0  0
   -4.3839    4.8379    1.5953 H   0  0  0  0  0  0  0  0  0  0  0  0
    2.1537    0.7837    1.7265 H   0  0  0  0  0  0  0  0  0  0  0  0
    4.9848    1.4884    1.6196 H   0  0  0  0  0  0  0  0  0  0  0  0
    5.7478    3.3366    0.4783 H   0  0  0  0  0  0  0  0  0  0  0  0
    4.6191    3.0354   -0.8525 H   0  0  0  0  0  0  0  0  0  0  0  0
    8.0651    1.0524   -1.3404 H   0  0  0  0  0  0  0  0  0  0  0  0
    4.8914   -0.1212   -0.9819 H   0  0  0  0  0  0  0  0  0  0  0  0
    5.8091   -1.0063    1.7186 H   0  0  0  0  0  0  0  0  0  0  0  0
    3.1624   -1.6242    1.8198 H   0  0  0  0  0  0  0  0  0  0  0  0
    8.0579    3.0807    0.4829 H   0  0  0  0  0  0  0  0  0  0  0  0
    7.8024    1.5669    1.5173 H   0  0  0  0  0  0  0  0  0  0  0  0
    9.2299    1.7392    0.4671 H   0  0  0  0  0  0  0  0  0  0  0  0
  1  2  1  0
  1  4  1  0
  3  4  1  0
  3  5  1  0
  5  7  1  0
  7  9  1  0
  9 11  1  0
  6 13  1  0
  8 13  1  0
 11 13  1  0
  6 15  1  0
 11 17  1  0
 15 17  1  0
 16 19  1  0
 17 19  1  0
  7 21  1  0
 19 21  1  0
 21 23  1  0
  2 25  1  0
  3 25  1  0
 23 25  1  0
  9 27  1  0
 27 28  1  0
 10 29  1  0
 28 29  1  0
 12 30  1  0
 29 30  1  0
 14 31  1  0
 30 31  1  0
 27 32  1  0
 31 32  1  0
 10 33  1  0
 14 34  1  0
 16 35  1  0
 18 35  1  0
 18 36  1  0
 20 37  1  0
 36 37  1  0
 20 38  1  0
 22 38  1  0
 22 39  1  0
 36 39  1  0
 24 40  1  0
 39 40  1  0
 26 41  1  0
 35 41  1  0
 40 41  1  0
 38 42  1  0
 43 44  1  0
 43 46  1  0
 45 46  1  0
 45 47  1  0
 47 49  1  0
 49 51  1  0
 51 53  1  0
 48 55  1  0
 50 55  1  0
 53 55  1  0
 48 57  1  0
 53 59  1  0
 57 59  1  0
 58 61  1  0
 59 61  1  0
 49 63  1  0
 61 63  1  0
 63 65  1  0
 44 67  1  0
 45 67  1  0
 65 67  1  0
 51 69  1  0
 69 70  1  0
 52 71  1  0
 70 71  1  0
 54 72  1  0
 71 72  1  0
 56 73  1  0
 72 73  1  0
 69 74  1  0
 73 74  1  0
 52 75  1  0
 56 76  1  0
 58 77  1  0
 60 77  1  0
 60 78  1  0
 62 79  1  0
 78 79  1  0
 62 80  1  0
 64 80  1  0
 64 81  1  0
 78 81  1  0
 66 82  1  0
 81 82  1  0
 68 83  1  0
 77 83  1  0
 82 83  1  0
 80 84  1  0
  1 85  1  0
  1 86  1  0
  3 87  1  0
  5 88  1  0
  5 89  1  0
  7 90  1  0
  8 91  1  0
  9 92  1  6
 11 93  1  6
 12 94  1  0
 13 95  1  1
 15 96  1  0
 15 97  1  0
 17 98  1  1
 19 99  1  1
 21100  1  0
 23101  1  0
 23102  1  0
 24103  1  0
 25104  1  0
 26105  1  0
 27106  1  0
 28107  1  0
 28108  1  0
 29109  1  0
 30110  1  0
 31111  1  0
 32112  1  0
 32113  1  0
 33114  1  0
 33115  1  0
 33116  1  0
 34117  1  0
 34118  1  0
 34119  1  0
 35120  1  1
 36121  1  1
 37122  1  0
 37123  1  0
 38124  1  6
 39125  1  6
 40126  1  1
 41127  1  1
 42128  1  0
 42129  1  0
 42130  1  0
 43131  1  0
 43132  1  0
 45133  1  0
 47134  1  0
 47135  1  0
 49136  1  0
 50137  1  0
 51138  1  6
 53139  1  6
 54140  1  0
 55141  1  1
 57142  1  0
 57143  1  0
 59144  1  1
 61145  1  1
 63146  1  0
 65147  1  0
 65148  1  0
 66149  1  0
 67150  1  0
 68151  1  0
 69152  1  0
 70153  1  0
 70154  1  0
 71155  1  0
 72156  1  0
 73157  1  0
 74158  1  0
 74159  1  0
 75160  1  0
 75161  1  0
 75162  1  0
 76163  1  0
 76164  1  0
 76165  1  0
 77166  1  1
 78167  1  1
 79168  1  0
 79169  1  0
 80170  1  6
 81171  1  6
 82172  1  1
 83173  1  1
 84174  1  0
 84175  1  0
 84176  1  0
M  END
>  <PDBID>  (1) 
5GWK

>  <PDB ID>  (1) 
5GWK

>  <Generic Name>  (1) 
Etoposide

>  <Brand Name>  (1) 
Dom-etoposide#Eposin#Etopophos#Etoposide#Etoposide - Liq IV 20mg/ml#Etoposide Injection#Etoposide Injection USP#Etoposide Injection, USP#PMS-etoposide#Toposar#Vepesid#Vepesid Inj 20mg/ml#Etopofos#Lastet#Nexvep#Vepesid K#Vépéside

>  <DrugBank ID>  (1) 
DB00773

>  <ATC Codes>  (1) 
L01CB01

>  <Ligand ID>  (1) 
EVP

>  <Target Name>  (1) 
DNA topoisomerase 2-alpha

>  <UniProt ID>  (1) 
P11388

>  <PDB ID.1>  (1) 
5GWK

>  <Seq. Identity>  (1) 
96%

$$$$
