PDB_DB08954_03
     RDKit          3D

126130  0  0  0  0  0  0  0  0999 V2000
    7.0104    0.2821    0.6050 C   0  0  0  0  0  0  0  0  0  0  0  0
   -0.4485    0.9483   -0.4364 N   0  0  0  0  0  0  0  0  0  0  0  0
   -2.1217   -1.4130   -0.6485 O   0  0  0  0  0  0  0  0  0  0  0  0
   -6.0129   -1.5545    0.4259 C   0  0  0  0  0  0  0  0  0  0  0  0
   -8.0225   -0.4263    1.0184 O   0  0  0  0  0  0  0  0  0  0  0  0
   -6.1080    0.9086    0.5940 C   0  0  0  0  0  0  0  0  0  0  0  0
    4.5486   -0.3296   -0.8992 C   0  0  0  0  0  0  0  0  0  0  0  0
    5.5984   -1.3658   -0.5596 C   0  0  0  0  0  0  0  0  0  0  0  0
    6.3609   -1.0614    0.6913 C   0  0  0  0  0  0  0  0  0  0  0  0
    3.4707   -0.4289    0.1274 C   0  0  0  0  0  0  0  0  0  0  0  0
    2.3313    0.5484   -0.0669 C   0  0  0  0  0  0  0  0  0  0  0  0
    1.6493    0.3398   -1.3984 C   0  0  0  0  0  0  0  0  0  0  0  0
    5.9760    1.3228    0.3247 C   0  0  0  0  0  0  0  0  0  0  0  0
    5.2003    1.0322   -0.9408 C   0  0  0  0  0  0  0  0  0  0  0  0
    0.1854   -0.0782   -1.1921 C   0  0  0  0  0  0  0  0  0  0  0  0
    0.0683    1.0671    0.8827 C   0  0  0  0  0  0  0  0  0  0  0  0
    1.3857    0.3742    1.0907 C   0  0  0  0  0  0  0  0  0  0  0  0
   -1.8842    0.9657   -0.5072 C   0  0  2  0  0  0  0  0  0  0  0  0
   -2.5229   -0.2684    0.0369 C   0  0  1  0  0  0  0  0  0  0  0  0
   -4.0228   -0.2040   -0.0176 C   0  0  0  0  0  0  0  0  0  0  0  0
   -4.5200   -1.4895    0.6626 C   0  0  0  0  0  0  0  0  0  0  0  0
   -6.6389   -0.3779    1.1710 C   0  0  0  0  0  0  0  0  0  0  0  0
   -4.5907    0.9402    0.7963 C   0  0  0  0  0  0  0  0  0  0  0  0
   -2.3534    1.3271   -1.8863 C   0  0  0  0  0  0  0  0  0  0  0  0
    7.0104    0.2821    0.6050 C   0  0  0  0  0  0  0  0  0  0  0  0
   -0.4485    0.9483   -0.4364 N   0  0  0  0  0  0  0  0  0  0  0  0
   -2.1217   -1.4130   -0.6485 O   0  0  0  0  0  0  0  0  0  0  0  0
   -6.0129   -1.5545    0.4259 C   0  0  0  0  0  0  0  0  0  0  0  0
   -8.0225   -0.4263    1.0184 O   0  0  0  0  0  0  0  0  0  0  0  0
   -6.1080    0.9086    0.5940 C   0  0  0  0  0  0  0  0  0  0  0  0
    4.5486   -0.3296   -0.8992 C   0  0  0  0  0  0  0  0  0  0  0  0
    5.5984   -1.3658   -0.5596 C   0  0  0  0  0  0  0  0  0  0  0  0
    6.3609   -1.0614    0.6913 C   0  0  0  0  0  0  0  0  0  0  0  0
    3.4707   -0.4289    0.1274 C   0  0  0  0  0  0  0  0  0  0  0  0
    2.3313    0.5484   -0.0669 C   0  0  0  0  0  0  0  0  0  0  0  0
    1.6493    0.3398   -1.3984 C   0  0  0  0  0  0  0  0  0  0  0  0
    5.9760    1.3228    0.3247 C   0  0  0  0  0  0  0  0  0  0  0  0
    5.2003    1.0322   -0.9408 C   0  0  0  0  0  0  0  0  0  0  0  0
    0.1854   -0.0782   -1.1921 C   0  0  0  0  0  0  0  0  0  0  0  0
    0.0683    1.0671    0.8827 C   0  0  0  0  0  0  0  0  0  0  0  0
    1.3857    0.3742    1.0907 C   0  0  0  0  0  0  0  0  0  0  0  0
   -1.8842    0.9657   -0.5072 C   0  0  2  0  0  0  0  0  0  0  0  0
   -2.5229   -0.2684    0.0369 C   0  0  1  0  0  0  0  0  0  0  0  0
   -4.0228   -0.2040   -0.0176 C   0  0  0  0  0  0  0  0  0  0  0  0
   -4.5200   -1.4895    0.6626 C   0  0  0  0  0  0  0  0  0  0  0  0
   -6.6389   -0.3779    1.1710 C   0  0  0  0  0  0  0  0  0  0  0  0
   -4.5907    0.9402    0.7963 C   0  0  0  0  0  0  0  0  0  0  0  0
   -2.3534    1.3271   -1.8863 C   0  0  0  0  0  0  0  0  0  0  0  0
    7.7916    0.2728   -0.1835 H   0  0  0  0  0  0  0  0  0  0  0  0
    7.4510    0.5112    1.6030 H   0  0  0  0  0  0  0  0  0  0  0  0
   -2.7927   -1.6059   -1.3406 H   0  0  0  0  0  0  0  0  0  0  0  0
   -6.4668   -2.4852    0.7922 H   0  0  0  0  0  0  0  0  0  0  0  0
   -6.2040   -1.3924   -0.6525 H   0  0  0  0  0  0  0  0  0  0  0  0
   -8.4029   -1.0469    1.6992 H   0  0  0  0  0  0  0  0  0  0  0  0
   -6.2864    0.8955   -0.5084 H   0  0  0  0  0  0  0  0  0  0  0  0
   -6.6021    1.7612    1.0644 H   0  0  0  0  0  0  0  0  0  0  0  0
    4.1798   -0.5643   -1.8997 H   0  0  0  0  0  0  0  0  0  0  0  0
    6.3121   -1.4602   -1.3972 H   0  0  0  0  0  0  0  0  0  0  0  0
    5.0429   -2.3216   -0.3988 H   0  0  0  0  0  0  0  0  0  0  0  0
    5.7246   -1.1360    1.6030 H   0  0  0  0  0  0  0  0  0  0  0  0
    7.1691   -1.8269    0.7665 H   0  0  0  0  0  0  0  0  0  0  0  0
    3.8870   -0.3834    1.1485 H   0  0  0  0  0  0  0  0  0  0  0  0
    3.0521   -1.4745    0.0376 H   0  0  0  0  0  0  0  0  0  0  0  0
    2.7119    1.6069   -0.0695 H   0  0  0  0  0  0  0  0  0  0  0  0
    1.5837    1.2871   -1.9936 H   0  0  0  0  0  0  0  0  0  0  0  0
    2.1595   -0.4325   -1.9930 H   0  0  0  0  0  0  0  0  0  0  0  0
    5.2825    1.3707    1.1879 H   0  0  0  0  0  0  0  0  0  0  0  0
    6.4910    2.2948    0.1783 H   0  0  0  0  0  0  0  0  0  0  0  0
    5.9256    1.0306   -1.7792 H   0  0  0  0  0  0  0  0  0  0  0  0
    4.4703    1.8251   -1.1142 H   0  0  0  0  0  0  0  0  0  0  0  0
    0.2019   -1.0683   -0.6584 H   0  0  0  0  0  0  0  0  0  0  0  0
   -0.2386   -0.2365   -2.1815 H   0  0  0  0  0  0  0  0  0  0  0  0
   -0.6116    0.7177    1.6865 H   0  0  0  0  0  0  0  0  0  0  0  0
    0.2136    2.1656    1.0849 H   0  0  0  0  0  0  0  0  0  0  0  0
    1.2330   -0.7075    1.2395 H   0  0  0  0  0  0  0  0  0  0  0  0
    1.8763    0.8307    1.9880 H   0  0  0  0  0  0  0  0  0  0  0  0
   -2.1997    1.8169    0.1666 H   0  0  0  0  0  0  0  0  0  0  0  0
   -2.2565   -0.3443    1.1320 H   0  0  0  0  0  0  0  0  0  0  0  0
   -4.4395   -0.2181   -1.0255 H   0  0  0  0  0  0  0  0  0  0  0  0
   -3.9870   -2.3679    0.2521 H   0  0  0  0  0  0  0  0  0  0  0  0
   -4.3477   -1.3740    1.7579 H   0  0  0  0  0  0  0  0  0  0  0  0
   -6.3531   -0.4715    2.2423 H   0  0  0  0  0  0  0  0  0  0  0  0
   -4.4379    0.7756    1.8853 H   0  0  0  0  0  0  0  0  0  0  0  0
   -4.1978    1.9302    0.4903 H   0  0  0  0  0  0  0  0  0  0  0  0
   -1.7554    2.2237   -2.2036 H   0  0  0  0  0  0  0  0  0  0  0  0
   -3.4153    1.7053   -1.8724 H   0  0  0  0  0  0  0  0  0  0  0  0
   -2.3035    0.5146   -2.6086 H   0  0  0  0  0  0  0  0  0  0  0  0
    7.7916    0.2728   -0.1835 H   0  0  0  0  0  0  0  0  0  0  0  0
    7.4510    0.5112    1.6030 H   0  0  0  0  0  0  0  0  0  0  0  0
   -2.7927   -1.6059   -1.3406 H   0  0  0  0  0  0  0  0  0  0  0  0
   -6.4668   -2.4852    0.7922 H   0  0  0  0  0  0  0  0  0  0  0  0
   -6.2040   -1.3924   -0.6525 H   0  0  0  0  0  0  0  0  0  0  0  0
   -8.4029   -1.0469    1.6992 H   0  0  0  0  0  0  0  0  0  0  0  0
   -6.2864    0.8955   -0.5084 H   0  0  0  0  0  0  0  0  0  0  0  0
   -6.6021    1.7612    1.0644 H   0  0  0  0  0  0  0  0  0  0  0  0
    4.1798   -0.5643   -1.8997 H   0  0  0  0  0  0  0  0  0  0  0  0
    6.3121   -1.4602   -1.3972 H   0  0  0  0  0  0  0  0  0  0  0  0
    5.0429   -2.3216   -0.3988 H   0  0  0  0  0  0  0  0  0  0  0  0
    5.7246   -1.1360    1.6030 H   0  0  0  0  0  0  0  0  0  0  0  0
    7.1691   -1.8269    0.7665 H   0  0  0  0  0  0  0  0  0  0  0  0
    3.8870   -0.3834    1.1485 H   0  0  0  0  0  0  0  0  0  0  0  0
    3.0521   -1.4745    0.0376 H   0  0  0  0  0  0  0  0  0  0  0  0
    2.7119    1.6069   -0.0695 H   0  0  0  0  0  0  0  0  0  0  0  0
    1.5837    1.2871   -1.9936 H   0  0  0  0  0  0  0  0  0  0  0  0
    2.1595   -0.4325   -1.9930 H   0  0  0  0  0  0  0  0  0  0  0  0
    5.2825    1.3707    1.1879 H   0  0  0  0  0  0  0  0  0  0  0  0
    6.4910    2.2948    0.1783 H   0  0  0  0  0  0  0  0  0  0  0  0
    5.9256    1.0306   -1.7792 H   0  0  0  0  0  0  0  0  0  0  0  0
    4.4703    1.8251   -1.1142 H   0  0  0  0  0  0  0  0  0  0  0  0
    0.2019   -1.0683   -0.6584 H   0  0  0  0  0  0  0  0  0  0  0  0
   -0.2386   -0.2365   -2.1815 H   0  0  0  0  0  0  0  0  0  0  0  0
   -0.6116    0.7177    1.6865 H   0  0  0  0  0  0  0  0  0  0  0  0
    0.2136    2.1656    1.0849 H   0  0  0  0  0  0  0  0  0  0  0  0
    1.2330   -0.7075    1.2395 H   0  0  0  0  0  0  0  0  0  0  0  0
    1.8763    0.8307    1.9880 H   0  0  0  0  0  0  0  0  0  0  0  0
   -2.1997    1.8169    0.1666 H   0  0  0  0  0  0  0  0  0  0  0  0
   -2.2565   -0.3443    1.1320 H   0  0  0  0  0  0  0  0  0  0  0  0
   -4.4395   -0.2181   -1.0255 H   0  0  0  0  0  0  0  0  0  0  0  0
   -3.9870   -2.3679    0.2521 H   0  0  0  0  0  0  0  0  0  0  0  0
   -4.3477   -1.3740    1.7579 H   0  0  0  0  0  0  0  0  0  0  0  0
   -6.3531   -0.4715    2.2423 H   0  0  0  0  0  0  0  0  0  0  0  0
   -4.4379    0.7756    1.8853 H   0  0  0  0  0  0  0  0  0  0  0  0
   -4.1978    1.9302    0.4903 H   0  0  0  0  0  0  0  0  0  0  0  0
   -1.7554    2.2237   -2.2036 H   0  0  0  0  0  0  0  0  0  0  0  0
   -3.4153    1.7053   -1.8724 H   0  0  0  0  0  0  0  0  0  0  0  0
   -2.3035    0.5146   -2.6086 H   0  0  0  0  0  0  0  0  0  0  0  0
  7  8  1  0
  1  9  1  0
  8  9  1  0
  7 10  1  0
 10 11  1  0
 11 12  1  0
  1 13  1  0
  7 14  1  0
 13 14  1  0
  2 15  1  0
 12 15  1  0
  2 16  1  0
 11 17  1  0
 16 17  1  0
  2 18  1  0
  3 19  1  0
 18 19  1  0
 19 20  1  0
  4 21  1  0
 20 21  1  0
  4 22  1  0
  5 22  1  0
  6 22  1  0
  6 23  1  0
 20 23  1  0
 18 24  1  0
 31 32  1  0
 25 33  1  0
 32 33  1  0
 31 34  1  0
 34 35  1  0
 35 36  1  0
 25 37  1  0
 31 38  1  0
 37 38  1  0
 26 39  1  0
 36 39  1  0
 26 40  1  0
 35 41  1  0
 40 41  1  0
 26 42  1  0
 27 43  1  0
 42 43  1  0
 43 44  1  0
 28 45  1  0
 44 45  1  0
 28 46  1  0
 29 46  1  0
 30 46  1  0
 30 47  1  0
 44 47  1  0
 42 48  1  0
  1 49  1  0
  1 50  1  0
  3 51  1  0
  4 52  1  0
  4 53  1  0
  5 54  1  0
  6 55  1  0
  6 56  1  0
  7 57  1  0
  8 58  1  0
  8 59  1  0
  9 60  1  0
  9 61  1  0
 10 62  1  0
 10 63  1  0
 11 64  1  0
 12 65  1  0
 12 66  1  0
 13 67  1  0
 13 68  1  0
 14 69  1  0
 14 70  1  0
 15 71  1  0
 15 72  1  0
 16 73  1  0
 16 74  1  0
 17 75  1  0
 17 76  1  0
 18 77  1  1
 19 78  1  1
 20 79  1  0
 21 80  1  0
 21 81  1  0
 22 82  1  0
 23 83  1  0
 23 84  1  0
 24 85  1  0
 24 86  1  0
 24 87  1  0
 25 88  1  0
 25 89  1  0
 27 90  1  0
 28 91  1  0
 28 92  1  0
 29 93  1  0
 30 94  1  0
 30 95  1  0
 31 96  1  0
 32 97  1  0
 32 98  1  0
 33 99  1  0
 33100  1  0
 34101  1  0
 34102  1  0
 35103  1  0
 36104  1  0
 36105  1  0
 37106  1  0
 37107  1  0
 38108  1  0
 38109  1  0
 39110  1  0
 39111  1  0
 40112  1  0
 40113  1  0
 41114  1  0
 41115  1  0
 42116  1  1
 43117  1  1
 44118  1  0
 45119  1  0
 45120  1  0
 46121  1  0
 47122  1  0
 47123  1  0
 48124  1  0
 48125  1  0
 48126  1  0
M  END
>  <PDBID>  (1) 
4PE5

>  <PDB ID>  (1) 
4PE5

>  <Generic Name>  (1) 
Ifenprodil

>  <Brand Name>  (1) 
Cerocral#Furezanil#Iburonol#Linbulane#Technis#Vadilex#Vasculodil#Youajyl

>  <DrugBank ID>  (1) 
DB08954

>  <ATC Codes>  (1) 
C04AX28

>  <Ligand ID>  (1) 
QEL

>  <Target Name>  (1) 
Glutamate receptor ionotropic, NMDA 1

>  <UniProt ID>  (1) 
Q05586

>  <PDB ID.1>  (1) 
4PE5

>  <Seq. Identity>  (1) 
98%

$$$$
