PDB_DB09063_00
     RDKit          3D

 94 97  0  0  0  0  0  0  0  0999 V2000
   -4.9155   -4.0953   -0.9242 C   0  0  0  0  0  0  0  0  0  0  0  0
   -3.5853   -3.4327   -1.3340 C   0  0  0  0  0  0  0  0  0  0  0  0
   -2.6096   -4.5274   -1.5643 C   0  0  0  0  0  0  0  0  0  0  0  0
   -3.2966   -2.5396   -0.3129 O   0  0  0  0  0  0  0  0  0  0  0  0
   -3.4318   -1.2341   -0.6734 C   0  0  0  0  0  0  0  0  0  0  0  0
   -4.6228   -0.5576   -0.0141 C   0  0  0  0  0  0  0  0  0  0  0  0
   -4.3059    0.8336    0.4354 C   0  0  1  0  0  0  0  0  0  0  0  0
   -5.5213    1.5200    0.9301 C   0  0  0  0  0  0  0  0  0  0  0  0
   -6.5904    1.7217   -0.1268 C   0  0  0  0  0  0  0  0  0  0  0  0
   -6.2398    2.8250   -1.0950 C   0  0  0  0  0  0  0  0  0  0  0  0
   -6.0805    4.0691   -0.3481 N   0  0  0  0  0  0  0  0  0  0  0  0
   -4.9196    3.9120    0.5045 C   0  0  0  0  0  0  0  0  0  0  0  0
   -5.2822    2.8679    1.5608 C   0  0  0  0  0  0  0  0  0  0  0  0
   -3.2780    0.7083    1.5330 C   0  0  0  0  0  0  0  0  0  0  0  0
   -3.8711    0.1899    2.8336 C   0  0  0  0  0  0  0  0  0  0  0  0
   -2.1155   -0.1713    1.0905 C   0  0  0  0  0  0  0  0  0  0  0  0
   -2.2006   -0.4485   -0.3987 C   0  0  0  0  0  0  0  0  0  0  0  0
   -1.0668   -1.2217   -0.8448 N   0  0  0  0  0  0  0  0  0  0  0  0
   -0.0383   -1.4682    0.0870 C   0  0  0  0  0  0  0  0  0  0  0  0
    0.5732   -2.7702   -0.0306 N   0  0  0  0  0  0  0  0  0  0  0  0
    1.1700   -2.9333   -1.3069 C   0  0  0  0  0  0  0  0  0  0  0  0
    2.2735   -1.9244   -1.5506 C   0  0  1  0  0  0  0  0  0  0  0  0
    2.5457   -1.9499   -3.3266 Cl  0  0  0  0  0  0  0  0  0  0  0  0
    1.9127   -0.5614   -1.0984 C   0  0  0  0  0  0  0  0  0  0  0  0
    3.0388    0.3024   -0.8237 N   0  0  0  0  0  0  0  0  0  0  0  0
    3.8773   -0.0501    0.2566 C   0  0  2  0  0  0  0  0  0  0  0  0
    3.2193    0.0343    1.6283 C   0  0  0  0  0  0  0  0  0  0  0  0
    2.7514    1.4076    1.9873 C   0  0  0  0  0  0  0  0  0  0  0  0
    3.7393    2.4686    1.6710 C   0  0  0  0  0  0  0  0  0  0  0  0
    4.5473    2.2792    0.4249 C   0  0  0  0  0  0  0  0  0  0  0  0
    5.0781    0.8708    0.3056 C   0  0  2  0  0  0  0  0  0  0  0  0
    6.1758    0.5610   -0.8628 S   0  0  0  0  0  0  0  0  0  0  0  0
    6.6127   -1.2526   -0.5748 O   0  0  0  0  0  0  0  0  0  0  0  0
    5.7932    0.4861   -2.3351 O   0  0  0  0  0  0  0  0  0  0  0  0
    7.7176    1.1863   -0.6139 C   0  0  0  0  0  0  0  0  0  0  0  0
    8.6318    0.8213   -1.7569 C   0  0  0  0  0  0  0  0  0  0  0  0
    8.3974    0.7575    0.6835 C   0  0  0  0  0  0  0  0  0  0  0  0
    1.0225   -0.4681    0.0143 N   0  0  0  0  0  0  0  0  0  0  0  0
   -4.6705   -5.1355   -0.5985 H   0  0  0  0  0  0  0  0  0  0  0  0
   -5.6300   -4.1526   -1.7649 H   0  0  0  0  0  0  0  0  0  0  0  0
   -5.3329   -3.5852   -0.0427 H   0  0  0  0  0  0  0  0  0  0  0  0
   -3.8686   -2.8960   -2.2969 H   0  0  0  0  0  0  0  0  0  0  0  0
   -1.5868   -4.3645   -1.2065 H   0  0  0  0  0  0  0  0  0  0  0  0
   -2.5026   -4.7831   -2.6648 H   0  0  0  0  0  0  0  0  0  0  0  0
   -2.9266   -5.5057   -1.0912 H   0  0  0  0  0  0  0  0  0  0  0  0
   -3.6296   -1.2039   -1.7969 H   0  0  0  0  0  0  0  0  0  0  0  0
   -5.4360   -0.5223   -0.7582 H   0  0  0  0  0  0  0  0  0  0  0  0
   -4.9889   -1.1172    0.8512 H   0  0  0  0  0  0  0  0  0  0  0  0
   -3.8309    1.4435   -0.3784 H   0  0  0  0  0  0  0  0  0  0  0  0
   -6.0042    0.8887    1.7193 H   0  0  0  0  0  0  0  0  0  0  0  0
   -6.8858    0.8309   -0.6695 H   0  0  0  0  0  0  0  0  0  0  0  0
   -7.5017    2.0681    0.4281 H   0  0  0  0  0  0  0  0  0  0  0  0
   -7.1623    2.9837   -1.7144 H   0  0  0  0  0  0  0  0  0  0  0  0
   -5.3545    2.5716   -1.6944 H   0  0  0  0  0  0  0  0  0  0  0  0
   -6.9263    4.1923    0.2476 H   0  0  0  0  0  0  0  0  0  0  0  0
   -4.7671    4.8718    1.0416 H   0  0  0  0  0  0  0  0  0  0  0  0
   -4.0623    3.5830   -0.1056 H   0  0  0  0  0  0  0  0  0  0  0  0
   -6.2847    3.1916    1.9694 H   0  0  0  0  0  0  0  0  0  0  0  0
   -4.5852    2.8826    2.3927 H   0  0  0  0  0  0  0  0  0  0  0  0
   -2.9352    1.7390    1.7647 H   0  0  0  0  0  0  0  0  0  0  0  0
   -4.7987   -0.3662    2.7210 H   0  0  0  0  0  0  0  0  0  0  0  0
   -3.1245   -0.5654    3.2275 H   0  0  0  0  0  0  0  0  0  0  0  0
   -3.9518    0.9695    3.6198 H   0  0  0  0  0  0  0  0  0  0  0  0
   -2.2985   -1.1553    1.5927 H   0  0  0  0  0  0  0  0  0  0  0  0
   -1.2129    0.3419    1.4123 H   0  0  0  0  0  0  0  0  0  0  0  0
   -2.1387    0.5179   -0.9750 H   0  0  0  0  0  0  0  0  0  0  0  0
   -1.2757   -2.0344   -1.4224 H   0  0  0  0  0  0  0  0  0  0  0  0
   -0.3567   -1.4220    1.1731 H   0  0  0  0  0  0  0  0  0  0  0  0
    1.3422   -2.8036    0.6985 H   0  0  0  0  0  0  0  0  0  0  0  0
    1.6664   -3.9360   -1.3192 H   0  0  0  0  0  0  0  0  0  0  0  0
    0.4469   -2.9205   -2.1226 H   0  0  0  0  0  0  0  0  0  0  0  0
    3.2154   -2.2785   -1.1045 H   0  0  0  0  0  0  0  0  0  0  0  0
    1.3767   -0.0721   -1.9706 H   0  0  0  0  0  0  0  0  0  0  0  0
    2.6721    1.2650   -0.8005 H   0  0  0  0  0  0  0  0  0  0  0  0
    4.2097   -1.1164    0.1684 H   0  0  0  0  0  0  0  0  0  0  0  0
    2.4868   -0.7464    1.8275 H   0  0  0  0  0  0  0  0  0  0  0  0
    4.0732   -0.1854    2.3439 H   0  0  0  0  0  0  0  0  0  0  0  0
    1.7145    1.6523    1.6596 H   0  0  0  0  0  0  0  0  0  0  0  0
    2.6413    1.3890    3.1263 H   0  0  0  0  0  0  0  0  0  0  0  0
    3.1884    3.4249    1.5436 H   0  0  0  0  0  0  0  0  0  0  0  0
    4.4585    2.5594    2.5265 H   0  0  0  0  0  0  0  0  0  0  0  0
    5.4653    2.9360    0.5611 H   0  0  0  0  0  0  0  0  0  0  0  0
    4.0897    2.6615   -0.4941 H   0  0  0  0  0  0  0  0  0  0  0  0
    5.5313    0.6801    1.3370 H   0  0  0  0  0  0  0  0  0  0  0  0
    6.2425   -1.3142    0.3345 H   0  0  0  0  0  0  0  0  0  0  0  0
    5.3724   -0.3502   -2.6774 H   0  0  0  0  0  0  0  0  0  0  0  0
    7.6669    2.2984   -0.5665 H   0  0  0  0  0  0  0  0  0  0  0  0
    9.2458   -0.0624   -1.4153 H   0  0  0  0  0  0  0  0  0  0  0  0
    9.3496    1.6167   -2.0242 H   0  0  0  0  0  0  0  0  0  0  0  0
    8.0695    0.4258   -2.6399 H   0  0  0  0  0  0  0  0  0  0  0  0
    8.6782    1.6438    1.3179 H   0  0  0  0  0  0  0  0  0  0  0  0
    9.3615    0.2181    0.5023 H   0  0  0  0  0  0  0  0  0  0  0  0
    7.7610    0.0311    1.2624 H   0  0  0  0  0  0  0  0  0  0  0  0
    0.5988    0.5003   -0.0379 H   0  0  0  0  0  0  0  0  0  0  0  0
  1  2  1  0
  2  3  1  0
  2  4  1  0
  4  5  1  0
  5  6  1  0
  6  7  1  0
  7  8  1  0
  8  9  1  0
  9 10  1  0
 10 11  1  0
 11 12  1  0
  8 13  1  0
 12 13  1  0
  7 14  1  0
 14 15  1  0
 14 16  1  0
  5 17  1  0
 16 17  1  0
 17 18  1  0
 18 19  1  0
 19 20  1  0
 20 21  1  0
 21 22  1  0
 22 23  1  0
 22 24  1  0
 24 25  1  0
 25 26  1  0
 26 27  1  0
 27 28  1  0
 28 29  1  0
 29 30  1  0
 26 31  1  0
 30 31  1  0
 31 32  1  0
 32 33  1  0
 32 34  1  0
 32 35  1  0
 35 36  1  0
 35 37  1  0
 19 38  1  0
 24 38  1  0
  1 39  1  0
  1 40  1  0
  1 41  1  0
  2 42  1  0
  3 43  1  0
  3 44  1  0
  3 45  1  0
  5 46  1  0
  6 47  1  0
  6 48  1  0
  7 49  1  6
  8 50  1  0
  9 51  1  0
  9 52  1  0
 10 53  1  0
 10 54  1  0
 11 55  1  0
 12 56  1  0
 12 57  1  0
 13 58  1  0
 13 59  1  0
 14 60  1  0
 15 61  1  0
 15 62  1  0
 15 63  1  0
 16 64  1  0
 16 65  1  0
 17 66  1  0
 18 67  1  0
 19 68  1  0
 20 69  1  0
 21 70  1  0
 21 71  1  0
 22 72  1  1
 24 73  1  0
 25 74  1  0
 26 75  1  6
 27 76  1  0
 27 77  1  0
 28 78  1  0
 28 79  1  0
 29 80  1  0
 29 81  1  0
 30 82  1  0
 30 83  1  0
 31 84  1  1
 33 85  1  0
 34 86  1  0
 35 87  1  0
 36 88  1  0
 36 89  1  0
 36 90  1  0
 37 91  1  0
 37 92  1  0
 37 93  1  0
 38 94  1  0
M  END
>  <PDBID>  (1) 
4MKC

>  <PDB ID>  (1) 
4MKC

>  <Generic Name>  (1) 
Ceritinib

>  <Brand Name>  (1) 
Zykadia

>  <DrugBank ID>  (1) 
DB09063

>  <ATC Codes>  (1) 
L01XE28

>  <Ligand ID>  (1) 
4MK

>  <Target Name>  (1) 
ALK tyrosine kinase receptor

>  <UniProt ID>  (1) 
Q9UM73

>  <PDB ID.1>  (1) 
4MKC

>  <Seq. Identity>  (1) 
99%

$$$$
