PDB_DB08895_04
     RDKit          3D

114118  0  0  0  0  0  0  0  0999 V2000
    0.3838   -0.7476    0.0920 C   0  0  1  0  0  0  0  0  0  0  0  0
    1.6007   -0.3696    0.9113 C   0  0  0  0  0  0  0  0  0  0  0  0
    2.8944   -2.0383   -0.2564 C   0  0  0  0  0  0  0  0  0  0  0  0
    1.7439   -2.3247   -1.2325 C   0  0  0  0  0  0  0  0  0  0  0  0
    0.4568   -2.1204   -0.5021 C   0  0  1  0  0  0  0  0  0  0  0  0
    2.7602   -0.7291    0.1851 N   0  0  0  0  0  0  0  0  0  0  0  0
    4.8269   -0.3387   -0.6520 O   0  0  0  0  0  0  0  0  0  0  0  0
    3.7548    0.2324    0.0408 C   0  0  0  0  0  0  0  0  0  0  0  0
    3.3849    1.4562   -0.7627 C   0  0  0  0  0  0  0  0  0  0  0  0
    4.5796    2.3862   -0.7560 C   0  0  0  0  0  0  0  0  0  0  0  0
    4.8424    2.8055    0.6310 N   0  0  0  0  0  0  0  0  0  0  0  0
    0.2686   -3.2264    0.4866 C   0  0  0  0  0  0  0  0  0  0  0  0
   -0.8513   -0.4500    0.7225 N   0  0  0  0  0  0  0  0  0  0  0  0
   -1.1943   -1.0186    1.9406 C   0  0  0  0  0  0  0  0  0  0  0  0
   -1.9044    0.0047   -0.1212 C   0  0  0  0  0  0  0  0  0  0  0  0
   -2.4680    1.3058    0.3255 C   0  0  0  0  0  0  0  0  0  0  0  0
   -2.8200    2.2518   -0.8035 C   0  0  0  0  0  0  0  0  0  0  0  0
   -4.2993    2.0137   -0.9835 C   0  0  0  0  0  0  0  0  0  0  0  0
   -4.7634    1.9221    0.3820 N   0  0  0  0  0  0  0  0  0  0  0  0
   -3.7557    1.1618    1.0930 C   0  0  0  0  0  0  0  0  0  0  0  0
   -4.1551   -0.1893    1.3442 N   0  0  0  0  0  0  0  0  0  0  0  0
   -4.0269   -1.0879    0.2408 C   0  0  0  0  0  0  0  0  0  0  0  0
   -2.8362   -1.0011   -0.4953 N   0  0  0  0  0  0  0  0  0  0  0  0
    0.3838   -0.7476    0.0920 C   0  0  1  0  0  0  0  0  0  0  0  0
    1.6007   -0.3696    0.9113 C   0  0  0  0  0  0  0  0  0  0  0  0
    2.8944   -2.0383   -0.2564 C   0  0  0  0  0  0  0  0  0  0  0  0
    1.7439   -2.3247   -1.2325 C   0  0  0  0  0  0  0  0  0  0  0  0
    0.4568   -2.1204   -0.5021 C   0  0  1  0  0  0  0  0  0  0  0  0
    2.7602   -0.7291    0.1851 N   0  0  0  0  0  0  0  0  0  0  0  0
    4.8269   -0.3387   -0.6520 O   0  0  0  0  0  0  0  0  0  0  0  0
    3.7548    0.2324    0.0408 C   0  0  0  0  0  0  0  0  0  0  0  0
    3.3849    1.4562   -0.7627 C   0  0  0  0  0  0  0  0  0  0  0  0
    4.5796    2.3862   -0.7560 C   0  0  0  0  0  0  0  0  0  0  0  0
    4.8424    2.8055    0.6310 N   0  0  0  0  0  0  0  0  0  0  0  0
    0.2686   -3.2264    0.4866 C   0  0  0  0  0  0  0  0  0  0  0  0
   -0.8513   -0.4500    0.7225 N   0  0  0  0  0  0  0  0  0  0  0  0
   -1.1943   -1.0186    1.9406 C   0  0  0  0  0  0  0  0  0  0  0  0
   -1.9044    0.0047   -0.1212 C   0  0  0  0  0  0  0  0  0  0  0  0
   -2.4680    1.3058    0.3255 C   0  0  0  0  0  0  0  0  0  0  0  0
   -2.8200    2.2518   -0.8035 C   0  0  0  0  0  0  0  0  0  0  0  0
   -4.2993    2.0137   -0.9835 C   0  0  0  0  0  0  0  0  0  0  0  0
   -4.7634    1.9221    0.3820 N   0  0  0  0  0  0  0  0  0  0  0  0
   -3.7557    1.1618    1.0930 C   0  0  0  0  0  0  0  0  0  0  0  0
   -4.1551   -0.1893    1.3442 N   0  0  0  0  0  0  0  0  0  0  0  0
   -4.0269   -1.0879    0.2408 C   0  0  0  0  0  0  0  0  0  0  0  0
   -2.8362   -1.0011   -0.4953 N   0  0  0  0  0  0  0  0  0  0  0  0
    0.4328   -0.0471   -0.8061 H   0  0  0  0  0  0  0  0  0  0  0  0
    1.6079    0.7116    1.1011 H   0  0  0  0  0  0  0  0  0  0  0  0
    1.6559   -0.8857    1.8955 H   0  0  0  0  0  0  0  0  0  0  0  0
    2.7796   -2.7269    0.6351 H   0  0  0  0  0  0  0  0  0  0  0  0
    3.8794   -2.2606   -0.7229 H   0  0  0  0  0  0  0  0  0  0  0  0
    1.8932   -1.6552   -2.0944 H   0  0  0  0  0  0  0  0  0  0  0  0
    1.8701   -3.3986   -1.4965 H   0  0  0  0  0  0  0  0  0  0  0  0
   -0.3750   -2.1771   -1.2493 H   0  0  0  0  0  0  0  0  0  0  0  0
    4.4942   -0.4757   -1.5813 H   0  0  0  0  0  0  0  0  0  0  0  0
    4.1298    0.5821    1.0161 H   0  0  0  0  0  0  0  0  0  0  0  0
    2.5414    2.0211   -0.3503 H   0  0  0  0  0  0  0  0  0  0  0  0
    3.2151    1.1806   -1.8254 H   0  0  0  0  0  0  0  0  0  0  0  0
    4.4919    3.2531   -1.4151 H   0  0  0  0  0  0  0  0  0  0  0  0
    5.5273    1.8494   -1.0486 H   0  0  0  0  0  0  0  0  0  0  0  0
    5.3415    3.7333    0.5791 H   0  0  0  0  0  0  0  0  0  0  0  0
    3.9060    3.0103    1.0538 H   0  0  0  0  0  0  0  0  0  0  0  0
    0.6486   -4.1557   -0.0283 H   0  0  0  0  0  0  0  0  0  0  0  0
   -0.7983   -3.4519    0.6890 H   0  0  0  0  0  0  0  0  0  0  0  0
    0.8861   -3.1309    1.3923 H   0  0  0  0  0  0  0  0  0  0  0  0
   -0.2895   -1.3609    2.4738 H   0  0  0  0  0  0  0  0  0  0  0  0
   -1.5926   -0.1827    2.6090 H   0  0  0  0  0  0  0  0  0  0  0  0
   -1.9397   -1.7995    1.9721 H   0  0  0  0  0  0  0  0  0  0  0  0
   -1.3746    0.2690   -1.0992 H   0  0  0  0  0  0  0  0  0  0  0  0
   -1.7044    1.8325    0.9510 H   0  0  0  0  0  0  0  0  0  0  0  0
   -2.2278    2.0496   -1.6951 H   0  0  0  0  0  0  0  0  0  0  0  0
   -2.6856    3.3195   -0.4738 H   0  0  0  0  0  0  0  0  0  0  0  0
   -4.4321    1.0908   -1.5565 H   0  0  0  0  0  0  0  0  0  0  0  0
   -4.7687    2.8655   -1.5033 H   0  0  0  0  0  0  0  0  0  0  0  0
   -4.8137    2.8996    0.7477 H   0  0  0  0  0  0  0  0  0  0  0  0
   -3.6332    1.6510    2.0874 H   0  0  0  0  0  0  0  0  0  0  0  0
   -5.1746   -0.1706    1.6049 H   0  0  0  0  0  0  0  0  0  0  0  0
   -4.0861   -2.1326    0.6634 H   0  0  0  0  0  0  0  0  0  0  0  0
   -4.9097   -0.9947   -0.4230 H   0  0  0  0  0  0  0  0  0  0  0  0
   -2.9176   -1.2113   -1.5019 H   0  0  0  0  0  0  0  0  0  0  0  0
    0.4328   -0.0471   -0.8061 H   0  0  0  0  0  0  0  0  0  0  0  0
    1.6079    0.7116    1.1011 H   0  0  0  0  0  0  0  0  0  0  0  0
    1.6559   -0.8857    1.8955 H   0  0  0  0  0  0  0  0  0  0  0  0
    2.7796   -2.7269    0.6351 H   0  0  0  0  0  0  0  0  0  0  0  0
    3.8794   -2.2606   -0.7229 H   0  0  0  0  0  0  0  0  0  0  0  0
    1.8932   -1.6552   -2.0944 H   0  0  0  0  0  0  0  0  0  0  0  0
    1.8701   -3.3986   -1.4965 H   0  0  0  0  0  0  0  0  0  0  0  0
   -0.3750   -2.1771   -1.2493 H   0  0  0  0  0  0  0  0  0  0  0  0
    4.4942   -0.4757   -1.5813 H   0  0  0  0  0  0  0  0  0  0  0  0
    4.1298    0.5821    1.0161 H   0  0  0  0  0  0  0  0  0  0  0  0
    2.5414    2.0211   -0.3503 H   0  0  0  0  0  0  0  0  0  0  0  0
    3.2151    1.1806   -1.8254 H   0  0  0  0  0  0  0  0  0  0  0  0
    4.4919    3.2531   -1.4151 H   0  0  0  0  0  0  0  0  0  0  0  0
    5.5273    1.8494   -1.0486 H   0  0  0  0  0  0  0  0  0  0  0  0
    5.3415    3.7333    0.5791 H   0  0  0  0  0  0  0  0  0  0  0  0
    3.9060    3.0103    1.0538 H   0  0  0  0  0  0  0  0  0  0  0  0
    0.6486   -4.1557   -0.0283 H   0  0  0  0  0  0  0  0  0  0  0  0
   -0.7983   -3.4519    0.6890 H   0  0  0  0  0  0  0  0  0  0  0  0
    0.8861   -3.1309    1.3923 H   0  0  0  0  0  0  0  0  0  0  0  0
   -0.2895   -1.3609    2.4738 H   0  0  0  0  0  0  0  0  0  0  0  0
   -1.5926   -0.1827    2.6090 H   0  0  0  0  0  0  0  0  0  0  0  0
   -1.9397   -1.7995    1.9721 H   0  0  0  0  0  0  0  0  0  0  0  0
   -1.3746    0.2690   -1.0992 H   0  0  0  0  0  0  0  0  0  0  0  0
   -1.7044    1.8325    0.9510 H   0  0  0  0  0  0  0  0  0  0  0  0
   -2.2278    2.0496   -1.6951 H   0  0  0  0  0  0  0  0  0  0  0  0
   -2.6856    3.3195   -0.4738 H   0  0  0  0  0  0  0  0  0  0  0  0
   -4.4321    1.0908   -1.5565 H   0  0  0  0  0  0  0  0  0  0  0  0
   -4.7687    2.8655   -1.5033 H   0  0  0  0  0  0  0  0  0  0  0  0
   -4.8137    2.8996    0.7477 H   0  0  0  0  0  0  0  0  0  0  0  0
   -3.6332    1.6510    2.0874 H   0  0  0  0  0  0  0  0  0  0  0  0
   -5.1746   -0.1706    1.6049 H   0  0  0  0  0  0  0  0  0  0  0  0
   -4.0861   -2.1326    0.6634 H   0  0  0  0  0  0  0  0  0  0  0  0
   -4.9097   -0.9947   -0.4230 H   0  0  0  0  0  0  0  0  0  0  0  0
   -2.9176   -1.2113   -1.5019 H   0  0  0  0  0  0  0  0  0  0  0  0
  1  2  1  0
  3  4  1  0
  1  5  1  0
  4  5  1  0
  2  6  1  0
  3  6  1  0
  6  8  1  0
  7  8  1  0
  8  9  1  0
  9 10  1  0
 10 11  1  0
  5 12  1  0
  1 13  1  0
 13 14  1  0
 13 15  1  0
 15 16  1  0
 16 17  1  0
 17 18  1  0
 18 19  1  0
 16 20  1  0
 19 20  1  0
 20 21  1  0
 21 22  1  0
 15 23  1  0
 22 23  1  0
 24 25  1  0
 26 27  1  0
 24 28  1  0
 27 28  1  0
 25 29  1  0
 26 29  1  0
 29 31  1  0
 30 31  1  0
 31 32  1  0
 32 33  1  0
 33 34  1  0
 28 35  1  0
 24 36  1  0
 36 37  1  0
 36 38  1  0
 38 39  1  0
 39 40  1  0
 40 41  1  0
 41 42  1  0
 39 43  1  0
 42 43  1  0
 43 44  1  0
 44 45  1  0
 38 46  1  0
 45 46  1  0
  1 47  1  6
  2 48  1  0
  2 49  1  0
  3 50  1  0
  3 51  1  0
  4 52  1  0
  4 53  1  0
  5 54  1  6
  7 55  1  0
  8 56  1  0
  9 57  1  0
  9 58  1  0
 10 59  1  0
 10 60  1  0
 11 61  1  0
 11 62  1  0
 12 63  1  0
 12 64  1  0
 12 65  1  0
 14 66  1  0
 14 67  1  0
 14 68  1  0
 15 69  1  0
 16 70  1  0
 17 71  1  0
 17 72  1  0
 18 73  1  0
 18 74  1  0
 19 75  1  0
 20 76  1  0
 21 77  1  0
 22 78  1  0
 22 79  1  0
 23 80  1  0
 24 81  1  6
 25 82  1  0
 25 83  1  0
 26 84  1  0
 26 85  1  0
 27 86  1  0
 27 87  1  0
 28 88  1  6
 30 89  1  0
 31 90  1  0
 32 91  1  0
 32 92  1  0
 33 93  1  0
 33 94  1  0
 34 95  1  0
 34 96  1  0
 35 97  1  0
 35 98  1  0
 35 99  1  0
 37100  1  0
 37101  1  0
 37102  1  0
 38103  1  0
 39104  1  0
 40105  1  0
 40106  1  0
 41107  1  0
 41108  1  0
 42109  1  0
 43110  1  0
 44111  1  0
 45112  1  0
 45113  1  0
 46114  1  0
M  END
>  <PDBID>  (1) 
3FUP

>  <PDB ID>  (1) 
3FUP

>  <Generic Name>  (1) 
Tofacitinib

>  <Brand Name>  (1) 
Xeljanz#Xeljanz XR

>  <DrugBank ID>  (1) 
DB08895

>  <ATC Codes>  (1) 
L04AA29

>  <Ligand ID>  (1) 
MI1

>  <Target Name>  (1) 
Tyrosine-protein kinase JAK2

>  <UniProt ID>  (1) 
O60674

>  <PDB ID.1>  (1) 
3FUP

>  <Seq. Identity>  (1) 
100%

$$$$
