PDB_DB00317_09
     RDKit          3D

 71 74  0  0  0  0  0  0  0  0999 V2000
    4.6576    2.3335   -0.0540 C   0  0  0  0  0  0  0  0  0  0  0  0
    5.7917    2.9759   -0.7959 C   0  0  0  0  0  0  0  0  0  0  0  0
    6.8245    3.2182    0.0795 O   0  0  0  0  0  0  0  0  0  0  0  0
    6.8013    2.4465    1.2182 C   0  0  0  0  0  0  0  0  0  0  0  0
    6.3466    1.0464    0.9432 C   0  0  0  0  0  0  0  0  0  0  0  0
    5.0198    1.0222    0.3956 N   0  0  0  0  0  0  0  0  0  0  0  0
    4.0549    0.4972    1.3122 C   0  0  0  0  0  0  0  0  0  0  0  0
    2.7285    0.1973    0.6107 C   0  0  0  0  0  0  0  0  0  0  0  0
    3.0272   -0.8349   -0.4528 C   0  0  0  0  0  0  0  0  0  0  0  0
    1.9092   -1.1510   -1.1384 O   0  0  0  0  0  0  0  0  0  0  0  0
    0.8507   -1.6908   -0.4931 C   0  0  0  0  0  0  0  0  0  0  0  0
    0.4982   -3.0934   -0.9501 C   0  0  0  0  0  0  0  0  0  0  0  0
   -0.3970   -3.6935    0.0874 C   0  0  0  0  0  0  0  0  0  0  0  0
    1.6255   -3.8642   -1.1914 O   0  0  0  0  0  0  0  0  0  0  0  0
    1.6969   -4.2950   -2.5129 C   0  0  0  0  0  0  0  0  0  0  0  0
   -0.4263   -0.8757   -0.6327 C   0  0  0  0  0  0  0  0  0  0  0  0
   -1.3941   -1.4104    0.3897 C   0  0  0  0  0  0  0  0  0  0  0  0
   -1.6458   -2.8735    0.2638 C   0  0  0  0  0  0  0  0  0  0  0  0
   -2.3815   -3.2876    1.4469 N   0  0  0  0  0  0  0  0  0  0  0  0
   -3.6660   -2.5862    1.3902 C   0  0  0  0  0  0  0  0  0  0  0  0
   -3.5076   -1.1668    1.4492 N   0  0  0  0  0  0  0  0  0  0  0  0
   -2.7313   -0.7091    0.3190 C   0  0  0  0  0  0  0  0  0  0  0  0
   -2.5773    0.7304    0.3108 N   0  0  0  0  0  0  0  0  0  0  0  0
   -3.6464    1.3747   -0.3976 C   0  0  0  0  0  0  0  0  0  0  0  0
   -4.9921    1.1096    0.2732 C   0  0  0  0  0  0  0  0  0  0  0  0
   -6.0724    1.8090   -0.5170 C   0  0  0  0  0  0  0  0  0  0  0  0
   -6.4563    0.9051   -2.0243 Cl  0  0  0  0  0  0  0  0  0  0  0  0
   -5.7304    3.2073   -0.9062 C   0  0  0  0  0  0  0  0  0  0  0  0
   -6.7948    4.0290   -0.6098 F   0  0  0  0  0  0  0  0  0  0  0  0
   -4.5677    3.6780   -0.0809 C   0  0  0  0  0  0  0  0  0  0  0  0
   -3.3540    2.8485   -0.4430 C   0  0  0  0  0  0  0  0  0  0  0  0
    3.8341    2.2020   -0.7975 H   0  0  0  0  0  0  0  0  0  0  0  0
    4.4015    2.9754    0.7952 H   0  0  0  0  0  0  0  0  0  0  0  0
    5.3936    3.9306   -1.2531 H   0  0  0  0  0  0  0  0  0  0  0  0
    6.0915    2.3257   -1.6484 H   0  0  0  0  0  0  0  0  0  0  0  0
    7.8525    2.4398    1.6095 H   0  0  0  0  0  0  0  0  0  0  0  0
    6.2061    2.8867    2.0446 H   0  0  0  0  0  0  0  0  0  0  0  0
    6.4172    0.4672    1.8933 H   0  0  0  0  0  0  0  0  0  0  0  0
    7.0534    0.5372    0.2453 H   0  0  0  0  0  0  0  0  0  0  0  0
    3.9016    1.1771    2.1676 H   0  0  0  0  0  0  0  0  0  0  0  0
    4.4730   -0.4443    1.7161 H   0  0  0  0  0  0  0  0  0  0  0  0
    2.0368   -0.2279    1.3501 H   0  0  0  0  0  0  0  0  0  0  0  0
    2.2782    1.1079    0.2064 H   0  0  0  0  0  0  0  0  0  0  0  0
    3.3596   -1.7486    0.1256 H   0  0  0  0  0  0  0  0  0  0  0  0
    3.8832   -0.5183   -1.0884 H   0  0  0  0  0  0  0  0  0  0  0  0
    1.0752   -1.7922    0.5911 H   0  0  0  0  0  0  0  0  0  0  0  0
   -0.0658   -3.0082   -1.8987 H   0  0  0  0  0  0  0  0  0  0  0  0
    0.1526   -3.7751    1.0364 H   0  0  0  0  0  0  0  0  0  0  0  0
   -0.7350   -4.7051   -0.2911 H   0  0  0  0  0  0  0  0  0  0  0  0
    1.7317   -3.4372   -3.2240 H   0  0  0  0  0  0  0  0  0  0  0  0
    2.6637   -4.8220   -2.6331 H   0  0  0  0  0  0  0  0  0  0  0  0
    0.8980   -5.0195   -2.7149 H   0  0  0  0  0  0  0  0  0  0  0  0
   -0.2417    0.1877   -0.4001 H   0  0  0  0  0  0  0  0  0  0  0  0
   -0.8200   -0.9571   -1.6697 H   0  0  0  0  0  0  0  0  0  0  0  0
   -0.9637   -1.2076    1.3887 H   0  0  0  0  0  0  0  0  0  0  0  0
   -2.3232   -3.0333   -0.6075 H   0  0  0  0  0  0  0  0  0  0  0  0
   -1.8151   -2.9162    2.2655 H   0  0  0  0  0  0  0  0  0  0  0  0
   -4.1139   -2.8902    0.4071 H   0  0  0  0  0  0  0  0  0  0  0  0
   -4.2732   -2.9546    2.2323 H   0  0  0  0  0  0  0  0  0  0  0  0
   -2.9990   -0.8944    2.3150 H   0  0  0  0  0  0  0  0  0  0  0  0
   -3.1984   -0.9926   -0.6467 H   0  0  0  0  0  0  0  0  0  0  0  0
   -2.3492    1.1518    1.2127 H   0  0  0  0  0  0  0  0  0  0  0  0
   -3.7551    1.0068   -1.4382 H   0  0  0  0  0  0  0  0  0  0  0  0
   -5.1630    0.0047    0.1225 H   0  0  0  0  0  0  0  0  0  0  0  0
   -5.0311    1.4314    1.3106 H   0  0  0  0  0  0  0  0  0  0  0  0
   -7.0234    1.7971    0.0743 H   0  0  0  0  0  0  0  0  0  0  0  0
   -5.4721    3.2569   -1.9994 H   0  0  0  0  0  0  0  0  0  0  0  0
   -4.8363    3.5913    0.9887 H   0  0  0  0  0  0  0  0  0  0  0  0
   -4.3964    4.7457   -0.3021 H   0  0  0  0  0  0  0  0  0  0  0  0
   -3.0537    3.1284   -1.4632 H   0  0  0  0  0  0  0  0  0  0  0  0
   -2.5652    3.0962    0.2990 H   0  0  0  0  0  0  0  0  0  0  0  0
  1  2  1  0
  2  3  1  0
  3  4  1  0
  4  5  1  0
  1  6  1  0
  5  6  1  0
  6  7  1  0
  7  8  1  0
  8  9  1  0
  9 10  1  0
 10 11  1  0
 11 12  1  0
 12 13  1  0
 12 14  1  0
 14 15  1  0
 11 16  1  0
 16 17  1  0
 13 18  1  0
 17 18  1  0
 18 19  1  0
 19 20  1  0
 20 21  1  0
 17 22  1  0
 21 22  1  0
 22 23  1  0
 23 24  1  0
 24 25  1  0
 25 26  1  0
 26 27  1  0
 26 28  1  0
 28 29  1  0
 28 30  1  0
 24 31  1  0
 30 31  1  0
  1 32  1  0
  1 33  1  0
  2 34  1  0
  2 35  1  0
  4 36  1  0
  4 37  1  0
  5 38  1  0
  5 39  1  0
  7 40  1  0
  7 41  1  0
  8 42  1  0
  8 43  1  0
  9 44  1  0
  9 45  1  0
 11 46  1  0
 12 47  1  0
 13 48  1  0
 13 49  1  0
 15 50  1  0
 15 51  1  0
 15 52  1  0
 16 53  1  0
 16 54  1  0
 17 55  1  0
 18 56  1  0
 19 57  1  0
 20 58  1  0
 20 59  1  0
 21 60  1  0
 22 61  1  0
 23 62  1  0
 24 63  1  0
 25 64  1  0
 25 65  1  0
 26 66  1  0
 28 67  1  0
 30 68  1  0
 30 69  1  0
 31 70  1  0
 31 71  1  0
M  END
>  <PDBID>  (1) 
4WKQ

>  <PDB ID>  (1) 
4WKQ

>  <Generic Name>  (1) 
Gefitinib

>  <Brand Name>  (1) 
Iressa

>  <DrugBank ID>  (1) 
DB00317

>  <ATC Codes>  (1) 
L01XE02

>  <Ligand ID>  (1) 
IRE

>  <Target Name>  (1) 
Epidermal growth factor receptor

>  <UniProt ID>  (1) 
P00533

>  <PDB ID.1>  (1) 
4WKQ

>  <Seq. Identity>  (1) 
96%

$$$$
