PDB_DB00203_06
     RDKit          3D

 79 82  0  0  0  0  0  0  0  0999 V2000
    7.0120    1.1760    0.6025 C   0  0  0  0  0  0  0  0  0  0  0  0
    6.7251    0.0392    1.5439 C   0  0  0  0  0  0  0  0  0  0  0  0
    5.2453   -0.1956    1.7652 C   0  0  0  0  0  0  0  0  0  0  0  0
    4.6073   -0.5204    0.4412 C   0  0  0  0  0  0  0  0  0  0  0  0
    5.1722   -1.7030   -0.1677 N   0  0  0  0  0  0  0  0  0  0  0  0
    4.1561   -2.4051   -0.7744 N   0  0  0  0  0  0  0  0  0  0  0  0
    4.4912   -2.8784   -2.0979 C   0  0  0  0  0  0  0  0  0  0  0  0
    2.9638   -1.6251   -0.7307 C   0  0  0  0  0  0  0  0  0  0  0  0
    1.7009   -2.4281   -0.6214 C   0  0  0  0  0  0  0  0  0  0  0  0
    1.8793   -3.6643   -0.0557 O   0  0  0  0  0  0  0  0  0  0  0  0
    0.7718   -1.6487    0.1713 N   0  0  0  0  0  0  0  0  0  0  0  0
    1.0068   -0.2296    0.0250 C   0  0  0  0  0  0  0  0  0  0  0  0
    2.2562    0.1709    0.6734 N   0  0  0  0  0  0  0  0  0  0  0  0
    3.1570   -0.9205    0.5934 C   0  0  0  0  0  0  0  0  0  0  0  0
   -0.1329    0.5551    0.5716 C   0  0  0  0  0  0  0  0  0  0  0  0
   -1.4057    0.1697   -0.1456 C   0  0  0  0  0  0  0  0  0  0  0  0
   -2.4716    1.2296   -0.0293 C   0  0  0  0  0  0  0  0  0  0  0  0
   -2.0567    2.5725   -0.5169 C   0  0  0  0  0  0  0  0  0  0  0  0
   -0.5852    2.5469   -0.8272 C   0  0  0  0  0  0  0  0  0  0  0  0
    0.1181    2.0443    0.4421 C   0  0  0  0  0  0  0  0  0  0  0  0
    1.4382    2.3904    0.3253 O   0  0  0  0  0  0  0  0  0  0  0  0
    1.8832    3.3530    1.2073 C   0  0  0  0  0  0  0  0  0  0  0  0
    1.1745    4.6767    1.0939 C   0  0  0  0  0  0  0  0  0  0  0  0
   -3.8444    0.6837   -0.9918 S   0  0  0  0  0  0  0  0  0  0  0  0
   -3.2297    0.6089   -2.5935 O   0  0  0  0  0  0  0  0  0  0  0  0
   -4.9208    1.8966   -1.0132 O   0  0  0  0  0  0  0  0  0  0  0  0
   -4.3008   -0.7129   -0.5898 N   0  0  0  0  0  0  0  0  0  0  0  0
   -5.0265   -1.5280   -1.5066 C   0  0  0  0  0  0  0  0  0  0  0  0
   -5.9641   -2.4979   -0.8643 C   0  0  0  0  0  0  0  0  0  0  0  0
   -6.6464   -1.9491    0.2805 N   0  0  0  0  0  0  0  0  0  0  0  0
   -7.7116   -1.0362   -0.0907 C   0  0  0  0  0  0  0  0  0  0  0  0
   -5.7686   -1.4038    1.2672 C   0  0  0  0  0  0  0  0  0  0  0  0
   -4.3964   -1.0732    0.7823 C   0  0  0  0  0  0  0  0  0  0  0  0
    7.6213    1.9479    1.1592 H   0  0  0  0  0  0  0  0  0  0  0  0
    7.5746    0.8102   -0.2806 H   0  0  0  0  0  0  0  0  0  0  0  0
    6.0971    1.6609    0.1998 H   0  0  0  0  0  0  0  0  0  0  0  0
    7.2336    0.2178    2.5183 H   0  0  0  0  0  0  0  0  0  0  0  0
    7.1010   -0.9039    1.0683 H   0  0  0  0  0  0  0  0  0  0  0  0
    4.7749    0.7481    2.1265 H   0  0  0  0  0  0  0  0  0  0  0  0
    5.1310   -1.0440    2.4428 H   0  0  0  0  0  0  0  0  0  0  0  0
    4.6687    0.3029   -0.2909 H   0  0  0  0  0  0  0  0  0  0  0  0
    5.6402   -2.2694    0.5998 H   0  0  0  0  0  0  0  0  0  0  0  0
    3.5597   -3.2895   -2.5441 H   0  0  0  0  0  0  0  0  0  0  0  0
    4.9247   -2.0579   -2.6984 H   0  0  0  0  0  0  0  0  0  0  0  0
    5.1873   -3.7408   -1.9806 H   0  0  0  0  0  0  0  0  0  0  0  0
    2.9321   -0.8640   -1.5269 H   0  0  0  0  0  0  0  0  0  0  0  0
    1.2618   -2.5363   -1.6316 H   0  0  0  0  0  0  0  0  0  0  0  0
    1.4416   -4.3839   -0.6002 H   0  0  0  0  0  0  0  0  0  0  0  0
    0.8646   -1.9882    1.1505 H   0  0  0  0  0  0  0  0  0  0  0  0
    1.1342   -0.0262   -1.0566 H   0  0  0  0  0  0  0  0  0  0  0  0
    2.0788    0.5118    1.6469 H   0  0  0  0  0  0  0  0  0  0  0  0
    3.1042   -1.6229    1.4500 H   0  0  0  0  0  0  0  0  0  0  0  0
   -0.2783    0.3418    1.6482 H   0  0  0  0  0  0  0  0  0  0  0  0
   -1.1733    0.0284   -1.2167 H   0  0  0  0  0  0  0  0  0  0  0  0
   -1.8107   -0.7411    0.3418 H   0  0  0  0  0  0  0  0  0  0  0  0
   -2.7567    1.3192    1.0344 H   0  0  0  0  0  0  0  0  0  0  0  0
   -2.2597    3.3878    0.2323 H   0  0  0  0  0  0  0  0  0  0  0  0
   -2.6533    2.8759   -1.4122 H   0  0  0  0  0  0  0  0  0  0  0  0
   -0.4229    1.8654   -1.6761 H   0  0  0  0  0  0  0  0  0  0  0  0
   -0.1685    3.5299   -1.0603 H   0  0  0  0  0  0  0  0  0  0  0  0
   -0.3328    2.6325    1.2658 H   0  0  0  0  0  0  0  0  0  0  0  0
    1.7275    2.9782    2.2580 H   0  0  0  0  0  0  0  0  0  0  0  0
    2.9697    3.4837    1.0502 H   0  0  0  0  0  0  0  0  0  0  0  0
    1.2233    5.1062    0.0856 H   0  0  0  0  0  0  0  0  0  0  0  0
    1.6245    5.3949    1.8406 H   0  0  0  0  0  0  0  0  0  0  0  0
    0.1085    4.6063    1.3838 H   0  0  0  0  0  0  0  0  0  0  0  0
   -3.8777    0.9604   -3.2239 H   0  0  0  0  0  0  0  0  0  0  0  0
   -5.7352    1.6196   -1.4953 H   0  0  0  0  0  0  0  0  0  0  0  0
   -4.3436   -2.0953   -2.1753 H   0  0  0  0  0  0  0  0  0  0  0  0
   -5.6212   -0.8700   -2.1864 H   0  0  0  0  0  0  0  0  0  0  0  0
   -5.4601   -3.4356   -0.5948 H   0  0  0  0  0  0  0  0  0  0  0  0
   -6.7549   -2.7641   -1.6087 H   0  0  0  0  0  0  0  0  0  0  0  0
   -7.5757   -0.7889   -1.1584 H   0  0  0  0  0  0  0  0  0  0  0  0
   -8.6812   -1.5529    0.0275 H   0  0  0  0  0  0  0  0  0  0  0  0
   -7.7300   -0.1383    0.5625 H   0  0  0  0  0  0  0  0  0  0  0  0
   -5.6705   -2.1320    2.1148 H   0  0  0  0  0  0  0  0  0  0  0  0
   -6.2616   -0.4926    1.7167 H   0  0  0  0  0  0  0  0  0  0  0  0
   -3.9467   -0.2865    1.4022 H   0  0  0  0  0  0  0  0  0  0  0  0
   -3.7680   -1.9992    0.9223 H   0  0  0  0  0  0  0  0  0  0  0  0
  1  2  1  0
  2  3  1  0
  3  4  1  0
  4  5  1  0
  5  6  1  0
  6  7  1  0
  6  8  1  0
  8  9  1  0
  9 10  1  0
  9 11  1  0
 11 12  1  0
 12 13  1  0
  4 14  1  0
  8 14  1  0
 13 14  1  0
 12 15  1  0
 15 16  1  0
 16 17  1  0
 17 18  1  0
 18 19  1  0
 15 20  1  0
 19 20  1  0
 20 21  1  0
 21 22  1  0
 22 23  1  0
 17 24  1  0
 24 25  1  0
 24 26  1  0
 24 27  1  0
 27 28  1  0
 28 29  1  0
 29 30  1  0
 30 31  1  0
 30 32  1  0
 27 33  1  0
 32 33  1  0
  1 34  1  0
  1 35  1  0
  1 36  1  0
  2 37  1  0
  2 38  1  0
  3 39  1  0
  3 40  1  0
  4 41  1  0
  5 42  1  0
  7 43  1  0
  7 44  1  0
  7 45  1  0
  8 46  1  0
  9 47  1  0
 10 48  1  0
 11 49  1  0
 12 50  1  0
 13 51  1  0
 14 52  1  0
 15 53  1  0
 16 54  1  0
 16 55  1  0
 17 56  1  0
 18 57  1  0
 18 58  1  0
 19 59  1  0
 19 60  1  0
 20 61  1  0
 22 62  1  0
 22 63  1  0
 23 64  1  0
 23 65  1  0
 23 66  1  0
 25 67  1  0
 26 68  1  0
 28 69  1  0
 28 70  1  0
 29 71  1  0
 29 72  1  0
 31 73  1  0
 31 74  1  0
 31 75  1  0
 32 76  1  0
 32 77  1  0
 33 78  1  0
 33 79  1  0
M  END
>  <PDBID>  (1) 
1UDT

>  <PDB ID>  (1) 
1UDT

>  <Generic Name>  (1) 
Sildenafil

>  <Brand Name>  (1) 
Act Sildenafil#Apo-sildenafil#Apo-sildenafil R#Auro-sildenafil#Dom-sildenafil#Gd-sildenafil#Ipg-sildenafil#Jamp-sildenafil#M-sildenafil#Mar-sildenafil#Mint-sildenafil#Myl-sildenafil#Mylan-sildenafil#PMS-sildenafil#PMS-sildenafil R#Pb-sildenafil#Priva-sildenafil#Ran-sildenafil#Ratio-sildenafil#Ratio-sildenafil R#Revatio#Riva-sildenafil#Sandoz Sildenafil#Sildenafil#Sildenafil Citrate#Sildenafil R#Sildenafil Tablets#Teva-sildenafil#Van-sildenafil#Viagra

>  <DrugBank ID>  (1) 
DB00203

>  <ATC Codes>  (1) 
G04BE03

>  <Ligand ID>  (1) 
VIA

>  <Target Name>  (1) 
cGMP-specific 3',5'-cyclic phosphodiesterase

>  <UniProt ID>  (1) 
O76074

>  <PDB ID.1>  (1) 
1UDT

>  <Seq. Identity>  (1) 
94%

$$$$
