PDB_DB06626_07
     RDKit          3D

 70 73  0  0  0  0  0  0  0  0999 V2000
   -6.0268   -1.7913   -1.3099 O   0  0  0  0  0  0  0  0  0  0  0  0
   -4.9911   -1.6064   -0.3604 C   0  0  0  0  0  0  0  0  0  0  0  0
   -5.1087   -2.7214    0.5631 N   0  0  0  0  0  0  0  0  0  0  0  0
   -6.4177   -2.8742    1.1260 C   0  0  0  0  0  0  0  0  0  0  0  0
   -5.2424   -0.2946    0.2870 C   0  0  0  0  0  0  0  0  0  0  0  0
   -5.2260    0.8328   -0.7114 C   0  0  0  0  0  0  0  0  0  0  0  0
   -5.9386    2.0335   -0.0765 C   0  0  0  0  0  0  0  0  0  0  0  0
   -5.6898    2.0540    1.4189 C   0  0  0  0  0  0  0  0  0  0  0  0
   -4.3323    0.0522    1.4350 C   0  0  0  0  0  0  0  0  0  0  0  0
   -4.2337    1.5715    1.5928 C   0  0  0  0  0  0  0  0  0  0  0  0
   -2.7858   -0.7999    1.4876 S   0  0  0  0  0  0  0  0  0  0  0  0
   -1.5858   -0.3875    0.2161 C   0  0  0  0  0  0  0  0  0  0  0  0
   -1.0890    1.0003    0.4346 C   0  0  0  0  0  0  0  0  0  0  0  0
    0.3847    1.1897    0.4052 C   0  0  0  0  0  0  0  0  0  0  0  0
   -0.5438   -1.4608    0.2180 C   0  0  0  0  0  0  0  0  0  0  0  0
    0.7508   -1.1148   -0.3785 C   0  0  0  0  0  0  0  0  0  0  0  0
    1.8676   -1.4228    0.5321 N   0  0  0  0  0  0  0  0  0  0  0  0
    2.9701   -0.8940   -0.1629 N   0  0  0  0  0  0  0  0  0  0  0  0
    2.5168    0.4278   -0.4854 C   0  0  0  0  0  0  0  0  0  0  0  0
    0.9966    0.3294   -0.6414 C   0  0  0  0  0  0  0  0  0  0  0  0
    3.1799    0.9821   -1.6697 C   0  0  0  0  0  0  0  0  0  0  0  0
    4.6334    1.2048   -1.5793 C   0  0  0  0  0  0  0  0  0  0  0  0
    5.5651    0.0935   -1.2970 C   0  0  0  0  0  0  0  0  0  0  0  0
    5.3978   -0.5283   -0.0275 N   0  0  0  0  0  0  0  0  0  0  0  0
    6.5824   -1.3130    0.3390 C   0  0  0  0  0  0  0  0  0  0  0  0
    7.7316   -0.3556    0.6650 C   0  0  0  0  0  0  0  0  0  0  0  0
    7.5082    0.9513   -0.0699 C   0  0  0  0  0  0  0  0  0  0  0  0
    6.9965    0.6322   -1.4488 C   0  0  0  0  0  0  0  0  0  0  0  0
   -5.8169   -1.3981   -2.1717 H   0  0  0  0  0  0  0  0  0  0  0  0
   -4.0427   -1.7280   -0.8811 H   0  0  0  0  0  0  0  0  0  0  0  0
   -4.3180   -2.8367    1.2035 H   0  0  0  0  0  0  0  0  0  0  0  0
   -6.4753   -2.2908    2.0835 H   0  0  0  0  0  0  0  0  0  0  0  0
   -6.6617   -3.9381    1.3062 H   0  0  0  0  0  0  0  0  0  0  0  0
   -7.1469   -2.4882    0.3812 H   0  0  0  0  0  0  0  0  0  0  0  0
   -6.3262   -0.3377    0.6418 H   0  0  0  0  0  0  0  0  0  0  0  0
   -4.1624    1.0694   -0.9063 H   0  0  0  0  0  0  0  0  0  0  0  0
   -5.8019    0.5568   -1.5961 H   0  0  0  0  0  0  0  0  0  0  0  0
   -5.5382    2.9487   -0.5230 H   0  0  0  0  0  0  0  0  0  0  0  0
   -7.0251    1.8772   -0.2177 H   0  0  0  0  0  0  0  0  0  0  0  0
   -6.3084    1.3249    1.9781 H   0  0  0  0  0  0  0  0  0  0  0  0
   -5.7382    3.0516    1.8647 H   0  0  0  0  0  0  0  0  0  0  0  0
   -4.9091   -0.2575    2.3651 H   0  0  0  0  0  0  0  0  0  0  0  0
   -3.9880    1.7681    2.6517 H   0  0  0  0  0  0  0  0  0  0  0  0
   -3.5869    2.0445    0.8538 H   0  0  0  0  0  0  0  0  0  0  0  0
   -2.1047   -0.4067   -0.7860 H   0  0  0  0  0  0  0  0  0  0  0  0
   -1.5362    1.7127   -0.3029 H   0  0  0  0  0  0  0  0  0  0  0  0
   -1.4178    1.3926    1.4492 H   0  0  0  0  0  0  0  0  0  0  0  0
    0.5978    2.2589    0.1011 H   0  0  0  0  0  0  0  0  0  0  0  0
    0.8692    1.0961    1.3993 H   0  0  0  0  0  0  0  0  0  0  0  0
   -0.9829   -2.3199   -0.3738 H   0  0  0  0  0  0  0  0  0  0  0  0
   -0.3994   -1.8675    1.2396 H   0  0  0  0  0  0  0  0  0  0  0  0
    0.9842   -1.6968   -1.3034 H   0  0  0  0  0  0  0  0  0  0  0  0
    1.7277   -0.8202    1.3735 H   0  0  0  0  0  0  0  0  0  0  0  0
    2.9937   -1.4240   -1.0797 H   0  0  0  0  0  0  0  0  0  0  0  0
    2.7468    1.0427    0.4506 H   0  0  0  0  0  0  0  0  0  0  0  0
    0.6747    0.6850   -1.6371 H   0  0  0  0  0  0  0  0  0  0  0  0
    2.6477    1.9049   -2.0701 H   0  0  0  0  0  0  0  0  0  0  0  0
    3.0479    0.2721   -2.5738 H   0  0  0  0  0  0  0  0  0  0  0  0
    4.8362    2.0467   -0.8096 H   0  0  0  0  0  0  0  0  0  0  0  0
    4.9508    1.7449   -2.5338 H   0  0  0  0  0  0  0  0  0  0  0  0
    5.4855   -0.7109   -2.1078 H   0  0  0  0  0  0  0  0  0  0  0  0
    5.3285    0.2005    0.7535 H   0  0  0  0  0  0  0  0  0  0  0  0
    6.3258   -1.8533    1.2660 H   0  0  0  0  0  0  0  0  0  0  0  0
    6.8367   -2.0357   -0.4348 H   0  0  0  0  0  0  0  0  0  0  0  0
    8.6610   -0.8009    0.2697 H   0  0  0  0  0  0  0  0  0  0  0  0
    7.8003   -0.1460    1.7416 H   0  0  0  0  0  0  0  0  0  0  0  0
    6.8147    1.5659    0.5004 H   0  0  0  0  0  0  0  0  0  0  0  0
    8.4625    1.5404   -0.1347 H   0  0  0  0  0  0  0  0  0  0  0  0
    6.9696    1.5569   -2.0333 H   0  0  0  0  0  0  0  0  0  0  0  0
    7.6557   -0.1485   -1.8995 H   0  0  0  0  0  0  0  0  0  0  0  0
  1  2  1  0
  2  3  1  0
  3  4  1  0
  2  5  1  0
  5  6  1  0
  6  7  1  0
  7  8  1  0
  5  9  1  0
  8 10  1  0
  9 10  1  0
  9 11  1  0
 11 12  1  0
 12 13  1  0
 13 14  1  0
 12 15  1  0
 15 16  1  0
 16 17  1  0
 17 18  1  0
 18 19  1  0
 14 20  1  0
 16 20  1  0
 19 20  1  0
 19 21  1  0
 21 22  1  0
 22 23  1  0
 23 24  1  0
 24 25  1  0
 25 26  1  0
 26 27  1  0
 23 28  1  0
 27 28  1  0
  1 29  1  0
  2 30  1  0
  3 31  1  0
  4 32  1  0
  4 33  1  0
  4 34  1  0
  5 35  1  0
  6 36  1  0
  6 37  1  0
  7 38  1  0
  7 39  1  0
  8 40  1  0
  8 41  1  0
  9 42  1  0
 10 43  1  0
 10 44  1  0
 12 45  1  0
 13 46  1  0
 13 47  1  0
 14 48  1  0
 14 49  1  0
 15 50  1  0
 15 51  1  0
 16 52  1  0
 17 53  1  0
 18 54  1  0
 19 55  1  0
 20 56  1  0
 21 57  1  0
 21 58  1  0
 22 59  1  0
 22 60  1  0
 23 61  1  0
 24 62  1  0
 25 63  1  0
 25 64  1  0
 26 65  1  0
 26 66  1  0
 27 67  1  0
 27 68  1  0
 28 69  1  0
 28 70  1  0
M  END
>  <PDBID>  (1) 
4AG8

>  <PDB ID>  (1) 
4AG8

>  <Generic Name>  (1) 
Axitinib

>  <Brand Name>  (1) 
Inlyta

>  <DrugBank ID>  (1) 
DB06626

>  <ATC Codes>  (1) 
L01XE17

>  <Ligand ID>  (1) 
AXI

>  <Target Name>  (1) 
Vascular endothelial growth factor receptor 3

>  <UniProt ID>  (1) 
P35916

>  <PDB ID.1>  (1) 
4AG8

>  <Seq. Identity>  (1) 
67%

$$$$
