PDB_DB04743_04
     RDKit          3D

 96 98  0  0  0  0  0  0  0  0999 V2000
   -1.6097   -4.0742    1.1532 O   0  0  0  0  0  0  0  0  0  0  0  0
   -2.4356   -3.0528    0.8249 N   0  0  0  0  0  0  0  0  0  0  0  0
   -3.6683   -3.5800    0.6412 O   0  0  0  0  0  0  0  0  0  0  0  0
   -2.0045   -2.5416   -0.4789 C   0  0  0  0  0  0  0  0  0  0  0  0
   -2.9341   -1.4122   -0.8196 C   0  0  0  0  0  0  0  0  0  0  0  0
   -2.5323   -0.2222    0.0240 C   0  0  0  0  0  0  0  0  0  0  0  0
   -1.2001    0.2185   -0.5723 C   0  0  0  0  0  0  0  0  0  0  0  0
   -0.8673    1.5367   -0.0882 N   0  0  0  0  0  0  0  0  0  0  0  0
   -2.1782    2.6114   -0.6088 S   0  0  0  0  0  0  0  0  0  0  0  0
   -1.3966    3.9972   -0.9818 O   0  0  0  0  0  0  0  0  0  0  0  0
   -2.9453    1.9913   -1.7790 O   0  0  0  0  0  0  0  0  0  0  0  0
   -3.1373    2.9209    0.7577 C   0  0  0  0  0  0  0  0  0  0  0  0
   -0.5646   -2.2028   -0.4554 C   0  0  0  0  0  0  0  0  0  0  0  0
   -0.1892   -0.8017   -0.1853 C   0  0  0  0  0  0  0  0  0  0  0  0
    1.0220   -0.4834   -0.8129 O   0  0  0  0  0  0  0  0  0  0  0  0
    2.0195   -0.1324    0.0596 C   0  0  0  0  0  0  0  0  0  0  0  0
    2.5244    1.2777   -0.1171 C   0  0  0  0  0  0  0  0  0  0  0  0
    3.8691    1.3987    0.5989 C   0  0  0  0  0  0  0  0  0  0  0  0
    4.9623    0.6712   -0.1171 C   0  0  0  0  0  0  0  0  0  0  0  0
    4.3253   -0.4803   -0.8771 C   0  0  0  0  0  0  0  0  0  0  0  0
    3.2218   -1.0502   -0.0206 C   0  0  0  0  0  0  0  0  0  0  0  0
   -1.6097   -4.0742    1.1532 O   0  0  0  0  0  0  0  0  0  0  0  0
   -2.4356   -3.0528    0.8249 N   0  0  0  0  0  0  0  0  0  0  0  0
   -3.6683   -3.5800    0.6412 O   0  0  0  0  0  0  0  0  0  0  0  0
   -2.0045   -2.5416   -0.4789 C   0  0  0  0  0  0  0  0  0  0  0  0
   -2.9341   -1.4122   -0.8196 C   0  0  0  0  0  0  0  0  0  0  0  0
   -2.5323   -0.2222    0.0240 C   0  0  0  0  0  0  0  0  0  0  0  0
   -1.2001    0.2185   -0.5723 C   0  0  0  0  0  0  0  0  0  0  0  0
   -0.8673    1.5367   -0.0882 N   0  0  0  0  0  0  0  0  0  0  0  0
   -2.1782    2.6114   -0.6088 S   0  0  0  0  0  0  0  0  0  0  0  0
   -1.3966    3.9972   -0.9818 O   0  0  0  0  0  0  0  0  0  0  0  0
   -2.9453    1.9913   -1.7790 O   0  0  0  0  0  0  0  0  0  0  0  0
   -3.1373    2.9209    0.7577 C   0  0  0  0  0  0  0  0  0  0  0  0
   -0.5646   -2.2028   -0.4554 C   0  0  0  0  0  0  0  0  0  0  0  0
   -0.1892   -0.8017   -0.1853 C   0  0  0  0  0  0  0  0  0  0  0  0
    1.0220   -0.4834   -0.8129 O   0  0  0  0  0  0  0  0  0  0  0  0
    2.0195   -0.1324    0.0596 C   0  0  0  0  0  0  0  0  0  0  0  0
    2.5244    1.2777   -0.1171 C   0  0  0  0  0  0  0  0  0  0  0  0
    3.8691    1.3987    0.5989 C   0  0  0  0  0  0  0  0  0  0  0  0
    4.9623    0.6712   -0.1171 C   0  0  0  0  0  0  0  0  0  0  0  0
    4.3253   -0.4803   -0.8771 C   0  0  0  0  0  0  0  0  0  0  0  0
    3.2218   -1.0502   -0.0206 C   0  0  0  0  0  0  0  0  0  0  0  0
   -3.6915   -4.5547    0.7923 H   0  0  0  0  0  0  0  0  0  0  0  0
   -2.2237   -3.3620   -1.1959 H   0  0  0  0  0  0  0  0  0  0  0  0
   -3.9605   -1.7504   -0.6253 H   0  0  0  0  0  0  0  0  0  0  0  0
   -2.8049   -1.1237   -1.8756 H   0  0  0  0  0  0  0  0  0  0  0  0
   -2.3044   -0.6340    1.0459 H   0  0  0  0  0  0  0  0  0  0  0  0
   -3.2792    0.5666    0.0436 H   0  0  0  0  0  0  0  0  0  0  0  0
   -1.2957    0.2383   -1.6777 H   0  0  0  0  0  0  0  0  0  0  0  0
   -0.9275    1.5867    0.9487 H   0  0  0  0  0  0  0  0  0  0  0  0
   -0.4612    3.8206   -1.3110 H   0  0  0  0  0  0  0  0  0  0  0  0
   -3.9536    1.9986   -1.7610 H   0  0  0  0  0  0  0  0  0  0  0  0
   -2.7651    2.3210    1.6228 H   0  0  0  0  0  0  0  0  0  0  0  0
   -4.2087    2.7238    0.5348 H   0  0  0  0  0  0  0  0  0  0  0  0
   -3.0610    4.0121    1.0373 H   0  0  0  0  0  0  0  0  0  0  0  0
   -0.0555   -2.8663    0.2775 H   0  0  0  0  0  0  0  0  0  0  0  0
   -0.1198   -2.4972   -1.4511 H   0  0  0  0  0  0  0  0  0  0  0  0
    0.0084   -0.6713    0.9200 H   0  0  0  0  0  0  0  0  0  0  0  0
    1.6056   -0.1876    1.1037 H   0  0  0  0  0  0  0  0  0  0  0  0
    2.6239    1.5668   -1.1833 H   0  0  0  0  0  0  0  0  0  0  0  0
    1.8536    1.9975    0.3781 H   0  0  0  0  0  0  0  0  0  0  0  0
    3.7139    0.9375    1.6004 H   0  0  0  0  0  0  0  0  0  0  0  0
    4.1364    2.4726    0.7411 H   0  0  0  0  0  0  0  0  0  0  0  0
    5.6769    0.2019    0.6094 H   0  0  0  0  0  0  0  0  0  0  0  0
    5.5645    1.2838   -0.7894 H   0  0  0  0  0  0  0  0  0  0  0  0
    3.9560   -0.1659   -1.8650 H   0  0  0  0  0  0  0  0  0  0  0  0
    5.0886   -1.2472   -1.0212 H   0  0  0  0  0  0  0  0  0  0  0  0
    2.9691   -2.0447   -0.4480 H   0  0  0  0  0  0  0  0  0  0  0  0
    3.6342   -1.2124    0.9909 H   0  0  0  0  0  0  0  0  0  0  0  0
   -3.6915   -4.5547    0.7923 H   0  0  0  0  0  0  0  0  0  0  0  0
   -2.2237   -3.3620   -1.1959 H   0  0  0  0  0  0  0  0  0  0  0  0
   -3.9605   -1.7504   -0.6253 H   0  0  0  0  0  0  0  0  0  0  0  0
   -2.8049   -1.1237   -1.8756 H   0  0  0  0  0  0  0  0  0  0  0  0
   -2.3044   -0.6340    1.0459 H   0  0  0  0  0  0  0  0  0  0  0  0
   -3.2792    0.5666    0.0436 H   0  0  0  0  0  0  0  0  0  0  0  0
   -1.2957    0.2383   -1.6777 H   0  0  0  0  0  0  0  0  0  0  0  0
   -0.9275    1.5867    0.9487 H   0  0  0  0  0  0  0  0  0  0  0  0
   -0.4612    3.8206   -1.3110 H   0  0  0  0  0  0  0  0  0  0  0  0
   -3.9536    1.9986   -1.7610 H   0  0  0  0  0  0  0  0  0  0  0  0
   -2.7651    2.3210    1.6228 H   0  0  0  0  0  0  0  0  0  0  0  0
   -4.2087    2.7238    0.5348 H   0  0  0  0  0  0  0  0  0  0  0  0
   -3.0610    4.0121    1.0373 H   0  0  0  0  0  0  0  0  0  0  0  0
   -0.0555   -2.8663    0.2775 H   0  0  0  0  0  0  0  0  0  0  0  0
   -0.1198   -2.4972   -1.4511 H   0  0  0  0  0  0  0  0  0  0  0  0
    0.0084   -0.6713    0.9200 H   0  0  0  0  0  0  0  0  0  0  0  0
    1.6056   -0.1876    1.1037 H   0  0  0  0  0  0  0  0  0  0  0  0
    2.6239    1.5668   -1.1833 H   0  0  0  0  0  0  0  0  0  0  0  0
    1.8536    1.9975    0.3781 H   0  0  0  0  0  0  0  0  0  0  0  0
    3.7139    0.9375    1.6004 H   0  0  0  0  0  0  0  0  0  0  0  0
    4.1364    2.4726    0.7411 H   0  0  0  0  0  0  0  0  0  0  0  0
    5.6769    0.2019    0.6094 H   0  0  0  0  0  0  0  0  0  0  0  0
    5.5645    1.2838   -0.7894 H   0  0  0  0  0  0  0  0  0  0  0  0
    3.9560   -0.1659   -1.8650 H   0  0  0  0  0  0  0  0  0  0  0  0
    5.0886   -1.2472   -1.0212 H   0  0  0  0  0  0  0  0  0  0  0  0
    2.9691   -2.0447   -0.4480 H   0  0  0  0  0  0  0  0  0  0  0  0
    3.6342   -1.2124    0.9909 H   0  0  0  0  0  0  0  0  0  0  0  0
  1  2  1  0
  2  3  1  0
  2  4  1  0
  4  5  1  0
  5  6  1  0
  6  7  1  0
  7  8  1  0
  8  9  1  0
  9 10  1  0
  9 11  1  0
  9 12  1  0
  4 13  1  0
  7 14  1  0
 13 14  1  0
 14 15  1  0
 15 16  1  0
 16 17  1  0
 17 18  1  0
 18 19  1  0
 19 20  1  0
 16 21  1  0
 20 21  1  0
 22 23  1  0
 23 24  1  0
 23 25  1  0
 25 26  1  0
 26 27  1  0
 27 28  1  0
 28 29  1  0
 29 30  1  0
 30 31  1  0
 30 32  1  0
 30 33  1  0
 25 34  1  0
 28 35  1  0
 34 35  1  0
 35 36  1  0
 36 37  1  0
 37 38  1  0
 38 39  1  0
 39 40  1  0
 40 41  1  0
 37 42  1  0
 41 42  1  0
  3 43  1  0
  4 44  1  0
  5 45  1  0
  5 46  1  0
  6 47  1  0
  6 48  1  0
  7 49  1  0
  8 50  1  0
 10 51  1  0
 11 52  1  0
 12 53  1  0
 12 54  1  0
 12 55  1  0
 13 56  1  0
 13 57  1  0
 14 58  1  0
 16 59  1  0
 17 60  1  0
 17 61  1  0
 18 62  1  0
 18 63  1  0
 19 64  1  0
 19 65  1  0
 20 66  1  0
 20 67  1  0
 21 68  1  0
 21 69  1  0
 24 70  1  0
 25 71  1  0
 26 72  1  0
 26 73  1  0
 27 74  1  0
 27 75  1  0
 28 76  1  0
 29 77  1  0
 31 78  1  0
 32 79  1  0
 33 80  1  0
 33 81  1  0
 33 82  1  0
 34 83  1  0
 34 84  1  0
 35 85  1  0
 37 86  1  0
 38 87  1  0
 38 88  1  0
 39 89  1  0
 39 90  1  0
 40 91  1  0
 40 92  1  0
 41 93  1  0
 41 94  1  0
 42 95  1  0
 42 96  1  0
M  CHG  2   1  -1  22  -1
M  END
>  <PDBID>  (1) 
3N8X

>  <PDB ID>  (1) 
3N8X

>  <Generic Name>  (1) 
Nimesulide

>  <Brand Name>  (1) 
Ainex#Aulin#Coxtal#Eskaflam#Mesulid#Nilsid#Nimalox#Nimside#Nise#Octaprin#Sintalgin#Sulide

>  <DrugBank ID>  (1) 
DB04743

>  <ATC Codes>  (1) 
M02AA26#M01AX17

>  <Ligand ID>  (1) 
NIM

>  <Target Name>  (1) 
Prostaglandin G/H synthase 2

>  <UniProt ID>  (1) 
P35354

>  <PDB ID.1>  (1) 
3N8X

>  <Seq. Identity>  (1) 
61%

$$$$
