PDB_DB00176_05
     RDKit          3D

 51 51  0  0  0  0  0  0  0  0999 V2000
    6.3977   -1.3417   -0.2378 C   0  0  0  0  0  0  0  0  0  0  0  0
    5.0693   -1.7713   -0.0174 O   0  0  0  0  0  0  0  0  0  0  0  0
    4.3605   -0.5674    0.1776 C   0  0  0  0  0  0  0  0  0  0  0  0
    2.8859   -0.7970    0.0365 C   0  0  0  0  0  0  0  0  0  0  0  0
    2.1563    0.5669    0.1471 C   0  0  0  0  0  0  0  0  0  0  0  0
    0.8643    0.3492   -0.6037 C   0  0  0  0  0  0  0  0  0  0  0  0
   -0.4155    0.4478    0.1248 C   0  0  0  0  0  0  0  0  0  0  0  0
   -0.8168    1.6814    0.4879 N   0  0  0  0  0  0  0  0  0  0  0  0
   -0.6054    2.6501    1.2481 O   0  0  0  0  0  0  0  0  0  0  0  0
   -0.5620    3.8095    0.3715 C   0  0  0  0  0  0  0  0  0  0  0  0
   -1.7829    4.6293    0.7829 C   0  0  0  0  0  0  0  0  0  0  0  0
   -1.8570    5.7793   -0.0919 N   0  0  0  0  0  0  0  0  0  0  0  0
   -1.5035   -0.3360   -0.5907 C   0  0  0  0  0  0  0  0  0  0  0  0
   -2.7288   -0.3762    0.2637 C   0  0  0  0  0  0  0  0  0  0  0  0
   -2.7076   -1.7332    1.0054 C   0  0  0  0  0  0  0  0  0  0  0  0
   -2.9510   -2.8597    0.0364 C   0  0  0  0  0  0  0  0  0  0  0  0
   -2.3005   -2.5037   -1.2886 C   0  0  0  0  0  0  0  0  0  0  0  0
   -1.0442   -1.6691   -1.0583 C   0  0  0  0  0  0  0  0  0  0  0  0
   -2.3280   -4.1116    0.6185 C   0  0  0  0  0  0  0  0  0  0  0  0
   -2.8958   -4.3411    1.8537 F   0  0  0  0  0  0  0  0  0  0  0  0
   -2.7233   -5.2039   -0.1681 F   0  0  0  0  0  0  0  0  0  0  0  0
   -0.9760   -4.0598    0.7429 F   0  0  0  0  0  0  0  0  0  0  0  0
    7.1242   -2.1428   -0.3177 H   0  0  0  0  0  0  0  0  0  0  0  0
    6.6706   -0.5943    0.4885 H   0  0  0  0  0  0  0  0  0  0  0  0
    6.3244   -0.8443   -1.2906 H   0  0  0  0  0  0  0  0  0  0  0  0
    4.5746   -0.2325    1.2277 H   0  0  0  0  0  0  0  0  0  0  0  0
    4.6901    0.1571   -0.5647 H   0  0  0  0  0  0  0  0  0  0  0  0
    2.5673   -1.3895   -0.8079 H   0  0  0  0  0  0  0  0  0  0  0  0
    2.6031   -1.4374    0.9478 H   0  0  0  0  0  0  0  0  0  0  0  0
    1.8351    0.5807    1.2574 H   0  0  0  0  0  0  0  0  0  0  0  0
    2.7451    1.4123   -0.0326 H   0  0  0  0  0  0  0  0  0  0  0  0
    0.8697    1.2872   -1.3359 H   0  0  0  0  0  0  0  0  0  0  0  0
    0.9549   -0.4646   -1.3341 H   0  0  0  0  0  0  0  0  0  0  0  0
   -0.2003   -0.1351    1.1233 H   0  0  0  0  0  0  0  0  0  0  0  0
   -1.3828    2.0743   -0.4255 H   0  0  0  0  0  0  0  0  0  0  0  0
    0.3275    4.4320    0.6986 H   0  0  0  0  0  0  0  0  0  0  0  0
   -0.5930    3.5190   -0.6331 H   0  0  0  0  0  0  0  0  0  0  0  0
   -1.7807    4.9453    1.8252 H   0  0  0  0  0  0  0  0  0  0  0  0
   -2.6887    3.9411    0.6005 H   0  0  0  0  0  0  0  0  0  0  0  0
   -2.0210    5.3918   -1.0756 H   0  0  0  0  0  0  0  0  0  0  0  0
   -2.7325    6.3441    0.1652 H   0  0  0  0  0  0  0  0  0  0  0  0
   -1.7591    0.2966   -1.4942 H   0  0  0  0  0  0  0  0  0  0  0  0
   -2.6634    0.3680    1.1022 H   0  0  0  0  0  0  0  0  0  0  0  0
   -3.6792   -0.2888   -0.2416 H   0  0  0  0  0  0  0  0  0  0  0  0
   -3.5246   -1.7262    1.7284 H   0  0  0  0  0  0  0  0  0  0  0  0
   -1.7485   -1.8510    1.5607 H   0  0  0  0  0  0  0  0  0  0  0  0
   -4.0077   -3.0418   -0.0929 H   0  0  0  0  0  0  0  0  0  0  0  0
   -2.1409   -3.3483   -1.9503 H   0  0  0  0  0  0  0  0  0  0  0  0
   -3.0124   -1.8086   -1.8003 H   0  0  0  0  0  0  0  0  0  0  0  0
   -0.5658   -1.5325   -2.0470 H   0  0  0  0  0  0  0  0  0  0  0  0
   -0.3214   -2.1536   -0.3877 H   0  0  0  0  0  0  0  0  0  0  0  0
  1  2  1  0
  2  3  1  0
  3  4  1  0
  4  5  1  0
  5  6  1  0
  6  7  1  0
  7  8  1  0
  8  9  1  0
  9 10  1  0
 10 11  1  0
 11 12  1  0
  7 13  1  0
 13 14  1  0
 14 15  1  0
 15 16  1  0
 16 17  1  0
 13 18  1  0
 17 18  1  0
 16 19  1  0
 19 20  1  0
 19 21  1  0
 19 22  1  0
  1 23  1  0
  1 24  1  0
  1 25  1  0
  3 26  1  0
  3 27  1  0
  4 28  1  0
  4 29  1  0
  5 30  1  0
  5 31  1  0
  6 32  1  0
  6 33  1  0
  7 34  1  0
  8 35  1  0
 10 36  1  0
 10 37  1  0
 11 38  1  0
 11 39  1  0
 12 40  1  0
 12 41  1  0
 13 42  1  0
 14 43  1  0
 14 44  1  0
 15 45  1  0
 15 46  1  0
 16 47  1  0
 17 48  1  0
 17 49  1  0
 18 50  1  0
 18 51  1  0
M  END
>  <PDBID>  (1) 
6AWP

>  <PDB ID>  (1) 
6AWP

>  <Generic Name>  (1) 
Fluvoxamine

>  <Brand Name>  (1) 
Act Fluvoxamine#Apo-fluvoxamine Tablets#Ava-fluvoxamine#Bci Fluvoxamine Tablets#Dom-fluvoxamine#Fluvoxamine Maleate#Fluvoxamine Maleate Extended-release#Fluvoxamine Tablets#Fluvoxamine-100#Fluvoxamine-50#Gen-fluvoxamine 100mg#Gen-fluvoxamine 50mg#Luvox#Luvox CR#Novo-fluvoxamine#Nu-fluvoxamine 100 Mg Tab#Nu-fluvoxamine 50 Mg Tab#PHL-fluvoxamine#PMS-fluvoxamine#Ratio-fluvoxamine#Riva-fluvox#Riva-fluvox 100mg Tablets#Riva-fluvox 50mg Tablets#Sandoz Fluvoxamine#Dumirox#Faverin#Fevarin#Floxyfral#Maveral

>  <DrugBank ID>  (1) 
DB00176

>  <ATC Codes>  (1) 
N06AB08

>  <Ligand ID>  (1) 
FVX

>  <Target Name>  (1) 
Sodium-dependent serotonin transporter

>  <UniProt ID>  (1) 
P31645

>  <PDB ID.1>  (1) 
6AWP

>  <Seq. Identity>  (1) 
99%

$$$$
