PDB_DB00685_02
     RDKit          3D

124132  0  0  0  0  0  0  0  0999 V2000
   -1.9850    2.2629    0.0316 C   0  0  0  0  0  0  0  0  0  0  0  0
   -2.9303    3.2886    0.6092 C   0  0  0  0  0  0  0  0  0  0  0  0
   -4.2842    3.3031   -0.0088 C   0  0  0  0  0  0  0  0  0  0  0  0
   -4.3211    4.0801   -1.1595 F   0  0  0  0  0  0  0  0  0  0  0  0
   -4.8515    1.9295   -0.2476 C   0  0  0  0  0  0  0  0  0  0  0  0
   -3.8504    0.9817   -0.8658 C   0  0  0  0  0  0  0  0  0  0  0  0
   -3.5416    1.4547   -2.1222 F   0  0  0  0  0  0  0  0  0  0  0  0
   -2.6126    0.8867   -0.0332 C   0  0  0  0  0  0  0  0  0  0  0  0
   -1.6476   -0.0336   -0.5151 N   0  0  0  0  0  0  0  0  0  0  0  0
   -0.4946   -0.2330    0.2974 C   0  0  0  0  0  0  0  0  0  0  0  0
    0.6788    0.4902   -0.0626 N   0  0  0  0  0  0  0  0  0  0  0  0
    1.8545   -0.3220   -0.3150 C   0  0  0  0  0  0  0  0  0  0  0  0
    2.9753    0.4961   -0.5490 N   0  0  0  0  0  0  0  0  0  0  0  0
    3.4222    1.3736    0.4158 C   0  0  0  0  0  0  0  0  0  0  0  0
    4.8556    1.6696    0.0358 C   0  0  1  0  0  0  0  0  0  0  0  0
    5.7833    0.5192    0.1510 C   0  0  0  0  0  0  0  0  0  0  0  0
    7.2196    0.7616    0.2611 N   0  0  0  0  0  0  0  0  0  0  0  0
    5.1611    0.8136   -1.1657 C   0  0  1  0  0  0  0  0  0  0  0  0
    3.8456    0.2044   -1.5819 C   0  0  0  0  0  0  0  0  0  0  0  0
    2.1723   -1.2657    0.8243 C   0  0  0  0  0  0  0  0  0  0  0  0
    0.9303   -1.7504    1.5466 C   0  0  0  0  0  0  0  0  0  0  0  0
   -0.1844   -1.7248    0.4913 C   0  0  0  0  0  0  0  0  0  0  0  0
   -1.4310   -2.3708    0.9960 C   0  0  0  0  0  0  0  0  0  0  0  0
   -2.4554   -2.3200   -0.1284 C   0  0  0  0  0  0  0  0  0  0  0  0
   -2.1222   -1.2295   -1.1181 C   0  0  0  0  0  0  0  0  0  0  0  0
   -2.3772   -3.6422   -0.8540 C   0  0  0  0  0  0  0  0  0  0  0  0
   -3.3093   -3.6374   -1.9016 O   0  0  0  0  0  0  0  0  0  0  0  0
   -1.0810   -3.8239   -1.3451 O   0  0  0  0  0  0  0  0  0  0  0  0
   -1.9005   -1.6696    2.0803 O   0  0  0  0  0  0  0  0  0  0  0  0
    2.7561   -2.4298    0.2960 F   0  0  0  0  0  0  0  0  0  0  0  0
   -1.8038    2.5684   -1.0321 H   0  0  0  0  0  0  0  0  0  0  0  0
   -2.4544    4.2897    0.3947 H   0  0  0  0  0  0  0  0  0  0  0  0
   -5.6818    2.0395   -0.9744 H   0  0  0  0  0  0  0  0  0  0  0  0
    2.8885    2.3678    0.3373 H   0  0  0  0  0  0  0  0  0  0  0  0
    3.4255    1.0706    1.4720 H   0  0  0  0  0  0  0  0  0  0  0  0
    5.2031    2.7123   -0.0350 H   0  0  0  0  0  0  0  0  0  0  0  0
    5.4532   -0.3606    0.7405 H   0  0  0  0  0  0  0  0  0  0  0  0
    7.6974   -0.1596    0.3786 H   0  0  0  0  0  0  0  0  0  0  0  0
    7.5887    1.1471   -0.6564 H   0  0  0  0  0  0  0  0  0  0  0  0
    5.8423    1.1952   -1.9544 H   0  0  0  0  0  0  0  0  0  0  0  0
    3.9342   -0.8825   -1.7920 H   0  0  0  0  0  0  0  0  0  0  0  0
    3.5369    0.7637   -2.5146 H   0  0  0  0  0  0  0  0  0  0  0  0
    1.0713   -2.7822    1.9281 H   0  0  0  0  0  0  0  0  0  0  0  0
   -1.2693   -1.6451   -1.7358 H   0  0  0  0  0  0  0  0  0  0  0  0
   -1.9482    2.2402    0.0931 C   0  0  0  0  0  0  0  0  0  0  0  0
   -2.8734    3.2900    0.6357 C   0  0  0  0  0  0  0  0  0  0  0  0
   -4.2315    3.3226    0.0316 C   0  0  0  0  0  0  0  0  0  0  0  0
   -4.3374    4.1515   -1.0690 F   0  0  0  0  0  0  0  0  0  0  0  0
   -4.7927    1.9656   -0.2905 C   0  0  0  0  0  0  0  0  0  0  0  0
   -3.7921    1.0637   -0.9714 C   0  0  0  0  0  0  0  0  0  0  0  0
   -3.4588    1.5309   -2.2163 F   0  0  0  0  0  0  0  0  0  0  0  0
   -2.5968    0.8865   -0.0958 C   0  0  0  0  0  0  0  0  0  0  0  0
   -1.6153   -0.0096   -0.6274 N   0  0  0  0  0  0  0  0  0  0  0  0
   -0.5220   -0.2235    0.2671 C   0  0  0  0  0  0  0  0  0  0  0  0
    0.6747    0.5023   -0.0293 N   0  0  0  0  0  0  0  0  0  0  0  0
    1.8183   -0.3227   -0.3628 C   0  0  0  0  0  0  0  0  0  0  0  0
    2.9312    0.5104   -0.5875 N   0  0  0  0  0  0  0  0  0  0  0  0
    3.3873    1.3435    0.4221 C   0  0  0  0  0  0  0  0  0  0  0  0
    4.8157    1.6654    0.0444 C   0  0  1  0  0  0  0  0  0  0  0  0
    5.7588    0.5253    0.1530 C   0  0  0  0  0  0  0  0  0  0  0  0
    7.1781    0.8028    0.2834 N   0  0  0  0  0  0  0  0  0  0  0  0
    5.1369    0.8288   -1.1608 C   0  0  1  0  0  0  0  0  0  0  0  0
    3.8345    0.2018   -1.5895 C   0  0  0  0  0  0  0  0  0  0  0  0
    2.1575   -1.3164    0.7247 C   0  0  0  0  0  0  0  0  0  0  0  0
    0.9075   -1.7725    1.4807 C   0  0  0  0  0  0  0  0  0  0  0  0
   -0.2086   -1.7194    0.4283 C   0  0  0  0  0  0  0  0  0  0  0  0
   -1.4482   -2.3804    0.9350 C   0  0  0  0  0  0  0  0  0  0  0  0
   -2.5537   -2.2087   -0.0833 C   0  0  0  0  0  0  0  0  0  0  0  0
   -2.1320   -1.2281   -1.1522 C   0  0  0  0  0  0  0  0  0  0  0  0
   -2.8077   -3.5477   -0.7426 C   0  0  0  0  0  0  0  0  0  0  0  0
   -3.8099   -3.4803   -1.6916 O   0  0  0  0  0  0  0  0  0  0  0  0
   -1.6163   -3.9832   -1.3235 O   0  0  0  0  0  0  0  0  0  0  0  0
   -1.7925   -1.7743    2.1454 O   0  0  0  0  0  0  0  0  0  0  0  0
    2.6372   -2.4868    0.1129 F   0  0  0  0  0  0  0  0  0  0  0  0
   -1.6593    2.5796   -0.9451 H   0  0  0  0  0  0  0  0  0  0  0  0
   -2.3870    4.2832    0.4005 H   0  0  0  0  0  0  0  0  0  0  0  0
   -5.6240    2.1144   -1.0110 H   0  0  0  0  0  0  0  0  0  0  0  0
    2.8254    2.3244    0.3513 H   0  0  0  0  0  0  0  0  0  0  0  0
    3.4054    0.9760    1.4575 H   0  0  0  0  0  0  0  0  0  0  0  0
    5.1456    2.7093    0.0189 H   0  0  0  0  0  0  0  0  0  0  0  0
    5.4311   -0.3554    0.7568 H   0  0  0  0  0  0  0  0  0  0  0  0
    7.6694   -0.0920    0.4981 H   0  0  0  0  0  0  0  0  0  0  0  0
    7.5855    1.2556   -0.5601 H   0  0  0  0  0  0  0  0  0  0  0  0
    5.7931    1.2644   -1.9420 H   0  0  0  0  0  0  0  0  0  0  0  0
    3.9586   -0.8789   -1.8019 H   0  0  0  0  0  0  0  0  0  0  0  0
    3.5413    0.7330   -2.5426 H   0  0  0  0  0  0  0  0  0  0  0  0
    1.0520   -2.8041    1.8418 H   0  0  0  0  0  0  0  0  0  0  0  0
   -1.2910   -1.7251   -1.7215 H   0  0  0  0  0  0  0  0  0  0  0  0
   -1.0745    2.2980    0.6449 H   0  0  0  0  0  0  0  0  0  0  0  0
   -2.9706    3.1646    1.7112 H   0  0  0  0  0  0  0  0  0  0  0  0
   -4.9764    3.8079    0.7182 H   0  0  0  0  0  0  0  0  0  0  0  0
   -5.2837    1.4809    0.6707 H   0  0  0  0  0  0  0  0  0  0  0  0
   -4.4020   -0.0043   -0.9173 H   0  0  0  0  0  0  0  0  0  0  0  0
   -2.9032    0.6394    1.0302 H   0  0  0  0  0  0  0  0  0  0  0  0
   -0.7819    0.1060    1.3381 H   0  0  0  0  0  0  0  0  0  0  0  0
    0.9963    1.1546    0.7089 H   0  0  0  0  0  0  0  0  0  0  0  0
    1.6471   -0.9348   -1.2121 H   0  0  0  0  0  0  0  0  0  0  0  0
    2.9215   -0.8821    1.5334 H   0  0  0  0  0  0  0  0  0  0  0  0
    0.6997   -1.0228    2.3292 H   0  0  0  0  0  0  0  0  0  0  0  0
    0.2518   -2.1646   -0.4059 H   0  0  0  0  0  0  0  0  0  0  0  0
   -1.2802   -3.4183    1.3295 H   0  0  0  0  0  0  0  0  0  0  0  0
   -3.4755   -2.2353    0.2934 H   0  0  0  0  0  0  0  0  0  0  0  0
   -2.9514   -1.1080   -1.8048 H   0  0  0  0  0  0  0  0  0  0  0  0
   -2.5766   -4.4449   -0.1136 H   0  0  0  0  0  0  0  0  0  0  0  0
   -3.4519   -4.5998   -2.1369 H   0  0  0  0  0  0  0  0  0  0  0  0
   -2.0949   -2.2236    2.8716 H   0  0  0  0  0  0  0  0  0  0  0  0
   -1.0801    2.1899    0.7698 H   0  0  0  0  0  0  0  0  0  0  0  0
   -2.9099    3.2660    1.7653 H   0  0  0  0  0  0  0  0  0  0  0  0
   -4.9320    3.7618    0.8028 H   0  0  0  0  0  0  0  0  0  0  0  0
   -5.2399    1.4611    0.5895 H   0  0  0  0  0  0  0  0  0  0  0  0
   -4.3592    0.0979   -1.1295 H   0  0  0  0  0  0  0  0  0  0  0  0
   -2.9618    0.4770    0.8778 H   0  0  0  0  0  0  0  0  0  0  0  0
   -0.8912    0.0681    1.2977 H   0  0  0  0  0  0  0  0  0  0  0  0
    0.9864    1.0351    0.8398 H   0  0  0  0  0  0  0  0  0  0  0  0
    1.5827   -0.8783   -1.2885 H   0  0  0  0  0  0  0  0  0  0  0  0
    2.9630   -0.9972    1.3979 H   0  0  0  0  0  0  0  0  0  0  0  0
    0.7085   -1.0231    2.2520 H   0  0  0  0  0  0  0  0  0  0  0  0
    0.2333   -2.1627   -0.4680 H   0  0  0  0  0  0  0  0  0  0  0  0
   -1.2757   -3.4596    1.1614 H   0  0  0  0  0  0  0  0  0  0  0  0
   -3.4588   -1.9326    0.4533 H   0  0  0  0  0  0  0  0  0  0  0  0
   -2.9189   -1.0986   -1.8928 H   0  0  0  0  0  0  0  0  0  0  0  0
   -3.0614   -4.2767    0.0664 H   0  0  0  0  0  0  0  0  0  0  0  0
   -1.7619   -4.8719   -1.7633 H   0  0  0  0  0  0  0  0  0  0  0  0
   -1.7695   -2.4184    2.9116 H   0  0  0  0  0  0  0  0  0  0  0  0
  1  2  1  0
  2  3  1  0
  3  4  1  0
  3  5  1  0
  5  6  1  0
  6  7  1  0
  1  8  1  0
  6  8  1  0
  8  9  1  0
  9 10  1  0
 10 11  1  0
 11 12  1  0
 12 13  1  0
 13 14  1  0
 14 15  1  0
 15 16  1  0
 16 17  1  0
 15 18  1  0
 16 18  1  0
 13 19  1  0
 18 19  1  0
 12 20  1  0
 20 21  1  0
 10 22  1  0
 21 22  1  0
 22 23  1  0
 23 24  1  0
  9 25  1  0
 24 25  1  0
 24 26  1  0
 26 27  1  0
 26 28  1  0
 23 29  1  0
 20 30  1  0
  1 31  1  0
  2 32  1  0
  5 33  1  0
 14 34  1  0
 14 35  1  0
 15 36  1  6
 16 37  1  0
 17 38  1  0
 17 39  1  0
 18 40  1  6
 19 41  1  0
 19 42  1  0
 21 43  1  0
 25 44  1  0
 45 46  1  0
 46 47  1  0
 47 48  1  0
 47 49  1  0
 49 50  1  0
 50 51  1  0
 45 52  1  0
 50 52  1  0
 52 53  1  0
 53 54  1  0
 54 55  1  0
 55 56  1  0
 56 57  1  0
 57 58  1  0
 58 59  1  0
 59 60  1  0
 60 61  1  0
 59 62  1  0
 60 62  1  0
 57 63  1  0
 62 63  1  0
 56 64  1  0
 64 65  1  0
 54 66  1  0
 65 66  1  0
 66 67  1  0
 67 68  1  0
 53 69  1  0
 68 69  1  0
 68 70  1  0
 70 71  1  0
 70 72  1  0
 67 73  1  0
 64 74  1  0
 45 75  1  0
 46 76  1  0
 49 77  1  0
 58 78  1  0
 58 79  1  0
 59 80  1  6
 60 81  1  0
 61 82  1  0
 61 83  1  0
 62 84  1  6
 63 85  1  0
 63 86  1  0
 65 87  1  0
 69 88  1  0
  1 89  1  0
  2 90  1  0
  3 91  1  0
  5 92  1  0
  6 93  1  0
  8 94  1  0
 10 95  1  0
 11 96  1  0
 12 97  1  0
 20 98  1  0
 21 99  1  0
 22100  1  0
 23101  1  0
 24102  1  0
 25103  1  0
 26104  1  0
 27105  1  0
 29106  1  0
 45107  1  0
 46108  1  0
 47109  1  0
 49110  1  0
 50111  1  0
 52112  1  0
 54113  1  0
 55114  1  0
 56115  1  0
 64116  1  0
 65117  1  0
 66118  1  0
 67119  1  0
 68120  1  0
 69121  1  0
 70122  1  0
 72123  1  0
 73124  1  0
M  CHG  2  28  -1  71  -1
M  END
>  <PDBID>  (1) 
4Z2E

>  <PDB ID>  (1) 
4Z2E

>  <Generic Name>  (1) 
Trovafloxacin

>  <Brand Name>  (1) 
Trovan I.V.#Trovan Tablets 100mg#Trovan Tablets 200mg#Trovan

>  <DrugBank ID>  (1) 
DB00685

>  <ATC Codes>  (1) 
J01MA13

>  <Ligand ID>  (1) 
TR6

>  <Target Name>  (1) 
DNA gyrase subunit A

>  <UniProt ID>  (1) 
P43700

>  <PDB ID.1>  (1) 
4Z2E

>  <Seq. Identity>  (1) 
50%

$$$$
