PDB_DB01045_07
     RDKit          3D

141145  0  0  0  0  0  0  0  0999 V2000
    1.6236    0.5968    0.4095 C   0  0  0  0  0  0  0  0  0  0  0  0
    3.0348    0.5210   -0.2019 C   0  0  2  0  0  0  0  0  0  0  0  0
    3.9167   -0.4104    0.5294 C   0  0  0  0  0  0  0  0  0  0  0  0
    3.3312   -1.8025    0.6375 C   0  0  0  0  0  0  0  0  0  0  0  0
    1.3117   -3.1841    0.6906 C   0  0  0  0  0  0  0  0  0  0  0  0
    0.0497   -3.0715    1.4829 C   0  0  0  0  0  0  0  0  0  0  0  0
    0.1043   -2.0955    2.6029 C   0  0  0  0  0  0  0  0  0  0  0  0
    1.0333   -0.9374    2.3270 C   0  0  0  0  0  0  0  0  0  0  0  0
    1.0947   -0.7280    0.8504 C   0  0  0  0  0  0  0  0  0  0  0  0
    1.8747   -1.8790    0.2495 C   0  0  0  0  0  0  0  0  0  0  0  0
    0.7995   -4.0436   -0.4766 C   0  0  0  0  0  0  0  0  0  0  0  0
   -0.6240   -3.6072   -0.5423 C   0  0  2  0  0  0  0  0  0  0  0  0
   -0.7943   -2.8863   -1.8850 C   0  0  0  0  0  0  0  0  0  0  0  0
    0.6485   -2.8138    3.8384 C   0  0  0  0  0  0  0  0  0  0  0  0
    2.8285    2.6853   -1.2254 C   0  0  0  0  0  0  0  0  0  0  0  0
    2.4997    4.0804   -0.8347 C   0  0  1  0  0  0  0  0  0  0  0  0
    1.2089    4.3481   -0.1855 C   0  0  0  0  0  0  0  0  0  0  0  0
    0.0082    3.6333   -0.6756 C   0  0  0  0  0  0  0  0  0  0  0  0
   -1.2166    4.4893   -0.8877 C   0  0  0  0  0  0  0  0  0  0  0  0
   -2.3695    4.0770   -0.0187 C   0  0  1  0  0  0  0  0  0  0  0  0
   -2.8964    2.6803   -0.3318 C   0  0  1  0  0  0  0  0  0  0  0  0
   -4.3645    2.5474   -0.1393 C   0  0  2  0  0  0  0  0  0  0  0  0
   -4.8709    1.5451    0.8009 C   0  0  2  0  0  0  0  0  0  0  0  0
   -4.6188    0.1135    0.6223 C   0  0  2  0  0  0  0  0  0  0  0  0
   -5.4293   -0.6231   -0.4046 C   0  0  1  0  0  0  0  0  0  0  0  0
   -4.6183   -1.8581   -0.8352 C   0  0  1  0  0  0  0  0  0  0  0  0
   -4.9040   -3.0769   -0.0308 C   0  0  2  0  0  0  0  0  0  0  0  0
   -3.6001   -3.7650    0.4384 C   0  0  0  0  0  0  0  0  0  0  0  0
   -2.8162   -4.2223   -0.7411 C   0  0  0  0  0  0  0  0  0  0  0  0
    3.6088    4.5599    0.1099 C   0  0  0  0  0  0  0  0  0  0  0  0
   -2.0196    4.1859    1.4458 C   0  0  0  0  0  0  0  0  0  0  0  0
   -5.1363    2.5287   -1.4530 C   0  0  0  0  0  0  0  0  0  0  0  0
   -4.9555   -0.5514    1.9737 C   0  0  0  0  0  0  0  0  0  0  0  0
   -4.8141   -2.1034   -2.3345 C   0  0  0  0  0  0  0  0  0  0  0  0
   -7.7333   -0.5437   -0.5863 C   0  0  2  0  0  0  0  0  0  0  0  0
   -8.4822   -1.6730   -1.2961 C   0  0  0  0  0  0  0  0  0  0  0  0
   -6.6416   -4.6177   -0.0762 C   0  0  0  0  0  0  0  0  0  0  0  0
   11.0691    1.8356   -0.6174 C   0  0  0  0  0  0  0  0  0  0  0  0
    8.6990    2.1769   -0.3902 C   0  0  0  0  0  0  0  0  0  0  0  0
    7.8712    1.4510   -1.4431 C   0  0  0  0  0  0  0  0  0  0  0  0
    8.1253   -0.2361    0.1805 C   0  0  0  0  0  0  0  0  0  0  0  0
    9.5564   -0.0063   -0.2387 C   0  0  0  0  0  0  0  0  0  0  0  0
    5.2447   -0.5676   -0.1487 C   0  0  0  0  0  0  0  0  0  0  0  0
    3.4797    1.8980   -0.1989 N   0  0  0  0  0  0  0  0  0  0  0  0
    6.0364    0.6170   -0.2862 N   0  0  0  0  0  0  0  0  0  0  0  0
    7.2685    0.2466   -0.9004 N   0  0  0  0  0  0  0  0  0  0  0  0
    9.8473    1.4004    0.0054 N   0  0  0  0  0  0  0  0  0  0  0  0
    1.6890    1.5075    1.4577 O   0  0  0  0  0  0  0  0  0  0  0  0
    0.5269    0.2068    2.9820 O   0  0  0  0  0  0  0  0  0  0  0  0
   -0.9058   -2.8182    0.5387 O   0  0  0  0  0  0  0  0  0  0  0  0
    0.9074   -5.3885   -0.0902 O   0  0  0  0  0  0  0  0  0  0  0  0
   -1.5428   -4.6818   -0.4720 O   0  0  0  0  0  0  0  0  0  0  0  0
   -5.5489   -4.1016   -0.7640 O   0  0  0  0  0  0  0  0  0  0  0  0
   -6.6408   -0.9813    0.1212 O   0  0  0  0  0  0  0  0  0  0  0  0
   -8.6656    0.1853    0.0835 O   0  0  0  0  0  0  0  0  0  0  0  0
   -6.2403    1.7561    0.9727 O   0  0  0  0  0  0  0  0  0  0  0  0
   -2.6246    2.3981   -1.6910 O   0  0  0  0  0  0  0  0  0  0  0  0
    3.8052    2.8059   -2.2569 O   0  0  0  0  0  0  0  0  0  0  0  0
    4.0093   -2.7170   -0.1711 O   0  0  0  0  0  0  0  0  0  0  0  0
    1.0080    0.9837   -0.4560 H   0  0  0  0  0  0  0  0  0  0  0  0
    2.9610    0.1609   -1.2619 H   0  0  0  0  0  0  0  0  0  0  0  0
    4.1437   -0.0477    1.5640 H   0  0  0  0  0  0  0  0  0  0  0  0
    3.4370   -2.1731    1.6718 H   0  0  0  0  0  0  0  0  0  0  0  0
    2.0740   -3.7733    1.2657 H   0  0  0  0  0  0  0  0  0  0  0  0
   -0.1610   -4.0897    1.8997 H   0  0  0  0  0  0  0  0  0  0  0  0
   -0.8927   -1.6650    2.8580 H   0  0  0  0  0  0  0  0  0  0  0  0
    2.0567   -1.1458    2.7567 H   0  0  0  0  0  0  0  0  0  0  0  0
    0.0514   -0.7907    0.4726 H   0  0  0  0  0  0  0  0  0  0  0  0
    1.8458   -1.7333   -0.8492 H   0  0  0  0  0  0  0  0  0  0  0  0
    1.3862   -3.8569   -1.3914 H   0  0  0  0  0  0  0  0  0  0  0  0
    0.1809   -2.5891   -2.3227 H   0  0  0  0  0  0  0  0  0  0  0  0
   -1.4169   -1.9960   -1.8096 H   0  0  0  0  0  0  0  0  0  0  0  0
   -1.1888   -3.6495   -2.6204 H   0  0  0  0  0  0  0  0  0  0  0  0
    0.3229   -3.8825    3.8163 H   0  0  0  0  0  0  0  0  0  0  0  0
    1.7531   -2.7583    3.8881 H   0  0  0  0  0  0  0  0  0  0  0  0
    0.2263   -2.3541    4.7548 H   0  0  0  0  0  0  0  0  0  0  0  0
    2.0191    2.1295   -1.6978 H   0  0  0  0  0  0  0  0  0  0  0  0
    2.5865    4.7435   -1.7317 H   0  0  0  0  0  0  0  0  0  0  0  0
    0.9977    5.4535   -0.2952 H   0  0  0  0  0  0  0  0  0  0  0  0
    1.3497    4.2306    0.9295 H   0  0  0  0  0  0  0  0  0  0  0  0
   -0.2750    2.8926    0.1331 H   0  0  0  0  0  0  0  0  0  0  0  0
    0.1621    3.0527   -1.6059 H   0  0  0  0  0  0  0  0  0  0  0  0
   -0.9489    5.5219   -0.5883 H   0  0  0  0  0  0  0  0  0  0  0  0
   -1.5227    4.5424   -1.9419 H   0  0  0  0  0  0  0  0  0  0  0  0
   -3.2066    4.7752   -0.2301 H   0  0  0  0  0  0  0  0  0  0  0  0
   -2.2786    1.9789    0.2479 H   0  0  0  0  0  0  0  0  0  0  0  0
   -4.6769    3.5529    0.3138 H   0  0  0  0  0  0  0  0  0  0  0  0
   -4.4429    1.8136    1.8332 H   0  0  0  0  0  0  0  0  0  0  0  0
   -3.5463   -0.1575    0.4735 H   0  0  0  0  0  0  0  0  0  0  0  0
   -5.5162   -0.0228   -1.3370 H   0  0  0  0  0  0  0  0  0  0  0  0
   -3.5175   -1.6361   -0.7150 H   0  0  0  0  0  0  0  0  0  0  0  0
   -5.4527   -2.8870    0.9112 H   0  0  0  0  0  0  0  0  0  0  0  0
   -3.9797   -4.6618    1.0120 H   0  0  0  0  0  0  0  0  0  0  0  0
   -3.0953   -3.1397    1.1655 H   0  0  0  0  0  0  0  0  0  0  0  0
   -3.3775   -5.0813   -1.2079 H   0  0  0  0  0  0  0  0  0  0  0  0
   -2.8603   -3.4140   -1.4989 H   0  0  0  0  0  0  0  0  0  0  0  0
    3.7968    5.6425   -0.0354 H   0  0  0  0  0  0  0  0  0  0  0  0
    4.5081    3.9295    0.0079 H   0  0  0  0  0  0  0  0  0  0  0  0
    3.2286    4.3869    1.1558 H   0  0  0  0  0  0  0  0  0  0  0  0
   -2.9203    4.5279    1.9994 H   0  0  0  0  0  0  0  0  0  0  0  0
   -1.6744    3.2132    1.8323 H   0  0  0  0  0  0  0  0  0  0  0  0
   -1.2405    4.9816    1.5383 H   0  0  0  0  0  0  0  0  0  0  0  0
   -5.2115    3.5838   -1.8678 H   0  0  0  0  0  0  0  0  0  0  0  0
   -4.6235    1.9729   -2.2489 H   0  0  0  0  0  0  0  0  0  0  0  0
   -6.1963    2.2482   -1.2872 H   0  0  0  0  0  0  0  0  0  0  0  0
   -4.8499    0.2280    2.7834 H   0  0  0  0  0  0  0  0  0  0  0  0
   -6.0108   -0.8271    1.9809 H   0  0  0  0  0  0  0  0  0  0  0  0
   -4.2382   -1.3332    2.2413 H   0  0  0  0  0  0  0  0  0  0  0  0
   -5.6480   -1.4435   -2.7176 H   0  0  0  0  0  0  0  0  0  0  0  0
   -3.9251   -1.7943   -2.9220 H   0  0  0  0  0  0  0  0  0  0  0  0
   -5.0040   -3.1594   -2.5389 H   0  0  0  0  0  0  0  0  0  0  0  0
   -7.3342    0.0778   -1.4415 H   0  0  0  0  0  0  0  0  0  0  0  0
   -9.1224   -2.2417   -0.6018 H   0  0  0  0  0  0  0  0  0  0  0  0
   -9.1245   -1.2492   -2.0946 H   0  0  0  0  0  0  0  0  0  0  0  0
   -7.7549   -2.3479   -1.8224 H   0  0  0  0  0  0  0  0  0  0  0  0
   -7.0801   -5.3995   -0.7352 H   0  0  0  0  0  0  0  0  0  0  0  0
   -7.4109   -3.8686    0.1783 H   0  0  0  0  0  0  0  0  0  0  0  0
   -6.2689   -5.1462    0.8335 H   0  0  0  0  0  0  0  0  0  0  0  0
   11.5745    0.9309   -1.0222 H   0  0  0  0  0  0  0  0  0  0  0  0
   11.7378    2.2354    0.1789 H   0  0  0  0  0  0  0  0  0  0  0  0
   10.8849    2.5640   -1.4214 H   0  0  0  0  0  0  0  0  0  0  0  0
    9.0477    3.1124   -0.8462 H   0  0  0  0  0  0  0  0  0  0  0  0
    8.0409    2.4539    0.4568 H   0  0  0  0  0  0  0  0  0  0  0  0
    8.4825    1.2385   -2.3344 H   0  0  0  0  0  0  0  0  0  0  0  0
    7.0595    2.1473   -1.7412 H   0  0  0  0  0  0  0  0  0  0  0  0
    7.9192   -1.2764    0.4496 H   0  0  0  0  0  0  0  0  0  0  0  0
    7.9515    0.3862    1.0866 H   0  0  0  0  0  0  0  0  0  0  0  0
   10.2650   -0.6588    0.3205 H   0  0  0  0  0  0  0  0  0  0  0  0
    9.6596   -0.2061   -1.3184 H   0  0  0  0  0  0  0  0  0  0  0  0
    5.8813   -1.3414    0.3861 H   0  0  0  0  0  0  0  0  0  0  0  0
    5.1325   -1.0197   -1.1745 H   0  0  0  0  0  0  0  0  0  0  0  0
    3.4656    2.3132    0.7362 H   0  0  0  0  0  0  0  0  0  0  0  0
    5.6034    1.3880   -0.7977 H   0  0  0  0  0  0  0  0  0  0  0  0
    2.4209    1.1905    2.0592 H   0  0  0  0  0  0  0  0  0  0  0  0
   -0.3439    0.3903    2.5379 H   0  0  0  0  0  0  0  0  0  0  0  0
    1.7854   -5.7638   -0.3557 H   0  0  0  0  0  0  0  0  0  0  0  0
   -9.5130    0.2020   -0.4282 H   0  0  0  0  0  0  0  0  0  0  0  0
   -6.4604    2.3633    1.7081 H   0  0  0  0  0  0  0  0  0  0  0  0
   -2.9384    3.1176   -2.2823 H   0  0  0  0  0  0  0  0  0  0  0  0
    4.4860    3.4621   -1.9769 H   0  0  0  0  0  0  0  0  0  0  0  0
    3.7191   -2.6225   -1.1301 H   0  0  0  0  0  0  0  0  0  0  0  0
  1  2  1  0
  2  3  1  0
  3  4  1  0
  5  6  1  0
  6  7  1  0
  7  8  1  0
  1  9  1  0
  8  9  1  0
  4 10  1  0
  5 10  1  0
  9 10  1  0
  5 11  1  0
 11 12  1  0
 12 13  1  6
  7 14  1  0
 15 16  1  0
 16 17  1  0
 17 18  1  0
 18 19  1  0
 19 20  1  0
 20 21  1  0
 21 22  1  0
 22 23  1  0
 23 24  1  0
 24 25  1  0
 25 26  1  0
 26 27  1  0
 27 28  1  0
 28 29  1  0
 16 30  1  0
 20 31  1  0
 22 32  1  0
 24 33  1  0
 26 34  1  0
 35 36  1  0
 39 40  1  0
 41 42  1  0
  3 43  1  0
  2 44  1  0
 15 44  1  0
 43 45  1  0
 40 46  1  0
 41 46  1  0
 45 46  1  0
 38 47  1  0
 39 47  1  0
 42 47  1  0
  1 48  1  0
  8 49  1  0
  6 50  1  0
 12 50  1  0
 11 51  1  0
 12 52  1  0
 29 52  1  0
 27 53  1  0
 37 53  1  0
 25 54  1  0
 35 54  1  0
 35 55  1  0
 23 56  1  0
 21 57  1  0
 15 58  1  0
  4 59  1  0
  1 60  1  0
  2 61  1  6
  3 62  1  0
  4 63  1  0
  5 64  1  0
  6 65  1  0
  7 66  1  0
  8 67  1  0
  9 68  1  0
 10 69  1  0
 11 70  1  0
 13 71  1  0
 13 72  1  0
 13 73  1  0
 14 74  1  0
 14 75  1  0
 14 76  1  0
 15 77  1  0
 16 78  1  6
 17 79  1  0
 17 80  1  0
 18 81  1  0
 18 82  1  0
 19 83  1  0
 19 84  1  0
 20 85  1  1
 21 86  1  1
 22 87  1  1
 23 88  1  1
 24 89  1  6
 25 90  1  6
 26 91  1  6
 27 92  1  1
 28 93  1  0
 28 94  1  0
 29 95  1  0
 29 96  1  0
 30 97  1  0
 30 98  1  0
 30 99  1  0
 31100  1  0
 31101  1  0
 31102  1  0
 32103  1  0
 32104  1  0
 32105  1  0
 33106  1  0
 33107  1  0
 33108  1  0
 34109  1  0
 34110  1  0
 34111  1  0
 35112  1  6
 36113  1  0
 36114  1  0
 36115  1  0
 37116  1  0
 37117  1  0
 37118  1  0
 38119  1  0
 38120  1  0
 38121  1  0
 39122  1  0
 39123  1  0
 40124  1  0
 40125  1  0
 41126  1  0
 41127  1  0
 42128  1  0
 42129  1  0
 43130  1  0
 43131  1  0
 44132  1  0
 45133  1  0
 48134  1  0
 49135  1  0
 51136  1  0
 55137  1  0
 56138  1  0
 57139  1  0
 58140  1  0
 59141  1  0
M  END
>  <PDBID>  (1) 
5UAC

>  <PDB ID>  (1) 
5UAC

>  <Generic Name>  (1) 
Rifampicin

>  <Brand Name>  (1) 
Isonarif#Rifadin#Rifadin Cap 300mg#Rifadin IV#Rifadin IV Novaplus#Rifamate#Rifampin#Rifater#Rofact 150mg#Rofact 300mg#Rifadine#Rifaldin#Rifoldin#Rimactan#Rimactane#Rofact#Tubocin

>  <DrugBank ID>  (1) 
DB01045

>  <ATC Codes>  (1) 
J04AM02#J04AB02#J04AM06#J04AM05

>  <Ligand ID>  (1) 
RFP

>  <Target Name>  (1) 
DNA-directed RNA polymerase subunit beta

>  <UniProt ID>  (1) 
P0A8V2

>  <PDB ID.1>  (1) 
5UAC

>  <Seq. Identity>  (1) 
100%

$$$$
