PDB_DB00482_05
     RDKit          3D

116120  0  0  0  0  0  0  0  0999 V2000
    5.4838    0.9503   -0.4458 S   0  0  0  0  0  0  0  0  0  0  0  0
    3.6920    0.7814   -0.1989 C   0  0  0  0  0  0  0  0  0  0  0  0
    3.5694   -0.6010    0.4170 C   0  0  0  0  0  0  0  0  0  0  0  0
    2.1223   -0.7139    0.8975 C   0  0  0  0  0  0  0  0  0  0  0  0
    1.1564   -0.1212   -0.0622 C   0  0  0  0  0  0  0  0  0  0  0  0
    1.7272   -0.0746   -1.4897 C   0  0  0  0  0  0  0  0  0  0  0  0
    3.0044    0.7249   -1.5383 C   0  0  0  0  0  0  0  0  0  0  0  0
   -0.1409   -0.6726   -0.1325 N   0  0  0  0  0  0  0  0  0  0  0  0
   -0.9676   -0.6255    1.0095 C   0  0  0  0  0  0  0  0  0  0  0  0
   -2.2518    0.1187    0.8169 C   0  0  0  0  0  0  0  0  0  0  0  0
   -2.1114    1.5404    0.3770 C   0  0  0  0  0  0  0  0  0  0  0  0
   -3.0904    1.9991   -0.6649 C   0  0  0  0  0  0  0  0  0  0  0  0
   -4.4846    1.5019   -0.4846 C   0  0  0  0  0  0  0  0  0  0  0  0
   -5.3964    2.5471    0.1402 C   0  0  0  0  0  0  0  0  0  0  0  0
   -4.5961    0.2533    0.3215 C   0  0  0  0  0  0  0  0  0  0  0  0
   -3.3085   -0.5544    0.0179 C   0  0  0  0  0  0  0  0  0  0  0  0
   -1.1607   -2.0781    1.3930 C   0  0  0  0  0  0  0  0  0  0  0  0
   -0.5398   -2.8797    0.3131 C   0  0  0  0  0  0  0  0  0  0  0  0
   -1.3547   -4.0335   -0.2085 C   0  0  0  0  0  0  0  0  0  0  0  0
   -2.5504   -3.7222   -0.7493 F   0  0  0  0  0  0  0  0  0  0  0  0
   -0.5359   -4.7190   -1.1157 F   0  0  0  0  0  0  0  0  0  0  0  0
   -1.5516   -4.9418    0.8396 F   0  0  0  0  0  0  0  0  0  0  0  0
   -0.2391   -1.9203   -0.7128 N   0  0  0  0  0  0  0  0  0  0  0  0
    5.7024    2.4065   -1.0735 N   0  0  0  0  0  0  0  0  0  0  0  0
    5.6567    1.5728    1.4369 O   0  0  0  0  0  0  0  0  0  0  0  0
    6.2206   -0.1177   -0.4908 O   0  0  0  0  0  0  0  0  0  0  0  0
    5.4838    0.9503   -0.4458 S   0  0  0  0  0  0  0  0  0  0  0  0
    3.6920    0.7814   -0.1989 C   0  0  0  0  0  0  0  0  0  0  0  0
    3.5694   -0.6010    0.4170 C   0  0  0  0  0  0  0  0  0  0  0  0
    2.1223   -0.7139    0.8975 C   0  0  0  0  0  0  0  0  0  0  0  0
    1.1564   -0.1212   -0.0622 C   0  0  0  0  0  0  0  0  0  0  0  0
    1.7272   -0.0746   -1.4897 C   0  0  0  0  0  0  0  0  0  0  0  0
    3.0044    0.7249   -1.5383 C   0  0  0  0  0  0  0  0  0  0  0  0
   -0.1409   -0.6726   -0.1325 N   0  0  0  0  0  0  0  0  0  0  0  0
   -0.9676   -0.6255    1.0095 C   0  0  0  0  0  0  0  0  0  0  0  0
   -2.2518    0.1187    0.8169 C   0  0  0  0  0  0  0  0  0  0  0  0
   -2.1114    1.5404    0.3770 C   0  0  0  0  0  0  0  0  0  0  0  0
   -3.0904    1.9991   -0.6649 C   0  0  0  0  0  0  0  0  0  0  0  0
   -4.4846    1.5019   -0.4846 C   0  0  0  0  0  0  0  0  0  0  0  0
   -5.3964    2.5471    0.1402 C   0  0  0  0  0  0  0  0  0  0  0  0
   -4.5961    0.2533    0.3215 C   0  0  0  0  0  0  0  0  0  0  0  0
   -3.3085   -0.5544    0.0179 C   0  0  0  0  0  0  0  0  0  0  0  0
   -1.1607   -2.0781    1.3930 C   0  0  0  0  0  0  0  0  0  0  0  0
   -0.5398   -2.8797    0.3131 C   0  0  0  0  0  0  0  0  0  0  0  0
   -1.3547   -4.0335   -0.2085 C   0  0  0  0  0  0  0  0  0  0  0  0
   -2.5504   -3.7222   -0.7493 F   0  0  0  0  0  0  0  0  0  0  0  0
   -0.5359   -4.7190   -1.1157 F   0  0  0  0  0  0  0  0  0  0  0  0
   -1.5516   -4.9418    0.8396 F   0  0  0  0  0  0  0  0  0  0  0  0
   -0.2391   -1.9203   -0.7128 N   0  0  0  0  0  0  0  0  0  0  0  0
    5.7024    2.4065   -1.0735 N   0  0  0  0  0  0  0  0  0  0  0  0
    5.6567    1.5728    1.4369 O   0  0  0  0  0  0  0  0  0  0  0  0
    6.2206   -0.1177   -0.4908 O   0  0  0  0  0  0  0  0  0  0  0  0
    3.3239    1.5690    0.4518 H   0  0  0  0  0  0  0  0  0  0  0  0
    4.2212   -0.6907    1.3040 H   0  0  0  0  0  0  0  0  0  0  0  0
    3.8026   -1.3250   -0.3859 H   0  0  0  0  0  0  0  0  0  0  0  0
    1.9902   -1.7503    1.1664 H   0  0  0  0  0  0  0  0  0  0  0  0
    2.1025   -0.1376    1.8725 H   0  0  0  0  0  0  0  0  0  0  0  0
    1.0717    0.9730    0.2113 H   0  0  0  0  0  0  0  0  0  0  0  0
    0.9781    0.4741   -2.1056 H   0  0  0  0  0  0  0  0  0  0  0  0
    1.8305   -1.0899   -1.9210 H   0  0  0  0  0  0  0  0  0  0  0  0
    2.8802    1.7549   -1.8883 H   0  0  0  0  0  0  0  0  0  0  0  0
    3.6898    0.2185   -2.2485 H   0  0  0  0  0  0  0  0  0  0  0  0
   -0.3710   -0.1761    1.8674 H   0  0  0  0  0  0  0  0  0  0  0  0
   -2.6900    0.1938    1.8734 H   0  0  0  0  0  0  0  0  0  0  0  0
   -2.0960    2.2506    1.2301 H   0  0  0  0  0  0  0  0  0  0  0  0
   -1.1071    1.6526   -0.0995 H   0  0  0  0  0  0  0  0  0  0  0  0
   -3.1237    3.1081   -0.6192 H   0  0  0  0  0  0  0  0  0  0  0  0
   -2.7019    1.7530   -1.6893 H   0  0  0  0  0  0  0  0  0  0  0  0
   -4.9100    1.2890   -1.4941 H   0  0  0  0  0  0  0  0  0  0  0  0
   -6.2770    2.7696   -0.5004 H   0  0  0  0  0  0  0  0  0  0  0  0
   -4.8493    3.5000    0.3109 H   0  0  0  0  0  0  0  0  0  0  0  0
   -5.8205    2.1751    1.1077 H   0  0  0  0  0  0  0  0  0  0  0  0
   -5.4935   -0.3303    0.0564 H   0  0  0  0  0  0  0  0  0  0  0  0
   -4.5801    0.5628    1.4022 H   0  0  0  0  0  0  0  0  0  0  0  0
   -3.5812   -1.5775    0.3482 H   0  0  0  0  0  0  0  0  0  0  0  0
   -3.1909   -0.4640   -1.0835 H   0  0  0  0  0  0  0  0  0  0  0  0
   -0.6378   -2.3095    2.3537 H   0  0  0  0  0  0  0  0  0  0  0  0
   -2.2047   -2.3853    1.5097 H   0  0  0  0  0  0  0  0  0  0  0  0
    0.3864   -3.3699    0.7180 H   0  0  0  0  0  0  0  0  0  0  0  0
   -1.0514   -1.8952   -1.3723 H   0  0  0  0  0  0  0  0  0  0  0  0
    6.6192    2.8805   -0.8369 H   0  0  0  0  0  0  0  0  0  0  0  0
    4.9383    3.0871   -0.7803 H   0  0  0  0  0  0  0  0  0  0  0  0
    6.6190    1.7503    1.2659 H   0  0  0  0  0  0  0  0  0  0  0  0
    6.1771   -1.0815   -0.7293 H   0  0  0  0  0  0  0  0  0  0  0  0
    3.3239    1.5690    0.4518 H   0  0  0  0  0  0  0  0  0  0  0  0
    4.2212   -0.6907    1.3040 H   0  0  0  0  0  0  0  0  0  0  0  0
    3.8026   -1.3250   -0.3859 H   0  0  0  0  0  0  0  0  0  0  0  0
    1.9902   -1.7503    1.1664 H   0  0  0  0  0  0  0  0  0  0  0  0
    2.1025   -0.1376    1.8725 H   0  0  0  0  0  0  0  0  0  0  0  0
    1.0717    0.9730    0.2113 H   0  0  0  0  0  0  0  0  0  0  0  0
    0.9781    0.4741   -2.1056 H   0  0  0  0  0  0  0  0  0  0  0  0
    1.8305   -1.0899   -1.9210 H   0  0  0  0  0  0  0  0  0  0  0  0
    2.8802    1.7549   -1.8883 H   0  0  0  0  0  0  0  0  0  0  0  0
    3.6898    0.2185   -2.2485 H   0  0  0  0  0  0  0  0  0  0  0  0
   -0.3710   -0.1761    1.8674 H   0  0  0  0  0  0  0  0  0  0  0  0
   -2.6900    0.1938    1.8734 H   0  0  0  0  0  0  0  0  0  0  0  0
   -2.0960    2.2506    1.2301 H   0  0  0  0  0  0  0  0  0  0  0  0
   -1.1071    1.6526   -0.0995 H   0  0  0  0  0  0  0  0  0  0  0  0
   -3.1237    3.1081   -0.6192 H   0  0  0  0  0  0  0  0  0  0  0  0
   -2.7019    1.7530   -1.6893 H   0  0  0  0  0  0  0  0  0  0  0  0
   -4.9100    1.2890   -1.4941 H   0  0  0  0  0  0  0  0  0  0  0  0
   -6.2770    2.7696   -0.5004 H   0  0  0  0  0  0  0  0  0  0  0  0
   -4.8493    3.5000    0.3109 H   0  0  0  0  0  0  0  0  0  0  0  0
   -5.8205    2.1751    1.1077 H   0  0  0  0  0  0  0  0  0  0  0  0
   -5.4935   -0.3303    0.0564 H   0  0  0  0  0  0  0  0  0  0  0  0
   -4.5801    0.5628    1.4022 H   0  0  0  0  0  0  0  0  0  0  0  0
   -3.5812   -1.5775    0.3482 H   0  0  0  0  0  0  0  0  0  0  0  0
   -3.1909   -0.4640   -1.0835 H   0  0  0  0  0  0  0  0  0  0  0  0
   -0.6378   -2.3095    2.3537 H   0  0  0  0  0  0  0  0  0  0  0  0
   -2.2047   -2.3853    1.5097 H   0  0  0  0  0  0  0  0  0  0  0  0
    0.3864   -3.3699    0.7180 H   0  0  0  0  0  0  0  0  0  0  0  0
   -1.0514   -1.8952   -1.3723 H   0  0  0  0  0  0  0  0  0  0  0  0
    6.6192    2.8805   -0.8369 H   0  0  0  0  0  0  0  0  0  0  0  0
    4.9383    3.0871   -0.7803 H   0  0  0  0  0  0  0  0  0  0  0  0
    6.6190    1.7503    1.2659 H   0  0  0  0  0  0  0  0  0  0  0  0
    6.1771   -1.0815   -0.7293 H   0  0  0  0  0  0  0  0  0  0  0  0
  1  2  1  0
  2  3  1  0
  3  4  1  0
  4  5  1  0
  5  6  1  0
  2  7  1  0
  6  7  1  0
  5  8  1  0
  8  9  1  0
  9 10  1  0
 10 11  1  0
 11 12  1  0
 12 13  1  0
 13 14  1  0
 13 15  1  0
 10 16  1  0
 15 16  1  0
  9 17  1  0
 17 18  1  0
 18 19  1  0
 19 20  1  0
 19 21  1  0
 19 22  1  0
  8 23  1  0
 18 23  1  0
  1 24  1  0
  1 25  1  0
  1 26  1  0
 27 28  1  0
 28 29  1  0
 29 30  1  0
 30 31  1  0
 31 32  1  0
 28 33  1  0
 32 33  1  0
 31 34  1  0
 34 35  1  0
 35 36  1  0
 36 37  1  0
 37 38  1  0
 38 39  1  0
 39 40  1  0
 39 41  1  0
 36 42  1  0
 41 42  1  0
 35 43  1  0
 43 44  1  0
 44 45  1  0
 45 46  1  0
 45 47  1  0
 45 48  1  0
 34 49  1  0
 44 49  1  0
 27 50  1  0
 27 51  1  0
 27 52  1  0
  2 53  1  0
  3 54  1  0
  3 55  1  0
  4 56  1  0
  4 57  1  0
  5 58  1  0
  6 59  1  0
  6 60  1  0
  7 61  1  0
  7 62  1  0
  9 63  1  0
 10 64  1  0
 11 65  1  0
 11 66  1  0
 12 67  1  0
 12 68  1  0
 13 69  1  0
 14 70  1  0
 14 71  1  0
 14 72  1  0
 15 73  1  0
 15 74  1  0
 16 75  1  0
 16 76  1  0
 17 77  1  0
 17 78  1  0
 18 79  1  0
 23 80  1  0
 24 81  1  0
 24 82  1  0
 25 83  1  0
 26 84  1  0
 28 85  1  0
 29 86  1  0
 29 87  1  0
 30 88  1  0
 30 89  1  0
 31 90  1  0
 32 91  1  0
 32 92  1  0
 33 93  1  0
 33 94  1  0
 35 95  1  0
 36 96  1  0
 37 97  1  0
 37 98  1  0
 38 99  1  0
 38100  1  0
 39101  1  0
 40102  1  0
 40103  1  0
 40104  1  0
 41105  1  0
 41106  1  0
 42107  1  0
 42108  1  0
 43109  1  0
 43110  1  0
 44111  1  0
 49112  1  0
 50113  1  0
 50114  1  0
 51115  1  0
 52116  1  0
M  END
>  <PDBID>  (1) 
5JW1

>  <PDB ID>  (1) 
5JW1

>  <Generic Name>  (1) 
Celecoxib

>  <Brand Name>  (1) 
Accel-celecoxib#Act Celecoxib#Ag-celecoxib#Apo-celecoxib#Auro-celecoxib#Bio-celecoxib#Celebrex#Celecoxib#Celecoxib 100 mg#Celecoxib 200 mg#Celecoxib 400 mg#Celecoxib 50 mg#Dom-celecoxib#Gd-celecoxib#Ipg-celecoxib#Jamp-celecoxib#Lupin-celecoxib#Mar-celecoxib#Mint-celecoxib#Mylan-celecoxib#PMS-celecoxib#Priva-celecoxib#Ran-celecoxib#Rbx-celecoxib#Riva-celecox#Riva-celecoxib#Sandoz Celecoxib#Sdz Celecoxib#Teva-celecoxib#Articox#Articoxib#Artiflex#Artilog#Artix#Artrixib#Blockten#Caditar#Cefinix#Celact#Celebra#Onsenal#Valdyne

>  <DrugBank ID>  (1) 
DB00482

>  <ATC Codes>  (1) 
L01XX33#M01AH01

>  <Ligand ID>  (1) 
CEL

>  <Target Name>  (1) 
Prostaglandin G/H synthase 2

>  <UniProt ID>  (1) 
P35354

>  <PDB ID.1>  (1) 
5JW1

>  <Seq. Identity>  (1) 
85%

$$$$
