PDB_DB00390_05
     RDKit          3D

246260  0  0  0  0  0  0  0  0999 V2000
   -3.3768   -2.5719    0.4968 C   0  0  0  0  0  0  0  0  0  0  0  0
   -1.8984   -2.7069    0.7634 C   0  0  0  0  0  0  0  0  0  0  0  0
   -1.1166   -1.6506    0.0102 C   0  0  2  0  0  0  0  0  0  0  0  0
   -0.2912   -0.9355    0.9088 O   0  0  0  0  0  0  0  0  0  0  0  0
   -2.1320   -0.6093   -0.4829 C   0  0  0  0  0  0  0  0  0  0  0  0
   -2.9331   -0.1625    0.7502 C   0  0  1  0  0  0  0  0  0  0  0  0
   -3.4206    1.2124    0.6321 C   0  0  0  0  0  0  0  0  0  0  0  0
   -4.8759    1.4019    0.3066 C   0  0  0  0  0  0  0  0  0  0  0  0
   -5.6521    0.4187    1.1327 C   0  0  2  0  0  0  0  0  0  0  0  0
   -5.2507   -0.9326    0.5525 C   0  0  1  0  0  0  0  0  0  0  0  0
   -3.8968   -1.2460    1.0527 C   0  0  1  0  0  0  0  0  0  0  0  0
   -6.3229   -1.9220    0.8224 C   0  0  0  0  0  0  0  0  0  0  0  0
   -7.5133   -1.4883   -0.0078 C   0  0  1  0  0  0  0  0  0  0  0  0
   -8.5214   -2.4366   -0.0041 O   0  0  0  0  0  0  0  0  0  0  0  0
   -8.0166   -0.1053    0.3563 C   0  0  1  0  0  0  0  0  0  0  0  0
   -7.0861    0.6221    1.2926 C   0  0  1  0  0  0  0  0  0  0  0  0
   -7.4626    0.2633    2.5992 O   0  0  0  0  0  0  0  0  0  0  0  0
   -7.5468    2.0601    1.1130 C   0  0  0  0  0  0  0  0  0  0  0  0
   -7.8350    2.1996   -0.3405 C   0  0  0  0  0  0  0  0  0  0  0  0
   -8.1019    0.7837   -0.8186 C   0  0  2  0  0  0  0  0  0  0  0  0
   -9.3048   -0.3545    1.1048 C   0  0  0  0  0  0  0  0  0  0  0  0
   -3.9756   -1.4343    2.5720 C   0  0  0  0  0  0  0  0  0  0  0  0
    1.0438   -0.9850    0.5162 C   0  0  1  0  0  0  0  0  0  0  0  0
    5.5461   -0.3967   -0.9764 C   0  0  2  0  0  0  0  0  0  0  0  0
    9.7184    0.4578   -0.7615 C   0  0  2  0  0  0  0  0  0  0  0  0
   -9.2783    0.6879   -1.7126 C   0  0  1  0  0  0  0  0  0  0  0  0
  -10.6044    1.0346   -1.1690 C   0  0  0  0  0  0  0  0  0  0  0  0
  -11.1871    2.0273   -1.9530 O   0  0  0  0  0  0  0  0  0  0  0  0
   -9.1134    1.5992   -2.9053 C   0  0  0  0  0  0  0  0  0  0  0  0
  -10.2316    2.5685   -2.7572 C   0  0  0  0  0  0  0  0  0  0  0  0
  -10.8361    2.8045   -4.0151 O   0  0  0  0  0  0  0  0  0  0  0  0
    1.4652    0.4539    0.2683 C   0  0  0  0  0  0  0  0  0  0  0  0
    5.9934   -1.7350   -1.5680 C   0  0  0  0  0  0  0  0  0  0  0  0
    9.8500    1.9617   -0.5445 C   0  0  0  0  0  0  0  0  0  0  0  0
    2.8441    0.7167    0.8392 C   0  0  2  0  0  0  0  0  0  0  0  0
    3.2763    1.9410    0.3472 O   0  0  0  0  0  0  0  0  0  0  0  0
    7.4805   -1.7484   -1.7968 C   0  0  2  0  0  0  0  0  0  0  0  0
    8.1212   -2.2297   -0.6403 O   0  0  0  0  0  0  0  0  0  0  0  0
   10.1183    2.2834    0.9101 C   0  0  2  0  0  0  0  0  0  0  0  0
   10.1512    3.6692    1.0300 O   0  0  0  0  0  0  0  0  0  0  0  0
    3.7898   -0.4236    0.5377 C   0  0  2  0  0  0  0  0  0  0  0  0
    4.1506   -0.4844   -0.8090 O   0  0  0  0  0  0  0  0  0  0  0  0
    7.9614   -0.3377   -1.9974 C   0  0  2  0  0  0  0  0  0  0  0  0
    8.3513    0.1934   -0.7666 O   0  0  0  0  0  0  0  0  0  0  0  0
   11.4667    1.7002    1.2683 C   0  0  2  0  0  0  0  0  0  0  0  0
   12.4299    2.6221    0.8285 O   0  0  0  0  0  0  0  0  0  0  0  0
    3.1304   -1.7142    0.9264 C   0  0  2  0  0  0  0  0  0  0  0  0
    1.8706   -1.5290    1.4855 O   0  0  0  0  0  0  0  0  0  0  0  0
    6.8926    0.5028   -2.6387 C   0  0  2  0  0  0  0  0  0  0  0  0
    5.7721    0.6413   -1.8501 O   0  0  0  0  0  0  0  0  0  0  0  0
   11.5949    0.3681    0.5631 C   0  0  2  0  0  0  0  0  0  0  0  0
   10.3440   -0.1932    0.2890 O   0  0  0  0  0  0  0  0  0  0  0  0
    3.9709   -2.4806    1.9517 C   0  0  0  0  0  0  0  0  0  0  0  0
    6.5082   -0.1273   -3.9553 C   0  0  0  0  0  0  0  0  0  0  0  0
   12.3250   -0.5579    1.5401 C   0  0  0  0  0  0  0  0  0  0  0  0
   -3.3768   -2.5719    0.4968 C   0  0  0  0  0  0  0  0  0  0  0  0
   -1.8984   -2.7069    0.7634 C   0  0  0  0  0  0  0  0  0  0  0  0
   -1.1166   -1.6506    0.0102 C   0  0  2  0  0  0  0  0  0  0  0  0
   -0.2912   -0.9355    0.9088 O   0  0  0  0  0  0  0  0  0  0  0  0
   -2.1320   -0.6093   -0.4829 C   0  0  0  0  0  0  0  0  0  0  0  0
   -2.9331   -0.1625    0.7502 C   0  0  1  0  0  0  0  0  0  0  0  0
   -3.4206    1.2124    0.6321 C   0  0  0  0  0  0  0  0  0  0  0  0
   -4.8759    1.4019    0.3066 C   0  0  0  0  0  0  0  0  0  0  0  0
   -5.6521    0.4187    1.1327 C   0  0  2  0  0  0  0  0  0  0  0  0
   -5.2507   -0.9326    0.5525 C   0  0  1  0  0  0  0  0  0  0  0  0
   -3.8968   -1.2460    1.0527 C   0  0  1  0  0  0  0  0  0  0  0  0
   -6.3229   -1.9220    0.8224 C   0  0  0  0  0  0  0  0  0  0  0  0
   -7.5133   -1.4883   -0.0078 C   0  0  1  0  0  0  0  0  0  0  0  0
   -8.5214   -2.4366   -0.0041 O   0  0  0  0  0  0  0  0  0  0  0  0
   -8.0166   -0.1053    0.3563 C   0  0  1  0  0  0  0  0  0  0  0  0
   -7.0861    0.6221    1.2926 C   0  0  1  0  0  0  0  0  0  0  0  0
   -7.4626    0.2633    2.5992 O   0  0  0  0  0  0  0  0  0  0  0  0
   -7.5468    2.0601    1.1130 C   0  0  0  0  0  0  0  0  0  0  0  0
   -7.8350    2.1996   -0.3405 C   0  0  0  0  0  0  0  0  0  0  0  0
   -8.1019    0.7837   -0.8186 C   0  0  2  0  0  0  0  0  0  0  0  0
   -9.3048   -0.3545    1.1048 C   0  0  0  0  0  0  0  0  0  0  0  0
   -3.9756   -1.4343    2.5720 C   0  0  0  0  0  0  0  0  0  0  0  0
    1.0438   -0.9850    0.5162 C   0  0  1  0  0  0  0  0  0  0  0  0
    5.5461   -0.3967   -0.9764 C   0  0  2  0  0  0  0  0  0  0  0  0
    9.7184    0.4578   -0.7615 C   0  0  2  0  0  0  0  0  0  0  0  0
   -9.2783    0.6879   -1.7126 C   0  0  1  0  0  0  0  0  0  0  0  0
  -10.6044    1.0346   -1.1690 C   0  0  0  0  0  0  0  0  0  0  0  0
  -11.1871    2.0273   -1.9530 O   0  0  0  0  0  0  0  0  0  0  0  0
   -9.1134    1.5992   -2.9053 C   0  0  0  0  0  0  0  0  0  0  0  0
  -10.2316    2.5685   -2.7572 C   0  0  0  0  0  0  0  0  0  0  0  0
  -10.8361    2.8045   -4.0151 O   0  0  0  0  0  0  0  0  0  0  0  0
    1.4652    0.4539    0.2683 C   0  0  0  0  0  0  0  0  0  0  0  0
    5.9934   -1.7350   -1.5680 C   0  0  0  0  0  0  0  0  0  0  0  0
    9.8500    1.9617   -0.5445 C   0  0  0  0  0  0  0  0  0  0  0  0
    2.8441    0.7167    0.8392 C   0  0  2  0  0  0  0  0  0  0  0  0
    3.2763    1.9410    0.3472 O   0  0  0  0  0  0  0  0  0  0  0  0
    7.4805   -1.7484   -1.7968 C   0  0  2  0  0  0  0  0  0  0  0  0
    8.1212   -2.2297   -0.6403 O   0  0  0  0  0  0  0  0  0  0  0  0
   10.1183    2.2834    0.9101 C   0  0  2  0  0  0  0  0  0  0  0  0
   10.1512    3.6692    1.0300 O   0  0  0  0  0  0  0  0  0  0  0  0
    3.7898   -0.4236    0.5377 C   0  0  2  0  0  0  0  0  0  0  0  0
    4.1506   -0.4844   -0.8090 O   0  0  0  0  0  0  0  0  0  0  0  0
    7.9614   -0.3377   -1.9974 C   0  0  2  0  0  0  0  0  0  0  0  0
    8.3513    0.1934   -0.7666 O   0  0  0  0  0  0  0  0  0  0  0  0
   11.4667    1.7002    1.2683 C   0  0  2  0  0  0  0  0  0  0  0  0
   12.4299    2.6221    0.8285 O   0  0  0  0  0  0  0  0  0  0  0  0
    3.1304   -1.7142    0.9264 C   0  0  2  0  0  0  0  0  0  0  0  0
    1.8706   -1.5290    1.4855 O   0  0  0  0  0  0  0  0  0  0  0  0
    6.8926    0.5028   -2.6387 C   0  0  2  0  0  0  0  0  0  0  0  0
    5.7721    0.6413   -1.8501 O   0  0  0  0  0  0  0  0  0  0  0  0
   11.5949    0.3681    0.5631 C   0  0  2  0  0  0  0  0  0  0  0  0
   10.3440   -0.1932    0.2890 O   0  0  0  0  0  0  0  0  0  0  0  0
    3.9709   -2.4806    1.9517 C   0  0  0  0  0  0  0  0  0  0  0  0
    6.5082   -0.1273   -3.9553 C   0  0  0  0  0  0  0  0  0  0  0  0
   12.3250   -0.5579    1.5401 C   0  0  0  0  0  0  0  0  0  0  0  0
   -3.6437   -2.7187   -0.5569 H   0  0  0  0  0  0  0  0  0  0  0  0
   -3.9007   -3.3620    1.0846 H   0  0  0  0  0  0  0  0  0  0  0  0
   -1.7407   -2.5871    1.8507 H   0  0  0  0  0  0  0  0  0  0  0  0
   -1.5682   -3.7296    0.5060 H   0  0  0  0  0  0  0  0  0  0  0  0
   -0.5508   -2.0963   -0.8063 H   0  0  0  0  0  0  0  0  0  0  0  0
   -1.5350    0.2316   -0.8991 H   0  0  0  0  0  0  0  0  0  0  0  0
   -2.7847   -1.0114   -1.2671 H   0  0  0  0  0  0  0  0  0  0  0  0
   -2.1665   -0.1683    1.5854 H   0  0  0  0  0  0  0  0  0  0  0  0
   -3.2146    1.8416    1.5477 H   0  0  0  0  0  0  0  0  0  0  0  0
   -2.8436    1.7321   -0.1872 H   0  0  0  0  0  0  0  0  0  0  0  0
   -5.0078    1.1458   -0.7607 H   0  0  0  0  0  0  0  0  0  0  0  0
   -5.1243    2.4528    0.4891 H   0  0  0  0  0  0  0  0  0  0  0  0
   -5.1690    0.4712    2.1569 H   0  0  0  0  0  0  0  0  0  0  0  0
   -5.1781   -0.8330   -0.5714 H   0  0  0  0  0  0  0  0  0  0  0  0
   -6.0154   -2.9129    0.4065 H   0  0  0  0  0  0  0  0  0  0  0  0
   -6.6624   -1.9843    1.8654 H   0  0  0  0  0  0  0  0  0  0  0  0
   -7.1413   -1.4236   -1.0622 H   0  0  0  0  0  0  0  0  0  0  0  0
   -9.0852   -2.3926   -0.8274 H   0  0  0  0  0  0  0  0  0  0  0  0
   -7.8906    0.9791    3.0926 H   0  0  0  0  0  0  0  0  0  0  0  0
   -6.8397    2.7933    1.5279 H   0  0  0  0  0  0  0  0  0  0  0  0
   -8.4921    2.2000    1.6997 H   0  0  0  0  0  0  0  0  0  0  0  0
   -8.7700    2.8219   -0.4439 H   0  0  0  0  0  0  0  0  0  0  0  0
   -7.0730    2.7089   -0.9305 H   0  0  0  0  0  0  0  0  0  0  0  0
   -7.2006    0.5379   -1.4684 H   0  0  0  0  0  0  0  0  0  0  0  0
   -9.0599   -1.1634    1.8760 H   0  0  0  0  0  0  0  0  0  0  0  0
   -9.6049    0.4969    1.7640 H   0  0  0  0  0  0  0  0  0  0  0  0
  -10.1054   -0.7969    0.5173 H   0  0  0  0  0  0  0  0  0  0  0  0
   -3.4574   -0.5800    3.0739 H   0  0  0  0  0  0  0  0  0  0  0  0
   -3.5203   -2.3675    2.9048 H   0  0  0  0  0  0  0  0  0  0  0  0
   -5.0185   -1.4116    2.9301 H   0  0  0  0  0  0  0  0  0  0  0  0
    1.1875   -1.5785   -0.4147 H   0  0  0  0  0  0  0  0  0  0  0  0
    6.0864   -0.2901   -0.0334 H   0  0  0  0  0  0  0  0  0  0  0  0
   10.2094    0.1988   -1.7152 H   0  0  0  0  0  0  0  0  0  0  0  0
   -9.2525   -0.3668   -2.1467 H   0  0  0  0  0  0  0  0  0  0  0  0
  -10.6307    1.4324   -0.1357 H   0  0  0  0  0  0  0  0  0  0  0  0
  -11.3495    0.1824   -1.2192 H   0  0  0  0  0  0  0  0  0  0  0  0
   -9.2673    1.0450   -3.8515 H   0  0  0  0  0  0  0  0  0  0  0  0
   -8.1261    2.1065   -2.8729 H   0  0  0  0  0  0  0  0  0  0  0  0
   -9.9306    3.5747   -2.4002 H   0  0  0  0  0  0  0  0  0  0  0  0
  -11.5440    3.4694   -3.9559 H   0  0  0  0  0  0  0  0  0  0  0  0
    1.4396    0.6550   -0.8179 H   0  0  0  0  0  0  0  0  0  0  0  0
    0.7798    1.1820    0.7514 H   0  0  0  0  0  0  0  0  0  0  0  0
    5.3977   -2.0062   -2.4575 H   0  0  0  0  0  0  0  0  0  0  0  0
    5.7917   -2.5597   -0.8229 H   0  0  0  0  0  0  0  0  0  0  0  0
    8.8974    2.4932   -0.8146 H   0  0  0  0  0  0  0  0  0  0  0  0
   10.6804    2.3597   -1.1736 H   0  0  0  0  0  0  0  0  0  0  0  0
    2.7282    0.7449    1.9412 H   0  0  0  0  0  0  0  0  0  0  0  0
    3.7333    1.8967   -0.5097 H   0  0  0  0  0  0  0  0  0  0  0  0
    7.7559   -2.3903   -2.6756 H   0  0  0  0  0  0  0  0  0  0  0  0
    7.8106   -3.1435   -0.4355 H   0  0  0  0  0  0  0  0  0  0  0  0
    9.3244    1.8301    1.5367 H   0  0  0  0  0  0  0  0  0  0  0  0
   10.6972    4.0207    0.2619 H   0  0  0  0  0  0  0  0  0  0  0  0
    4.7312   -0.3244    1.1261 H   0  0  0  0  0  0  0  0  0  0  0  0
    8.8692   -0.4066   -2.6476 H   0  0  0  0  0  0  0  0  0  0  0  0
   11.5304    1.6037    2.3711 H   0  0  0  0  0  0  0  0  0  0  0  0
   12.6455    3.2740    1.5615 H   0  0  0  0  0  0  0  0  0  0  0  0
    3.0466   -2.4232    0.0508 H   0  0  0  0  0  0  0  0  0  0  0  0
    7.3477    1.5109   -2.8861 H   0  0  0  0  0  0  0  0  0  0  0  0
   12.2237    0.4677   -0.3280 H   0  0  0  0  0  0  0  0  0  0  0  0
    4.8430   -2.9637    1.4702 H   0  0  0  0  0  0  0  0  0  0  0  0
    4.3094   -1.7703    2.7547 H   0  0  0  0  0  0  0  0  0  0  0  0
    3.3076   -3.2200    2.4235 H   0  0  0  0  0  0  0  0  0  0  0  0
    6.9112    0.4725   -4.8181 H   0  0  0  0  0  0  0  0  0  0  0  0
    6.9581   -1.1142   -4.0414 H   0  0  0  0  0  0  0  0  0  0  0  0
    5.4076   -0.2245   -4.0623 H   0  0  0  0  0  0  0  0  0  0  0  0
   13.4004   -0.2882    1.5571 H   0  0  0  0  0  0  0  0  0  0  0  0
   12.1758   -1.5824    1.1528 H   0  0  0  0  0  0  0  0  0  0  0  0
   11.8533   -0.4381    2.5417 H   0  0  0  0  0  0  0  0  0  0  0  0
   -3.6437   -2.7187   -0.5569 H   0  0  0  0  0  0  0  0  0  0  0  0
   -3.9007   -3.3620    1.0846 H   0  0  0  0  0  0  0  0  0  0  0  0
   -1.7407   -2.5871    1.8507 H   0  0  0  0  0  0  0  0  0  0  0  0
   -1.5682   -3.7296    0.5060 H   0  0  0  0  0  0  0  0  0  0  0  0
   -0.5508   -2.0963   -0.8063 H   0  0  0  0  0  0  0  0  0  0  0  0
   -1.5350    0.2316   -0.8991 H   0  0  0  0  0  0  0  0  0  0  0  0
   -2.7847   -1.0114   -1.2671 H   0  0  0  0  0  0  0  0  0  0  0  0
   -2.1665   -0.1683    1.5854 H   0  0  0  0  0  0  0  0  0  0  0  0
   -3.2146    1.8416    1.5477 H   0  0  0  0  0  0  0  0  0  0  0  0
   -2.8436    1.7321   -0.1872 H   0  0  0  0  0  0  0  0  0  0  0  0
   -5.0078    1.1458   -0.7607 H   0  0  0  0  0  0  0  0  0  0  0  0
   -5.1243    2.4528    0.4891 H   0  0  0  0  0  0  0  0  0  0  0  0
   -5.1690    0.4712    2.1569 H   0  0  0  0  0  0  0  0  0  0  0  0
   -5.1781   -0.8330   -0.5714 H   0  0  0  0  0  0  0  0  0  0  0  0
   -6.0154   -2.9129    0.4065 H   0  0  0  0  0  0  0  0  0  0  0  0
   -6.6624   -1.9843    1.8654 H   0  0  0  0  0  0  0  0  0  0  0  0
   -7.1413   -1.4236   -1.0622 H   0  0  0  0  0  0  0  0  0  0  0  0
   -9.0852   -2.3926   -0.8274 H   0  0  0  0  0  0  0  0  0  0  0  0
   -7.8906    0.9791    3.0926 H   0  0  0  0  0  0  0  0  0  0  0  0
   -6.8397    2.7933    1.5279 H   0  0  0  0  0  0  0  0  0  0  0  0
   -8.4921    2.2000    1.6997 H   0  0  0  0  0  0  0  0  0  0  0  0
   -8.7700    2.8219   -0.4439 H   0  0  0  0  0  0  0  0  0  0  0  0
   -7.0730    2.7089   -0.9305 H   0  0  0  0  0  0  0  0  0  0  0  0
   -7.2006    0.5379   -1.4684 H   0  0  0  0  0  0  0  0  0  0  0  0
   -9.0599   -1.1634    1.8760 H   0  0  0  0  0  0  0  0  0  0  0  0
   -9.6049    0.4969    1.7640 H   0  0  0  0  0  0  0  0  0  0  0  0
  -10.1054   -0.7969    0.5173 H   0  0  0  0  0  0  0  0  0  0  0  0
   -3.4574   -0.5800    3.0739 H   0  0  0  0  0  0  0  0  0  0  0  0
   -3.5203   -2.3675    2.9048 H   0  0  0  0  0  0  0  0  0  0  0  0
   -5.0185   -1.4116    2.9301 H   0  0  0  0  0  0  0  0  0  0  0  0
    1.1875   -1.5785   -0.4147 H   0  0  0  0  0  0  0  0  0  0  0  0
    6.0864   -0.2901   -0.0334 H   0  0  0  0  0  0  0  0  0  0  0  0
   10.2094    0.1988   -1.7152 H   0  0  0  0  0  0  0  0  0  0  0  0
   -9.2525   -0.3668   -2.1467 H   0  0  0  0  0  0  0  0  0  0  0  0
  -10.6307    1.4324   -0.1357 H   0  0  0  0  0  0  0  0  0  0  0  0
  -11.3495    0.1824   -1.2192 H   0  0  0  0  0  0  0  0  0  0  0  0
   -9.2673    1.0450   -3.8515 H   0  0  0  0  0  0  0  0  0  0  0  0
   -8.1261    2.1065   -2.8729 H   0  0  0  0  0  0  0  0  0  0  0  0
   -9.9306    3.5747   -2.4002 H   0  0  0  0  0  0  0  0  0  0  0  0
  -11.5440    3.4694   -3.9559 H   0  0  0  0  0  0  0  0  0  0  0  0
    1.4396    0.6550   -0.8179 H   0  0  0  0  0  0  0  0  0  0  0  0
    0.7798    1.1820    0.7514 H   0  0  0  0  0  0  0  0  0  0  0  0
    5.3977   -2.0062   -2.4575 H   0  0  0  0  0  0  0  0  0  0  0  0
    5.7917   -2.5597   -0.8229 H   0  0  0  0  0  0  0  0  0  0  0  0
    8.8974    2.4932   -0.8146 H   0  0  0  0  0  0  0  0  0  0  0  0
   10.6804    2.3597   -1.1736 H   0  0  0  0  0  0  0  0  0  0  0  0
    2.7282    0.7449    1.9412 H   0  0  0  0  0  0  0  0  0  0  0  0
    3.7333    1.8967   -0.5097 H   0  0  0  0  0  0  0  0  0  0  0  0
    7.7559   -2.3903   -2.6756 H   0  0  0  0  0  0  0  0  0  0  0  0
    7.8106   -3.1435   -0.4355 H   0  0  0  0  0  0  0  0  0  0  0  0
    9.3244    1.8301    1.5367 H   0  0  0  0  0  0  0  0  0  0  0  0
   10.6972    4.0207    0.2619 H   0  0  0  0  0  0  0  0  0  0  0  0
    4.7312   -0.3244    1.1261 H   0  0  0  0  0  0  0  0  0  0  0  0
    8.8692   -0.4066   -2.6476 H   0  0  0  0  0  0  0  0  0  0  0  0
   11.5304    1.6037    2.3711 H   0  0  0  0  0  0  0  0  0  0  0  0
   12.6455    3.2740    1.5615 H   0  0  0  0  0  0  0  0  0  0  0  0
    3.0466   -2.4232    0.0508 H   0  0  0  0  0  0  0  0  0  0  0  0
    7.3477    1.5109   -2.8861 H   0  0  0  0  0  0  0  0  0  0  0  0
   12.2237    0.4677   -0.3280 H   0  0  0  0  0  0  0  0  0  0  0  0
    4.8430   -2.9637    1.4702 H   0  0  0  0  0  0  0  0  0  0  0  0
    4.3094   -1.7703    2.7547 H   0  0  0  0  0  0  0  0  0  0  0  0
    3.3076   -3.2200    2.4235 H   0  0  0  0  0  0  0  0  0  0  0  0
    6.9112    0.4725   -4.8181 H   0  0  0  0  0  0  0  0  0  0  0  0
    6.9581   -1.1142   -4.0414 H   0  0  0  0  0  0  0  0  0  0  0  0
    5.4076   -0.2245   -4.0623 H   0  0  0  0  0  0  0  0  0  0  0  0
   13.4004   -0.2882    1.5571 H   0  0  0  0  0  0  0  0  0  0  0  0
   12.1758   -1.5824    1.1528 H   0  0  0  0  0  0  0  0  0  0  0  0
   11.8533   -0.4381    2.5417 H   0  0  0  0  0  0  0  0  0  0  0  0
  1  2  1  0
  2  3  1  0
  3  4  1  0
  3  5  1  0
  5  6  1  0
  6  7  1  0
  7  8  1  0
  8  9  1  0
  9 10  1  0
  1 11  1  0
  6 11  1  0
 10 11  1  0
 10 12  1  0
 12 13  1  0
 13 14  1  0
 13 15  1  0
  9 16  1  0
 15 16  1  0
 16 17  1  1
 16 18  1  0
 18 19  1  0
 15 20  1  0
 19 20  1  0
 15 21  1  1
 11 22  1  1
  4 23  1  0
 20 26  1  0
 26 27  1  0
 27 28  1  0
 26 29  1  0
 28 30  1  0
 29 30  1  0
 30 31  1  0
 23 32  1  0
 24 33  1  0
 25 34  1  0
 32 35  1  0
 35 36  1  0
 33 37  1  0
 37 38  1  0
 34 39  1  0
 39 40  1  0
 35 41  1  0
 24 42  1  0
 41 42  1  0
 37 43  1  0
 25 44  1  0
 43 44  1  0
 39 45  1  0
 45 46  1  0
 41 47  1  0
 23 48  1  0
 47 48  1  0
 43 49  1  0
 24 50  1  0
 49 50  1  0
 45 51  1  0
 25 52  1  0
 51 52  1  0
 47 53  1  0
 49 54  1  0
 51 55  1  0
 56 57  1  0
 57 58  1  0
 58 59  1  0
 58 60  1  0
 60 61  1  0
 61 62  1  0
 62 63  1  0
 63 64  1  0
 64 65  1  0
 56 66  1  0
 61 66  1  0
 65 66  1  0
 65 67  1  0
 67 68  1  0
 68 69  1  0
 68 70  1  0
 64 71  1  0
 70 71  1  0
 71 72  1  1
 71 73  1  0
 73 74  1  0
 70 75  1  0
 74 75  1  0
 70 76  1  1
 66 77  1  1
 59 78  1  0
 75 81  1  0
 81 82  1  0
 82 83  1  0
 81 84  1  0
 83 85  1  0
 84 85  1  0
 85 86  1  0
 78 87  1  0
 79 88  1  0
 80 89  1  0
 87 90  1  0
 90 91  1  0
 88 92  1  0
 92 93  1  0
 89 94  1  0
 94 95  1  0
 90 96  1  0
 79 97  1  0
 96 97  1  0
 92 98  1  0
 80 99  1  0
 98 99  1  0
 94100  1  0
100101  1  0
 96102  1  0
 78103  1  0
102103  1  0
 98104  1  0
 79105  1  0
104105  1  0
100106  1  0
 80107  1  0
106107  1  0
102108  1  0
104109  1  0
106110  1  0
  1111  1  0
  1112  1  0
  2113  1  0
  2114  1  0
  3115  1  6
  5116  1  0
  5117  1  0
  6118  1  1
  7119  1  0
  7120  1  0
  8121  1  0
  8122  1  0
  9123  1  1
 10124  1  6
 12125  1  0
 12126  1  0
 13127  1  6
 14128  1  0
 17129  1  0
 18130  1  0
 18131  1  0
 19132  1  0
 19133  1  0
 20134  1  6
 21135  1  0
 21136  1  0
 21137  1  0
 22138  1  0
 22139  1  0
 22140  1  0
 23141  1  6
 24142  1  1
 25143  1  6
 26144  1  6
 27145  1  0
 27146  1  0
 29147  1  0
 29148  1  0
 30149  1  0
 31150  1  0
 32151  1  0
 32152  1  0
 33153  1  0
 33154  1  0
 34155  1  0
 34156  1  0
 35157  1  1
 36158  1  0
 37159  1  6
 38160  1  0
 39161  1  1
 40162  1  0
 41163  1  1
 43164  1  6
 45165  1  1
 46166  1  0
 47167  1  6
 49168  1  6
 51169  1  6
 53170  1  0
 53171  1  0
 53172  1  0
 54173  1  0
 54174  1  0
 54175  1  0
 55176  1  0
 55177  1  0
 55178  1  0
 56179  1  0
 56180  1  0
 57181  1  0
 57182  1  0
 58183  1  6
 60184  1  0
 60185  1  0
 61186  1  1
 62187  1  0
 62188  1  0
 63189  1  0
 63190  1  0
 64191  1  1
 65192  1  6
 67193  1  0
 67194  1  0
 68195  1  6
 69196  1  0
 72197  1  0
 73198  1  0
 73199  1  0
 74200  1  0
 74201  1  0
 75202  1  6
 76203  1  0
 76204  1  0
 76205  1  0
 77206  1  0
 77207  1  0
 77208  1  0
 78209  1  6
 79210  1  1
 80211  1  6
 81212  1  6
 82213  1  0
 82214  1  0
 84215  1  0
 84216  1  0
 85217  1  0
 86218  1  0
 87219  1  0
 87220  1  0
 88221  1  0
 88222  1  0
 89223  1  0
 89224  1  0
 90225  1  1
 91226  1  0
 92227  1  6
 93228  1  0
 94229  1  1
 95230  1  0
 96231  1  1
 98232  1  6
100233  1  1
101234  1  0
102235  1  6
104236  1  6
106237  1  6
108238  1  0
108239  1  0
108240  1  0
109241  1  0
109242  1  0
109243  1  0
110244  1  0
110245  1  0
110246  1  0
M  END
>  <PDBID>  (1) 
4RET

>  <PDB ID>  (1) 
4RET

>  <Generic Name>  (1) 
Digoxin

>  <Brand Name>  (1) 
Apo-digoxin#Digitek#Digox#Digoxin#Digoxin Injection C.S.D.#Lanoxin#Lanoxin Elx 0.05mg/ml Pediatric#Lanoxin Inj 0.05mg/ml Pediatric#Lanoxin Inj 0.25mg/ml#Lanoxin Tab 0.0625mg#Lanoxin Tab 0.125mg#Lanoxin Tab 0.25mg#Novo-digoxin Tab 0.25mg#PMS-digoxin#Pediatric Digoxin Injection C.S.D.#Toloxin#Agoxin#Cardiacin#Cardiogoxin#Cardioxin#Cardoxin#Celoxin#Centoxin#Digacin#Digocard-G#Digoxina#Eudigox#Lanacordin#Lanacrist#Lanicor#Lanoxicaps#Lenoxin

>  <DrugBank ID>  (1) 
DB00390

>  <ATC Codes>  (1) 
C01AA05

>  <Ligand ID>  (1) 
DGX

>  <Target Name>  (1) 
Sodium/potassium-transporting ATPase subunit alpha-1

>  <UniProt ID>  (1) 
P05023

>  <PDB ID.1>  (1) 
4RET

>  <Seq. Identity>  (1) 
94%

$$$$
