PDB_DB00181_03
     RDKit          3D

 34 34  0  0  0  0  0  0  0  0999 V2000
   -2.0592    2.8160   -0.8193 Cl  0  0  0  0  0  0  0  0  0  0  0  0
   -2.7439    1.2958   -0.1609 C   0  0  0  0  0  0  0  0  0  0  0  0
   -2.6110    0.1875   -1.1424 C   0  0  0  0  0  0  0  0  0  0  0  0
   -1.4386   -0.7143   -0.9455 C   0  0  0  0  0  0  0  0  0  0  0  0
   -2.1673    1.0465    1.1909 C   0  0  0  0  0  0  0  0  0  0  0  0
   -0.8693    0.2783    1.1897 C   0  0  0  0  0  0  0  0  0  0  0  0
   -0.3554    0.0458   -0.1938 C   0  0  0  0  0  0  0  0  0  0  0  0
    0.9122   -0.7189   -0.2864 C   0  0  2  0  0  0  0  0  0  0  0  0
    0.7385   -2.1111    0.3292 C   0  0  0  0  0  0  0  0  0  0  0  0
    2.0190   -2.8028    0.1989 N   0  0  0  0  0  0  0  0  0  0  0  0
    2.0966   -0.1133    0.3797 C   0  0  0  0  0  0  0  0  0  0  0  0
    2.4840    1.2442   -0.1440 C   0  0  0  0  0  0  0  0  0  0  0  0
    2.7830    1.1439   -1.4996 O   0  0  0  0  0  0  0  0  0  0  0  0
    1.5475    2.2293    0.0594 O   0  0  0  0  0  0  0  0  0  0  0  0
   -3.8351    1.5406    0.0091 H   0  0  0  0  0  0  0  0  0  0  0  0
   -3.5360   -0.4279   -1.1227 H   0  0  0  0  0  0  0  0  0  0  0  0
   -2.5425    0.6416   -2.1638 H   0  0  0  0  0  0  0  0  0  0  0  0
   -1.0850   -1.0594   -1.9351 H   0  0  0  0  0  0  0  0  0  0  0  0
   -1.7621   -1.5579   -0.2991 H   0  0  0  0  0  0  0  0  0  0  0  0
   -2.0279    2.0494    1.6801 H   0  0  0  0  0  0  0  0  0  0  0  0
   -2.8946    0.5153    1.8627 H   0  0  0  0  0  0  0  0  0  0  0  0
   -0.1369    0.8306    1.7847 H   0  0  0  0  0  0  0  0  0  0  0  0
   -1.0303   -0.7347    1.6652 H   0  0  0  0  0  0  0  0  0  0  0  0
   -0.2624    1.0185   -0.7438 H   0  0  0  0  0  0  0  0  0  0  0  0
    1.1725   -0.9012   -1.3503 H   0  0  0  0  0  0  0  0  0  0  0  0
    0.5149   -2.0095    1.4189 H   0  0  0  0  0  0  0  0  0  0  0  0
   -0.0547   -2.6898   -0.1682 H   0  0  0  0  0  0  0  0  0  0  0  0
    2.0271   -3.3671   -0.6845 H   0  0  0  0  0  0  0  0  0  0  0  0
    2.1832   -3.4252    1.0297 H   0  0  0  0  0  0  0  0  0  0  0  0
    2.9552   -0.8011    0.2329 H   0  0  0  0  0  0  0  0  0  0  0  0
    1.9370   -0.0897    1.4925 H   0  0  0  0  0  0  0  0  0  0  0  0
    3.4333    1.6060    0.3483 H   0  0  0  0  0  0  0  0  0  0  0  0
    2.7788    2.0787   -1.8509 H   0  0  0  0  0  0  0  0  0  0  0  0
    1.8294    2.9558    0.6382 H   0  0  0  0  0  0  0  0  0  0  0  0
  1  2  1  0
  2  3  1  0
  3  4  1  0
  2  5  1  0
  5  6  1  0
  4  7  1  0
  6  7  1  0
  7  8  1  0
  8  9  1  0
  9 10  1  0
  8 11  1  0
 11 12  1  0
 12 13  1  0
 12 14  1  0
  2 15  1  0
  3 16  1  0
  3 17  1  0
  4 18  1  0
  4 19  1  0
  5 20  1  0
  5 21  1  0
  6 22  1  0
  6 23  1  0
  7 24  1  0
  8 25  1  6
  9 26  1  0
  9 27  1  0
 10 28  1  0
 10 29  1  0
 11 30  1  0
 11 31  1  0
 12 32  1  0
 13 33  1  0
 14 34  1  0
M  END
>  <PDBID>  (1) 
4MS4

>  <PDB ID>  (1) 
4MS4

>  <Generic Name>  (1) 
Baclofen

>  <Brand Name>  (1) 
Apo-baclofen Tablets - 10mg#Apo-baclofen Tablets - 20mg#Ava-baclofen#Baclofen#Baclofen Injection#Baclofen Tablets - 10mg#Baclofen Tablets - 20mg#Baclofen Tablets 10mg#Baclofen Tablets 20mg#Baclofen-10 - Tab#Baclofen-20 - Tab#Co Baclofen Tablets 10mg#Co Baclofen Tablets 20mg#Dom-baclofen-tab 10mg#Dom-baclofen-tab 20mg#Equipto - Baclofen External Cream Compounding Kit#Ftp-baclofen#Gablofen#Gapeam Budibac#Lioresal#Lioresal D.S. Tab 20mg#Lioresal Intrathecal 0.05mg/ml#Lioresal Intrathecal 0.5mg/ml#Lioresal Intrathecal 2mg/ml#Lioresal Tab 10mg#Med Baclofen Tab 10mg#Med Baclofen Tab 20mg#Mylan-baclofen#Novo-baclofen#PHL-baclofen#PMS-baclofen#PMS-baclofen Tab 20mg#Penta-baclofen Tablets#Ratio-baclofen#Riva-baclofen#Sandoz Baclofen#Val-baclofen Intrathecal#Baclon#Kemstro#Lioresal Intrathecal#Nu-Baclofen

>  <DrugBank ID>  (1) 
DB00181

>  <ATC Codes>  (1) 
M03BX01

>  <Ligand ID>  (1) 
2C0

>  <Target Name>  (1) 
Gamma-aminobutyric acid type B receptor subunit 1

>  <UniProt ID>  (1) 
Q9UBS5

>  <PDB ID.1>  (1) 
4MS4

>  <Seq. Identity>  (1) 
34%

$$$$
