PDB_DB00224_09
     RDKit          3D

114118  0  0  0  0  0  0  0  0999 V2000
   -4.8520    0.9084    0.9905 N   0  0  0  0  0  0  0  0  0  0  0  0
   -4.9237    0.6010   -0.3718 C   0  0  0  0  0  0  0  0  0  0  0  0
   -3.7515   -0.2769   -0.7680 C   0  0  1  0  0  0  0  0  0  0  0  0
   -3.8434   -0.6143   -2.2344 C   0  0  0  0  0  0  0  0  0  0  0  0
   -5.1948   -1.0796   -2.4696 O   0  0  0  0  0  0  0  0  0  0  0  0
   -2.9473   -1.5682   -2.7172 N   0  0  0  0  0  0  0  0  0  0  0  0
   -2.9750   -2.9191   -2.3981 C   0  0  0  0  0  0  0  0  0  0  0  0
   -1.5636   -3.4217   -2.0635 C   0  0  0  0  0  0  0  0  0  0  0  0
   -3.3323   -3.7231   -3.6994 C   0  0  0  0  0  0  0  0  0  0  0  0
   -3.8439   -3.4171   -1.2829 C   0  0  0  0  0  0  0  0  0  0  0  0
   -2.4904    0.3351   -0.4748 N   0  0  0  0  0  0  0  0  0  0  0  0
   -2.7073    1.5940    0.2354 C   0  0  0  0  0  0  0  0  0  0  0  0
   -3.6201    1.4650    1.4364 C   0  0  0  0  0  0  0  0  0  0  0  0
   -1.6333   -0.4521    0.3846 C   0  0  0  0  0  0  0  0  0  0  0  0
   -0.1768    0.0060    0.2104 C   0  0  1  0  0  0  0  0  0  0  0  0
    0.0463    1.3243    0.4779 O   0  0  0  0  0  0  0  0  0  0  0  0
    0.6809   -0.9013    1.0245 C   0  0  0  0  0  0  0  0  0  0  0  0
    2.1956   -0.5142    0.9516 C   0  0  1  0  0  0  0  0  0  0  0  0
    2.9530   -1.4269    1.8184 C   0  0  0  0  0  0  0  0  0  0  0  0
    2.9700   -2.8851    1.6062 C   0  0  0  0  0  0  0  0  0  0  0  0
    3.5435   -3.3936    0.3236 C   0  0  0  0  0  0  0  0  0  0  0  0
    4.4457   -4.6313    0.5498 C   0  0  0  0  0  0  0  0  0  0  0  0
    3.8047   -5.6278    1.4485 C   0  0  0  0  0  0  0  0  0  0  0  0
    3.6538   -4.9721    2.8142 C   0  0  0  0  0  0  0  0  0  0  0  0
    3.7980   -3.4918    2.7376 C   0  0  0  0  0  0  0  0  0  0  0  0
    2.6286   -0.1806   -0.4066 C   0  0  2  0  0  0  0  0  0  0  0  0
    2.4670   -1.2614   -1.3270 O   0  0  0  0  0  0  0  0  0  0  0  0
    3.6192    0.6800   -0.7957 N   0  0  0  0  0  0  0  0  0  0  0  0
    4.9687    0.6535   -0.5511 C   0  0  2  0  0  0  0  0  0  0  0  0
    5.5301    0.9009    0.7851 C   0  0  2  0  0  0  0  0  0  0  0  0
    4.6724    1.5269    1.6913 O   0  0  0  0  0  0  0  0  0  0  0  0
    6.7806    1.7656    0.5883 C   0  0  0  0  0  0  0  0  0  0  0  0
    7.0819    1.6313   -0.8866 C   0  0  0  0  0  0  0  0  0  0  0  0
    8.0098    2.6641   -1.4253 C   0  0  0  0  0  0  0  0  0  0  0  0
    7.3721    3.9287   -1.8722 C   0  0  0  0  0  0  0  0  0  0  0  0
    5.9475    4.1329   -1.4646 C   0  0  0  0  0  0  0  0  0  0  0  0
    5.0542    2.9555   -1.5904 C   0  0  0  0  0  0  0  0  0  0  0  0
    5.7278    1.6355   -1.4818 C   0  0  0  0  0  0  0  0  0  0  0  0
   -5.9963    1.2197    1.7359 C   0  0  0  0  0  0  0  0  0  0  0  0
   -6.5685    2.5588    1.3889 C   0  0  0  0  0  0  0  0  0  0  0  0
   -7.0173    2.7492   -0.0136 C   0  0  0  0  0  0  0  0  0  0  0  0
   -8.1817    3.6480    0.0392 N   0  0  0  0  0  0  0  0  0  0  0  0
   -7.8253    4.7696    0.9175 C   0  0  0  0  0  0  0  0  0  0  0  0
   -8.0103    4.2859    2.3599 C   0  0  0  0  0  0  0  0  0  0  0  0
   -7.7460    2.7969    2.3298 C   0  0  0  0  0  0  0  0  0  0  0  0
   -5.8698    0.0474   -0.6574 H   0  0  0  0  0  0  0  0  0  0  0  0
   -4.9135    1.4953   -1.0095 H   0  0  0  0  0  0  0  0  0  0  0  0
   -3.8535   -1.1984   -0.1843 H   0  0  0  0  0  0  0  0  0  0  0  0
   -3.7792    0.3159   -2.8271 H   0  0  0  0  0  0  0  0  0  0  0  0
   -5.7694   -0.2967   -2.7009 H   0  0  0  0  0  0  0  0  0  0  0  0
   -2.0130   -1.1764   -2.9936 H   0  0  0  0  0  0  0  0  0  0  0  0
   -0.7764   -2.7905   -2.5309 H   0  0  0  0  0  0  0  0  0  0  0  0
   -1.4857   -4.5042   -2.4090 H   0  0  0  0  0  0  0  0  0  0  0  0
   -1.3908   -3.4758   -0.9840 H   0  0  0  0  0  0  0  0  0  0  0  0
   -2.3903   -3.7739   -4.2706 H   0  0  0  0  0  0  0  0  0  0  0  0
   -4.1544   -3.1804   -4.2235 H   0  0  0  0  0  0  0  0  0  0  0  0
   -3.5886   -4.7282   -3.3564 H   0  0  0  0  0  0  0  0  0  0  0  0
   -4.1259   -4.5172   -1.5114 H   0  0  0  0  0  0  0  0  0  0  0  0
   -4.8233   -2.9392   -1.2455 H   0  0  0  0  0  0  0  0  0  0  0  0
   -3.3024   -3.5162   -0.3318 H   0  0  0  0  0  0  0  0  0  0  0  0
   -3.2586    2.2681   -0.4937 H   0  0  0  0  0  0  0  0  0  0  0  0
   -1.8156    2.1000    0.5865 H   0  0  0  0  0  0  0  0  0  0  0  0
   -3.1739    1.0015    2.3134 H   0  0  0  0  0  0  0  0  0  0  0  0
   -3.8392    2.5228    1.7460 H   0  0  0  0  0  0  0  0  0  0  0  0
   -1.9440   -0.2560    1.4360 H   0  0  0  0  0  0  0  0  0  0  0  0
   -1.7022   -1.5286    0.2449 H   0  0  0  0  0  0  0  0  0  0  0  0
    0.0062   -0.1862   -0.8890 H   0  0  0  0  0  0  0  0  0  0  0  0
    0.3786    1.5481    1.3829 H   0  0  0  0  0  0  0  0  0  0  0  0
    0.5517   -1.9220    0.5936 H   0  0  0  0  0  0  0  0  0  0  0  0
    0.4335   -0.8625    2.0881 H   0  0  0  0  0  0  0  0  0  0  0  0
    2.1666    0.4875    1.5201 H   0  0  0  0  0  0  0  0  0  0  0  0
    2.5537   -1.2429    2.9136 H   0  0  0  0  0  0  0  0  0  0  0  0
    3.9998   -1.0988    1.9493 H   0  0  0  0  0  0  0  0  0  0  0  0
    1.9653   -3.3677    1.7131 H   0  0  0  0  0  0  0  0  0  0  0  0
    2.8048   -3.7247   -0.4135 H   0  0  0  0  0  0  0  0  0  0  0  0
    4.2871   -2.6575   -0.1156 H   0  0  0  0  0  0  0  0  0  0  0  0
    5.4505   -4.3076    0.8700 H   0  0  0  0  0  0  0  0  0  0  0  0
    4.5715   -5.0886   -0.4425 H   0  0  0  0  0  0  0  0  0  0  0  0
    2.8304   -5.9139    1.0187 H   0  0  0  0  0  0  0  0  0  0  0  0
    4.4906   -6.5104    1.5022 H   0  0  0  0  0  0  0  0  0  0  0  0
    4.5389   -5.3343    3.4228 H   0  0  0  0  0  0  0  0  0  0  0  0
    2.7284   -5.2682    3.3070 H   0  0  0  0  0  0  0  0  0  0  0  0
    3.5930   -3.0457    3.7088 H   0  0  0  0  0  0  0  0  0  0  0  0
    4.8561   -3.2102    2.4817 H   0  0  0  0  0  0  0  0  0  0  0  0
    1.6283    0.4287   -0.7854 H   0  0  0  0  0  0  0  0  0  0  0  0
    3.1316   -1.1699   -2.0347 H   0  0  0  0  0  0  0  0  0  0  0  0
    3.3115    1.3555   -1.5604 H   0  0  0  0  0  0  0  0  0  0  0  0
    5.4000   -0.3629   -0.8946 H   0  0  0  0  0  0  0  0  0  0  0  0
    5.8527   -0.0753    1.2591 H   0  0  0  0  0  0  0  0  0  0  0  0
    5.1395    1.7123    2.5159 H   0  0  0  0  0  0  0  0  0  0  0  0
    7.5819    1.3083    1.2022 H   0  0  0  0  0  0  0  0  0  0  0  0
    6.6277    2.7882    0.9275 H   0  0  0  0  0  0  0  0  0  0  0  0
    7.5253    0.6298   -1.0473 H   0  0  0  0  0  0  0  0  0  0  0  0
    8.5614    2.2112   -2.3057 H   0  0  0  0  0  0  0  0  0  0  0  0
    8.8231    2.8084   -0.6588 H   0  0  0  0  0  0  0  0  0  0  0  0
    7.5016    4.0727   -2.9902 H   0  0  0  0  0  0  0  0  0  0  0  0
    7.9577    4.7783   -1.4358 H   0  0  0  0  0  0  0  0  0  0  0  0
    5.9370    4.6220   -0.4524 H   0  0  0  0  0  0  0  0  0  0  0  0
    5.5401    4.9384   -2.1519 H   0  0  0  0  0  0  0  0  0  0  0  0
    4.2447    3.0687   -0.8077 H   0  0  0  0  0  0  0  0  0  0  0  0
    4.5032    2.9949   -2.5496 H   0  0  0  0  0  0  0  0  0  0  0  0
    5.7838    1.1412   -2.4962 H   0  0  0  0  0  0  0  0  0  0  0  0
   -5.6963    1.2835    2.8250 H   0  0  0  0  0  0  0  0  0  0  0  0
   -6.7944    0.4234    1.7011 H   0  0  0  0  0  0  0  0  0  0  0  0
   -5.8067    3.3501    1.6858 H   0  0  0  0  0  0  0  0  0  0  0  0
   -7.3755    1.8356   -0.4817 H   0  0  0  0  0  0  0  0  0  0  0  0
   -6.2694    3.3242   -0.6007 H   0  0  0  0  0  0  0  0  0  0  0  0
   -8.3987    3.9812   -0.9408 H   0  0  0  0  0  0  0  0  0  0  0  0
   -6.7724    4.9890    0.7632 H   0  0  0  0  0  0  0  0  0  0  0  0
   -8.5022    5.6129    0.6706 H   0  0  0  0  0  0  0  0  0  0  0  0
   -9.0606    4.4110    2.6958 H   0  0  0  0  0  0  0  0  0  0  0  0
   -7.2790    4.7786    3.0093 H   0  0  0  0  0  0  0  0  0  0  0  0
   -8.6073    2.2409    1.8827 H   0  0  0  0  0  0  0  0  0  0  0  0
   -7.4759    2.3771    3.2965 H   0  0  0  0  0  0  0  0  0  0  0  0
  1  2  1  0
  2  3  1  0
  3  4  1  0
  4  5  1  0
  4  6  1  0
  7  6  1  0
  7  8  1  0
  7  9  1  0
  7 10  1  0
  3 11  1  0
 11 12  1  0
  1 13  1  0
 12 13  1  0
 11 14  1  0
 14 15  1  0
 15 16  1  0
 15 17  1  0
 17 18  1  0
 18 19  1  0
 19 20  1  0
 20 21  1  0
 21 22  1  0
 22 23  1  0
 23 24  1  0
 20 25  1  0
 24 25  1  0
 18 26  1  0
 26 27  1  0
 26 28  1  0
 28 29  1  0
 29 30  1  0
 30 31  1  0
 30 32  1  0
 32 33  1  0
 33 34  1  0
 34 35  1  0
 35 36  1  0
 36 37  1  0
 29 38  1  0
 33 38  1  0
 37 38  1  0
  1 39  1  0
 39 40  1  0
 40 41  1  0
 41 42  1  0
 42 43  1  0
 43 44  1  0
 40 45  1  0
 44 45  1  0
  2 46  1  0
  2 47  1  0
  3 48  1  1
  4 49  1  0
  5 50  1  0
  6 51  1  0
  8 52  1  0
  8 53  1  0
  8 54  1  0
  9 55  1  0
  9 56  1  0
  9 57  1  0
 10 58  1  0
 10 59  1  0
 10 60  1  0
 12 61  1  0
 12 62  1  0
 13 63  1  0
 13 64  1  0
 14 65  1  0
 14 66  1  0
 15 67  1  6
 16 68  1  0
 17 69  1  0
 17 70  1  0
 18 71  1  1
 19 72  1  0
 19 73  1  0
 20 74  1  0
 21 75  1  0
 21 76  1  0
 22 77  1  0
 22 78  1  0
 23 79  1  0
 23 80  1  0
 24 81  1  0
 24 82  1  0
 25 83  1  0
 25 84  1  0
 26 85  1  6
 27 86  1  0
 28 87  1  0
 29 88  1  6
 30 89  1  1
 31 90  1  0
 32 91  1  0
 32 92  1  0
 33 93  1  0
 34 94  1  0
 34 95  1  0
 35 96  1  0
 35 97  1  0
 36 98  1  0
 36 99  1  0
 37100  1  0
 37101  1  0
 38102  1  0
 39103  1  0
 39104  1  0
 40105  1  0
 41106  1  0
 41107  1  0
 42108  1  0
 43109  1  0
 43110  1  0
 44111  1  0
 44112  1  0
 45113  1  0
 45114  1  0
M  END
>  <PDBID>  (1) 
1HSG

>  <PDB ID>  (1) 
1HSG

>  <Generic Name>  (1) 
Indinavir

>  <Brand Name>  (1) 
Crixivan

>  <DrugBank ID>  (1) 
DB00224

>  <ATC Codes>  (1) 
J05AE02

>  <Ligand ID>  (1) 
MK1

>  <Target Name>  (1) 
Pol polyprotein

>  <UniProt ID>  (1) 
Q72874

>  <PDB ID.1>  (1) 
1HSG

>  <Seq. Identity>  (1) 
99%

$$$$
