PDB_DB00509_07
     RDKit          3D

 49 50  0  0  0  0  0  0  0  0999 V2000
    2.2504   -0.0529   -0.5594 C   0  0  2  0  0  0  0  0  0  0  0  0
    1.6101    0.6404    0.5927 C   0  0  0  0  0  0  0  0  0  0  0  0
    0.2144    1.0544    0.1353 C   0  0  2  0  0  0  0  0  0  0  0  0
   -0.6187   -0.1984    0.0751 C   0  0  0  0  0  0  0  0  0  0  0  0
    0.1493   -1.4123   -0.3405 C   0  0  0  0  0  0  0  0  0  0  0  0
    1.3895   -1.1336   -1.1162 C   0  0  0  0  0  0  0  0  0  0  0  0
    3.6501   -0.5391   -0.2547 C   0  0  0  0  0  0  0  0  0  0  0  0
    4.5835    0.5600    0.1205 C   0  0  1  0  0  0  0  0  0  0  0  0
    5.9411   -0.0559    0.3987 C   0  0  0  0  0  0  0  0  0  0  0  0
   -2.9308   -0.0637    0.0209 C   0  0  0  0  0  0  0  0  0  0  0  0
   -3.6626    1.2265   -0.1216 C   0  0  0  0  0  0  0  0  0  0  0  0
   -5.0941    1.1786    0.3217 C   0  0  0  0  0  0  0  0  0  0  0  0
   -5.7902   -0.1001   -0.0111 C   0  0  0  0  0  0  0  0  0  0  0  0
   -4.9887   -1.3274    0.3289 C   0  0  0  0  0  0  0  0  0  0  0  0
   -3.7024   -1.2531   -0.4965 C   0  0  0  0  0  0  0  0  0  0  0  0
    4.7766    1.5278   -0.9448 N   0  0  0  0  0  0  0  0  0  0  0  0
   -1.7482    0.0161   -0.7140 O   0  0  0  0  0  0  0  0  0  0  0  0
   -6.9677   -0.1469    0.7554 O   0  0  0  0  0  0  0  0  0  0  0  0
    6.4178   -0.6834   -0.7730 O   0  0  0  0  0  0  0  0  0  0  0  0
    6.8904    0.8873    0.7471 O   0  0  0  0  0  0  0  0  0  0  0  0
    0.3292    2.0219   -1.7590 I   0  0  0  0  0  0  0  0  0  0  0  0
   -5.2718    1.6009    2.4070 I   0  0  0  0  0  0  0  0  0  0  0  0
    0.5220   -2.7004    1.3383 I   0  0  0  0  0  0  0  0  0  0  0  0
   -4.5991   -1.4491    2.3992 I   0  0  0  0  0  0  0  0  0  0  0  0
    2.3740    0.7188   -1.3765 H   0  0  0  0  0  0  0  0  0  0  0  0
    2.1335    1.5775    0.8601 H   0  0  0  0  0  0  0  0  0  0  0  0
    1.4923    0.0400    1.4908 H   0  0  0  0  0  0  0  0  0  0  0  0
   -0.2266    1.7889    0.8559 H   0  0  0  0  0  0  0  0  0  0  0  0
   -0.9942   -0.3805    1.1124 H   0  0  0  0  0  0  0  0  0  0  0  0
   -0.5321   -2.0115   -1.0107 H   0  0  0  0  0  0  0  0  0  0  0  0
    1.1415   -0.9792   -2.2071 H   0  0  0  0  0  0  0  0  0  0  0  0
    1.9983   -2.0834   -1.1178 H   0  0  0  0  0  0  0  0  0  0  0  0
    3.6223   -1.2671    0.5732 H   0  0  0  0  0  0  0  0  0  0  0  0
    4.0734   -1.0733   -1.1291 H   0  0  0  0  0  0  0  0  0  0  0  0
    4.2830    1.0845    1.0499 H   0  0  0  0  0  0  0  0  0  0  0  0
    5.8346   -0.8692    1.1426 H   0  0  0  0  0  0  0  0  0  0  0  0
   -2.6725   -0.2839    1.0797 H   0  0  0  0  0  0  0  0  0  0  0  0
   -3.5867    1.6000   -1.1548 H   0  0  0  0  0  0  0  0  0  0  0  0
   -3.1444    1.9785    0.5281 H   0  0  0  0  0  0  0  0  0  0  0  0
   -5.6282    2.0054   -0.2165 H   0  0  0  0  0  0  0  0  0  0  0  0
   -6.1223   -0.1639   -1.0712 H   0  0  0  0  0  0  0  0  0  0  0  0
   -5.5866   -2.2089    0.0286 H   0  0  0  0  0  0  0  0  0  0  0  0
   -3.0929   -2.1545   -0.2731 H   0  0  0  0  0  0  0  0  0  0  0  0
   -3.9771   -1.1789   -1.5486 H   0  0  0  0  0  0  0  0  0  0  0  0
    5.6680    2.0487   -0.8496 H   0  0  0  0  0  0  0  0  0  0  0  0
    3.9876    2.1662   -1.0793 H   0  0  0  0  0  0  0  0  0  0  0  0
   -7.5465   -0.8947    0.5015 H   0  0  0  0  0  0  0  0  0  0  0  0
    6.2174   -0.1163   -1.5550 H   0  0  0  0  0  0  0  0  0  0  0  0
    6.9345    1.0593    1.7115 H   0  0  0  0  0  0  0  0  0  0  0  0
  1  2  1  0
  2  3  1  0
  3  4  1  0
  4  5  1  0
  1  6  1  0
  5  6  1  0
  1  7  1  0
  7  8  1  0
  8  9  1  0
 10 11  1  0
 11 12  1  0
 12 13  1  0
 13 14  1  0
 10 15  1  0
 14 15  1  0
  8 16  1  0
  4 17  1  0
 10 17  1  0
 13 18  1  0
  9 19  1  0
  9 20  1  0
  3 21  1  0
 12 22  1  0
  5 23  1  0
 14 24  1  0
  1 25  1  6
  2 26  1  0
  2 27  1  0
  3 28  1  1
  4 29  1  0
  5 30  1  0
  6 31  1  0
  6 32  1  0
  7 33  1  0
  7 34  1  0
  8 35  1  1
  9 36  1  0
 10 37  1  0
 11 38  1  0
 11 39  1  0
 12 40  1  0
 13 41  1  0
 14 42  1  0
 15 43  1  0
 15 44  1  0
 16 45  1  0
 16 46  1  0
 18 47  1  0
 19 48  1  0
 20 49  1  0
M  END
>  <PDBID>  (1) 
1Y0X

>  <PDB ID>  (1) 
1Y0X

>  <Generic Name>  (1) 
Dextrothyroxine

>  <Brand Name>  (1) 
Choloxin - Tab 4mg#Choloxin Tab 2mg#Choloxin Tablet 4mg#Choloxin#Dynothel#Eulipos#Lisolipin

>  <DrugBank ID>  (1) 
DB00509

>  <ATC Codes>  (1) 
C10AX01

>  <Ligand ID>  (1) 
T44

>  <Target Name>  (1) 
Thyroid hormone receptor beta

>  <UniProt ID>  (1) 
P10828

>  <PDB ID.1>  (1) 
1Y0X

>  <Seq. Identity>  (1) 
100%

$$$$
