PDB_DB01144_06
     RDKit          3D

 32 32  0  0  0  0  0  0  0  0999 V2000
    2.1264   -0.9913   -0.3861 S   0  0  0  0  0  0  0  0  0  0  0  0
    1.9678   -1.4474    1.0296 O   0  0  0  0  0  0  0  0  0  0  0  0
    1.9358   -2.1750   -1.5544 O   0  0  0  0  0  0  0  0  0  0  0  0
    3.7719   -0.4003   -0.6320 N   0  0  0  0  0  0  0  0  0  0  0  0
   -2.7574   -0.1867    0.0330 S   0  0  0  0  0  0  0  0  0  0  0  0
   -3.2611    0.7332   -0.9597 O   0  0  0  0  0  0  0  0  0  0  0  0
   -2.5145   -1.7715   -0.8927 O   0  0  0  0  0  0  0  0  0  0  0  0
   -3.5106   -0.7156    1.3227 N   0  0  0  0  0  0  0  0  0  0  0  0
    1.1145    0.2989   -0.9274 C   0  0  0  0  0  0  0  0  0  0  0  0
   -0.3052   -0.1594   -0.9135 C   0  0  0  0  0  0  0  0  0  0  0  0
   -1.0141    0.0395    0.3833 C   0  0  0  0  0  0  0  0  0  0  0  0
   -0.8044    1.4035    0.9825 C   0  0  0  0  0  0  0  0  0  0  0  0
    0.6872    1.5706    1.1845 C   0  0  0  0  0  0  0  0  0  0  0  0
    1.3152    1.5859   -0.1909 C   0  0  0  0  0  0  0  0  0  0  0  0
   -1.4720    2.6957   -0.0186 Cl  0  0  0  0  0  0  0  0  0  0  0  0
    1.0719    3.0962    1.9995 Cl  0  0  0  0  0  0  0  0  0  0  0  0
    2.6369   -1.1715    1.7173 H   0  0  0  0  0  0  0  0  0  0  0  0
    1.4584   -2.9730   -1.1841 H   0  0  0  0  0  0  0  0  0  0  0  0
    3.8103    0.0581   -1.5596 H   0  0  0  0  0  0  0  0  0  0  0  0
    4.4024   -1.2469   -0.6449 H   0  0  0  0  0  0  0  0  0  0  0  0
   -3.9250    1.4405   -0.9137 H   0  0  0  0  0  0  0  0  0  0  0  0
   -2.0177   -2.2982   -0.2197 H   0  0  0  0  0  0  0  0  0  0  0  0
   -4.1724   -1.5219    1.1440 H   0  0  0  0  0  0  0  0  0  0  0  0
   -2.8684   -1.0707    2.0808 H   0  0  0  0  0  0  0  0  0  0  0  0
    1.3805    0.4966   -2.0077 H   0  0  0  0  0  0  0  0  0  0  0  0
   -0.9027    0.3008   -1.7234 H   0  0  0  0  0  0  0  0  0  0  0  0
   -0.2980   -1.2689   -1.1181 H   0  0  0  0  0  0  0  0  0  0  0  0
   -0.7386   -0.7143    1.1534 H   0  0  0  0  0  0  0  0  0  0  0  0
   -1.3239    1.4348    1.9585 H   0  0  0  0  0  0  0  0  0  0  0  0
    1.0294    0.7173    1.8006 H   0  0  0  0  0  0  0  0  0  0  0  0
    0.7956    2.3873   -0.7641 H   0  0  0  0  0  0  0  0  0  0  0  0
    2.3819    1.8538   -0.1792 H   0  0  0  0  0  0  0  0  0  0  0  0
  1  2  1  0
  1  3  1  0
  1  4  1  0
  5  6  1  0
  5  7  1  0
  5  8  1  0
  1  9  1  0
  9 10  1  0
  5 11  1  0
 10 11  1  0
 11 12  1  0
 12 13  1  0
  9 14  1  0
 13 14  1  0
 12 15  1  0
 13 16  1  0
  2 17  1  0
  3 18  1  0
  4 19  1  0
  4 20  1  0
  6 21  1  0
  7 22  1  0
  8 23  1  0
  8 24  1  0
  9 25  1  0
 10 26  1  0
 10 27  1  0
 11 28  1  0
 12 29  1  0
 13 30  1  0
 14 31  1  0
 14 32  1  0
M  END
>  <PDBID>  (1) 
2POU

>  <PDB ID>  (1) 
2POU

>  <Generic Name>  (1) 
Diclofenamide

>  <Brand Name>  (1) 
Daranide#Keveyis#Oratrol

>  <DrugBank ID>  (1) 
DB01144

>  <ATC Codes>  (1) 
S01EC02

>  <Ligand ID>  (1) 
I7A

>  <Target Name>  (1) 
Carbonic anhydrase 1

>  <UniProt ID>  (1) 
P00915

>  <PDB ID.1>  (1) 
2POU

>  <Seq. Identity>  (1) 
61%

$$$$
