PDB_DB01199_03
     RDKit          3D

550580  0  0  0  0  0  0  0  0999 V2000
    5.1509   -2.4873   -0.6149 N   0  0  0  0  0  0  0  0  0  0  0  0
    6.0951   -1.5459   -1.1128 C   0  0  0  0  0  0  0  0  0  0  0  0
    5.8418   -0.1230   -0.5958 C   0  0  0  0  0  0  0  0  0  0  0  0
    5.4416   -0.2808    0.8487 C   0  0  0  0  0  0  0  0  0  0  0  0
    4.0574   -0.8801    0.8890 C   0  0  0  0  0  0  0  0  0  0  0  0
    3.8933   -1.9173   -0.1884 C   0  0  2  0  0  0  0  0  0  0  0  0
    5.6272    0.9229    1.6855 C   0  0  0  0  0  0  0  0  0  0  0  0
    4.5310    1.9443    1.6268 C   0  0  0  0  0  0  0  0  0  0  0  0
    3.3832    1.5635    0.7685 C   0  0  1  0  0  0  0  0  0  0  0  0
    2.9696    0.1291    0.8837 C   0  0  0  0  0  0  0  0  0  0  0  0
    2.2679    2.3367    1.1729 O   0  0  0  0  0  0  0  0  0  0  0  0
    1.3273    2.4463    0.1812 C   0  0  2  0  0  0  0  0  0  0  0  0
    1.5982    3.6858   -0.6893 C   0  0  0  0  0  0  0  0  0  0  0  0
    0.6615    3.5020   -1.8806 C   0  0  0  0  0  0  0  0  0  0  0  0
   -0.7246    3.6674   -1.3672 C   0  0  0  0  0  0  0  0  0  0  0  0
   -1.1289    2.7888   -0.2389 C   0  0  2  0  0  0  0  0  0  0  0  0
   -0.0386    2.5358    0.7600 C   0  0  0  0  0  0  0  0  0  0  0  0
   -1.8261    1.4981   -0.6961 C   0  0  0  0  0  0  0  0  0  0  0  0
   -3.2113    1.3539   -0.1570 C   0  0  1  0  0  0  0  0  0  0  0  0
   -4.2448    1.9012   -0.9792 N   0  0  0  0  0  0  0  0  0  0  0  0
   -5.5693    1.4370   -0.6727 C   0  0  0  0  0  0  0  0  0  0  0  0
   -5.6399    1.0853    0.7651 C   0  0  0  0  0  0  0  0  0  0  0  0
   -4.8294   -0.2030    0.9711 C   0  0  0  0  0  0  0  0  0  0  0  0
   -3.4730   -0.0392    0.4053 C   0  0  1  0  0  0  0  0  0  0  0  0
   -5.6668   -1.3091    0.4534 C   0  0  0  0  0  0  0  0  0  0  0  0
   -4.8875   -2.5292    0.0279 C   0  0  0  0  0  0  0  0  0  0  0  0
   -3.9474   -2.0643   -1.0600 C   0  0  2  0  0  0  0  0  0  0  0  0
   -2.9328   -1.1664   -0.4071 C   0  0  2  0  0  0  0  0  0  0  0  0
   -2.2527   -2.0895    0.4422 O   0  0  0  0  0  0  0  0  0  0  0  0
   -0.9216   -2.2505    0.1105 C   0  0  0  0  0  0  0  0  0  0  0  0
   -0.1594   -1.7213    1.3222 C   0  0  0  0  0  0  0  0  0  0  0  0
    1.0210   -2.6087    1.5269 C   0  0  0  0  0  0  0  0  0  0  0  0
    1.5803   -2.8838    0.1247 C   0  0  0  0  0  0  0  0  0  0  0  0
    0.7696   -4.0875   -0.3544 C   0  0  0  0  0  0  0  0  0  0  0  0
   -0.6836   -3.7085   -0.1320 C   0  0  0  0  0  0  0  0  0  0  0  0
    3.0303   -3.1043    0.2600 C   0  0  0  0  0  0  0  0  0  0  0  0
    5.0136    3.1779    1.1981 O   0  0  0  0  0  0  0  0  0  0  0  0
    4.8616    4.1648    2.1672 C   0  0  0  0  0  0  0  0  0  0  0  0
    1.1436    4.8140   -0.0017 O   0  0  0  0  0  0  0  0  0  0  0  0
   -4.1432   -2.9847    1.0926 O   0  0  0  0  0  0  0  0  0  0  0  0
   -4.4818   -4.2905    1.4589 C   0  0  0  0  0  0  0  0  0  0  0  0
   -4.5472   -1.6137   -2.1864 O   0  0  0  0  0  0  0  0  0  0  0  0
    4.8541   -3.4372   -1.6731 C   0  0  0  0  0  0  0  0  0  0  0  0
   -4.3316    3.3669   -0.7572 C   0  0  0  0  0  0  0  0  0  0  0  0
   -4.0259    1.7785   -2.4000 C   0  0  0  0  0  0  0  0  0  0  0  0
    5.1367   -2.4991   -0.6258 N   0  0  0  0  0  0  0  0  0  0  0  0
    6.0596   -1.5589   -1.1699 C   0  0  0  0  0  0  0  0  0  0  0  0
    5.8287   -0.1334   -0.6511 C   0  0  0  0  0  0  0  0  0  0  0  0
    5.4289   -0.2907    0.8031 C   0  0  0  0  0  0  0  0  0  0  0  0
    4.0437   -0.8773    0.8692 C   0  0  2  0  0  0  0  0  0  0  0  0
    3.8748   -1.9277   -0.2024 C   0  0  2  0  0  0  0  0  0  0  0  0
    5.6430    0.9146    1.6311 C   0  0  0  0  0  0  0  0  0  0  0  0
    4.5215    1.9115    1.6468 C   0  0  0  0  0  0  0  0  0  0  0  0
    3.3905    1.5685    0.7461 C   0  0  0  0  0  0  0  0  0  0  0  0
    2.9563    0.1319    0.8387 C   0  0  0  0  0  0  0  0  0  0  0  0
    2.2777    2.3446    1.1514 O   0  0  0  0  0  0  0  0  0  0  0  0
    1.3340    2.4551    0.1699 C   0  0  0  0  0  0  0  0  0  0  0  0
    1.6004    3.7145   -0.6708 C   0  0  0  0  0  0  0  0  0  0  0  0
    0.6866    3.5564   -1.8696 C   0  0  0  0  0  0  0  0  0  0  0  0
   -0.7145    3.6700   -1.3918 C   0  0  0  0  0  0  0  0  0  0  0  0
   -1.1199    2.7953   -0.2644 C   0  0  0  0  0  0  0  0  0  0  0  0
   -0.0344    2.5468    0.7481 C   0  0  0  0  0  0  0  0  0  0  0  0
   -1.8125    1.4998   -0.7143 C   0  0  0  0  0  0  0  0  0  0  0  0
   -3.2007    1.3580   -0.1894 C   0  0  1  0  0  0  0  0  0  0  0  0
   -4.2245    1.8864   -1.0361 N   0  0  0  0  0  0  0  0  0  0  0  0
   -5.5598    1.4295   -0.7125 C   0  0  0  0  0  0  0  0  0  0  0  0
   -5.6145    1.1024    0.7322 C   0  0  0  0  0  0  0  0  0  0  0  0
   -4.8215   -0.1843    0.9613 C   0  0  0  0  0  0  0  0  0  0  0  0
   -3.4685   -0.0251    0.3969 C   0  0  1  0  0  0  0  0  0  0  0  0
   -5.6593   -1.2967    0.4501 C   0  0  0  0  0  0  0  0  0  0  0  0
   -4.8779   -2.5167    0.0291 C   0  0  0  0  0  0  0  0  0  0  0  0
   -3.9321   -2.0628   -1.0556 C   0  0  0  0  0  0  0  0  0  0  0  0
   -2.9197   -1.1659   -0.3983 C   0  0  2  0  0  0  0  0  0  0  0  0
   -2.2473   -2.0808    0.4655 O   0  0  0  0  0  0  0  0  0  0  0  0
   -0.9250   -2.2591    0.1572 C   0  0  0  0  0  0  0  0  0  0  0  0
   -0.1687   -1.7172    1.3808 C   0  0  0  0  0  0  0  0  0  0  0  0
    1.0193   -2.5998    1.5769 C   0  0  0  0  0  0  0  0  0  0  0  0
    1.5680   -2.8823    0.1724 C   0  0  0  0  0  0  0  0  0  0  0  0
    0.7595   -4.1011   -0.2937 C   0  0  0  0  0  0  0  0  0  0  0  0
   -0.6859   -3.7446   -0.0179 C   0  0  0  0  0  0  0  0  0  0  0  0
    3.0249   -3.1136    0.2764 C   0  0  0  0  0  0  0  0  0  0  0  0
    5.0260    3.1587    1.2828 O   0  0  0  0  0  0  0  0  0  0  0  0
    4.8506    4.1053    2.2916 C   0  0  0  0  0  0  0  0  0  0  0  0
    1.1351    4.7828    0.0849 O   0  0  0  0  0  0  0  0  0  0  0  0
   -4.1397   -2.9444    1.1076 O   0  0  0  0  0  0  0  0  0  0  0  0
   -4.4856   -4.2337    1.5082 C   0  0  0  0  0  0  0  0  0  0  0  0
   -4.5174   -1.6203   -2.1911 O   0  0  0  0  0  0  0  0  0  0  0  0
    4.8251   -3.4699   -1.6692 C   0  0  0  0  0  0  0  0  0  0  0  0
   -4.3172    3.3548   -0.8437 C   0  0  0  0  0  0  0  0  0  0  0  0
   -3.9717    1.7333   -2.4564 C   0  0  0  0  0  0  0  0  0  0  0  0
    5.1489   -2.4947   -0.5872 N   0  0  0  0  0  0  0  0  0  0  0  0
    6.0674   -1.5622   -1.1567 C   0  0  0  0  0  0  0  0  0  0  0  0
    5.8451   -0.1300   -0.6570 C   0  0  0  0  0  0  0  0  0  0  0  0
    5.4165   -0.2769    0.8005 C   0  0  0  0  0  0  0  0  0  0  0  0
    4.0371   -0.8598    0.8806 C   0  0  0  0  0  0  0  0  0  0  0  0
    3.8857   -1.9324   -0.1777 C   0  0  2  0  0  0  0  0  0  0  0  0
    5.6365    0.9467    1.6095 C   0  0  0  0  0  0  0  0  0  0  0  0
    4.4960    1.9215    1.6401 C   0  0  0  0  0  0  0  0  0  0  0  0
    3.3870    1.5849    0.7052 C   0  0  0  0  0  0  0  0  0  0  0  0
    2.9434    0.1481    0.7966 C   0  0  0  0  0  0  0  0  0  0  0  0
    2.2707    2.3626    1.0973 O   0  0  0  0  0  0  0  0  0  0  0  0
    1.3182    2.4451    0.1257 C   0  0  0  0  0  0  0  0  0  0  0  0
    1.6264    3.6484   -0.7795 C   0  0  0  0  0  0  0  0  0  0  0  0
    0.6390    3.4742   -1.9427 C   0  0  0  0  0  0  0  0  0  0  0  0
   -0.7241    3.7007   -1.3862 C   0  0  0  0  0  0  0  0  0  0  0  0
   -1.1365    2.8230   -0.2600 C   0  0  2  0  0  0  0  0  0  0  0  0
   -0.0404    2.5725    0.7430 C   0  0  0  0  0  0  0  0  0  0  0  0
   -1.8261    1.5279   -0.7108 C   0  0  0  0  0  0  0  0  0  0  0  0
   -3.1982    1.3682   -0.1394 C   0  0  1  0  0  0  0  0  0  0  0  0
   -4.2463    1.9263   -0.9434 N   0  0  0  0  0  0  0  0  0  0  0  0
   -5.5662    1.4461   -0.6399 C   0  0  0  0  0  0  0  0  0  0  0  0
   -5.6276    1.0701    0.7935 C   0  0  0  0  0  0  0  0  0  0  0  0
   -4.8047   -0.2169    0.9656 C   0  0  0  0  0  0  0  0  0  0  0  0
   -3.4521   -0.0275    0.4069 C   0  0  1  0  0  0  0  0  0  0  0  0
   -5.6377   -1.3173    0.4323 C   0  0  0  0  0  0  0  0  0  0  0  0
   -4.8608   -2.5142   -0.0514 C   0  0  0  0  0  0  0  0  0  0  0  0
   -3.9074   -2.0248   -1.1046 C   0  0  0  0  0  0  0  0  0  0  0  0
   -2.8982   -1.1466   -0.4112 C   0  0  2  0  0  0  0  0  0  0  0  0
   -2.2433   -2.0874    0.4365 O   0  0  0  0  0  0  0  0  0  0  0  0
   -0.9179   -2.2656    0.1446 C   0  0  0  0  0  0  0  0  0  0  0  0
   -0.1750   -1.7028    1.3656 C   0  0  0  0  0  0  0  0  0  0  0  0
    1.0116   -2.5822    1.5881 C   0  0  0  0  0  0  0  0  0  0  0  0
    1.5741   -2.8846    0.1928 C   0  0  0  0  0  0  0  0  0  0  0  0
    0.7749   -4.1092   -0.2634 C   0  0  0  0  0  0  0  0  0  0  0  0
   -0.6807   -3.7581    0.0036 C   0  0  0  0  0  0  0  0  0  0  0  0
    3.0331   -3.1069    0.3078 C   0  0  0  0  0  0  0  0  0  0  0  0
    4.9799    3.1821    1.2986 O   0  0  0  0  0  0  0  0  0  0  0  0
    4.7602    4.1079    2.3231 C   0  0  0  0  0  0  0  0  0  0  0  0
    1.3952    4.8396   -0.1245 O   0  0  0  0  0  0  0  0  0  0  0  0
   -4.1233   -3.0007    1.0228 O   0  0  0  0  0  0  0  0  0  0  0  0
   -4.4734   -4.3049    1.3509 C   0  0  0  0  0  0  0  0  0  0  0  0
   -4.4735   -1.5432   -2.2360 O   0  0  0  0  0  0  0  0  0  0  0  0
    4.8545   -3.4988   -1.6023 C   0  0  0  0  0  0  0  0  0  0  0  0
   -4.3426    3.3855   -0.6907 C   0  0  0  0  0  0  0  0  0  0  0  0
   -4.0131    1.8433   -2.3718 C   0  0  0  0  0  0  0  0  0  0  0  0
    5.1450   -2.4611   -0.6924 N   0  0  0  0  0  0  0  0  0  0  0  0
    6.0457   -1.5213   -1.2829 C   0  0  0  0  0  0  0  0  0  0  0  0
    5.7983   -0.0974   -0.7648 C   0  0  0  0  0  0  0  0  0  0  0  0
    5.4367   -0.2447    0.6876 C   0  0  0  0  0  0  0  0  0  0  0  0
    4.0597   -0.8210    0.7955 C   0  0  0  0  0  0  0  0  0  0  0  0
    3.8880   -1.9004   -0.2480 C   0  0  2  0  0  0  0  0  0  0  0  0
    5.6757    0.9764    1.5099 C   0  0  0  0  0  0  0  0  0  0  0  0
    4.5501    1.9700    1.5268 C   0  0  1  0  0  0  0  0  0  0  0  0
    3.4138    1.6251    0.6342 C   0  0  1  0  0  0  0  0  0  0  0  0
    2.9698    0.1930    0.7283 C   0  0  0  0  0  0  0  0  0  0  0  0
    2.3169    2.4159    1.0564 O   0  0  0  0  0  0  0  0  0  0  0  0
    1.3255    2.4873    0.1245 C   0  0  2  0  0  0  0  0  0  0  0  0
    1.6029    3.7244   -0.7455 C   0  0  0  0  0  0  0  0  0  0  0  0
    0.6283    3.5614   -1.9159 C   0  0  0  0  0  0  0  0  0  0  0  0
   -0.7414    3.7544   -1.3598 C   0  0  0  0  0  0  0  0  0  0  0  0
   -1.1348    2.8568   -0.2423 C   0  0  0  0  0  0  0  0  0  0  0  0
   -0.0267    2.5976    0.7455 C   0  0  0  0  0  0  0  0  0  0  0  0
   -1.8139    1.5608   -0.7108 C   0  0  0  0  0  0  0  0  0  0  0  0
   -3.1891    1.3841   -0.1522 C   0  0  1  0  0  0  0  0  0  0  0  0
   -4.2364    1.9244   -0.9649 N   0  0  0  0  0  0  0  0  0  0  0  0
   -5.5550    1.4234   -0.6655 C   0  0  0  0  0  0  0  0  0  0  0  0
   -5.6094    1.0536    0.7699 C   0  0  0  0  0  0  0  0  0  0  0  0
   -4.7755   -0.2198    0.9561 C   0  0  0  0  0  0  0  0  0  0  0  0
   -3.4208   -0.0137    0.3951 C   0  0  1  0  0  0  0  0  0  0  0  0
   -5.5868   -1.3351    0.4234 C   0  0  0  0  0  0  0  0  0  0  0  0
   -4.8014   -2.5185   -0.0618 C   0  0  0  0  0  0  0  0  0  0  0  0
   -3.8524   -2.0210   -1.1112 C   0  0  0  0  0  0  0  0  0  0  0  0
   -2.8566   -1.1286   -0.4156 C   0  0  2  0  0  0  0  0  0  0  0  0
   -2.2022   -2.0611    0.4416 O   0  0  0  0  0  0  0  0  0  0  0  0
   -0.8834   -2.2574    0.1415 C   0  0  0  0  0  0  0  0  0  0  0  0
   -0.1216   -1.6616    1.3334 C   0  0  0  0  0  0  0  0  0  0  0  0
    1.0531   -2.5805    1.5848 C   0  0  0  0  0  0  0  0  0  0  0  0
    1.6051   -2.8895    0.1841 C   0  0  0  0  0  0  0  0  0  0  0  0
    0.8090   -4.0973   -0.2633 C   0  0  0  0  0  0  0  0  0  0  0  0
   -0.6544   -3.7484    0.0286 C   0  0  0  0  0  0  0  0  0  0  0  0
    3.0710   -3.0874    0.2702 C   0  0  0  0  0  0  0  0  0  0  0  0
    4.0657    2.1993    2.8108 O   0  0  0  0  0  0  0  0  0  0  0  0
    4.2723    3.5299    3.2069 C   0  0  0  0  0  0  0  0  0  0  0  0
    1.2052    4.8422   -0.0440 O   0  0  0  0  0  0  0  0  0  0  0  0
   -4.0697   -3.0133    1.0018 O   0  0  0  0  0  0  0  0  0  0  0  0
   -4.4417   -4.3370    1.3072 C   0  0  0  0  0  0  0  0  0  0  0  0
   -4.4159   -1.5497   -2.2486 O   0  0  0  0  0  0  0  0  0  0  0  0
    4.8172   -3.4505   -1.7160 C   0  0  0  0  0  0  0  0  0  0  0  0
   -4.3599    3.3815   -0.7198 C   0  0  0  0  0  0  0  0  0  0  0  0
   -3.9959    1.8316   -2.3917 C   0  0  0  0  0  0  0  0  0  0  0  0
    5.0154   -2.7074   -0.4590 N   0  0  0  0  0  0  0  0  0  0  0  0
    5.9287   -1.9709   -1.2577 C   0  0  0  0  0  0  0  0  0  0  0  0
    5.6707   -0.4796   -1.2592 C   0  0  0  0  0  0  0  0  0  0  0  0
    5.3601   -0.1094    0.1856 C   0  0  0  0  0  0  0  0  0  0  0  0
    4.0010   -0.6742    0.4959 C   0  0  0  0  0  0  0  0  0  0  0  0
    3.8119   -2.0291   -0.1033 C   0  0  2  0  0  0  0  0  0  0  0  0
    5.5342    1.3223    0.4802 C   0  0  0  0  0  0  0  0  0  0  0  0
    4.2278    2.0574    0.8490 C   0  0  0  0  0  0  0  0  0  0  0  0
    3.2294    1.6532   -0.1596 C   0  0  1  0  0  0  0  0  0  0  0  0
    2.8795    0.2005    0.0227 C   0  0  0  0  0  0  0  0  0  0  0  0
    2.0841    2.3531   -0.2891 O   0  0  0  0  0  0  0  0  0  0  0  0
    1.4254    2.8045    0.8048 C   0  0  0  0  0  0  0  0  0  0  0  0
    1.2036    4.3117    0.5735 C   0  0  0  0  0  0  0  0  0  0  0  0
    0.7465    4.4131   -0.8851 C   0  0  0  0  0  0  0  0  0  0  0  0
   -0.1292    3.2862   -1.3141 C   0  0  0  0  0  0  0  0  0  0  0  0
   -0.8962    2.6596   -0.1805 C   0  0  0  0  0  0  0  0  0  0  0  0
    0.0046    2.2708    0.9684 C   0  0  0  0  0  0  0  0  0  0  0  0
   -1.6323    1.4293   -0.7370 C   0  0  0  0  0  0  0  0  0  0  0  0
   -3.0238    1.3027   -0.2199 C   0  0  1  0  0  0  0  0  0  0  0  0
   -3.9816    1.8890   -1.1038 N   0  0  0  0  0  0  0  0  0  0  0  0
   -5.3595    1.5195   -0.8236 C   0  0  0  0  0  0  0  0  0  0  0  0
   -5.4461    1.1807    0.6202 C   0  0  0  0  0  0  0  0  0  0  0  0
   -4.7346   -0.1537    0.8732 C   0  0  0  0  0  0  0  0  0  0  0  0
   -3.3532   -0.0648    0.3369 C   0  0  0  0  0  0  0  0  0  0  0  0
   -5.6151   -1.2168    0.3511 C   0  0  0  0  0  0  0  0  0  0  0  0
   -4.9205   -2.4663   -0.1042 C   0  0  0  0  0  0  0  0  0  0  0  0
   -3.9108   -2.0583   -1.1435 C   0  0  0  0  0  0  0  0  0  0  0  0
   -2.8624   -1.2365   -0.4324 C   0  0  2  0  0  0  0  0  0  0  0  0
   -2.3296   -2.2249    0.4551 O   0  0  0  0  0  0  0  0  0  0  0  0
   -0.9755   -2.3639    0.3719 C   0  0  0  0  0  0  0  0  0  0  0  0
   -0.4404   -2.0078    1.7602 C   0  0  0  0  0  0  0  0  0  0  0  0
    0.9166   -2.6225    1.9767 C   0  0  0  0  0  0  0  0  0  0  0  0
    1.5417   -2.8117    0.6108 C   0  0  0  0  0  0  0  0  0  0  0  0
    0.8778   -4.0252   -0.0022 C   0  0  0  0  0  0  0  0  0  0  0  0
   -0.6362   -3.8274    0.1531 C   0  0  0  0  0  0  0  0  0  0  0  0
    3.0287   -2.9766    0.8197 C   0  0  0  0  0  0  0  0  0  0  0  0
    4.5806    3.4198    0.7065 O   0  0  0  0  0  0  0  0  0  0  0  0
    4.6263    4.0772    1.9097 C   0  0  0  0  0  0  0  0  0  0  0  0
    0.1423    4.7211    1.3838 O   0  0  0  0  0  0  0  0  0  0  0  0
   -4.2589   -3.0816    0.9483 O   0  0  0  0  0  0  0  0  0  0  0  0
   -4.7025   -4.3746    1.1863 C   0  0  0  0  0  0  0  0  0  0  0  0
   -4.4225   -1.5535   -2.2877 O   0  0  0  0  0  0  0  0  0  0  0  0
    4.6302   -3.9102   -1.2086 C   0  0  0  0  0  0  0  0  0  0  0  0
   -3.9832    3.3600   -0.8899 C   0  0  0  0  0  0  0  0  0  0  0  0
   -3.6538    1.7734   -2.5137 C   0  0  0  0  0  0  0  0  0  0  0  0
    7.1032   -1.8278   -0.6957 H   0  0  0  0  0  0  0  0  0  0  0  0
    6.2081   -1.5520   -2.2123 H   0  0  0  0  0  0  0  0  0  0  0  0
    6.7949    0.4274   -0.6513 H   0  0  0  0  0  0  0  0  0  0  0  0
    5.0603    0.2873   -1.2435 H   0  0  0  0  0  0  0  0  0  0  0  0
    6.1327   -1.0779    1.2590 H   0  0  0  0  0  0  0  0  0  0  0  0
    4.0029   -1.4442    1.8677 H   0  0  0  0  0  0  0  0  0  0  0  0
    3.4079   -1.4726   -1.0804 H   0  0  0  0  0  0  0  0  0  0  0  0
    5.8064    0.5825    2.7475 H   0  0  0  0  0  0  0  0  0  0  0  0
    6.5766    1.4148    1.3870 H   0  0  0  0  0  0  0  0  0  0  0  0
    4.1426    2.0988    2.6672 H   0  0  0  0  0  0  0  0  0  0  0  0
    3.5744    1.8951   -0.2790 H   0  0  0  0  0  0  0  0  0  0  0  0
    2.3341    0.0640    1.8156 H   0  0  0  0  0  0  0  0  0  0  0  0
    2.3045   -0.0689    0.0380 H   0  0  0  0  0  0  0  0  0  0  0  0
    1.3256    1.6052   -0.5434 H   0  0  0  0  0  0  0  0  0  0  0  0
    2.6439    3.7504   -0.9826 H   0  0  0  0  0  0  0  0  0  0  0  0
    0.8396    4.2458   -2.6611 H   0  0  0  0  0  0  0  0  0  0  0  0
    0.8314    2.4588   -2.2316 H   0  0  0  0  0  0  0  0  0  0  0  0
   -1.4136    3.5631   -2.2248 H   0  0  0  0  0  0  0  0  0  0  0  0
   -0.8277    4.7451   -1.0446 H   0  0  0  0  0  0  0  0  0  0  0  0
   -1.9328    3.3453    0.3317 H   0  0  0  0  0  0  0  0  0  0  0  0
   -0.2726    1.5993    1.3012 H   0  0  0  0  0  0  0  0  0  0  0  0
   -0.0276    3.3345    1.5585 H   0  0  0  0  0  0  0  0  0  0  0  0
   -1.2173    0.6788   -0.2454 H   0  0  0  0  0  0  0  0  0  0  0  0
   -1.7832    1.3984   -1.7809 H   0  0  0  0  0  0  0  0  0  0  0  0
   -3.2197    2.0476    0.7522 H   0  0  0  0  0  0  0  0  0  0  0  0
   -6.3455    2.2474   -0.8376 H   0  0  0  0  0  0  0  0  0  0  0  0
   -5.8283    0.6520   -1.3852 H   0  0  0  0  0  0  0  0  0  0  0  0
   -5.1562    1.8621    1.3650 H   0  0  0  0  0  0  0  0  0  0  0  0
   -6.6706    0.9533    1.1517 H   0  0  0  0  0  0  0  0  0  0  0  0
   -4.8407   -0.3084    2.1027 H   0  0  0  0  0  0  0  0  0  0  0  0
   -2.7815   -0.0288    1.3235 H   0  0  0  0  0  0  0  0  0  0  0  0
   -6.3873   -1.6843    1.2424 H   0  0  0  0  0  0  0  0  0  0  0  0
   -6.3302   -1.0486   -0.3996 H   0  0  0  0  0  0  0  0  0  0  0  0
   -5.6233   -3.2710   -0.3541 H   0  0  0  0  0  0  0  0  0  0  0  0
   -3.3906   -3.0022   -1.3701 H   0  0  0  0  0  0  0  0  0  0  0  0
   -2.2035   -0.8558   -1.1566 H   0  0  0  0  0  0  0  0  0  0  0  0
   -0.6748   -1.6768   -0.8166 H   0  0  0  0  0  0  0  0  0  0  0  0
   -0.7724   -1.7186    2.2413 H   0  0  0  0  0  0  0  0  0  0  0  0
    0.2109   -0.7258    1.0427 H   0  0  0  0  0  0  0  0  0  0  0  0
    1.7712   -2.2327    2.2163 H   0  0  0  0  0  0  0  0  0  0  0  0
    0.6323   -3.5614    1.9945 H   0  0  0  0  0  0  0  0  0  0  0  0
    1.2922   -2.0972   -0.6045 H   0  0  0  0  0  0  0  0  0  0  0  0
    0.9879   -4.2693   -1.4228 H   0  0  0  0  0  0  0  0  0  0  0  0
    1.0293   -5.0039    0.1975 H   0  0  0  0  0  0  0  0  0  0  0  0
   -1.1411   -4.3055    0.6833 H   0  0  0  0  0  0  0  0  0  0  0  0
   -1.2206   -3.9786   -1.0595 H   0  0  0  0  0  0  0  0  0  0  0  0
    3.3385   -3.2819    1.3304 H   0  0  0  0  0  0  0  0  0  0  0  0
    3.3146   -4.0271   -0.2772 H   0  0  0  0  0  0  0  0  0  0  0  0
    5.2661    5.1078    1.7527 H   0  0  0  0  0  0  0  0  0  0  0  0
    3.8316    4.2997    2.4974 H   0  0  0  0  0  0  0  0  0  0  0  0
    5.4881    3.8907    3.0366 H   0  0  0  0  0  0  0  0  0  0  0  0
    1.1693    5.5765   -0.6072 H   0  0  0  0  0  0  0  0  0  0  0  0
   -5.5657   -4.3537    1.7570 H   0  0  0  0  0  0  0  0  0  0  0  0
   -3.9186   -4.5762    2.3700 H   0  0  0  0  0  0  0  0  0  0  0  0
   -4.2322   -5.0317    0.6749 H   0  0  0  0  0  0  0  0  0  0  0  0
   -4.1258   -1.8595   -3.0413 H   0  0  0  0  0  0  0  0  0  0  0  0
    3.8423   -3.2821   -2.1025 H   0  0  0  0  0  0  0  0  0  0  0  0
    5.0091   -4.4863   -1.3161 H   0  0  0  0  0  0  0  0  0  0  0  0
    5.5582   -3.3037   -2.5451 H   0  0  0  0  0  0  0  0  0  0  0  0
   -3.6128    3.9209   -1.3596 H   0  0  0  0  0  0  0  0  0  0  0  0
   -4.3155    3.5967    0.3279 H   0  0  0  0  0  0  0  0  0  0  0  0
   -5.3503    3.7204   -1.1006 H   0  0  0  0  0  0  0  0  0  0  0  0
   -5.0350    1.7324   -2.8863 H   0  0  0  0  0  0  0  0  0  0  0  0
   -3.5148    0.8536   -2.6555 H   0  0  0  0  0  0  0  0  0  0  0  0
   -3.5519    2.6837   -2.8362 H   0  0  0  0  0  0  0  0  0  0  0  0
    7.1267   -1.7863   -0.8965 H   0  0  0  0  0  0  0  0  0  0  0  0
    6.0465   -1.5028   -2.2740 H   0  0  0  0  0  0  0  0  0  0  0  0
    6.7680    0.4533   -0.7104 H   0  0  0  0  0  0  0  0  0  0  0  0
    5.0547    0.2925   -1.2856 H   0  0  0  0  0  0  0  0  0  0  0  0
    6.1224   -1.0921    1.2019 H   0  0  0  0  0  0  0  0  0  0  0  0
    3.9981   -1.4378    1.8495 H   0  0  0  0  0  0  0  0  0  0  0  0
    3.3665   -1.5163   -1.0982 H   0  0  0  0  0  0  0  0  0  0  0  0
    5.8258    0.5732    2.6922 H   0  0  0  0  0  0  0  0  0  0  0  0
    6.5947    1.3908    1.3218 H   0  0  0  0  0  0  0  0  0  0  0  0
    4.1041    2.0272    2.6817 H   0  0  0  0  0  0  0  0  0  0  0  0
    3.5857    1.9042   -0.3004 H   0  0  0  0  0  0  0  0  0  0  0  0
    2.3281    0.0672    1.7739 H   0  0  0  0  0  0  0  0  0  0  0  0
    2.3247   -0.0516   -0.0317 H   0  0  0  0  0  0  0  0  0  0  0  0
    1.3280    1.6281   -0.5685 H   0  0  0  0  0  0  0  0  0  0  0  0
    2.6537    3.7975   -0.9554 H   0  0  0  0  0  0  0  0  0  0  0  0
    0.8829    4.3585   -2.5886 H   0  0  0  0  0  0  0  0  0  0  0  0
    0.8663    2.5416   -2.3231 H   0  0  0  0  0  0  0  0  0  0  0  0
   -1.3767    3.5063   -2.2689 H   0  0  0  0  0  0  0  0  0  0  0  0
   -0.8804    4.7534   -1.1165 H   0  0  0  0  0  0  0  0  0  0  0  0
   -1.9212    3.3530    0.3069 H   0  0  0  0  0  0  0  0  0  0  0  0
   -0.2645    1.6344    1.3311 H   0  0  0  0  0  0  0  0  0  0  0  0
   -0.0131    3.3782    1.5130 H   0  0  0  0  0  0  0  0  0  0  0  0
   -1.7017    1.3620   -1.8036 H   0  0  0  0  0  0  0  0  0  0  0  0
   -1.2034    0.6847   -0.2570 H   0  0  0  0  0  0  0  0  0  0  0  0
   -3.2264    2.0623    0.7090 H   0  0  0  0  0  0  0  0  0  0  0  0
   -6.3284    2.2423   -0.8966 H   0  0  0  0  0  0  0  0  0  0  0  0
   -5.8181    0.6404   -1.4141 H   0  0  0  0  0  0  0  0  0  0  0  0
   -5.1715    1.9196    1.3075 H   0  0  0  0  0  0  0  0  0  0  0  0
   -6.6565    0.8784    1.0539 H   0  0  0  0  0  0  0  0  0  0  0  0
   -4.8386   -0.2818    2.0936 H   0  0  0  0  0  0  0  0  0  0  0  0
   -2.7760   -0.0018    1.3138 H   0  0  0  0  0  0  0  0  0  0  0  0
   -6.3781   -1.6710    1.2416 H   0  0  0  0  0  0  0  0  0  0  0  0
   -6.3246   -1.0413   -0.4017 H   0  0  0  0  0  0  0  0  0  0  0  0
   -5.6036   -3.2713   -0.3165 H   0  0  0  0  0  0  0  0  0  0  0  0
   -3.3744   -3.0055   -1.3515 H   0  0  0  0  0  0  0  0  0  0  0  0
   -2.1958   -0.8501   -1.1614 H   0  0  0  0  0  0  0  0  0  0  0  0
   -0.7039   -1.6985   -0.7549 H   0  0  0  0  0  0  0  0  0  0  0  0
   -0.7832   -1.7581    2.2919 H   0  0  0  0  0  0  0  0  0  0  0  0
    0.1615   -0.7070    1.1230 H   0  0  0  0  0  0  0  0  0  0  0  0
    1.7715   -2.2136    2.2583 H   0  0  0  0  0  0  0  0  0  0  0  0
    0.6399   -3.5514    2.0503 H   0  0  0  0  0  0  0  0  0  0  0  0
    1.2747   -2.1020   -0.5575 H   0  0  0  0  0  0  0  0  0  0  0  0
    0.9662   -4.2398   -1.3714 H   0  0  0  0  0  0  0  0  0  0  0  0
    1.0311   -5.0078    0.2572 H   0  0  0  0  0  0  0  0  0  0  0  0
   -1.0711   -4.2796    0.8628 H   0  0  0  0  0  0  0  0  0  0  0  0
   -1.2674   -4.0580   -0.8948 H   0  0  0  0  0  0  0  0  0  0  0  0
    3.3366   -3.2548    1.3534 H   0  0  0  0  0  0  0  0  0  0  0  0
    3.3534   -4.0607   -0.2236 H   0  0  0  0  0  0  0  0  0  0  0  0
    5.2738    5.0644    1.9306 H   0  0  0  0  0  0  0  0  0  0  0  0
    3.7668    4.3067    2.4798 H   0  0  0  0  0  0  0  0  0  0  0  0
    5.3782    3.8341    3.2290 H   0  0  0  0  0  0  0  0  0  0  0  0
    1.0506    5.6157   -0.4405 H   0  0  0  0  0  0  0  0  0  0  0  0
   -5.5720   -4.2631    1.7997 H   0  0  0  0  0  0  0  0  0  0  0  0
   -3.9344   -4.5374    2.4168 H   0  0  0  0  0  0  0  0  0  0  0  0
   -4.2465   -4.9652    0.7126 H   0  0  0  0  0  0  0  0  0  0  0  0
   -4.1207   -1.8805   -3.0374 H   0  0  0  0  0  0  0  0  0  0  0  0
    3.8136   -3.3486   -2.0784 H   0  0  0  0  0  0  0  0  0  0  0  0
    5.0345   -4.4986   -1.2917 H   0  0  0  0  0  0  0  0  0  0  0  0
    5.5206   -3.3524   -2.5515 H   0  0  0  0  0  0  0  0  0  0  0  0
   -3.6000    3.8965   -1.4773 H   0  0  0  0  0  0  0  0  0  0  0  0
   -4.2985    3.6191    0.2225 H   0  0  0  0  0  0  0  0  0  0  0  0
   -5.3332    3.6988   -1.2059 H   0  0  0  0  0  0  0  0  0  0  0  0
   -4.9864    1.6159   -2.9405 H   0  0  0  0  0  0  0  0  0  0  0  0
   -3.4301    0.8215   -2.6960 H   0  0  0  0  0  0  0  0  0  0  0  0
   -3.5222    2.6497   -2.8917 H   0  0  0  0  0  0  0  0  0  0  0  0
    7.1010   -1.8269   -0.8501 H   0  0  0  0  0  0  0  0  0  0  0  0
    6.0328   -1.5440   -2.2645 H   0  0  0  0  0  0  0  0  0  0  0  0
    6.7980    0.4415   -0.6821 H   0  0  0  0  0  0  0  0  0  0  0  0
    5.0697    0.2917   -1.2968 H   0  0  0  0  0  0  0  0  0  0  0  0
    6.1152   -1.0676    1.2108 H   0  0  0  0  0  0  0  0  0  0  0  0
    3.9910   -1.4113    1.8660 H   0  0  0  0  0  0  0  0  0  0  0  0
    3.3851   -1.4903   -1.0615 H   0  0  0  0  0  0  0  0  0  0  0  0
    5.8478    0.6419    2.6557 H   0  0  0  0  0  0  0  0  0  0  0  0
    6.5725    1.4376    1.2493 H   0  0  0  0  0  0  0  0  0  0  0  0
    4.0584    2.0091    2.6614 H   0  0  0  0  0  0  0  0  0  0  0  0
    3.5856    1.9102   -0.3451 H   0  0  0  0  0  0  0  0  0  0  0  0
    2.3225    0.0874    1.7304 H   0  0  0  0  0  0  0  0  0  0  0  0
    2.3723   -0.0496   -0.1256 H   0  0  0  0  0  0  0  0  0  0  0  0
    1.2698    1.5859   -0.5736 H   0  0  0  0  0  0  0  0  0  0  0  0
    2.6402    3.5248   -1.1583 H   0  0  0  0  0  0  0  0  0  0  0  0
    0.8187    4.1877   -2.7439 H   0  0  0  0  0  0  0  0  0  0  0  0
    0.6865    2.4012   -2.2779 H   0  0  0  0  0  0  0  0  0  0  0  0
   -1.4329    3.6290   -2.2264 H   0  0  0  0  0  0  0  0  0  0  0  0
   -0.7552    4.7651   -1.0185 H   0  0  0  0  0  0  0  0  0  0  0  0
   -1.9357    3.3824    0.3126 H   0  0  0  0  0  0  0  0  0  0  0  0
   -0.2615    1.6477    1.2975 H   0  0  0  0  0  0  0  0  0  0  0  0
    0.0118    3.3925    1.5005 H   0  0  0  0  0  0  0  0  0  0  0  0
   -1.1988    0.7105   -0.2642 H   0  0  0  0  0  0  0  0  0  0  0  0
   -1.7343    1.4097   -1.7892 H   0  0  0  0  0  0  0  0  0  0  0  0
   -3.1923    2.0538    0.7745 H   0  0  0  0  0  0  0  0  0  0  0  0
   -6.3453    2.2532   -0.7953 H   0  0  0  0  0  0  0  0  0  0  0  0
   -5.8102    0.6616   -1.3644 H   0  0  0  0  0  0  0  0  0  0  0  0
   -5.1691    1.8620    1.3985 H   0  0  0  0  0  0  0  0  0  0  0  0
   -6.6709    0.8842    1.1160 H   0  0  0  0  0  0  0  0  0  0  0  0
   -4.8167   -0.3425    2.0962 H   0  0  0  0  0  0  0  0  0  0  0  0
   -2.7606   -0.0259    1.3257 H   0  0  0  0  0  0  0  0  0  0  0  0
   -6.3404   -1.7291    1.2206 H   0  0  0  0  0  0  0  0  0  0  0  0
   -6.3286   -1.0378   -0.3949 H   0  0  0  0  0  0  0  0  0  0  0  0
   -5.5837   -3.2531   -0.4405 H   0  0  0  0  0  0  0  0  0  0  0  0
   -3.3398   -2.9534   -1.4276 H   0  0  0  0  0  0  0  0  0  0  0  0
   -2.1667   -0.8310   -1.1729 H   0  0  0  0  0  0  0  0  0  0  0  0
   -0.6927   -1.7234   -0.7741 H   0  0  0  0  0  0  0  0  0  0  0  0
   -0.7982   -1.7296    2.2718 H   0  0  0  0  0  0  0  0  0  0  0  0
    0.1597   -0.6988    1.0980 H   0  0  0  0  0  0  0  0  0  0  0  0
    1.7587   -2.1819    2.2669 H   0  0  0  0  0  0  0  0  0  0  0  0
    0.6287   -3.5271    2.0743 H   0  0  0  0  0  0  0  0  0  0  0  0
    1.2879   -2.1075   -0.5485 H   0  0  0  0  0  0  0  0  0  0  0  0
    0.9734   -4.2518   -1.3370 H   0  0  0  0  0  0  0  0  0  0  0  0
    1.0519   -5.0074    0.2895 H   0  0  0  0  0  0  0  0  0  0  0  0
   -1.0905   -4.2781    0.8799 H   0  0  0  0  0  0  0  0  0  0  0  0
   -1.2503   -4.0855   -0.8750 H   0  0  0  0  0  0  0  0  0  0  0  0
    3.3300   -3.2361    1.3905 H   0  0  0  0  0  0  0  0  0  0  0  0
    3.3608   -4.0642   -0.1731 H   0  0  0  0  0  0  0  0  0  0  0  0
    5.1435    5.0993    2.0484 H   0  0  0  0  0  0  0  0  0  0  0  0
    3.6990    4.1982    2.5819 H   0  0  0  0  0  0  0  0  0  0  0  0
    5.2918    3.8028    3.2543 H   0  0  0  0  0  0  0  0  0  0  0  0
    1.1512    5.5620   -0.7312 H   0  0  0  0  0  0  0  0  0  0  0  0
   -5.5347   -4.4113    1.6350 H   0  0  0  0  0  0  0  0  0  0  0  0
   -3.8850   -4.5566    2.2744 H   0  0  0  0  0  0  0  0  0  0  0  0
   -4.1385   -5.0097    0.5788 H   0  0  0  0  0  0  0  0  0  0  0  0
   -4.0653   -1.8588   -3.0820 H   0  0  0  0  0  0  0  0  0  0  0  0
    3.8430   -3.3821   -2.0330 H   0  0  0  0  0  0  0  0  0  0  0  0
    5.0441   -4.5366   -1.2217 H   0  0  0  0  0  0  0  0  0  0  0  0
    5.5556   -3.4040   -2.4829 H   0  0  0  0  0  0  0  0  0  0  0  0
   -3.6142    3.9498   -1.3058 H   0  0  0  0  0  0  0  0  0  0  0  0
   -4.3195    3.6108    0.3789 H   0  0  0  0  0  0  0  0  0  0  0  0
   -5.3525    3.7458   -1.0503 H   0  0  0  0  0  0  0  0  0  0  0  0
   -5.0342    1.7699   -2.8489 H   0  0  0  0  0  0  0  0  0  0  0  0
   -3.4774    0.9460   -2.6978 H   0  0  0  0  0  0  0  0  0  0  0  0
   -3.5947    2.7808   -2.7987 H   0  0  0  0  0  0  0  0  0  0  0  0
    7.0852   -1.7924   -0.9659 H   0  0  0  0  0  0  0  0  0  0  0  0
    6.0169   -1.5238   -2.3854 H   0  0  0  0  0  0  0  0  0  0  0  0
    6.7173    0.5146   -0.8312 H   0  0  0  0  0  0  0  0  0  0  0  0
    5.0021    0.3039   -1.4016 H   0  0  0  0  0  0  0  0  0  0  0  0
    6.1406   -1.0353    1.0888 H   0  0  0  0  0  0  0  0  0  0  0  0
    4.0270   -1.3650    1.7865 H   0  0  0  0  0  0  0  0  0  0  0  0
    3.3339   -1.5049   -1.1231 H   0  0  0  0  0  0  0  0  0  0  0  0
    5.8333    0.6477    2.5687 H   0  0  0  0  0  0  0  0  0  0  0  0
    6.6409    1.4179    1.1926 H   0  0  0  0  0  0  0  0  0  0  0  0
    4.9778    2.9399    1.1676 H   0  0  0  0  0  0  0  0  0  0  0  0
    3.6275    1.9742   -0.3882 H   0  0  0  0  0  0  0  0  0  0  0  0
    2.3603    0.1311    1.6618 H   0  0  0  0  0  0  0  0  0  0  0  0
    2.3898   -0.0014   -0.1965 H   0  0  0  0  0  0  0  0  0  0  0  0
    1.2864    1.6479   -0.5975 H   0  0  0  0  0  0  0  0  0  0  0  0
    2.6448    3.7328   -1.0662 H   0  0  0  0  0  0  0  0  0  0  0  0
    0.8018    4.3024   -2.6941 H   0  0  0  0  0  0  0  0  0  0  0  0
    0.7491    2.5167   -2.2830 H   0  0  0  0  0  0  0  0  0  0  0  0
   -1.4442    3.6874   -2.2008 H   0  0  0  0  0  0  0  0  0  0  0  0
   -0.7931    4.8152   -0.9797 H   0  0  0  0  0  0  0  0  0  0  0  0
   -1.9349    3.3935    0.3456 H   0  0  0  0  0  0  0  0  0  0  0  0
   -0.2632    1.6537    1.2751 H   0  0  0  0  0  0  0  0  0  0  0  0
    0.0054    3.3944    1.5380 H   0  0  0  0  0  0  0  0  0  0  0  0
   -1.1828    0.7489   -0.2843 H   0  0  0  0  0  0  0  0  0  0  0  0
   -1.7214    1.4717   -1.7981 H   0  0  0  0  0  0  0  0  0  0  0  0
   -3.2015    2.0705    0.7619 H   0  0  0  0  0  0  0  0  0  0  0  0
   -6.3398    2.2159   -0.8278 H   0  0  0  0  0  0  0  0  0  0  0  0
   -5.7844    0.6380   -1.3872 H   0  0  0  0  0  0  0  0  0  0  0  0
   -5.1369    1.8510    1.3673 H   0  0  0  0  0  0  0  0  0  0  0  0
   -6.6536    0.8621    1.1229 H   0  0  0  0  0  0  0  0  0  0  0  0
   -4.7838   -0.3401    2.0864 H   0  0  0  0  0  0  0  0  0  0  0  0
   -2.7328    0.0007    1.3166 H   0  0  0  0  0  0  0  0  0  0  0  0
   -6.2891   -1.7476    1.2109 H   0  0  0  0  0  0  0  0  0  0  0  0
   -6.2890   -1.0621   -0.4086 H   0  0  0  0  0  0  0  0  0  0  0  0
   -5.5204   -3.2714   -0.4414 H   0  0  0  0  0  0  0  0  0  0  0  0
   -3.2710   -2.9425   -1.4308 H   0  0  0  0  0  0  0  0  0  0  0  0
   -2.1138   -0.8272   -1.1597 H   0  0  0  0  0  0  0  0  0  0  0  0
   -0.6468   -1.7467   -0.8023 H   0  0  0  0  0  0  0  0  0  0  0  0
   -0.7320   -1.6624    2.2497 H   0  0  0  0  0  0  0  0  0  0  0  0
    0.2158   -0.6765    1.0156 H   0  0  0  0  0  0  0  0  0  0  0  0
    1.7992   -2.1299    2.2362 H   0  0  0  0  0  0  0  0  0  0  0  0
    0.6980   -3.5070    2.0800 H   0  0  0  0  0  0  0  0  0  0  0  0
    1.3434   -2.0941   -0.5444 H   0  0  0  0  0  0  0  0  0  0  0  0
    0.9757   -4.2848   -1.3265 H   0  0  0  0  0  0  0  0  0  0  0  0
    1.0640   -5.0082    0.3177 H   0  0  0  0  0  0  0  0  0  0  0  0
   -1.0297   -4.2731    0.9084 H   0  0  0  0  0  0  0  0  0  0  0  0
   -1.2241   -4.0922   -0.8449 H   0  0  0  0  0  0  0  0  0  0  0  0
    3.3831   -3.1861    1.3517 H   0  0  0  0  0  0  0  0  0  0  0  0
    3.4130   -4.0448   -0.1955 H   0  0  0  0  0  0  0  0  0  0  0  0
    3.7483    4.2032    2.5084 H   0  0  0  0  0  0  0  0  0  0  0  0
    3.9514    3.6864    4.2399 H   0  0  0  0  0  0  0  0  0  0  0  0
    5.3763    3.7015    3.1595 H   0  0  0  0  0  0  0  0  0  0  0  0
    1.2039    5.6329   -0.6324 H   0  0  0  0  0  0  0  0  0  0  0  0
   -5.5299   -4.3853    1.5812 H   0  0  0  0  0  0  0  0  0  0  0  0
   -3.8967   -4.6755    2.2113 H   0  0  0  0  0  0  0  0  0  0  0  0
   -4.1813   -5.0385    0.4915 H   0  0  0  0  0  0  0  0  0  0  0  0
   -4.0167   -1.8631   -3.0865 H   0  0  0  0  0  0  0  0  0  0  0  0
    3.7739   -3.3480   -2.0772 H   0  0  0  0  0  0  0  0  0  0  0  0
    5.0527   -4.4636   -1.3321 H   0  0  0  0  0  0  0  0  0  0  0  0
    5.4569   -3.3261   -2.6270 H   0  0  0  0  0  0  0  0  0  0  0  0
   -3.6597    3.9593   -1.3549 H   0  0  0  0  0  0  0  0  0  0  0  0
   -4.3195    3.6160    0.3475 H   0  0  0  0  0  0  0  0  0  0  0  0
   -5.3849    3.7191   -1.0583 H   0  0  0  0  0  0  0  0  0  0  0  0
   -5.0114    1.7632   -2.8815 H   0  0  0  0  0  0  0  0  0  0  0  0
   -3.4450    0.9496   -2.7119 H   0  0  0  0  0  0  0  0  0  0  0  0
   -3.5721    2.7791   -2.8101 H   0  0  0  0  0  0  0  0  0  0  0  0
    6.9561   -2.1123   -0.8628 H   0  0  0  0  0  0  0  0  0  0  0  0
    5.9684   -2.3459   -2.3151 H   0  0  0  0  0  0  0  0  0  0  0  0
    6.5560    0.0616   -1.6143 H   0  0  0  0  0  0  0  0  0  0  0  0
    4.7864   -0.3204   -1.9176 H   0  0  0  0  0  0  0  0  0  0  0  0
    6.0970   -0.6911    0.8039 H   0  0  0  0  0  0  0  0  0  0  0  0
    3.9697   -0.8101    1.6178 H   0  0  0  0  0  0  0  0  0  0  0  0
    3.1821   -1.9681   -1.0395 H   0  0  0  0  0  0  0  0  0  0  0  0
    6.3015    1.5383    1.2600 H   0  0  0  0  0  0  0  0  0  0  0  0
    5.9094    1.8520   -0.4429 H   0  0  0  0  0  0  0  0  0  0  0  0
    4.0341    1.7815    1.8920 H   0  0  0  0  0  0  0  0  0  0  0  0
    3.7511    1.7304   -1.1669 H   0  0  0  0  0  0  0  0  0  0  0  0
    2.0836    0.1472    0.7817 H   0  0  0  0  0  0  0  0  0  0  0  0
    2.5246   -0.1379   -0.9970 H   0  0  0  0  0  0  0  0  0  0  0  0
    1.9358    2.6096    1.7677 H   0  0  0  0  0  0  0  0  0  0  0  0
    2.1046    4.8950    0.7426 H   0  0  0  0  0  0  0  0  0  0  0  0
    0.3067    5.4147   -1.0708 H   0  0  0  0  0  0  0  0  0  0  0  0
    1.6864    4.3736   -1.4891 H   0  0  0  0  0  0  0  0  0  0  0  0
    0.4036    2.4971   -1.9016 H   0  0  0  0  0  0  0  0  0  0  0  0
   -0.8794    3.7048   -2.0312 H   0  0  0  0  0  0  0  0  0  0  0  0
   -1.5984    3.4171    0.2132 H   0  0  0  0  0  0  0  0  0  0  0  0
   -0.0438    1.1969    1.0694 H   0  0  0  0  0  0  0  0  0  0  0  0
   -0.3516    2.7036    1.9478 H   0  0  0  0  0  0  0  0  0  0  0  0
   -1.0514    0.5786   -0.3698 H   0  0  0  0  0  0  0  0  0  0  0  0
   -1.5385    1.4023   -1.8474 H   0  0  0  0  0  0  0  0  0  0  0  0
   -3.0421    1.9984    0.6888 H   0  0  0  0  0  0  0  0  0  0  0  0
   -6.0667    2.3891   -0.9867 H   0  0  0  0  0  0  0  0  0  0  0  0
   -5.6549    0.7510   -1.5307 H   0  0  0  0  0  0  0  0  0  0  0  0
   -5.0115    1.9880    1.2127 H   0  0  0  0  0  0  0  0  0  0  0  0
   -6.5125    0.9902    0.9082 H   0  0  0  0  0  0  0  0  0  0  0  0
   -4.7716   -0.2357    2.0051 H   0  0  0  0  0  0  0  0  0  0  0  0
   -2.6842   -0.0908    1.2722 H   0  0  0  0  0  0  0  0  0  0  0  0
   -6.3626   -1.5533    1.1320 H   0  0  0  0  0  0  0  0  0  0  0  0
   -6.2698   -0.8889   -0.5001 H   0  0  0  0  0  0  0  0  0  0  0  0
   -5.6845   -3.1169   -0.5677 H   0  0  0  0  0  0  0  0  0  0  0  0
   -3.3948   -3.0230   -1.4438 H   0  0  0  0  0  0  0  0  0  0  0  0
   -2.0812   -0.9948   -1.1555 H   0  0  0  0  0  0  0  0  0  0  0  0
   -0.6100   -1.7238   -0.4252 H   0  0  0  0  0  0  0  0  0  0  0  0
   -1.1165   -2.5216    2.5071 H   0  0  0  0  0  0  0  0  0  0  0  0
   -0.4861   -0.9425    1.9850 H   0  0  0  0  0  0  0  0  0  0  0  0
    1.5407   -1.8483    2.4960 H   0  0  0  0  0  0  0  0  0  0  0  0
    0.8802   -3.5681    2.5349 H   0  0  0  0  0  0  0  0  0  0  0  0
    1.3187   -1.9612   -0.0644 H   0  0  0  0  0  0  0  0  0  0  0  0
    1.1286   -4.1616   -1.0599 H   0  0  0  0  0  0  0  0  0  0  0  0
    1.1671   -4.9556    0.5414 H   0  0  0  0  0  0  0  0  0  0  0  0
   -0.9438   -4.3600    1.0743 H   0  0  0  0  0  0  0  0  0  0  0  0
   -1.1745   -4.1599   -0.7355 H   0  0  0  0  0  0  0  0  0  0  0  0
    3.3388   -2.7102    1.8549 H   0  0  0  0  0  0  0  0  0  0  0  0
    3.2964   -4.0221    0.6596 H   0  0  0  0  0  0  0  0  0  0  0  0
    4.9085    5.1396    1.7459 H   0  0  0  0  0  0  0  0  0  0  0  0
    3.6902    4.0361    2.4809 H   0  0  0  0  0  0  0  0  0  0  0  0
    5.4209    3.6453    2.5833 H   0  0  0  0  0  0  0  0  0  0  0  0
   -0.1023    5.6422    1.1242 H   0  0  0  0  0  0  0  0  0  0  0  0
   -5.8021   -4.4012    1.4429 H   0  0  0  0  0  0  0  0  0  0  0  0
   -4.1908   -4.7063    2.1297 H   0  0  0  0  0  0  0  0  0  0  0  0
   -4.4426   -5.0881    0.3891 H   0  0  0  0  0  0  0  0  0  0  0  0
   -4.0460   -1.9345   -3.1298 H   0  0  0  0  0  0  0  0  0  0  0  0
    3.5427   -3.9667   -1.3649 H   0  0  0  0  0  0  0  0  0  0  0  0
    4.9530   -4.8334   -0.6965 H   0  0  0  0  0  0  0  0  0  0  0  0
    5.0885   -3.9117   -2.2284 H   0  0  0  0  0  0  0  0  0  0  0  0
   -3.2097    3.8498   -1.5060 H   0  0  0  0  0  0  0  0  0  0  0  0
   -3.9838    3.6138    0.1676 H   0  0  0  0  0  0  0  0  0  0  0  0
   -4.9593    3.7587   -1.2993 H   0  0  0  0  0  0  0  0  0  0  0  0
   -4.6500    1.8300   -3.0462 H   0  0  0  0  0  0  0  0  0  0  0  0
   -3.2188    0.8189   -2.7973 H   0  0  0  0  0  0  0  0  0  0  0  0
   -3.0946    2.6525   -2.8976 H   0  0  0  0  0  0  0  0  0  0  0  0
  1  2  1  0
  2  3  1  0
  3  4  1  0
  4  5  1  0
  1  6  1  0
  5  6  1  0
  4  7  1  0
  7  8  1  0
  8  9  1  0
  5 10  1  0
  9 10  1  0
  9 11  1  0
 11 12  1  0
 12 13  1  0
 13 14  1  0
 14 15  1  0
 15 16  1  0
 12 17  1  0
 16 17  1  0
 16 18  1  0
 18 19  1  0
 19 20  1  0
 20 21  1  0
 21 22  1  0
 22 23  1  0
 19 24  1  0
 23 24  1  0
 23 25  1  0
 25 26  1  0
 26 27  1  0
 24 28  1  0
 27 28  1  0
 28 29  1  0
 29 30  1  0
 30 31  1  0
 31 32  1  0
 32 33  1  0
 33 34  1  0
 30 35  1  0
 34 35  1  0
  6 36  1  0
 33 36  1  0
  8 37  1  0
 37 38  1  0
 13 39  1  0
 26 40  1  0
 40 41  1  0
 27 42  1  0
  1 43  1  0
 20 44  1  0
 20 45  1  0
 46 47  1  0
 47 48  1  0
 48 49  1  0
 49 50  1  0
 46 51  1  0
 50 51  1  0
 49 52  1  0
 52 53  1  0
 53 54  1  0
 50 55  1  0
 54 55  1  0
 54 56  1  0
 56 57  1  0
 57 58  1  0
 58 59  1  0
 59 60  1  0
 60 61  1  0
 57 62  1  0
 61 62  1  0
 61 63  1  0
 63 64  1  0
 64 65  1  0
 65 66  1  0
 66 67  1  0
 67 68  1  0
 64 69  1  0
 68 69  1  0
 68 70  1  0
 70 71  1  0
 71 72  1  0
 69 73  1  0
 72 73  1  0
 73 74  1  0
 74 75  1  0
 75 76  1  0
 76 77  1  0
 77 78  1  0
 78 79  1  0
 75 80  1  0
 79 80  1  0
 51 81  1  0
 78 81  1  0
 53 82  1  0
 82 83  1  0
 58 84  1  0
 71 85  1  0
 85 86  1  0
 72 87  1  0
 46 88  1  0
 65 89  1  0
 65 90  1  0
 91 92  1  0
 92 93  1  0
 93 94  1  0
 94 95  1  0
 91 96  1  0
 95 96  1  0
 94 97  1  0
 97 98  1  0
 98 99  1  0
 95100  1  0
 99100  1  0
 99101  1  0
101102  1  0
102103  1  0
103104  1  0
104105  1  0
105106  1  0
102107  1  0
106107  1  0
106108  1  0
108109  1  0
109110  1  0
110111  1  0
111112  1  0
112113  1  0
109114  1  0
113114  1  0
113115  1  0
115116  1  0
116117  1  0
114118  1  0
117118  1  0
118119  1  0
119120  1  0
120121  1  0
121122  1  0
122123  1  0
123124  1  0
120125  1  0
124125  1  0
 96126  1  0
123126  1  0
 98127  1  0
127128  1  0
103129  1  0
116130  1  0
130131  1  0
117132  1  0
 91133  1  0
110134  1  0
110135  1  0
136137  1  0
137138  1  0
138139  1  0
139140  1  0
136141  1  0
140141  1  0
139142  1  0
142143  1  0
143144  1  0
140145  1  0
144145  1  0
144146  1  0
146147  1  0
147148  1  0
148149  1  0
149150  1  0
150151  1  0
147152  1  0
151152  1  0
151153  1  0
153154  1  0
154155  1  0
155156  1  0
156157  1  0
157158  1  0
154159  1  0
158159  1  0
158160  1  0
160161  1  0
161162  1  0
159163  1  0
162163  1  0
163164  1  0
164165  1  0
165166  1  0
166167  1  0
167168  1  0
168169  1  0
165170  1  0
169170  1  0
141171  1  0
168171  1  0
143172  1  0
172173  1  0
148174  1  0
161175  1  0
175176  1  0
162177  1  0
136178  1  0
155179  1  0
155180  1  0
181182  1  0
182183  1  0
183184  1  0
184185  1  0
181186  1  0
185186  1  0
184187  1  0
187188  1  0
188189  1  0
185190  1  0
189190  1  0
189191  1  0
191192  1  0
192193  1  0
193194  1  0
194195  1  0
195196  1  0
192197  1  0
196197  1  0
196198  1  0
198199  1  0
199200  1  0
200201  1  0
201202  1  0
202203  1  0
199204  1  0
203204  1  0
203205  1  0
205206  1  0
206207  1  0
204208  1  0
207208  1  0
208209  1  0
209210  1  0
210211  1  0
211212  1  0
212213  1  0
213214  1  0
210215  1  0
214215  1  0
186216  1  0
213216  1  0
188217  1  0
217218  1  0
193219  1  0
206220  1  0
220221  1  0
207222  1  0
181223  1  0
200224  1  0
200225  1  0
  2226  1  0
  2227  1  0
  3228  1  0
  3229  1  0
  4230  1  0
  5231  1  0
  6232  1  6
  7233  1  0
  7234  1  0
  8235  1  0
  9236  1  6
 10237  1  0
 10238  1  0
 12239  1  6
 13240  1  0
 14241  1  0
 14242  1  0
 15243  1  0
 15244  1  0
 16245  1  1
 17246  1  0
 17247  1  0
 18248  1  0
 18249  1  0
 19250  1  1
 21251  1  0
 21252  1  0
 22253  1  0
 22254  1  0
 23255  1  0
 24256  1  1
 25257  1  0
 25258  1  0
 26259  1  0
 27260  1  6
 28261  1  6
 30262  1  0
 31263  1  0
 31264  1  0
 32265  1  0
 32266  1  0
 33267  1  0
 34268  1  0
 34269  1  0
 35270  1  0
 35271  1  0
 36272  1  0
 36273  1  0
 38274  1  0
 38275  1  0
 38276  1  0
 39277  1  0
 41278  1  0
 41279  1  0
 41280  1  0
 42281  1  0
 43282  1  0
 43283  1  0
 43284  1  0
 44285  1  0
 44286  1  0
 44287  1  0
 45288  1  0
 45289  1  0
 45290  1  0
 47291  1  0
 47292  1  0
 48293  1  0
 48294  1  0
 49295  1  0
 50296  1  1
 51297  1  6
 52298  1  0
 52299  1  0
 53300  1  0
 54301  1  0
 55302  1  0
 55303  1  0
 57304  1  0
 58305  1  0
 59306  1  0
 59307  1  0
 60308  1  0
 60309  1  0
 61310  1  0
 62311  1  0
 62312  1  0
 63313  1  0
 63314  1  0
 64315  1  1
 66316  1  0
 66317  1  0
 67318  1  0
 67319  1  0
 68320  1  0
 69321  1  1
 70322  1  0
 70323  1  0
 71324  1  0
 72325  1  0
 73326  1  6
 75327  1  0
 76328  1  0
 76329  1  0
 77330  1  0
 77331  1  0
 78332  1  0
 79333  1  0
 79334  1  0
 80335  1  0
 80336  1  0
 81337  1  0
 81338  1  0
 83339  1  0
 83340  1  0
 83341  1  0
 84342  1  0
 86343  1  0
 86344  1  0
 86345  1  0
 87346  1  0
 88347  1  0
 88348  1  0
 88349  1  0
 89350  1  0
 89351  1  0
 89352  1  0
 90353  1  0
 90354  1  0
 90355  1  0
 92356  1  0
 92357  1  0
 93358  1  0
 93359  1  0
 94360  1  0
 95361  1  0
 96362  1  6
 97363  1  0
 97364  1  0
 98365  1  0
 99366  1  0
100367  1  0
100368  1  0
102369  1  0
103370  1  0
104371  1  0
104372  1  0
105373  1  0
105374  1  0
106375  1  1
107376  1  0
107377  1  0
108378  1  0
108379  1  0
109380  1  1
111381  1  0
111382  1  0
112383  1  0
112384  1  0
113385  1  0
114386  1  1
115387  1  0
115388  1  0
116389  1  0
117390  1  0
118391  1  6
120392  1  0
121393  1  0
121394  1  0
122395  1  0
122396  1  0
123397  1  0
124398  1  0
124399  1  0
125400  1  0
125401  1  0
126402  1  0
126403  1  0
128404  1  0
128405  1  0
128406  1  0
129407  1  0
131408  1  0
131409  1  0
131410  1  0
132411  1  0
133412  1  0
133413  1  0
133414  1  0
134415  1  0
134416  1  0
134417  1  0
135418  1  0
135419  1  0
135420  1  0
137421  1  0
137422  1  0
138423  1  0
138424  1  0
139425  1  0
140426  1  0
141427  1  6
142428  1  0
142429  1  0
143430  1  6
144431  1  6
145432  1  0
145433  1  0
147434  1  6
148435  1  0
149436  1  0
149437  1  0
150438  1  0
150439  1  0
151440  1  0
152441  1  0
152442  1  0
153443  1  0
153444  1  0
154445  1  1
156446  1  0
156447  1  0
157448  1  0
157449  1  0
158450  1  0
159451  1  1
160452  1  0
160453  1  0
161454  1  0
162455  1  0
163456  1  6
165457  1  0
166458  1  0
166459  1  0
167460  1  0
167461  1  0
168462  1  0
169463  1  0
169464  1  0
170465  1  0
170466  1  0
171467  1  0
171468  1  0
173469  1  0
173470  1  0
173471  1  0
174472  1  0
176473  1  0
176474  1  0
176475  1  0
177476  1  0
178477  1  0
178478  1  0
178479  1  0
179480  1  0
179481  1  0
179482  1  0
180483  1  0
180484  1  0
180485  1  0
182486  1  0
182487  1  0
183488  1  0
183489  1  0
184490  1  0
185491  1  0
186492  1  6
187493  1  0
187494  1  0
188495  1  0
189496  1  6
190497  1  0
190498  1  0
192499  1  0
193500  1  0
194501  1  0
194502  1  0
195503  1  0
195504  1  0
196505  1  0
197506  1  0
197507  1  0
198508  1  0
198509  1  0
199510  1  1
201511  1  0
201512  1  0
202513  1  0
202514  1  0
203515  1  0
204516  1  0
205517  1  0
205518  1  0
206519  1  0
207520  1  0
208521  1  6
210522  1  0
211523  1  0
211524  1  0
212525  1  0
212526  1  0
213527  1  0
214528  1  0
214529  1  0
215530  1  0
215531  1  0
216532  1  0
216533  1  0
218534  1  0
218535  1  0
218536  1  0
219537  1  0
221538  1  0
221539  1  0
221540  1  0
222541  1  0
223542  1  0
223543  1  0
223544  1  0
224545  1  0
224546  1  0
224547  1  0
225548  1  0
225549  1  0
225550  1  0
M  CHG  5  20   1  65   1 110   1 155   1 200   1
M  END
>  <PDBID>  (1) 
2XYT

>  <PDB ID>  (1) 
2XYT

>  <Generic Name>  (1) 
Tubocurarine

>  <Brand Name>  (1) 
Tubocurarine Chloride Inj 3mg/ml#Tubocurarine Chloride Inj 3mg/ml USP#Tubarine

>  <DrugBank ID>  (1) 
DB01199

>  <ATC Codes>  (1) 
M03AA02

>  <Ligand ID>  (1) 
TC9,TUB

>  <Target Name>  (1) 
Neuronal acetylcholine receptor subunit alpha-2

>  <UniProt ID>  (1) 
Q15822

>  <PDB ID.1>  (1) 
2XYT

>  <Seq. Identity>  (1) 
31%

$$$$
