PDB_DB08912_02
     RDKit          3D

316328  0  0  0  0  0  0  0  0999 V2000
   -3.6619    1.5766   -2.8247 C   0  0  0  0  0  0  0  0  0  0  0  0
   -3.3058    1.2898   -0.4978 C   0  0  2  0  0  0  0  0  0  0  0  0
   -3.1867    0.7429   -1.7780 N   0  0  0  0  0  0  0  0  0  0  0  0
   -2.7955    2.7004   -0.4800 C   0  0  0  0  0  0  0  0  0  0  0  0
   -2.7982    2.7348   -2.9298 N   0  0  0  0  0  0  0  0  0  0  0  0
   -1.9757    2.8984   -1.7424 C   0  0  0  0  0  0  0  0  0  0  0  0
   -4.9979    2.0413   -2.5013 N   0  0  0  0  0  0  0  0  0  0  0  0
   -3.0884    0.4920    0.6889 C   0  0  0  0  0  0  0  0  0  0  0  0
   -4.5466   -0.7157    0.6654 S   0  0  0  0  0  0  0  0  0  0  0  0
   -3.6377   -1.8792   -0.3960 C   0  0  1  0  0  0  0  0  0  0  0  0
   -2.2557   -1.5224   -0.2692 N   0  0  0  0  0  0  0  0  0  0  0  0
   -2.0968   -0.5819    0.8259 C   0  0  0  0  0  0  0  0  0  0  0  0
   -3.9544   -3.3010   -0.0759 C   0  0  0  0  0  0  0  0  0  0  0  0
   -3.6001   -3.6555    1.3628 C   0  0  0  0  0  0  0  0  0  0  0  0
   -5.4811   -3.4478   -0.1547 C   0  0  0  0  0  0  0  0  0  0  0  0
   -3.3729   -4.2713   -1.0565 C   0  0  0  0  0  0  0  0  0  0  0  0
   -0.7035   -0.3282    1.2021 C   0  0  2  0  0  0  0  0  0  0  0  0
    1.6577    0.0728    0.3193 C   0  0  2  0  0  0  0  0  0  0  0  0
    0.2002    0.4094    0.3167 C   0  0  0  0  0  0  0  0  0  0  0  0
    2.0892   -1.1932    0.9277 C   0  0  0  0  0  0  0  0  0  0  0  0
   -0.0948   -1.6402    1.7264 C   0  0  0  0  0  0  0  0  0  0  0  0
    1.3141   -1.3911    2.2241 C   0  0  0  0  0  0  0  0  0  0  0  0
    0.2126    1.7986    0.5401 F   0  0  0  0  0  0  0  0  0  0  0  0
    2.4869    1.1288    0.8765 N   0  0  0  0  0  0  0  0  0  0  0  0
    3.9450    1.1570    1.0355 S   0  0  0  0  0  0  0  0  0  0  0  0
    4.8394    2.3014   -0.0338 C   0  0  0  0  0  0  0  0  0  0  0  0
    4.9540    0.4741   -1.7457 C   0  0  0  0  0  0  0  0  0  0  0  0
    4.5819    1.9054   -1.4450 C   0  0  0  0  0  0  0  0  0  0  0  0
    6.4056    0.2414   -1.3966 C   0  0  0  0  0  0  0  0  0  0  0  0
    6.3217    2.1473    0.2517 C   0  0  0  0  0  0  0  0  0  0  0  0
    7.0674    1.4663   -0.8480 C   0  0  0  0  0  0  0  0  0  0  0  0
    6.8557    3.3922    0.4510 F   0  0  0  0  0  0  0  0  0  0  0  0
    3.2819    2.1371   -1.8210 F   0  0  0  0  0  0  0  0  0  0  0  0
    4.9284    0.1979    1.6289 O   0  0  0  0  0  0  0  0  0  0  0  0
    4.0061    2.4640    2.5112 O   0  0  0  0  0  0  0  0  0  0  0  0
   -5.5170    2.6530   -0.6438 C   0  0  0  0  0  0  0  0  0  0  0  0
   -4.0549    1.4173    0.6919 C   0  0  0  0  0  0  0  0  0  0  0  0
   -4.4266    1.7025   -0.6602 N   0  0  0  0  0  0  0  0  0  0  0  0
   -3.5261    2.6416    1.3538 C   0  0  0  0  0  0  0  0  0  0  0  0
   -5.8106    3.1833    0.6594 N   0  0  0  0  0  0  0  0  0  0  0  0
   -4.6776    3.6498    1.3982 C   0  0  0  0  0  0  0  0  0  0  0  0
   -6.7280    1.9428   -1.0747 N   0  0  0  0  0  0  0  0  0  0  0  0
   -3.1825    0.1895    0.8407 C   0  0  0  0  0  0  0  0  0  0  0  0
   -4.2248   -1.1741    0.1576 S   0  0  0  0  0  0  0  0  0  0  0  0
   -3.0869   -1.5905   -1.2305 C   0  0  1  0  0  0  0  0  0  0  0  0
   -1.8334   -1.2257   -0.5458 N   0  0  0  0  0  0  0  0  0  0  0  0
   -2.0243    0.1346   -0.0917 C   0  0  2  0  0  0  0  0  0  0  0  0
   -3.1792   -3.0607   -1.4460 C   0  0  0  0  0  0  0  0  0  0  0  0
   -2.7671   -3.7917   -0.1867 C   0  0  0  0  0  0  0  0  0  0  0  0
   -4.6520   -3.4112   -1.6758 C   0  0  0  0  0  0  0  0  0  0  0  0
   -2.3785   -3.5568   -2.6103 C   0  0  0  0  0  0  0  0  0  0  0  0
   -0.7194    0.6185    0.4761 C   0  0  2  0  0  0  0  0  0  0  0  0
    1.7194    0.8758    0.0726 C   0  0  0  0  0  0  0  0  0  0  0  0
    0.3818    0.5152   -0.5553 C   0  0  0  0  0  0  0  0  0  0  0  0
    1.9363   -0.1821    1.1586 C   0  0  0  0  0  0  0  0  0  0  0  0
   -0.4120   -0.0410    1.7742 C   0  0  0  0  0  0  0  0  0  0  0  0
    0.9923    0.2130    2.2755 C   0  0  0  0  0  0  0  0  0  0  0  0
    0.1517    1.4412   -1.5549 F   0  0  0  0  0  0  0  0  0  0  0  0
    2.7515    0.9204   -0.9028 N   0  0  0  0  0  0  0  0  0  0  0  0
    4.1696    1.3738   -0.4929 S   0  0  0  0  0  0  0  0  0  0  0  0
    5.4652    0.3883   -0.8904 C   0  0  0  0  0  0  0  0  0  0  0  0
    6.5423   -1.8476   -0.7404 C   0  0  0  0  0  0  0  0  0  0  0  0
    5.4003   -0.9620   -0.2531 C   0  0  0  0  0  0  0  0  0  0  0  0
    7.8186   -1.1851   -0.2198 C   0  0  0  0  0  0  0  0  0  0  0  0
    6.7891    1.0763   -0.5506 C   0  0  0  0  0  0  0  0  0  0  0  0
    7.9521    0.1400   -0.8939 C   0  0  0  0  0  0  0  0  0  0  0  0
    6.9313    2.1907   -1.3542 F   0  0  0  0  0  0  0  0  0  0  0  0
    5.5720   -0.8515    1.1155 F   0  0  0  0  0  0  0  0  0  0  0  0
    4.3070    1.5976    1.2146 O   0  0  0  0  0  0  0  0  0  0  0  0
    4.5823    2.8996   -1.0790 O   0  0  0  0  0  0  0  0  0  0  0  0
   -4.7038    3.2474   -0.5565 C   0  0  0  0  0  0  0  0  0  0  0  0
   -3.0743    1.5253   -0.2624 C   0  0  2  0  0  0  0  0  0  0  0  0
   -4.2429    1.9591   -1.0669 N   0  0  0  0  0  0  0  0  0  0  0  0
   -1.9294    2.3569   -0.7686 C   0  0  0  0  0  0  0  0  0  0  0  0
   -3.6032    3.9909    0.0133 N   0  0  0  0  0  0  0  0  0  0  0  0
   -2.3749    3.8213   -0.6862 C   0  0  0  0  0  0  0  0  0  0  0  0
   -5.6348    2.9562    0.5208 N   0  0  0  0  0  0  0  0  0  0  0  0
   -2.9354    0.0920   -0.1949 C   0  0  1  0  0  0  0  0  0  0  0  0
   -2.6661   -0.7938   -1.7605 S   0  0  0  0  0  0  0  0  0  0  0  0
   -2.4478   -2.4023   -0.8893 C   0  0  0  0  0  0  0  0  0  0  0  0
   -2.4315   -2.0505    0.4791 N   0  0  0  0  0  0  0  0  0  0  0  0
   -2.0337   -0.6432    0.6597 C   0  0  0  0  0  0  0  0  0  0  0  0
   -3.6595   -3.2653   -1.2552 C   0  0  0  0  0  0  0  0  0  0  0  0
   -3.5459   -4.6310   -0.5632 C   0  0  0  0  0  0  0  0  0  0  0  0
   -3.7060   -3.5446   -2.7298 C   0  0  0  0  0  0  0  0  0  0  0  0
   -4.9547   -2.6709   -0.7586 C   0  0  0  0  0  0  0  0  0  0  0  0
   -0.5995   -0.4660    0.7419 C   0  0  2  0  0  0  0  0  0  0  0  0
    1.7650   -0.4291    0.0037 C   0  0  2  0  0  0  0  0  0  0  0  0
    0.2982   -0.6620   -0.3927 C   0  0  0  0  0  0  0  0  0  0  0  0
    2.1673   -1.3034    1.1449 C   0  0  0  0  0  0  0  0  0  0  0  0
   -0.1353   -1.4730    1.8308 C   0  0  0  0  0  0  0  0  0  0  0  0
    1.2375   -0.9675    2.3025 C   0  0  0  0  0  0  0  0  0  0  0  0
    0.1086    0.0636   -1.5201 F   0  0  0  0  0  0  0  0  0  0  0  0
    2.1219    0.9106    0.2330 N   0  0  0  0  0  0  0  0  0  0  0  0
    3.5853    1.2253    0.6394 S   0  0  0  0  0  0  0  0  0  0  0  0
    4.6502    1.7644   -0.5931 C   0  0  0  0  0  0  0  0  0  0  0  0
    5.4379   -0.5501   -1.1103 C   0  0  0  0  0  0  0  0  0  0  0  0
    4.9623    0.7723   -1.6533 C   0  0  0  0  0  0  0  0  0  0  0  0
    6.6845   -0.2771   -0.3005 C   0  0  0  0  0  0  0  0  0  0  0  0
    5.9866    2.1145    0.0801 C   0  0  0  0  0  0  0  0  0  0  0  0
    7.0805    1.1718   -0.3024 C   0  0  0  0  0  0  0  0  0  0  0  0
    6.4028    3.3922   -0.2503 F   0  0  0  0  0  0  0  0  0  0  0  0
    3.9939    0.5572   -2.5769 F   0  0  0  0  0  0  0  0  0  0  0  0
    4.2933    0.8254    1.8732 O   0  0  0  0  0  0  0  0  0  0  0  0
    3.1996    3.0844    1.2083 O   0  0  0  0  0  0  0  0  0  0  0  0
   -4.7775    3.1493   -0.9004 C   0  0  0  0  0  0  0  0  0  0  0  0
   -3.6109    1.6656    0.4584 C   0  0  2  0  0  0  0  0  0  0  0  0
   -3.8781    2.0140   -0.9147 N   0  0  0  0  0  0  0  0  0  0  0  0
   -2.7698    2.7625    1.0416 C   0  0  0  0  0  0  0  0  0  0  0  0
   -4.9226    3.7406    0.3930 N   0  0  0  0  0  0  0  0  0  0  0  0
   -3.7034    3.9836    1.1061 C   0  0  0  0  0  0  0  0  0  0  0  0
   -6.0945    2.6443   -1.2863 N   0  0  0  0  0  0  0  0  0  0  0  0
   -3.0872    0.2797    0.6548 C   0  0  1  0  0  0  0  0  0  0  0  0
   -4.4080   -0.8253   -0.0143 S   0  0  0  0  0  0  0  0  0  0  0  0
   -3.3378   -1.6513   -1.2672 C   0  0  1  0  0  0  0  0  0  0  0  0
   -2.0755   -1.5353   -0.5128 N   0  0  0  0  0  0  0  0  0  0  0  0
   -1.9516   -0.1048   -0.2321 C   0  0  2  0  0  0  0  0  0  0  0  0
   -3.6981   -3.0925   -1.3961 C   0  0  0  0  0  0  0  0  0  0  0  0
   -3.5110   -3.7687   -0.0699 C   0  0  0  0  0  0  0  0  0  0  0  0
   -5.1681   -3.2053   -1.7595 C   0  0  0  0  0  0  0  0  0  0  0  0
   -2.8805   -3.7029   -2.4921 C   0  0  0  0  0  0  0  0  0  0  0  0
   -0.5819    0.1270    0.3536 C   0  0  2  0  0  0  0  0  0  0  0  0
    1.7690   -0.6405   -0.1534 C   0  0  2  0  0  0  0  0  0  0  0  0
    0.4292   -0.3067   -0.6574 C   0  0  0  0  0  0  0  0  0  0  0  0
    1.7110   -1.4273    1.1228 C   0  0  0  0  0  0  0  0  0  0  0  0
   -0.4463   -0.5502    1.6872 C   0  0  0  0  0  0  0  0  0  0  0  0
    1.0224   -0.5430    2.1447 C   0  0  0  0  0  0  0  0  0  0  0  0
    0.5357    0.7085   -1.6035 F   0  0  0  0  0  0  0  0  0  0  0  0
    2.6585    0.4871    0.0269 N   0  0  0  0  0  0  0  0  0  0  0  0
    4.1560   -0.1202    0.5918 S   0  0  0  0  0  0  0  0  0  0  0  0
    5.3215    1.1436    0.4060 C   0  0  0  0  0  0  0  0  0  0  0  0
    7.4217   -0.2034    0.0961 C   0  0  0  0  0  0  0  0  0  0  0  0
    6.6676    0.7724    0.9673 C   0  0  0  0  0  0  0  0  0  0  0  0
    7.6798    0.4525   -1.2389 C   0  0  0  0  0  0  0  0  0  0  0  0
    5.4876    1.6277   -0.9954 C   0  0  2  0  0  0  0  0  0  0  0  0
    6.3172    0.7065   -1.8638 C   0  0  0  0  0  0  0  0  0  0  0  0
    6.1771    2.8387   -0.9552 F   0  0  0  0  0  0  0  0  0  0  0  0
    7.4273    1.9333    1.0467 F   0  0  0  0  0  0  0  0  0  0  0  0
    3.9752   -0.1270    2.3352 O   0  0  0  0  0  0  0  0  0  0  0  0
    4.5871   -1.4159    0.1021 O   0  0  0  0  0  0  0  0  0  0  0  0
   -3.7107    1.0144   -3.7783 H   0  0  0  0  0  0  0  0  0  0  0  0
   -4.4652    1.5086   -0.4505 H   0  0  0  0  0  0  0  0  0  0  0  0
   -2.3882    0.1427   -1.9986 H   0  0  0  0  0  0  0  0  0  0  0  0
   -3.6042    3.4776   -0.4259 H   0  0  0  0  0  0  0  0  0  0  0  0
   -2.1319    2.8369    0.3858 H   0  0  0  0  0  0  0  0  0  0  0  0
   -3.3820    3.5914   -3.0792 H   0  0  0  0  0  0  0  0  0  0  0  0
   -1.6364    3.9543   -1.7395 H   0  0  0  0  0  0  0  0  0  0  0  0
   -1.0832    2.2634   -1.7670 H   0  0  0  0  0  0  0  0  0  0  0  0
   -5.7318    1.6258   -3.1042 H   0  0  0  0  0  0  0  0  0  0  0  0
   -5.0663    3.0547   -2.3388 H   0  0  0  0  0  0  0  0  0  0  0  0
   -3.2068    1.0468    1.6136 H   0  0  0  0  0  0  0  0  0  0  0  0
   -3.9507   -1.6665   -1.4384 H   0  0  0  0  0  0  0  0  0  0  0  0
   -1.7167   -2.3800   -0.0316 H   0  0  0  0  0  0  0  0  0  0  0  0
   -2.5171   -1.1982    1.7024 H   0  0  0  0  0  0  0  0  0  0  0  0
   -3.9286   -4.6581    1.6361 H   0  0  0  0  0  0  0  0  0  0  0  0
   -4.1346   -2.9392    2.0262 H   0  0  0  0  0  0  0  0  0  0  0  0
   -2.4989   -3.6299    1.5183 H   0  0  0  0  0  0  0  0  0  0  0  0
   -5.8175   -2.9956   -1.1110 H   0  0  0  0  0  0  0  0  0  0  0  0
   -5.7376   -4.5190   -0.1811 H   0  0  0  0  0  0  0  0  0  0  0  0
   -5.9593   -2.9149    0.7102 H   0  0  0  0  0  0  0  0  0  0  0  0
   -4.0729   -5.1385   -1.1670 H   0  0  0  0  0  0  0  0  0  0  0  0
   -3.3348   -3.7488   -2.0576 H   0  0  0  0  0  0  0  0  0  0  0  0
   -2.3794   -4.6352   -0.7535 H   0  0  0  0  0  0  0  0  0  0  0  0
   -0.7579    0.2937    2.1737 H   0  0  0  0  0  0  0  0  0  0  0  0
    1.9727    0.0274   -0.7682 H   0  0  0  0  0  0  0  0  0  0  0  0
   -0.2232    0.3178   -0.7292 H   0  0  0  0  0  0  0  0  0  0  0  0
    1.7990   -2.0318    0.2603 H   0  0  0  0  0  0  0  0  0  0  0  0
    3.1619   -1.2034    1.0972 H   0  0  0  0  0  0  0  0  0  0  0  0
    0.0073   -2.3049    0.8498 H   0  0  0  0  0  0  0  0  0  0  0  0
   -0.7361   -2.1099    2.4671 H   0  0  0  0  0  0  0  0  0  0  0  0
    1.6542   -2.2881    2.7404 H   0  0  0  0  0  0  0  0  0  0  0  0
    1.2762   -0.4770    2.8349 H   0  0  0  0  0  0  0  0  0  0  0  0
    1.8216    1.7058    1.4807 H   0  0  0  0  0  0  0  0  0  0  0  0
    4.4959    3.3272    0.1263 H   0  0  0  0  0  0  0  0  0  0  0  0
    4.2967   -0.2671   -1.2636 H   0  0  0  0  0  0  0  0  0  0  0  0
    4.8064    0.3362   -2.8539 H   0  0  0  0  0  0  0  0  0  0  0  0
    5.2691    2.5321   -2.0888 H   0  0  0  0  0  0  0  0  0  0  0  0
    6.9690   -0.0601   -2.3055 H   0  0  0  0  0  0  0  0  0  0  0  0
    6.4587   -0.5825   -0.6569 H   0  0  0  0  0  0  0  0  0  0  0  0
    6.4677    1.5836    1.2087 H   0  0  0  0  0  0  0  0  0  0  0  0
    7.3064    2.1591   -1.6892 H   0  0  0  0  0  0  0  0  0  0  0  0
    8.0595    1.1542   -0.4235 H   0  0  0  0  0  0  0  0  0  0  0  0
    5.0428    0.1495    2.6119 H   0  0  0  0  0  0  0  0  0  0  0  0
    3.7129    1.8031    3.1764 H   0  0  0  0  0  0  0  0  0  0  0  0
   -5.3428    3.4835   -1.3813 H   0  0  0  0  0  0  0  0  0  0  0  0
   -5.0128    1.1483    1.2306 H   0  0  0  0  0  0  0  0  0  0  0  0
   -4.7181    0.8717   -1.2098 H   0  0  0  0  0  0  0  0  0  0  0  0
   -3.0701    2.4784    2.3285 H   0  0  0  0  0  0  0  0  0  0  0  0
   -2.7795    3.0974    0.6432 H   0  0  0  0  0  0  0  0  0  0  0  0
   -6.4527    2.5840    1.2126 H   0  0  0  0  0  0  0  0  0  0  0  0
   -4.3790    4.6288    0.9714 H   0  0  0  0  0  0  0  0  0  0  0  0
   -5.0134    3.8087    2.4485 H   0  0  0  0  0  0  0  0  0  0  0  0
   -6.7067    1.7594   -2.1054 H   0  0  0  0  0  0  0  0  0  0  0  0
   -7.5951    2.4528   -0.7795 H   0  0  0  0  0  0  0  0  0  0  0  0
   -2.9823    0.0339    1.8936 H   0  0  0  0  0  0  0  0  0  0  0  0
   -3.2775   -0.9792   -2.1064 H   0  0  0  0  0  0  0  0  0  0  0  0
   -1.8681   -1.8320    0.3299 H   0  0  0  0  0  0  0  0  0  0  0  0
   -2.2227    0.7684   -1.0039 H   0  0  0  0  0  0  0  0  0  0  0  0
   -3.2427   -4.8090   -0.2526 H   0  0  0  0  0  0  0  0  0  0  0  0
   -3.2470   -3.2943    0.6787 H   0  0  0  0  0  0  0  0  0  0  0  0
   -1.6658   -3.8555   -0.0763 H   0  0  0  0  0  0  0  0  0  0  0  0
   -4.8813   -3.2776   -2.7319 H   0  0  0  0  0  0  0  0  0  0  0  0
   -4.8270   -4.4543   -1.3094 H   0  0  0  0  0  0  0  0  0  0  0  0
   -5.2306   -2.7028   -1.0426 H   0  0  0  0  0  0  0  0  0  0  0  0
   -1.5206   -4.1494   -2.2402 H   0  0  0  0  0  0  0  0  0  0  0  0
   -2.9843   -4.2595   -3.2325 H   0  0  0  0  0  0  0  0  0  0  0  0
   -2.0627   -2.7297   -3.2848 H   0  0  0  0  0  0  0  0  0  0  0  0
   -0.8377    1.7151    0.6986 H   0  0  0  0  0  0  0  0  0  0  0  0
    1.6146    1.8513    0.5860 H   0  0  0  0  0  0  0  0  0  0  0  0
    0.4435   -0.4745   -1.0262 H   0  0  0  0  0  0  0  0  0  0  0  0
    1.5372   -1.1696    0.7779 H   0  0  0  0  0  0  0  0  0  0  0  0
    2.9820   -0.2660    1.4717 H   0  0  0  0  0  0  0  0  0  0  0  0
   -0.4934   -1.1395    1.6460 H   0  0  0  0  0  0  0  0  0  0  0  0
   -1.1065    0.3630    2.5456 H   0  0  0  0  0  0  0  0  0  0  0  0
    1.1644   -0.5101    3.1078 H   0  0  0  0  0  0  0  0  0  0  0  0
    1.1402    1.2593    2.5926 H   0  0  0  0  0  0  0  0  0  0  0  0
    2.6054    0.2026   -1.6580 H   0  0  0  0  0  0  0  0  0  0  0  0
    5.5181    0.2444   -2.0044 H   0  0  0  0  0  0  0  0  0  0  0  0
    6.4140   -2.8444   -0.3100 H   0  0  0  0  0  0  0  0  0  0  0  0
    6.5604   -1.9141   -1.8477 H   0  0  0  0  0  0  0  0  0  0  0  0
    4.4617   -1.4613   -0.5492 H   0  0  0  0  0  0  0  0  0  0  0  0
    8.7139   -1.7770   -0.4380 H   0  0  0  0  0  0  0  0  0  0  0  0
    7.7206   -1.1105    0.8816 H   0  0  0  0  0  0  0  0  0  0  0  0
    6.8722    1.2992    0.5220 H   0  0  0  0  0  0  0  0  0  0  0  0
    7.9821   -0.0422   -1.9911 H   0  0  0  0  0  0  0  0  0  0  0  0
    8.8706    0.6770   -0.6154 H   0  0  0  0  0  0  0  0  0  0  0  0
    3.4970    2.0802    1.4880 H   0  0  0  0  0  0  0  0  0  0  0  0
    5.1607    3.3602   -0.4175 H   0  0  0  0  0  0  0  0  0  0  0  0
   -5.2446    3.8226   -1.3290 H   0  0  0  0  0  0  0  0  0  0  0  0
   -3.2989    1.9297    0.7485 H   0  0  0  0  0  0  0  0  0  0  0  0
   -3.8939    2.1359   -2.0322 H   0  0  0  0  0  0  0  0  0  0  0  0
   -0.9760    2.2084   -0.2699 H   0  0  0  0  0  0  0  0  0  0  0  0
   -1.8727    2.1386   -1.8771 H   0  0  0  0  0  0  0  0  0  0  0  0
   -3.5494    3.9457    1.0334 H   0  0  0  0  0  0  0  0  0  0  0  0
   -1.5950    4.4002   -0.1176 H   0  0  0  0  0  0  0  0  0  0  0  0
   -2.4442    4.3024   -1.6712 H   0  0  0  0  0  0  0  0  0  0  0  0
   -6.3524    2.2315    0.2363 H   0  0  0  0  0  0  0  0  0  0  0  0
   -6.1299    3.8406    0.7916 H   0  0  0  0  0  0  0  0  0  0  0  0
   -3.9788   -0.3154    0.0916 H   0  0  0  0  0  0  0  0  0  0  0  0
   -1.5914   -2.9670   -1.2788 H   0  0  0  0  0  0  0  0  0  0  0  0
   -1.9704   -2.6851    1.1308 H   0  0  0  0  0  0  0  0  0  0  0  0
   -2.4137   -0.4596    1.7314 H   0  0  0  0  0  0  0  0  0  0  0  0
   -2.9986   -5.3537   -1.2099 H   0  0  0  0  0  0  0  0  0  0  0  0
   -4.5279   -4.9990   -0.2435 H   0  0  0  0  0  0  0  0  0  0  0  0
   -2.8863   -4.4725    0.3233 H   0  0  0  0  0  0  0  0  0  0  0  0
   -2.6926   -3.9488   -3.0103 H   0  0  0  0  0  0  0  0  0  0  0  0
   -4.4025   -4.4241   -2.8630 H   0  0  0  0  0  0  0  0  0  0  0  0
   -3.9943   -2.6931   -3.3448 H   0  0  0  0  0  0  0  0  0  0  0  0
   -5.2153   -1.7723   -1.3408 H   0  0  0  0  0  0  0  0  0  0  0  0
   -5.7438   -3.4651   -0.9100 H   0  0  0  0  0  0  0  0  0  0  0  0
   -4.8846   -2.5097    0.3323 H   0  0  0  0  0  0  0  0  0  0  0  0
   -0.3317    0.5132    1.2434 H   0  0  0  0  0  0  0  0  0  0  0  0
    2.3352   -0.7613   -0.9216 H   0  0  0  0  0  0  0  0  0  0  0  0
    0.3475   -1.7371   -0.7556 H   0  0  0  0  0  0  0  0  0  0  0  0
    1.9926   -2.3901    0.9119 H   0  0  0  0  0  0  0  0  0  0  0  0
    3.2188   -1.1644    1.3676 H   0  0  0  0  0  0  0  0  0  0  0  0
    0.0356   -2.4617    1.4104 H   0  0  0  0  0  0  0  0  0  0  0  0
   -0.7921   -1.4266    2.7083 H   0  0  0  0  0  0  0  0  0  0  0  0
    1.5388   -1.4293    3.2432 H   0  0  0  0  0  0  0  0  0  0  0  0
    1.0988    0.1460    2.3848 H   0  0  0  0  0  0  0  0  0  0  0  0
    1.3540    1.4255    0.7028 H   0  0  0  0  0  0  0  0  0  0  0  0
    4.3220    2.6963   -1.0897 H   0  0  0  0  0  0  0  0  0  0  0  0
    4.6779   -1.0761   -0.5342 H   0  0  0  0  0  0  0  0  0  0  0  0
    5.6548   -1.1962   -2.0100 H   0  0  0  0  0  0  0  0  0  0  0  0
    5.8438    1.1919   -2.2268 H   0  0  0  0  0  0  0  0  0  0  0  0
    7.5189   -0.8381   -0.7964 H   0  0  0  0  0  0  0  0  0  0  0  0
    6.6297   -0.6814    0.7307 H   0  0  0  0  0  0  0  0  0  0  0  0
    5.9010    2.0987    1.1869 H   0  0  0  0  0  0  0  0  0  0  0  0
    7.6099    1.4609   -1.2450 H   0  0  0  0  0  0  0  0  0  0  0  0
    7.8784    1.2714    0.4924 H   0  0  0  0  0  0  0  0  0  0  0  0
    3.9114    1.0162    2.7773 H   0  0  0  0  0  0  0  0  0  0  0  0
    2.6152    2.7514    1.9361 H   0  0  0  0  0  0  0  0  0  0  0  0
   -4.4718    3.9057   -1.6602 H   0  0  0  0  0  0  0  0  0  0  0  0
   -4.5938    1.7053    1.0169 H   0  0  0  0  0  0  0  0  0  0  0  0
   -4.2701    1.2743   -1.4981 H   0  0  0  0  0  0  0  0  0  0  0  0
   -2.3335    2.5308    2.0262 H   0  0  0  0  0  0  0  0  0  0  0  0
   -1.9845    3.0530    0.2881 H   0  0  0  0  0  0  0  0  0  0  0  0
   -5.7119    3.4093    0.9547 H   0  0  0  0  0  0  0  0  0  0  0  0
   -3.2101    4.8918    0.7307 H   0  0  0  0  0  0  0  0  0  0  0  0
   -3.9660    4.1838    2.1681 H   0  0  0  0  0  0  0  0  0  0  0  0
   -6.1667    2.5325   -2.3230 H   0  0  0  0  0  0  0  0  0  0  0  0
   -6.8577    3.2406   -0.8979 H   0  0  0  0  0  0  0  0  0  0  0  0
   -2.9438    0.1046    1.7219 H   0  0  0  0  0  0  0  0  0  0  0  0
   -3.3097   -1.0909   -2.2001 H   0  0  0  0  0  0  0  0  0  0  0  0
   -2.3319   -1.9703    0.4265 H   0  0  0  0  0  0  0  0  0  0  0  0
   -2.0760    0.4678   -1.1842 H   0  0  0  0  0  0  0  0  0  0  0  0
   -4.0799   -4.7358   -0.0445 H   0  0  0  0  0  0  0  0  0  0  0  0
   -3.9767   -3.1399    0.7168 H   0  0  0  0  0  0  0  0  0  0  0  0
   -2.4409   -3.9851    0.1318 H   0  0  0  0  0  0  0  0  0  0  0  0
   -5.4384   -2.5313   -2.5903 H   0  0  0  0  0  0  0  0  0  0  0  0
   -5.4637   -4.2659   -1.9437 H   0  0  0  0  0  0  0  0  0  0  0  0
   -5.7325   -2.8325   -0.8603 H   0  0  0  0  0  0  0  0  0  0  0  0
   -3.2198   -4.7662   -2.6005 H   0  0  0  0  0  0  0  0  0  0  0  0
   -3.1588   -3.2007   -3.4413 H   0  0  0  0  0  0  0  0  0  0  0  0
   -1.8052   -3.6401   -2.3242 H   0  0  0  0  0  0  0  0  0  0  0  0
   -0.4775    1.2166    0.5393 H   0  0  0  0  0  0  0  0  0  0  0  0
    2.2764   -1.3043   -0.9147 H   0  0  0  0  0  0  0  0  0  0  0  0
    0.0254   -1.1934   -1.2242 H   0  0  0  0  0  0  0  0  0  0  0  0
    1.0362   -2.3096    0.9174 H   0  0  0  0  0  0  0  0  0  0  0  0
    2.6546   -1.8415    1.4574 H   0  0  0  0  0  0  0  0  0  0  0  0
   -0.6739   -1.6270    1.5397 H   0  0  0  0  0  0  0  0  0  0  0  0
   -1.0539   -0.0527    2.4422 H   0  0  0  0  0  0  0  0  0  0  0  0
    1.0711   -0.9245    3.1624 H   0  0  0  0  0  0  0  0  0  0  0  0
    1.3263    0.5270    2.0511 H   0  0  0  0  0  0  0  0  0  0  0  0
    2.8434    0.9595   -0.8852 H   0  0  0  0  0  0  0  0  0  0  0  0
    4.9724    2.0262    1.0154 H   0  0  0  0  0  0  0  0  0  0  0  0
    8.3721   -0.4542    0.6175 H   0  0  0  0  0  0  0  0  0  0  0  0
    6.8925   -1.1415   -0.0944 H   0  0  0  0  0  0  0  0  0  0  0  0
    6.5845    0.3466    1.9946 H   0  0  0  0  0  0  0  0  0  0  0  0
    8.2326   -0.2146   -1.9252 H   0  0  0  0  0  0  0  0  0  0  0  0
    8.2161    1.3959   -1.0878 H   0  0  0  0  0  0  0  0  0  0  0  0
    4.5570    1.8318   -1.5390 H   0  0  0  0  0  0  0  0  0  0  0  0
    5.8201   -0.2416   -2.0717 H   0  0  0  0  0  0  0  0  0  0  0  0
    6.4852    1.2266   -2.8232 H   0  0  0  0  0  0  0  0  0  0  0  0
    3.7005    0.7885    2.6001 H   0  0  0  0  0  0  0  0  0  0  0  0
    4.2415   -1.9711   -0.6295 H   0  0  0  0  0  0  0  0  0  0  0  0
  1  3  1  0
  2  3  1  0
  2  4  1  0
  1  5  1  0
  4  6  1  0
  5  6  1  0
  1  7  1  0
  2  8  1  0
  8  9  1  0
  9 10  1  0
 10 11  1  0
  8 12  1  0
 11 12  1  0
 10 13  1  0
 13 14  1  0
 13 15  1  0
 13 16  1  0
 12 17  1  0
 17 19  1  0
 18 19  1  0
 18 20  1  0
 17 21  1  0
 20 22  1  0
 21 22  1  0
 19 23  1  0
 18 24  1  0
 24 25  1  0
 25 26  1  0
 26 28  1  0
 27 28  1  0
 27 29  1  0
 26 30  1  0
 29 31  1  0
 30 31  1  0
 30 32  1  0
 28 33  1  0
 25 34  1  0
 25 35  1  0
 36 38  1  0
 37 38  1  0
 37 39  1  0
 36 40  1  0
 39 41  1  0
 40 41  1  0
 36 42  1  0
 37 43  1  0
 43 44  1  0
 44 45  1  0
 45 46  1  0
 43 47  1  0
 46 47  1  0
 45 48  1  0
 48 49  1  0
 48 50  1  0
 48 51  1  0
 47 52  1  0
 52 54  1  0
 53 54  1  0
 53 55  1  0
 52 56  1  0
 55 57  1  0
 56 57  1  0
 54 58  1  0
 53 59  1  0
 59 60  1  0
 60 61  1  0
 61 63  1  0
 62 63  1  0
 62 64  1  0
 61 65  1  0
 64 66  1  0
 65 66  1  0
 65 67  1  0
 63 68  1  0
 60 69  1  0
 60 70  1  0
 71 73  1  0
 72 73  1  0
 72 74  1  0
 71 75  1  0
 74 76  1  0
 75 76  1  0
 71 77  1  0
 72 78  1  0
 78 79  1  0
 79 80  1  0
 80 81  1  0
 78 82  1  0
 81 82  1  0
 80 83  1  0
 83 84  1  0
 83 85  1  0
 83 86  1  0
 82 87  1  0
 87 89  1  0
 88 89  1  0
 88 90  1  0
 87 91  1  0
 90 92  1  0
 91 92  1  0
 89 93  1  0
 88 94  1  0
 94 95  1  0
 95 96  1  0
 96 98  1  0
 97 98  1  0
 97 99  1  0
 96100  1  0
 99101  1  0
100101  1  0
100102  1  0
 98103  1  0
 95104  1  0
 95105  1  0
106108  1  0
107108  1  0
107109  1  0
106110  1  0
109111  1  0
110111  1  0
106112  1  0
107113  1  0
113114  1  0
114115  1  0
115116  1  0
113117  1  0
116117  1  0
115118  1  0
118119  1  0
118120  1  0
118121  1  0
117122  1  0
122124  1  0
123124  1  0
123125  1  0
122126  1  0
125127  1  0
126127  1  0
124128  1  0
123129  1  0
129130  1  0
130131  1  0
131133  1  0
132133  1  0
132134  1  0
131135  1  0
134136  1  0
135136  1  0
135137  1  0
133138  1  0
130139  1  0
130140  1  0
  1141  1  0
  2142  1  1
  3143  1  0
  4144  1  0
  4145  1  0
  5146  1  0
  6147  1  0
  6148  1  0
  7149  1  0
  7150  1  0
  8151  1  0
 10152  1  6
 11153  1  0
 12154  1  0
 14155  1  0
 14156  1  0
 14157  1  0
 15158  1  0
 15159  1  0
 15160  1  0
 16161  1  0
 16162  1  0
 16163  1  0
 17164  1  1
 18165  1  6
 19166  1  0
 20167  1  0
 20168  1  0
 21169  1  0
 21170  1  0
 22171  1  0
 22172  1  0
 24173  1  0
 26174  1  0
 27175  1  0
 27176  1  0
 28177  1  0
 29178  1  0
 29179  1  0
 30180  1  0
 31181  1  0
 31182  1  0
 34183  1  0
 35184  1  0
 36185  1  0
 37186  1  0
 38187  1  0
 39188  1  0
 39189  1  0
 40190  1  0
 41191  1  0
 41192  1  0
 42193  1  0
 42194  1  0
 43195  1  0
 45196  1  6
 46197  1  0
 47198  1  6
 49199  1  0
 49200  1  0
 49201  1  0
 50202  1  0
 50203  1  0
 50204  1  0
 51205  1  0
 51206  1  0
 51207  1  0
 52208  1  1
 53209  1  0
 54210  1  0
 55211  1  0
 55212  1  0
 56213  1  0
 56214  1  0
 57215  1  0
 57216  1  0
 59217  1  0
 61218  1  0
 62219  1  0
 62220  1  0
 63221  1  0
 64222  1  0
 64223  1  0
 65224  1  0
 66225  1  0
 66226  1  0
 69227  1  0
 70228  1  0
 71229  1  0
 72230  1  1
 73231  1  0
 74232  1  0
 74233  1  0
 75234  1  0
 76235  1  0
 76236  1  0
 77237  1  0
 77238  1  0
 78239  1  1
 80240  1  0
 81241  1  0
 82242  1  0
 84243  1  0
 84244  1  0
 84245  1  0
 85246  1  0
 85247  1  0
 85248  1  0
 86249  1  0
 86250  1  0
 86251  1  0
 87252  1  1
 88253  1  6
 89254  1  0
 90255  1  0
 90256  1  0
 91257  1  0
 91258  1  0
 92259  1  0
 92260  1  0
 94261  1  0
 96262  1  0
 97263  1  0
 97264  1  0
 98265  1  0
 99266  1  0
 99267  1  0
100268  1  0
101269  1  0
101270  1  0
104271  1  0
105272  1  0
106273  1  0
107274  1  1
108275  1  0
109276  1  0
109277  1  0
110278  1  0
111279  1  0
111280  1  0
112281  1  0
112282  1  0
113283  1  1
115284  1  6
116285  1  0
117286  1  6
119287  1  0
119288  1  0
119289  1  0
120290  1  0
120291  1  0
120292  1  0
121293  1  0
121294  1  0
121295  1  0
122296  1  1
123297  1  6
124298  1  0
125299  1  0
125300  1  0
126301  1  0
126302  1  0
127303  1  0
127304  1  0
129305  1  0
131306  1  0
132307  1  0
132308  1  0
133309  1  0
134310  1  0
134311  1  0
135312  1  6
136313  1  0
136314  1  0
139315  1  0
140316  1  0
M  END
>  <PDBID>  (1) 
5HIE

>  <PDB ID>  (1) 
5HIE

>  <Generic Name>  (1) 
Dabrafenib

>  <Brand Name>  (1) 
Tafinlar

>  <DrugBank ID>  (1) 
DB08912

>  <ATC Codes>  (1) 
L01XE23

>  <Ligand ID>  (1) 
P06

>  <Target Name>  (1) 
RAF proto-oncogene serine/threonine-protein kinase

>  <UniProt ID>  (1) 
P04049

>  <PDB ID.1>  (1) 
5HIE

>  <Seq. Identity>  (1) 
77%

$$$$
