PDB_DB00625_03
     RDKit          3D

 42 44  0  0  0  0  0  0  0  0999 V2000
   -3.7019   -2.9334    1.0996 Cl  0  0  0  0  0  0  0  0  0  0  0  0
   -0.8121   -1.3205   -2.8125 F   0  0  0  0  0  0  0  0  0  0  0  0
   -0.1457   -2.6994   -1.2193 F   0  0  0  0  0  0  0  0  0  0  0  0
    1.3342   -1.4710   -2.4873 F   0  0  0  0  0  0  0  0  0  0  0  0
    0.3273    3.0157   -1.8611 O   0  0  0  0  0  0  0  0  0  0  0  0
    0.3131    0.8104   -1.5614 O   0  0  0  0  0  0  0  0  0  0  0  0
   -1.5218    2.0249   -0.9642 N   0  0  0  0  0  0  0  0  0  0  0  0
   -1.8967    1.0641    0.0471 C   0  0  1  0  0  0  0  0  0  0  0  0
   -3.4063    0.9935    0.1602 C   0  0  0  0  0  0  0  0  0  0  0  0
   -3.9207   -0.4196    0.2016 C   0  0  0  0  0  0  0  0  0  0  0  0
   -3.1081   -1.2395    1.1688 C   0  0  0  0  0  0  0  0  0  0  0  0
   -1.6279   -1.1839    0.8895 C   0  0  0  0  0  0  0  0  0  0  0  0
   -1.3931   -0.3106   -0.2994 C   0  0  0  0  0  0  0  0  0  0  0  0
    0.0253   -0.3275   -0.8017 C   0  0  2  0  0  0  0  0  0  0  0  0
    1.0449   -0.3888    0.2907 C   0  0  0  0  0  0  0  0  0  0  0  0
    2.4621   -0.4865   -0.1730 C   0  0  0  0  0  0  0  0  0  0  0  0
    3.4369   -0.5298    1.0182 C   0  0  0  0  0  0  0  0  0  0  0  0
    4.8984   -0.6304    0.5509 C   0  0  0  0  0  0  0  0  0  0  0  0
    4.3543    0.5822    1.2650 C   0  0  0  0  0  0  0  0  0  0  0  0
    0.1245   -1.4911   -1.7756 C   0  0  0  0  0  0  0  0  0  0  0  0
   -0.0505    1.9924   -0.9899 C   0  0  0  0  0  0  0  0  0  0  0  0
    0.5449    3.8549   -1.3802 H   0  0  0  0  0  0  0  0  0  0  0  0
   -1.8798    2.9595   -0.6932 H   0  0  0  0  0  0  0  0  0  0  0  0
   -1.5234    1.3708    1.0611 H   0  0  0  0  0  0  0  0  0  0  0  0
   -3.7711    1.5533    1.0580 H   0  0  0  0  0  0  0  0  0  0  0  0
   -3.8346    1.4645   -0.7539 H   0  0  0  0  0  0  0  0  0  0  0  0
   -4.9575   -0.3578    0.6486 H   0  0  0  0  0  0  0  0  0  0  0  0
   -4.0519   -0.8821   -0.7807 H   0  0  0  0  0  0  0  0  0  0  0  0
   -3.3720   -0.8784    2.1885 H   0  0  0  0  0  0  0  0  0  0  0  0
   -1.2732   -2.2214    0.7212 H   0  0  0  0  0  0  0  0  0  0  0  0
   -1.1503   -0.7767    1.8237 H   0  0  0  0  0  0  0  0  0  0  0  0
   -2.0499   -0.6818   -1.1143 H   0  0  0  0  0  0  0  0  0  0  0  0
    0.9911    0.5276    0.9382 H   0  0  0  0  0  0  0  0  0  0  0  0
    0.8814   -1.2276    0.9992 H   0  0  0  0  0  0  0  0  0  0  0  0
    2.8132    0.3356   -0.7979 H   0  0  0  0  0  0  0  0  0  0  0  0
    2.6462   -1.4967   -0.6509 H   0  0  0  0  0  0  0  0  0  0  0  0
    3.1821   -1.2419    1.8342 H   0  0  0  0  0  0  0  0  0  0  0  0
    5.1303   -0.4670   -0.5008 H   0  0  0  0  0  0  0  0  0  0  0  0
    5.5600   -1.3297    1.0844 H   0  0  0  0  0  0  0  0  0  0  0  0
    4.7356    0.6954    2.2951 H   0  0  0  0  0  0  0  0  0  0  0  0
    4.2813    1.5320    0.7151 H   0  0  0  0  0  0  0  0  0  0  0  0
    0.3613    2.2162   -0.0083 H   0  0  0  0  0  0  0  0  0  0  0  0
  7  8  1  0
  8  9  1  0
  9 10  1  0
  1 11  1  0
 10 11  1  0
 11 12  1  0
  8 13  1  0
 12 13  1  0
  6 14  1  0
 13 14  1  0
 14 15  1  1
 15 16  1  0
 16 17  1  0
 17 18  1  0
 17 19  1  0
 18 19  1  0
 20  2  1  0
  3 20  1  0
  4 20  1  0
 14 20  1  0
  5 21  1  0
  6 21  1  0
  7 21  1  0
  5 22  1  0
  7 23  1  0
  8 24  1  1
  9 25  1  0
  9 26  1  0
 10 27  1  0
 10 28  1  0
 11 29  1  0
 12 30  1  0
 12 31  1  0
 13 32  1  0
 15 33  1  0
 15 34  1  0
 16 35  1  0
 16 36  1  0
 17 37  1  0
 18 38  1  0
 18 39  1  0
 19 40  1  0
 19 41  1  0
 21 42  1  0
M  END
>  <PDBID>  (1) 
1JKH

>  <PDB ID>  (1) 
1JKH

>  <Generic Name>  (1) 
Efavirenz

>  <Brand Name>  (1) 
Atripla#Auro-efavirenz#Mylan-efavirenz#Sustiva#Sustiva 100mg#Sustiva 200mg#Sustiva 50mg#Sustiva Tablets#Teva-efavirenz#E.F#Efavir#Efavirenz#Efcure#Efferven#Estiva#Evirenz#Stocrin#Viranz

>  <DrugBank ID>  (1) 
DB00625

>  <ATC Codes>  (1) 
J05AR06#J05AG03#J05AR11

>  <Ligand ID>  (1) 
EFZ

>  <Target Name>  (1) 
Reverse transcriptase/RNaseH

>  <UniProt ID>  (1) 
Q72547

>  <PDB ID.1>  (1) 
1JKH

>  <Seq. Identity>  (1) 
96%

$$$$
