PDB_DB08873_05
     RDKit          3D

 91 93  0  0  0  0  0  0  0  0999 V2000
    4.1960   -0.2371    0.0699 C   0  0  0  0  0  0  0  0  0  0  0  0
    4.9085   -0.4552   -1.1653 O   0  0  0  0  0  0  0  0  0  0  0  0
    4.3522   -1.5035    0.7633 N   0  0  0  0  0  0  0  0  0  0  0  0
    5.7621   -1.7103    1.0115 C   0  0  0  0  0  0  0  0  0  0  0  0
    6.3387   -0.6202    1.9115 C   0  0  0  0  0  0  0  0  0  0  0  0
    6.5832   -1.9481   -0.2110 C   0  0  0  0  0  0  0  0  0  0  0  0
    5.8858   -2.9943    1.8582 C   0  0  0  0  0  0  0  0  0  0  0  0
    2.8791    0.0731   -0.3281 N   0  0  0  0  0  0  0  0  0  0  0  0
    1.8805    0.3803    0.6532 C   0  0  1  0  0  0  0  0  0  0  0  0
    2.0954    1.5968    1.4592 C   0  0  0  0  0  0  0  0  0  0  0  0
    0.9866    1.9521    2.4306 C   0  0  0  0  0  0  0  0  0  0  0  0
    2.4300    2.8287    0.6577 C   0  0  0  0  0  0  0  0  0  0  0  0
    3.3167    1.4053    2.4029 C   0  0  0  0  0  0  0  0  0  0  0  0
    0.5309    0.1159    0.0827 C   0  0  1  0  0  0  0  0  0  0  0  0
   -0.3950    0.3524    1.1437 O   0  0  0  0  0  0  0  0  0  0  0  0
    0.0583    0.8384   -1.0068 N   0  0  0  0  0  0  0  0  0  0  0  0
    0.7480    0.7824   -2.2524 C   0  0  0  0  0  0  0  0  0  0  0  0
   -1.3393    0.8288   -1.2693 C   0  0  1  0  0  0  0  0  0  0  0  0
   -1.4615    1.7296   -2.4791 C   0  0  2  0  0  0  0  0  0  0  0  0
   -0.1489    1.5652   -3.1748 C   0  0  1  0  0  0  0  0  0  0  0  0
   -0.6131    2.9048   -2.7129 C   0  0  0  0  0  0  0  0  0  0  0  0
   -1.1825    3.8546   -3.7967 C   0  0  0  0  0  0  0  0  0  0  0  0
   -0.0054    3.6360   -1.5565 C   0  0  0  0  0  0  0  0  0  0  0  0
   -2.0075   -0.4400   -1.6064 C   0  0  0  0  0  0  0  0  0  0  0  0
   -1.4383   -1.1026   -2.7055 O   0  0  0  0  0  0  0  0  0  0  0  0
   -2.4959   -1.3114   -0.6169 N   0  0  0  0  0  0  0  0  0  0  0  0
   -3.5452   -0.8344    0.2454 C   0  0  1  0  0  0  0  0  0  0  0  0
   -4.8029   -0.4791   -0.4495 C   0  0  0  0  0  0  0  0  0  0  0  0
   -5.5292   -1.4736   -1.2296 C   0  0  0  0  0  0  0  0  0  0  0  0
   -4.9248   -2.1600   -2.4003 C   0  0  0  0  0  0  0  0  0  0  0  0
   -5.8468   -2.8162   -0.6472 C   0  0  0  0  0  0  0  0  0  0  0  0
   -5.8268   -3.3615   -2.0733 C   0  0  0  0  0  0  0  0  0  0  0  0
   -2.4877   -1.8192    2.0584 O   0  0  0  0  0  0  0  0  0  0  0  0
   -3.7644   -1.7864    1.4197 C   0  0  0  0  0  0  0  0  0  0  0  0
   -5.9939   -1.2536    2.1357 O   0  0  0  0  0  0  0  0  0  0  0  0
   -4.3156    0.1278    2.8902 N   0  0  0  0  0  0  0  0  0  0  0  0
   -4.6621   -1.1844    2.4841 C   0  0  0  0  0  0  0  0  0  0  0  0
    4.7133    0.6016    0.5066 H   0  0  0  0  0  0  0  0  0  0  0  0
    4.9465    0.4017   -1.6612 H   0  0  0  0  0  0  0  0  0  0  0  0
    4.0098   -2.3032    0.2270 H   0  0  0  0  0  0  0  0  0  0  0  0
    7.3499   -1.0022    2.2207 H   0  0  0  0  0  0  0  0  0  0  0  0
    5.7399   -0.5739    2.8200 H   0  0  0  0  0  0  0  0  0  0  0  0
    6.5233    0.3185    1.3923 H   0  0  0  0  0  0  0  0  0  0  0  0
    7.0741   -1.0410   -0.6209 H   0  0  0  0  0  0  0  0  0  0  0  0
    7.4241   -2.6478    0.0514 H   0  0  0  0  0  0  0  0  0  0  0  0
    5.9794   -2.5015   -0.9488 H   0  0  0  0  0  0  0  0  0  0  0  0
    5.0814   -3.6599    1.4953 H   0  0  0  0  0  0  0  0  0  0  0  0
    5.6511   -2.7238    2.8874 H   0  0  0  0  0  0  0  0  0  0  0  0
    6.8811   -3.4458    1.7095 H   0  0  0  0  0  0  0  0  0  0  0  0
    2.5156   -0.6199   -1.0432 H   0  0  0  0  0  0  0  0  0  0  0  0
    2.0129   -0.4931    1.4164 H   0  0  0  0  0  0  0  0  0  0  0  0
    0.0963    2.3855    1.9796 H   0  0  0  0  0  0  0  0  0  0  0  0
    1.4246    2.8315    3.0230 H   0  0  0  0  0  0  0  0  0  0  0  0
    0.8702    1.1764    3.1768 H   0  0  0  0  0  0  0  0  0  0  0  0
    3.4255    3.2639    0.9125 H   0  0  0  0  0  0  0  0  0  0  0  0
    2.5210    2.5706   -0.4286 H   0  0  0  0  0  0  0  0  0  0  0  0
    1.7142    3.6472    0.7563 H   0  0  0  0  0  0  0  0  0  0  0  0
    3.5443    0.3443    2.5445 H   0  0  0  0  0  0  0  0  0  0  0  0
    4.1457    2.0583    2.1508 H   0  0  0  0  0  0  0  0  0  0  0  0
    3.0296    1.7457    3.4594 H   0  0  0  0  0  0  0  0  0  0  0  0
    0.4819   -0.9699   -0.1432 H   0  0  0  0  0  0  0  0  0  0  0  0
   -0.2538   -0.3555    1.8328 H   0  0  0  0  0  0  0  0  0  0  0  0
    0.8965   -0.2588   -2.6311 H   0  0  0  0  0  0  0  0  0  0  0  0
    1.7389    1.2654   -2.2818 H   0  0  0  0  0  0  0  0  0  0  0  0
   -1.8800    1.2891   -0.4044 H   0  0  0  0  0  0  0  0  0  0  0  0
   -2.4109    1.6036   -3.0453 H   0  0  0  0  0  0  0  0  0  0  0  0
   -0.1281    1.3320   -4.2647 H   0  0  0  0  0  0  0  0  0  0  0  0
   -2.2494    4.0681   -3.5915 H   0  0  0  0  0  0  0  0  0  0  0  0
   -1.0253    3.4283   -4.8052 H   0  0  0  0  0  0  0  0  0  0  0  0
   -0.6479    4.8082   -3.7441 H   0  0  0  0  0  0  0  0  0  0  0  0
   -0.5187    4.6461   -1.4433 H   0  0  0  0  0  0  0  0  0  0  0  0
    1.0470    3.8855   -1.6877 H   0  0  0  0  0  0  0  0  0  0  0  0
   -0.1591    3.1375   -0.6016 H   0  0  0  0  0  0  0  0  0  0  0  0
   -3.0015   -0.0616   -2.1252 H   0  0  0  0  0  0  0  0  0  0  0  0
   -1.4612   -0.4944   -3.4693 H   0  0  0  0  0  0  0  0  0  0  0  0
   -1.7389   -1.7049   -0.0440 H   0  0  0  0  0  0  0  0  0  0  0  0
   -3.1598    0.1062    0.7237 H   0  0  0  0  0  0  0  0  0  0  0  0
   -5.5376   -0.0277    0.2884 H   0  0  0  0  0  0  0  0  0  0  0  0
   -4.5892    0.4092   -1.1142 H   0  0  0  0  0  0  0  0  0  0  0  0
   -6.5144   -1.0195   -1.5692 H   0  0  0  0  0  0  0  0  0  0  0  0
   -3.8962   -2.4909   -2.3716 H   0  0  0  0  0  0  0  0  0  0  0  0
   -5.2147   -1.7753   -3.3963 H   0  0  0  0  0  0  0  0  0  0  0  0
   -5.1359   -3.2765    0.0318 H   0  0  0  0  0  0  0  0  0  0  0  0
   -6.8820   -2.9025   -0.2153 H   0  0  0  0  0  0  0  0  0  0  0  0
   -6.8234   -3.2899   -2.5336 H   0  0  0  0  0  0  0  0  0  0  0  0
   -5.3178   -4.3339   -2.1076 H   0  0  0  0  0  0  0  0  0  0  0  0
   -2.4251   -0.9674    2.5783 H   0  0  0  0  0  0  0  0  0  0  0  0
   -6.5937   -1.1010    2.8885 H   0  0  0  0  0  0  0  0  0  0  0  0
   -3.7999    0.2039    3.7860 H   0  0  0  0  0  0  0  0  0  0  0  0
   -5.0477    0.8484    2.7467 H   0  0  0  0  0  0  0  0  0  0  0  0
   -4.5908   -1.8158    3.4335 H   0  0  0  0  0  0  0  0  0  0  0  0
  1  2  1  0
  1  3  1  0
  4  3  1  0
  4  5  1  0
  4  6  1  0
  4  7  1  0
  1  8  1  0
  8  9  1  0
  9 10  1  0
 10 11  1  0
 10 12  1  0
 10 13  1  0
  9 14  1  0
 14 15  1  0
 14 16  1  0
 16 17  1  0
 16 18  1  0
 18 19  1  0
 17 20  1  0
 19 20  1  0
 19 21  1  0
 20 21  1  0
 21 22  1  0
 21 23  1  0
 18 24  1  0
 24 25  1  0
 24 26  1  0
 26 27  1  0
 27 28  1  0
 28 29  1  0
 29 30  1  0
 29 31  1  0
 30 32  1  0
 31 32  1  0
 27 34  1  0
 34 33  1  0
 34 37  1  0
 35 37  1  0
 36 37  1  0
  1 38  1  0
  2 39  1  0
  3 40  1  0
  5 41  1  0
  5 42  1  0
  5 43  1  0
  6 44  1  0
  6 45  1  0
  6 46  1  0
  7 47  1  0
  7 48  1  0
  7 49  1  0
  8 50  1  0
  9 51  1  1
 11 52  1  0
 11 53  1  0
 11 54  1  0
 12 55  1  0
 12 56  1  0
 12 57  1  0
 13 58  1  0
 13 59  1  0
 13 60  1  0
 14 61  1  6
 15 62  1  0
 17 63  1  0
 17 64  1  0
 18 65  1  1
 19 66  1  6
 20 67  1  6
 22 68  1  0
 22 69  1  0
 22 70  1  0
 23 71  1  0
 23 72  1  0
 23 73  1  0
 24 74  1  0
 25 75  1  0
 26 76  1  0
 27 77  1  1
 28 78  1  0
 28 79  1  0
 29 80  1  0
 30 81  1  0
 30 82  1  0
 31 83  1  0
 31 84  1  0
 32 85  1  0
 32 86  1  0
 33 87  1  0
 35 88  1  0
 36 89  1  0
 36 90  1  0
 37 91  1  0
M  END
>  <PDBID>  (1) 
2OC8

>  <PDB ID>  (1) 
2OC8

>  <Generic Name>  (1) 
Boceprevir

>  <Brand Name>  (1) 
Victrelis#Victrelis Triple

>  <DrugBank ID>  (1) 
DB08873

>  <ATC Codes>  (1) 
J05AE12

>  <Ligand ID>  (1) 
HU5

>  <Target Name>  (1) 
Genome polyprotein

>  <UniProt ID>  (1) 
B0B3C9

>  <PDB ID.1>  (1) 
2OC8

>  <Seq. Identity>  (1) 
69%

$$$$
