PDB_DB04787_01
     RDKit          3D

104108  0  0  0  0  0  0  0  0999 V2000
   -2.0333    1.5969   -1.6578 C   0  0  0  0  0  0  0  0  0  0  0  0
   -2.7898    0.7384   -0.6688 C   0  0  0  0  0  0  0  0  0  0  0  0
   -2.0872    0.5650    0.6373 C   0  0  2  0  0  0  0  0  0  0  0  0
   -0.6940    1.1316    0.6720 C   0  0  0  0  0  0  0  0  0  0  0  0
    0.3642    0.0309    0.7671 C   0  0  1  0  0  0  0  0  0  0  0  0
   -0.0036   -1.1493   -0.0758 C   0  0  0  0  0  0  0  0  0  0  0  0
   -1.2741   -1.8221    0.4140 C   0  0  0  0  0  0  0  0  0  0  0  0
   -2.1863   -0.8555    1.1187 C   0  0  0  0  0  0  0  0  0  0  0  0
   -3.5559   -1.2952    0.8435 N   0  0  0  0  0  0  0  0  0  0  0  0
   -3.8492   -1.3196   -0.5638 C   0  0  0  0  0  0  0  0  0  0  0  0
   -5.6346   -0.9670   -0.7549 S   0  0  0  0  0  0  0  0  0  0  0  0
   -3.0676   -0.4744   -1.3096 O   0  0  0  0  0  0  0  0  0  0  0  0
    1.6714    0.6074    0.3649 C   0  0  2  0  0  0  0  0  0  0  0  0
    1.6884    1.1283   -1.0593 C   0  0  0  0  0  0  0  0  0  0  0  0
    3.1699    1.0455   -1.3983 C   0  0  0  0  0  0  0  0  0  0  0  0
    3.5257   -0.2781   -0.6956 C   0  0  0  0  0  0  0  0  0  0  0  0
    2.8340   -0.1601    0.5463 N   0  0  0  0  0  0  0  0  0  0  0  0
    2.8208   -1.3321    1.3151 C   0  0  0  0  0  0  0  0  0  0  0  0
    5.0204   -0.3693   -0.4790 C   0  0  0  0  0  0  0  0  0  0  0  0
    5.4652    0.7226    0.3376 N   0  0  0  0  0  0  0  0  0  0  0  0
   -4.1546    1.4256   -0.4999 C   0  0  0  0  0  0  0  0  0  0  0  0
   -2.3113    1.4427    2.0907 C   0  0  0  0  0  0  0  0  0  0  0  0
   -2.8454    0.7787    0.8128 C   0  0  0  0  0  0  0  0  0  0  0  0
   -1.6951    0.6257   -0.1940 C   0  0  0  0  0  0  0  0  0  0  0  0
   -0.6092   -0.1630    0.4344 C   0  0  0  0  0  0  0  0  0  0  0  0
    0.3135   -0.9033   -0.4740 C   0  0  1  0  0  0  0  0  0  0  0  0
   -0.3508   -1.3300   -1.7411 C   0  0  0  0  0  0  0  0  0  0  0  0
   -1.1897   -0.2508   -2.3914 C   0  0  0  0  0  0  0  0  0  0  0  0
   -2.3397   -0.0172   -1.3996 C   0  0  0  0  0  0  0  0  0  0  0  0
   -2.8510   -1.2913   -1.0005 N   0  0  0  0  0  0  0  0  0  0  0  0
   -3.6763   -1.2878    0.1575 C   0  0  0  0  0  0  0  0  0  0  0  0
   -5.4316   -1.0903   -0.3438 S   0  0  0  0  0  0  0  0  0  0  0  0
   -3.3201   -0.4454    1.1593 O   0  0  0  0  0  0  0  0  0  0  0  0
    1.6413   -0.2593   -0.6471 C   0  0  2  0  0  0  0  0  0  0  0  0
    2.5652   -0.9843   -1.6016 C   0  0  0  0  0  0  0  0  0  0  0  0
    3.8470   -0.1777   -1.3127 C   0  0  0  0  0  0  0  0  0  0  0  0
    3.8245   -0.1764    0.1813 C   0  0  0  0  0  0  0  0  0  0  0  0
    2.4434   -0.1186    0.5345 N   0  0  0  0  0  0  0  0  0  0  0  0
    2.2202   -1.1396    1.5284 C   0  0  0  0  0  0  0  0  0  0  0  0
    4.6520    0.9223    0.7901 C   0  0  0  0  0  0  0  0  0  0  0  0
    4.2417    2.2385    0.4171 N   0  0  0  0  0  0  0  0  0  0  0  0
   -3.8401    1.7222    0.2261 C   0  0  0  0  0  0  0  0  0  0  0  0
   -1.1246    1.1410   -2.0455 H   0  0  0  0  0  0  0  0  0  0  0  0
   -2.7260    1.7066   -2.5451 H   0  0  0  0  0  0  0  0  0  0  0  0
   -1.9011    2.6454   -1.2914 H   0  0  0  0  0  0  0  0  0  0  0  0
   -2.6750    1.1699    1.3941 H   0  0  0  0  0  0  0  0  0  0  0  0
   -0.5149    1.7877    1.5502 H   0  0  0  0  0  0  0  0  0  0  0  0
   -0.4297    1.7270   -0.2204 H   0  0  0  0  0  0  0  0  0  0  0  0
    0.3264   -0.2939    1.8267 H   0  0  0  0  0  0  0  0  0  0  0  0
   -0.1432   -0.8548   -1.1484 H   0  0  0  0  0  0  0  0  0  0  0  0
    0.8001   -1.9010    0.0104 H   0  0  0  0  0  0  0  0  0  0  0  0
   -1.7471   -2.2883   -0.4742 H   0  0  0  0  0  0  0  0  0  0  0  0
   -1.0532   -2.6457    1.1252 H   0  0  0  0  0  0  0  0  0  0  0  0
   -2.0582   -0.8988    2.2114 H   0  0  0  0  0  0  0  0  0  0  0  0
   -3.5915   -2.3024    1.1768 H   0  0  0  0  0  0  0  0  0  0  0  0
   -3.7174   -2.3562   -0.9914 H   0  0  0  0  0  0  0  0  0  0  0  0
   -6.3279   -1.4991    0.3540 H   0  0  0  0  0  0  0  0  0  0  0  0
    1.8387    1.5586    0.9806 H   0  0  0  0  0  0  0  0  0  0  0  0
    1.3790    2.1950   -1.1188 H   0  0  0  0  0  0  0  0  0  0  0  0
    1.1896    0.4956   -1.7891 H   0  0  0  0  0  0  0  0  0  0  0  0
    3.7257    1.8601   -0.9164 H   0  0  0  0  0  0  0  0  0  0  0  0
    3.3293    0.9673   -2.4825 H   0  0  0  0  0  0  0  0  0  0  0  0
    3.1688   -1.0888   -1.3440 H   0  0  0  0  0  0  0  0  0  0  0  0
    3.7173   -1.2679    2.0141 H   0  0  0  0  0  0  0  0  0  0  0  0
    1.9735   -1.4549    2.0306 H   0  0  0  0  0  0  0  0  0  0  0  0
    3.0337   -2.2653    0.7395 H   0  0  0  0  0  0  0  0  0  0  0  0
    5.5381   -0.3680   -1.4652 H   0  0  0  0  0  0  0  0  0  0  0  0
    5.2033   -1.3228    0.0522 H   0  0  0  0  0  0  0  0  0  0  0  0
    4.6980    1.1853    0.8736 H   0  0  0  0  0  0  0  0  0  0  0  0
    6.1925    0.4628    1.0292 H   0  0  0  0  0  0  0  0  0  0  0  0
   -4.6752    1.0946    0.3974 H   0  0  0  0  0  0  0  0  0  0  0  0
   -4.7146    1.3089   -1.4424 H   0  0  0  0  0  0  0  0  0  0  0  0
   -3.9443    2.5325   -0.4194 H   0  0  0  0  0  0  0  0  0  0  0  0
   -1.4438    2.0748    1.8955 H   0  0  0  0  0  0  0  0  0  0  0  0
   -3.1048    2.1013    2.5245 H   0  0  0  0  0  0  0  0  0  0  0  0
   -2.1142    0.6622    2.8672 H   0  0  0  0  0  0  0  0  0  0  0  0
   -1.3226    1.6456   -0.4340 H   0  0  0  0  0  0  0  0  0  0  0  0
   -1.0820   -0.8278    1.2088 H   0  0  0  0  0  0  0  0  0  0  0  0
   -0.0042    0.5652    1.0391 H   0  0  0  0  0  0  0  0  0  0  0  0
    0.5317   -1.8819    0.0670 H   0  0  0  0  0  0  0  0  0  0  0  0
    0.3256   -1.7922   -2.4591 H   0  0  0  0  0  0  0  0  0  0  0  0
   -1.0930   -2.1367   -1.4572 H   0  0  0  0  0  0  0  0  0  0  0  0
   -1.5584   -0.6367   -3.3415 H   0  0  0  0  0  0  0  0  0  0  0  0
   -0.6748    0.7017   -2.4893 H   0  0  0  0  0  0  0  0  0  0  0  0
   -3.0710    0.6624   -1.8255 H   0  0  0  0  0  0  0  0  0  0  0  0
   -3.4329   -1.6613   -1.8080 H   0  0  0  0  0  0  0  0  0  0  0  0
   -3.6377   -2.3378    0.5800 H   0  0  0  0  0  0  0  0  0  0  0  0
   -6.2389   -0.9184    0.7960 H   0  0  0  0  0  0  0  0  0  0  0  0
    1.4912    0.7528   -1.0670 H   0  0  0  0  0  0  0  0  0  0  0  0
    2.3370   -0.8195   -2.6526 H   0  0  0  0  0  0  0  0  0  0  0  0
    2.7975   -2.0059   -1.3064 H   0  0  0  0  0  0  0  0  0  0  0  0
    3.7210    0.8433   -1.7316 H   0  0  0  0  0  0  0  0  0  0  0  0
    4.7360   -0.6916   -1.7381 H   0  0  0  0  0  0  0  0  0  0  0  0
    4.3091   -1.1398    0.5203 H   0  0  0  0  0  0  0  0  0  0  0  0
    3.1371   -1.1049    2.1944 H   0  0  0  0  0  0  0  0  0  0  0  0
    1.3844   -0.9652    2.2084 H   0  0  0  0  0  0  0  0  0  0  0  0
    2.2557   -2.1761    1.1046 H   0  0  0  0  0  0  0  0  0  0  0  0
    5.6990    0.7822    0.3914 H   0  0  0  0  0  0  0  0  0  0  0  0
    4.7448    0.7691    1.8844 H   0  0  0  0  0  0  0  0  0  0  0  0
    3.3050    2.5096    0.7309 H   0  0  0  0  0  0  0  0  0  0  0  0
    4.9965    2.9040    0.6993 H   0  0  0  0  0  0  0  0  0  0  0  0
   -4.4311    2.1795    1.0672 H   0  0  0  0  0  0  0  0  0  0  0  0
   -4.5414    1.2945   -0.4822 H   0  0  0  0  0  0  0  0  0  0  0  0
   -3.3093    2.5526   -0.2873 H   0  0  0  0  0  0  0  0  0  0  0  0
  2  1  1  0
  2  3  1  0
  3  4  1  0
  4  5  1  0
  5  6  1  0
  6  7  1  0
  3  8  1  0
  7  8  1  0
  8  9  1  0
  9 10  1  0
 10 11  1  0
  2 12  1  0
 10 12  1  0
  5 13  1  0
 13 14  1  0
 14 15  1  0
 15 16  1  0
 13 17  1  0
 16 17  1  0
 17 18  1  0
 16 19  1  0
 19 20  1  0
  2 21  1  0
 23 22  1  0
 23 24  1  0
 24 25  1  0
 25 26  1  0
 26 27  1  0
 27 28  1  0
 24 29  1  0
 28 29  1  0
 29 30  1  0
 30 31  1  0
 31 32  1  0
 23 33  1  0
 31 33  1  0
 26 34  1  0
 34 35  1  0
 35 36  1  0
 36 37  1  0
 34 38  1  0
 37 38  1  0
 38 39  1  0
 37 40  1  0
 40 41  1  0
 23 42  1  0
  1 43  1  0
  1 44  1  0
  1 45  1  0
  3 46  1  1
  4 47  1  0
  4 48  1  0
  5 49  1  1
  6 50  1  0
  6 51  1  0
  7 52  1  0
  7 53  1  0
  8 54  1  0
  9 55  1  0
 10 56  1  0
 11 57  1  0
 13 58  1  1
 14 59  1  0
 14 60  1  0
 15 61  1  0
 15 62  1  0
 16 63  1  0
 18 64  1  0
 18 65  1  0
 18 66  1  0
 19 67  1  0
 19 68  1  0
 20 69  1  0
 20 70  1  0
 21 71  1  0
 21 72  1  0
 21 73  1  0
 22 74  1  0
 22 75  1  0
 22 76  1  0
 24 77  1  0
 25 78  1  0
 25 79  1  0
 26 80  1  1
 27 81  1  0
 27 82  1  0
 28 83  1  0
 28 84  1  0
 29 85  1  0
 30 86  1  0
 31 87  1  0
 32 88  1  0
 34 89  1  6
 35 90  1  0
 35 91  1  0
 36 92  1  0
 36 93  1  0
 37 94  1  0
 39 95  1  0
 39 96  1  0
 39 97  1  0
 40 98  1  0
 40 99  1  0
 41100  1  0
 41101  1  0
 42102  1  0
 42103  1  0
 42104  1  0
M  END
>  <PDBID>  (1) 
1ZUC

>  <PDB ID>  (1) 
1ZUC

>  <Generic Name>  (1) 
Tanaproget

>  <Brand Name>  (1) 
nan

>  <DrugBank ID>  (1) 
DB04787

>  <ATC Codes>  (1) 
nan

>  <Ligand ID>  (1) 
T98

>  <Target Name>  (1) 
Progesterone receptor

>  <UniProt ID>  (1) 
P06401

>  <PDB ID.1>  (1) 
1ZUC

>  <Seq. Identity>  (1) 
97%

$$$$
