PDB_DB08912_00
     RDKit          3D

316328  0  0  0  0  0  0  0  0999 V2000
   -5.2658   -2.0274   -1.4234 C   0  0  0  0  0  0  0  0  0  0  0  0
   -3.4180   -1.6600    0.0339 C   0  0  2  0  0  0  0  0  0  0  0  0
   -4.1588   -1.1159   -1.0847 N   0  0  0  0  0  0  0  0  0  0  0  0
   -4.3980   -2.3526    0.9851 C   0  0  0  0  0  0  0  0  0  0  0  0
   -4.9000   -3.3890   -1.1762 N   0  0  0  0  0  0  0  0  0  0  0  0
   -4.9220   -3.5834    0.2659 C   0  0  0  0  0  0  0  0  0  0  0  0
   -5.6473   -1.8455   -2.7968 N   0  0  0  0  0  0  0  0  0  0  0  0
   -2.5894   -0.6685    0.7778 C   0  0  0  0  0  0  0  0  0  0  0  0
   -3.7365    0.6267    1.4304 S   0  0  0  0  0  0  0  0  0  0  0  0
   -2.7682    2.0442    0.7713 C   0  0  1  0  0  0  0  0  0  0  0  0
   -2.1881    1.4192   -0.3535 N   0  0  0  0  0  0  0  0  0  0  0  0
   -1.6973    0.1162   -0.0908 C   0  0  0  0  0  0  0  0  0  0  0  0
   -3.6647    3.1804    0.4084 C   0  0  0  0  0  0  0  0  0  0  0  0
   -4.6939    2.8793   -0.6294 C   0  0  0  0  0  0  0  0  0  0  0  0
   -2.8556    4.3904    0.0254 C   0  0  0  0  0  0  0  0  0  0  0  0
   -4.4213    3.5626    1.6882 C   0  0  0  0  0  0  0  0  0  0  0  0
   -0.2150    0.0855    0.2278 C   0  0  2  0  0  0  0  0  0  0  0  0
    1.7347   -1.4232    0.7739 C   0  0  2  0  0  0  0  0  0  0  0  0
    0.3819   -1.2554    0.1293 C   0  0  0  0  0  0  0  0  0  0  0  0
    1.7893   -0.7650    2.1338 C   0  0  0  0  0  0  0  0  0  0  0  0
    0.1962    0.9346    1.3778 C   0  0  0  0  0  0  0  0  0  0  0  0
    1.6150    0.7010    1.8408 C   0  0  0  0  0  0  0  0  0  0  0  0
   -0.3895   -2.2541    0.6910 F   0  0  0  0  0  0  0  0  0  0  0  0
    2.8159   -0.8888   -0.0236 N   0  0  0  0  0  0  0  0  0  0  0  0
    4.2332   -0.9715    0.2861 S   0  0  0  0  0  0  0  0  0  0  0  0
    5.3887   -1.1655   -1.0025 C   0  0  0  0  0  0  0  0  0  0  0  0
    7.4618   -0.0745   -0.0712 C   0  0  0  0  0  0  0  0  0  0  0  0
    6.7906   -1.3509   -0.4415 C   0  0  0  0  0  0  0  0  0  0  0  0
    7.2633    1.0513   -1.0504 C   0  0  0  0  0  0  0  0  0  0  0  0
    5.3267   -0.0614   -2.0088 C   0  0  0  0  0  0  0  0  0  0  0  0
    6.7432    0.4259   -2.3435 C   0  0  0  0  0  0  0  0  0  0  0  0
    4.7525   -0.4350   -3.2074 F   0  0  0  0  0  0  0  0  0  0  0  0
    6.6409   -2.1122    0.7134 F   0  0  0  0  0  0  0  0  0  0  0  0
    4.8997    0.4128    1.1789 O   0  0  0  0  0  0  0  0  0  0  0  0
    4.6095   -2.1794    1.4089 O   0  0  0  0  0  0  0  0  0  0  0  0
   -5.6122   -2.0209    0.2893 C   0  0  0  0  0  0  0  0  0  0  0  0
   -3.4900   -1.7030   -0.6229 C   0  0  0  0  0  0  0  0  0  0  0  0
   -4.4572   -1.1463    0.2656 N   0  0  0  0  0  0  0  0  0  0  0  0
   -2.9571   -2.9679   -0.0445 C   0  0  0  0  0  0  0  0  0  0  0  0
   -5.3795   -3.2865   -0.3291 N   0  0  0  0  0  0  0  0  0  0  0  0
   -4.1467   -3.9181    0.0819 C   0  0  0  0  0  0  0  0  0  0  0  0
   -6.7435   -1.3898   -0.3651 N   0  0  0  0  0  0  0  0  0  0  0  0
   -2.4484   -0.6975   -1.0049 C   0  0  0  0  0  0  0  0  0  0  0  0
   -3.3689    0.6712   -1.8285 S   0  0  0  0  0  0  0  0  0  0  0  0
   -3.6668    1.5624   -0.2480 C   0  0  1  0  0  0  0  0  0  0  0  0
   -2.7143    1.0502    0.6335 N   0  0  0  0  0  0  0  0  0  0  0  0
   -1.8973    0.0354    0.1585 C   0  0  2  0  0  0  0  0  0  0  0  0
   -3.6857    3.0294   -0.5006 C   0  0  0  0  0  0  0  0  0  0  0  0
   -4.8241    3.2940   -1.4969 C   0  0  0  0  0  0  0  0  0  0  0  0
   -2.4282    3.5121   -1.1887 C   0  0  0  0  0  0  0  0  0  0  0  0
   -3.9624    3.8574    0.7063 C   0  0  0  0  0  0  0  0  0  0  0  0
   -0.4952    0.5624   -0.0622 C   0  0  2  0  0  0  0  0  0  0  0  0
    1.7059   -0.5022    0.5407 C   0  0  0  0  0  0  0  0  0  0  0  0
    0.5156   -0.4743   -0.3505 C   0  0  0  0  0  0  0  0  0  0  0  0
    2.1958    0.8054    1.0229 C   0  0  0  0  0  0  0  0  0  0  0  0
   -0.1561    1.3943    1.1624 C   0  0  0  0  0  0  0  0  0  0  0  0
    1.2404    1.9406    0.9159 C   0  0  0  0  0  0  0  0  0  0  0  0
   -0.0093   -1.7747   -0.3747 F   0  0  0  0  0  0  0  0  0  0  0  0
    2.7938   -1.1413   -0.2027 N   0  0  0  0  0  0  0  0  0  0  0  0
    4.1840   -1.2457    0.6557 S   0  0  0  0  0  0  0  0  0  0  0  0
    5.4881   -1.5972   -0.3626 C   0  0  0  0  0  0  0  0  0  0  0  0
    7.2651   -0.5053    1.0442 C   0  0  0  0  0  0  0  0  0  0  0  0
    6.7596   -1.7674    0.4408 C   0  0  0  0  0  0  0  0  0  0  0  0
    6.8425    0.7397    0.2891 C   0  0  0  0  0  0  0  0  0  0  0  0
    5.6950   -0.6008   -1.4828 C   0  0  0  0  0  0  0  0  0  0  0  0
    6.8052    0.3764   -1.1750 C   0  0  0  0  0  0  0  0  0  0  0  0
    6.0158   -1.2024   -2.6853 F   0  0  0  0  0  0  0  0  0  0  0  0
    7.6997   -2.3295   -0.4211 F   0  0  0  0  0  0  0  0  0  0  0  0
    4.3184   -0.6972    1.9147 O   0  0  0  0  0  0  0  0  0  0  0  0
    3.8021   -3.1401    1.1681 O   0  0  0  0  0  0  0  0  0  0  0  0
   -4.5514   -3.1488    0.0914 C   0  0  0  0  0  0  0  0  0  0  0  0
   -2.9716   -1.4826   -0.6171 C   0  0  2  0  0  0  0  0  0  0  0  0
   -4.4272   -1.8347   -0.4290 N   0  0  0  0  0  0  0  0  0  0  0  0
   -2.3381   -2.1742    0.5022 C   0  0  0  0  0  0  0  0  0  0  0  0
   -3.5477   -4.0793   -0.3900 N   0  0  0  0  0  0  0  0  0  0  0  0
   -2.2948   -3.6811    0.2282 C   0  0  0  0  0  0  0  0  0  0  0  0
   -5.8784   -3.6453   -0.2153 N   0  0  0  0  0  0  0  0  0  0  0  0
   -2.9532   -0.0931   -0.8668 C   0  0  1  0  0  0  0  0  0  0  0  0
   -3.7014    0.9307    0.4959 S   0  0  0  0  0  0  0  0  0  0  0  0
   -3.6261    2.3991   -0.6125 C   0  0  0  0  0  0  0  0  0  0  0  0
   -2.5104    2.1613   -1.4167 N   0  0  0  0  0  0  0  0  0  0  0  0
   -1.9621    0.8240   -1.3024 C   0  0  0  0  0  0  0  0  0  0  0  0
   -3.8932    3.6758    0.0086 C   0  0  0  0  0  0  0  0  0  0  0  0
   -5.3181    3.6260    0.5923 C   0  0  0  0  0  0  0  0  0  0  0  0
   -3.9625    4.7287   -1.0924 C   0  0  0  0  0  0  0  0  0  0  0  0
   -3.0202    4.1867    1.0809 C   0  0  0  0  0  0  0  0  0  0  0  0
   -0.5683    0.9566   -0.7916 C   0  0  2  0  0  0  0  0  0  0  0  0
    1.2280   -0.7096   -0.0589 C   0  0  2  0  0  0  0  0  0  0  0  0
    0.3221   -0.1844   -1.1055 C   0  0  0  0  0  0  0  0  0  0  0  0
    1.0723   -0.1446    1.3189 C   0  0  0  0  0  0  0  0  0  0  0  0
   -0.4619    1.5268    0.5826 C   0  0  0  0  0  0  0  0  0  0  0  0
    0.9425    1.3731    1.0992 C   0  0  0  0  0  0  0  0  0  0  0  0
   -0.3040   -1.2496   -1.7682 F   0  0  0  0  0  0  0  0  0  0  0  0
    2.6395   -0.5745   -0.4059 N   0  0  0  0  0  0  0  0  0  0  0  0
    3.7600   -1.0082    0.4230 S   0  0  0  0  0  0  0  0  0  0  0  0
    5.1469   -1.7388   -0.3110 C   0  0  0  0  0  0  0  0  0  0  0  0
    6.8792   -1.1115    1.3993 C   0  0  0  0  0  0  0  0  0  0  0  0
    6.0920   -2.2167    0.7711 C   0  0  0  0  0  0  0  0  0  0  0  0
    7.3137   -0.0392    0.4520 C   0  0  0  0  0  0  0  0  0  0  0  0
    5.8175   -0.8428   -1.3028 C   0  0  0  0  0  0  0  0  0  0  0  0
    7.2779   -0.5844   -0.9530 C   0  0  0  0  0  0  0  0  0  0  0  0
    5.8256   -1.3867   -2.5827 F   0  0  0  0  0  0  0  0  0  0  0  0
    6.9115   -3.2273    0.2804 F   0  0  0  0  0  0  0  0  0  0  0  0
    4.2840    0.0447    1.5758 O   0  0  0  0  0  0  0  0  0  0  0  0
    3.2217   -2.3798    1.5219 O   0  0  0  0  0  0  0  0  0  0  0  0
   -5.4851   -2.2777   -1.1684 C   0  0  0  0  0  0  0  0  0  0  0  0
   -3.2327   -1.5782   -0.6134 C   0  0  2  0  0  0  0  0  0  0  0  0
   -4.2265   -1.8326   -1.6658 N   0  0  0  0  0  0  0  0  0  0  0  0
   -3.9923   -1.5653    0.6689 C   0  0  0  0  0  0  0  0  0  0  0  0
   -5.3537   -3.3268   -0.2076 N   0  0  0  0  0  0  0  0  0  0  0  0
   -4.4964   -3.0018    0.8850 C   0  0  0  0  0  0  0  0  0  0  0  0
   -6.2093   -2.8485   -2.3170 N   0  0  0  0  0  0  0  0  0  0  0  0
   -2.4891   -0.2906   -0.8935 C   0  0  1  0  0  0  0  0  0  0  0  0
   -3.8261    0.9843   -0.8843 S   0  0  0  0  0  0  0  0  0  0  0  0
   -3.3450    1.6295    0.7763 C   0  0  1  0  0  0  0  0  0  0  0  0
   -1.9470    1.4781    0.6637 N   0  0  0  0  0  0  0  0  0  0  0  0
   -1.5759    0.1751    0.1687 C   0  0  2  0  0  0  0  0  0  0  0  0
   -3.6833    3.1040    0.7497 C   0  0  0  0  0  0  0  0  0  0  0  0
   -5.1821    3.1982    0.4927 C   0  0  0  0  0  0  0  0  0  0  0  0
   -3.0086    3.6923   -0.4798 C   0  0  0  0  0  0  0  0  0  0  0  0
   -3.3010    3.8228    2.0035 C   0  0  0  0  0  0  0  0  0  0  0  0
   -0.1574    0.4516   -0.3568 C   0  0  2  0  0  0  0  0  0  0  0  0
    1.7147   -1.2108   -0.1197 C   0  0  2  0  0  0  0  0  0  0  0  0
    0.5515   -0.6630   -0.9649 C   0  0  0  0  0  0  0  0  0  0  0  0
    1.1885   -1.3891    1.2624 C   0  0  0  0  0  0  0  0  0  0  0  0
    0.5972    1.0195    0.8496 C   0  0  0  0  0  0  0  0  0  0  0  0
    0.8353   -0.0534    1.8761 C   0  0  0  0  0  0  0  0  0  0  0  0
   -0.1442   -1.7311   -1.4111 F   0  0  0  0  0  0  0  0  0  0  0  0
    2.8602   -0.3736   -0.2462 N   0  0  0  0  0  0  0  0  0  0  0  0
    4.2011   -0.5041    0.3729 S   0  0  0  0  0  0  0  0  0  0  0  0
    5.4545   -1.3201   -0.4683 C   0  0  0  0  0  0  0  0  0  0  0  0
    7.5230   -0.1613    0.3821 C   0  0  0  0  0  0  0  0  0  0  0  0
    6.7455   -1.4229    0.2800 C   0  0  0  0  0  0  0  0  0  0  0  0
    7.5584    0.6920   -0.8164 C   0  0  0  0  0  0  0  0  0  0  0  0
    5.7546   -0.7456   -1.8267 C   0  0  2  0  0  0  0  0  0  0  0  0
    6.4539    0.5733   -1.7787 C   0  0  0  0  0  0  0  0  0  0  0  0
    4.5538   -0.6502   -2.5043 F   0  0  0  0  0  0  0  0  0  0  0  0
    7.5202   -2.3842   -0.3700 F   0  0  0  0  0  0  0  0  0  0  0  0
    4.8657    0.9613    0.9488 O   0  0  0  0  0  0  0  0  0  0  0  0
    4.1115   -1.3774    1.8417 O   0  0  0  0  0  0  0  0  0  0  0  0
   -6.1109   -1.7805   -0.7461 H   0  0  0  0  0  0  0  0  0  0  0  0
   -2.7938   -2.4699   -0.3743 H   0  0  0  0  0  0  0  0  0  0  0  0
   -4.6110   -0.2205   -0.8835 H   0  0  0  0  0  0  0  0  0  0  0  0
   -5.2106   -1.6503    1.2198 H   0  0  0  0  0  0  0  0  0  0  0  0
   -3.8274   -2.7096    1.8641 H   0  0  0  0  0  0  0  0  0  0  0  0
   -4.0321   -3.7057   -1.6256 H   0  0  0  0  0  0  0  0  0  0  0  0
   -4.3684   -4.4878    0.5347 H   0  0  0  0  0  0  0  0  0  0  0  0
   -5.9803   -3.7118    0.5590 H   0  0  0  0  0  0  0  0  0  0  0  0
   -5.8519   -0.8544   -3.0348 H   0  0  0  0  0  0  0  0  0  0  0  0
   -6.4384   -2.4913   -2.9994 H   0  0  0  0  0  0  0  0  0  0  0  0
   -2.1242   -1.2037    1.6259 H   0  0  0  0  0  0  0  0  0  0  0  0
   -2.0744    2.4218    1.5492 H   0  0  0  0  0  0  0  0  0  0  0  0
   -2.8689    1.3998   -1.1228 H   0  0  0  0  0  0  0  0  0  0  0  0
   -1.7682   -0.4062   -1.1210 H   0  0  0  0  0  0  0  0  0  0  0  0
   -4.2657    2.7706   -1.6466 H   0  0  0  0  0  0  0  0  0  0  0  0
   -5.3177    2.0034   -0.3938 H   0  0  0  0  0  0  0  0  0  0  0  0
   -5.4074    3.7514   -0.7323 H   0  0  0  0  0  0  0  0  0  0  0  0
   -3.4101    5.3311    0.2323 H   0  0  0  0  0  0  0  0  0  0  0  0
   -2.5994    4.4025   -1.0544 H   0  0  0  0  0  0  0  0  0  0  0  0
   -1.9265    4.4427    0.6528 H   0  0  0  0  0  0  0  0  0  0  0  0
   -4.5924    2.6448    2.2579 H   0  0  0  0  0  0  0  0  0  0  0  0
   -5.3336    4.1424    1.4607 H   0  0  0  0  0  0  0  0  0  0  0  0
   -3.6900    4.1774    2.2853 H   0  0  0  0  0  0  0  0  0  0  0  0
    0.2141    0.6441   -0.6771 H   0  0  0  0  0  0  0  0  0  0  0  0
    1.9714   -2.5075    0.9279 H   0  0  0  0  0  0  0  0  0  0  0  0
    0.5397   -1.5952   -0.9417 H   0  0  0  0  0  0  0  0  0  0  0  0
    1.0054   -1.1599    2.8085 H   0  0  0  0  0  0  0  0  0  0  0  0
    2.8026   -0.9288    2.5483 H   0  0  0  0  0  0  0  0  0  0  0  0
    0.1945    2.0250    1.1179 H   0  0  0  0  0  0  0  0  0  0  0  0
   -0.4337    0.8508    2.2799 H   0  0  0  0  0  0  0  0  0  0  0  0
    2.2586    0.9969    0.9878 H   0  0  0  0  0  0  0  0  0  0  0  0
    1.8055    1.3229    2.7139 H   0  0  0  0  0  0  0  0  0  0  0  0
    2.4004   -0.5843   -0.9368 H   0  0  0  0  0  0  0  0  0  0  0  0
    5.1356   -2.1148   -1.5185 H   0  0  0  0  0  0  0  0  0  0  0  0
    7.2370    0.2485    0.9765 H   0  0  0  0  0  0  0  0  0  0  0  0
    8.5719   -0.2897   -0.0513 H   0  0  0  0  0  0  0  0  0  0  0  0
    7.3833   -1.9593   -1.1571 H   0  0  0  0  0  0  0  0  0  0  0  0
    6.5358    1.8112   -0.6805 H   0  0  0  0  0  0  0  0  0  0  0  0
    8.2269    1.5457   -1.2950 H   0  0  0  0  0  0  0  0  0  0  0  0
    4.7878    0.8367   -1.6502 H   0  0  0  0  0  0  0  0  0  0  0  0
    7.4201   -0.4338   -2.5549 H   0  0  0  0  0  0  0  0  0  0  0  0
    6.6890    1.1551   -3.1610 H   0  0  0  0  0  0  0  0  0  0  0  0
    4.6219    1.1636    0.6141 H   0  0  0  0  0  0  0  0  0  0  0  0
    4.5220   -3.0747    1.0235 H   0  0  0  0  0  0  0  0  0  0  0  0
   -5.9429   -2.2255    1.3455 H   0  0  0  0  0  0  0  0  0  0  0  0
   -4.0335   -1.9767   -1.5697 H   0  0  0  0  0  0  0  0  0  0  0  0
   -4.0590   -1.1456    1.2341 H   0  0  0  0  0  0  0  0  0  0  0  0
   -2.6344   -2.7498    1.0051 H   0  0  0  0  0  0  0  0  0  0  0  0
   -2.1358   -3.4199   -0.6333 H   0  0  0  0  0  0  0  0  0  0  0  0
   -5.5527   -3.3220   -1.3467 H   0  0  0  0  0  0  0  0  0  0  0  0
   -3.9572   -4.7486   -0.6289 H   0  0  0  0  0  0  0  0  0  0  0  0
   -4.2699   -4.2981    1.1075 H   0  0  0  0  0  0  0  0  0  0  0  0
   -6.6215   -0.3565   -0.4470 H   0  0  0  0  0  0  0  0  0  0  0  0
   -7.6356   -1.5611    0.1548 H   0  0  0  0  0  0  0  0  0  0  0  0
   -1.7185   -1.0487   -1.7219 H   0  0  0  0  0  0  0  0  0  0  0  0
   -4.6872    1.2122    0.0743 H   0  0  0  0  0  0  0  0  0  0  0  0
   -2.9192    1.0902    1.6471 H   0  0  0  0  0  0  0  0  0  0  0  0
   -1.7764   -0.7328    0.9838 H   0  0  0  0  0  0  0  0  0  0  0  0
   -4.5270    2.7703   -2.4415 H   0  0  0  0  0  0  0  0  0  0  0  0
   -5.7130    2.7540   -1.1050 H   0  0  0  0  0  0  0  0  0  0  0  0
   -4.9659    4.3652   -1.6301 H   0  0  0  0  0  0  0  0  0  0  0  0
   -2.6602    4.5321   -1.5850 H   0  0  0  0  0  0  0  0  0  0  0  0
   -2.2534    2.8884   -2.1090 H   0  0  0  0  0  0  0  0  0  0  0  0
   -1.5592    3.5754   -0.5348 H   0  0  0  0  0  0  0  0  0  0  0  0
   -4.4335    3.1933    1.4711 H   0  0  0  0  0  0  0  0  0  0  0  0
   -4.6066    4.7357    0.4714 H   0  0  0  0  0  0  0  0  0  0  0  0
   -2.9958    4.2770    1.0623 H   0  0  0  0  0  0  0  0  0  0  0  0
   -0.5773    1.3066   -0.9076 H   0  0  0  0  0  0  0  0  0  0  0  0
    1.4650   -1.1968    1.3954 H   0  0  0  0  0  0  0  0  0  0  0  0
    0.8968   -0.3204   -1.4032 H   0  0  0  0  0  0  0  0  0  0  0  0
    2.4531    0.6957    2.1178 H   0  0  0  0  0  0  0  0  0  0  0  0
    3.1654    1.1290    0.5527 H   0  0  0  0  0  0  0  0  0  0  0  0
   -0.8710    2.2014    1.3080 H   0  0  0  0  0  0  0  0  0  0  0  0
   -0.0774    0.7010    2.0345 H   0  0  0  0  0  0  0  0  0  0  0  0
    1.3149    2.4778   -0.0424 H   0  0  0  0  0  0  0  0  0  0  0  0
    1.4263    2.6909    1.7340 H   0  0  0  0  0  0  0  0  0  0  0  0
    2.8856   -0.5611   -1.0890 H   0  0  0  0  0  0  0  0  0  0  0  0
    5.3576   -2.5863   -0.9008 H   0  0  0  0  0  0  0  0  0  0  0  0
    7.0648   -0.4180    2.1409 H   0  0  0  0  0  0  0  0  0  0  0  0
    8.3926   -0.5358    0.9748 H   0  0  0  0  0  0  0  0  0  0  0  0
    6.5633   -2.5034    1.2386 H   0  0  0  0  0  0  0  0  0  0  0  0
    5.8945    1.1622    0.6427 H   0  0  0  0  0  0  0  0  0  0  0  0
    7.6581    1.5135    0.3902 H   0  0  0  0  0  0  0  0  0  0  0  0
    4.7856    0.0051   -1.6736 H   0  0  0  0  0  0  0  0  0  0  0  0
    7.7727   -0.1269   -1.4233 H   0  0  0  0  0  0  0  0  0  0  0  0
    6.6839    1.2753   -1.8027 H   0  0  0  0  0  0  0  0  0  0  0  0
    4.7223   -0.0060    2.4573 H   0  0  0  0  0  0  0  0  0  0  0  0
    3.7979   -3.4346    0.2336 H   0  0  0  0  0  0  0  0  0  0  0  0
   -4.4679   -3.1418    1.1983 H   0  0  0  0  0  0  0  0  0  0  0  0
   -2.7753   -2.0528   -1.5719 H   0  0  0  0  0  0  0  0  0  0  0  0
   -4.7216   -1.1287    0.3121 H   0  0  0  0  0  0  0  0  0  0  0  0
   -2.8235   -1.9845    1.4909 H   0  0  0  0  0  0  0  0  0  0  0  0
   -1.2898   -1.8677    0.6367 H   0  0  0  0  0  0  0  0  0  0  0  0
   -3.4916   -4.0741   -1.4321 H   0  0  0  0  0  0  0  0  0  0  0  0
   -1.4935   -3.9586   -0.4600 H   0  0  0  0  0  0  0  0  0  0  0  0
   -2.1136   -4.1927    1.1907 H   0  0  0  0  0  0  0  0  0  0  0  0
   -6.4142   -2.9889   -0.8475 H   0  0  0  0  0  0  0  0  0  0  0  0
   -6.4629   -3.7666    0.6373 H   0  0  0  0  0  0  0  0  0  0  0  0
   -3.7773    0.0094   -1.6803 H   0  0  0  0  0  0  0  0  0  0  0  0
   -4.5245    2.1976   -1.2935 H   0  0  0  0  0  0  0  0  0  0  0  0
   -2.4757    2.5800   -2.3466 H   0  0  0  0  0  0  0  0  0  0  0  0
   -1.7662    0.5642   -2.4197 H   0  0  0  0  0  0  0  0  0  0  0  0
   -6.0098    3.7450   -0.2582 H   0  0  0  0  0  0  0  0  0  0  0  0
   -5.4185    2.6121    1.0384 H   0  0  0  0  0  0  0  0  0  0  0  0
   -5.4136    4.4150    1.3622 H   0  0  0  0  0  0  0  0  0  0  0  0
   -4.2559    5.6868   -0.6302 H   0  0  0  0  0  0  0  0  0  0  0  0
   -4.8160    4.4285   -1.7470 H   0  0  0  0  0  0  0  0  0  0  0  0
   -3.0281    4.8346   -1.6455 H   0  0  0  0  0  0  0  0  0  0  0  0
   -2.7610    3.3219    1.7605 H   0  0  0  0  0  0  0  0  0  0  0  0
   -3.4992    4.9562    1.7264 H   0  0  0  0  0  0  0  0  0  0  0  0
   -2.0396    4.5657    0.7024 H   0  0  0  0  0  0  0  0  0  0  0  0
   -0.1438    1.8161   -1.4179 H   0  0  0  0  0  0  0  0  0  0  0  0
    1.0652   -1.8249    0.0460 H   0  0  0  0  0  0  0  0  0  0  0  0
    1.0548    0.1266   -1.9441 H   0  0  0  0  0  0  0  0  0  0  0  0
    2.0115   -0.2955    1.8747 H   0  0  0  0  0  0  0  0  0  0  0  0
    0.2102   -0.4971    1.8847 H   0  0  0  0  0  0  0  0  0  0  0  0
   -0.6734    2.6116    0.5453 H   0  0  0  0  0  0  0  0  0  0  0  0
   -1.1337    1.1060    1.3321 H   0  0  0  0  0  0  0  0  0  0  0  0
    1.7203    1.7097    0.4153 H   0  0  0  0  0  0  0  0  0  0  0  0
    0.9956    1.8170    2.1058 H   0  0  0  0  0  0  0  0  0  0  0  0
    2.6719   -0.4236   -1.4408 H   0  0  0  0  0  0  0  0  0  0  0  0
    4.8100   -2.6558   -0.8468 H   0  0  0  0  0  0  0  0  0  0  0  0
    6.3876   -0.6564    2.2900 H   0  0  0  0  0  0  0  0  0  0  0  0
    7.8172   -1.5876    1.8097 H   0  0  0  0  0  0  0  0  0  0  0  0
    5.4632   -2.6931    1.5589 H   0  0  0  0  0  0  0  0  0  0  0  0
    6.6600    0.8631    0.4611 H   0  0  0  0  0  0  0  0  0  0  0  0
    8.3628    0.2773    0.6439 H   0  0  0  0  0  0  0  0  0  0  0  0
    5.3228    0.1478   -1.3704 H   0  0  0  0  0  0  0  0  0  0  0  0
    7.8681   -1.5355   -1.0379 H   0  0  0  0  0  0  0  0  0  0  0  0
    7.6399    0.1799   -1.6870 H   0  0  0  0  0  0  0  0  0  0  0  0
    3.9758    0.9686    1.3275 H   0  0  0  0  0  0  0  0  0  0  0  0
    3.3094   -3.1111    0.8499 H   0  0  0  0  0  0  0  0  0  0  0  0
   -6.1471   -1.4740   -0.7885 H   0  0  0  0  0  0  0  0  0  0  0  0
   -2.5870   -2.4768   -0.6197 H   0  0  0  0  0  0  0  0  0  0  0  0
   -4.2687   -1.0925   -2.3646 H   0  0  0  0  0  0  0  0  0  0  0  0
   -4.8573   -0.8719    0.6691 H   0  0  0  0  0  0  0  0  0  0  0  0
   -3.2880   -1.3910    1.5077 H   0  0  0  0  0  0  0  0  0  0  0  0
   -5.0544   -4.2374   -0.6166 H   0  0  0  0  0  0  0  0  0  0  0  0
   -3.5525   -3.6227    0.8908 H   0  0  0  0  0  0  0  0  0  0  0  0
   -4.9446   -3.1267    1.8846 H   0  0  0  0  0  0  0  0  0  0  0  0
   -6.5748   -2.0892   -2.9162 H   0  0  0  0  0  0  0  0  0  0  0  0
   -6.9689   -3.4863   -2.0044 H   0  0  0  0  0  0  0  0  0  0  0  0
   -2.0797   -0.2652   -1.9153 H   0  0  0  0  0  0  0  0  0  0  0  0
   -3.8313    1.0878    1.5829 H   0  0  0  0  0  0  0  0  0  0  0  0
   -1.5694    2.2680    0.0944 H   0  0  0  0  0  0  0  0  0  0  0  0
   -1.5313   -0.4909    1.0560 H   0  0  0  0  0  0  0  0  0  0  0  0
   -5.4047    3.2562   -0.5963 H   0  0  0  0  0  0  0  0  0  0  0  0
   -5.6842    2.3458    0.9683 H   0  0  0  0  0  0  0  0  0  0  0  0
   -5.5511    4.1533    0.9352 H   0  0  0  0  0  0  0  0  0  0  0  0
   -3.6862    4.4918   -0.9002 H   0  0  0  0  0  0  0  0  0  0  0  0
   -2.8957    2.9561   -1.2942 H   0  0  0  0  0  0  0  0  0  0  0  0
   -2.0749    4.2190   -0.2161 H   0  0  0  0  0  0  0  0  0  0  0  0
   -3.2521    3.1676    2.8930 H   0  0  0  0  0  0  0  0  0  0  0  0
   -4.0891    4.5849    2.2101 H   0  0  0  0  0  0  0  0  0  0  0  0
   -2.3645    4.3885    1.8284 H   0  0  0  0  0  0  0  0  0  0  0  0
   -0.2783    1.3316   -1.0514 H   0  0  0  0  0  0  0  0  0  0  0  0
    1.9824   -2.2168   -0.5163 H   0  0  0  0  0  0  0  0  0  0  0  0
    1.0908   -0.2573   -1.8790 H   0  0  0  0  0  0  0  0  0  0  0  0
    1.8462   -1.9086    1.9629 H   0  0  0  0  0  0  0  0  0  0  0  0
    0.2796   -2.0550    1.1674 H   0  0  0  0  0  0  0  0  0  0  0  0
    1.5127    1.5563    0.5465 H   0  0  0  0  0  0  0  0  0  0  0  0
   -0.0415    1.7959    1.3563 H   0  0  0  0  0  0  0  0  0  0  0  0
    1.6491    0.3038    2.5650 H   0  0  0  0  0  0  0  0  0  0  0  0
   -0.0890   -0.1917    2.4660 H   0  0  0  0  0  0  0  0  0  0  0  0
    2.7075    0.2520   -1.0697 H   0  0  0  0  0  0  0  0  0  0  0  0
    5.1077   -2.3703   -0.6498 H   0  0  0  0  0  0  0  0  0  0  0  0
    7.1179    0.4192    1.2531 H   0  0  0  0  0  0  0  0  0  0  0  0
    8.5661   -0.4448    0.7128 H   0  0  0  0  0  0  0  0  0  0  0  0
    6.5180   -1.8516    1.2773 H   0  0  0  0  0  0  0  0  0  0  0  0
    7.6818    1.7747   -0.5134 H   0  0  0  0  0  0  0  0  0  0  0  0
    8.5231    0.4720   -1.3666 H   0  0  0  0  0  0  0  0  0  0  0  0
    6.3623   -1.4955   -2.3742 H   0  0  0  0  0  0  0  0  0  0  0  0
    6.7699    0.8284   -2.8115 H   0  0  0  0  0  0  0  0  0  0  0  0
    5.6713    1.3453   -1.5176 H   0  0  0  0  0  0  0  0  0  0  0  0
    4.1695    1.6497    0.7556 H   0  0  0  0  0  0  0  0  0  0  0  0
    4.2768   -2.3055    1.5948 H   0  0  0  0  0  0  0  0  0  0  0  0
  1  3  1  0
  2  3  1  0
  2  4  1  0
  1  5  1  0
  4  6  1  0
  5  6  1  0
  1  7  1  0
  2  8  1  0
  8  9  1  0
  9 10  1  0
 10 11  1  0
  8 12  1  0
 11 12  1  0
 10 13  1  0
 13 14  1  0
 13 15  1  0
 13 16  1  0
 12 17  1  0
 17 19  1  0
 18 19  1  0
 18 20  1  0
 17 21  1  0
 20 22  1  0
 21 22  1  0
 19 23  1  0
 18 24  1  0
 24 25  1  0
 25 26  1  0
 26 28  1  0
 27 28  1  0
 27 29  1  0
 26 30  1  0
 29 31  1  0
 30 31  1  0
 30 32  1  0
 28 33  1  0
 25 34  1  0
 25 35  1  0
 36 38  1  0
 37 38  1  0
 37 39  1  0
 36 40  1  0
 39 41  1  0
 40 41  1  0
 36 42  1  0
 37 43  1  0
 43 44  1  0
 44 45  1  0
 45 46  1  0
 43 47  1  0
 46 47  1  0
 45 48  1  0
 48 49  1  0
 48 50  1  0
 48 51  1  0
 47 52  1  0
 52 54  1  0
 53 54  1  0
 53 55  1  0
 52 56  1  0
 55 57  1  0
 56 57  1  0
 54 58  1  0
 53 59  1  0
 59 60  1  0
 60 61  1  0
 61 63  1  0
 62 63  1  0
 62 64  1  0
 61 65  1  0
 64 66  1  0
 65 66  1  0
 65 67  1  0
 63 68  1  0
 60 69  1  0
 60 70  1  0
 71 73  1  0
 72 73  1  0
 72 74  1  0
 71 75  1  0
 74 76  1  0
 75 76  1  0
 71 77  1  0
 72 78  1  0
 78 79  1  0
 79 80  1  0
 80 81  1  0
 78 82  1  0
 81 82  1  0
 80 83  1  0
 83 84  1  0
 83 85  1  0
 83 86  1  0
 82 87  1  0
 87 89  1  0
 88 89  1  0
 88 90  1  0
 87 91  1  0
 90 92  1  0
 91 92  1  0
 89 93  1  0
 88 94  1  0
 94 95  1  0
 95 96  1  0
 96 98  1  0
 97 98  1  0
 97 99  1  0
 96100  1  0
 99101  1  0
100101  1  0
100102  1  0
 98103  1  0
 95104  1  0
 95105  1  0
106108  1  0
107108  1  0
107109  1  0
106110  1  0
109111  1  0
110111  1  0
106112  1  0
107113  1  0
113114  1  0
114115  1  0
115116  1  0
113117  1  0
116117  1  0
115118  1  0
118119  1  0
118120  1  0
118121  1  0
117122  1  0
122124  1  0
123124  1  0
123125  1  0
122126  1  0
125127  1  0
126127  1  0
124128  1  0
123129  1  0
129130  1  0
130131  1  0
131133  1  0
132133  1  0
132134  1  0
131135  1  0
134136  1  0
135136  1  0
135137  1  0
133138  1  0
130139  1  0
130140  1  0
  1141  1  0
  2142  1  6
  3143  1  0
  4144  1  0
  4145  1  0
  5146  1  0
  6147  1  0
  6148  1  0
  7149  1  0
  7150  1  0
  8151  1  0
 10152  1  1
 11153  1  0
 12154  1  0
 14155  1  0
 14156  1  0
 14157  1  0
 15158  1  0
 15159  1  0
 15160  1  0
 16161  1  0
 16162  1  0
 16163  1  0
 17164  1  6
 18165  1  1
 19166  1  0
 20167  1  0
 20168  1  0
 21169  1  0
 21170  1  0
 22171  1  0
 22172  1  0
 24173  1  0
 26174  1  0
 27175  1  0
 27176  1  0
 28177  1  0
 29178  1  0
 29179  1  0
 30180  1  0
 31181  1  0
 31182  1  0
 34183  1  0
 35184  1  0
 36185  1  0
 37186  1  0
 38187  1  0
 39188  1  0
 39189  1  0
 40190  1  0
 41191  1  0
 41192  1  0
 42193  1  0
 42194  1  0
 43195  1  0
 45196  1  1
 46197  1  0
 47198  1  1
 49199  1  0
 49200  1  0
 49201  1  0
 50202  1  0
 50203  1  0
 50204  1  0
 51205  1  0
 51206  1  0
 51207  1  0
 52208  1  6
 53209  1  0
 54210  1  0
 55211  1  0
 55212  1  0
 56213  1  0
 56214  1  0
 57215  1  0
 57216  1  0
 59217  1  0
 61218  1  0
 62219  1  0
 62220  1  0
 63221  1  0
 64222  1  0
 64223  1  0
 65224  1  0
 66225  1  0
 66226  1  0
 69227  1  0
 70228  1  0
 71229  1  0
 72230  1  6
 73231  1  0
 74232  1  0
 74233  1  0
 75234  1  0
 76235  1  0
 76236  1  0
 77237  1  0
 77238  1  0
 78239  1  6
 80240  1  0
 81241  1  0
 82242  1  0
 84243  1  0
 84244  1  0
 84245  1  0
 85246  1  0
 85247  1  0
 85248  1  0
 86249  1  0
 86250  1  0
 86251  1  0
 87252  1  6
 88253  1  1
 89254  1  0
 90255  1  0
 90256  1  0
 91257  1  0
 91258  1  0
 92259  1  0
 92260  1  0
 94261  1  0
 96262  1  0
 97263  1  0
 97264  1  0
 98265  1  0
 99266  1  0
 99267  1  0
100268  1  0
101269  1  0
101270  1  0
104271  1  0
105272  1  0
106273  1  0
107274  1  1
108275  1  0
109276  1  0
109277  1  0
110278  1  0
111279  1  0
111280  1  0
112281  1  0
112282  1  0
113283  1  6
115284  1  1
116285  1  0
117286  1  1
119287  1  0
119288  1  0
119289  1  0
120290  1  0
120291  1  0
120292  1  0
121293  1  0
121294  1  0
121295  1  0
122296  1  6
123297  1  6
124298  1  0
125299  1  0
125300  1  0
126301  1  0
126302  1  0
127303  1  0
127304  1  0
129305  1  0
131306  1  0
132307  1  0
132308  1  0
133309  1  0
134310  1  0
134311  1  0
135312  1  6
136313  1  0
136314  1  0
139315  1  0
140316  1  0
M  END
>  <PDBID>  (1) 
5HIE

>  <PDB ID>  (1) 
5HIE

>  <Generic Name>  (1) 
Dabrafenib

>  <Brand Name>  (1) 
Tafinlar

>  <DrugBank ID>  (1) 
DB08912

>  <ATC Codes>  (1) 
L01XE23

>  <Ligand ID>  (1) 
P06

>  <Target Name>  (1) 
RAF proto-oncogene serine/threonine-protein kinase

>  <UniProt ID>  (1) 
P04049

>  <PDB ID.1>  (1) 
5HIE

>  <Seq. Identity>  (1) 
77%

$$$$
