PDB_DB00234_08
     RDKit          3D

 58 60  0  0  0  0  0  0  0  0999 V2000
    4.7478   -0.3691    2.6574 C   0  0  0  0  0  0  0  0  0  0  0  0
    3.6237    0.3575    1.9500 C   0  0  0  0  0  0  0  0  0  0  0  0
    3.6084    0.0798    0.5903 O   0  0  0  0  0  0  0  0  0  0  0  0
    2.5819    0.7385   -0.0777 C   0  0  0  0  0  0  0  0  0  0  0  0
    3.1693    1.6193   -1.1163 C   0  0  0  0  0  0  0  0  0  0  0  0
    3.4491    1.0082   -2.4383 C   0  0  0  0  0  0  0  0  0  0  0  0
    2.1739    0.3504   -2.9373 C   0  0  0  0  0  0  0  0  0  0  0  0
    1.9595   -0.7982   -1.9513 C   0  0  0  0  0  0  0  0  0  0  0  0
    1.6202   -0.3062   -0.5929 C   0  0  0  0  0  0  0  0  0  0  0  0
    0.3150    0.1787   -0.6143 O   0  0  0  0  0  0  0  0  0  0  0  0
   -0.5573   -0.5065    0.2422 C   0  0  2  0  0  0  0  0  0  0  0  0
   -1.7638   -0.9449   -0.5055 C   0  0  0  0  0  0  0  0  0  0  0  0
   -2.7863   -1.7224    0.2554 C   0  0  0  0  0  0  0  0  0  0  0  0
   -4.1499   -1.4101   -0.3888 C   0  0  0  0  0  0  0  0  0  0  0  0
   -3.9525   -1.5592   -1.8822 C   0  0  0  0  0  0  0  0  0  0  0  0
   -2.7393   -2.4020   -2.2035 C   0  0  0  0  0  0  0  0  0  0  0  0
   -1.4453   -1.8088   -1.7307 C   0  0  0  0  0  0  0  0  0  0  0  0
   -0.9336    0.5114    1.3201 C   0  0  2  0  0  0  0  0  0  0  0  0
   -1.7845    0.0541    2.2677 O   0  0  0  0  0  0  0  0  0  0  0  0
   -2.6090    1.0405    2.8098 C   0  0  0  0  0  0  0  0  0  0  0  0
   -1.7780    2.2754    3.0109 C   0  0  0  0  0  0  0  0  0  0  0  0
   -1.5006    2.8533    1.7105 N   0  0  0  0  0  0  0  0  0  0  0  0
   -1.3213    1.8207    0.6993 C   0  0  0  0  0  0  0  0  0  0  0  0
    5.6272   -0.4918    1.9664 H   0  0  0  0  0  0  0  0  0  0  0  0
    5.1068    0.2604    3.4981 H   0  0  0  0  0  0  0  0  0  0  0  0
    4.4575   -1.3864    2.9836 H   0  0  0  0  0  0  0  0  0  0  0  0
    2.6918    0.1177    2.4687 H   0  0  0  0  0  0  0  0  0  0  0  0
    3.8795    1.4554    2.0317 H   0  0  0  0  0  0  0  0  0  0  0  0
    2.0310    1.3295    0.6786 H   0  0  0  0  0  0  0  0  0  0  0  0
    4.1417    2.0613   -0.7501 H   0  0  0  0  0  0  0  0  0  0  0  0
    2.5126    2.5121   -1.2841 H   0  0  0  0  0  0  0  0  0  0  0  0
    4.2506    0.2299   -2.2988 H   0  0  0  0  0  0  0  0  0  0  0  0
    3.8287    1.7570   -3.1286 H   0  0  0  0  0  0  0  0  0  0  0  0
    2.3005   -0.1024   -3.9302 H   0  0  0  0  0  0  0  0  0  0  0  0
    1.3660    1.0763   -2.8559 H   0  0  0  0  0  0  0  0  0  0  0  0
    1.3008   -1.5384   -2.3985 H   0  0  0  0  0  0  0  0  0  0  0  0
    2.9795   -1.3056   -1.9311 H   0  0  0  0  0  0  0  0  0  0  0  0
    1.6334   -1.1666    0.1034 H   0  0  0  0  0  0  0  0  0  0  0  0
   -0.0924   -1.3686    0.7433 H   0  0  0  0  0  0  0  0  0  0  0  0
   -2.2684   -0.0067   -0.8751 H   0  0  0  0  0  0  0  0  0  0  0  0
   -2.8143   -1.6368    1.3258 H   0  0  0  0  0  0  0  0  0  0  0  0
   -2.6818   -2.8418    0.0597 H   0  0  0  0  0  0  0  0  0  0  0  0
   -4.4560   -0.3696   -0.1904 H   0  0  0  0  0  0  0  0  0  0  0  0
   -4.9190   -2.1007   -0.0179 H   0  0  0  0  0  0  0  0  0  0  0  0
   -3.8830   -0.6073   -2.4113 H   0  0  0  0  0  0  0  0  0  0  0  0
   -4.8299   -2.1080   -2.2819 H   0  0  0  0  0  0  0  0  0  0  0  0
   -2.9287   -3.4358   -1.8584 H   0  0  0  0  0  0  0  0  0  0  0  0
   -2.7209   -2.4641   -3.3257 H   0  0  0  0  0  0  0  0  0  0  0  0
   -0.7907   -2.6228   -1.3894 H   0  0  0  0  0  0  0  0  0  0  0  0
   -1.0346   -1.1842   -2.5495 H   0  0  0  0  0  0  0  0  0  0  0  0
    0.0458    0.7404    1.8684 H   0  0  0  0  0  0  0  0  0  0  0  0
   -2.9423    0.6459    3.8088 H   0  0  0  0  0  0  0  0  0  0  0  0
   -3.4966    1.2303    2.1933 H   0  0  0  0  0  0  0  0  0  0  0  0
   -0.8144    1.9837    3.4955 H   0  0  0  0  0  0  0  0  0  0  0  0
   -2.3552    2.9849    3.6371 H   0  0  0  0  0  0  0  0  0  0  0  0
   -2.3382    3.4145    1.4293 H   0  0  0  0  0  0  0  0  0  0  0  0
   -0.4931    2.1559    0.0450 H   0  0  0  0  0  0  0  0  0  0  0  0
   -2.2213    1.7222    0.0652 H   0  0  0  0  0  0  0  0  0  0  0  0
  1  2  1  0
  2  3  1  0
  3  4  1  0
  4  5  1  0
  5  6  1  0
  6  7  1  0
  7  8  1  0
  4  9  1  0
  8  9  1  0
  9 10  1  0
 10 11  1  0
 11 12  1  0
 12 13  1  0
 13 14  1  0
 14 15  1  0
 15 16  1  0
 12 17  1  0
 16 17  1  0
 11 18  1  0
 18 19  1  0
 19 20  1  0
 20 21  1  0
 21 22  1  0
 18 23  1  0
 22 23  1  0
  1 24  1  0
  1 25  1  0
  1 26  1  0
  2 27  1  0
  2 28  1  0
  4 29  1  0
  5 30  1  0
  5 31  1  0
  6 32  1  0
  6 33  1  0
  7 34  1  0
  7 35  1  0
  8 36  1  0
  8 37  1  0
  9 38  1  0
 11 39  1  1
 12 40  1  0
 13 41  1  0
 13 42  1  0
 14 43  1  0
 14 44  1  0
 15 45  1  0
 15 46  1  0
 16 47  1  0
 16 48  1  0
 17 49  1  0
 17 50  1  0
 18 51  1  1
 20 52  1  0
 20 53  1  0
 21 54  1  0
 21 55  1  0
 22 56  1  0
 23 57  1  0
 23 58  1  0
M  END
>  <PDBID>  (1) 
4XNX

>  <PDB ID>  (1) 
4XNX

>  <Generic Name>  (1) 
Reboxetine

>  <Brand Name>  (1) 
Davedax#Edronax#Norebox#Prolift#Solvex#Vestra

>  <DrugBank ID>  (1) 
DB00234

>  <ATC Codes>  (1) 
N06AX18

>  <Ligand ID>  (1) 
41X

>  <Target Name>  (1) 
Sodium-dependent noradrenaline transporter

>  <UniProt ID>  (1) 
P23975

>  <PDB ID.1>  (1) 
4XNX

>  <Seq. Identity>  (1) 
58%

$$$$
