PDB_DB06335_00
     RDKit          3D

106114  0  0  0  0  0  0  0  0999 V2000
   -1.2122   -0.3440    0.0602 C   0  0  1  0  0  0  0  0  0  0  0  0
    0.2520   -0.5230   -0.2259 C   0  0  1  0  0  0  0  0  0  0  0  0
   -1.5790    1.1067   -0.1200 C   0  0  0  0  0  0  0  0  0  0  0  0
   -3.0843    1.2556    0.0124 C   0  0  1  0  0  0  0  0  0  0  0  0
   -3.4078   -0.9238   -1.0227 C   0  0  2  0  0  0  0  0  0  0  0  0
   -3.1890   -0.7729    1.4071 C   0  0  1  0  0  0  0  0  0  0  0  0
   -3.8388    0.5125   -1.0405 C   0  0  0  0  0  0  0  0  0  0  0  0
   -3.4882    0.6929    1.3756 C   0  0  0  0  0  0  0  0  0  0  0  0
   -3.8726   -1.5279    0.2932 C   0  0  0  0  0  0  0  0  0  0  0  0
    4.3875   -0.9621   -0.5026 C   0  0  1  0  0  0  0  0  0  0  0  0
    3.3501   -1.9001   -0.9959 C   0  0  0  0  0  0  0  0  0  0  0  0
    4.3804    0.4826   -0.8981 C   0  0  0  0  0  0  0  0  0  0  0  0
    2.8183    2.3819   -0.4372 C   0  0  0  0  0  0  0  0  0  0  0  0
    3.9247    3.3063   -0.6648 N   0  0  0  0  0  0  0  0  0  0  0  0
   -1.9244   -1.0876   -1.0833 C   0  0  0  0  0  0  0  0  0  0  0  0
   -1.6743   -0.9351    1.3424 C   0  0  0  0  0  0  0  0  0  0  0  0
    1.1714    0.2758    0.6548 C   0  0  0  0  0  0  0  0  0  0  0  0
    0.5763   -1.9052   -0.1755 N   0  0  0  0  0  0  0  0  0  0  0  0
    2.4748    0.0627    0.2295 N   0  0  0  0  0  0  0  0  0  0  0  0
    1.0817   -0.1329    2.0033 O   0  0  0  0  0  0  0  0  0  0  0  0
   -3.3617    2.6126   -0.0575 O   0  0  0  0  0  0  0  0  0  0  0  0
    3.0722   -1.1853    0.2759 C   0  0  2  0  0  0  0  0  0  0  0  0
    3.4050    1.0931    0.0914 C   0  0  1  0  0  0  0  0  0  0  0  0
   -1.2122   -0.3440    0.0602 C   0  0  1  0  0  0  0  0  0  0  0  0
    0.2520   -0.5230   -0.2259 C   0  0  1  0  0  0  0  0  0  0  0  0
   -1.5790    1.1067   -0.1200 C   0  0  0  0  0  0  0  0  0  0  0  0
   -3.0843    1.2556    0.0124 C   0  0  1  0  0  0  0  0  0  0  0  0
   -3.4078   -0.9238   -1.0227 C   0  0  2  0  0  0  0  0  0  0  0  0
   -3.1890   -0.7729    1.4071 C   0  0  1  0  0  0  0  0  0  0  0  0
   -3.8388    0.5125   -1.0405 C   0  0  0  0  0  0  0  0  0  0  0  0
   -3.4882    0.6929    1.3756 C   0  0  0  0  0  0  0  0  0  0  0  0
   -3.8726   -1.5279    0.2932 C   0  0  0  0  0  0  0  0  0  0  0  0
    4.3875   -0.9621   -0.5026 C   0  0  1  0  0  0  0  0  0  0  0  0
    3.3501   -1.9001   -0.9959 C   0  0  0  0  0  0  0  0  0  0  0  0
    4.3804    0.4826   -0.8981 C   0  0  0  0  0  0  0  0  0  0  0  0
    2.8183    2.3819   -0.4372 C   0  0  0  0  0  0  0  0  0  0  0  0
    3.9247    3.3063   -0.6648 N   0  0  0  0  0  0  0  0  0  0  0  0
   -1.9244   -1.0876   -1.0833 C   0  0  0  0  0  0  0  0  0  0  0  0
   -1.6743   -0.9351    1.3424 C   0  0  0  0  0  0  0  0  0  0  0  0
    1.1714    0.2758    0.6548 C   0  0  0  0  0  0  0  0  0  0  0  0
    0.5763   -1.9052   -0.1755 N   0  0  0  0  0  0  0  0  0  0  0  0
    2.4748    0.0627    0.2295 N   0  0  0  0  0  0  0  0  0  0  0  0
    1.0817   -0.1329    2.0033 O   0  0  0  0  0  0  0  0  0  0  0  0
   -3.3617    2.6126   -0.0575 O   0  0  0  0  0  0  0  0  0  0  0  0
    3.0722   -1.1853    0.2759 C   0  0  2  0  0  0  0  0  0  0  0  0
    3.4050    1.0931    0.0914 C   0  0  1  0  0  0  0  0  0  0  0  0
    0.4292   -0.1423   -1.2653 H   0  0  0  0  0  0  0  0  0  0  0  0
   -1.1393    1.7740    0.6501 H   0  0  0  0  0  0  0  0  0  0  0  0
   -1.3250    1.4277   -1.1444 H   0  0  0  0  0  0  0  0  0  0  0  0
   -3.8358   -1.5275   -1.8480 H   0  0  0  0  0  0  0  0  0  0  0  0
   -3.5438   -1.2062    2.3567 H   0  0  0  0  0  0  0  0  0  0  0  0
   -4.9174    0.5408   -0.7542 H   0  0  0  0  0  0  0  0  0  0  0  0
   -3.7574    0.9751   -2.0453 H   0  0  0  0  0  0  0  0  0  0  0  0
   -2.8240    1.1969    2.1075 H   0  0  0  0  0  0  0  0  0  0  0  0
   -4.5552    0.9072    1.5562 H   0  0  0  0  0  0  0  0  0  0  0  0
   -4.9523   -1.4365    0.4335 H   0  0  0  0  0  0  0  0  0  0  0  0
   -3.5127   -2.5671    0.3127 H   0  0  0  0  0  0  0  0  0  0  0  0
    5.3105   -1.3647   -0.0770 H   0  0  0  0  0  0  0  0  0  0  0  0
    2.7815   -1.7055   -1.9027 H   0  0  0  0  0  0  0  0  0  0  0  0
    3.5945   -2.9853   -0.8518 H   0  0  0  0  0  0  0  0  0  0  0  0
    3.9466    0.5709   -1.9156 H   0  0  0  0  0  0  0  0  0  0  0  0
    5.3813    0.9542   -0.8207 H   0  0  0  0  0  0  0  0  0  0  0  0
    2.2098    2.8068    0.4118 H   0  0  0  0  0  0  0  0  0  0  0  0
    4.8194    2.9790   -0.2596 H   0  0  0  0  0  0  0  0  0  0  0  0
    3.6684    4.2868   -0.4378 H   0  0  0  0  0  0  0  0  0  0  0  0
   -1.4948   -0.6955   -2.0328 H   0  0  0  0  0  0  0  0  0  0  0  0
   -1.6879   -2.1581   -1.0508 H   0  0  0  0  0  0  0  0  0  0  0  0
   -1.4952   -2.0248    1.3043 H   0  0  0  0  0  0  0  0  0  0  0  0
   -1.2637   -0.4172    2.2141 H   0  0  0  0  0  0  0  0  0  0  0  0
    0.8282    1.3278    0.6293 H   0  0  0  0  0  0  0  0  0  0  0  0
    0.5140   -2.4553   -1.0236 H   0  0  0  0  0  0  0  0  0  0  0  0
    0.9318   -2.3129    0.6718 H   0  0  0  0  0  0  0  0  0  0  0  0
    1.5304   -1.0142    2.1289 H   0  0  0  0  0  0  0  0  0  0  0  0
   -3.1250    3.1106    0.7686 H   0  0  0  0  0  0  0  0  0  0  0  0
    3.2358   -1.6924    1.2477 H   0  0  0  0  0  0  0  0  0  0  0  0
    3.9860    1.2647    1.0353 H   0  0  0  0  0  0  0  0  0  0  0  0
    0.4292   -0.1423   -1.2653 H   0  0  0  0  0  0  0  0  0  0  0  0
   -1.1393    1.7740    0.6501 H   0  0  0  0  0  0  0  0  0  0  0  0
   -1.3250    1.4277   -1.1444 H   0  0  0  0  0  0  0  0  0  0  0  0
   -3.8358   -1.5275   -1.8480 H   0  0  0  0  0  0  0  0  0  0  0  0
   -3.5438   -1.2062    2.3567 H   0  0  0  0  0  0  0  0  0  0  0  0
   -4.9174    0.5408   -0.7542 H   0  0  0  0  0  0  0  0  0  0  0  0
   -3.7574    0.9751   -2.0453 H   0  0  0  0  0  0  0  0  0  0  0  0
   -2.8240    1.1969    2.1075 H   0  0  0  0  0  0  0  0  0  0  0  0
   -4.5552    0.9072    1.5562 H   0  0  0  0  0  0  0  0  0  0  0  0
   -4.9523   -1.4365    0.4335 H   0  0  0  0  0  0  0  0  0  0  0  0
   -3.5127   -2.5671    0.3127 H   0  0  0  0  0  0  0  0  0  0  0  0
    5.3105   -1.3647   -0.0770 H   0  0  0  0  0  0  0  0  0  0  0  0
    2.7815   -1.7055   -1.9027 H   0  0  0  0  0  0  0  0  0  0  0  0
    3.5945   -2.9853   -0.8518 H   0  0  0  0  0  0  0  0  0  0  0  0
    3.9466    0.5709   -1.9156 H   0  0  0  0  0  0  0  0  0  0  0  0
    5.3813    0.9542   -0.8207 H   0  0  0  0  0  0  0  0  0  0  0  0
    2.2098    2.8068    0.4118 H   0  0  0  0  0  0  0  0  0  0  0  0
    4.8194    2.9790   -0.2596 H   0  0  0  0  0  0  0  0  0  0  0  0
    3.6684    4.2868   -0.4378 H   0  0  0  0  0  0  0  0  0  0  0  0
   -1.4948   -0.6955   -2.0328 H   0  0  0  0  0  0  0  0  0  0  0  0
   -1.6879   -2.1581   -1.0508 H   0  0  0  0  0  0  0  0  0  0  0  0
   -1.4952   -2.0248    1.3043 H   0  0  0  0  0  0  0  0  0  0  0  0
   -1.2637   -0.4172    2.2141 H   0  0  0  0  0  0  0  0  0  0  0  0
    0.8282    1.3278    0.6293 H   0  0  0  0  0  0  0  0  0  0  0  0
    0.5140   -2.4553   -1.0236 H   0  0  0  0  0  0  0  0  0  0  0  0
    0.9318   -2.3129    0.6718 H   0  0  0  0  0  0  0  0  0  0  0  0
    1.5304   -1.0142    2.1289 H   0  0  0  0  0  0  0  0  0  0  0  0
   -3.1250    3.1106    0.7686 H   0  0  0  0  0  0  0  0  0  0  0  0
    3.2358   -1.6924    1.2477 H   0  0  0  0  0  0  0  0  0  0  0  0
    3.9860    1.2647    1.0353 H   0  0  0  0  0  0  0  0  0  0  0  0
  1  2  1  0
  1  3  1  0
  3  4  1  0
  4  7  1  0
  5  7  1  0
  4  8  1  0
  6  8  1  0
  5  9  1  0
  6  9  1  0
 10 11  1  0
 10 12  1  0
 13 14  1  0
  1 15  1  6
  5 15  1  0
  1 16  1  0
  6 16  1  0
  2 17  1  0
  2 18  1  0
 17 19  1  0
 17 20  1  0
  4 21  1  1
 10 22  1  0
 11 22  1  0
 19 22  1  0
 12 23  1  0
 13 23  1  0
 19 23  1  0
 24 25  1  0
 24 26  1  1
 26 27  1  0
 27 30  1  0
 28 30  1  0
 27 31  1  0
 29 31  1  0
 28 32  1  0
 29 32  1  0
 33 34  1  0
 33 35  1  0
 36 37  1  0
 24 38  1  0
 28 38  1  0
 24 39  1  0
 29 39  1  0
 25 40  1  0
 25 41  1  0
 40 42  1  0
 40 43  1  0
 27 44  1  1
 33 45  1  0
 34 45  1  0
 42 45  1  0
 35 46  1  0
 36 46  1  0
 42 46  1  0
  2 47  1  6
  3 48  1  0
  3 49  1  0
  5 50  1  6
  6 51  1  1
  7 52  1  0
  7 53  1  0
  8 54  1  0
  8 55  1  0
  9 56  1  0
  9 57  1  0
 10 58  1  1
 11 59  1  0
 11 60  1  0
 12 61  1  0
 12 62  1  0
 13 63  1  0
 14 64  1  0
 14 65  1  0
 15 66  1  0
 15 67  1  0
 16 68  1  0
 16 69  1  0
 17 70  1  0
 18 71  1  0
 18 72  1  0
 20 73  1  0
 21 74  1  0
 22 75  1  1
 23 76  1  1
 25 77  1  6
 26 78  1  0
 26 79  1  0
 28 80  1  6
 29 81  1  1
 30 82  1  0
 30 83  1  0
 31 84  1  0
 31 85  1  0
 32 86  1  0
 32 87  1  0
 33 88  1  1
 34 89  1  0
 34 90  1  0
 35 91  1  0
 35 92  1  0
 36 93  1  0
 37 94  1  0
 37 95  1  0
 38 96  1  0
 38 97  1  0
 39 98  1  0
 39 99  1  0
 40100  1  0
 41101  1  0
 41102  1  0
 43103  1  0
 44104  1  0
 45105  1  1
 46106  1  1
M  END
>  <PDBID>  (1) 
3BJM

>  <PDB ID>  (1) 
3BJM

>  <Generic Name>  (1) 
Saxagliptin

>  <Brand Name>  (1) 
Kombiglyze XR#Komboglyze#Onglyza#Qtern

>  <DrugBank ID>  (1) 
DB06335

>  <ATC Codes>  (1) 
A10BD10#A10BH03#A10BD21

>  <Ligand ID>  (1) 
BJM

>  <Target Name>  (1) 
Dipeptidyl peptidase 4

>  <UniProt ID>  (1) 
P27487

>  <PDB ID.1>  (1) 
3BJM

>  <Seq. Identity>  (1) 
100%

$$$$
