PDB_DB00320_08
     RDKit          3D

100107  0  0  0  0  0  0  0  0999 V2000
   -2.8067   -0.3096   -0.5048 C   0  0  0  0  0  0  0  0  0  0  0  0
   -4.1472    0.1227    0.0069 C   0  0  2  0  0  0  0  0  0  0  0  0
   -4.9159   -1.0211    0.6347 C   0  0  2  0  0  0  0  0  0  0  0  0
   -6.1870   -0.3837    1.1453 C   0  0  2  0  0  0  0  0  0  0  0  0
   -4.2490   -1.7073    1.7597 C   0  0  0  0  0  0  0  0  0  0  0  0
   -5.1601   -2.8347    2.2112 C   0  0  0  0  0  0  0  0  0  0  0  0
   -6.5432   -2.7334    1.6334 C   0  0  0  0  0  0  0  0  0  0  0  0
   -7.0894   -1.3478    1.8546 C   0  0  0  0  0  0  0  0  0  0  0  0
   -8.4036   -1.1542    1.3315 N   0  0  0  0  0  0  0  0  0  0  0  0
   -8.3494    0.0322    0.4533 C   0  0  0  0  0  0  0  0  0  0  0  0
   -7.0059   -0.1518   -0.1399 C   0  0  0  0  0  0  0  0  0  0  0  0
   -6.3681    1.0484   -0.7787 C   0  0  0  0  0  0  0  0  0  0  0  0
   -4.9640    0.6127   -1.1607 C   0  0  1  0  0  0  0  0  0  0  0  0
   -4.3726    1.6175   -1.9641 N   0  0  0  0  0  0  0  0  0  0  0  0
   -5.1303    1.7524   -3.1882 C   0  0  0  0  0  0  0  0  0  0  0  0
   -2.9981    1.4089   -2.3007 C   0  0  0  0  0  0  0  0  0  0  0  0
   -2.1765    0.9374   -1.1165 C   0  0  2  0  0  0  0  0  0  0  0  0
   -0.7698    0.7196   -1.5490 C   0  0  0  0  0  0  0  0  0  0  0  0
   -0.3645    1.9606   -2.1256 O   0  0  0  0  0  0  0  0  0  0  0  0
    0.1592    0.3107   -0.5742 N   0  0  0  0  0  0  0  0  0  0  0  0
    0.5923    1.1400    0.4565 C   0  0  2  0  0  0  0  0  0  0  0  0
   -0.3851    1.6209    1.4546 C   0  0  0  0  0  0  0  0  0  0  0  0
    1.3221    2.1960   -0.1314 O   0  0  0  0  0  0  0  0  0  0  0  0
    1.7490    0.3789    1.1730 C   0  0  0  0  0  0  0  0  0  0  0  0
    1.3269   -0.8764    1.5110 O   0  0  0  0  0  0  0  0  0  0  0  0
    2.7414    0.4786    0.1635 N   0  0  0  0  0  0  0  0  0  0  0  0
    2.5869    1.7565   -0.4153 C   0  0  1  0  0  0  0  0  0  0  0  0
    2.7956    1.7011   -1.8172 O   0  0  0  0  0  0  0  0  0  0  0  0
    3.5188    2.8363    0.1633 C   0  0  2  0  0  0  0  0  0  0  0  0
    4.0137    3.7398   -0.9364 C   0  0  0  0  0  0  0  0  0  0  0  0
    5.3250    4.2500   -0.3877 C   0  0  0  0  0  0  0  0  0  0  0  0
    5.7034    3.3169    0.7115 C   0  0  0  0  0  0  0  0  0  0  0  0
    4.6779    2.3069    0.7972 N   0  0  0  0  0  0  0  0  0  0  0  0
    5.1193    1.0602    0.1936 C   0  0  0  0  0  0  0  0  0  0  0  0
    5.3222    1.1713   -1.1594 O   0  0  0  0  0  0  0  0  0  0  0  0
    4.0467    0.0254    0.4765 C   0  0  2  0  0  0  0  0  0  0  0  0
    4.3403   -1.1888   -0.3944 C   0  0  0  0  0  0  0  0  0  0  0  0
    5.7436   -1.7270   -0.0915 C   0  0  0  0  0  0  0  0  0  0  0  0
    5.9357   -2.9137   -1.0061 C   0  0  0  0  0  0  0  0  0  0  0  0
    7.0964   -3.7812   -0.5905 C   0  0  0  0  0  0  0  0  0  0  0  0
    6.8430   -4.2601    0.8198 C   0  0  0  0  0  0  0  0  0  0  0  0
    6.9091   -3.0222    1.7123 C   0  0  0  0  0  0  0  0  0  0  0  0
    5.7451   -2.1224    1.3618 C   0  0  0  0  0  0  0  0  0  0  0  0
   -2.9783   -1.0231   -1.3562 H   0  0  0  0  0  0  0  0  0  0  0  0
   -2.1649   -0.7317    0.2532 H   0  0  0  0  0  0  0  0  0  0  0  0
   -4.0658    0.9317    0.7509 H   0  0  0  0  0  0  0  0  0  0  0  0
   -5.2153   -1.7743   -0.1190 H   0  0  0  0  0  0  0  0  0  0  0  0
   -6.0151    0.5489    1.6755 H   0  0  0  0  0  0  0  0  0  0  0  0
   -4.0151   -1.0214    2.6118 H   0  0  0  0  0  0  0  0  0  0  0  0
   -3.2563   -2.0798    1.3977 H   0  0  0  0  0  0  0  0  0  0  0  0
   -5.1731   -2.9251    3.2988 H   0  0  0  0  0  0  0  0  0  0  0  0
   -4.7102   -3.7762    1.7953 H   0  0  0  0  0  0  0  0  0  0  0  0
   -6.6152   -3.0783    0.6049 H   0  0  0  0  0  0  0  0  0  0  0  0
   -7.1958   -3.4288    2.2373 H   0  0  0  0  0  0  0  0  0  0  0  0
   -7.0892   -1.1376    2.9287 H   0  0  0  0  0  0  0  0  0  0  0  0
   -9.1284   -1.0154    2.0669 H   0  0  0  0  0  0  0  0  0  0  0  0
   -8.3425    0.9407    1.0822 H   0  0  0  0  0  0  0  0  0  0  0  0
   -9.1582    0.0084   -0.2957 H   0  0  0  0  0  0  0  0  0  0  0  0
   -6.9055   -1.0022   -0.8245 H   0  0  0  0  0  0  0  0  0  0  0  0
   -6.9033    1.2969   -1.6934 H   0  0  0  0  0  0  0  0  0  0  0  0
   -6.3298    1.9377   -0.1151 H   0  0  0  0  0  0  0  0  0  0  0  0
   -5.1187   -0.2916   -1.8192 H   0  0  0  0  0  0  0  0  0  0  0  0
   -4.4482    1.8570   -4.0606 H   0  0  0  0  0  0  0  0  0  0  0  0
   -5.7385    0.8246   -3.3947 H   0  0  0  0  0  0  0  0  0  0  0  0
   -5.7930    2.6437   -3.1692 H   0  0  0  0  0  0  0  0  0  0  0  0
   -2.5654    2.3572   -2.6462 H   0  0  0  0  0  0  0  0  0  0  0  0
   -2.8697    0.6609   -3.1014 H   0  0  0  0  0  0  0  0  0  0  0  0
   -2.2422    1.7368   -0.3678 H   0  0  0  0  0  0  0  0  0  0  0  0
   -0.7403   -0.0039   -2.3915 H   0  0  0  0  0  0  0  0  0  0  0  0
   -0.3190    1.9227   -3.0923 H   0  0  0  0  0  0  0  0  0  0  0  0
    0.0325   -0.6761   -0.2426 H   0  0  0  0  0  0  0  0  0  0  0  0
   -1.2401    0.9469    1.5866 H   0  0  0  0  0  0  0  0  0  0  0  0
    0.1033    1.7505    2.4770 H   0  0  0  0  0  0  0  0  0  0  0  0
   -0.7909    2.6294    1.1669 H   0  0  0  0  0  0  0  0  0  0  0  0
    2.0007    0.9227    2.1108 H   0  0  0  0  0  0  0  0  0  0  0  0
    1.4707   -1.5827    0.8618 H   0  0  0  0  0  0  0  0  0  0  0  0
    2.2978    2.4681   -2.1902 H   0  0  0  0  0  0  0  0  0  0  0  0
    2.9816    3.4475    0.9361 H   0  0  0  0  0  0  0  0  0  0  0  0
    4.1688    3.1160   -1.8430 H   0  0  0  0  0  0  0  0  0  0  0  0
    3.2919    4.5630   -1.1186 H   0  0  0  0  0  0  0  0  0  0  0  0
    6.1163    4.2524   -1.1760 H   0  0  0  0  0  0  0  0  0  0  0  0
    5.1838    5.2946   -0.0549 H   0  0  0  0  0  0  0  0  0  0  0  0
    6.6828    2.8126    0.5182 H   0  0  0  0  0  0  0  0  0  0  0  0
    5.7809    3.9060    1.6622 H   0  0  0  0  0  0  0  0  0  0  0  0
    6.0516    0.7869    0.7189 H   0  0  0  0  0  0  0  0  0  0  0  0
    6.2795    1.3158   -1.3317 H   0  0  0  0  0  0  0  0  0  0  0  0
    4.1083   -0.2186    1.5531 H   0  0  0  0  0  0  0  0  0  0  0  0
    4.2923   -0.8591   -1.4534 H   0  0  0  0  0  0  0  0  0  0  0  0
    3.6061   -1.9669   -0.1248 H   0  0  0  0  0  0  0  0  0  0  0  0
    6.4804   -0.9360   -0.2846 H   0  0  0  0  0  0  0  0  0  0  0  0
    6.1804   -2.4859   -2.0106 H   0  0  0  0  0  0  0  0  0  0  0  0
    5.0132   -3.4938   -1.1174 H   0  0  0  0  0  0  0  0  0  0  0  0
    8.0431   -3.2520   -0.6831 H   0  0  0  0  0  0  0  0  0  0  0  0
    7.0419   -4.6935   -1.2341 H   0  0  0  0  0  0  0  0  0  0  0  0
    7.5899   -5.0167    1.1530 H   0  0  0  0  0  0  0  0  0  0  0  0
    5.8122   -4.6618    0.8518 H   0  0  0  0  0  0  0  0  0  0  0  0
    7.8778   -2.5296    1.6075 H   0  0  0  0  0  0  0  0  0  0  0  0
    6.7446   -3.3920    2.7460 H   0  0  0  0  0  0  0  0  0  0  0  0
    4.8003   -2.5836    1.6844 H   0  0  0  0  0  0  0  0  0  0  0  0
    5.8681   -1.2084    1.9694 H   0  0  0  0  0  0  0  0  0  0  0  0
  1  2  1  0
  2  3  1  0
  3  4  1  0
  3  5  1  0
  5  6  1  0
  6  7  1  0
  4  8  1  0
  7  8  1  0
  8  9  1  0
  9 10  1  0
  4 11  1  0
 10 11  1  0
 11 12  1  0
  2 13  1  0
 12 13  1  0
 13 14  1  0
 14 15  1  0
 14 16  1  0
  1 17  1  0
 16 17  1  0
 17 18  1  0
 18 19  1  0
 18 20  1  0
 21 20  1  6
 21 22  1  0
 21 23  1  0
 21 24  1  0
 24 25  1  0
 24 26  1  0
 23 27  1  0
 26 27  1  0
 27 28  1  6
 27 29  1  0
 29 30  1  0
 30 31  1  0
 31 32  1  0
 29 33  1  0
 32 33  1  0
 33 34  1  0
 34 35  1  0
 26 36  1  0
 34 36  1  0
 36 37  1  0
 37 38  1  0
 38 39  1  0
 39 40  1  0
 40 41  1  0
 41 42  1  0
 38 43  1  0
 42 43  1  0
  1 44  1  0
  1 45  1  0
  2 46  1  1
  3 47  1  6
  4 48  1  1
  5 49  1  0
  5 50  1  0
  6 51  1  0
  6 52  1  0
  7 53  1  0
  7 54  1  0
  8 55  1  0
  9 56  1  0
 10 57  1  0
 10 58  1  0
 11 59  1  0
 12 60  1  0
 12 61  1  0
 13 62  1  6
 15 63  1  0
 15 64  1  0
 15 65  1  0
 16 66  1  0
 16 67  1  0
 17 68  1  1
 18 69  1  0
 19 70  1  0
 20 71  1  0
 22 72  1  0
 22 73  1  0
 22 74  1  0
 24 75  1  0
 25 76  1  0
 28 77  1  0
 29 78  1  1
 30 79  1  0
 30 80  1  0
 31 81  1  0
 31 82  1  0
 32 83  1  0
 32 84  1  0
 34 85  1  0
 35 86  1  0
 36 87  1  1
 37 88  1  0
 37 89  1  0
 38 90  1  0
 39 91  1  0
 39 92  1  0
 40 93  1  0
 40 94  1  0
 41 95  1  0
 41 96  1  0
 42 97  1  0
 42 98  1  0
 43 99  1  0
 43100  1  0
M  END
>  <PDBID>  (1) 
4IAQ

>  <PDB ID>  (1) 
4IAQ

>  <Generic Name>  (1) 
Dihydroergotamine

>  <Brand Name>  (1) 
D.H.E. 45#Dihydroergotamine (dhe), 1mg/ml#Dihydroergotamine Mesylate#Dihydroergotamine Mesylate Injection USP#Migranal#Migranal Nasal Spray 4mg/ml#PMS-dihydroergotamine#Dihydergot#Ergont#Ergotonin#Ikaran#Orstanorm#Verladyn

>  <DrugBank ID>  (1) 
DB00320

>  <ATC Codes>  (1) 
N02CA01#N02CA51

>  <Ligand ID>  (1) 
2GM

>  <Target Name>  (1) 
5-hydroxytryptamine receptor 1D

>  <UniProt ID>  (1) 
P28221

>  <PDB ID.1>  (1) 
4IAQ

>  <Seq. Identity>  (1) 
55%

$$$$
