PDB_DB08877_01
     RDKit          3D

114120  0  0  0  0  0  0  0  0999 V2000
   -2.2266   -0.8117   -2.5004 C   0  0  0  0  0  0  0  0  0  0  0  0
   -3.3505   -0.4383   -3.4843 C   0  0  0  0  0  0  0  0  0  0  0  0
   -4.3607    0.2968   -2.5952 C   0  0  0  0  0  0  0  0  0  0  0  0
   -4.2899   -0.5428   -1.3466 C   0  0  0  0  0  0  0  0  0  0  0  0
   -2.8837   -0.8987   -1.1830 C   0  0  0  0  0  0  0  0  0  0  0  0
   -2.1450   -0.1980   -0.0823 C   0  0  1  0  0  0  0  0  0  0  0  0
   -2.8930   -0.2786    1.2442 C   0  0  0  0  0  0  0  0  0  0  0  0
   -2.1134    0.4416    2.3262 C   0  0  0  0  0  0  0  0  0  0  0  0
   -2.8125    0.3805    3.6022 N   0  0  0  0  0  0  0  0  0  0  0  0
   -0.8743   -0.7504    0.1233 N   0  0  0  0  0  0  0  0  0  0  0  0
    0.1653   -0.7315   -0.7972 C   0  0  0  0  0  0  0  0  0  0  0  0
   -0.7513   -1.8191    0.9769 N   0  0  0  0  0  0  0  0  0  0  0  0
    0.6084   -2.3042    0.8740 C   0  0  0  0  0  0  0  0  0  0  0  0
    1.3276   -1.2233    0.1004 C   0  0  0  0  0  0  0  0  0  0  0  0
    1.9212   -0.1621    0.9464 C   0  0  0  0  0  0  0  0  0  0  0  0
    2.9518   -0.7574    1.7637 N   0  0  0  0  0  0  0  0  0  0  0  0
    4.1772   -0.0527    1.8482 C   0  0  0  0  0  0  0  0  0  0  0  0
    4.1051    1.3702    1.8920 N   0  0  0  0  0  0  0  0  0  0  0  0
    3.2422    1.9661    0.9331 C   0  0  0  0  0  0  0  0  0  0  0  0
    2.4064    0.9964    0.1369 C   0  0  0  0  0  0  0  0  0  0  0  0
    3.2575    0.6735   -1.0328 C   0  0  0  0  0  0  0  0  0  0  0  0
    4.1723    1.8425   -1.1856 C   0  0  0  0  0  0  0  0  0  0  0  0
    3.9636    2.7311   -0.0628 N   0  0  0  0  0  0  0  0  0  0  0  0
   -2.3088   -0.1865   -2.3323 C   0  0  0  0  0  0  0  0  0  0  0  0
   -3.2180    1.0506   -2.3924 C   0  0  0  0  0  0  0  0  0  0  0  0
   -4.5778    0.5245   -1.9097 C   0  0  0  0  0  0  0  0  0  0  0  0
   -4.3289   -0.8892   -1.5004 C   0  0  0  0  0  0  0  0  0  0  0  0
   -2.8474   -0.8686   -1.1343 C   0  0  0  0  0  0  0  0  0  0  0  0
   -2.5611   -0.3443    0.1783 C   0  0  1  0  0  0  0  0  0  0  0  0
   -3.1956   -1.1438    1.3201 C   0  0  0  0  0  0  0  0  0  0  0  0
   -2.8618   -0.5142    2.6504 C   0  0  0  0  0  0  0  0  0  0  0  0
   -3.4429   -1.2443    3.7594 N   0  0  0  0  0  0  0  0  0  0  0  0
   -1.2371   -0.1160    0.5218 N   0  0  0  0  0  0  0  0  0  0  0  0
   -0.3916    0.8480    0.0219 C   0  0  0  0  0  0  0  0  0  0  0  0
   -0.5313   -1.2029    1.0098 N   0  0  0  0  0  0  0  0  0  0  0  0
    0.8448   -1.0482    0.6205 C   0  0  0  0  0  0  0  0  0  0  0  0
    0.8861    0.1093   -0.3430 C   0  0  0  0  0  0  0  0  0  0  0  0
    2.0927    0.9988   -0.0960 C   0  0  1  0  0  0  0  0  0  0  0  0
    2.2262    1.3647    1.2647 N   0  0  0  0  0  0  0  0  0  0  0  0
    3.5584    1.2344    1.7997 C   0  0  0  0  0  0  0  0  0  0  0  0
    4.6156    1.6327    0.9395 N   0  0  0  0  0  0  0  0  0  0  0  0
    4.5589    1.2024   -0.4152 C   0  0  0  0  0  0  0  0  0  0  0  0
    3.2850    0.4759   -0.7808 C   0  0  0  0  0  0  0  0  0  0  0  0
    3.6403   -0.9516   -0.5892 C   0  0  0  0  0  0  0  0  0  0  0  0
    5.0796   -0.9825   -1.0768 C   0  0  0  0  0  0  0  0  0  0  0  0
    5.6316    0.3203   -0.8029 N   0  0  0  0  0  0  0  0  0  0  0  0
   -1.4523   -0.0074   -2.5320 H   0  0  0  0  0  0  0  0  0  0  0  0
   -1.8315   -1.7983   -2.8575 H   0  0  0  0  0  0  0  0  0  0  0  0
   -3.7753   -1.3414   -3.9191 H   0  0  0  0  0  0  0  0  0  0  0  0
   -2.9582    0.2698   -4.2287 H   0  0  0  0  0  0  0  0  0  0  0  0
   -4.1273    1.3470   -2.4625 H   0  0  0  0  0  0  0  0  0  0  0  0
   -5.3416    0.1969   -3.1008 H   0  0  0  0  0  0  0  0  0  0  0  0
   -4.8717   -1.4779   -1.6122 H   0  0  0  0  0  0  0  0  0  0  0  0
   -4.8432   -0.1260   -0.5008 H   0  0  0  0  0  0  0  0  0  0  0  0
   -2.8773   -2.0297   -0.9164 H   0  0  0  0  0  0  0  0  0  0  0  0
   -2.0597    0.8765   -0.3265 H   0  0  0  0  0  0  0  0  0  0  0  0
   -2.9767   -1.3397    1.5543 H   0  0  0  0  0  0  0  0  0  0  0  0
   -3.8837    0.1548    1.2385 H   0  0  0  0  0  0  0  0  0  0  0  0
   -1.0914    0.0400    2.4063 H   0  0  0  0  0  0  0  0  0  0  0  0
   -2.0138    1.5346    2.0903 H   0  0  0  0  0  0  0  0  0  0  0  0
   -2.0629    0.4048    4.3453 H   0  0  0  0  0  0  0  0  0  0  0  0
   -3.4123    1.2166    3.7695 H   0  0  0  0  0  0  0  0  0  0  0  0
    0.0699   -1.5204   -1.5873 H   0  0  0  0  0  0  0  0  0  0  0  0
    0.4294    0.2541   -1.2221 H   0  0  0  0  0  0  0  0  0  0  0  0
   -1.3587   -2.6002    0.5836 H   0  0  0  0  0  0  0  0  0  0  0  0
    1.0146   -2.3496    1.9211 H   0  0  0  0  0  0  0  0  0  0  0  0
    0.6938   -3.2711    0.3551 H   0  0  0  0  0  0  0  0  0  0  0  0
    2.0607   -1.7140   -0.5814 H   0  0  0  0  0  0  0  0  0  0  0  0
    1.1529    0.2253    1.6443 H   0  0  0  0  0  0  0  0  0  0  0  0
    2.6143   -1.2128    2.6185 H   0  0  0  0  0  0  0  0  0  0  0  0
    4.9476   -0.4058    1.1003 H   0  0  0  0  0  0  0  0  0  0  0  0
    4.6481   -0.3607    2.8329 H   0  0  0  0  0  0  0  0  0  0  0  0
    5.0879    1.7319    1.7028 H   0  0  0  0  0  0  0  0  0  0  0  0
    2.5664    2.6775    1.4508 H   0  0  0  0  0  0  0  0  0  0  0  0
    1.5203    1.5729   -0.2109 H   0  0  0  0  0  0  0  0  0  0  0  0
    2.6510    0.6209   -1.9764 H   0  0  0  0  0  0  0  0  0  0  0  0
    3.7680   -0.3076   -0.9777 H   0  0  0  0  0  0  0  0  0  0  0  0
    3.9824    2.4298   -2.1108 H   0  0  0  0  0  0  0  0  0  0  0  0
    5.2273    1.5087   -1.2540 H   0  0  0  0  0  0  0  0  0  0  0  0
    4.9053    3.0427    0.2662 H   0  0  0  0  0  0  0  0  0  0  0  0
   -1.2576    0.0186   -2.3630 H   0  0  0  0  0  0  0  0  0  0  0  0
   -2.6159   -0.8170   -3.2416 H   0  0  0  0  0  0  0  0  0  0  0  0
   -3.2735    1.4429   -3.4247 H   0  0  0  0  0  0  0  0  0  0  0  0
   -2.8936    1.8046   -1.6761 H   0  0  0  0  0  0  0  0  0  0  0  0
   -5.0080    1.1587   -1.1343 H   0  0  0  0  0  0  0  0  0  0  0  0
   -5.2528    0.5607   -2.8052 H   0  0  0  0  0  0  0  0  0  0  0  0
   -4.3994   -1.5289   -2.4018 H   0  0  0  0  0  0  0  0  0  0  0  0
   -4.9798   -1.2917   -0.7423 H   0  0  0  0  0  0  0  0  0  0  0  0
   -2.5397   -1.9631   -1.2348 H   0  0  0  0  0  0  0  0  0  0  0  0
   -3.0958    0.6719    0.2827 H   0  0  0  0  0  0  0  0  0  0  0  0
   -2.7943   -2.1749    1.3286 H   0  0  0  0  0  0  0  0  0  0  0  0
   -4.2768   -1.1993    1.2409 H   0  0  0  0  0  0  0  0  0  0  0  0
   -1.7858   -0.3476    2.7733 H   0  0  0  0  0  0  0  0  0  0  0  0
   -3.3223    0.5180    2.7307 H   0  0  0  0  0  0  0  0  0  0  0  0
   -2.7943   -1.0696    4.5853 H   0  0  0  0  0  0  0  0  0  0  0  0
   -4.3814   -0.9009    4.0517 H   0  0  0  0  0  0  0  0  0  0  0  0
   -0.7242    1.4881   -0.8037 H   0  0  0  0  0  0  0  0  0  0  0  0
   -0.0864    1.6155    0.8523 H   0  0  0  0  0  0  0  0  0  0  0  0
   -0.8942   -2.0647    0.5290 H   0  0  0  0  0  0  0  0  0  0  0  0
    1.4078   -0.7660    1.5441 H   0  0  0  0  0  0  0  0  0  0  0  0
    1.2542   -1.9831    0.1733 H   0  0  0  0  0  0  0  0  0  0  0  0
    0.8200   -0.2311   -1.3709 H   0  0  0  0  0  0  0  0  0  0  0  0
    1.8151    1.9622   -0.6411 H   0  0  0  0  0  0  0  0  0  0  0  0
    1.7321    2.2252    1.5426 H   0  0  0  0  0  0  0  0  0  0  0  0
    3.7354    0.2090    2.2404 H   0  0  0  0  0  0  0  0  0  0  0  0
    3.5952    1.9154    2.7020 H   0  0  0  0  0  0  0  0  0  0  0  0
    5.5194    1.3277    1.3616 H   0  0  0  0  0  0  0  0  0  0  0  0
    4.6195    2.1009   -1.0654 H   0  0  0  0  0  0  0  0  0  0  0  0
    3.1471    0.6210   -1.8948 H   0  0  0  0  0  0  0  0  0  0  0  0
    3.0956   -1.6411   -1.2872 H   0  0  0  0  0  0  0  0  0  0  0  0
    3.5283   -1.3464    0.4158 H   0  0  0  0  0  0  0  0  0  0  0  0
    5.0866   -1.1134   -2.1821 H   0  0  0  0  0  0  0  0  0  0  0  0
    5.6676   -1.7977   -0.6418 H   0  0  0  0  0  0  0  0  0  0  0  0
    6.4348    0.2989   -0.1567 H   0  0  0  0  0  0  0  0  0  0  0  0
  1  2  1  0
  2  3  1  0
  3  4  1  0
  1  5  1  0
  4  5  1  0
  5  6  1  0
  6  7  1  0
  7  8  1  0
  8  9  1  0
  6 10  1  0
 10 11  1  0
 10 12  1  0
 12 13  1  0
 11 14  1  0
 13 14  1  0
 14 15  1  0
 15 16  1  0
 16 17  1  0
 17 18  1  0
 18 19  1  0
 15 20  1  0
 19 20  1  0
 20 21  1  0
 21 22  1  0
 19 23  1  0
 22 23  1  0
 24 25  1  0
 25 26  1  0
 26 27  1  0
 24 28  1  0
 27 28  1  0
 28 29  1  0
 29 30  1  0
 30 31  1  0
 31 32  1  0
 29 33  1  0
 33 34  1  0
 33 35  1  0
 35 36  1  0
 34 37  1  0
 36 37  1  0
 37 38  1  0
 38 39  1  0
 39 40  1  0
 40 41  1  0
 41 42  1  0
 38 43  1  0
 42 43  1  0
 43 44  1  0
 44 45  1  0
 42 46  1  0
 45 46  1  0
  1 47  1  0
  1 48  1  0
  2 49  1  0
  2 50  1  0
  3 51  1  0
  3 52  1  0
  4 53  1  0
  4 54  1  0
  5 55  1  0
  6 56  1  6
  7 57  1  0
  7 58  1  0
  8 59  1  0
  8 60  1  0
  9 61  1  0
  9 62  1  0
 11 63  1  0
 11 64  1  0
 12 65  1  0
 13 66  1  0
 13 67  1  0
 14 68  1  0
 15 69  1  0
 16 70  1  0
 17 71  1  0
 17 72  1  0
 18 73  1  0
 19 74  1  0
 20 75  1  0
 21 76  1  0
 21 77  1  0
 22 78  1  0
 22 79  1  0
 23 80  1  0
 24 81  1  0
 24 82  1  0
 25 83  1  0
 25 84  1  0
 26 85  1  0
 26 86  1  0
 27 87  1  0
 27 88  1  0
 28 89  1  0
 29 90  1  6
 30 91  1  0
 30 92  1  0
 31 93  1  0
 31 94  1  0
 32 95  1  0
 32 96  1  0
 34 97  1  0
 34 98  1  0
 35 99  1  0
 36100  1  0
 36101  1  0
 37102  1  0
 38103  1  6
 39104  1  0
 40105  1  0
 40106  1  0
 41107  1  0
 42108  1  0
 43109  1  0
 44110  1  0
 44111  1  0
 45112  1  0
 45113  1  0
 46114  1  0
M  END
>  <PDBID>  (1) 
4U5J

>  <PDB ID>  (1) 
4U5J

>  <Generic Name>  (1) 
Ruxolitinib

>  <Brand Name>  (1) 
Jakafi#Jakavi

>  <DrugBank ID>  (1) 
DB08877

>  <ATC Codes>  (1) 
L01XE18

>  <Ligand ID>  (1) 
RXT

>  <Target Name>  (1) 
Tyrosine-protein kinase JAK2

>  <UniProt ID>  (1) 
O60674

>  <PDB ID.1>  (1) 
4U5J

>  <Seq. Identity>  (1) 
30%

$$$$
