PDB_DB00932_02
     RDKit          3D

 99102  0  0  0  0  0  0  0  0999 V2000
   -2.9301    0.3788    1.1429 O   0  0  0  0  0  0  0  0  0  0  0  0
   -1.6577    0.0039    1.4050 C   0  0  0  0  0  0  0  0  0  0  0  0
   -0.9644   -0.8567    0.4294 C   0  0  0  0  0  0  0  0  0  0  0  0
   -1.9312   -1.4045   -0.6183 C   0  0  0  0  0  0  0  0  0  0  0  0
   -2.6434   -0.2042   -1.2118 C   0  0  0  0  0  0  0  0  0  0  0  0
   -3.2522    0.7062   -0.2052 C   0  0  2  0  0  0  0  0  0  0  0  0
   -0.8434    1.1217    1.7830 O   0  0  0  0  0  0  0  0  0  0  0  0
   -2.8398   -2.2996   -0.1367 O   0  0  0  0  0  0  0  0  0  0  0  0
   -2.6522    2.0663   -0.3846 C   0  0  0  0  0  0  0  0  0  0  0  0
   -2.7621    2.7402   -1.6926 C   0  0  0  0  0  0  0  0  0  0  0  0
   -1.9850    4.0832   -1.5092 C   0  0  0  0  0  0  0  0  0  0  0  0
   -4.7551    0.6332   -0.1721 C   0  0  0  0  0  0  0  0  0  0  0  0
   -5.5258    0.8642   -1.3885 C   0  0  0  0  0  0  0  0  0  0  0  0
   -7.0219    0.6812   -1.0519 C   0  0  0  0  0  0  0  0  0  0  0  0
   -7.5003    1.6158    0.0008 C   0  0  0  0  0  0  0  0  0  0  0  0
   -8.9920    1.3100    0.2041 C   0  0  0  0  0  0  0  0  0  0  0  0
   -9.1612   -0.0566    0.8437 C   0  0  0  0  0  0  0  0  0  0  0  0
   -7.9149   -0.9003    0.6655 C   0  0  0  0  0  0  0  0  0  0  0  0
   -7.3567   -0.7520   -0.7367 C   0  0  0  0  0  0  0  0  0  0  0  0
   -0.0378   -1.9278    0.9202 C   0  0  2  0  0  0  0  0  0  0  0  0
   -0.5440   -2.9984    1.7560 C   0  0  0  0  0  0  0  0  0  0  0  0
   -1.1449   -2.8148    3.0754 C   0  0  0  0  0  0  0  0  0  0  0  0
    1.2842   -1.3087    1.3797 C   0  0  0  0  0  0  0  0  0  0  0  0
    2.1781   -2.4080    1.8708 C   0  0  0  0  0  0  0  0  0  0  0  0
    2.6588   -3.2929    0.7379 C   0  0  0  0  0  0  0  0  0  0  0  0
    3.6393   -2.4633   -0.0603 C   0  0  0  0  0  0  0  0  0  0  0  0
    3.3424   -0.9986   -0.0309 C   0  0  0  0  0  0  0  0  0  0  0  0
    4.1276   -0.2323    0.8665 N   0  0  0  0  0  0  0  0  0  0  0  0
    1.8858   -0.6501    0.1282 C   0  0  0  0  0  0  0  0  0  0  0  0
    5.5990   -0.0886    0.8396 S   0  0  0  0  0  0  0  0  0  0  0  0
    6.5037   -0.4685    2.0266 O   0  0  0  0  0  0  0  0  0  0  0  0
    5.7016    1.8301    0.9211 O   0  0  0  0  0  0  0  0  0  0  0  0
    6.4495   -0.2129   -0.6446 C   0  0  1  0  0  0  0  0  0  0  0  0
    6.0692    0.7249   -1.6519 N   0  0  0  0  0  0  0  0  0  0  0  0
    6.9241    1.8639   -1.7949 C   0  0  0  0  0  0  0  0  0  0  0  0
    8.3665    1.5261   -2.0775 C   0  0  2  0  0  0  0  0  0  0  0  0
    8.7295    0.1489   -1.5983 C   0  0  0  0  0  0  0  0  0  0  0  0
    7.9440   -0.2124   -0.3555 C   0  0  0  0  0  0  0  0  0  0  0  0
    9.2067    2.5949   -1.3960 C   0  0  0  0  0  0  0  0  0  0  0  0
    8.9896    2.6186   -0.0419 F   0  0  0  0  0  0  0  0  0  0  0  0
   10.5583    2.3924   -1.6090 F   0  0  0  0  0  0  0  0  0  0  0  0
    8.8662    3.8154   -1.9156 F   0  0  0  0  0  0  0  0  0  0  0  0
   -1.7086   -0.5449    2.3926 H   0  0  0  0  0  0  0  0  0  0  0  0
   -0.3262   -0.1387   -0.1994 H   0  0  0  0  0  0  0  0  0  0  0  0
   -1.3194   -1.8763   -1.4048 H   0  0  0  0  0  0  0  0  0  0  0  0
   -1.8712    0.2973   -1.8635 H   0  0  0  0  0  0  0  0  0  0  0  0
   -3.3821   -0.6237   -1.9446 H   0  0  0  0  0  0  0  0  0  0  0  0
   -1.4778    1.6912    2.3128 H   0  0  0  0  0  0  0  0  0  0  0  0
   -3.6982   -2.1757   -0.6388 H   0  0  0  0  0  0  0  0  0  0  0  0
   -2.9819    2.7719    0.4327 H   0  0  0  0  0  0  0  0  0  0  0  0
   -1.5297    1.9239   -0.2249 H   0  0  0  0  0  0  0  0  0  0  0  0
   -3.7310    3.0747   -2.0374 H   0  0  0  0  0  0  0  0  0  0  0  0
   -2.1610    2.2168   -2.4748 H   0  0  0  0  0  0  0  0  0  0  0  0
   -0.9065    3.8747   -1.3894 H   0  0  0  0  0  0  0  0  0  0  0  0
   -2.4090    4.5489   -0.6088 H   0  0  0  0  0  0  0  0  0  0  0  0
   -2.2191    4.7251   -2.3825 H   0  0  0  0  0  0  0  0  0  0  0  0
   -5.0824   -0.3712    0.2456 H   0  0  0  0  0  0  0  0  0  0  0  0
   -5.0543    1.3261    0.6859 H   0  0  0  0  0  0  0  0  0  0  0  0
   -5.3418   -0.0062   -2.0949 H   0  0  0  0  0  0  0  0  0  0  0  0
   -5.4884    1.8166   -1.8961 H   0  0  0  0  0  0  0  0  0  0  0  0
   -7.5959    0.9517   -1.9932 H   0  0  0  0  0  0  0  0  0  0  0  0
   -7.4517    2.6604   -0.3601 H   0  0  0  0  0  0  0  0  0  0  0  0
   -7.0504    1.4797    0.9940 H   0  0  0  0  0  0  0  0  0  0  0  0
   -9.4586    2.1123    0.7871 H   0  0  0  0  0  0  0  0  0  0  0  0
   -9.4968    1.2621   -0.7841 H   0  0  0  0  0  0  0  0  0  0  0  0
   -9.2950    0.1102    1.9312 H   0  0  0  0  0  0  0  0  0  0  0  0
  -10.0665   -0.5786    0.4775 H   0  0  0  0  0  0  0  0  0  0  0  0
   -8.2031   -1.9582    0.8098 H   0  0  0  0  0  0  0  0  0  0  0  0
   -7.1755   -0.5397    1.3895 H   0  0  0  0  0  0  0  0  0  0  0  0
   -8.0801   -1.1564   -1.4841 H   0  0  0  0  0  0  0  0  0  0  0  0
   -6.4470   -1.3613   -0.8404 H   0  0  0  0  0  0  0  0  0  0  0  0
    0.2911   -2.4317   -0.0610 H   0  0  0  0  0  0  0  0  0  0  0  0
   -1.3637   -3.5308    1.1302 H   0  0  0  0  0  0  0  0  0  0  0  0
    0.1892   -3.8684    1.8418 H   0  0  0  0  0  0  0  0  0  0  0  0
   -2.2445   -2.6654    3.1082 H   0  0  0  0  0  0  0  0  0  0  0  0
   -0.6896   -2.0784    3.7619 H   0  0  0  0  0  0  0  0  0  0  0  0
   -1.0522   -3.7853    3.6963 H   0  0  0  0  0  0  0  0  0  0  0  0
    1.1424   -0.4979    2.1005 H   0  0  0  0  0  0  0  0  0  0  0  0
    3.1195   -1.8875    2.2417 H   0  0  0  0  0  0  0  0  0  0  0  0
    1.7694   -3.0521    2.6432 H   0  0  0  0  0  0  0  0  0  0  0  0
    1.8522   -3.7032    0.1334 H   0  0  0  0  0  0  0  0  0  0  0  0
    3.2265   -4.1273    1.2462 H   0  0  0  0  0  0  0  0  0  0  0  0
    4.6431   -2.6102    0.3853 H   0  0  0  0  0  0  0  0  0  0  0  0
    3.6959   -2.8817   -1.0967 H   0  0  0  0  0  0  0  0  0  0  0  0
    3.6055   -0.6252   -1.0695 H   0  0  0  0  0  0  0  0  0  0  0  0
    3.5045    0.3919    1.4237 H   0  0  0  0  0  0  0  0  0  0  0  0
    1.8326    0.4538    0.1909 H   0  0  0  0  0  0  0  0  0  0  0  0
    1.3863   -1.0201   -0.8045 H   0  0  0  0  0  0  0  0  0  0  0  0
    7.2509   -1.1085    1.8587 H   0  0  0  0  0  0  0  0  0  0  0  0
    5.2458    1.9114    1.7915 H   0  0  0  0  0  0  0  0  0  0  0  0
    6.2403   -1.2435   -1.0595 H   0  0  0  0  0  0  0  0  0  0  0  0
    5.9950    0.2687   -2.5884 H   0  0  0  0  0  0  0  0  0  0  0  0
    6.5580    2.4128   -2.7123 H   0  0  0  0  0  0  0  0  0  0  0  0
    6.8238    2.6015   -0.9743 H   0  0  0  0  0  0  0  0  0  0  0  0
    8.6018    1.5702   -3.1675 H   0  0  0  0  0  0  0  0  0  0  0  0
    9.7897    0.1211   -1.3423 H   0  0  0  0  0  0  0  0  0  0  0  0
    8.5192   -0.6233   -2.3597 H   0  0  0  0  0  0  0  0  0  0  0  0
    8.1701    0.5224    0.4411 H   0  0  0  0  0  0  0  0  0  0  0  0
    8.2981   -1.1946   -0.0160 H   0  0  0  0  0  0  0  0  0  0  0  0
  1  2  1  0
  2  3  1  0
  3  4  1  0
  4  5  1  0
  1  6  1  0
  5  6  1  0
  2  7  1  0
  4  8  1  0
  6  9  1  6
  9 10  1  0
 10 11  1  0
  6 12  1  0
 12 13  1  0
 13 14  1  0
 14 15  1  0
 15 16  1  0
 16 17  1  0
 17 18  1  0
 14 19  1  0
 18 19  1  0
  3 20  1  0
 20 21  1  0
 21 22  1  0
 20 23  1  0
 23 24  1  0
 24 25  1  0
 25 26  1  0
 26 27  1  0
 27 28  1  0
 23 29  1  0
 27 29  1  0
 28 30  1  0
 30 31  1  0
 30 32  1  0
 30 33  1  0
 33 34  1  0
 34 35  1  0
 35 36  1  0
 36 37  1  0
 33 38  1  0
 37 38  1  0
 36 39  1  0
 39 40  1  0
 39 41  1  0
 39 42  1  0
  2 43  1  0
  3 44  1  0
  4 45  1  0
  5 46  1  0
  5 47  1  0
  7 48  1  0
  8 49  1  0
  9 50  1  0
  9 51  1  0
 10 52  1  0
 10 53  1  0
 11 54  1  0
 11 55  1  0
 11 56  1  0
 12 57  1  0
 12 58  1  0
 13 59  1  0
 13 60  1  0
 14 61  1  0
 15 62  1  0
 15 63  1  0
 16 64  1  0
 16 65  1  0
 17 66  1  0
 17 67  1  0
 18 68  1  0
 18 69  1  0
 19 70  1  0
 19 71  1  0
 20 72  1  6
 21 73  1  0
 21 74  1  0
 22 75  1  0
 22 76  1  0
 22 77  1  0
 23 78  1  0
 24 79  1  0
 24 80  1  0
 25 81  1  0
 25 82  1  0
 26 83  1  0
 26 84  1  0
 27 85  1  0
 28 86  1  0
 29 87  1  0
 29 88  1  0
 31 89  1  0
 32 90  1  0
 33 91  1  6
 34 92  1  0
 35 93  1  0
 35 94  1  0
 36 95  1  6
 37 96  1  0
 37 97  1  0
 38 98  1  0
 38 99  1  0
M  END
>  <PDBID>  (1) 
2O4P

>  <PDB ID>  (1) 
2O4P

>  <Generic Name>  (1) 
Tipranavir

>  <Brand Name>  (1) 
Aptivus

>  <DrugBank ID>  (1) 
DB00932

>  <ATC Codes>  (1) 
J05AE09

>  <Ligand ID>  (1) 
TPV

>  <Target Name>  (1) 
Pol polyprotein

>  <UniProt ID>  (1) 
Q72874

>  <PDB ID.1>  (1) 
2O4P

>  <Seq. Identity>  (1) 
98%

$$$$
