PDB_DB00624_00
     RDKit          3D

 53 56  0  0  0  0  0  0  0  0999 V2000
   -2.4621   -1.3948   -0.5103 C   0  0  0  0  0  0  0  0  0  0  0  0
   -3.9088   -1.0134   -0.7333 C   0  0  0  0  0  0  0  0  0  0  0  0
   -4.4579   -0.1238    0.3372 C   0  0  0  0  0  0  0  0  0  0  0  0
   -4.4605   -0.7682    1.5782 O   0  0  0  0  0  0  0  0  0  0  0  0
   -3.5840    1.1065    0.4829 C   0  0  0  0  0  0  0  0  0  0  0  0
   -2.1928    0.6373    0.7897 C   0  0  0  0  0  0  0  0  0  0  0  0
   -1.3120    1.7538    1.2923 C   0  0  0  0  0  0  0  0  0  0  0  0
   -0.0602    1.0730    1.8688 C   0  0  0  0  0  0  0  0  0  0  0  0
    0.6357    0.4714    0.6870 C   0  0  2  0  0  0  0  0  0  0  0  0
   -0.2250   -0.6609    0.0995 C   0  0  1  0  0  0  0  0  0  0  0  0
   -1.5784   -0.1522   -0.3381 C   0  0  1  0  0  0  0  0  0  0  0  0
    0.5036   -1.4529   -0.9107 C   0  0  0  0  0  0  0  0  0  0  0  0
    1.8221   -0.9781   -1.3562 C   0  0  0  0  0  0  0  0  0  0  0  0
    2.6545   -0.2260   -0.4139 C   0  0  1  0  0  0  0  0  0  0  0  0
    1.9348   -0.1499    0.9421 C   0  0  1  0  0  0  0  0  0  0  0  0
    2.9373    0.5663    1.7367 C   0  0  0  0  0  0  0  0  0  0  0  0
    4.2415   -0.1267    1.3175 C   0  0  0  0  0  0  0  0  0  0  0  0
    3.9183   -0.9024    0.0510 C   0  0  2  0  0  0  0  0  0  0  0  0
    4.9766   -0.7061   -0.8238 O   0  0  0  0  0  0  0  0  0  0  0  0
    3.0493    1.1558   -0.8931 C   0  0  0  0  0  0  0  0  0  0  0  0
   -1.5352    0.5773   -1.6356 C   0  0  0  0  0  0  0  0  0  0  0  0
   -2.3440   -2.0926    0.3349 H   0  0  0  0  0  0  0  0  0  0  0  0
   -2.1253   -1.8902   -1.4438 H   0  0  0  0  0  0  0  0  0  0  0  0
   -4.0179   -0.5326   -1.7137 H   0  0  0  0  0  0  0  0  0  0  0  0
   -4.4886   -1.9490   -0.7302 H   0  0  0  0  0  0  0  0  0  0  0  0
   -5.4577    0.2070    0.0302 H   0  0  0  0  0  0  0  0  0  0  0  0
   -5.3535   -1.0872    1.8255 H   0  0  0  0  0  0  0  0  0  0  0  0
   -3.9537    1.6437    1.3850 H   0  0  0  0  0  0  0  0  0  0  0  0
   -3.6667    1.7911   -0.3570 H   0  0  0  0  0  0  0  0  0  0  0  0
   -2.2889   -0.0868    1.6525 H   0  0  0  0  0  0  0  0  0  0  0  0
   -0.9449    2.4053    0.4776 H   0  0  0  0  0  0  0  0  0  0  0  0
   -1.8564    2.2914    2.0668 H   0  0  0  0  0  0  0  0  0  0  0  0
   -0.4338    0.2566    2.5099 H   0  0  0  0  0  0  0  0  0  0  0  0
    0.5903    1.7754    2.3857 H   0  0  0  0  0  0  0  0  0  0  0  0
    0.6366    1.2558   -0.1171 H   0  0  0  0  0  0  0  0  0  0  0  0
   -0.4348   -1.3204    0.9955 H   0  0  0  0  0  0  0  0  0  0  0  0
    0.6129   -2.5308   -0.5854 H   0  0  0  0  0  0  0  0  0  0  0  0
   -0.1594   -1.5346   -1.8241 H   0  0  0  0  0  0  0  0  0  0  0  0
    1.6932   -0.3447   -2.2855 H   0  0  0  0  0  0  0  0  0  0  0  0
    2.4263   -1.8558   -1.7361 H   0  0  0  0  0  0  0  0  0  0  0  0
    1.8442   -1.2018    1.2787 H   0  0  0  0  0  0  0  0  0  0  0  0
    2.9783    1.6423    1.5748 H   0  0  0  0  0  0  0  0  0  0  0  0
    2.7753    0.3214    2.8243 H   0  0  0  0  0  0  0  0  0  0  0  0
    4.5212   -0.8953    2.0795 H   0  0  0  0  0  0  0  0  0  0  0  0
    5.0644    0.5796    1.1945 H   0  0  0  0  0  0  0  0  0  0  0  0
    3.7648   -1.9805    0.2534 H   0  0  0  0  0  0  0  0  0  0  0  0
    4.7224   -0.3926   -1.7068 H   0  0  0  0  0  0  0  0  0  0  0  0
    4.1379    1.3501   -0.7995 H   0  0  0  0  0  0  0  0  0  0  0  0
    2.5286    1.9667   -0.3877 H   0  0  0  0  0  0  0  0  0  0  0  0
    2.8275    1.2719   -1.9900 H   0  0  0  0  0  0  0  0  0  0  0  0
   -1.8053   -0.1213   -2.4740 H   0  0  0  0  0  0  0  0  0  0  0  0
   -0.5017    0.9290   -1.8934 H   0  0  0  0  0  0  0  0  0  0  0  0
   -2.1883    1.4429   -1.7183 H   0  0  0  0  0  0  0  0  0  0  0  0
  1  2  1  0
  2  3  1  0
  3  4  1  0
  3  5  1  0
  5  6  1  0
  6  7  1  0
  7  8  1  0
  8  9  1  0
  9 10  1  0
  1 11  1  0
  6 11  1  0
 10 11  1  0
 10 12  1  0
 12 13  1  0
 13 14  1  0
  9 15  1  0
 14 15  1  0
 15 16  1  0
 16 17  1  0
 14 18  1  0
 17 18  1  0
 18 19  1  0
 14 20  1  6
 11 21  1  6
  1 22  1  0
  1 23  1  0
  2 24  1  0
  2 25  1  0
  3 26  1  0
  4 27  1  0
  5 28  1  0
  5 29  1  0
  6 30  1  0
  7 31  1  0
  7 32  1  0
  8 33  1  0
  8 34  1  0
  9 35  1  6
 10 36  1  1
 12 37  1  0
 12 38  1  0
 13 39  1  0
 13 40  1  0
 15 41  1  1
 16 42  1  0
 16 43  1  0
 17 44  1  0
 17 45  1  0
 18 46  1  1
 19 47  1  0
 20 48  1  0
 20 49  1  0
 20 50  1  0
 21 51  1  0
 21 52  1  0
 21 53  1  0
M  END
>  <PDBID>  (1) 
2AM9

>  <PDB ID>  (1) 
2AM9

>  <Generic Name>  (1) 
Testosterone

>  <Brand Name>  (1) 
Andriol#Androderm#Androgel#Aveed#Axiron#Delatestryl#Depo-testosterone#Depo-testosterone Inj 100mg/ml#Fortesta#Malogen Aqueous 100 Sus 100mg/ml#Malogex La200 Liq 200mg/ml#Natesto#Neo Pause Injection#PMS-testosterone#PMS-testosterone Enanthate Inj 200mg/ml USP#Scheinpharm Testone-cyp Inject.- Im 100mg/ml#Striant#Taro-testosterone#Testim#Testim 1%#Testopel#Testosterone#Testosterone Cypionate#Testosterone Cypionate Injection USP#Testosterone Cypionate Injection, USP#Testosterone Enanthate#Testosterone Enanthate Inj 200mg/ml#Vogelxo#Andronate 100#Andronate 200#Andropatch#Andropository 200#Andryl 200#Bio-T-Gel#Fortigel#Intrinsa#Livensa#Nebido#Sustanon#Testamone 100#Testaqua IM#Testoderm#Testoderm TTS#Testogel#Testolin#Testopatch#Testopel Pellets#Testrin-P.A#Testro AQ#Tostrelle#Tostrex#Virormone

>  <DrugBank ID>  (1) 
DB00624

>  <ATC Codes>  (1) 
G03EA02#G03BA03

>  <Ligand ID>  (1) 
TES

>  <Target Name>  (1) 
Androgen receptor

>  <UniProt ID>  (1) 
P10275

>  <PDB ID.1>  (1) 
2AM9

>  <Seq. Identity>  (1) 
100%

$$$$
