PDB_DB00127_07
     RDKit          3D

 80 78  0  0  0  0  0  0  0  0999 V2000
    4.4255    0.7441   -1.3718 N   0  0  0  0  0  0  0  0  0  0  0  0
    5.3066    0.1787   -0.3695 C   0  0  0  0  0  0  0  0  0  0  0  0
    4.5839   -0.8972    0.4071 C   0  0  0  0  0  0  0  0  0  0  0  0
    3.3594   -0.3493    1.1092 C   0  0  0  0  0  0  0  0  0  0  0  0
    2.4164    0.2114    0.2105 N   0  0  0  0  0  0  0  0  0  0  0  0
    1.2229    0.7430    0.7469 C   0  0  0  0  0  0  0  0  0  0  0  0
    0.2767   -0.2576    1.3374 C   0  0  0  0  0  0  0  0  0  0  0  0
   -0.1886   -1.2951    0.3361 C   0  0  0  0  0  0  0  0  0  0  0  0
   -0.9100   -0.6915   -0.8302 C   0  0  0  0  0  0  0  0  0  0  0  0
   -2.0853    0.0393   -0.4596 N   0  0  0  0  0  0  0  0  0  0  0  0
   -3.1422   -0.7805    0.0447 C   0  0  0  0  0  0  0  0  0  0  0  0
   -4.3448    0.0482    0.4052 C   0  0  0  0  0  0  0  0  0  0  0  0
   -4.9091    0.8129   -0.7671 C   0  0  0  0  0  0  0  0  0  0  0  0
   -6.0626    1.5871   -0.3703 N   0  0  0  0  0  0  0  0  0  0  0  0
    4.4255    0.7441   -1.3718 N   0  0  0  0  0  0  0  0  0  0  0  0
    5.3066    0.1787   -0.3695 C   0  0  0  0  0  0  0  0  0  0  0  0
    4.5839   -0.8972    0.4071 C   0  0  0  0  0  0  0  0  0  0  0  0
    3.3594   -0.3493    1.1092 C   0  0  0  0  0  0  0  0  0  0  0  0
    2.4164    0.2114    0.2105 N   0  0  0  0  0  0  0  0  0  0  0  0
    1.2229    0.7430    0.7469 C   0  0  0  0  0  0  0  0  0  0  0  0
    0.2767   -0.2576    1.3374 C   0  0  0  0  0  0  0  0  0  0  0  0
   -0.1886   -1.2951    0.3361 C   0  0  0  0  0  0  0  0  0  0  0  0
   -0.9100   -0.6915   -0.8302 C   0  0  0  0  0  0  0  0  0  0  0  0
   -2.0853    0.0393   -0.4596 N   0  0  0  0  0  0  0  0  0  0  0  0
   -3.1422   -0.7805    0.0447 C   0  0  0  0  0  0  0  0  0  0  0  0
   -4.3448    0.0482    0.4052 C   0  0  0  0  0  0  0  0  0  0  0  0
   -4.9091    0.8129   -0.7671 C   0  0  0  0  0  0  0  0  0  0  0  0
   -6.0626    1.5871   -0.3703 N   0  0  0  0  0  0  0  0  0  0  0  0
    4.9484    0.8357   -2.2857 H   0  0  0  0  0  0  0  0  0  0  0  0
    4.1291    1.7075   -1.1060 H   0  0  0  0  0  0  0  0  0  0  0  0
    5.5926    0.9709    0.3400 H   0  0  0  0  0  0  0  0  0  0  0  0
    6.2277   -0.2055   -0.8387 H   0  0  0  0  0  0  0  0  0  0  0  0
    5.2817   -1.3459    1.1342 H   0  0  0  0  0  0  0  0  0  0  0  0
    4.2523   -1.7005   -0.2668 H   0  0  0  0  0  0  0  0  0  0  0  0
    2.8677   -1.2280    1.6156 H   0  0  0  0  0  0  0  0  0  0  0  0
    3.7086    0.3395    1.8987 H   0  0  0  0  0  0  0  0  0  0  0  0
    2.2823   -0.2243   -0.6956 H   0  0  0  0  0  0  0  0  0  0  0  0
    0.6767    1.2622   -0.0777 H   0  0  0  0  0  0  0  0  0  0  0  0
    1.3767    1.5258    1.5220 H   0  0  0  0  0  0  0  0  0  0  0  0
    0.6208   -0.7105    2.2718 H   0  0  0  0  0  0  0  0  0  0  0  0
   -0.6531    0.3224    1.6166 H   0  0  0  0  0  0  0  0  0  0  0  0
    0.6640   -1.8724   -0.0843 H   0  0  0  0  0  0  0  0  0  0  0  0
   -0.8882   -1.9681    0.8838 H   0  0  0  0  0  0  0  0  0  0  0  0
   -0.2434    0.0062   -1.3779 H   0  0  0  0  0  0  0  0  0  0  0  0
   -1.1638   -1.5455   -1.5187 H   0  0  0  0  0  0  0  0  0  0  0  0
   -2.3304    0.6570   -1.2416 H   0  0  0  0  0  0  0  0  0  0  0  0
   -2.7836   -1.2405    0.9934 H   0  0  0  0  0  0  0  0  0  0  0  0
   -3.4106   -1.6179   -0.6456 H   0  0  0  0  0  0  0  0  0  0  0  0
   -5.1292   -0.6444    0.8194 H   0  0  0  0  0  0  0  0  0  0  0  0
   -4.0855    0.7581    1.2071 H   0  0  0  0  0  0  0  0  0  0  0  0
   -5.2114    0.1107   -1.5689 H   0  0  0  0  0  0  0  0  0  0  0  0
   -4.1542    1.5341   -1.1458 H   0  0  0  0  0  0  0  0  0  0  0  0
   -6.7387    1.6273   -1.1639 H   0  0  0  0  0  0  0  0  0  0  0  0
   -5.7854    2.5526   -0.0590 H   0  0  0  0  0  0  0  0  0  0  0  0
    4.9484    0.8357   -2.2857 H   0  0  0  0  0  0  0  0  0  0  0  0
    4.1291    1.7075   -1.1060 H   0  0  0  0  0  0  0  0  0  0  0  0
    5.5926    0.9709    0.3400 H   0  0  0  0  0  0  0  0  0  0  0  0
    6.2277   -0.2055   -0.8387 H   0  0  0  0  0  0  0  0  0  0  0  0
    5.2817   -1.3459    1.1342 H   0  0  0  0  0  0  0  0  0  0  0  0
    4.2523   -1.7005   -0.2668 H   0  0  0  0  0  0  0  0  0  0  0  0
    2.8677   -1.2280    1.6156 H   0  0  0  0  0  0  0  0  0  0  0  0
    3.7086    0.3395    1.8987 H   0  0  0  0  0  0  0  0  0  0  0  0
    2.2823   -0.2243   -0.6956 H   0  0  0  0  0  0  0  0  0  0  0  0
    0.6767    1.2622   -0.0777 H   0  0  0  0  0  0  0  0  0  0  0  0
    1.3767    1.5258    1.5220 H   0  0  0  0  0  0  0  0  0  0  0  0
    0.6208   -0.7105    2.2718 H   0  0  0  0  0  0  0  0  0  0  0  0
   -0.6531    0.3224    1.6166 H   0  0  0  0  0  0  0  0  0  0  0  0
    0.6640   -1.8724   -0.0843 H   0  0  0  0  0  0  0  0  0  0  0  0
   -0.8882   -1.9681    0.8838 H   0  0  0  0  0  0  0  0  0  0  0  0
   -0.2434    0.0062   -1.3779 H   0  0  0  0  0  0  0  0  0  0  0  0
   -1.1638   -1.5455   -1.5187 H   0  0  0  0  0  0  0  0  0  0  0  0
   -2.3304    0.6570   -1.2416 H   0  0  0  0  0  0  0  0  0  0  0  0
   -2.7836   -1.2405    0.9934 H   0  0  0  0  0  0  0  0  0  0  0  0
   -3.4106   -1.6179   -0.6456 H   0  0  0  0  0  0  0  0  0  0  0  0
   -5.1292   -0.6444    0.8194 H   0  0  0  0  0  0  0  0  0  0  0  0
   -4.0855    0.7581    1.2071 H   0  0  0  0  0  0  0  0  0  0  0  0
   -5.2114    0.1107   -1.5689 H   0  0  0  0  0  0  0  0  0  0  0  0
   -4.1542    1.5341   -1.1458 H   0  0  0  0  0  0  0  0  0  0  0  0
   -6.7387    1.6273   -1.1639 H   0  0  0  0  0  0  0  0  0  0  0  0
   -5.7854    2.5526   -0.0590 H   0  0  0  0  0  0  0  0  0  0  0  0
  1  2  1  0
  2  3  1  0
  3  4  1  0
  4  5  1  0
  5  6  1  0
  6  7  1  0
  7  8  1  0
  8  9  1  0
  9 10  1  0
 10 11  1  0
 11 12  1  0
 12 13  1  0
 13 14  1  0
 15 16  1  0
 16 17  1  0
 17 18  1  0
 18 19  1  0
 19 20  1  0
 20 21  1  0
 21 22  1  0
 22 23  1  0
 23 24  1  0
 24 25  1  0
 25 26  1  0
 26 27  1  0
 27 28  1  0
  1 29  1  0
  1 30  1  0
  2 31  1  0
  2 32  1  0
  3 33  1  0
  3 34  1  0
  4 35  1  0
  4 36  1  0
  5 37  1  0
  6 38  1  0
  6 39  1  0
  7 40  1  0
  7 41  1  0
  8 42  1  0
  8 43  1  0
  9 44  1  0
  9 45  1  0
 10 46  1  0
 11 47  1  0
 11 48  1  0
 12 49  1  0
 12 50  1  0
 13 51  1  0
 13 52  1  0
 14 53  1  0
 14 54  1  0
 15 55  1  0
 15 56  1  0
 16 57  1  0
 16 58  1  0
 17 59  1  0
 17 60  1  0
 18 61  1  0
 18 62  1  0
 19 63  1  0
 20 64  1  0
 20 65  1  0
 21 66  1  0
 21 67  1  0
 22 68  1  0
 22 69  1  0
 23 70  1  0
 23 71  1  0
 24 72  1  0
 25 73  1  0
 25 74  1  0
 26 75  1  0
 26 76  1  0
 27 77  1  0
 27 78  1  0
 28 79  1  0
 28 80  1  0
M  END
>  <PDBID>  (1) 
3KU9

>  <PDB ID>  (1) 
3KU9

>  <Generic Name>  (1) 
Spermine

>  <Brand Name>  (1) 
nan

>  <DrugBank ID>  (1) 
DB00127

>  <ATC Codes>  (1) 
nan

>  <Ligand ID>  (1) 
SPM

>  <Target Name>  (1) 
Spermine oxidase

>  <UniProt ID>  (1) 
Q9NWM0

>  <PDB ID.1>  (1) 
3KU9

>  <Seq. Identity>  (1) 
31%

$$$$
