PDB_DB00277_00
     RDKit          3D

 29 30  0  0  0  0  0  0  0  0999 V2000
   -2.1369   -1.9830   -0.0492 C   0  0  0  0  0  0  0  0  0  0  0  0
   -1.0277   -1.0961   -0.1875 N   0  0  0  0  0  0  0  0  0  0  0  0
   -1.4536    0.2490    0.2300 C   0  0  0  0  0  0  0  0  0  0  0  0
   -2.6333    0.5842   -0.4497 O   0  0  0  0  0  0  0  0  0  0  0  0
   -0.4445    1.1561   -0.1365 N   0  0  0  0  0  0  0  0  0  0  0  0
   -0.7905    2.5373   -0.1342 C   0  0  0  0  0  0  0  0  0  0  0  0
    0.8767    0.8687    0.2643 C   0  0  0  0  0  0  0  0  0  0  0  0
    1.1570   -0.4847    0.7683 C   0  0  0  0  0  0  0  0  0  0  0  0
    0.0380   -1.4545    0.7421 C   0  0  0  0  0  0  0  0  0  0  0  0
    0.4095   -2.7574    0.4356 O   0  0  0  0  0  0  0  0  0  0  0  0
    2.3256   -0.9273    0.0191 N   0  0  0  0  0  0  0  0  0  0  0  0
    2.8900    0.2642   -0.5919 C   0  0  0  0  0  0  0  0  0  0  0  0
    1.7234    1.0185   -0.9309 N   0  0  0  0  0  0  0  0  0  0  0  0
   -2.1531   -2.6872   -0.9109 H   0  0  0  0  0  0  0  0  0  0  0  0
   -3.1135   -1.4395   -0.0976 H   0  0  0  0  0  0  0  0  0  0  0  0
   -2.1372   -2.5104    0.9324 H   0  0  0  0  0  0  0  0  0  0  0  0
   -1.7182    0.2304    1.3062 H   0  0  0  0  0  0  0  0  0  0  0  0
   -2.9650    1.4340   -0.0491 H   0  0  0  0  0  0  0  0  0  0  0  0
   -1.1648    2.8679   -1.1311 H   0  0  0  0  0  0  0  0  0  0  0  0
    0.1537    3.1203    0.0407 H   0  0  0  0  0  0  0  0  0  0  0  0
   -1.5198    2.8162    0.6340 H   0  0  0  0  0  0  0  0  0  0  0  0
    1.1966    1.6636    1.0008 H   0  0  0  0  0  0  0  0  0  0  0  0
    1.5117   -0.4059    1.8381 H   0  0  0  0  0  0  0  0  0  0  0  0
   -0.4644   -1.5030    1.7519 H   0  0  0  0  0  0  0  0  0  0  0  0
    0.4266   -2.8479   -0.5533 H   0  0  0  0  0  0  0  0  0  0  0  0
    2.1183   -1.6466   -0.6806 H   0  0  0  0  0  0  0  0  0  0  0  0
    3.4774    0.8644    0.1389 H   0  0  0  0  0  0  0  0  0  0  0  0
    3.4605    0.0331   -1.5045 H   0  0  0  0  0  0  0  0  0  0  0  0
    1.9571    2.0354   -0.9983 H   0  0  0  0  0  0  0  0  0  0  0  0
  1  2  1  0
  2  3  1  0
  3  4  1  0
  3  5  1  0
  5  6  1  0
  5  7  1  0
  7  8  1  0
  2  9  1  0
  8  9  1  0
  9 10  1  0
  8 11  1  0
 11 12  1  0
  7 13  1  0
 12 13  1  0
  1 14  1  0
  1 15  1  0
  1 16  1  0
  3 17  1  0
  4 18  1  0
  6 19  1  0
  6 20  1  0
  6 21  1  0
  7 22  1  0
  8 23  1  0
  9 24  1  0
 10 25  1  0
 11 26  1  0
 12 27  1  0
 12 28  1  0
 13 29  1  0
M  END
>  <PDBID>  (1) 
5MZJ

>  <PDB ID>  (1) 
5MZJ

>  <Generic Name>  (1) 
Theophylline

>  <Brand Name>  (1) 
Apo-theo ER#Apo-theo-LA Srt 100mg#Apo-theo-LA Srt 200mg#Apo-theo-LA Srt 300mg#Elixir De Theophylline#Elixophyllin#I D M Expectorant Tab#Idm Tab#PMS-theophylline Elixir#Pulmophylline Elx#Quibron T SR Tab 300mg#Ratio-theo-bronc#Senophylline#Slo-bid 100#Slo-bid 200#Slo-bid 300#Slo-bid 50#Tedral Tab#Teva-theophylline SR#Theo ER#Theo-24#Theo-SR 300 Srt 300mg#Theo-dur 100 mg#Theo-dur 200 mg#Theo-dur 300 mg#Theo-dur 450 mg#Theolair#Theolair SR Tab 200mg#Theolair SR Tab 250mg#Theolair SR Tab 300mg#Theolair SR Tab 500mg#Theolair Tab 125mg#Theolair Tab 250mg#Theophylline#Theophylline (anhydrous)#Theophylline 80mg/15ml#Theophylline Anhydrous#Theophylline Elixir#Theophylline Elx#Theophylline Extended Release#Theophylline In Dextrose#Theophylline Rougier Elixir#Theophylline Srt 300mg#Theophylline Sustained Release Tab 100mg#Theophylline Sustained Release Tab 200mg#Theophylline(anhydrous)#Uniphyl#Quibron-T#Respbid#Slo-Bid#Theo 24#Theo-Dur#Theodur G

>  <DrugBank ID>  (1) 
DB00277

>  <ATC Codes>  (1) 
R03DA54#R03DA74#R03DB04#R03DA04

>  <Ligand ID>  (1) 
TEP

>  <Target Name>  (1) 
Adenosine receptor A1

>  <UniProt ID>  (1) 
P30542

>  <PDB ID.1>  (1) 
5MZJ

>  <Seq. Identity>  (1) 
46%

$$$$
