PDB_DB00862_09
     RDKit          3D

164170  0  0  0  0  0  0  0  0999 V2000
   -1.9767    4.0936   -2.2398 C   0  0  0  0  0  0  0  0  0  0  0  0
   -1.8567    2.5972   -2.4242 C   0  0  0  0  0  0  0  0  0  0  0  0
   -0.7455    2.1819   -1.7056 O   0  0  0  0  0  0  0  0  0  0  0  0
   -0.5274    0.8203   -1.7937 C   0  0  0  0  0  0  0  0  0  0  0  0
    0.7911    0.6282   -2.5202 C   0  0  0  0  0  0  0  0  0  0  0  0
    1.8785    1.3079   -1.7137 C   0  0  0  0  0  0  0  0  0  0  0  0
    2.0061    0.6072   -0.3983 C   0  0  0  0  0  0  0  0  0  0  0  0
    0.6840    0.8295    0.3374 C   0  0  0  0  0  0  0  0  0  0  0  0
   -0.4033    0.1414   -0.4523 C   0  0  0  0  0  0  0  0  0  0  0  0
    3.3374    1.2474    0.4815 S   0  0  0  0  0  0  0  0  0  0  0  0
    2.8687    0.0747    2.0621 O   0  0  0  0  0  0  0  0  0  0  0  0
    3.0004    2.5650    1.2677 O   0  0  0  0  0  0  0  0  0  0  0  0
    8.1068   -2.2713    1.8744 C   0  0  0  0  0  0  0  0  0  0  0  0
    4.6965    0.7810    0.3218 N   0  0  0  0  0  0  0  0  0  0  0  0
    5.5707    0.7405   -0.8062 C   0  0  0  0  0  0  0  0  0  0  0  0
    6.2880   -0.6099   -0.9222 C   0  0  0  0  0  0  0  0  0  0  0  0
    7.2022   -0.7919    0.1657 N   0  0  0  0  0  0  0  0  0  0  0  0
    6.9148    0.1621    1.1995 C   0  0  0  0  0  0  0  0  0  0  0  0
    5.4473    0.2723    1.4665 C   0  0  0  0  0  0  0  0  0  0  0  0
    7.1249   -2.1351    0.7310 C   0  0  0  0  0  0  0  0  0  0  0  0
   -1.7066    0.1358    0.3170 C   0  0  0  0  0  0  0  0  0  0  0  0
   -2.1045    1.5031    0.5270 N   0  0  0  0  0  0  0  0  0  0  0  0
   -3.4364    1.6189    1.0956 C   0  0  0  0  0  0  0  0  0  0  0  0
   -3.9963    0.2441    1.2307 C   0  0  0  0  0  0  0  0  0  0  0  0
   -3.9789   -0.3445   -0.1135 N   0  0  0  0  0  0  0  0  0  0  0  0
   -2.6633   -0.6350   -0.4333 N   0  0  0  0  0  0  0  0  0  0  0  0
   -4.2125    2.3315    0.1826 O   0  0  0  0  0  0  0  0  0  0  0  0
   -5.4894    0.2253    1.4827 C   0  0  0  0  0  0  0  0  0  0  0  0
   -5.8267   -1.1159    1.0396 N   0  0  0  0  0  0  0  0  0  0  0  0
   -4.7843   -1.5261    0.1167 C   0  0  0  0  0  0  0  0  0  0  0  0
   -5.8261    0.4269    2.9415 C   0  0  0  0  0  0  0  0  0  0  0  0
   -5.3298   -1.9942   -1.2050 C   0  0  0  0  0  0  0  0  0  0  0  0
   -6.1877   -3.2290   -1.0663 C   0  0  0  0  0  0  0  0  0  0  0  0
   -5.4113   -4.3872   -0.4783 C   0  0  0  0  0  0  0  0  0  0  0  0
   -1.9767    4.0936   -2.2398 C   0  0  0  0  0  0  0  0  0  0  0  0
   -1.8567    2.5972   -2.4242 C   0  0  0  0  0  0  0  0  0  0  0  0
   -0.7455    2.1819   -1.7056 O   0  0  0  0  0  0  0  0  0  0  0  0
   -0.5274    0.8203   -1.7937 C   0  0  0  0  0  0  0  0  0  0  0  0
    0.7911    0.6282   -2.5202 C   0  0  0  0  0  0  0  0  0  0  0  0
    1.8785    1.3079   -1.7137 C   0  0  0  0  0  0  0  0  0  0  0  0
    2.0061    0.6072   -0.3983 C   0  0  0  0  0  0  0  0  0  0  0  0
    0.6840    0.8295    0.3374 C   0  0  0  0  0  0  0  0  0  0  0  0
   -0.4033    0.1414   -0.4523 C   0  0  0  0  0  0  0  0  0  0  0  0
    3.3374    1.2474    0.4815 S   0  0  0  0  0  0  0  0  0  0  0  0
    2.8687    0.0747    2.0621 O   0  0  0  0  0  0  0  0  0  0  0  0
    3.0004    2.5650    1.2677 O   0  0  0  0  0  0  0  0  0  0  0  0
    8.1068   -2.2713    1.8744 C   0  0  0  0  0  0  0  0  0  0  0  0
    4.6965    0.7810    0.3218 N   0  0  0  0  0  0  0  0  0  0  0  0
    5.5707    0.7405   -0.8062 C   0  0  0  0  0  0  0  0  0  0  0  0
    6.2880   -0.6099   -0.9222 C   0  0  0  0  0  0  0  0  0  0  0  0
    7.2022   -0.7919    0.1657 N   0  0  0  0  0  0  0  0  0  0  0  0
    6.9148    0.1621    1.1995 C   0  0  0  0  0  0  0  0  0  0  0  0
    5.4473    0.2723    1.4665 C   0  0  0  0  0  0  0  0  0  0  0  0
    7.1249   -2.1351    0.7310 C   0  0  0  0  0  0  0  0  0  0  0  0
   -1.7066    0.1358    0.3170 C   0  0  0  0  0  0  0  0  0  0  0  0
   -2.1045    1.5031    0.5270 N   0  0  0  0  0  0  0  0  0  0  0  0
   -3.4364    1.6189    1.0956 C   0  0  0  0  0  0  0  0  0  0  0  0
   -3.9963    0.2441    1.2307 C   0  0  0  0  0  0  0  0  0  0  0  0
   -3.9789   -0.3445   -0.1135 N   0  0  0  0  0  0  0  0  0  0  0  0
   -2.6633   -0.6350   -0.4333 N   0  0  0  0  0  0  0  0  0  0  0  0
   -4.2125    2.3315    0.1826 O   0  0  0  0  0  0  0  0  0  0  0  0
   -5.4894    0.2253    1.4827 C   0  0  0  0  0  0  0  0  0  0  0  0
   -5.8267   -1.1159    1.0396 N   0  0  0  0  0  0  0  0  0  0  0  0
   -4.7843   -1.5261    0.1167 C   0  0  0  0  0  0  0  0  0  0  0  0
   -5.8261    0.4269    2.9415 C   0  0  0  0  0  0  0  0  0  0  0  0
   -5.3298   -1.9942   -1.2050 C   0  0  0  0  0  0  0  0  0  0  0  0
   -6.1877   -3.2290   -1.0663 C   0  0  0  0  0  0  0  0  0  0  0  0
   -5.4113   -4.3872   -0.4783 C   0  0  0  0  0  0  0  0  0  0  0  0
   -1.7539    4.3778   -1.1788 H   0  0  0  0  0  0  0  0  0  0  0  0
   -2.9769    4.4696   -2.4765 H   0  0  0  0  0  0  0  0  0  0  0  0
   -1.2021    4.6014   -2.8718 H   0  0  0  0  0  0  0  0  0  0  0  0
   -2.7875    2.0795   -2.1533 H   0  0  0  0  0  0  0  0  0  0  0  0
   -1.6798    2.3717   -3.5076 H   0  0  0  0  0  0  0  0  0  0  0  0
   -1.2909    0.3036   -2.4282 H   0  0  0  0  0  0  0  0  0  0  0  0
    1.0165   -0.4204   -2.7390 H   0  0  0  0  0  0  0  0  0  0  0  0
    0.7059    1.1668   -3.4883 H   0  0  0  0  0  0  0  0  0  0  0  0
    2.7876    1.2770   -2.3110 H   0  0  0  0  0  0  0  0  0  0  0  0
    1.5246    2.3364   -1.5113 H   0  0  0  0  0  0  0  0  0  0  0  0
    2.1618   -0.5009   -0.5005 H   0  0  0  0  0  0  0  0  0  0  0  0
    0.4616    1.9190    0.3020 H   0  0  0  0  0  0  0  0  0  0  0  0
    0.7208    0.4978    1.3766 H   0  0  0  0  0  0  0  0  0  0  0  0
   -0.0621   -0.9112   -0.6730 H   0  0  0  0  0  0  0  0  0  0  0  0
    3.0312   -0.7260    1.5384 H   0  0  0  0  0  0  0  0  0  0  0  0
    2.6366    3.3639    0.8036 H   0  0  0  0  0  0  0  0  0  0  0  0
    8.9086   -1.5170    1.7115 H   0  0  0  0  0  0  0  0  0  0  0  0
    7.6074   -2.1154    2.8593 H   0  0  0  0  0  0  0  0  0  0  0  0
    8.5512   -3.2870    1.8765 H   0  0  0  0  0  0  0  0  0  0  0  0
    5.0912    0.9298   -1.7811 H   0  0  0  0  0  0  0  0  0  0  0  0
    6.3996    1.5007   -0.7351 H   0  0  0  0  0  0  0  0  0  0  0  0
    5.5067   -1.3845   -0.9706 H   0  0  0  0  0  0  0  0  0  0  0  0
    6.8963   -0.5657   -1.8635 H   0  0  0  0  0  0  0  0  0  0  0  0
    7.3824   -0.2215    2.1353 H   0  0  0  0  0  0  0  0  0  0  0  0
    7.3836    1.1506    1.0162 H   0  0  0  0  0  0  0  0  0  0  0  0
    5.3190    1.0116    2.3035 H   0  0  0  0  0  0  0  0  0  0  0  0
    5.0603   -0.7190    1.7034 H   0  0  0  0  0  0  0  0  0  0  0  0
    7.4068   -2.8681   -0.0748 H   0  0  0  0  0  0  0  0  0  0  0  0
    6.1197   -2.3652    1.1357 H   0  0  0  0  0  0  0  0  0  0  0  0
   -1.5389   -0.3825    1.2812 H   0  0  0  0  0  0  0  0  0  0  0  0
   -1.4504    1.9136    1.2311 H   0  0  0  0  0  0  0  0  0  0  0  0
   -3.4380    2.1822    2.0574 H   0  0  0  0  0  0  0  0  0  0  0  0
   -3.4653   -0.3781    1.9643 H   0  0  0  0  0  0  0  0  0  0  0  0
   -2.4491   -1.6507   -0.2433 H   0  0  0  0  0  0  0  0  0  0  0  0
   -4.5219    1.6501   -0.4903 H   0  0  0  0  0  0  0  0  0  0  0  0
   -5.9663    1.0148    0.8843 H   0  0  0  0  0  0  0  0  0  0  0  0
   -5.7527   -1.7318    1.8912 H   0  0  0  0  0  0  0  0  0  0  0  0
   -4.1101   -2.2929    0.5442 H   0  0  0  0  0  0  0  0  0  0  0  0
   -5.7254   -0.5068    3.5311 H   0  0  0  0  0  0  0  0  0  0  0  0
   -5.2913    1.2823    3.3639 H   0  0  0  0  0  0  0  0  0  0  0  0
   -6.9272    0.6771    2.9717 H   0  0  0  0  0  0  0  0  0  0  0  0
   -4.4605   -2.1867   -1.8654 H   0  0  0  0  0  0  0  0  0  0  0  0
   -5.9363   -1.1931   -1.6441 H   0  0  0  0  0  0  0  0  0  0  0  0
   -7.0659   -3.0067   -0.4506 H   0  0  0  0  0  0  0  0  0  0  0  0
   -6.5162   -3.5047   -2.0959 H   0  0  0  0  0  0  0  0  0  0  0  0
   -5.7200   -4.5132    0.5908 H   0  0  0  0  0  0  0  0  0  0  0  0
   -5.7185   -5.3348   -0.9852 H   0  0  0  0  0  0  0  0  0  0  0  0
   -4.3265   -4.2891   -0.6022 H   0  0  0  0  0  0  0  0  0  0  0  0
   -1.7539    4.3778   -1.1788 H   0  0  0  0  0  0  0  0  0  0  0  0
   -2.9769    4.4696   -2.4765 H   0  0  0  0  0  0  0  0  0  0  0  0
   -1.2021    4.6014   -2.8718 H   0  0  0  0  0  0  0  0  0  0  0  0
   -2.7875    2.0795   -2.1533 H   0  0  0  0  0  0  0  0  0  0  0  0
   -1.6798    2.3717   -3.5076 H   0  0  0  0  0  0  0  0  0  0  0  0
   -1.2909    0.3036   -2.4282 H   0  0  0  0  0  0  0  0  0  0  0  0
    1.0165   -0.4204   -2.7390 H   0  0  0  0  0  0  0  0  0  0  0  0
    0.7059    1.1668   -3.4883 H   0  0  0  0  0  0  0  0  0  0  0  0
    2.7876    1.2770   -2.3110 H   0  0  0  0  0  0  0  0  0  0  0  0
    1.5246    2.3364   -1.5113 H   0  0  0  0  0  0  0  0  0  0  0  0
    2.1618   -0.5009   -0.5005 H   0  0  0  0  0  0  0  0  0  0  0  0
    0.4616    1.9190    0.3020 H   0  0  0  0  0  0  0  0  0  0  0  0
    0.7208    0.4978    1.3766 H   0  0  0  0  0  0  0  0  0  0  0  0
   -0.0621   -0.9112   -0.6730 H   0  0  0  0  0  0  0  0  0  0  0  0
    3.0312   -0.7260    1.5384 H   0  0  0  0  0  0  0  0  0  0  0  0
    2.6366    3.3639    0.8036 H   0  0  0  0  0  0  0  0  0  0  0  0
    8.9086   -1.5170    1.7115 H   0  0  0  0  0  0  0  0  0  0  0  0
    7.6074   -2.1154    2.8593 H   0  0  0  0  0  0  0  0  0  0  0  0
    8.5512   -3.2870    1.8765 H   0  0  0  0  0  0  0  0  0  0  0  0
    5.0912    0.9298   -1.7811 H   0  0  0  0  0  0  0  0  0  0  0  0
    6.3996    1.5007   -0.7351 H   0  0  0  0  0  0  0  0  0  0  0  0
    5.5067   -1.3845   -0.9706 H   0  0  0  0  0  0  0  0  0  0  0  0
    6.8963   -0.5657   -1.8635 H   0  0  0  0  0  0  0  0  0  0  0  0
    7.3824   -0.2215    2.1353 H   0  0  0  0  0  0  0  0  0  0  0  0
    7.3836    1.1506    1.0162 H   0  0  0  0  0  0  0  0  0  0  0  0
    5.3190    1.0116    2.3035 H   0  0  0  0  0  0  0  0  0  0  0  0
    5.0603   -0.7190    1.7034 H   0  0  0  0  0  0  0  0  0  0  0  0
    7.4068   -2.8681   -0.0748 H   0  0  0  0  0  0  0  0  0  0  0  0
    6.1197   -2.3652    1.1357 H   0  0  0  0  0  0  0  0  0  0  0  0
   -1.5389   -0.3825    1.2812 H   0  0  0  0  0  0  0  0  0  0  0  0
   -1.4504    1.9136    1.2311 H   0  0  0  0  0  0  0  0  0  0  0  0
   -3.4380    2.1822    2.0574 H   0  0  0  0  0  0  0  0  0  0  0  0
   -3.4653   -0.3781    1.9643 H   0  0  0  0  0  0  0  0  0  0  0  0
   -2.4491   -1.6507   -0.2433 H   0  0  0  0  0  0  0  0  0  0  0  0
   -4.5219    1.6501   -0.4903 H   0  0  0  0  0  0  0  0  0  0  0  0
   -5.9663    1.0148    0.8843 H   0  0  0  0  0  0  0  0  0  0  0  0
   -5.7527   -1.7318    1.8912 H   0  0  0  0  0  0  0  0  0  0  0  0
   -4.1101   -2.2929    0.5442 H   0  0  0  0  0  0  0  0  0  0  0  0
   -5.7254   -0.5068    3.5311 H   0  0  0  0  0  0  0  0  0  0  0  0
   -5.2913    1.2823    3.3639 H   0  0  0  0  0  0  0  0  0  0  0  0
   -6.9272    0.6771    2.9717 H   0  0  0  0  0  0  0  0  0  0  0  0
   -4.4605   -2.1867   -1.8654 H   0  0  0  0  0  0  0  0  0  0  0  0
   -5.9363   -1.1931   -1.6441 H   0  0  0  0  0  0  0  0  0  0  0  0
   -7.0659   -3.0067   -0.4506 H   0  0  0  0  0  0  0  0  0  0  0  0
   -6.5162   -3.5047   -2.0959 H   0  0  0  0  0  0  0  0  0  0  0  0
   -5.7200   -4.5132    0.5908 H   0  0  0  0  0  0  0  0  0  0  0  0
   -5.7185   -5.3348   -0.9852 H   0  0  0  0  0  0  0  0  0  0  0  0
   -4.3265   -4.2891   -0.6022 H   0  0  0  0  0  0  0  0  0  0  0  0
  1  2  1  0
  2  3  1  0
  3  4  1  0
  4  5  1  0
  5  6  1  0
  6  7  1  0
  7  8  1  0
  4  9  1  0
  8  9  1  0
  7 10  1  0
 10 11  1  0
 10 12  1  0
 10 14  1  0
 14 15  1  0
 15 16  1  0
 16 17  1  0
 17 18  1  0
 14 19  1  0
 18 19  1  0
 13 20  1  0
 17 20  1  0
  9 21  1  0
 21 22  1  0
 22 23  1  0
 23 24  1  0
 24 25  1  0
 21 26  1  0
 25 26  1  0
 23 27  1  0
 24 28  1  0
 28 29  1  0
 25 30  1  0
 29 30  1  0
 28 31  1  0
 30 32  1  0
 32 33  1  0
 33 34  1  0
 35 36  1  0
 36 37  1  0
 37 38  1  0
 38 39  1  0
 39 40  1  0
 40 41  1  0
 41 42  1  0
 38 43  1  0
 42 43  1  0
 41 44  1  0
 44 45  1  0
 44 46  1  0
 44 48  1  0
 48 49  1  0
 49 50  1  0
 50 51  1  0
 51 52  1  0
 48 53  1  0
 52 53  1  0
 47 54  1  0
 51 54  1  0
 43 55  1  0
 55 56  1  0
 56 57  1  0
 57 58  1  0
 58 59  1  0
 55 60  1  0
 59 60  1  0
 57 61  1  0
 58 62  1  0
 62 63  1  0
 59 64  1  0
 63 64  1  0
 62 65  1  0
 64 66  1  0
 66 67  1  0
 67 68  1  0
  1 69  1  0
  1 70  1  0
  1 71  1  0
  2 72  1  0
  2 73  1  0
  4 74  1  0
  5 75  1  0
  5 76  1  0
  6 77  1  0
  6 78  1  0
  7 79  1  0
  8 80  1  0
  8 81  1  0
  9 82  1  0
 11 83  1  0
 12 84  1  0
 13 85  1  0
 13 86  1  0
 13 87  1  0
 15 88  1  0
 15 89  1  0
 16 90  1  0
 16 91  1  0
 18 92  1  0
 18 93  1  0
 19 94  1  0
 19 95  1  0
 20 96  1  0
 20 97  1  0
 21 98  1  0
 22 99  1  0
 23100  1  0
 24101  1  0
 26102  1  0
 27103  1  0
 28104  1  0
 29105  1  0
 30106  1  0
 31107  1  0
 31108  1  0
 31109  1  0
 32110  1  0
 32111  1  0
 33112  1  0
 33113  1  0
 34114  1  0
 34115  1  0
 34116  1  0
 35117  1  0
 35118  1  0
 35119  1  0
 36120  1  0
 36121  1  0
 38122  1  0
 39123  1  0
 39124  1  0
 40125  1  0
 40126  1  0
 41127  1  0
 42128  1  0
 42129  1  0
 43130  1  0
 45131  1  0
 46132  1  0
 47133  1  0
 47134  1  0
 47135  1  0
 49136  1  0
 49137  1  0
 50138  1  0
 50139  1  0
 52140  1  0
 52141  1  0
 53142  1  0
 53143  1  0
 54144  1  0
 54145  1  0
 55146  1  0
 56147  1  0
 57148  1  0
 58149  1  0
 60150  1  0
 61151  1  0
 62152  1  0
 63153  1  0
 64154  1  0
 65155  1  0
 65156  1  0
 65157  1  0
 66158  1  0
 66159  1  0
 67160  1  0
 67161  1  0
 68162  1  0
 68163  1  0
 68164  1  0
M  END
>  <PDBID>  (1) 
3B2R

>  <PDB ID>  (1) 
3B2R

>  <Generic Name>  (1) 
Vardenafil

>  <Brand Name>  (1) 
Levitra#Staxyn#Vivanza

>  <DrugBank ID>  (1) 
DB00862

>  <ATC Codes>  (1) 
G04BE09

>  <Ligand ID>  (1) 
VDN

>  <Target Name>  (1) 
cGMP-specific 3',5'-cyclic phosphodiesterase

>  <UniProt ID>  (1) 
O76074

>  <PDB ID.1>  (1) 
3B2R

>  <Seq. Identity>  (1) 
94%

$$$$
