PDB_DB01199_05
     RDKit          3D

550580  0  0  0  0  0  0  0  0999 V2000
   -5.1743   -2.7313    0.6113 N   0  0  0  0  0  0  0  0  0  0  0  0
   -5.7209   -2.4126   -0.6728 C   0  0  0  0  0  0  0  0  0  0  0  0
   -5.8884   -0.9170   -0.7554 C   0  0  0  0  0  0  0  0  0  0  0  0
   -5.4238   -0.2524    0.5473 C   0  0  0  0  0  0  0  0  0  0  0  0
   -4.0222   -0.6795    0.9013 C   0  0  0  0  0  0  0  0  0  0  0  0
   -3.8270   -2.1541    0.7568 C   0  0  2  0  0  0  0  0  0  0  0  0
   -5.6341    1.2034    0.4803 C   0  0  0  0  0  0  0  0  0  0  0  0
   -4.4740    1.9940   -0.0783 C   0  0  0  0  0  0  0  0  0  0  0  0
   -3.2577    1.5864    0.6609 C   0  0  1  0  0  0  0  0  0  0  0  0
   -2.9880    0.1426    0.2001 C   0  0  0  0  0  0  0  0  0  0  0  0
   -2.1050    2.2787    0.3509 O   0  0  0  0  0  0  0  0  0  0  0  0
   -1.3934    2.4550    1.5385 C   0  0  2  0  0  0  0  0  0  0  0  0
   -1.1884    3.9795    1.6283 C   0  0  0  0  0  0  0  0  0  0  0  0
   -0.7046    4.3257    0.2120 C   0  0  0  0  0  0  0  0  0  0  0  0
    0.5749    3.6594   -0.1082 C   0  0  0  0  0  0  0  0  0  0  0  0
    0.7700    2.2644    0.3535 C   0  0  2  0  0  0  0  0  0  0  0  0
   -0.0358    1.8579    1.5401 C   0  0  0  0  0  0  0  0  0  0  0  0
    2.2689    2.0039    0.5914 C   0  0  0  0  0  0  0  0  0  0  0  0
    2.9692    1.5424   -0.6590 C   0  0  1  0  0  0  0  0  0  0  0  0
    4.1932    2.3534   -0.8051 N   0  0  0  0  0  0  0  0  0  0  0  0
    5.0431    1.9645   -1.8752 C   0  0  0  0  0  0  0  0  0  0  0  0
    5.0004    0.5574   -2.3224 C   0  0  0  0  0  0  0  0  0  0  0  0
    4.5894   -0.2328   -1.1165 C   0  0  0  0  0  0  0  0  0  0  0  0
    3.1067    0.1229   -0.9119 C   0  0  1  0  0  0  0  0  0  0  0  0
    4.5895   -1.7396   -1.4119 C   0  0  0  0  0  0  0  0  0  0  0  0
    4.6609   -2.2889    0.0215 C   0  0  0  0  0  0  0  0  0  0  0  0
    3.5542   -1.6934    0.7762 C   0  0  2  0  0  0  0  0  0  0  0  0
    2.5178   -0.8997   -0.0032 C   0  0  2  0  0  0  0  0  0  0  0  0
    1.5939   -1.6653   -0.6583 O   0  0  0  0  0  0  0  0  0  0  0  0
    1.1623   -2.8430   -0.1914 C   0  0  0  0  0  0  0  0  0  0  0  0
    0.4261   -3.5518   -1.3196 C   0  0  0  0  0  0  0  0  0  0  0  0
   -1.0067   -3.8336   -1.0616 C   0  0  0  0  0  0  0  0  0  0  0  0
   -1.5606   -2.6320   -0.2759 C   0  0  0  0  0  0  0  0  0  0  0  0
   -1.0260   -2.8408    1.1055 C   0  0  0  0  0  0  0  0  0  0  0  0
    0.4639   -2.8624    1.1191 C   0  0  0  0  0  0  0  0  0  0  0  0
   -3.0305   -2.5933   -0.4132 C   0  0  0  0  0  0  0  0  0  0  0  0
   -4.7811    3.3432    0.0400 O   0  0  0  0  0  0  0  0  0  0  0  0
   -4.9058    3.9709   -1.1882 C   0  0  0  0  0  0  0  0  0  0  0  0
   -0.2495    4.3121    2.5762 O   0  0  0  0  0  0  0  0  0  0  0  0
    4.8139   -3.6445    0.0639 O   0  0  0  0  0  0  0  0  0  0  0  0
    6.0629   -4.0597    0.5407 C   0  0  0  0  0  0  0  0  0  0  0  0
    4.0401   -0.7880    1.7551 O   0  0  0  0  0  0  0  0  0  0  0  0
   -5.2148   -4.1161    0.9485 C   0  0  0  0  0  0  0  0  0  0  0  0
    4.8723    2.4570    0.4689 C   0  0  0  0  0  0  0  0  0  0  0  0
    3.8117    3.7429   -1.1446 C   0  0  0  0  0  0  0  0  0  0  0  0
   -4.7154   -2.1881    0.6472 N   0  0  0  0  0  0  0  0  0  0  0  0
   -5.9898   -2.0055   -0.0213 C   0  0  0  0  0  0  0  0  0  0  0  0
   -6.3172   -0.5369    0.0060 C   0  0  0  0  0  0  0  0  0  0  0  0
   -4.9996    0.2193    0.0925 C   0  0  0  0  0  0  0  0  0  0  0  0
   -3.9933   -0.4756   -0.7850 C   0  0  2  0  0  0  0  0  0  0  0  0
   -3.5903   -1.8509   -0.2054 C   0  0  2  0  0  0  0  0  0  0  0  0
   -5.2447    1.5785   -0.5180 C   0  0  0  0  0  0  0  0  0  0  0  0
   -4.0377    2.4534   -0.3563 C   0  0  0  0  0  0  0  0  0  0  0  0
   -2.7658    1.6799   -0.2683 C   0  0  0  0  0  0  0  0  0  0  0  0
   -2.8279    0.3977   -1.0338 C   0  0  0  0  0  0  0  0  0  0  0  0
   -2.2780    1.5306    1.0331 O   0  0  0  0  0  0  0  0  0  0  0  0
   -1.0737    2.1395    1.2591 C   0  0  0  0  0  0  0  0  0  0  0  0
   -1.0101    2.7734    2.6168 C   0  0  0  0  0  0  0  0  0  0  0  0
    0.2981    3.5046    2.8215 C   0  0  0  0  0  0  0  0  0  0  0  0
    1.4929    2.6614    2.5263 C   0  0  0  0  0  0  0  0  0  0  0  0
    1.3495    2.0939    1.1302 C   0  0  0  0  0  0  0  0  0  0  0  0
    0.1181    1.1733    1.1899 C   0  0  0  0  0  0  0  0  0  0  0  0
    2.6067    1.2998    0.8378 C   0  0  0  0  0  0  0  0  0  0  0  0
    2.8763    1.1062   -0.6439 C   0  0  1  0  0  0  0  0  0  0  0  0
    3.7443    2.0789   -1.2017 N   0  0  0  0  0  0  0  0  0  0  0  0
    5.0203    1.6623   -1.6952 C   0  0  0  0  0  0  0  0  0  0  0  0
    5.1053    0.2996   -2.2592 C   0  0  0  0  0  0  0  0  0  0  0  0
    4.6307   -0.6438   -1.1875 C   0  0  0  0  0  0  0  0  0  0  0  0
    3.1350   -0.3109   -1.0612 C   0  0  1  0  0  0  0  0  0  0  0  0
    5.3207   -0.5018    0.1171 C   0  0  0  0  0  0  0  0  0  0  0  0
    4.6938   -1.4940    1.0791 C   0  0  0  0  0  0  0  0  0  0  0  0
    3.5397   -2.2324    0.5221 C   0  0  0  0  0  0  0  0  0  0  0  0
    2.5381   -1.3886   -0.2726 C   0  0  2  0  0  0  0  0  0  0  0  0
    1.9894   -2.3526   -1.1667 O   0  0  0  0  0  0  0  0  0  0  0  0
    0.6237   -2.3608   -1.1911 C   0  0  0  0  0  0  0  0  0  0  0  0
    0.0772   -3.1909   -0.0594 C   0  0  0  0  0  0  0  0  0  0  0  0
   -1.2712   -3.7536   -0.2360 C   0  0  0  0  0  0  0  0  0  0  0  0
   -2.0393   -3.4591   -1.4581 C   0  0  0  0  0  0  0  0  0  0  0  0
   -1.2573   -2.8015   -2.5757 C   0  0  0  0  0  0  0  0  0  0  0  0
    0.2219   -3.1137   -2.4694 C   0  0  0  0  0  0  0  0  0  0  0  0
   -3.3802   -2.8169   -1.2943 C   0  0  0  0  0  0  0  0  0  0  0  0
   -4.2628    3.2702    0.7494 O   0  0  0  0  0  0  0  0  0  0  0  0
   -4.3802    4.6056    0.3763 C   0  0  0  0  0  0  0  0  0  0  0  0
   -2.0263    3.6981    2.8447 O   0  0  0  0  0  0  0  0  0  0  0  0
    5.6836   -2.4192    1.3987 O   0  0  0  0  0  0  0  0  0  0  0  0
    5.9600   -2.4148    2.7781 C   0  0  0  0  0  0  0  0  0  0  0  0
    2.8392   -2.7923    1.6046 O   0  0  0  0  0  0  0  0  0  0  0  0
   -4.7023   -3.4660    1.2481 C   0  0  0  0  0  0  0  0  0  0  0  0
    3.1014    2.8106   -2.3180 C   0  0  0  0  0  0  0  0  0  0  0  0
    4.1210    3.1657   -0.2765 C   0  0  0  0  0  0  0  0  0  0  0  0
   -4.8474   -2.4415    1.0326 N   0  0  0  0  0  0  0  0  0  0  0  0
   -5.6455   -2.2549   -0.1365 C   0  0  0  0  0  0  0  0  0  0  0  0
   -5.7386   -0.7632   -0.4046 C   0  0  0  0  0  0  0  0  0  0  0  0
   -5.0308   -0.0007    0.6803 C   0  0  0  0  0  0  0  0  0  0  0  0
   -3.5783   -0.4333    0.6571 C   0  0  0  0  0  0  0  0  0  0  0  0
   -3.4908   -1.8826    0.8669 C   0  0  2  0  0  0  0  0  0  0  0  0
   -5.2422    1.4615    0.6131 C   0  0  0  0  0  0  0  0  0  0  0  0
   -4.5736    2.0343   -0.5781 C   0  0  0  0  0  0  0  0  0  0  0  0
   -3.1968    1.5380   -0.8640 C   0  0  0  0  0  0  0  0  0  0  0  0
   -2.9100    0.1178   -0.5420 C   0  0  0  0  0  0  0  0  0  0  0  0
   -2.1798    2.4127   -0.5198 O   0  0  0  0  0  0  0  0  0  0  0  0
   -1.9251    2.6834    0.7607 C   0  0  0  0  0  0  0  0  0  0  0  0
   -1.5734    4.1859    0.8384 C   0  0  0  0  0  0  0  0  0  0  0  0
   -0.6348    4.4098   -0.3268 C   0  0  0  0  0  0  0  0  0  0  0  0
    0.5925    3.5794   -0.2213 C   0  0  0  0  0  0  0  0  0  0  0  0
    0.4228    2.1827    0.2557 C   0  0  2  0  0  0  0  0  0  0  0  0
   -0.6524    2.0312    1.3022 C   0  0  0  0  0  0  0  0  0  0  0  0
    1.7628    1.7075    0.8423 C   0  0  0  0  0  0  0  0  0  0  0  0
    2.7783    1.4476   -0.1991 C   0  0  1  0  0  0  0  0  0  0  0  0
    4.0450    2.0175    0.2021 N   0  0  0  0  0  0  0  0  0  0  0  0
    5.1552    1.4318   -0.5500 C   0  0  0  0  0  0  0  0  0  0  0  0
    4.7466    1.0381   -1.9265 C   0  0  0  0  0  0  0  0  0  0  0  0
    3.8208   -0.1543   -1.8481 C   0  0  0  0  0  0  0  0  0  0  0  0
    2.7937    0.0898   -0.8116 C   0  0  1  0  0  0  0  0  0  0  0  0
    4.5748   -1.4417   -1.7978 C   0  0  0  0  0  0  0  0  0  0  0  0
    4.8633   -2.0403   -0.4856 C   0  0  0  0  0  0  0  0  0  0  0  0
    3.8559   -1.7566    0.5826 C   0  0  0  0  0  0  0  0  0  0  0  0
    2.6068   -1.1135    0.0653 C   0  0  2  0  0  0  0  0  0  0  0  0
    2.0129   -2.0999   -0.7617 O   0  0  0  0  0  0  0  0  0  0  0  0
    1.4877   -3.1816   -0.1871 C   0  0  0  0  0  0  0  0  0  0  0  0
    0.5668   -3.8519   -1.2126 C   0  0  0  0  0  0  0  0  0  0  0  0
   -0.8126   -4.1171   -0.6560 C   0  0  0  0  0  0  0  0  0  0  0  0
   -1.3447   -2.7449   -0.1984 C   0  0  0  0  0  0  0  0  0  0  0  0
   -0.5835   -2.4215    1.0383 C   0  0  0  0  0  0  0  0  0  0  0  0
    0.7808   -3.0663    1.1016 C   0  0  0  0  0  0  0  0  0  0  0  0
   -2.8078   -2.7378   -0.1199 C   0  0  0  0  0  0  0  0  0  0  0  0
   -4.5303    3.4216   -0.4120 O   0  0  0  0  0  0  0  0  0  0  0  0
   -5.3175    4.0962   -1.3265 C   0  0  0  0  0  0  0  0  0  0  0  0
   -0.8740    4.4571    2.0228 O   0  0  0  0  0  0  0  0  0  0  0  0
    5.0219   -3.4359   -0.6770 O   0  0  0  0  0  0  0  0  0  0  0  0
    6.2421   -3.9152   -0.3051 C   0  0  0  0  0  0  0  0  0  0  0  0
    4.4121   -1.1403    1.6991 O   0  0  0  0  0  0  0  0  0  0  0  0
   -4.8384   -3.7584    1.5686 C   0  0  0  0  0  0  0  0  0  0  0  0
    4.2768    2.0584    1.6117 C   0  0  0  0  0  0  0  0  0  0  0  0
    4.0768    3.4455   -0.1992 C   0  0  0  0  0  0  0  0  0  0  0  0
   -4.5382   -2.8245   -0.4990 N   0  0  0  0  0  0  0  0  0  0  0  0
   -5.5685   -2.3239   -1.3558 C   0  0  0  0  0  0  0  0  0  0  0  0
   -5.2943   -0.9841   -1.9531 C   0  0  0  0  0  0  0  0  0  0  0  0
   -5.1391   -0.0240   -0.7646 C   0  0  0  0  0  0  0  0  0  0  0  0
   -3.9056   -0.4725   -0.0263 C   0  0  0  0  0  0  0  0  0  0  0  0
   -3.9316   -1.9096    0.3740 C   0  0  2  0  0  0  0  0  0  0  0  0
   -4.8511    1.3276   -1.3557 C   0  0  0  0  0  0  0  0  0  0  0  0
   -4.4234    2.3410   -0.3336 C   0  0  1  0  0  0  0  0  0  0  0  0
   -3.3896    1.8162    0.6355 C   0  0  1  0  0  0  0  0  0  0  0  0
   -3.7502    0.4445    1.1684 C   0  0  0  0  0  0  0  0  0  0  0  0
   -2.1672    1.8272    0.0173 O   0  0  0  0  0  0  0  0  0  0  0  0
   -1.0908    2.1631    0.8024 C   0  0  2  0  0  0  0  0  0  0  0  0
   -1.3346    3.2471    1.8020 C   0  0  0  0  0  0  0  0  0  0  0  0
    0.0411    3.7960    2.2086 C   0  0  0  0  0  0  0  0  0  0  0  0
    1.0528    2.7094    2.0925 C   0  0  0  0  0  0  0  0  0  0  0  0
    1.3959    2.5244    0.6061 C   0  0  0  0  0  0  0  0  0  0  0  0
    0.0468    2.5577   -0.1281 C   0  0  0  0  0  0  0  0  0  0  0  0
    2.0830    1.2045    0.5069 C   0  0  0  0  0  0  0  0  0  0  0  0
    2.8995    0.9946   -0.7716 C   0  0  1  0  0  0  0  0  0  0  0  0
    3.8869    2.0172   -0.9783 N   0  0  0  0  0  0  0  0  0  0  0  0
    5.0894    1.6498   -1.6552 C   0  0  0  0  0  0  0  0  0  0  0  0
    5.1526    0.2918   -2.2589 C   0  0  0  0  0  0  0  0  0  0  0  0
    4.7604   -0.6782   -1.1772 C   0  0  0  0  0  0  0  0  0  0  0  0
    3.2705   -0.4102   -1.0019 C   0  0  1  0  0  0  0  0  0  0  0  0
    5.5849   -0.6729    0.0274 C   0  0  0  0  0  0  0  0  0  0  0  0
    4.8726   -1.3753    1.1609 C   0  0  0  0  0  0  0  0  0  0  0  0
    3.8881   -2.3019    0.5431 C   0  0  0  0  0  0  0  0  0  0  0  0
    2.7495   -1.4850   -0.1132 C   0  0  2  0  0  0  0  0  0  0  0  0
    2.0560   -2.5072   -0.8169 O   0  0  0  0  0  0  0  0  0  0  0  0
    0.7322   -2.5930   -0.5176 C   0  0  0  0  0  0  0  0  0  0  0  0
    0.3782   -3.6045    0.5533 C   0  0  0  0  0  0  0  0  0  0  0  0
   -0.9360   -4.2721    0.3269 C   0  0  0  0  0  0  0  0  0  0  0  0
   -1.9926   -3.3848   -0.2976 C   0  0  0  0  0  0  0  0  0  0  0  0
   -1.4929   -2.9017   -1.6160 C   0  0  0  0  0  0  0  0  0  0  0  0
    0.0194   -3.1034   -1.7814 C   0  0  0  0  0  0  0  0  0  0  0  0
   -2.4942   -2.3393    0.6366 C   0  0  0  0  0  0  0  0  0  0  0  0
   -3.8385    3.4001   -1.0263 O   0  0  0  0  0  0  0  0  0  0  0  0
   -4.5072    4.5901   -0.8427 C   0  0  0  0  0  0  0  0  0  0  0  0
   -2.0277    4.3396    1.2969 O   0  0  0  0  0  0  0  0  0  0  0  0
    5.7670   -2.1415    1.9189 O   0  0  0  0  0  0  0  0  0  0  0  0
    5.7078   -1.7906    3.2602 C   0  0  0  0  0  0  0  0  0  0  0  0
    3.3040   -3.0704    1.5468 O   0  0  0  0  0  0  0  0  0  0  0  0
   -5.1549   -3.9037    0.2923 C   0  0  0  0  0  0  0  0  0  0  0  0
    3.3115    3.1089   -1.8066 C   0  0  0  0  0  0  0  0  0  0  0  0
    4.3204    2.6907    0.2486 C   0  0  0  0  0  0  0  0  0  0  0  0
   -4.9709   -2.6875   -0.1569 N   0  0  0  0  0  0  0  0  0  0  0  0
   -5.2173   -2.1566   -1.4820 C   0  0  0  0  0  0  0  0  0  0  0  0
   -5.3920   -0.6660   -1.3596 C   0  0  0  0  0  0  0  0  0  0  0  0
   -5.2073   -0.2084    0.0902 C   0  0  0  0  0  0  0  0  0  0  0  0
   -3.9168   -0.7319    0.6718 C   0  0  0  0  0  0  0  0  0  0  0  0
   -3.6963   -2.1792    0.3864 C   0  0  2  0  0  0  0  0  0  0  0  0
   -5.3562    1.2569    0.1596 C   0  0  0  0  0  0  0  0  0  0  0  0
   -4.1026    2.0453   -0.0733 C   0  0  0  0  0  0  0  0  0  0  0  0
   -3.0241    1.5268    0.8137 C   0  0  1  0  0  0  0  0  0  0  0  0
   -2.7414    0.1012    0.2990 C   0  0  0  0  0  0  0  0  0  0  0  0
   -1.7929    2.1898    0.6150 O   0  0  0  0  0  0  0  0  0  0  0  0
   -1.1707    2.5202    1.7929 C   0  0  0  0  0  0  0  0  0  0  0  0
   -1.1071    4.0279    1.8706 C   0  0  0  0  0  0  0  0  0  0  0  0
   -0.0252    4.4500    0.8719 C   0  0  0  0  0  0  0  0  0  0  0  0
    1.2514    3.8247    1.3676 C   0  0  0  0  0  0  0  0  0  0  0  0
    1.2842    2.3247    1.2235 C   0  0  0  0  0  0  0  0  0  0  0  0
    0.1047    1.8418    2.0841 C   0  0  0  0  0  0  0  0  0  0  0  0
    1.2036    1.7738   -0.1225 C   0  0  0  0  0  0  0  0  0  0  0  0
    2.3689    1.2334   -0.8294 C   0  0  1  0  0  0  0  0  0  0  0  0
    3.2614    2.2248   -1.4266 N   0  0  0  0  0  0  0  0  0  0  0  0
    4.0854    1.6622   -2.4768 C   0  0  0  0  0  0  0  0  0  0  0  0
    4.0471    0.1889   -2.5987 C   0  0  0  0  0  0  0  0  0  0  0  0
    3.8848   -0.5836   -1.3616 C   0  0  0  0  0  0  0  0  0  0  0  0
    3.1906    0.1920   -0.2267 C   0  0  0  0  0  0  0  0  0  0  0  0
    5.1339   -1.1729   -0.7698 C   0  0  0  0  0  0  0  0  0  0  0  0
    4.6259   -2.2528    0.1995 C   0  0  0  0  0  0  0  0  0  0  0  0
    3.7679   -1.6061    1.2344 C   0  0  0  0  0  0  0  0  0  0  0  0
    2.5682   -0.8605    0.6258 C   0  0  2  0  0  0  0  0  0  0  0  0
    1.7286   -1.6858   -0.0671 O   0  0  0  0  0  0  0  0  0  0  0  0
    1.3086   -2.8364    0.5251 C   0  0  0  0  0  0  0  0  0  0  0  0
    0.8498   -3.7935   -0.5429 C   0  0  0  0  0  0  0  0  0  0  0  0
   -0.6055   -3.8585   -0.7948 C   0  0  0  0  0  0  0  0  0  0  0  0
   -1.2667   -2.6561   -0.1038 C   0  0  0  0  0  0  0  0  0  0  0  0
   -1.0754   -2.9483    1.3494 C   0  0  0  0  0  0  0  0  0  0  0  0
    0.3698   -2.6786    1.6743 C   0  0  0  0  0  0  0  0  0  0  0  0
   -2.6355   -2.5099   -0.5927 C   0  0  0  0  0  0  0  0  0  0  0  0
   -4.3536    3.3915    0.0971 O   0  0  0  0  0  0  0  0  0  0  0  0
   -4.1750    4.1541   -1.0261 C   0  0  0  0  0  0  0  0  0  0  0  0
   -0.8011    4.4867    3.1261 O   0  0  0  0  0  0  0  0  0  0  0  0
    5.6731   -2.8794    0.8384 O   0  0  0  0  0  0  0  0  0  0  0  0
    5.7517   -4.2258    0.4743 C   0  0  0  0  0  0  0  0  0  0  0  0
    4.5549   -0.5557    1.7774 O   0  0  0  0  0  0  0  0  0  0  0  0
   -5.0103   -4.1273   -0.1267 C   0  0  0  0  0  0  0  0  0  0  0  0
    4.0855    2.9373   -0.5392 C   0  0  0  0  0  0  0  0  0  0  0  0
    2.3763    3.1937   -2.0902 C   0  0  0  0  0  0  0  0  0  0  0  0
   -6.7104   -2.9437   -0.7386 H   0  0  0  0  0  0  0  0  0  0  0  0
   -5.1273   -2.8144   -1.5207 H   0  0  0  0  0  0  0  0  0  0  0  0
   -5.4244   -0.4603   -1.6310 H   0  0  0  0  0  0  0  0  0  0  0  0
   -6.9795   -0.7069   -0.8118 H   0  0  0  0  0  0  0  0  0  0  0  0
   -6.0933   -0.6777    1.3268 H   0  0  0  0  0  0  0  0  0  0  0  0
   -3.9088   -0.4524    2.0043 H   0  0  0  0  0  0  0  0  0  0  0  0
   -3.4135   -2.6349    1.6663 H   0  0  0  0  0  0  0  0  0  0  0  0
   -5.8181    1.6051    1.5113 H   0  0  0  0  0  0  0  0  0  0  0  0
   -6.5190    1.4611   -0.1160 H   0  0  0  0  0  0  0  0  0  0  0  0
   -4.4056    1.7604   -1.1615 H   0  0  0  0  0  0  0  0  0  0  0  0
   -3.4682    1.5913    1.7483 H   0  0  0  0  0  0  0  0  0  0  0  0
   -3.0467    0.1319   -0.8887 H   0  0  0  0  0  0  0  0  0  0  0  0
   -1.9861   -0.0628    0.6145 H   0  0  0  0  0  0  0  0  0  0  0  0
   -1.9652    2.1310    2.4313 H   0  0  0  0  0  0  0  0  0  0  0  0
   -2.1613    4.4623    1.7529 H   0  0  0  0  0  0  0  0  0  0  0  0
   -0.6020    5.4066    0.1244 H   0  0  0  0  0  0  0  0  0  0  0  0
   -1.5329    3.9733   -0.4595 H   0  0  0  0  0  0  0  0  0  0  0  0
    0.6802    3.6637   -1.2286 H   0  0  0  0  0  0  0  0  0  0  0  0
    1.3948    4.2786    0.3607 H   0  0  0  0  0  0  0  0  0  0  0  0
    0.5049    1.5502   -0.4749 H   0  0  0  0  0  0  0  0  0  0  0  0
    0.4958    2.2762    2.4457 H   0  0  0  0  0  0  0  0  0  0  0  0
   -0.0013    0.7684    1.6683 H   0  0  0  0  0  0  0  0  0  0  0  0
    2.4345    1.4139    1.4889 H   0  0  0  0  0  0  0  0  0  0  0  0
    2.6577    3.0251    0.8903 H   0  0  0  0  0  0  0  0  0  0  0  0
    2.3257    2.0117   -1.4786 H   0  0  0  0  0  0  0  0  0  0  0  0
    6.1030    2.1737   -1.5368 H   0  0  0  0  0  0  0  0  0  0  0  0
    4.9501    2.6020   -2.8037 H   0  0  0  0  0  0  0  0  0  0  0  0
    4.2362    0.4098   -3.1319 H   0  0  0  0  0  0  0  0  0  0  0  0
    5.9754    0.2460   -2.7482 H   0  0  0  0  0  0  0  0  0  0  0  0
    5.2148    0.0416   -0.2768 H   0  0  0  0  0  0  0  0  0  0  0  0
    2.7095   -0.1090   -1.9561 H   0  0  0  0  0  0  0  0  0  0  0  0
    5.5083   -1.9514   -1.9698 H   0  0  0  0  0  0  0  0  0  0  0  0
    3.6598   -2.0156   -1.9094 H   0  0  0  0  0  0  0  0  0  0  0  0
    5.6392   -1.8602    0.4036 H   0  0  0  0  0  0  0  0  0  0  0  0
    3.0787   -2.4755    1.3862 H   0  0  0  0  0  0  0  0  0  0  0  0
    1.9013   -0.4163    0.8192 H   0  0  0  0  0  0  0  0  0  0  0  0
    2.0850   -3.4886   -0.0439 H   0  0  0  0  0  0  0  0  0  0  0  0
    0.4638   -2.9459   -2.2753 H   0  0  0  0  0  0  0  0  0  0  0  0
    0.8991   -4.5190   -1.6178 H   0  0  0  0  0  0  0  0  0  0  0  0
   -1.5362   -3.9523   -2.0054 H   0  0  0  0  0  0  0  0  0  0  0  0
   -1.0806   -4.7377   -0.4024 H   0  0  0  0  0  0  0  0  0  0  0  0
   -1.0899   -1.7515   -0.7986 H   0  0  0  0  0  0  0  0  0  0  0  0
   -1.4674   -2.0778    1.7768 H   0  0  0  0  0  0  0  0  0  0  0  0
   -1.4671   -3.8193    1.4599 H   0  0  0  0  0  0  0  0  0  0  0  0
    0.7762   -1.9530    1.7032 H   0  0  0  0  0  0  0  0  0  0  0  0
    0.7744   -3.7221    1.7539 H   0  0  0  0  0  0  0  0  0  0  0  0
   -3.3799   -3.6366   -0.6752 H   0  0  0  0  0  0  0  0  0  0  0  0
   -3.2628   -2.0070   -1.3475 H   0  0  0  0  0  0  0  0  0  0  0  0
   -5.1497    5.0347   -0.9900 H   0  0  0  0  0  0  0  0  0  0  0  0
   -3.9497    3.9384   -1.7235 H   0  0  0  0  0  0  0  0  0  0  0  0
   -5.7628    3.5592   -1.7574 H   0  0  0  0  0  0  0  0  0  0  0  0
    0.2437    5.1162    2.2712 H   0  0  0  0  0  0  0  0  0  0  0  0
    6.2419   -3.6946    1.5771 H   0  0  0  0  0  0  0  0  0  0  0  0
    6.0814   -5.1537    0.5856 H   0  0  0  0  0  0  0  0  0  0  0  0
    6.8934   -3.7183   -0.0928 H   0  0  0  0  0  0  0  0  0  0  0  0
    4.9579   -1.0902    1.9610 H   0  0  0  0  0  0  0  0  0  0  0  0
   -4.5490   -4.2713    1.8366 H   0  0  0  0  0  0  0  0  0  0  0  0
   -6.2378   -4.3530    1.3065 H   0  0  0  0  0  0  0  0  0  0  0  0
   -4.8688   -4.7947    0.1528 H   0  0  0  0  0  0  0  0  0  0  0  0
    4.8884    3.5123    0.8748 H   0  0  0  0  0  0  0  0  0  0  0  0
    5.9670    2.2186    0.3680 H   0  0  0  0  0  0  0  0  0  0  0  0
    4.3975    1.8768    1.2839 H   0  0  0  0  0  0  0  0  0  0  0  0
    3.7009    4.3582   -0.2442 H   0  0  0  0  0  0  0  0  0  0  0  0
    2.9829    3.7491   -1.8531 H   0  0  0  0  0  0  0  0  0  0  0  0
    4.6695    4.2340   -1.7000 H   0  0  0  0  0  0  0  0  0  0  0  0
   -6.0173   -2.4499   -1.0231 H   0  0  0  0  0  0  0  0  0  0  0  0
   -6.7499   -2.5120    0.6332 H   0  0  0  0  0  0  0  0  0  0  0  0
   -6.8936   -0.2349   -0.8994 H   0  0  0  0  0  0  0  0  0  0  0  0
   -6.8919   -0.2776    0.9225 H   0  0  0  0  0  0  0  0  0  0  0  0
   -4.6628    0.2938    1.1477 H   0  0  0  0  0  0  0  0  0  0  0  0
   -4.5442   -0.7418   -1.7349 H   0  0  0  0  0  0  0  0  0  0  0  0
   -2.7011   -1.6051    0.4122 H   0  0  0  0  0  0  0  0  0  0  0  0
   -6.1278    2.0081    0.0063 H   0  0  0  0  0  0  0  0  0  0  0  0
   -5.5428    1.4184   -1.5709 H   0  0  0  0  0  0  0  0  0  0  0  0
   -4.0111    3.1115   -1.2748 H   0  0  0  0  0  0  0  0  0  0  0  0
   -1.9743    2.3030   -0.7868 H   0  0  0  0  0  0  0  0  0  0  0  0
   -2.8389    0.6788   -2.1284 H   0  0  0  0  0  0  0  0  0  0  0  0
   -1.8938   -0.1785   -0.9010 H   0  0  0  0  0  0  0  0  0  0  0  0
   -0.9140    2.8914    0.4469 H   0  0  0  0  0  0  0  0  0  0  0  0
   -1.1552    1.9591    3.3649 H   0  0  0  0  0  0  0  0  0  0  0  0
    0.2872    3.9027    3.8557 H   0  0  0  0  0  0  0  0  0  0  0  0
    0.2989    4.3732    2.1357 H   0  0  0  0  0  0  0  0  0  0  0  0
    2.3959    3.2679    2.6492 H   0  0  0  0  0  0  0  0  0  0  0  0
    1.5183    1.7641    3.2122 H   0  0  0  0  0  0  0  0  0  0  0  0
    1.0868    2.8352    0.3713 H   0  0  0  0  0  0  0  0  0  0  0  0
    0.0399    0.5944    0.2403 H   0  0  0  0  0  0  0  0  0  0  0  0
    0.1832    0.5424    2.0751 H   0  0  0  0  0  0  0  0  0  0  0  0
    3.4421    1.8871    1.3249 H   0  0  0  0  0  0  0  0  0  0  0  0
    2.5293    0.3840    1.4144 H   0  0  0  0  0  0  0  0  0  0  0  0
    1.8442    1.3250   -1.0835 H   0  0  0  0  0  0  0  0  0  0  0  0
    5.8383    1.7399   -0.9142 H   0  0  0  0  0  0  0  0  0  0  0  0
    5.3699    2.3736   -2.4903 H   0  0  0  0  0  0  0  0  0  0  0  0
    4.3891    0.1732   -3.1227 H   0  0  0  0  0  0  0  0  0  0  0  0
    6.1205    0.1066   -2.5989 H   0  0  0  0  0  0  0  0  0  0  0  0
    4.6757   -1.6911   -1.5085 H   0  0  0  0  0  0  0  0  0  0  0  0
    2.7955   -0.3840   -2.1442 H   0  0  0  0  0  0  0  0  0  0  0  0
    6.4049   -0.6997   -0.0495 H   0  0  0  0  0  0  0  0  0  0  0  0
    5.2513    0.4837    0.5805 H   0  0  0  0  0  0  0  0  0  0  0  0
    4.3959   -1.0000    2.0403 H   0  0  0  0  0  0  0  0  0  0  0  0
    3.9289   -3.0920   -0.0619 H   0  0  0  0  0  0  0  0  0  0  0  0
    1.6758   -1.1332    0.3752 H   0  0  0  0  0  0  0  0  0  0  0  0
    0.1758   -1.3688   -1.1434 H   0  0  0  0  0  0  0  0  0  0  0  0
    0.8648   -3.9859    0.1212 H   0  0  0  0  0  0  0  0  0  0  0  0
    0.1748   -2.5370    0.8601 H   0  0  0  0  0  0  0  0  0  0  0  0
   -1.1873   -4.8707   -0.0366 H   0  0  0  0  0  0  0  0  0  0  0  0
   -1.8765   -3.4341    0.6667 H   0  0  0  0  0  0  0  0  0  0  0  0
   -2.2871   -4.4707   -1.9281 H   0  0  0  0  0  0  0  0  0  0  0  0
   -1.3558   -1.7229   -2.6298 H   0  0  0  0  0  0  0  0  0  0  0  0
   -1.5639   -3.1779   -3.5950 H   0  0  0  0  0  0  0  0  0  0  0  0
    0.4143   -4.1965   -2.3291 H   0  0  0  0  0  0  0  0  0  0  0  0
    0.7628   -2.6611   -3.2985 H   0  0  0  0  0  0  0  0  0  0  0  0
   -4.2112   -3.5833   -1.2366 H   0  0  0  0  0  0  0  0  0  0  0  0
   -3.6032   -2.3167   -2.2864 H   0  0  0  0  0  0  0  0  0  0  0  0
   -4.5568    5.1906    1.3032 H   0  0  0  0  0  0  0  0  0  0  0  0
   -3.4581    4.9968   -0.0897 H   0  0  0  0  0  0  0  0  0  0  0  0
   -5.2773    4.7649   -0.2688 H   0  0  0  0  0  0  0  0  0  0  0  0
   -1.7238    4.4262    3.4472 H   0  0  0  0  0  0  0  0  0  0  0  0
    6.7474   -3.1555    3.0087 H   0  0  0  0  0  0  0  0  0  0  0  0
    5.0415   -2.7098    3.2915 H   0  0  0  0  0  0  0  0  0  0  0  0
    6.2889   -1.3885    3.0434 H   0  0  0  0  0  0  0  0  0  0  0  0
    2.7766   -3.7661    1.5562 H   0  0  0  0  0  0  0  0  0  0  0  0
   -5.6360   -3.5266    1.8838 H   0  0  0  0  0  0  0  0  0  0  0  0
   -3.8769   -3.6404    1.9683 H   0  0  0  0  0  0  0  0  0  0  0  0
   -4.7904   -4.3305    0.5591 H   0  0  0  0  0  0  0  0  0  0  0  0
    3.2639    2.2571   -3.2626 H   0  0  0  0  0  0  0  0  0  0  0  0
    3.5072    3.8149   -2.4297 H   0  0  0  0  0  0  0  0  0  0  0  0
    2.0295    2.8942   -2.0477 H   0  0  0  0  0  0  0  0  0  0  0  0
    4.9642    2.8531    0.3878 H   0  0  0  0  0  0  0  0  0  0  0  0
    3.3060    3.6663    0.2022 H   0  0  0  0  0  0  0  0  0  0  0  0
    4.6100    3.9295   -0.9567 H   0  0  0  0  0  0  0  0  0  0  0  0
   -6.6589   -2.6055    0.0737 H   0  0  0  0  0  0  0  0  0  0  0  0
   -5.2804   -2.8140   -1.0217 H   0  0  0  0  0  0  0  0  0  0  0  0
   -6.7890   -0.4125   -0.4351 H   0  0  0  0  0  0  0  0  0  0  0  0
   -5.2542   -0.5386   -1.3718 H   0  0  0  0  0  0  0  0  0  0  0  0
   -5.4310   -0.3889    1.6643 H   0  0  0  0  0  0  0  0  0  0  0  0
   -3.1178    0.0929    1.5480 H   0  0  0  0  0  0  0  0  0  0  0  0
   -3.0375   -2.1231    1.8772 H   0  0  0  0  0  0  0  0  0  0  0  0
   -5.0165    1.9557    1.5770 H   0  0  0  0  0  0  0  0  0  0  0  0
   -6.3581    1.6117    0.4924 H   0  0  0  0  0  0  0  0  0  0  0  0
   -5.2736    1.8695   -1.4536 H   0  0  0  0  0  0  0  0  0  0  0  0
   -3.1256    1.5776   -2.0052 H   0  0  0  0  0  0  0  0  0  0  0  0
   -3.0579   -0.5811   -1.3927 H   0  0  0  0  0  0  0  0  0  0  0  0
   -1.7962    0.0859   -0.3454 H   0  0  0  0  0  0  0  0  0  0  0  0
   -2.6979    2.5297    1.5045 H   0  0  0  0  0  0  0  0  0  0  0  0
   -2.4686    4.8037    0.7928 H   0  0  0  0  0  0  0  0  0  0  0  0
   -0.3143    5.4921   -0.2879 H   0  0  0  0  0  0  0  0  0  0  0  0
   -1.1608    4.2002   -1.2849 H   0  0  0  0  0  0  0  0  0  0  0  0
    1.0336    3.5357   -1.2604 H   0  0  0  0  0  0  0  0  0  0  0  0
    1.3238    4.0862    0.4322 H   0  0  0  0  0  0  0  0  0  0  0  0
    0.1987    1.4974   -0.5810 H   0  0  0  0  0  0  0  0  0  0  0  0
   -0.3667    2.6137    2.2238 H   0  0  0  0  0  0  0  0  0  0  0  0
   -0.7676    1.0057    1.6108 H   0  0  0  0  0  0  0  0  0  0  0  0
    1.5945    0.9510    1.5996 H   0  0  0  0  0  0  0  0  0  0  0  0
    2.1050    2.6154    1.4315 H   0  0  0  0  0  0  0  0  0  0  0  0
    2.4760    2.1388   -1.0596 H   0  0  0  0  0  0  0  0  0  0  0  0
    5.6625    0.6238    0.0113 H   0  0  0  0  0  0  0  0  0  0  0  0
    5.9778    2.2021   -0.6849 H   0  0  0  0  0  0  0  0  0  0  0  0
    4.1903    1.8879   -2.3752 H   0  0  0  0  0  0  0  0  0  0  0  0
    5.6635    0.7888   -2.4996 H   0  0  0  0  0  0  0  0  0  0  0  0
    3.3673   -0.1598   -2.9005 H   0  0  0  0  0  0  0  0  0  0  0  0
    1.7935    0.0843   -1.3916 H   0  0  0  0  0  0  0  0  0  0  0  0
    5.5626   -1.2544   -2.3174 H   0  0  0  0  0  0  0  0  0  0  0  0
    4.0924   -2.2289   -2.4515 H   0  0  0  0  0  0  0  0  0  0  0  0
    5.8657   -1.7372   -0.0560 H   0  0  0  0  0  0  0  0  0  0  0  0
    3.5517   -2.7625    1.0052 H   0  0  0  0  0  0  0  0  0  0  0  0
    1.8822   -0.8938    0.8322 H   0  0  0  0  0  0  0  0  0  0  0  0
    2.3059   -3.9534   -0.0403 H   0  0  0  0  0  0  0  0  0  0  0  0
    0.4039   -3.1767   -2.1024 H   0  0  0  0  0  0  0  0  0  0  0  0
    0.9491   -4.7867   -1.6127 H   0  0  0  0  0  0  0  0  0  0  0  0
   -1.4174   -4.5231   -1.4650 H   0  0  0  0  0  0  0  0  0  0  0  0
   -0.8093   -4.8333    0.1868 H   0  0  0  0  0  0  0  0  0  0  0  0
   -1.0296   -2.0592   -1.0343 H   0  0  0  0  0  0  0  0  0  0  0  0
   -0.5354   -1.3170    1.1309 H   0  0  0  0  0  0  0  0  0  0  0  0
   -1.1119   -2.7633    1.9678 H   0  0  0  0  0  0  0  0  0  0  0  0
    1.3406   -2.5729    1.8945 H   0  0  0  0  0  0  0  0  0  0  0  0
    0.6087   -4.1241    1.4717 H   0  0  0  0  0  0  0  0  0  0  0  0
   -3.1271   -3.8048    0.1061 H   0  0  0  0  0  0  0  0  0  0  0  0
   -3.2205   -2.5914   -1.1628 H   0  0  0  0  0  0  0  0  0  0  0  0
   -4.9890    3.8848   -2.3636 H   0  0  0  0  0  0  0  0  0  0  0  0
   -6.3648    3.6871   -1.2476 H   0  0  0  0  0  0  0  0  0  0  0  0
   -5.3933    5.1575   -1.0822 H   0  0  0  0  0  0  0  0  0  0  0  0
   -0.4947    5.3617    1.9118 H   0  0  0  0  0  0  0  0  0  0  0  0
    6.4321   -3.7218    0.7891 H   0  0  0  0  0  0  0  0  0  0  0  0
    6.2038   -5.0207   -0.3914 H   0  0  0  0  0  0  0  0  0  0  0  0
    7.0965   -3.5672   -0.8940 H   0  0  0  0  0  0  0  0  0  0  0  0
    5.3779   -1.3739    1.7119 H   0  0  0  0  0  0  0  0  0  0  0  0
   -5.7052   -3.8645    2.2544 H   0  0  0  0  0  0  0  0  0  0  0  0
   -5.0514   -4.4673    0.7170 H   0  0  0  0  0  0  0  0  0  0  0  0
   -3.9423   -4.0349    2.1213 H   0  0  0  0  0  0  0  0  0  0  0  0
    4.2380    3.0578    2.0794 H   0  0  0  0  0  0  0  0  0  0  0  0
    5.3402    1.7091    1.7710 H   0  0  0  0  0  0  0  0  0  0  0  0
    3.5709    1.4261    2.1981 H   0  0  0  0  0  0  0  0  0  0  0  0
    3.7138    4.0901    0.6274 H   0  0  0  0  0  0  0  0  0  0  0  0
    3.5422    3.5882   -1.1435 H   0  0  0  0  0  0  0  0  0  0  0  0
    5.1316    3.7498   -0.3739 H   0  0  0  0  0  0  0  0  0  0  0  0
   -5.7029   -3.0543   -2.1890 H   0  0  0  0  0  0  0  0  0  0  0  0
   -6.5409   -2.2631   -0.8228 H   0  0  0  0  0  0  0  0  0  0  0  0
   -4.3513   -0.9548   -2.5449 H   0  0  0  0  0  0  0  0  0  0  0  0
   -6.1151   -0.6989   -2.6084 H   0  0  0  0  0  0  0  0  0  0  0  0
   -6.0617   -0.0847   -0.1877 H   0  0  0  0  0  0  0  0  0  0  0  0
   -3.0413   -0.2627   -0.6882 H   0  0  0  0  0  0  0  0  0  0  0  0
   -4.4850   -1.9486    1.3591 H   0  0  0  0  0  0  0  0  0  0  0  0
   -5.8280    1.6967   -1.7853 H   0  0  0  0  0  0  0  0  0  0  0  0
   -4.1225    1.2116   -2.1604 H   0  0  0  0  0  0  0  0  0  0  0  0
   -5.3126    2.7752    0.2048 H   0  0  0  0  0  0  0  0  0  0  0  0
   -3.4411    2.4948    1.5205 H   0  0  0  0  0  0  0  0  0  0  0  0
   -2.9196    0.1355    1.8355 H   0  0  0  0  0  0  0  0  0  0  0  0
   -4.6924    0.5194    1.7516 H   0  0  0  0  0  0  0  0  0  0  0  0
   -0.8201    1.2344    1.3851 H   0  0  0  0  0  0  0  0  0  0  0  0
   -1.7824    2.8695    2.7496 H   0  0  0  0  0  0  0  0  0  0  0  0
   -0.0202    4.2328    3.2336 H   0  0  0  0  0  0  0  0  0  0  0  0
    0.3148    4.6107    1.5299 H   0  0  0  0  0  0  0  0  0  0  0  0
    2.0024    3.0669    2.5640 H   0  0  0  0  0  0  0  0  0  0  0  0
    0.7701    1.7617    2.5585 H   0  0  0  0  0  0  0  0  0  0  0  0
    1.9156    3.4113    0.2995 H   0  0  0  0  0  0  0  0  0  0  0  0
    0.0486    1.8539   -0.9917 H   0  0  0  0  0  0  0  0  0  0  0  0
   -0.1861    3.5510   -0.5161 H   0  0  0  0  0  0  0  0  0  0  0  0
    2.5609    0.8277    1.4066 H   0  0  0  0  0  0  0  0  0  0  0  0
    1.1883    0.5113    0.3785 H   0  0  0  0  0  0  0  0  0  0  0  0
    2.0835    1.2458   -1.5354 H   0  0  0  0  0  0  0  0  0  0  0  0
    6.0112    1.7255   -0.9948 H   0  0  0  0  0  0  0  0  0  0  0  0
    5.3740    2.3568   -2.4974 H   0  0  0  0  0  0  0  0  0  0  0  0
    4.4621    0.1346   -3.1068 H   0  0  0  0  0  0  0  0  0  0  0  0
    6.1810    0.0793   -2.5464 H   0  0  0  0  0  0  0  0  0  0  0  0
    4.8591   -1.7022   -1.6522 H   0  0  0  0  0  0  0  0  0  0  0  0
    2.8969   -0.7115   -2.0435 H   0  0  0  0  0  0  0  0  0  0  0  0
    6.4975   -1.3147   -0.1722 H   0  0  0  0  0  0  0  0  0  0  0  0
    5.9777    0.2551    0.4129 H   0  0  0  0  0  0  0  0  0  0  0  0
    4.3600   -0.6965    1.8390 H   0  0  0  0  0  0  0  0  0  0  0  0
    4.3242   -3.0130   -0.1840 H   0  0  0  0  0  0  0  0  0  0  0  0
    2.1143   -1.2190    0.7137 H   0  0  0  0  0  0  0  0  0  0  0  0
    0.3537   -1.5954   -0.2602 H   0  0  0  0  0  0  0  0  0  0  0  0
    1.1642   -4.4122    0.4672 H   0  0  0  0  0  0  0  0  0  0  0  0
    0.4298   -3.2042    1.5667 H   0  0  0  0  0  0  0  0  0  0  0  0
   -0.8110   -5.1392   -0.3636 H   0  0  0  0  0  0  0  0  0  0  0  0
   -1.3457   -4.6629    1.2693 H   0  0  0  0  0  0  0  0  0  0  0  0
   -2.8452   -4.0934   -0.5280 H   0  0  0  0  0  0  0  0  0  0  0  0
   -1.6736   -1.8494   -1.8394 H   0  0  0  0  0  0  0  0  0  0  0  0
   -1.9338   -3.4712   -2.4877 H   0  0  0  0  0  0  0  0  0  0  0  0
    0.2674   -4.1665   -1.8904 H   0  0  0  0  0  0  0  0  0  0  0  0
    0.3711   -2.4646   -2.6013 H   0  0  0  0  0  0  0  0  0  0  0  0
   -2.4255   -2.7892    1.6732 H   0  0  0  0  0  0  0  0  0  0  0  0
   -1.8167   -1.4684    0.6803 H   0  0  0  0  0  0  0  0  0  0  0  0
   -4.5068    4.8395    0.2238 H   0  0  0  0  0  0  0  0  0  0  0  0
   -3.9306    5.3810   -1.3616 H   0  0  0  0  0  0  0  0  0  0  0  0
   -5.5189    4.5992   -1.2963 H   0  0  0  0  0  0  0  0  0  0  0  0
   -2.3747    4.8771    2.0301 H   0  0  0  0  0  0  0  0  0  0  0  0
    6.4331   -2.4264    3.8081 H   0  0  0  0  0  0  0  0  0  0  0  0
    4.6958   -2.0843    3.6269 H   0  0  0  0  0  0  0  0  0  0  0  0
    5.9234   -0.7233    3.4314 H   0  0  0  0  0  0  0  0  0  0  0  0
    3.3781   -4.0455    1.3818 H   0  0  0  0  0  0  0  0  0  0  0  0
   -6.1634   -3.6097    0.6492 H   0  0  0  0  0  0  0  0  0  0  0  0
   -5.2194   -4.8143   -0.3426 H   0  0  0  0  0  0  0  0  0  0  0  0
   -4.5323   -4.1038    1.1879 H   0  0  0  0  0  0  0  0  0  0  0  0
    3.7620    3.1203   -2.8308 H   0  0  0  0  0  0  0  0  0  0  0  0
    3.4745    4.0958   -1.3869 H   0  0  0  0  0  0  0  0  0  0  0  0
    2.2235    2.8792   -2.0130 H   0  0  0  0  0  0  0  0  0  0  0  0
    3.8688    2.3416    1.1618 H   0  0  0  0  0  0  0  0  0  0  0  0
    5.4361    2.5692    0.4189 H   0  0  0  0  0  0  0  0  0  0  0  0
    4.2547    3.8162    0.1620 H   0  0  0  0  0  0  0  0  0  0  0  0
   -6.1225   -2.6606   -1.8614 H   0  0  0  0  0  0  0  0  0  0  0  0
   -4.4106   -2.3490   -2.1962 H   0  0  0  0  0  0  0  0  0  0  0  0
   -4.7906   -0.0806   -2.0554 H   0  0  0  0  0  0  0  0  0  0  0  0
   -6.4680   -0.4488   -1.5912 H   0  0  0  0  0  0  0  0  0  0  0  0
   -6.0367   -0.6844    0.6547 H   0  0  0  0  0  0  0  0  0  0  0  0
   -4.0362   -0.6247    1.7916 H   0  0  0  0  0  0  0  0  0  0  0  0
   -3.5769   -2.7770    1.3404 H   0  0  0  0  0  0  0  0  0  0  0  0
   -5.7729    1.5644    1.1493 H   0  0  0  0  0  0  0  0  0  0  0  0
   -6.1101    1.5790   -0.5900 H   0  0  0  0  0  0  0  0  0  0  0  0
   -3.7991    1.8863   -1.1281 H   0  0  0  0  0  0  0  0  0  0  0  0
   -3.2870    1.4712    1.8760 H   0  0  0  0  0  0  0  0  0  0  0  0
   -2.5904    0.2303   -0.7895 H   0  0  0  0  0  0  0  0  0  0  0  0
   -1.8657   -0.2126    0.8575 H   0  0  0  0  0  0  0  0  0  0  0  0
   -1.8823    2.2180    2.6186 H   0  0  0  0  0  0  0  0  0  0  0  0
   -2.0598    4.4223    1.4626 H   0  0  0  0  0  0  0  0  0  0  0  0
    0.1188    5.5469    0.9037 H   0  0  0  0  0  0  0  0  0  0  0  0
   -0.3033    4.1839   -0.1449 H   0  0  0  0  0  0  0  0  0  0  0  0
    2.0856    4.3750    0.9635 H   0  0  0  0  0  0  0  0  0  0  0  0
    1.2641    4.0150    2.4839 H   0  0  0  0  0  0  0  0  0  0  0  0
    2.1844    1.9979    1.8254 H   0  0  0  0  0  0  0  0  0  0  0  0
    0.3459    2.0016    3.1665 H   0  0  0  0  0  0  0  0  0  0  0  0
    0.0316    0.7728    1.9299 H   0  0  0  0  0  0  0  0  0  0  0  0
    0.4016    0.9711   -0.1364 H   0  0  0  0  0  0  0  0  0  0  0  0
    0.7484    2.5638   -0.7947 H   0  0  0  0  0  0  0  0  0  0  0  0
    1.9229    0.7592   -1.7723 H   0  0  0  0  0  0  0  0  0  0  0  0
    5.1700    1.9576   -2.3382 H   0  0  0  0  0  0  0  0  0  0  0  0
    3.8475    2.0938   -3.4927 H   0  0  0  0  0  0  0  0  0  0  0  0
    3.2526   -0.0689   -3.3611 H   0  0  0  0  0  0  0  0  0  0  0  0
    4.9990   -0.1481   -3.1065 H   0  0  0  0  0  0  0  0  0  0  0  0
    3.2228   -1.4696   -1.6055 H   0  0  0  0  0  0  0  0  0  0  0  0
    4.0265    0.6387    0.3729 H   0  0  0  0  0  0  0  0  0  0  0  0
    5.6416   -0.4211   -0.1325 H   0  0  0  0  0  0  0  0  0  0  0  0
    5.8056   -1.6147   -1.5285 H   0  0  0  0  0  0  0  0  0  0  0  0
    4.1201   -2.9860   -0.4392 H   0  0  0  0  0  0  0  0  0  0  0  0
    3.5010   -2.2293    2.0791 H   0  0  0  0  0  0  0  0  0  0  0  0
    2.0873   -0.3638    1.4911 H   0  0  0  0  0  0  0  0  0  0  0  0
    2.2181   -3.3401    0.9675 H   0  0  0  0  0  0  0  0  0  0  0  0
    1.3437   -3.5077   -1.5203 H   0  0  0  0  0  0  0  0  0  0  0  0
    1.2086   -4.8430   -0.3688 H   0  0  0  0  0  0  0  0  0  0  0  0
   -0.8563   -3.8913   -1.8715 H   0  0  0  0  0  0  0  0  0  0  0  0
   -1.0368   -4.7710   -0.3346 H   0  0  0  0  0  0  0  0  0  0  0  0
   -0.5785   -1.8017   -0.3714 H   0  0  0  0  0  0  0  0  0  0  0  0
   -1.7074   -2.3116    2.0016 H   0  0  0  0  0  0  0  0  0  0  0  0
   -1.3536   -4.0023    1.5702 H   0  0  0  0  0  0  0  0  0  0  0  0
    0.4641   -1.6391    2.0559 H   0  0  0  0  0  0  0  0  0  0  0  0
    0.6155   -3.3360    2.5500 H   0  0  0  0  0  0  0  0  0  0  0  0
   -2.9474   -3.4343   -1.1648 H   0  0  0  0  0  0  0  0  0  0  0  0
   -2.6486   -1.7110   -1.3917 H   0  0  0  0  0  0  0  0  0  0  0  0
   -4.4100    5.2105   -0.7483 H   0  0  0  0  0  0  0  0  0  0  0  0
   -3.1566    4.1566   -1.4418 H   0  0  0  0  0  0  0  0  0  0  0  0
   -4.9198    3.9121   -1.8400 H   0  0  0  0  0  0  0  0  0  0  0  0
   -0.5676    5.4517    3.0476 H   0  0  0  0  0  0  0  0  0  0  0  0
    4.8093   -4.7510    0.7489 H   0  0  0  0  0  0  0  0  0  0  0  0
    6.6202   -4.7130    0.9138 H   0  0  0  0  0  0  0  0  0  0  0  0
    5.7651   -4.2223   -0.6548 H   0  0  0  0  0  0  0  0  0  0  0  0
    4.8740   -0.7588    2.6716 H   0  0  0  0  0  0  0  0  0  0  0  0
   -4.3791   -4.4787    0.7025 H   0  0  0  0  0  0  0  0  0  0  0  0
   -6.0499   -4.4350   -0.0039 H   0  0  0  0  0  0  0  0  0  0  0  0
   -4.6293   -4.6017   -1.0515 H   0  0  0  0  0  0  0  0  0  0  0  0
    3.9003    4.0539   -0.5689 H   0  0  0  0  0  0  0  0  0  0  0  0
    5.1787    2.8716   -0.8295 H   0  0  0  0  0  0  0  0  0  0  0  0
    4.0640    2.6691    0.5155 H   0  0  0  0  0  0  0  0  0  0  0  0
    2.0574    4.0014   -1.4047 H   0  0  0  0  0  0  0  0  0  0  0  0
    1.5716    2.7123   -2.6494 H   0  0  0  0  0  0  0  0  0  0  0  0
    3.0523    3.7144   -2.8326 H   0  0  0  0  0  0  0  0  0  0  0  0
  1  2  1  0
  2  3  1  0
  3  4  1  0
  4  5  1  0
  1  6  1  0
  5  6  1  0
  4  7  1  0
  7  8  1  0
  8  9  1  0
  5 10  1  0
  9 10  1  0
  9 11  1  0
 11 12  1  0
 12 13  1  0
 13 14  1  0
 14 15  1  0
 15 16  1  0
 12 17  1  0
 16 17  1  0
 16 18  1  0
 18 19  1  0
 19 20  1  0
 20 21  1  0
 21 22  1  0
 22 23  1  0
 19 24  1  0
 23 24  1  0
 23 25  1  0
 25 26  1  0
 26 27  1  0
 24 28  1  0
 27 28  1  0
 28 29  1  0
 29 30  1  0
 30 31  1  0
 31 32  1  0
 32 33  1  0
 33 34  1  0
 30 35  1  0
 34 35  1  0
  6 36  1  0
 33 36  1  0
  8 37  1  0
 37 38  1  0
 13 39  1  0
 26 40  1  0
 40 41  1  0
 27 42  1  0
  1 43  1  0
 20 44  1  0
 20 45  1  0
 46 47  1  0
 47 48  1  0
 48 49  1  0
 49 50  1  0
 46 51  1  0
 50 51  1  0
 49 52  1  0
 52 53  1  0
 53 54  1  0
 50 55  1  0
 54 55  1  0
 54 56  1  0
 56 57  1  0
 57 58  1  0
 58 59  1  0
 59 60  1  0
 60 61  1  0
 57 62  1  0
 61 62  1  0
 61 63  1  0
 63 64  1  0
 64 65  1  0
 65 66  1  0
 66 67  1  0
 67 68  1  0
 64 69  1  0
 68 69  1  0
 68 70  1  0
 70 71  1  0
 71 72  1  0
 69 73  1  0
 72 73  1  0
 73 74  1  0
 74 75  1  0
 75 76  1  0
 76 77  1  0
 77 78  1  0
 78 79  1  0
 75 80  1  0
 79 80  1  0
 51 81  1  0
 78 81  1  0
 53 82  1  0
 82 83  1  0
 58 84  1  0
 71 85  1  0
 85 86  1  0
 72 87  1  0
 46 88  1  0
 65 89  1  0
 65 90  1  0
 91 92  1  0
 92 93  1  0
 93 94  1  0
 94 95  1  0
 91 96  1  0
 95 96  1  0
 94 97  1  0
 97 98  1  0
 98 99  1  0
 95100  1  0
 99100  1  0
 99101  1  0
101102  1  0
102103  1  0
103104  1  0
104105  1  0
105106  1  0
102107  1  0
106107  1  0
106108  1  0
108109  1  0
109110  1  0
110111  1  0
111112  1  0
112113  1  0
109114  1  0
113114  1  0
113115  1  0
115116  1  0
116117  1  0
114118  1  0
117118  1  0
118119  1  0
119120  1  0
120121  1  0
121122  1  0
122123  1  0
123124  1  0
120125  1  0
124125  1  0
 96126  1  0
123126  1  0
 98127  1  0
127128  1  0
103129  1  0
116130  1  0
130131  1  0
117132  1  0
 91133  1  0
110134  1  0
110135  1  0
136137  1  0
137138  1  0
138139  1  0
139140  1  0
136141  1  0
140141  1  0
139142  1  0
142143  1  0
143144  1  0
140145  1  0
144145  1  0
144146  1  0
146147  1  0
147148  1  0
148149  1  0
149150  1  0
150151  1  0
147152  1  0
151152  1  0
151153  1  0
153154  1  0
154155  1  0
155156  1  0
156157  1  0
157158  1  0
154159  1  0
158159  1  0
158160  1  0
160161  1  0
161162  1  0
159163  1  0
162163  1  0
163164  1  0
164165  1  0
165166  1  0
166167  1  0
167168  1  0
168169  1  0
165170  1  0
169170  1  0
141171  1  0
168171  1  0
143172  1  0
172173  1  0
148174  1  0
161175  1  0
175176  1  0
162177  1  0
136178  1  0
155179  1  0
155180  1  0
181182  1  0
182183  1  0
183184  1  0
184185  1  0
181186  1  0
185186  1  0
184187  1  0
187188  1  0
188189  1  0
185190  1  0
189190  1  0
189191  1  0
191192  1  0
192193  1  0
193194  1  0
194195  1  0
195196  1  0
192197  1  0
196197  1  0
196198  1  0
198199  1  0
199200  1  0
200201  1  0
201202  1  0
202203  1  0
199204  1  0
203204  1  0
203205  1  0
205206  1  0
206207  1  0
204208  1  0
207208  1  0
208209  1  0
209210  1  0
210211  1  0
211212  1  0
212213  1  0
213214  1  0
210215  1  0
214215  1  0
186216  1  0
213216  1  0
188217  1  0
217218  1  0
193219  1  0
206220  1  0
220221  1  0
207222  1  0
181223  1  0
200224  1  0
200225  1  0
  2226  1  0
  2227  1  0
  3228  1  0
  3229  1  0
  4230  1  0
  5231  1  0
  6232  1  1
  7233  1  0
  7234  1  0
  8235  1  0
  9236  1  1
 10237  1  0
 10238  1  0
 12239  1  1
 13240  1  0
 14241  1  0
 14242  1  0
 15243  1  0
 15244  1  0
 16245  1  6
 17246  1  0
 17247  1  0
 18248  1  0
 18249  1  0
 19250  1  6
 21251  1  0
 21252  1  0
 22253  1  0
 22254  1  0
 23255  1  0
 24256  1  6
 25257  1  0
 25258  1  0
 26259  1  0
 27260  1  1
 28261  1  1
 30262  1  0
 31263  1  0
 31264  1  0
 32265  1  0
 32266  1  0
 33267  1  0
 34268  1  0
 34269  1  0
 35270  1  0
 35271  1  0
 36272  1  0
 36273  1  0
 38274  1  0
 38275  1  0
 38276  1  0
 39277  1  0
 41278  1  0
 41279  1  0
 41280  1  0
 42281  1  0
 43282  1  0
 43283  1  0
 43284  1  0
 44285  1  0
 44286  1  0
 44287  1  0
 45288  1  0
 45289  1  0
 45290  1  0
 47291  1  0
 47292  1  0
 48293  1  0
 48294  1  0
 49295  1  0
 50296  1  6
 51297  1  1
 52298  1  0
 52299  1  0
 53300  1  0
 54301  1  0
 55302  1  0
 55303  1  0
 57304  1  0
 58305  1  0
 59306  1  0
 59307  1  0
 60308  1  0
 60309  1  0
 61310  1  0
 62311  1  0
 62312  1  0
 63313  1  0
 63314  1  0
 64315  1  6
 66316  1  0
 66317  1  0
 67318  1  0
 67319  1  0
 68320  1  0
 69321  1  6
 70322  1  0
 70323  1  0
 71324  1  0
 72325  1  0
 73326  1  1
 75327  1  0
 76328  1  0
 76329  1  0
 77330  1  0
 77331  1  0
 78332  1  0
 79333  1  0
 79334  1  0
 80335  1  0
 80336  1  0
 81337  1  0
 81338  1  0
 83339  1  0
 83340  1  0
 83341  1  0
 84342  1  0
 86343  1  0
 86344  1  0
 86345  1  0
 87346  1  0
 88347  1  0
 88348  1  0
 88349  1  0
 89350  1  0
 89351  1  0
 89352  1  0
 90353  1  0
 90354  1  0
 90355  1  0
 92356  1  0
 92357  1  0
 93358  1  0
 93359  1  0
 94360  1  0
 95361  1  0
 96362  1  1
 97363  1  0
 97364  1  0
 98365  1  0
 99366  1  0
100367  1  0
100368  1  0
102369  1  0
103370  1  0
104371  1  0
104372  1  0
105373  1  0
105374  1  0
106375  1  6
107376  1  0
107377  1  0
108378  1  0
108379  1  0
109380  1  6
111381  1  0
111382  1  0
112383  1  0
112384  1  0
113385  1  0
114386  1  6
115387  1  0
115388  1  0
116389  1  0
117390  1  0
118391  1  1
120392  1  0
121393  1  0
121394  1  0
122395  1  0
122396  1  0
123397  1  0
124398  1  0
124399  1  0
125400  1  0
125401  1  0
126402  1  0
126403  1  0
128404  1  0
128405  1  0
128406  1  0
129407  1  0
131408  1  0
131409  1  0
131410  1  0
132411  1  0
133412  1  0
133413  1  0
133414  1  0
134415  1  0
134416  1  0
134417  1  0
135418  1  0
135419  1  0
135420  1  0
137421  1  0
137422  1  0
138423  1  0
138424  1  0
139425  1  0
140426  1  0
141427  1  1
142428  1  0
142429  1  0
143430  1  1
144431  1  1
145432  1  0
145433  1  0
147434  1  1
148435  1  0
149436  1  0
149437  1  0
150438  1  0
150439  1  0
151440  1  0
152441  1  0
152442  1  0
153443  1  0
153444  1  0
154445  1  6
156446  1  0
156447  1  0
157448  1  0
157449  1  0
158450  1  0
159451  1  6
160452  1  0
160453  1  0
161454  1  0
162455  1  0
163456  1  1
165457  1  0
166458  1  0
166459  1  0
167460  1  0
167461  1  0
168462  1  0
169463  1  0
169464  1  0
170465  1  0
170466  1  0
171467  1  0
171468  1  0
173469  1  0
173470  1  0
173471  1  0
174472  1  0
176473  1  0
176474  1  0
176475  1  0
177476  1  0
178477  1  0
178478  1  0
178479  1  0
179480  1  0
179481  1  0
179482  1  0
180483  1  0
180484  1  0
180485  1  0
182486  1  0
182487  1  0
183488  1  0
183489  1  0
184490  1  0
185491  1  0
186492  1  1
187493  1  0
187494  1  0
188495  1  0
189496  1  1
190497  1  0
190498  1  0
192499  1  0
193500  1  0
194501  1  0
194502  1  0
195503  1  0
195504  1  0
196505  1  0
197506  1  0
197507  1  0
198508  1  0
198509  1  0
199510  1  6
201511  1  0
201512  1  0
202513  1  0
202514  1  0
203515  1  0
204516  1  0
205517  1  0
205518  1  0
206519  1  0
207520  1  0
208521  1  1
210522  1  0
211523  1  0
211524  1  0
212525  1  0
212526  1  0
213527  1  0
214528  1  0
214529  1  0
215530  1  0
215531  1  0
216532  1  0
216533  1  0
218534  1  0
218535  1  0
218536  1  0
219537  1  0
221538  1  0
221539  1  0
221540  1  0
222541  1  0
223542  1  0
223543  1  0
223544  1  0
224545  1  0
224546  1  0
224547  1  0
225548  1  0
225549  1  0
225550  1  0
M  CHG  5  20   1  65   1 110   1 155   1 200   1
M  END
>  <PDBID>  (1) 
2XYT

>  <PDB ID>  (1) 
2XYT

>  <Generic Name>  (1) 
Tubocurarine

>  <Brand Name>  (1) 
Tubocurarine Chloride Inj 3mg/ml#Tubocurarine Chloride Inj 3mg/ml USP#Tubarine

>  <DrugBank ID>  (1) 
DB01199

>  <ATC Codes>  (1) 
M03AA02

>  <Ligand ID>  (1) 
TC9,TUB

>  <Target Name>  (1) 
Neuronal acetylcholine receptor subunit alpha-2

>  <UniProt ID>  (1) 
Q15822

>  <PDB ID.1>  (1) 
2XYT

>  <Seq. Identity>  (1) 
31%

$$$$
