PDB_DB00625_09
     RDKit          3D

 42 44  0  0  0  0  0  0  0  0999 V2000
   -3.3032    3.2530    1.3136 Cl  0  0  0  0  0  0  0  0  0  0  0  0
   -1.4302   -2.1972    1.6765 F   0  0  0  0  0  0  0  0  0  0  0  0
    0.6646   -2.0586    2.5740 F   0  0  0  0  0  0  0  0  0  0  0  0
   -0.7820   -0.4530    2.9687 F   0  0  0  0  0  0  0  0  0  0  0  0
   -0.3576   -3.5954   -0.2182 O   0  0  0  0  0  0  0  0  0  0  0  0
    0.6539   -1.5197   -0.0770 O   0  0  0  0  0  0  0  0  0  0  0  0
   -1.5547   -1.7374   -0.8682 N   0  0  0  0  0  0  0  0  0  0  0  0
   -1.5833   -0.3099   -0.9879 C   0  0  1  0  0  0  0  0  0  0  0  0
   -3.0594    0.0861   -0.9689 C   0  0  0  0  0  0  0  0  0  0  0  0
   -3.2438    1.5587   -0.8240 C   0  0  0  0  0  0  0  0  0  0  0  0
   -2.3892    2.1632    0.2547 C   0  0  0  0  0  0  0  0  0  0  0  0
   -1.7961    0.9883    1.0564 C   0  0  0  0  0  0  0  0  0  0  0  0
   -0.8139    0.3140    0.1464 C   0  0  0  0  0  0  0  0  0  0  0  0
    0.1730   -0.5955    0.8145 C   0  0  2  0  0  0  0  0  0  0  0  0
    1.3297    0.1511    1.4158 C   0  0  0  0  0  0  0  0  0  0  0  0
    2.2111    0.9168    0.5349 C   0  0  0  0  0  0  0  0  0  0  0  0
    2.9459    0.1719   -0.5361 C   0  0  0  0  0  0  0  0  0  0  0  0
    3.8623    1.1014   -1.4049 C   0  0  0  0  0  0  0  0  0  0  0  0
    4.4127    0.0085   -0.5167 C   0  0  0  0  0  0  0  0  0  0  0  0
   -0.4164   -1.3641    1.9970 C   0  0  0  0  0  0  0  0  0  0  0  0
   -0.2518   -2.2997   -0.7268 C   0  0  0  0  0  0  0  0  0  0  0  0
    0.4655   -4.1107   -0.2799 H   0  0  0  0  0  0  0  0  0  0  0  0
   -2.0539   -2.1348   -1.6952 H   0  0  0  0  0  0  0  0  0  0  0  0
   -1.2046    0.0430   -1.9740 H   0  0  0  0  0  0  0  0  0  0  0  0
   -3.4595   -0.1995   -1.9808 H   0  0  0  0  0  0  0  0  0  0  0  0
   -3.6386   -0.5223   -0.2453 H   0  0  0  0  0  0  0  0  0  0  0  0
   -3.0720    2.0314   -1.8164 H   0  0  0  0  0  0  0  0  0  0  0  0
   -4.3035    1.7474   -0.5598 H   0  0  0  0  0  0  0  0  0  0  0  0
   -1.5344    2.6736   -0.2337 H   0  0  0  0  0  0  0  0  0  0  0  0
   -2.6720    0.3608    1.3187 H   0  0  0  0  0  0  0  0  0  0  0  0
   -1.3251    1.4849    1.9299 H   0  0  0  0  0  0  0  0  0  0  0  0
   -0.2200    1.1522   -0.3158 H   0  0  0  0  0  0  0  0  0  0  0  0
    1.9488   -0.6373    1.9406 H   0  0  0  0  0  0  0  0  0  0  0  0
    0.9084    0.7471    2.2618 H   0  0  0  0  0  0  0  0  0  0  0  0
    2.9800    1.4116    1.2073 H   0  0  0  0  0  0  0  0  0  0  0  0
    1.7397    1.7863    0.0254 H   0  0  0  0  0  0  0  0  0  0  0  0
    2.3407   -0.4993   -1.1874 H   0  0  0  0  0  0  0  0  0  0  0  0
    4.0322    2.1214   -1.0226 H   0  0  0  0  0  0  0  0  0  0  0  0
    3.8430    0.9675   -2.4837 H   0  0  0  0  0  0  0  0  0  0  0  0
    5.0059    0.2984    0.3610 H   0  0  0  0  0  0  0  0  0  0  0  0
    4.8034   -0.8601   -1.0961 H   0  0  0  0  0  0  0  0  0  0  0  0
    0.1443   -2.4437   -1.7774 H   0  0  0  0  0  0  0  0  0  0  0  0
  7  8  1  0
  8  9  1  0
  9 10  1  0
  1 11  1  0
 10 11  1  0
 11 12  1  0
  8 13  1  0
 12 13  1  0
  6 14  1  0
 13 14  1  0
 14 15  1  1
 15 16  1  0
 16 17  1  0
 17 18  1  0
 17 19  1  0
 18 19  1  0
 20  2  1  0
  3 20  1  0
  4 20  1  0
 14 20  1  0
  5 21  1  0
  6 21  1  0
  7 21  1  0
  5 22  1  0
  7 23  1  0
  8 24  1  6
  9 25  1  0
  9 26  1  0
 10 27  1  0
 10 28  1  0
 11 29  1  0
 12 30  1  0
 12 31  1  0
 13 32  1  0
 15 33  1  0
 15 34  1  0
 16 35  1  0
 16 36  1  0
 17 37  1  0
 18 38  1  0
 18 39  1  0
 19 40  1  0
 19 41  1  0
 21 42  1  0
M  END
>  <PDBID>  (1) 
1JKH

>  <PDB ID>  (1) 
1JKH

>  <Generic Name>  (1) 
Efavirenz

>  <Brand Name>  (1) 
Atripla#Auro-efavirenz#Mylan-efavirenz#Sustiva#Sustiva 100mg#Sustiva 200mg#Sustiva 50mg#Sustiva Tablets#Teva-efavirenz#E.F#Efavir#Efavirenz#Efcure#Efferven#Estiva#Evirenz#Stocrin#Viranz

>  <DrugBank ID>  (1) 
DB00625

>  <ATC Codes>  (1) 
J05AR06#J05AG03#J05AR11

>  <Ligand ID>  (1) 
EFZ

>  <Target Name>  (1) 
Reverse transcriptase/RNaseH

>  <UniProt ID>  (1) 
Q72547

>  <PDB ID.1>  (1) 
1JKH

>  <Seq. Identity>  (1) 
96%

$$$$
