PDB_DB01194_07
     RDKit          3D

 52 53  0  0  0  0  0  0  0  0999 V2000
   -3.5130   -0.6078    0.8249 C   0  0  0  0  0  0  0  0  0  0  0  0
    1.3849    0.0833   -0.3016 C   0  0  0  0  0  0  0  0  0  0  0  0
    1.2509    0.2776    1.1945 C   0  0  1  0  0  0  0  0  0  0  0  0
    0.8218   -1.2783   -0.6275 C   0  0  2  0  0  0  0  0  0  0  0  0
   -0.5454   -1.3919    0.0785 C   0  0  0  0  0  0  0  0  0  0  0  0
    4.5994    2.2905   -0.1746 S   0  0  0  0  0  0  0  0  0  0  0  0
   -4.9182   -0.2468    0.2856 C   0  0  0  0  0  0  0  0  0  0  0  0
    0.2922   -4.3650   -0.7065 C   0  0  0  0  0  0  0  0  0  0  0  0
    1.5745   -3.5764   -0.9151 C   0  0  0  0  0  0  0  0  0  0  0  0
    2.4275    1.5699    1.5219 S   0  0  0  0  0  0  0  0  0  0  0  0
    5.1075    2.4482   -1.8299 N   0  0  0  0  0  0  0  0  0  0  0  0
    5.6480    1.7868    0.7544 O   0  0  0  0  0  0  0  0  0  0  0  0
    4.3449    3.9759    0.1812 O   0  0  0  0  0  0  0  0  0  0  0  0
    3.1040    1.6871   -0.1971 C   0  0  0  0  0  0  0  0  0  0  0  0
    2.8264    0.2714   -0.6329 C   0  0  0  0  0  0  0  0  0  0  0  0
   -0.4732    0.8907    1.3292 S   0  0  0  0  0  0  0  0  0  0  0  0
   -0.3830    2.6271    0.5296 O   0  0  0  0  0  0  0  0  0  0  0  0
   -0.9112    1.0391    2.9622 O   0  0  0  0  0  0  0  0  0  0  0  0
   -1.1559   -0.1112    0.2289 N   0  0  0  0  0  0  0  0  0  0  0  0
    1.6411   -2.3449   -0.2346 N   0  0  0  0  0  0  0  0  0  0  0  0
   -2.5049    0.0496   -0.0821 C   0  0  0  0  0  0  0  0  0  0  0  0
   -4.9116    1.1694    0.3315 O   0  0  0  0  0  0  0  0  0  0  0  0
   -6.0761    1.7323   -0.1114 C   0  0  0  0  0  0  0  0  0  0  0  0
   -3.4597   -0.1375    1.8183 H   0  0  0  0  0  0  0  0  0  0  0  0
   -3.3770   -1.6890    0.9042 H   0  0  0  0  0  0  0  0  0  0  0  0
    0.7747    0.8306   -0.8444 H   0  0  0  0  0  0  0  0  0  0  0  0
    1.3249   -0.6355    1.7660 H   0  0  0  0  0  0  0  0  0  0  0  0
    0.5802   -1.3545   -1.7140 H   0  0  0  0  0  0  0  0  0  0  0  0
   -0.3358   -1.8076    1.0725 H   0  0  0  0  0  0  0  0  0  0  0  0
   -1.2332   -2.0292   -0.5041 H   0  0  0  0  0  0  0  0  0  0  0  0
   -5.6236   -0.5759    1.0778 H   0  0  0  0  0  0  0  0  0  0  0  0
   -5.0752   -0.6551   -0.7025 H   0  0  0  0  0  0  0  0  0  0  0  0
   -0.0314   -4.2708    0.3547 H   0  0  0  0  0  0  0  0  0  0  0  0
    0.5413   -5.4463   -0.9211 H   0  0  0  0  0  0  0  0  0  0  0  0
   -0.5039   -4.1067   -1.4020 H   0  0  0  0  0  0  0  0  0  0  0  0
    1.7531   -3.4471   -2.0125 H   0  0  0  0  0  0  0  0  0  0  0  0
    2.4040   -4.2421   -0.5677 H   0  0  0  0  0  0  0  0  0  0  0  0
    4.3250    3.0103   -2.2616 H   0  0  0  0  0  0  0  0  0  0  0  0
    5.2045    1.4997   -2.2102 H   0  0  0  0  0  0  0  0  0  0  0  0
    6.1818    2.3268    1.3974 H   0  0  0  0  0  0  0  0  0  0  0  0
    3.4989    4.0639    0.6911 H   0  0  0  0  0  0  0  0  0  0  0  0
    2.3414    2.3191   -0.7476 H   0  0  0  0  0  0  0  0  0  0  0  0
    3.4055   -0.4614    0.0032 H   0  0  0  0  0  0  0  0  0  0  0  0
    3.0223    0.0929   -1.6985 H   0  0  0  0  0  0  0  0  0  0  0  0
   -1.3476    2.7720    0.4505 H   0  0  0  0  0  0  0  0  0  0  0  0
   -1.6233    1.7130    3.0849 H   0  0  0  0  0  0  0  0  0  0  0  0
    2.2796   -2.2270    0.5338 H   0  0  0  0  0  0  0  0  0  0  0  0
   -2.7882    1.1241   -0.2188 H   0  0  0  0  0  0  0  0  0  0  0  0
   -2.6869   -0.4012   -1.1045 H   0  0  0  0  0  0  0  0  0  0  0  0
   -5.9743    2.8411   -0.0668 H   0  0  0  0  0  0  0  0  0  0  0  0
   -6.2741    1.4732   -1.1490 H   0  0  0  0  0  0  0  0  0  0  0  0
   -6.9340    1.4438    0.5618 H   0  0  0  0  0  0  0  0  0  0  0  0
  2  3  1  0
  2  4  1  0
  4  5  1  0
  1  7  1  0
  8  9  1  0
  3 10  1  0
  6 11  1  0
  6 12  1  0
  6 13  1  0
  6 14  1  0
 10 14  1  0
  2 15  1  0
 14 15  1  0
  3 16  1  0
 16 17  1  0
 16 18  1  0
  5 19  1  0
 16 19  1  0
  4 20  1  0
  9 20  1  0
  1 21  1  0
 19 21  1  0
  7 22  1  0
 22 23  1  0
  1 24  1  0
  1 25  1  0
  2 26  1  0
  3 27  1  1
  4 28  1  6
  5 29  1  0
  5 30  1  0
  7 31  1  0
  7 32  1  0
  8 33  1  0
  8 34  1  0
  8 35  1  0
  9 36  1  0
  9 37  1  0
 11 38  1  0
 11 39  1  0
 12 40  1  0
 13 41  1  0
 14 42  1  0
 15 43  1  0
 15 44  1  0
 17 45  1  0
 18 46  1  0
 20 47  1  0
 21 48  1  0
 21 49  1  0
 23 50  1  0
 23 51  1  0
 23 52  1  0
M  END
>  <PDBID>  (1) 
4M2R

>  <PDB ID>  (1) 
4M2R

>  <Generic Name>  (1) 
Brinzolamide

>  <Brand Name>  (1) 
Azarga#Azopt#Sandoz Brinzolamide#Simbrinza

>  <DrugBank ID>  (1) 
DB01194

>  <ATC Codes>  (1) 
S01EC54#S01EC04

>  <Ligand ID>  (1) 
BZ1

>  <Target Name>  (1) 
Carbonic anhydrase 2

>  <UniProt ID>  (1) 
P00918

>  <PDB ID.1>  (1) 
4M2R

>  <Seq. Identity>  (1) 
100%

$$$$
