PDB_DB06603_04
     RDKit          3D

134138  0  0  0  0  0  0  0  0999 V2000
    8.2772   -1.0500   -0.0651 O   0  0  0  0  0  0  0  0  0  0  0  0
    7.8305    0.1636    0.4742 C   0  0  0  0  0  0  0  0  0  0  0  0
    8.9335    1.0765    0.4848 N   0  0  0  0  0  0  0  0  0  0  0  0
    9.4388    1.3149   -0.7379 O   0  0  0  0  0  0  0  0  0  0  0  0
    6.6313    0.6910   -0.3203 C   0  0  0  0  0  0  0  0  0  0  0  0
    5.5493   -0.3490   -0.2274 C   0  0  0  0  0  0  0  0  0  0  0  0
    4.2989    0.0206   -0.9612 C   0  0  0  0  0  0  0  0  0  0  0  0
    3.6648    1.2904   -0.4642 C   0  0  0  0  0  0  0  0  0  0  0  0
    2.1475    1.2427   -0.6378 C   0  0  0  0  0  0  0  0  0  0  0  0
    3.2829   -1.0925   -0.7476 C   0  0  0  0  0  0  0  0  0  0  0  0
    2.5883   -0.8107    0.5833 C   0  0  0  0  0  0  0  0  0  0  0  0
    1.5851    0.3146    0.4418 C   0  0  0  0  0  0  0  0  0  0  0  0
    0.2242   -0.1626    0.0384 C   0  0  0  0  0  0  0  0  0  0  0  0
   -0.3385   -1.0225    1.0175 N   0  0  0  0  0  0  0  0  0  0  0  0
   -1.6265   -1.5611    0.7386 C   0  0  0  0  0  0  0  0  0  0  0  0
   -2.7477   -0.5594    0.7366 C   0  0  0  0  0  0  0  0  0  0  0  0
   -4.0387   -1.2344    0.4463 C   0  0  0  0  0  0  0  0  0  0  0  0
   -5.2185   -0.2879    0.4348 C   0  0  0  0  0  0  0  0  0  0  0  0
   -5.4000    0.1019   -0.9933 C   0  0  0  0  0  0  0  0  0  0  0  0
   -4.4530   -0.6528   -1.7534 N   0  0  0  0  0  0  0  0  0  0  0  0
   -4.1534   -1.8367   -0.9331 C   0  0  0  0  0  0  0  0  0  0  0  0
   -5.4036   -2.7211   -0.8984 C   0  0  0  0  0  0  0  0  0  0  0  0
   -5.2359    1.5979   -1.1704 C   0  0  0  0  0  0  0  0  0  0  0  0
   -6.2468    2.2865   -0.2885 C   0  0  0  0  0  0  0  0  0  0  0  0
   -6.1990    1.8154    1.1378 C   0  0  0  0  0  0  0  0  0  0  0  0
   -5.0052    0.8961    1.3494 C   0  0  0  0  0  0  0  0  0  0  0  0
    8.2772   -1.0500   -0.0651 O   0  0  0  0  0  0  0  0  0  0  0  0
    7.8305    0.1636    0.4742 C   0  0  0  0  0  0  0  0  0  0  0  0
    8.9335    1.0765    0.4848 N   0  0  0  0  0  0  0  0  0  0  0  0
    9.4388    1.3149   -0.7379 O   0  0  0  0  0  0  0  0  0  0  0  0
    6.6313    0.6910   -0.3203 C   0  0  0  0  0  0  0  0  0  0  0  0
    5.5493   -0.3490   -0.2274 C   0  0  0  0  0  0  0  0  0  0  0  0
    4.2989    0.0206   -0.9612 C   0  0  0  0  0  0  0  0  0  0  0  0
    3.6648    1.2904   -0.4642 C   0  0  0  0  0  0  0  0  0  0  0  0
    2.1475    1.2427   -0.6378 C   0  0  0  0  0  0  0  0  0  0  0  0
    3.2829   -1.0925   -0.7476 C   0  0  0  0  0  0  0  0  0  0  0  0
    2.5883   -0.8107    0.5833 C   0  0  0  0  0  0  0  0  0  0  0  0
    1.5851    0.3146    0.4418 C   0  0  0  0  0  0  0  0  0  0  0  0
    0.2242   -0.1626    0.0384 C   0  0  0  0  0  0  0  0  0  0  0  0
   -0.3385   -1.0225    1.0175 N   0  0  0  0  0  0  0  0  0  0  0  0
   -1.6265   -1.5611    0.7386 C   0  0  0  0  0  0  0  0  0  0  0  0
   -2.7477   -0.5594    0.7366 C   0  0  0  0  0  0  0  0  0  0  0  0
   -4.0387   -1.2344    0.4463 C   0  0  0  0  0  0  0  0  0  0  0  0
   -5.2185   -0.2879    0.4348 C   0  0  0  0  0  0  0  0  0  0  0  0
   -5.4000    0.1019   -0.9933 C   0  0  0  0  0  0  0  0  0  0  0  0
   -4.4530   -0.6528   -1.7534 N   0  0  0  0  0  0  0  0  0  0  0  0
   -4.1534   -1.8367   -0.9331 C   0  0  0  0  0  0  0  0  0  0  0  0
   -5.4036   -2.7211   -0.8984 C   0  0  0  0  0  0  0  0  0  0  0  0
   -5.2359    1.5979   -1.1704 C   0  0  0  0  0  0  0  0  0  0  0  0
   -6.2468    2.2865   -0.2885 C   0  0  0  0  0  0  0  0  0  0  0  0
   -6.1990    1.8154    1.1378 C   0  0  0  0  0  0  0  0  0  0  0  0
   -5.0052    0.8961    1.3494 C   0  0  0  0  0  0  0  0  0  0  0  0
    8.2597   -0.9641   -1.0411 H   0  0  0  0  0  0  0  0  0  0  0  0
    7.5411   -0.0381    1.5278 H   0  0  0  0  0  0  0  0  0  0  0  0
    8.7426    1.9836    0.9554 H   0  0  0  0  0  0  0  0  0  0  0  0
    9.2854    2.2608   -0.9642 H   0  0  0  0  0  0  0  0  0  0  0  0
    6.3268    1.6346    0.1698 H   0  0  0  0  0  0  0  0  0  0  0  0
    6.9616    0.8791   -1.3513 H   0  0  0  0  0  0  0  0  0  0  0  0
    5.3698   -0.5065    0.8721 H   0  0  0  0  0  0  0  0  0  0  0  0
    5.9318   -1.3062   -0.6123 H   0  0  0  0  0  0  0  0  0  0  0  0
    4.5582    0.0850   -2.0403 H   0  0  0  0  0  0  0  0  0  0  0  0
    3.8902    1.4093    0.5979 H   0  0  0  0  0  0  0  0  0  0  0  0
    4.0389    2.1527   -1.0592 H   0  0  0  0  0  0  0  0  0  0  0  0
    1.7852    2.2852   -0.4717 H   0  0  0  0  0  0  0  0  0  0  0  0
    1.8640    0.8831   -1.6439 H   0  0  0  0  0  0  0  0  0  0  0  0
    2.5617   -1.0406   -1.5910 H   0  0  0  0  0  0  0  0  0  0  0  0
    3.7356   -2.0879   -0.7189 H   0  0  0  0  0  0  0  0  0  0  0  0
    3.3757   -0.4409    1.2802 H   0  0  0  0  0  0  0  0  0  0  0  0
    2.1525   -1.7613    0.9295 H   0  0  0  0  0  0  0  0  0  0  0  0
    1.4889    0.8926    1.3833 H   0  0  0  0  0  0  0  0  0  0  0  0
   -0.3967    0.7669   -0.1187 H   0  0  0  0  0  0  0  0  0  0  0  0
    0.3424   -0.6882   -0.9389 H   0  0  0  0  0  0  0  0  0  0  0  0
    0.2787   -1.5439    1.6289 H   0  0  0  0  0  0  0  0  0  0  0  0
   -1.5958   -2.0702   -0.2466 H   0  0  0  0  0  0  0  0  0  0  0  0
   -1.8728   -2.3010    1.5538 H   0  0  0  0  0  0  0  0  0  0  0  0
   -2.5084    0.2719    0.0428 H   0  0  0  0  0  0  0  0  0  0  0  0
   -2.8353   -0.1141    1.7610 H   0  0  0  0  0  0  0  0  0  0  0  0
   -4.2016   -2.0049    1.2384 H   0  0  0  0  0  0  0  0  0  0  0  0
   -6.0921   -0.8499    0.8295 H   0  0  0  0  0  0  0  0  0  0  0  0
   -6.4614   -0.1135   -1.3097 H   0  0  0  0  0  0  0  0  0  0  0  0
   -4.9022   -1.0368   -2.6234 H   0  0  0  0  0  0  0  0  0  0  0  0
   -3.2821   -2.3712   -1.2902 H   0  0  0  0  0  0  0  0  0  0  0  0
   -5.5286   -3.1739    0.1247 H   0  0  0  0  0  0  0  0  0  0  0  0
   -5.3561   -3.5306   -1.6477 H   0  0  0  0  0  0  0  0  0  0  0  0
   -6.3163   -2.1319   -1.0861 H   0  0  0  0  0  0  0  0  0  0  0  0
   -4.2468    1.9715   -0.9118 H   0  0  0  0  0  0  0  0  0  0  0  0
   -5.4911    1.8656   -2.2219 H   0  0  0  0  0  0  0  0  0  0  0  0
   -6.1002    3.3968   -0.3044 H   0  0  0  0  0  0  0  0  0  0  0  0
   -7.2592    2.1354   -0.7409 H   0  0  0  0  0  0  0  0  0  0  0  0
   -6.2245    2.6313    1.8786 H   0  0  0  0  0  0  0  0  0  0  0  0
   -7.1085    1.1757    1.3031 H   0  0  0  0  0  0  0  0  0  0  0  0
   -4.0459    1.4155    1.1328 H   0  0  0  0  0  0  0  0  0  0  0  0
   -5.0509    0.5079    2.3906 H   0  0  0  0  0  0  0  0  0  0  0  0
    8.2597   -0.9641   -1.0411 H   0  0  0  0  0  0  0  0  0  0  0  0
    7.5411   -0.0381    1.5278 H   0  0  0  0  0  0  0  0  0  0  0  0
    8.7426    1.9836    0.9554 H   0  0  0  0  0  0  0  0  0  0  0  0
    9.2854    2.2608   -0.9642 H   0  0  0  0  0  0  0  0  0  0  0  0
    6.3268    1.6346    0.1698 H   0  0  0  0  0  0  0  0  0  0  0  0
    6.9616    0.8791   -1.3513 H   0  0  0  0  0  0  0  0  0  0  0  0
    5.3698   -0.5065    0.8721 H   0  0  0  0  0  0  0  0  0  0  0  0
    5.9318   -1.3062   -0.6123 H   0  0  0  0  0  0  0  0  0  0  0  0
    4.5582    0.0850   -2.0403 H   0  0  0  0  0  0  0  0  0  0  0  0
    3.8902    1.4093    0.5979 H   0  0  0  0  0  0  0  0  0  0  0  0
    4.0389    2.1527   -1.0592 H   0  0  0  0  0  0  0  0  0  0  0  0
    1.7852    2.2852   -0.4717 H   0  0  0  0  0  0  0  0  0  0  0  0
    1.8640    0.8831   -1.6439 H   0  0  0  0  0  0  0  0  0  0  0  0
    2.5617   -1.0406   -1.5910 H   0  0  0  0  0  0  0  0  0  0  0  0
    3.7356   -2.0879   -0.7189 H   0  0  0  0  0  0  0  0  0  0  0  0
    3.3757   -0.4409    1.2802 H   0  0  0  0  0  0  0  0  0  0  0  0
    2.1525   -1.7613    0.9295 H   0  0  0  0  0  0  0  0  0  0  0  0
    1.4889    0.8926    1.3833 H   0  0  0  0  0  0  0  0  0  0  0  0
   -0.3967    0.7669   -0.1187 H   0  0  0  0  0  0  0  0  0  0  0  0
    0.3424   -0.6882   -0.9389 H   0  0  0  0  0  0  0  0  0  0  0  0
    0.2787   -1.5439    1.6289 H   0  0  0  0  0  0  0  0  0  0  0  0
   -1.5958   -2.0702   -0.2466 H   0  0  0  0  0  0  0  0  0  0  0  0
   -1.8728   -2.3010    1.5538 H   0  0  0  0  0  0  0  0  0  0  0  0
   -2.5084    0.2719    0.0428 H   0  0  0  0  0  0  0  0  0  0  0  0
   -2.8353   -0.1141    1.7610 H   0  0  0  0  0  0  0  0  0  0  0  0
   -4.2016   -2.0049    1.2384 H   0  0  0  0  0  0  0  0  0  0  0  0
   -6.0921   -0.8499    0.8295 H   0  0  0  0  0  0  0  0  0  0  0  0
   -6.4614   -0.1135   -1.3097 H   0  0  0  0  0  0  0  0  0  0  0  0
   -4.9022   -1.0368   -2.6234 H   0  0  0  0  0  0  0  0  0  0  0  0
   -3.2821   -2.3712   -1.2902 H   0  0  0  0  0  0  0  0  0  0  0  0
   -5.5286   -3.1739    0.1247 H   0  0  0  0  0  0  0  0  0  0  0  0
   -5.3561   -3.5306   -1.6477 H   0  0  0  0  0  0  0  0  0  0  0  0
   -6.3163   -2.1319   -1.0861 H   0  0  0  0  0  0  0  0  0  0  0  0
   -4.2468    1.9715   -0.9118 H   0  0  0  0  0  0  0  0  0  0  0  0
   -5.4911    1.8656   -2.2219 H   0  0  0  0  0  0  0  0  0  0  0  0
   -6.1002    3.3968   -0.3044 H   0  0  0  0  0  0  0  0  0  0  0  0
   -7.2592    2.1354   -0.7409 H   0  0  0  0  0  0  0  0  0  0  0  0
   -6.2245    2.6313    1.8786 H   0  0  0  0  0  0  0  0  0  0  0  0
   -7.1085    1.1757    1.3031 H   0  0  0  0  0  0  0  0  0  0  0  0
   -4.0459    1.4155    1.1328 H   0  0  0  0  0  0  0  0  0  0  0  0
   -5.0509    0.5079    2.3906 H   0  0  0  0  0  0  0  0  0  0  0  0
  1  2  1  0
  2  3  1  0
  4  3  1  0
  2  5  1  0
  5  6  1  0
  6  7  1  0
  7  8  1  0
  8  9  1  0
  7 10  1  0
 10 11  1  0
  9 12  1  0
 11 12  1  0
 12 13  1  0
 13 14  1  0
 14 15  1  0
 15 16  1  0
 16 17  1  0
 17 18  1  0
 18 19  1  0
 19 20  1  0
 17 21  1  0
 20 21  1  0
 21 22  1  0
 19 23  1  0
 23 24  1  0
 24 25  1  0
 18 26  1  0
 25 26  1  0
 27 28  1  0
 28 29  1  0
 30 29  1  0
 28 31  1  0
 31 32  1  0
 32 33  1  0
 33 34  1  0
 34 35  1  0
 33 36  1  0
 36 37  1  0
 35 38  1  0
 37 38  1  0
 38 39  1  0
 39 40  1  0
 40 41  1  0
 41 42  1  0
 42 43  1  0
 43 44  1  0
 44 45  1  0
 45 46  1  0
 43 47  1  0
 46 47  1  0
 47 48  1  0
 45 49  1  0
 49 50  1  0
 50 51  1  0
 44 52  1  0
 51 52  1  0
  1 53  1  0
  2 54  1  0
  3 55  1  0
  4 56  1  0
  5 57  1  0
  5 58  1  0
  6 59  1  0
  6 60  1  0
  7 61  1  0
  8 62  1  0
  8 63  1  0
  9 64  1  0
  9 65  1  0
 10 66  1  0
 10 67  1  0
 11 68  1  0
 11 69  1  0
 12 70  1  0
 13 71  1  0
 13 72  1  0
 14 73  1  0
 15 74  1  0
 15 75  1  0
 16 76  1  0
 16 77  1  0
 17 78  1  0
 18 79  1  0
 19 80  1  0
 20 81  1  0
 21 82  1  0
 22 83  1  0
 22 84  1  0
 22 85  1  0
 23 86  1  0
 23 87  1  0
 24 88  1  0
 24 89  1  0
 25 90  1  0
 25 91  1  0
 26 92  1  0
 26 93  1  0
 27 94  1  0
 28 95  1  0
 29 96  1  0
 30 97  1  0
 31 98  1  0
 31 99  1  0
 32100  1  0
 32101  1  0
 33102  1  0
 34103  1  0
 34104  1  0
 35105  1  0
 35106  1  0
 36107  1  0
 36108  1  0
 37109  1  0
 37110  1  0
 38111  1  0
 39112  1  0
 39113  1  0
 40114  1  0
 41115  1  0
 41116  1  0
 42117  1  0
 42118  1  0
 43119  1  0
 44120  1  0
 45121  1  0
 46122  1  0
 47123  1  0
 48124  1  0
 48125  1  0
 48126  1  0
 49127  1  0
 49128  1  0
 50129  1  0
 50130  1  0
 51131  1  0
 51132  1  0
 52133  1  0
 52134  1  0
M  END
>  <PDBID>  (1) 
5EF8

>  <PDB ID>  (1) 
5EF8

>  <Generic Name>  (1) 
Panobinostat

>  <Brand Name>  (1) 
Farydak

>  <DrugBank ID>  (1) 
DB06603

>  <ATC Codes>  (1) 
L01XX42

>  <Ligand ID>  (1) 
LBH

>  <Target Name>  (1) 
Histone deacetylase 9

>  <UniProt ID>  (1) 
Q9UKV0

>  <PDB ID.1>  (1) 
5EF8

>  <Seq. Identity>  (1) 
46%

$$$$
