PDB_DB04786_03
     RDKit          3D

192199  0  0  0  0  0  0  0  0999 V2000
  -15.0502    1.6012   -1.3714 O   0  0  0  0  0  0  0  0  0  0  0  0
  -14.0474    2.1852   -1.6196 S   0  0  0  0  0  0  0  0  0  0  0  0
  -14.0936    4.0034   -0.9856 O   0  0  0  0  0  0  0  0  0  0  0  0
  -13.9052    2.8263   -3.3591 O   0  0  0  0  0  0  0  0  0  0  0  0
  -12.3126    2.0174   -1.2703 C   0  0  0  0  0  0  0  0  0  0  0  0
  -11.7033    0.8534   -1.9451 C   0  0  0  0  0  0  0  0  0  0  0  0
  -11.4965   -0.3825   -1.1519 C   0  0  2  0  0  0  0  0  0  0  0  0
  -12.7169   -1.6261   -1.7437 S   0  0  0  0  0  0  0  0  0  0  0  0
  -12.5709   -1.5591   -3.4068 O   0  0  0  0  0  0  0  0  0  0  0  0
  -12.1949   -3.0585   -1.3132 O   0  0  0  0  0  0  0  0  0  0  0  0
  -14.1098   -1.2999   -1.1857 O   0  0  0  0  0  0  0  0  0  0  0  0
  -12.0037    2.2059    0.1683 C   0  0  0  0  0  0  0  0  0  0  0  0
  -11.5031    1.0617    0.9387 C   0  0  0  0  0  0  0  0  0  0  0  0
  -12.2373    0.9756    2.2916 C   0  0  1  0  0  0  0  0  0  0  0  0
  -13.8972    1.1318    2.2075 S   0  0  0  0  0  0  0  0  0  0  0  0
  -14.2231    1.0579    4.0739 O   0  0  0  0  0  0  0  0  0  0  0  0
  -14.4519   -0.6432    2.1097 O   0  0  0  0  0  0  0  0  0  0  0  0
  -14.7834    1.9174    1.6886 O   0  0  0  0  0  0  0  0  0  0  0  0
  -11.8601   -0.3035    3.0227 C   0  0  0  0  0  0  0  0  0  0  0  0
  -10.5219   -0.8741    2.5173 C   0  0  0  0  0  0  0  0  0  0  0  0
  -11.6178   -0.2875    0.3125 C   0  0  0  0  0  0  0  0  0  0  0  0
  -10.7383   -1.2593    1.0825 C   0  0  1  0  0  0  0  0  0  0  0  0
   -9.7896   -1.8975    0.3522 N   0  0  0  0  0  0  0  0  0  0  0  0
   -8.4806   -1.5969    0.0605 C   0  0  0  0  0  0  0  0  0  0  0  0
   -8.1794   -0.3831   -0.5526 O   0  0  0  0  0  0  0  0  0  0  0  0
   -7.5054   -1.6468    1.2560 C   0  0  2  0  0  0  0  0  0  0  0  0
   -6.1004   -1.3434    0.8065 C   0  0  0  0  0  0  0  0  0  0  0  0
   -7.5897   -2.9532    1.9478 C   0  0  0  0  0  0  0  0  0  0  0  0
   -6.5066   -3.8809    1.4448 C   0  0  0  0  0  0  0  0  0  0  0  0
   -5.2334   -3.3674    2.0910 C   0  0  0  0  0  0  0  0  0  0  0  0
   -5.2920   -3.4537    3.5804 C   0  0  0  0  0  0  0  0  0  0  0  0
   -4.9878   -1.9722    1.5595 C   0  0  0  0  0  0  0  0  0  0  0  0
   -4.3192   -1.1174    2.4056 N   0  0  0  0  0  0  0  0  0  0  0  0
   -3.4143   -0.1498    2.0974 C   0  0  0  0  0  0  0  0  0  0  0  0
   -3.0021    0.4576    3.3500 O   0  0  0  0  0  0  0  0  0  0  0  0
   -3.5889    0.9856    1.1820 C   0  0  0  0  0  0  0  0  0  0  0  0
   -2.3326    1.9231    1.2610 C   0  0  0  0  0  0  0  0  0  0  0  0
   -3.5223    0.6482   -0.3045 C   0  0  0  0  0  0  0  0  0  0  0  0
   -2.2923   -0.1102   -0.6914 C   0  0  0  0  0  0  0  0  0  0  0  0
   -1.0412    0.1709    0.0111 C   0  0  0  0  0  0  0  0  0  0  0  0
   -1.0615    1.1767    1.1236 C   0  0  0  0  0  0  0  0  0  0  0  0
    0.0938    2.0228    1.1907 N   0  0  0  0  0  0  0  0  0  0  0  0
    0.3011    2.9917    0.1863 C   0  0  0  0  0  0  0  0  0  0  0  0
   -0.7205    3.8617   -0.0976 O   0  0  0  0  0  0  0  0  0  0  0  0
    0.9399    2.5688   -1.0149 N   0  0  0  0  0  0  0  0  0  0  0  0
    2.3177    2.2989   -0.9961 C   0  0  0  0  0  0  0  0  0  0  0  0
    2.7819    1.2142   -0.0884 C   0  0  0  0  0  0  0  0  0  0  0  0
    3.2281    3.5100   -0.8480 C   0  0  0  0  0  0  0  0  0  0  0  0
    4.6159    2.9630   -0.5420 C   0  0  0  0  0  0  0  0  0  0  0  0
    4.8177    1.6369   -1.2992 C   0  0  0  0  0  0  0  0  0  0  0  0
    4.0427    0.5292   -0.7267 C   0  0  2  0  0  0  0  0  0  0  0  0
    3.6006   -0.6081   -1.5305 C   0  0  0  0  0  0  0  0  0  0  0  0
    2.8774   -1.5101   -0.6135 O   0  0  0  0  0  0  0  0  0  0  0  0
    4.4490   -1.4169   -2.2205 N   0  0  0  0  0  0  0  0  0  0  0  0
    5.2560   -1.3061   -3.3052 C   0  0  0  0  0  0  0  0  0  0  0  0
    6.4505   -0.4435   -3.3156 C   0  0  0  0  0  0  0  0  0  0  0  0
    5.7168   -2.7546   -3.6987 C   0  0  0  0  0  0  0  0  0  0  0  0
    6.2182   -2.7239   -5.0954 C   0  0  0  0  0  0  0  0  0  0  0  0
    6.7587   -3.1584   -2.7107 C   0  0  0  0  0  0  0  0  0  0  0  0
    7.9383   -2.2194   -2.6187 C   0  0  0  0  0  0  0  0  0  0  0  0
    7.4893   -0.8418   -2.2547 C   0  0  0  0  0  0  0  0  0  0  0  0
    8.6079    0.1686   -2.4136 C   0  0  0  0  0  0  0  0  0  0  0  0
    9.0485    0.0586   -3.7620 O   0  0  0  0  0  0  0  0  0  0  0  0
    9.7470   -0.0584   -1.5941 N   0  0  0  0  0  0  0  0  0  0  0  0
    9.5326   -0.0273   -0.1711 C   0  0  0  0  0  0  0  0  0  0  0  0
    9.0426    1.3339    0.2239 C   0  0  0  0  0  0  0  0  0  0  0  0
   10.0221    2.4352    0.0757 C   0  0  0  0  0  0  0  0  0  0  0  0
   11.4403    2.0910   -0.1136 C   0  0  2  0  0  0  0  0  0  0  0  0
   12.1067    2.9804   -1.5287 S   0  0  0  0  0  0  0  0  0  0  0  0
   11.5560    2.5700   -2.8330 O   0  0  0  0  0  0  0  0  0  0  0  0
   13.7653    2.7529   -1.2921 O   0  0  0  0  0  0  0  0  0  0  0  0
   11.9049    4.5818   -1.1898 O   0  0  0  0  0  0  0  0  0  0  0  0
   10.8954   -0.3205    0.4408 C   0  0  0  0  0  0  0  0  0  0  0  0
   11.8463    0.6780   -0.1541 C   0  0  0  0  0  0  0  0  0  0  0  0
   13.2103    0.4395    0.4609 C   0  0  0  0  0  0  0  0  0  0  0  0
   10.9122   -0.3996    1.9292 C   0  0  1  0  0  0  0  0  0  0  0  0
    9.7212   -1.3983    2.5785 S   0  0  0  0  0  0  0  0  0  0  0  0
   10.0148   -2.9916    1.8385 O   0  0  0  0  0  0  0  0  0  0  0  0
    8.5277   -1.1995    3.0416 O   0  0  0  0  0  0  0  0  0  0  0  0
   10.7760   -1.9499    4.1298 O   0  0  0  0  0  0  0  0  0  0  0  0
   12.3122   -0.8984    2.2994 C   0  0  0  0  0  0  0  0  0  0  0  0
   13.2581   -0.8972    1.1447 C   0  0  2  0  0  0  0  0  0  0  0  0
   14.9124   -1.0413    1.8095 S   0  0  0  0  0  0  0  0  0  0  0  0
   15.8747   -0.9318    0.3434 O   0  0  0  0  0  0  0  0  0  0  0  0
   14.9889   -2.6462    2.2167 O   0  0  0  0  0  0  0  0  0  0  0  0
   15.2461   -0.1003    2.7544 O   0  0  0  0  0  0  0  0  0  0  0  0
  -15.7470    0.9414   -1.0928 H   0  0  0  0  0  0  0  0  0  0  0  0
  -15.0679    4.1223   -1.1458 H   0  0  0  0  0  0  0  0  0  0  0  0
  -13.1694    3.4582   -3.2701 H   0  0  0  0  0  0  0  0  0  0  0  0
  -11.8672    2.9298   -1.7962 H   0  0  0  0  0  0  0  0  0  0  0  0
  -12.3447    0.6090   -2.8310 H   0  0  0  0  0  0  0  0  0  0  0  0
  -10.7257    1.1661   -2.4163 H   0  0  0  0  0  0  0  0  0  0  0  0
  -10.5614   -0.8521   -1.5416 H   0  0  0  0  0  0  0  0  0  0  0  0
  -11.7091   -1.1465   -3.6386 H   0  0  0  0  0  0  0  0  0  0  0  0
  -11.3901   -3.4187   -1.7879 H   0  0  0  0  0  0  0  0  0  0  0  0
  -14.5823   -2.0452   -0.6923 H   0  0  0  0  0  0  0  0  0  0  0  0
  -12.9397    2.6717    0.6203 H   0  0  0  0  0  0  0  0  0  0  0  0
  -11.2645    3.0658    0.3079 H   0  0  0  0  0  0  0  0  0  0  0  0
  -10.4131    1.2239    1.1398 H   0  0  0  0  0  0  0  0  0  0  0  0
  -11.7949    1.8150    2.8899 H   0  0  0  0  0  0  0  0  0  0  0  0
  -13.6569    0.3085    4.3050 H   0  0  0  0  0  0  0  0  0  0  0  0
  -15.0049   -0.5416    1.2960 H   0  0  0  0  0  0  0  0  0  0  0  0
  -15.2358    2.7121    1.3202 H   0  0  0  0  0  0  0  0  0  0  0  0
  -11.6830   -0.1158    4.1112 H   0  0  0  0  0  0  0  0  0  0  0  0
  -12.5915   -1.1064    2.9410 H   0  0  0  0  0  0  0  0  0  0  0  0
  -10.3280   -1.7663    3.1046 H   0  0  0  0  0  0  0  0  0  0  0  0
   -9.8294   -0.0254    2.6659 H   0  0  0  0  0  0  0  0  0  0  0  0
  -12.7315   -0.5555    0.5133 H   0  0  0  0  0  0  0  0  0  0  0  0
  -11.5447   -2.1331    1.2714 H   0  0  0  0  0  0  0  0  0  0  0  0
   -9.9337   -2.9391    0.1807 H   0  0  0  0  0  0  0  0  0  0  0  0
   -8.0709   -2.3593   -0.6461 H   0  0  0  0  0  0  0  0  0  0  0  0
   -8.5378    0.3471   -0.0297 H   0  0  0  0  0  0  0  0  0  0  0  0
   -7.7790   -0.8294    1.9715 H   0  0  0  0  0  0  0  0  0  0  0  0
   -5.9610   -0.2229    0.9309 H   0  0  0  0  0  0  0  0  0  0  0  0
   -6.0175   -1.4641   -0.3183 H   0  0  0  0  0  0  0  0  0  0  0  0
   -7.4327   -2.8049    3.0323 H   0  0  0  0  0  0  0  0  0  0  0  0
   -8.5794   -3.4507    1.8619 H   0  0  0  0  0  0  0  0  0  0  0  0
   -6.4035   -3.7422    0.3440 H   0  0  0  0  0  0  0  0  0  0  0  0
   -6.6613   -4.9351    1.6944 H   0  0  0  0  0  0  0  0  0  0  0  0
   -4.4397   -4.0991    1.7519 H   0  0  0  0  0  0  0  0  0  0  0  0
   -5.8529   -4.3972    3.8312 H   0  0  0  0  0  0  0  0  0  0  0  0
   -5.7259   -2.5715    4.0602 H   0  0  0  0  0  0  0  0  0  0  0  0
   -4.2294   -3.6150    3.9277 H   0  0  0  0  0  0  0  0  0  0  0  0
   -4.2240   -2.2198    0.6829 H   0  0  0  0  0  0  0  0  0  0  0  0
   -4.7670   -0.9572    3.3545 H   0  0  0  0  0  0  0  0  0  0  0  0
   -2.4345   -0.7187    1.8208 H   0  0  0  0  0  0  0  0  0  0  0  0
   -2.9009   -0.2548    4.0187 H   0  0  0  0  0  0  0  0  0  0  0  0
   -4.4452    1.6127    1.3636 H   0  0  0  0  0  0  0  0  0  0  0  0
   -2.5567    2.6843    0.5078 H   0  0  0  0  0  0  0  0  0  0  0  0
   -2.4435    2.4063    2.2550 H   0  0  0  0  0  0  0  0  0  0  0  0
   -3.4277    1.6756   -0.8050 H   0  0  0  0  0  0  0  0  0  0  0  0
   -4.4362    0.2499   -0.7249 H   0  0  0  0  0  0  0  0  0  0  0  0
   -2.5541   -1.1964   -0.6485 H   0  0  0  0  0  0  0  0  0  0  0  0
   -2.1812    0.0491   -1.8134 H   0  0  0  0  0  0  0  0  0  0  0  0
   -0.2930    0.5676   -0.7407 H   0  0  0  0  0  0  0  0  0  0  0  0
   -0.5622   -0.8047    0.3306 H   0  0  0  0  0  0  0  0  0  0  0  0
   -0.9625    0.5656    2.0775 H   0  0  0  0  0  0  0  0  0  0  0  0
    0.1740    2.4011    2.1670 H   0  0  0  0  0  0  0  0  0  0  0  0
    1.0967    3.6969    0.6650 H   0  0  0  0  0  0  0  0  0  0  0  0
   -0.5354    4.8159    0.0272 H   0  0  0  0  0  0  0  0  0  0  0  0
    0.6430    3.1133   -1.8261 H   0  0  0  0  0  0  0  0  0  0  0  0
    2.5675    1.9242   -2.0540 H   0  0  0  0  0  0  0  0  0  0  0  0
    3.1770    1.6935    0.8276 H   0  0  0  0  0  0  0  0  0  0  0  0
    2.0056    0.4603    0.0855 H   0  0  0  0  0  0  0  0  0  0  0  0
    2.9203    4.1458   -0.0298 H   0  0  0  0  0  0  0  0  0  0  0  0
    3.3029    4.0808   -1.7937 H   0  0  0  0  0  0  0  0  0  0  0  0
    5.3477    3.6715   -0.9778 H   0  0  0  0  0  0  0  0  0  0  0  0
    4.8257    2.8733    0.5284 H   0  0  0  0  0  0  0  0  0  0  0  0
    5.9219    1.4810   -1.2460 H   0  0  0  0  0  0  0  0  0  0  0  0
    4.5733    1.8908   -2.3462 H   0  0  0  0  0  0  0  0  0  0  0  0
    4.6008    0.1407    0.1775 H   0  0  0  0  0  0  0  0  0  0  0  0
    2.6734   -0.2990   -2.1715 H   0  0  0  0  0  0  0  0  0  0  0  0
    3.5924   -1.8900   -0.0359 H   0  0  0  0  0  0  0  0  0  0  0  0
    4.5590   -2.3833   -1.7146 H   0  0  0  0  0  0  0  0  0  0  0  0
    4.6267   -0.9807   -4.2135 H   0  0  0  0  0  0  0  0  0  0  0  0
    6.9956   -0.6428   -4.3347 H   0  0  0  0  0  0  0  0  0  0  0  0
    6.2441    0.6108   -3.3343 H   0  0  0  0  0  0  0  0  0  0  0  0
    4.8346   -3.3751   -3.5836 H   0  0  0  0  0  0  0  0  0  0  0  0
    5.9123   -1.7864   -5.5965 H   0  0  0  0  0  0  0  0  0  0  0  0
    7.3145   -2.9074   -5.1492 H   0  0  0  0  0  0  0  0  0  0  0  0
    5.6801   -3.5359   -5.6607 H   0  0  0  0  0  0  0  0  0  0  0  0
    7.1706   -4.1584   -3.0364 H   0  0  0  0  0  0  0  0  0  0  0  0
    6.3549   -3.3373   -1.6985 H   0  0  0  0  0  0  0  0  0  0  0  0
    8.5589   -2.6015   -1.7634 H   0  0  0  0  0  0  0  0  0  0  0  0
    8.5011   -2.1954   -3.5588 H   0  0  0  0  0  0  0  0  0  0  0  0
    7.0047   -0.7758   -1.2775 H   0  0  0  0  0  0  0  0  0  0  0  0
    8.2069    1.1732   -2.2583 H   0  0  0  0  0  0  0  0  0  0  0  0
    9.6488    0.8372   -3.9005 H   0  0  0  0  0  0  0  0  0  0  0  0
   10.3529   -0.8564   -1.8905 H   0  0  0  0  0  0  0  0  0  0  0  0
    8.7707   -0.7819    0.0768 H   0  0  0  0  0  0  0  0  0  0  0  0
    8.7683    1.2466    1.3202 H   0  0  0  0  0  0  0  0  0  0  0  0
    8.0688    1.5178   -0.2719 H   0  0  0  0  0  0  0  0  0  0  0  0
    9.8583    3.1854    0.9092 H   0  0  0  0  0  0  0  0  0  0  0  0
    9.6885    3.0272   -0.8309 H   0  0  0  0  0  0  0  0  0  0  0  0
   12.0049    2.5669    0.7495 H   0  0  0  0  0  0  0  0  0  0  0  0
   12.1434    2.3817   -3.6317 H   0  0  0  0  0  0  0  0  0  0  0  0
   14.1465    2.5996   -2.1931 H   0  0  0  0  0  0  0  0  0  0  0  0
   11.3084    5.0723   -1.7883 H   0  0  0  0  0  0  0  0  0  0  0  0
   11.1856   -1.3256    0.0528 H   0  0  0  0  0  0  0  0  0  0  0  0
   11.9424    0.3908   -1.2446 H   0  0  0  0  0  0  0  0  0  0  0  0
   13.9948    0.4847   -0.3426 H   0  0  0  0  0  0  0  0  0  0  0  0
   13.4862    1.2106    1.2037 H   0  0  0  0  0  0  0  0  0  0  0  0
   10.8810    0.6557    2.2992 H   0  0  0  0  0  0  0  0  0  0  0  0
    9.3043   -3.5736    2.1573 H   0  0  0  0  0  0  0  0  0  0  0  0
    7.8376   -0.9663    3.7146 H   0  0  0  0  0  0  0  0  0  0  0  0
   10.8141   -1.0051    4.4421 H   0  0  0  0  0  0  0  0  0  0  0  0
   12.7599   -0.2617    3.1080 H   0  0  0  0  0  0  0  0  0  0  0  0
   12.2720   -1.9332    2.7148 H   0  0  0  0  0  0  0  0  0  0  0  0
   13.1327   -1.7418    0.4461 H   0  0  0  0  0  0  0  0  0  0  0  0
   16.2064   -1.8290    0.1722 H   0  0  0  0  0  0  0  0  0  0  0  0
   15.4785   -3.1956    1.5556 H   0  0  0  0  0  0  0  0  0  0  0  0
   14.9254    0.7652    3.1328 H   0  0  0  0  0  0  0  0  0  0  0  0
  2  1  1  0
  2  3  1  0
  2  4  1  0
  2  5  1  0
  5  6  1  0
  6  7  1  0
  7  8  1  0
  8  9  1  0
  8 10  1  0
  8 11  1  0
  5 12  1  0
 12 13  1  0
 13 14  1  0
 14 15  1  0
 15 16  1  0
 15 17  1  0
 15 18  1  0
 14 19  1  0
 19 20  1  0
  7 21  1  0
 13 21  1  0
 20 22  1  0
 21 22  1  0
 22 23  1  0
 23 24  1  0
 24 25  1  0
 24 26  1  0
 26 27  1  0
 26 28  1  0
 28 29  1  0
 29 30  1  0
 30 31  1  0
 27 32  1  0
 30 32  1  0
 32 33  1  0
 33 34  1  0
 34 35  1  0
 34 36  1  0
 36 37  1  0
 36 38  1  0
 38 39  1  0
 39 40  1  0
 37 41  1  0
 40 41  1  0
 41 42  1  0
 42 43  1  0
 43 44  1  0
 43 45  1  0
 45 46  1  0
 46 47  1  0
 46 48  1  0
 48 49  1  0
 49 50  1  0
 47 51  1  0
 50 51  1  0
 51 52  1  0
 52 53  1  0
 52 54  1  0
 54 55  1  0
 55 56  1  0
 55 57  1  0
 57 58  1  0
 57 59  1  0
 59 60  1  0
 56 61  1  0
 60 61  1  0
 61 62  1  0
 62 63  1  0
 62 64  1  0
 64 65  1  0
 65 66  1  0
 66 67  1  0
 67 68  1  0
 68 69  1  0
 69 70  1  0
 69 71  1  0
 69 72  1  0
 65 73  1  0
 68 74  1  0
 73 74  1  0
 74 75  1  0
 73 76  1  0
 76 77  1  0
 77 78  1  0
 77 79  1  0
 77 80  1  0
 76 81  1  0
 75 82  1  0
 81 82  1  0
 82 83  1  0
 83 84  1  0
 83 85  1  0
 83 86  1  0
  1 87  1  0
  3 88  1  0
  4 89  1  0
  5 90  1  0
  6 91  1  0
  6 92  1  0
  7 93  1  1
  9 94  1  0
 10 95  1  0
 11 96  1  0
 12 97  1  0
 12 98  1  0
 13 99  1  0
 14100  1  1
 16101  1  0
 17102  1  0
 18103  1  0
 19104  1  0
 19105  1  0
 20106  1  0
 20107  1  0
 21108  1  0
 22109  1  1
 23110  1  0
 24111  1  0
 25112  1  0
 26113  1  1
 27114  1  0
 27115  1  0
 28116  1  0
 28117  1  0
 29118  1  0
 29119  1  0
 30120  1  0
 31121  1  0
 31122  1  0
 31123  1  0
 32124  1  0
 33125  1  0
 34126  1  0
 35127  1  0
 36128  1  0
 37129  1  0
 37130  1  0
 38131  1  0
 38132  1  0
 39133  1  0
 39134  1  0
 40135  1  0
 40136  1  0
 41137  1  0
 42138  1  0
 43139  1  0
 44140  1  0
 45141  1  0
 46142  1  0
 47143  1  0
 47144  1  0
 48145  1  0
 48146  1  0
 49147  1  0
 49148  1  0
 50149  1  0
 50150  1  0
 51151  1  1
 52152  1  0
 53153  1  0
 54154  1  0
 55155  1  0
 56156  1  0
 56157  1  0
 57158  1  0
 58159  1  0
 58160  1  0
 58161  1  0
 59162  1  0
 59163  1  0
 60164  1  0
 60165  1  0
 61166  1  0
 62167  1  0
 63168  1  0
 64169  1  0
 65170  1  0
 66171  1  0
 66172  1  0
 67173  1  0
 67174  1  0
 68175  1  1
 70176  1  0
 71177  1  0
 72178  1  0
 73179  1  0
 74180  1  0
 75181  1  0
 75182  1  0
 76183  1  1
 78184  1  0
 79185  1  0
 80186  1  0
 81187  1  0
 81188  1  0
 82189  1  6
 84190  1  0
 85191  1  0
 86192  1  0
M  END
>  <PDBID>  (1) 
2NYR

>  <PDB ID>  (1) 
2NYR

>  <Generic Name>  (1) 
Suramin

>  <Brand Name>  (1) 
309 Fourneau#Antrypol#Bayer 205#Belganyl#Germanin#Moranyl#Naganin#Naganine#Naganol#Naphuride

>  <DrugBank ID>  (1) 
DB04786

>  <ATC Codes>  (1) 
P01CX02

>  <Ligand ID>  (1) 
SVR

>  <Target Name>  (1) 
NAD-dependent protein deacylase sirtuin-5, mitochondrial

>  <UniProt ID>  (1) 
Q9NXA8

>  <PDB ID.1>  (1) 
2NYR

>  <Seq. Identity>  (1) 
100%

$$$$
