PDB_DB00787_00
     RDKit          3D

 70 72  0  0  0  0  0  0  0  0999 V2000
    3.5420    1.9525   -0.0274 C   0  0  0  0  0  0  0  0  0  0  0  0
    4.2685    2.0619    1.1571 O   0  0  0  0  0  0  0  0  0  0  0  0
    2.9311    0.5796   -0.0584 C   0  0  0  0  0  0  0  0  0  0  0  0
    2.1945    0.4296   -1.2301 O   0  0  0  0  0  0  0  0  0  0  0  0
    1.6461   -0.8417   -1.2285 C   0  0  0  0  0  0  0  0  0  0  0  0
    0.7620   -1.0489   -0.0708 N   0  0  0  0  0  0  0  0  0  0  0  0
    0.2658   -2.4166   -0.2057 C   0  0  0  0  0  0  0  0  0  0  0  0
   -1.0945   -2.2924   -0.7359 N   0  0  0  0  0  0  0  0  0  0  0  0
   -1.5602   -1.1305   -0.0450 C   0  0  0  0  0  0  0  0  0  0  0  0
   -2.6933   -0.4172   -0.6898 C   0  0  0  0  0  0  0  0  0  0  0  0
   -3.9372   -0.7515   -0.1718 O   0  0  0  0  0  0  0  0  0  0  0  0
   -2.4756    0.9838   -0.6388 N   0  0  0  0  0  0  0  0  0  0  0  0
   -1.7958    1.4921    0.4927 C   0  0  0  0  0  0  0  0  0  0  0  0
   -2.6111    1.5763    1.6894 N   0  0  0  0  0  0  0  0  0  0  0  0
   -0.5193    0.8190    0.7637 N   0  0  0  0  0  0  0  0  0  0  0  0
   -0.3560   -0.1910   -0.2218 C   0  0  0  0  0  0  0  0  0  0  0  0
    4.7656    0.8366   -0.0927 C   0  0  0  0  0  0  0  0  0  0  0  0
    5.6915   -0.1127    0.3355 O   0  0  0  0  0  0  0  0  0  0  0  0
    3.4145    0.1250   -0.3778 C   0  0  0  0  0  0  0  0  0  0  0  0
    2.5538    1.0671   -0.7856 O   0  0  0  0  0  0  0  0  0  0  0  0
    1.2928    0.7896   -1.1650 C   0  0  0  0  0  0  0  0  0  0  0  0
    0.4555    0.1955   -0.2032 N   0  0  0  0  0  0  0  0  0  0  0  0
    0.8155   -1.1260    0.1449 C   0  0  0  0  0  0  0  0  0  0  0  0
   -0.4254   -1.9350   -0.0484 N   0  0  0  0  0  0  0  0  0  0  0  0
   -1.4401   -0.9951    0.2844 C   0  0  2  0  0  0  0  0  0  0  0  0
   -2.7957   -1.2938   -0.2613 C   0  0  0  0  0  0  0  0  0  0  0  0
   -3.4925   -2.0519    0.6875 O   0  0  0  0  0  0  0  0  0  0  0  0
   -3.4811   -0.0320   -0.4675 N   0  0  0  0  0  0  0  0  0  0  0  0
   -2.9886    0.9627    0.4614 C   0  0  0  0  0  0  0  0  0  0  0  0
   -3.7996    2.1230    0.5436 N   0  0  0  0  0  0  0  0  0  0  0  0
   -1.6203    1.3746    0.1444 N   0  0  0  0  0  0  0  0  0  0  0  0
   -0.9453    0.2611   -0.4482 C   0  0  0  0  0  0  0  0  0  0  0  0
    4.2026    2.0298   -0.9319 H   0  0  0  0  0  0  0  0  0  0  0  0
    2.7491    2.7240   -0.0901 H   0  0  0  0  0  0  0  0  0  0  0  0
    5.2023    1.7383    1.0429 H   0  0  0  0  0  0  0  0  0  0  0  0
    2.2538    0.4321    0.7863 H   0  0  0  0  0  0  0  0  0  0  0  0
    3.7278   -0.1885    0.0060 H   0  0  0  0  0  0  0  0  0  0  0  0
    1.0580   -0.9375   -2.1806 H   0  0  0  0  0  0  0  0  0  0  0  0
    2.4404   -1.5932   -1.2737 H   0  0  0  0  0  0  0  0  0  0  0  0
    0.2680   -2.9402    0.7689 H   0  0  0  0  0  0  0  0  0  0  0  0
    0.8888   -3.0170   -0.8898 H   0  0  0  0  0  0  0  0  0  0  0  0
   -1.6029   -3.1497   -0.3942 H   0  0  0  0  0  0  0  0  0  0  0  0
   -1.6793   -1.2973    1.0373 H   0  0  0  0  0  0  0  0  0  0  0  0
   -2.7155   -0.7192   -1.7740 H   0  0  0  0  0  0  0  0  0  0  0  0
   -4.0586   -1.7036   -0.0166 H   0  0  0  0  0  0  0  0  0  0  0  0
   -2.3054    1.4566   -1.5343 H   0  0  0  0  0  0  0  0  0  0  0  0
   -1.4981    2.5559    0.2584 H   0  0  0  0  0  0  0  0  0  0  0  0
   -3.2070    2.4380    1.6983 H   0  0  0  0  0  0  0  0  0  0  0  0
   -3.2363    0.7390    1.7038 H   0  0  0  0  0  0  0  0  0  0  0  0
   -0.6428    0.3306    1.7003 H   0  0  0  0  0  0  0  0  0  0  0  0
   -0.4122    0.2968   -1.2314 H   0  0  0  0  0  0  0  0  0  0  0  0
    5.1178    1.2572   -1.0609 H   0  0  0  0  0  0  0  0  0  0  0  0
    4.5744    1.6200    0.6666 H   0  0  0  0  0  0  0  0  0  0  0  0
    5.6663   -0.1830    1.3228 H   0  0  0  0  0  0  0  0  0  0  0  0
    3.6447   -0.6823   -1.0931 H   0  0  0  0  0  0  0  0  0  0  0  0
    3.1782   -0.3593    0.6047 H   0  0  0  0  0  0  0  0  0  0  0  0
    1.3833    0.1223   -2.0973 H   0  0  0  0  0  0  0  0  0  0  0  0
    0.8144    1.7148   -1.6250 H   0  0  0  0  0  0  0  0  0  0  0  0
    1.0951   -1.1700    1.2219 H   0  0  0  0  0  0  0  0  0  0  0  0
    1.5577   -1.6295   -0.4793 H   0  0  0  0  0  0  0  0  0  0  0  0
   -0.3455   -2.6850    0.6739 H   0  0  0  0  0  0  0  0  0  0  0  0
   -1.4190   -0.8337    1.3817 H   0  0  0  0  0  0  0  0  0  0  0  0
   -2.7060   -1.8554   -1.2139 H   0  0  0  0  0  0  0  0  0  0  0  0
   -3.5888   -2.9708    0.3300 H   0  0  0  0  0  0  0  0  0  0  0  0
   -3.4446    0.2778   -1.4541 H   0  0  0  0  0  0  0  0  0  0  0  0
   -2.9809    0.4773    1.4697 H   0  0  0  0  0  0  0  0  0  0  0  0
   -4.7994    1.9882    0.3438 H   0  0  0  0  0  0  0  0  0  0  0  0
   -3.3828    2.9880    0.1639 H   0  0  0  0  0  0  0  0  0  0  0  0
   -1.1390    1.5608    1.0747 H   0  0  0  0  0  0  0  0  0  0  0  0
   -1.2264    0.1740   -1.5175 H   0  0  0  0  0  0  0  0  0  0  0  0
  1  2  1  0
  1  3  1  0
  3  4  1  0
  4  5  1  0
  5  6  1  0
  6  7  1  0
  7  8  1  0
  8  9  1  0
  9 10  1  0
 10 11  1  0
 10 12  1  0
 12 13  1  0
 13 14  1  0
 13 15  1  0
  6 16  1  0
  9 16  1  0
 15 16  1  0
 17 18  1  0
 17 19  1  0
 19 20  1  0
 20 21  1  0
 21 22  1  0
 22 23  1  0
 23 24  1  0
 24 25  1  0
 25 26  1  0
 26 27  1  0
 26 28  1  0
 28 29  1  0
 29 30  1  0
 29 31  1  0
 22 32  1  0
 25 32  1  0
 31 32  1  0
  1 33  1  0
  1 34  1  0
  2 35  1  0
  3 36  1  0
  3 37  1  0
  5 38  1  0
  5 39  1  0
  7 40  1  0
  7 41  1  0
  8 42  1  0
  9 43  1  0
 10 44  1  0
 11 45  1  0
 12 46  1  0
 13 47  1  0
 14 48  1  0
 14 49  1  0
 15 50  1  0
 16 51  1  0
 17 52  1  0
 17 53  1  0
 18 54  1  0
 19 55  1  0
 19 56  1  0
 21 57  1  0
 21 58  1  0
 23 59  1  0
 23 60  1  0
 24 61  1  0
 25 62  1  1
 26 63  1  0
 27 64  1  0
 28 65  1  0
 29 66  1  0
 30 67  1  0
 30 68  1  0
 31 69  1  0
 32 70  1  0
M  END
>  <PDBID>  (1) 
2KI5

>  <PDB ID>  (1) 
2KI5

>  <Generic Name>  (1) 
Aciclovir

>  <Brand Name>  (1) 
Acyclovir#Acyclovir Sodium#Acyclovir Sodium Injection#Acyclovir Sodium for Injection#Acyclovir-200#Acyclovir-400#Acyclovir-800#Alti-acyclovir - 400mg#Alti-acyclovir - 800mg#Alti-acyclovir - Tab 200mg#Apo-acyclovir - Tab 200mg#Apo-acyclovir - Tab 400mg#Apo-acyclovir - Tab 800mg#Mylan-acyclovir#Ntp-acyclovir#Nu-acyclovir - Tab 200mg#Nu-acyclovir - Tab 400mg#Nu-acyclovir - Tab 800mg#Ratio-acyclovir#Sitavig#Teva-acyclovir#Xerese#Zovirax#Zovirax 400#Zovirax 800#Zovirax Cap 200mg#Zovirax Tab 200mg#Zovir

>  <DrugBank ID>  (1) 
DB00787

>  <ATC Codes>  (1) 
S01AD03#D06BB03#J05AB01#D06BB53

>  <Ligand ID>  (1) 
AC2

>  <Target Name>  (1) 
Thymidine kinase

>  <UniProt ID>  (1) 
P03176

>  <PDB ID.1>  (1) 
2KI5

>  <Seq. Identity>  (1) 
100%

$$$$
