PDB_DB06605_03
     RDKit          3D

 81 85  0  0  0  0  0  0  0  0999 V2000
   -6.4209    1.9685   -0.6828 C   0  0  0  0  0  0  0  0  0  0  0  0
   -5.1114    2.5101   -0.2380 C   0  0  0  0  0  0  0  0  0  0  0  0
   -3.8931    1.7825   -0.6907 C   0  0  0  0  0  0  0  0  0  0  0  0
   -6.9242    2.6372   -1.7956 O   0  0  0  0  0  0  0  0  0  0  0  0
   -3.3277   -1.8349   -0.6290 N   0  0  0  0  0  0  0  0  0  0  0  0
    1.5636    0.5470   -0.0682 C   0  0  0  0  0  0  0  0  0  0  0  0
   -0.5748   -0.4878   -0.5699 C   0  0  0  0  0  0  0  0  0  0  0  0
   -2.6480   -2.4812    0.4464 C   0  0  2  0  0  0  0  0  0  0  0  0
   -3.5687   -3.2496    1.3663 C   0  0  0  0  0  0  0  0  0  0  0  0
   -1.9305   -1.3874    1.2306 C   0  0  0  0  0  0  0  0  0  0  0  0
   -1.8714   -0.2865    0.2129 C   0  0  0  0  0  0  0  0  0  0  0  0
    3.6731    1.5446    0.5773 C   0  0  0  0  0  0  0  0  0  0  0  0
   -8.1102    3.3160   -1.4947 C   0  0  0  0  0  0  0  0  0  0  0  0
    4.5208    0.3488    0.2610 C   0  0  0  0  0  0  0  0  0  0  0  0
    6.5467   -0.4058   -0.7789 C   0  0  0  0  0  0  0  0  0  0  0  0
    6.6157    1.3172    0.7668 C   0  0  0  0  0  0  0  0  0  0  0  0
    7.7469    2.0610    0.0407 C   0  0  0  0  0  0  0  0  0  0  0  0
    2.4370   -0.0244   -1.1221 C   0  0  0  0  0  0  0  0  0  0  0  0
    0.5407   -0.9717    1.5101 C   0  0  0  0  0  0  0  0  0  0  0  0
   -4.0947    0.3186   -0.4816 C   0  0  0  0  0  0  0  0  0  0  0  0
   -5.2176   -0.1187   -1.3972 C   0  0  0  0  0  0  0  0  0  0  0  0
   -6.4975    0.4961   -0.8956 C   0  0  0  0  0  0  0  0  0  0  0  0
   -2.9562   -0.5139   -0.6737 N   0  0  0  0  0  0  0  0  0  0  0  0
    0.4637   -0.1890    0.3631 N   0  0  0  0  0  0  0  0  0  0  0  0
    2.3676    0.9871    1.1651 C   0  0  0  0  0  0  0  0  0  0  0  0
    5.8010    0.7339   -0.2825 N   0  0  0  0  0  0  0  0  0  0  0  0
    3.7465   -0.5814   -0.6222 C   0  0  0  0  0  0  0  0  0  0  0  0
   -0.5037   -1.7226   -1.1670 O   0  0  0  0  0  0  0  0  0  0  0  0
    8.6475    0.9702   -0.5088 C   0  0  0  0  0  0  0  0  0  0  0  0
    6.0439   -1.5853   -0.1787 O   0  0  0  0  0  0  0  0  0  0  0  0
    8.0054   -0.3750   -0.4742 C   0  0  0  0  0  0  0  0  0  0  0  0
   -4.4816   -2.3641    1.9058 O   0  0  0  0  0  0  0  0  0  0  0  0
   -4.2618   -4.2881    0.6564 N   0  0  0  0  0  0  0  0  0  0  0  0
   -0.6309   -1.8643    1.7330 C   0  0  0  0  0  0  0  0  0  0  0  0
   -7.1484    2.1798    0.1612 H   0  0  0  0  0  0  0  0  0  0  0  0
   -5.0610    2.5700    0.8842 H   0  0  0  0  0  0  0  0  0  0  0  0
   -5.0376    3.5615   -0.6251 H   0  0  0  0  0  0  0  0  0  0  0  0
   -3.7567    1.9585   -1.7977 H   0  0  0  0  0  0  0  0  0  0  0  0
   -3.0274    2.1957   -0.1239 H   0  0  0  0  0  0  0  0  0  0  0  0
   -3.2555   -2.3171   -1.5467 H   0  0  0  0  0  0  0  0  0  0  0  0
    1.1638    1.5341   -0.4628 H   0  0  0  0  0  0  0  0  0  0  0  0
   -0.5634    0.2978   -1.3565 H   0  0  0  0  0  0  0  0  0  0  0  0
   -1.8888   -3.1801    0.0653 H   0  0  0  0  0  0  0  0  0  0  0  0
   -2.9339   -3.6864    2.1596 H   0  0  0  0  0  0  0  0  0  0  0  0
   -2.6302   -1.0912    2.0460 H   0  0  0  0  0  0  0  0  0  0  0  0
   -1.8164    0.7219    0.6356 H   0  0  0  0  0  0  0  0  0  0  0  0
    4.1197    2.2884    1.2366 H   0  0  0  0  0  0  0  0  0  0  0  0
    3.4538    2.0465   -0.3949 H   0  0  0  0  0  0  0  0  0  0  0  0
   -7.9486    4.0820   -0.6904 H   0  0  0  0  0  0  0  0  0  0  0  0
   -8.5789    3.7548   -2.3705 H   0  0  0  0  0  0  0  0  0  0  0  0
   -8.7687    2.5558   -1.0249 H   0  0  0  0  0  0  0  0  0  0  0  0
    4.7493   -0.1523    1.2469 H   0  0  0  0  0  0  0  0  0  0  0  0
    6.4059   -0.4396   -1.8803 H   0  0  0  0  0  0  0  0  0  0  0  0
    7.1267    0.5328    1.3654 H   0  0  0  0  0  0  0  0  0  0  0  0
    6.0891    1.9726    1.4553 H   0  0  0  0  0  0  0  0  0  0  0  0
    8.2798    2.7514    0.7019 H   0  0  0  0  0  0  0  0  0  0  0  0
    7.2648    2.5459   -0.8335 H   0  0  0  0  0  0  0  0  0  0  0  0
    2.7185    0.7675   -1.8788 H   0  0  0  0  0  0  0  0  0  0  0  0
    1.9509   -0.8157   -1.7098 H   0  0  0  0  0  0  0  0  0  0  0  0
    0.7245   -0.3218    2.4124 H   0  0  0  0  0  0  0  0  0  0  0  0
    1.4554   -1.6345    1.4691 H   0  0  0  0  0  0  0  0  0  0  0  0
   -4.4660    0.1934    0.5646 H   0  0  0  0  0  0  0  0  0  0  0  0
   -5.0358    0.1609   -2.4516 H   0  0  0  0  0  0  0  0  0  0  0  0
   -5.3294   -1.2324   -1.2876 H   0  0  0  0  0  0  0  0  0  0  0  0
   -6.7912   -0.0473    0.0350 H   0  0  0  0  0  0  0  0  0  0  0  0
   -7.2863    0.2822   -1.6440 H   0  0  0  0  0  0  0  0  0  0  0  0
    2.6218    0.0936    1.7328 H   0  0  0  0  0  0  0  0  0  0  0  0
    1.8445    1.7526    1.7458 H   0  0  0  0  0  0  0  0  0  0  0  0
    3.6704   -1.5564   -0.1462 H   0  0  0  0  0  0  0  0  0  0  0  0
    4.3697   -0.7316   -1.5547 H   0  0  0  0  0  0  0  0  0  0  0  0
    0.2387   -2.2630   -0.8564 H   0  0  0  0  0  0  0  0  0  0  0  0
    9.5304    0.9207    0.1952 H   0  0  0  0  0  0  0  0  0  0  0  0
    9.0859    1.2426   -1.4866 H   0  0  0  0  0  0  0  0  0  0  0  0
    6.4260   -1.6257    0.7136 H   0  0  0  0  0  0  0  0  0  0  0  0
    8.5183   -0.9977   -1.2660 H   0  0  0  0  0  0  0  0  0  0  0  0
    8.2204   -0.9358    0.4756 H   0  0  0  0  0  0  0  0  0  0  0  0
   -5.2004   -2.2238    1.2692 H   0  0  0  0  0  0  0  0  0  0  0  0
   -4.2562   -5.1977    1.1543 H   0  0  0  0  0  0  0  0  0  0  0  0
   -3.7976   -4.4022   -0.2716 H   0  0  0  0  0  0  0  0  0  0  0  0
   -0.7220   -2.0083    2.8514 H   0  0  0  0  0  0  0  0  0  0  0  0
   -0.4233   -2.9094    1.3568 H   0  0  0  0  0  0  0  0  0  0  0  0
  1  2  1  0
  2  3  1  0
  1  4  1  0
  5  8  1  0
  8  9  1  0
  8 10  1  0
  7 11  1  0
 10 11  1  0
  4 13  1  0
 12 14  1  0
 16 17  1  0
  6 18  1  0
  3 20  1  0
 20 21  1  0
  1 22  1  0
 21 22  1  0
  5 23  1  0
 11 23  1  0
 20 23  1  0
  6 24  1  0
  7 24  1  0
 19 24  1  0
  6 25  1  0
 12 25  1  0
 14 26  1  0
 15 26  1  0
 16 26  1  0
 14 27  1  0
 18 27  1  0
  7 28  1  0
 17 29  1  0
 15 30  1  0
 15 31  1  0
 29 31  1  0
  9 32  1  0
  9 33  1  0
 10 34  1  0
 19 34  1  0
  1 35  1  0
  2 36  1  0
  2 37  1  0
  3 38  1  0
  3 39  1  0
  5 40  1  0
  6 41  1  0
  7 42  1  0
  8 43  1  6
  9 44  1  0
 10 45  1  0
 11 46  1  0
 12 47  1  0
 12 48  1  0
 13 49  1  0
 13 50  1  0
 13 51  1  0
 14 52  1  0
 15 53  1  0
 16 54  1  0
 16 55  1  0
 17 56  1  0
 17 57  1  0
 18 58  1  0
 18 59  1  0
 19 60  1  0
 19 61  1  0
 20 62  1  0
 21 63  1  0
 21 64  1  0
 22 65  1  0
 22 66  1  0
 25 67  1  0
 25 68  1  0
 27 69  1  0
 27 70  1  0
 28 71  1  0
 29 72  1  0
 29 73  1  0
 30 74  1  0
 31 75  1  0
 31 76  1  0
 32 77  1  0
 33 78  1  0
 33 79  1  0
 34 80  1  0
 34 81  1  0
M  END
>  <PDBID>  (1) 
2P16

>  <PDB ID>  (1) 
2P16

>  <Generic Name>  (1) 
Apixaban

>  <Brand Name>  (1) 
Eliquis

>  <DrugBank ID>  (1) 
DB06605

>  <ATC Codes>  (1) 
B01AF02

>  <Ligand ID>  (1) 
GG2

>  <Target Name>  (1) 
Coagulation factor X

>  <UniProt ID>  (1) 
P00742

>  <PDB ID.1>  (1) 
2P16

>  <Seq. Identity>  (1) 
100%

$$$$
