PDB_DB11730_09
     RDKit          3D

 78 82  0  0  0  0  0  0  0  0999 V2000
   -0.1211   -0.2329   -1.3943 C   0  0  2  0  0  0  0  0  0  0  0  0
   -1.1546    1.9240   -1.6843 C   0  0  0  0  0  0  0  0  0  0  0  0
   -2.2537    1.0315   -1.2520 C   0  0  0  0  0  0  0  0  0  0  0  0
   -1.8524    0.4549    0.0925 C   0  0  0  0  0  0  0  0  0  0  0  0
    4.4435    0.1904   -1.6031 C   0  0  0  0  0  0  0  0  0  0  0  0
    3.5022   -0.9233   -1.6048 N   0  0  0  0  0  0  0  0  0  0  0  0
   -3.4781    1.8377   -0.7546 C   0  0  0  0  0  0  0  0  0  0  0  0
    3.8925   -0.0938    0.8287 C   0  0  0  0  0  0  0  0  0  0  0  0
    4.9074    0.2849   -0.1572 C   0  0  0  0  0  0  0  0  0  0  0  0
   -4.1768    0.6581   -0.0571 C   0  0  0  0  0  0  0  0  0  0  0  0
    2.2977   -0.3426   -1.0401 C   0  0  0  0  0  0  0  0  0  0  0  0
   -5.1895    1.2295    0.8985 C   0  0  2  0  0  0  0  0  0  0  0  0
   -4.6241   -3.3844    0.6725 C   0  0  0  0  0  0  0  0  0  0  0  0
   -4.2366   -3.0299    2.0740 C   0  0  0  0  0  0  0  0  0  0  0  0
   -4.4514   -2.0384   -0.0426 C   0  0  0  0  0  0  0  0  0  0  0  0
   -3.0929   -2.0655    1.9187 C   0  0  0  0  0  0  0  0  0  0  0  0
    6.7355   -0.7528    1.1103 C   0  0  0  0  0  0  0  0  0  0  0  0
    7.1393    0.4972   -0.8148 C   0  0  0  0  0  0  0  0  0  0  0  0
    8.0532   -1.4834    0.7489 C   0  0  0  0  0  0  0  0  0  0  0  0
    8.3982    0.7195   -0.0336 C   0  0  0  0  0  0  0  0  0  0  0  0
   -3.1886   -1.4860    0.5169 C   0  0  0  0  0  0  0  0  0  0  0  0
   -6.0498    3.0968   -0.4248 C   0  0  0  0  0  0  0  0  0  0  0  0
   -7.5418    1.8754    0.9020 C   0  0  0  0  0  0  0  0  0  0  0  0
    2.4780   -0.3000    0.4387 C   0  0  0  0  0  0  0  0  0  0  0  0
    0.0489    1.1690   -1.7425 N   0  0  0  0  0  0  0  0  0  0  0  0
   -0.7992   -0.4926   -0.1908 N   0  0  0  0  0  0  0  0  0  0  0  0
   -3.0892   -0.0726    0.5924 N   0  0  0  0  0  0  0  0  0  0  0  0
    6.1792   -0.3388   -0.1125 N   0  0  0  0  0  0  0  0  0  0  0  0
    1.1129   -0.8718   -1.5802 N   0  0  0  0  0  0  0  0  0  0  0  0
   -6.2432    1.9267    0.3126 N   0  0  0  0  0  0  0  0  0  0  0  0
    9.0288   -0.4755    0.4389 N   0  0  0  0  0  0  0  0  0  0  0  0
   -4.4380    2.0884    1.7509 O   0  0  0  0  0  0  0  0  0  0  0  0
   -1.3779    2.4772   -2.6243 H   0  0  0  0  0  0  0  0  0  0  0  0
    5.3059    0.0587   -2.2417 H   0  0  0  0  0  0  0  0  0  0  0  0
   -3.1102    2.5786   -0.0494 H   0  0  0  0  0  0  0  0  0  0  0  0
    4.2304   -1.0372    1.3468 H   0  0  0  0  0  0  0  0  0  0  0  0
   -3.9658   -4.1727    0.2648 H   0  0  0  0  0  0  0  0  0  0  0  0
   -5.6752   -3.7153    0.7051 H   0  0  0  0  0  0  0  0  0  0  0  0
   -5.1214   -2.6101    2.5809 H   0  0  0  0  0  0  0  0  0  0  0  0
   -3.9100   -3.9700    2.5851 H   0  0  0  0  0  0  0  0  0  0  0  0
   -4.4463   -2.2221   -1.1212 H   0  0  0  0  0  0  0  0  0  0  0  0
   -5.3752   -1.4739    0.2102 H   0  0  0  0  0  0  0  0  0  0  0  0
   -2.1552   -2.6819    2.0068 H   0  0  0  0  0  0  0  0  0  0  0  0
   -3.1356   -1.2856    2.7004 H   0  0  0  0  0  0  0  0  0  0  0  0
    6.1402   -1.5315    1.6480 H   0  0  0  0  0  0  0  0  0  0  0  0
    7.0627    0.0530    1.8040 H   0  0  0  0  0  0  0  0  0  0  0  0
    6.7347    1.4934   -1.0653 H   0  0  0  0  0  0  0  0  0  0  0  0
    7.4274    0.0282   -1.7896 H   0  0  0  0  0  0  0  0  0  0  0  0
    7.8963   -2.0710   -0.1953 H   0  0  0  0  0  0  0  0  0  0  0  0
    8.3290   -2.1473    1.5685 H   0  0  0  0  0  0  0  0  0  0  0  0
    9.1359    1.1995   -0.7436 H   0  0  0  0  0  0  0  0  0  0  0  0
    8.2798    1.5062    0.7642 H   0  0  0  0  0  0  0  0  0  0  0  0
   -2.3587   -1.9393   -0.1060 H   0  0  0  0  0  0  0  0  0  0  0  0
   -6.2008    2.9490   -1.5396 H   0  0  0  0  0  0  0  0  0  0  0  0
   -5.1634    3.7141   -0.2240 H   0  0  0  0  0  0  0  0  0  0  0  0
   -6.9150    3.8064   -0.1830 H   0  0  0  0  0  0  0  0  0  0  0  0
   -7.4991    1.7770    1.9792 H   0  0  0  0  0  0  0  0  0  0  0  0
   -8.0717    0.9421    0.5321 H   0  0  0  0  0  0  0  0  0  0  0  0
   -8.1309    2.7780    0.5777 H   0  0  0  0  0  0  0  0  0  0  0  0
    1.8326    0.4883    0.9143 H   0  0  0  0  0  0  0  0  0  0  0  0
    1.1321   -1.8859   -1.7300 H   0  0  0  0  0  0  0  0  0  0  0  0
    9.7374   -0.3100    1.1519 H   0  0  0  0  0  0  0  0  0  0  0  0
   -0.8076   -0.6683   -2.2272 H   0  0  0  0  0  0  0  0  0  0  0  0
   -1.0256    2.7313   -0.9145 H   0  0  0  0  0  0  0  0  0  0  0  0
   -2.5679    0.2808   -1.9762 H   0  0  0  0  0  0  0  0  0  0  0  0
   -1.4510    1.2657    0.7146 H   0  0  0  0  0  0  0  0  0  0  0  0
    3.9464    1.1496   -1.8781 H   0  0  0  0  0  0  0  0  0  0  0  0
    3.3580   -1.3217   -2.5441 H   0  0  0  0  0  0  0  0  0  0  0  0
   -3.9788    2.1842   -1.6430 H   0  0  0  0  0  0  0  0  0  0  0  0
    3.8927    0.6558    1.6851 H   0  0  0  0  0  0  0  0  0  0  0  0
    5.1107    1.3982   -0.0190 H   0  0  0  0  0  0  0  0  0  0  0  0
   -4.5941    0.0465   -0.8647 H   0  0  0  0  0  0  0  0  0  0  0  0
    2.2814    0.7855   -1.3304 H   0  0  0  0  0  0  0  0  0  0  0  0
   -5.6050    0.4553    1.5939 H   0  0  0  0  0  0  0  0  0  0  0  0
    2.1183   -1.3155    0.8132 H   0  0  0  0  0  0  0  0  0  0  0  0
    0.3698    1.1910   -2.7341 H   0  0  0  0  0  0  0  0  0  0  0  0
   -0.2219   -0.6612    0.6303 H   0  0  0  0  0  0  0  0  0  0  0  0
   -3.6934    1.5648    2.1598 H   0  0  0  0  0  0  0  0  0  0  0  0
  2  3  1  0
  3  4  1  0
  5  6  1  0
  3  7  1  0
  5  9  1  0
  8  9  1  0
  7 10  1  0
  6 11  1  0
 10 12  1  0
 13 14  1  0
 13 15  1  0
 14 16  1  0
 17 19  1  0
 18 20  1  0
 15 21  1  0
 16 21  1  0
  8 24  1  0
 11 24  1  0
  1 25  1  0
  2 25  1  0
  1 26  1  0
  4 26  1  0
  4 27  1  0
 10 27  1  0
 21 27  1  0
  9 28  1  0
 17 28  1  0
 18 28  1  0
  1 29  1  0
 11 29  1  0
 12 30  1  0
 22 30  1  0
 23 30  1  0
 19 31  1  0
 20 31  1  0
 12 32  1  0
  2 33  1  0
  5 34  1  0
  7 35  1  0
  8 36  1  0
 13 37  1  0
 13 38  1  0
 14 39  1  0
 14 40  1  0
 15 41  1  0
 15 42  1  0
 16 43  1  0
 16 44  1  0
 17 45  1  0
 17 46  1  0
 18 47  1  0
 18 48  1  0
 19 49  1  0
 19 50  1  0
 20 51  1  0
 20 52  1  0
 21 53  1  0
 22 54  1  0
 22 55  1  0
 22 56  1  0
 23 57  1  0
 23 58  1  0
 23 59  1  0
 24 60  1  0
 29 61  1  0
 31 62  1  0
  1 63  1  6
  2 64  1  0
  3 65  1  0
  4 66  1  0
  5 67  1  0
  6 68  1  0
  7 69  1  0
  8 70  1  0
  9 71  1  0
 10 72  1  0
 11 73  1  0
 12 74  1  1
 24 75  1  0
 25 76  1  0
 26 77  1  0
 32 78  1  0
M  END
>  <PDBID>  (1) 
5L2T

>  <PDB ID>  (1) 
5L2T

>  <Generic Name>  (1) 
Ribociclib

>  <Brand Name>  (1) 
Kisqali

>  <DrugBank ID>  (1) 
DB11730

>  <ATC Codes>  (1) 
nan

>  <Ligand ID>  (1) 
6ZZ

>  <Target Name>  (1) 
Cyclin-dependent kinase 6

>  <UniProt ID>  (1) 
Q00534

>  <PDB ID.1>  (1) 
5L2T

>  <Seq. Identity>  (1) 
100%

$$$$
