PDB_DB00540_04
     RDKit          3D

 55 57  0  0  0  0  0  0  0  0999 V2000
    5.6718   -0.1250    0.7808 C   0  0  0  0  0  0  0  0  0  0  0  0
    4.3131    0.0411    0.3042 N   0  0  0  0  0  0  0  0  0  0  0  0
    3.6411   -1.2172    0.0904 C   0  0  0  0  0  0  0  0  0  0  0  0
    2.2423   -0.9041   -0.4025 C   0  0  0  0  0  0  0  0  0  0  0  0
    1.4841   -0.0745    0.6321 C   0  0  0  0  0  0  0  0  0  0  0  0
    0.0790    0.2688    0.1661 C   0  0  0  0  0  0  0  0  0  0  0  0
   -0.6402   -0.9996   -0.0420 C   0  0  0  0  0  0  0  0  0  0  0  0
   -0.8749   -1.3392   -1.5121 C   0  0  0  0  0  0  0  0  0  0  0  0
   -1.0622   -2.8415   -1.6375 C   0  0  0  0  0  0  0  0  0  0  0  0
   -1.4207   -3.4600   -0.3140 C   0  0  0  0  0  0  0  0  0  0  0  0
   -0.4761    1.3239    1.0060 C   0  0  0  0  0  0  0  0  0  0  0  0
    0.3031    2.5969    0.8925 C   0  0  0  0  0  0  0  0  0  0  0  0
    0.0613    3.3755   -0.3624 C   0  0  0  0  0  0  0  0  0  0  0  0
   -1.3619    3.4753   -0.7852 C   0  0  0  0  0  0  0  0  0  0  0  0
   -2.1237    2.1780   -0.6036 C   0  0  0  0  0  0  0  0  0  0  0  0
   -1.8953    1.7421    0.8035 C   0  0  0  0  0  0  0  0  0  0  0  0
   -2.9496    0.8331    1.3361 C   0  0  0  0  0  0  0  0  0  0  0  0
   -3.0439   -0.3399    0.3710 C   0  0  0  0  0  0  0  0  0  0  0  0
   -1.8986   -1.2218    0.7549 C   0  0  0  0  0  0  0  0  0  0  0  0
   -2.3501   -2.6523    0.5277 C   0  0  0  0  0  0  0  0  0  0  0  0
    6.3509    0.2334   -0.0066 H   0  0  0  0  0  0  0  0  0  0  0  0
    5.8085   -1.1859    1.0397 H   0  0  0  0  0  0  0  0  0  0  0  0
    5.7462    0.4904    1.7155 H   0  0  0  0  0  0  0  0  0  0  0  0
    4.2910    0.5611   -0.6089 H   0  0  0  0  0  0  0  0  0  0  0  0
    3.6473   -1.8546    0.9853 H   0  0  0  0  0  0  0  0  0  0  0  0
    4.1616   -1.7283   -0.7451 H   0  0  0  0  0  0  0  0  0  0  0  0
    1.7412   -1.8592   -0.6348 H   0  0  0  0  0  0  0  0  0  0  0  0
    2.3342   -0.3365   -1.3338 H   0  0  0  0  0  0  0  0  0  0  0  0
    2.0698    0.7384    1.0265 H   0  0  0  0  0  0  0  0  0  0  0  0
    1.4135   -0.7973    1.5105 H   0  0  0  0  0  0  0  0  0  0  0  0
    0.2293    0.7227   -0.8700 H   0  0  0  0  0  0  0  0  0  0  0  0
   -0.0053   -1.8846    0.3042 H   0  0  0  0  0  0  0  0  0  0  0  0
   -1.7179   -0.7836   -1.9512 H   0  0  0  0  0  0  0  0  0  0  0  0
    0.0318   -1.0176   -2.0563 H   0  0  0  0  0  0  0  0  0  0  0  0
   -1.8132   -3.1027   -2.3973 H   0  0  0  0  0  0  0  0  0  0  0  0
   -0.1062   -3.3048   -1.9661 H   0  0  0  0  0  0  0  0  0  0  0  0
   -0.5344   -3.8384    0.2456 H   0  0  0  0  0  0  0  0  0  0  0  0
   -1.9878   -4.4055   -0.5756 H   0  0  0  0  0  0  0  0  0  0  0  0
   -0.3961    0.9986    2.0864 H   0  0  0  0  0  0  0  0  0  0  0  0
   -0.0663    3.2357    1.7591 H   0  0  0  0  0  0  0  0  0  0  0  0
    1.3807    2.5485    1.0410 H   0  0  0  0  0  0  0  0  0  0  0  0
    0.6521    2.9597   -1.2052 H   0  0  0  0  0  0  0  0  0  0  0  0
    0.4393    4.4055   -0.1888 H   0  0  0  0  0  0  0  0  0  0  0  0
   -1.4217    3.7331   -1.8616 H   0  0  0  0  0  0  0  0  0  0  0  0
   -1.9049    4.2506   -0.2162 H   0  0  0  0  0  0  0  0  0  0  0  0
   -1.7962    1.5141   -1.3906 H   0  0  0  0  0  0  0  0  0  0  0  0
   -3.2034    2.3759   -0.7471 H   0  0  0  0  0  0  0  0  0  0  0  0
   -2.0278    2.6879    1.4243 H   0  0  0  0  0  0  0  0  0  0  0  0
   -3.9022    1.3563    1.3390 H   0  0  0  0  0  0  0  0  0  0  0  0
   -2.6455    0.4637    2.3226 H   0  0  0  0  0  0  0  0  0  0  0  0
   -4.0022   -0.8611    0.5282 H   0  0  0  0  0  0  0  0  0  0  0  0
   -3.0185    0.0647   -0.6386 H   0  0  0  0  0  0  0  0  0  0  0  0
   -1.6209   -1.1361    1.8252 H   0  0  0  0  0  0  0  0  0  0  0  0
   -3.3587   -2.7072    0.0490 H   0  0  0  0  0  0  0  0  0  0  0  0
   -2.4670   -3.1967    1.4958 H   0  0  0  0  0  0  0  0  0  0  0  0
  1  2  1  0
  2  3  1  0
  3  4  1  0
  4  5  1  0
  5  6  1  0
  6  7  1  0
  7  8  1  0
  8  9  1  0
  9 10  1  0
  6 11  1  0
 11 12  1  0
 12 13  1  0
 13 14  1  0
 14 15  1  0
 11 16  1  0
 15 16  1  0
 16 17  1  0
 17 18  1  0
  7 19  1  0
 18 19  1  0
 10 20  1  0
 19 20  1  0
  1 21  1  0
  1 22  1  0
  1 23  1  0
  2 24  1  0
  3 25  1  0
  3 26  1  0
  4 27  1  0
  4 28  1  0
  5 29  1  0
  5 30  1  0
  6 31  1  0
  7 32  1  0
  8 33  1  0
  8 34  1  0
  9 35  1  0
  9 36  1  0
 10 37  1  0
 10 38  1  0
 11 39  1  0
 12 40  1  0
 12 41  1  0
 13 42  1  0
 13 43  1  0
 14 44  1  0
 14 45  1  0
 15 46  1  0
 15 47  1  0
 16 48  1  0
 17 49  1  0
 17 50  1  0
 18 51  1  0
 18 52  1  0
 19 53  1  0
 20 54  1  0
 20 55  1  0
M  END
>  <PDBID>  (1) 
4M48

>  <PDB ID>  (1) 
4M48

>  <Generic Name>  (1) 
Nortriptyline

>  <Brand Name>  (1) 
Apo-nortriptyline - Cap 10mg#Apo-nortriptyline - Cap 25mg#Ava-nortriptyline#Aventyl#Dom-nortriptyline 10mg Capsules#Dom-nortriptyline 25mg Capsules#Gen-nortriptyline Capsules 10mg#Gen-nortriptyline Capsules 25mg#Nortriptyline#Nortriptyline Hydrochloride#Nortriptyline-10#Nortriptyline-25#Norventyl#Nu-nortriptyline - Cap 10mg#Nu-nortriptyline - Cap 25mg#PMS-nortriptyline#Pamelor#Ratio-nortriptyline#Teva-nortriptyline#Allegron#Noritren#Norpress#Nortrilen#Sensoval

>  <DrugBank ID>  (1) 
DB00540

>  <ATC Codes>  (1) 
N06AA10

>  <Ligand ID>  (1) 
21B

>  <Target Name>  (1) 
Sodium-dependent noradrenaline transporter

>  <UniProt ID>  (1) 
P23975

>  <PDB ID.1>  (1) 
4M48

>  <Seq. Identity>  (1) 
57%

$$$$
