PDB_DB05812_02
     RDKit          3D

268284  0  0  0  0  0  0  0  0999 V2000
   -3.7588    0.5515    1.5953 C   0  0  0  0  0  0  0  0  0  0  0  0
   -5.2314    0.1508    1.5545 C   0  0  0  0  0  0  0  0  0  0  0  0
   -5.8062    0.7292    0.2809 C   0  0  2  0  0  0  0  0  0  0  0  0
   -7.1833    0.6638    0.2274 O   0  0  0  0  0  0  0  0  0  0  0  0
   -5.1353    0.0072   -0.8718 C   0  0  0  0  0  0  0  0  0  0  0  0
   -3.6721    0.3458   -0.8255 C   0  0  0  0  0  0  0  0  0  0  0  0
   -2.9138   -0.1163   -2.0295 C   0  0  0  0  0  0  0  0  0  0  0  0
   -1.5556    0.6003   -2.0067 C   0  0  0  0  0  0  0  0  0  0  0  0
   -0.8364    0.0713   -0.8075 C   0  0  2  0  0  0  0  0  0  0  0  0
   -1.6035    0.4220    0.4801 C   0  0  1  0  0  0  0  0  0  0  0  0
   -2.9941   -0.1064    0.4392 C   0  0  1  0  0  0  0  0  0  0  0  0
   -0.8530   -0.1719    1.6228 C   0  0  0  0  0  0  0  0  0  0  0  0
    0.5933    0.1684    1.7108 C   0  0  0  0  0  0  0  0  0  0  0  0
    1.3112   -0.1678    0.3929 C   0  0  1  0  0  0  0  0  0  0  0  0
    0.5045    0.6169   -0.6261 C   0  0  1  0  0  0  0  0  0  0  0  0
    1.4297    0.7109   -1.7603 C   0  0  0  0  0  0  0  0  0  0  0  0
    2.6457    1.2732   -0.9929 C   0  0  0  0  0  0  0  0  0  0  0  0
    2.6366    0.5108    0.3094 C   0  0  0  0  0  0  0  0  0  0  0  0
    1.3223   -1.6259    0.1442 C   0  0  0  0  0  0  0  0  0  0  0  0
   -3.0612   -1.5852    0.6542 C   0  0  0  0  0  0  0  0  0  0  0  0
    3.8541   -0.3159    0.5344 C   0  0  0  0  0  0  0  0  0  0  0  0
    4.2582   -1.3116   -0.4608 C   0  0  0  0  0  0  0  0  0  0  0  0
    5.4421   -1.0528   -1.2221 N   0  0  0  0  0  0  0  0  0  0  0  0
    6.5279   -0.4440   -0.6087 C   0  0  0  0  0  0  0  0  0  0  0  0
    6.0384    0.8658    0.0159 C   0  0  0  0  0  0  0  0  0  0  0  0
    5.0250    0.4864    1.0352 C   0  0  0  0  0  0  0  0  0  0  0  0
   -3.7588    0.5515    1.5953 C   0  0  0  0  0  0  0  0  0  0  0  0
   -5.2314    0.1508    1.5545 C   0  0  0  0  0  0  0  0  0  0  0  0
   -5.8062    0.7292    0.2809 C   0  0  2  0  0  0  0  0  0  0  0  0
   -7.1833    0.6638    0.2274 O   0  0  0  0  0  0  0  0  0  0  0  0
   -5.1353    0.0072   -0.8718 C   0  0  0  0  0  0  0  0  0  0  0  0
   -3.6721    0.3458   -0.8255 C   0  0  0  0  0  0  0  0  0  0  0  0
   -2.9138   -0.1163   -2.0295 C   0  0  0  0  0  0  0  0  0  0  0  0
   -1.5556    0.6003   -2.0067 C   0  0  0  0  0  0  0  0  0  0  0  0
   -0.8364    0.0713   -0.8075 C   0  0  2  0  0  0  0  0  0  0  0  0
   -1.6035    0.4220    0.4801 C   0  0  1  0  0  0  0  0  0  0  0  0
   -2.9941   -0.1064    0.4392 C   0  0  1  0  0  0  0  0  0  0  0  0
   -0.8530   -0.1719    1.6228 C   0  0  0  0  0  0  0  0  0  0  0  0
    0.5933    0.1684    1.7108 C   0  0  0  0  0  0  0  0  0  0  0  0
    1.3112   -0.1678    0.3929 C   0  0  1  0  0  0  0  0  0  0  0  0
    0.5045    0.6169   -0.6261 C   0  0  1  0  0  0  0  0  0  0  0  0
    1.4297    0.7109   -1.7603 C   0  0  0  0  0  0  0  0  0  0  0  0
    2.6457    1.2732   -0.9929 C   0  0  0  0  0  0  0  0  0  0  0  0
    2.6366    0.5108    0.3094 C   0  0  0  0  0  0  0  0  0  0  0  0
    1.3223   -1.6259    0.1442 C   0  0  0  0  0  0  0  0  0  0  0  0
   -3.0612   -1.5852    0.6542 C   0  0  0  0  0  0  0  0  0  0  0  0
    3.8541   -0.3159    0.5344 C   0  0  0  0  0  0  0  0  0  0  0  0
    4.2582   -1.3116   -0.4608 C   0  0  0  0  0  0  0  0  0  0  0  0
    5.4421   -1.0528   -1.2221 N   0  0  0  0  0  0  0  0  0  0  0  0
    6.5279   -0.4440   -0.6087 C   0  0  0  0  0  0  0  0  0  0  0  0
    6.0384    0.8658    0.0159 C   0  0  0  0  0  0  0  0  0  0  0  0
    5.0250    0.4864    1.0352 C   0  0  0  0  0  0  0  0  0  0  0  0
   -3.0791    0.6617    1.8606 C   0  0  0  0  0  0  0  0  0  0  0  0
   -4.1150    1.7073    1.5238 C   0  0  0  0  0  0  0  0  0  0  0  0
   -5.3426    1.1616    0.8826 C   0  0  2  0  0  0  0  0  0  0  0  0
   -6.3194    0.7671    1.7888 O   0  0  0  0  0  0  0  0  0  0  0  0
   -5.0017    0.0739   -0.1135 C   0  0  0  0  0  0  0  0  0  0  0  0
   -3.5514    0.2676   -0.4836 C   0  0  0  0  0  0  0  0  0  0  0  0
   -3.1930   -0.3942   -1.7878 C   0  0  0  0  0  0  0  0  0  0  0  0
   -1.7739    0.0845   -2.1364 C   0  0  0  0  0  0  0  0  0  0  0  0
   -0.8888   -0.4514   -1.0520 C   0  0  2  0  0  0  0  0  0  0  0  0
   -1.2569    0.2239    0.2669 C   0  0  1  0  0  0  0  0  0  0  0  0
   -2.6603   -0.1593    0.6666 C   0  0  1  0  0  0  0  0  0  0  0  0
   -0.2400    0.0846    1.3231 C   0  0  0  0  0  0  0  0  0  0  0  0
    0.8694   -0.8806    1.1045 C   0  0  0  0  0  0  0  0  0  0  0  0
    1.2875   -1.1485   -0.2832 C   0  0  1  0  0  0  0  0  0  0  0  0
    0.5522   -0.1762   -1.2026 C   0  0  1  0  0  0  0  0  0  0  0  0
    1.1940   -0.3901   -2.5003 C   0  0  0  0  0  0  0  0  0  0  0  0
    2.6544   -0.3604   -2.0796 C   0  0  0  0  0  0  0  0  0  0  0  0
    2.6779   -0.9772   -0.6787 C   0  0  1  0  0  0  0  0  0  0  0  0
    0.8360   -2.5731   -0.6509 C   0  0  0  0  0  0  0  0  0  0  0  0
   -2.8221   -1.6068    0.9855 C   0  0  0  0  0  0  0  0  0  0  0  0
    3.6305   -0.2476    0.1945 C   0  0  1  0  0  0  0  0  0  0  0  0
    4.9908   -0.2965   -0.5403 C   0  0  0  0  0  0  0  0  0  0  0  0
    5.9806    0.1562    0.4461 N   0  0  0  0  0  0  0  0  0  0  0  0
    5.7701    1.5619    0.7101 C   0  0  0  0  0  0  0  0  0  0  0  0
    4.4186    1.6818    1.4277 C   0  0  0  0  0  0  0  0  0  0  0  0
    3.3867    1.2194    0.3795 C   0  0  0  0  0  0  0  0  0  0  0  0
   -3.6765    0.7496    1.4942 C   0  0  0  0  0  0  0  0  0  0  0  0
   -5.1700    0.5427    1.4696 C   0  0  0  0  0  0  0  0  0  0  0  0
   -5.7318    0.5412    0.0746 C   0  0  2  0  0  0  0  0  0  0  0  0
   -7.0686    0.2005    0.1524 O   0  0  0  0  0  0  0  0  0  0  0  0
   -5.0141   -0.4405   -0.8029 C   0  0  0  0  0  0  0  0  0  0  0  0
   -3.5245   -0.2813   -0.7837 C   0  0  1  0  0  0  0  0  0  0  0  0
   -3.1522    0.8956   -1.6181 C   0  0  0  0  0  0  0  0  0  0  0  0
   -1.7605    1.3929   -1.4068 C   0  0  0  0  0  0  0  0  0  0  0  0
   -0.9487    0.2579   -0.8186 C   0  0  2  0  0  0  0  0  0  0  0  0
   -1.5019    0.0309    0.5855 C   0  0  1  0  0  0  0  0  0  0  0  0
   -2.9522   -0.2506    0.6104 C   0  0  1  0  0  0  0  0  0  0  0  0
   -0.6661   -1.0088    1.2940 C   0  0  0  0  0  0  0  0  0  0  0  0
    0.7735   -0.6235    1.3471 C   0  0  0  0  0  0  0  0  0  0  0  0
    1.3663   -0.3239   -0.0097 C   0  0  1  0  0  0  0  0  0  0  0  0
    0.4288    0.7414   -0.6179 C   0  0  1  0  0  0  0  0  0  0  0  0
    1.1898    1.1804   -1.7978 C   0  0  0  0  0  0  0  0  0  0  0  0
    2.5869    1.3273   -1.2164 C   0  0  0  0  0  0  0  0  0  0  0  0
    2.5989    0.4890    0.0336 C   0  0  0  0  0  0  0  0  0  0  0  0
    1.3432   -1.5455   -0.8299 C   0  0  0  0  0  0  0  0  0  0  0  0
   -3.2446   -1.6279    1.2210 C   0  0  0  0  0  0  0  0  0  0  0  0
    3.8802   -0.1796    0.3709 C   0  0  0  0  0  0  0  0  0  0  0  0
    4.3623   -1.2491   -0.5263 C   0  0  0  0  0  0  0  0  0  0  0  0
    5.7703   -1.1712   -0.8654 N   0  0  0  0  0  0  0  0  0  0  0  0
    6.5734   -0.9436    0.3237 C   0  0  0  0  0  0  0  0  0  0  0  0
    6.3180    0.5046    0.6769 C   0  0  0  0  0  0  0  0  0  0  0  0
    4.8992    0.8565    0.7746 C   0  0  0  0  0  0  0  0  0  0  0  0
   -3.3810    0.2128    2.5763 H   0  0  0  0  0  0  0  0  0  0  0  0
   -3.7181    1.6511    1.4614 H   0  0  0  0  0  0  0  0  0  0  0  0
   -5.6927    0.5798    2.4566 H   0  0  0  0  0  0  0  0  0  0  0  0
   -5.3731   -0.9351    1.5809 H   0  0  0  0  0  0  0  0  0  0  0  0
   -5.4857    1.7859    0.2309 H   0  0  0  0  0  0  0  0  0  0  0  0
   -7.5738    1.5919    0.1658 H   0  0  0  0  0  0  0  0  0  0  0  0
   -5.3588   -1.0574   -0.9025 H   0  0  0  0  0  0  0  0  0  0  0  0
   -5.5443    0.4588   -1.8001 H   0  0  0  0  0  0  0  0  0  0  0  0
   -3.6123    1.4731   -0.8221 H   0  0  0  0  0  0  0  0  0  0  0  0
   -3.4369    0.0099   -2.9725 H   0  0  0  0  0  0  0  0  0  0  0  0
   -2.6554   -1.2031   -1.8638 H   0  0  0  0  0  0  0  0  0  0  0  0
   -1.0238    0.2483   -2.9062 H   0  0  0  0  0  0  0  0  0  0  0  0
   -1.7091    1.6966   -1.9919 H   0  0  0  0  0  0  0  0  0  0  0  0
   -0.8968   -1.0434   -0.8685 H   0  0  0  0  0  0  0  0  0  0  0  0
   -1.6280    1.5361    0.6114 H   0  0  0  0  0  0  0  0  0  0  0  0
   -1.0288   -1.2730    1.6962 H   0  0  0  0  0  0  0  0  0  0  0  0
   -1.3416    0.2300    2.5596 H   0  0  0  0  0  0  0  0  0  0  0  0
    1.0569   -0.4860    2.4677 H   0  0  0  0  0  0  0  0  0  0  0  0
    0.7583    1.2185    1.9502 H   0  0  0  0  0  0  0  0  0  0  0  0
    0.4061    1.6540   -0.1833 H   0  0  0  0  0  0  0  0  0  0  0  0
    1.1530    1.4503   -2.5392 H   0  0  0  0  0  0  0  0  0  0  0  0
    1.7560   -0.2510   -2.1761 H   0  0  0  0  0  0  0  0  0  0  0  0
    2.4009    2.3429   -0.8306 H   0  0  0  0  0  0  0  0  0  0  0  0
    3.5478    1.2100   -1.5766 H   0  0  0  0  0  0  0  0  0  0  0  0
    2.6508    1.2878    1.1332 H   0  0  0  0  0  0  0  0  0  0  0  0
    2.1809   -2.1275    0.6300 H   0  0  0  0  0  0  0  0  0  0  0  0
    0.4384   -2.1543    0.6056 H   0  0  0  0  0  0  0  0  0  0  0  0
    1.1998   -1.8723   -0.9392 H   0  0  0  0  0  0  0  0  0  0  0  0
   -2.2329   -2.1521    0.2014 H   0  0  0  0  0  0  0  0  0  0  0  0
   -3.9995   -2.0356    0.2617 H   0  0  0  0  0  0  0  0  0  0  0  0
   -3.0695   -1.8320    1.7557 H   0  0  0  0  0  0  0  0  0  0  0  0
    3.5658   -0.9237    1.4815 H   0  0  0  0  0  0  0  0  0  0  0  0
    3.4841   -1.5981   -1.2247 H   0  0  0  0  0  0  0  0  0  0  0  0
    4.4853   -2.2844    0.0568 H   0  0  0  0  0  0  0  0  0  0  0  0
    5.4991   -1.4304   -2.1479 H   0  0  0  0  0  0  0  0  0  0  0  0
    6.9339   -1.0603    0.2355 H   0  0  0  0  0  0  0  0  0  0  0  0
    7.3345   -0.2792   -1.3194 H   0  0  0  0  0  0  0  0  0  0  0  0
    6.9288    1.2402    0.5834 H   0  0  0  0  0  0  0  0  0  0  0  0
    5.7311    1.5848   -0.7369 H   0  0  0  0  0  0  0  0  0  0  0  0
    4.6957    1.4245    1.5393 H   0  0  0  0  0  0  0  0  0  0  0  0
    5.5705   -0.1649    1.7859 H   0  0  0  0  0  0  0  0  0  0  0  0
   -3.3810    0.2128    2.5763 H   0  0  0  0  0  0  0  0  0  0  0  0
   -3.7181    1.6511    1.4614 H   0  0  0  0  0  0  0  0  0  0  0  0
   -5.6927    0.5798    2.4566 H   0  0  0  0  0  0  0  0  0  0  0  0
   -5.3731   -0.9351    1.5809 H   0  0  0  0  0  0  0  0  0  0  0  0
   -5.4857    1.7859    0.2309 H   0  0  0  0  0  0  0  0  0  0  0  0
   -7.5738    1.5919    0.1658 H   0  0  0  0  0  0  0  0  0  0  0  0
   -5.3588   -1.0574   -0.9025 H   0  0  0  0  0  0  0  0  0  0  0  0
   -5.5443    0.4588   -1.8001 H   0  0  0  0  0  0  0  0  0  0  0  0
   -3.6123    1.4731   -0.8221 H   0  0  0  0  0  0  0  0  0  0  0  0
   -3.4369    0.0099   -2.9725 H   0  0  0  0  0  0  0  0  0  0  0  0
   -2.6554   -1.2031   -1.8638 H   0  0  0  0  0  0  0  0  0  0  0  0
   -1.0238    0.2483   -2.9062 H   0  0  0  0  0  0  0  0  0  0  0  0
   -1.7091    1.6966   -1.9919 H   0  0  0  0  0  0  0  0  0  0  0  0
   -0.8968   -1.0434   -0.8685 H   0  0  0  0  0  0  0  0  0  0  0  0
   -1.6280    1.5361    0.6114 H   0  0  0  0  0  0  0  0  0  0  0  0
   -1.0288   -1.2730    1.6962 H   0  0  0  0  0  0  0  0  0  0  0  0
   -1.3416    0.2300    2.5596 H   0  0  0  0  0  0  0  0  0  0  0  0
    1.0569   -0.4860    2.4677 H   0  0  0  0  0  0  0  0  0  0  0  0
    0.7583    1.2185    1.9502 H   0  0  0  0  0  0  0  0  0  0  0  0
    0.4061    1.6540   -0.1833 H   0  0  0  0  0  0  0  0  0  0  0  0
    1.1530    1.4503   -2.5392 H   0  0  0  0  0  0  0  0  0  0  0  0
    1.7560   -0.2510   -2.1761 H   0  0  0  0  0  0  0  0  0  0  0  0
    2.4009    2.3429   -0.8306 H   0  0  0  0  0  0  0  0  0  0  0  0
    3.5478    1.2100   -1.5766 H   0  0  0  0  0  0  0  0  0  0  0  0
    2.6508    1.2878    1.1332 H   0  0  0  0  0  0  0  0  0  0  0  0
    2.1809   -2.1275    0.6300 H   0  0  0  0  0  0  0  0  0  0  0  0
    0.4384   -2.1543    0.6056 H   0  0  0  0  0  0  0  0  0  0  0  0
    1.1998   -1.8723   -0.9392 H   0  0  0  0  0  0  0  0  0  0  0  0
   -2.2329   -2.1521    0.2014 H   0  0  0  0  0  0  0  0  0  0  0  0
   -3.9995   -2.0356    0.2617 H   0  0  0  0  0  0  0  0  0  0  0  0
   -3.0695   -1.8320    1.7557 H   0  0  0  0  0  0  0  0  0  0  0  0
    3.5658   -0.9237    1.4815 H   0  0  0  0  0  0  0  0  0  0  0  0
    3.4841   -1.5981   -1.2247 H   0  0  0  0  0  0  0  0  0  0  0  0
    4.4853   -2.2844    0.0568 H   0  0  0  0  0  0  0  0  0  0  0  0
    5.4991   -1.4304   -2.1479 H   0  0  0  0  0  0  0  0  0  0  0  0
    6.9339   -1.0603    0.2355 H   0  0  0  0  0  0  0  0  0  0  0  0
    7.3345   -0.2792   -1.3194 H   0  0  0  0  0  0  0  0  0  0  0  0
    6.9288    1.2402    0.5834 H   0  0  0  0  0  0  0  0  0  0  0  0
    5.7311    1.5848   -0.7369 H   0  0  0  0  0  0  0  0  0  0  0  0
    4.6957    1.4245    1.5393 H   0  0  0  0  0  0  0  0  0  0  0  0
    5.5705   -0.1649    1.7859 H   0  0  0  0  0  0  0  0  0  0  0  0
   -3.4997    0.0230    2.6644 H   0  0  0  0  0  0  0  0  0  0  0  0
   -2.2230    1.2196    2.3203 H   0  0  0  0  0  0  0  0  0  0  0  0
   -3.6718    2.5832    0.9809 H   0  0  0  0  0  0  0  0  0  0  0  0
   -4.4316    2.1418    2.5180 H   0  0  0  0  0  0  0  0  0  0  0  0
   -5.7958    1.9962    0.2717 H   0  0  0  0  0  0  0  0  0  0  0  0
   -6.8080    1.6035    2.0667 H   0  0  0  0  0  0  0  0  0  0  0  0
   -5.1293   -0.9158    0.3909 H   0  0  0  0  0  0  0  0  0  0  0  0
   -5.6358    0.1271   -1.0146 H   0  0  0  0  0  0  0  0  0  0  0  0
   -3.3875    1.3597   -0.6246 H   0  0  0  0  0  0  0  0  0  0  0  0
   -3.9206   -0.0831   -2.5348 H   0  0  0  0  0  0  0  0  0  0  0  0
   -3.1575   -1.4921   -1.7143 H   0  0  0  0  0  0  0  0  0  0  0  0
   -1.7618    1.1918   -2.0799 H   0  0  0  0  0  0  0  0  0  0  0  0
   -1.4449   -0.3000   -3.1120 H   0  0  0  0  0  0  0  0  0  0  0  0
   -1.1613   -1.5237   -0.9111 H   0  0  0  0  0  0  0  0  0  0  0  0
   -1.3282    1.3216   -0.0061 H   0  0  0  0  0  0  0  0  0  0  0  0
   -0.7618   -0.1973    2.2870 H   0  0  0  0  0  0  0  0  0  0  0  0
    0.2186    1.0831    1.5927 H   0  0  0  0  0  0  0  0  0  0  0  0
    0.5603   -1.8477    1.6123 H   0  0  0  0  0  0  0  0  0  0  0  0
    1.7201   -0.5522    1.7750 H   0  0  0  0  0  0  0  0  0  0  0  0
    0.7875    0.8550   -0.8537 H   0  0  0  0  0  0  0  0  0  0  0  0
    0.9889    0.4162   -3.2446 H   0  0  0  0  0  0  0  0  0  0  0  0
    1.0221   -1.3285   -3.0157 H   0  0  0  0  0  0  0  0  0  0  0  0
    2.9470    0.7039   -2.0697 H   0  0  0  0  0  0  0  0  0  0  0  0
    3.3054   -0.8818   -2.7912 H   0  0  0  0  0  0  0  0  0  0  0  0
    3.1552   -1.9920   -0.8456 H   0  0  0  0  0  0  0  0  0  0  0  0
    0.1534   -2.9855    0.1161 H   0  0  0  0  0  0  0  0  0  0  0  0
    0.3730   -2.6533   -1.6234 H   0  0  0  0  0  0  0  0  0  0  0  0
    1.7383   -3.2260   -0.6504 H   0  0  0  0  0  0  0  0  0  0  0  0
   -1.8893   -2.1648    1.0704 H   0  0  0  0  0  0  0  0  0  0  0  0
   -3.4568   -2.1178    0.2037 H   0  0  0  0  0  0  0  0  0  0  0  0
   -3.3526   -1.7395    1.9737 H   0  0  0  0  0  0  0  0  0  0  0  0
    3.8141   -0.7620    1.1327 H   0  0  0  0  0  0  0  0  0  0  0  0
    4.9596    0.3427   -1.4236 H   0  0  0  0  0  0  0  0  0  0  0  0
    5.2104   -1.3556   -0.7574 H   0  0  0  0  0  0  0  0  0  0  0  0
    6.9489   -0.0384    0.1078 H   0  0  0  0  0  0  0  0  0  0  0  0
    6.5838    2.0111    1.2754 H   0  0  0  0  0  0  0  0  0  0  0  0
    5.6049    2.0439   -0.2902 H   0  0  0  0  0  0  0  0  0  0  0  0
    4.3831    1.0590    2.3198 H   0  0  0  0  0  0  0  0  0  0  0  0
    4.2442    2.7586    1.6007 H   0  0  0  0  0  0  0  0  0  0  0  0
    3.6753    1.8204   -0.5339 H   0  0  0  0  0  0  0  0  0  0  0  0
    2.4187    1.5062    0.7759 H   0  0  0  0  0  0  0  0  0  0  0  0
   -3.4072    1.7931    1.2539 H   0  0  0  0  0  0  0  0  0  0  0  0
   -3.3377    0.5726    2.5383 H   0  0  0  0  0  0  0  0  0  0  0  0
   -5.6135    1.4403    1.9853 H   0  0  0  0  0  0  0  0  0  0  0  0
   -5.4844   -0.3249    2.0654 H   0  0  0  0  0  0  0  0  0  0  0  0
   -5.6733    1.5766   -0.3198 H   0  0  0  0  0  0  0  0  0  0  0  0
   -7.6609    0.7946   -0.3927 H   0  0  0  0  0  0  0  0  0  0  0  0
   -5.3504   -1.4693   -0.5915 H   0  0  0  0  0  0  0  0  0  0  0  0
   -5.3446   -0.2226   -1.8604 H   0  0  0  0  0  0  0  0  0  0  0  0
   -3.0980   -1.2017   -1.2762 H   0  0  0  0  0  0  0  0  0  0  0  0
   -3.2332    0.5820   -2.7004 H   0  0  0  0  0  0  0  0  0  0  0  0
   -3.8583    1.7497   -1.5230 H   0  0  0  0  0  0  0  0  0  0  0  0
   -1.6906    2.2616   -0.7202 H   0  0  0  0  0  0  0  0  0  0  0  0
   -1.2475    1.6942   -2.3428 H   0  0  0  0  0  0  0  0  0  0  0  0
   -1.0824   -0.6007   -1.4751 H   0  0  0  0  0  0  0  0  0  0  0  0
   -1.2985    1.0013    1.1288 H   0  0  0  0  0  0  0  0  0  0  0  0
   -0.8285   -2.0315    0.9270 H   0  0  0  0  0  0  0  0  0  0  0  0
   -1.0241   -1.0274    2.3668 H   0  0  0  0  0  0  0  0  0  0  0  0
    1.3240   -1.4728    1.8420 H   0  0  0  0  0  0  0  0  0  0  0  0
    0.9383    0.2511    1.9906 H   0  0  0  0  0  0  0  0  0  0  0  0
    0.4152    1.5592    0.1306 H   0  0  0  0  0  0  0  0  0  0  0  0
    0.8405    2.1542   -2.2340 H   0  0  0  0  0  0  0  0  0  0  0  0
    1.2031    0.4691   -2.6373 H   0  0  0  0  0  0  0  0  0  0  0  0
    2.7214    2.4122   -1.0193 H   0  0  0  0  0  0  0  0  0  0  0  0
    3.3656    1.0483   -1.9436 H   0  0  0  0  0  0  0  0  0  0  0  0
    2.4189    1.2392    0.8710 H   0  0  0  0  0  0  0  0  0  0  0  0
    1.9468   -2.3540   -0.4361 H   0  0  0  0  0  0  0  0  0  0  0  0
    0.2788   -1.9390   -0.7780 H   0  0  0  0  0  0  0  0  0  0  0  0
    1.5065   -1.4135   -1.9156 H   0  0  0  0  0  0  0  0  0  0  0  0
   -2.8054   -2.4410    0.6354 H   0  0  0  0  0  0  0  0  0  0  0  0
   -4.3538   -1.7835    1.1926 H   0  0  0  0  0  0  0  0  0  0  0  0
   -2.9696   -1.6312    2.2932 H   0  0  0  0  0  0  0  0  0  0  0  0
    3.6527   -0.6927    1.3659 H   0  0  0  0  0  0  0  0  0  0  0  0
    3.8427   -1.3475   -1.5005 H   0  0  0  0  0  0  0  0  0  0  0  0
    4.2836   -2.2858   -0.0723 H   0  0  0  0  0  0  0  0  0  0  0  0
    5.9660   -0.4936   -1.6279 H   0  0  0  0  0  0  0  0  0  0  0  0
    6.2100   -1.6424    1.0989 H   0  0  0  0  0  0  0  0  0  0  0  0
    7.6343   -1.0900    0.0548 H   0  0  0  0  0  0  0  0  0  0  0  0
    6.8420    0.6710    1.6497 H   0  0  0  0  0  0  0  0  0  0  0  0
    6.8839    1.1156   -0.0623 H   0  0  0  0  0  0  0  0  0  0  0  0
    4.7159    1.7546    0.1096 H   0  0  0  0  0  0  0  0  0  0  0  0
    4.6922    1.2594    1.8051 H   0  0  0  0  0  0  0  0  0  0  0  0
  1  2  1  0
  2  3  1  0
  3  4  1  0
  3  5  1  0
  5  6  1  0
  6  7  1  0
  7  8  1  0
  8  9  1  0
  9 10  1  0
  1 11  1  0
  6 11  1  0
 10 11  1  0
 10 12  1  0
 12 13  1  0
 13 14  1  0
  9 15  1  0
 14 15  1  0
 15 16  1  0
 16 17  1  0
 14 18  1  0
 17 18  1  0
 14 19  1  6
 11 20  1  1
 18 21  1  0
 21 22  1  0
 22 23  1  0
 24 23  1  0
 24 25  1  0
 21 26  1  0
 25 26  1  0
 27 28  1  0
 28 29  1  0
 29 30  1  0
 29 31  1  0
 31 32  1  0
 32 33  1  0
 33 34  1  0
 34 35  1  0
 35 36  1  0
 27 37  1  0
 32 37  1  0
 36 37  1  0
 36 38  1  0
 38 39  1  0
 39 40  1  0
 35 41  1  0
 40 41  1  0
 41 42  1  0
 42 43  1  0
 40 44  1  0
 43 44  1  0
 40 45  1  6
 37 46  1  1
 44 47  1  0
 47 48  1  0
 48 49  1  0
 50 49  1  0
 50 51  1  0
 47 52  1  0
 51 52  1  0
 53 54  1  0
 54 55  1  0
 55 56  1  0
 55 57  1  0
 57 58  1  0
 58 59  1  0
 59 60  1  0
 60 61  1  0
 61 62  1  0
 53 63  1  0
 58 63  1  0
 62 63  1  0
 62 64  1  0
 64 65  1  0
 65 66  1  0
 61 67  1  0
 66 67  1  0
 67 68  1  0
 68 69  1  0
 66 70  1  0
 69 70  1  0
 66 71  1  6
 63 72  1  1
 70 73  1  0
 73 74  1  0
 74 75  1  0
 76 75  1  0
 76 77  1  0
 73 78  1  0
 77 78  1  0
 79 80  1  0
 80 81  1  0
 81 82  1  0
 81 83  1  0
 83 84  1  0
 84 85  1  0
 85 86  1  0
 86 87  1  0
 87 88  1  0
 79 89  1  0
 84 89  1  0
 88 89  1  0
 88 90  1  0
 90 91  1  0
 91 92  1  0
 87 93  1  0
 92 93  1  0
 93 94  1  0
 94 95  1  0
 92 96  1  0
 95 96  1  0
 92 97  1  6
 89 98  1  1
 96 99  1  0
 99100  1  0
100101  1  0
102101  1  0
102103  1  0
 99104  1  0
103104  1  0
  1105  1  0
  1106  1  0
  2107  1  0
  2108  1  0
  3109  1  6
  4110  1  0
  5111  1  0
  5112  1  0
  6113  1  0
  7114  1  0
  7115  1  0
  8116  1  0
  8117  1  0
  9118  1  6
 10119  1  1
 12120  1  0
 12121  1  0
 13122  1  0
 13123  1  0
 15124  1  1
 16125  1  0
 16126  1  0
 17127  1  0
 17128  1  0
 18129  1  0
 19130  1  0
 19131  1  0
 19132  1  0
 20133  1  0
 20134  1  0
 20135  1  0
 21136  1  0
 22137  1  0
 22138  1  0
 23139  1  0
 24140  1  0
 24141  1  0
 25142  1  0
 25143  1  0
 26144  1  0
 26145  1  0
 27146  1  0
 27147  1  0
 28148  1  0
 28149  1  0
 29150  1  6
 30151  1  0
 31152  1  0
 31153  1  0
 32154  1  0
 33155  1  0
 33156  1  0
 34157  1  0
 34158  1  0
 35159  1  6
 36160  1  1
 38161  1  0
 38162  1  0
 39163  1  0
 39164  1  0
 41165  1  1
 42166  1  0
 42167  1  0
 43168  1  0
 43169  1  0
 44170  1  0
 45171  1  0
 45172  1  0
 45173  1  0
 46174  1  0
 46175  1  0
 46176  1  0
 47177  1  0
 48178  1  0
 48179  1  0
 49180  1  0
 50181  1  0
 50182  1  0
 51183  1  0
 51184  1  0
 52185  1  0
 52186  1  0
 53187  1  0
 53188  1  0
 54189  1  0
 54190  1  0
 55191  1  6
 56192  1  0
 57193  1  0
 57194  1  0
 58195  1  0
 59196  1  0
 59197  1  0
 60198  1  0
 60199  1  0
 61200  1  1
 62201  1  6
 64202  1  0
 64203  1  0
 65204  1  0
 65205  1  0
 67206  1  1
 68207  1  0
 68208  1  0
 69209  1  0
 69210  1  0
 70211  1  6
 71212  1  0
 71213  1  0
 71214  1  0
 72215  1  0
 72216  1  0
 72217  1  0
 73218  1  1
 74219  1  0
 74220  1  0
 75221  1  0
 76222  1  0
 76223  1  0
 77224  1  0
 77225  1  0
 78226  1  0
 78227  1  0
 79228  1  0
 79229  1  0
 80230  1  0
 80231  1  0
 81232  1  6
 82233  1  0
 83234  1  0
 83235  1  0
 84236  1  6
 85237  1  0
 85238  1  0
 86239  1  0
 86240  1  0
 87241  1  6
 88242  1  1
 90243  1  0
 90244  1  0
 91245  1  0
 91246  1  0
 93247  1  1
 94248  1  0
 94249  1  0
 95250  1  0
 95251  1  0
 96252  1  0
 97253  1  0
 97254  1  0
 97255  1  0
 98256  1  0
 98257  1  0
 98258  1  0
 99259  1  0
100260  1  0
100261  1  0
101262  1  0
102263  1  0
102264  1  0
103265  1  0
103266  1  0
104267  1  0
104268  1  0
M  END
>  <PDBID>  (1) 
3RUK

>  <PDB ID>  (1) 
3RUK

>  <Generic Name>  (1) 
Abiraterone

>  <Brand Name>  (1) 
Zytiga

>  <DrugBank ID>  (1) 
DB05812

>  <ATC Codes>  (1) 
L02BX03

>  <Ligand ID>  (1) 
AER

>  <Target Name>  (1) 
Steroid 17-alpha-hydroxylase/17,20 lyase

>  <UniProt ID>  (1) 
P05093

>  <PDB ID.1>  (1) 
3RUK

>  <Seq. Identity>  (1) 
97%

$$$$
