PDB_DB00509_00
     RDKit          3D

 49 50  0  0  0  0  0  0  0  0999 V2000
   -1.5002   -0.1056   -0.2590 C   0  0  2  0  0  0  0  0  0  0  0  0
   -0.6606   -0.9280   -1.1712 C   0  0  0  0  0  0  0  0  0  0  0  0
   -0.2648   -2.1968   -0.4491 C   0  0  2  0  0  0  0  0  0  0  0  0
    0.5956   -1.7091    0.7005 C   0  0  0  0  0  0  0  0  0  0  0  0
   -0.3487   -1.1389    1.7578 C   0  0  0  0  0  0  0  0  0  0  0  0
   -1.5908   -0.5684    1.1599 C   0  0  0  0  0  0  0  0  0  0  0  0
   -2.8336    0.1257   -0.9024 C   0  0  0  0  0  0  0  0  0  0  0  0
   -3.7983    0.9393   -0.1137 C   0  0  1  0  0  0  0  0  0  0  0  0
   -5.0937    1.0717   -0.9307 C   0  0  0  0  0  0  0  0  0  0  0  0
    2.7657   -0.8989    0.3096 C   0  0  0  0  0  0  0  0  0  0  0  0
    3.1843    0.1432    1.3730 C   0  0  0  0  0  0  0  0  0  0  0  0
    4.4197    0.8925    0.9643 C   0  0  0  0  0  0  0  0  0  0  0  0
    4.2884    1.5867   -0.3654 C   0  0  0  0  0  0  0  0  0  0  0  0
    3.5664    0.7447   -1.3978 C   0  0  0  0  0  0  0  0  0  0  0  0
    3.6066   -0.6955   -0.8922 C   0  0  0  0  0  0  0  0  0  0  0  0
   -4.1838    0.1686    1.0801 N   0  0  0  0  0  0  0  0  0  0  0  0
    1.4267   -0.7481    0.2032 O   0  0  0  0  0  0  0  0  0  0  0  0
    5.5716    1.9308   -0.7881 O   0  0  0  0  0  0  0  0  0  0  0  0
   -6.0689    1.7275   -0.2123 O   0  0  0  0  0  0  0  0  0  0  0  0
   -4.8494    1.8161   -2.0927 O   0  0  0  0  0  0  0  0  0  0  0  0
    0.9220   -3.3893   -1.7328 I   0  0  0  0  0  0  0  0  0  0  0  0
    4.6737    2.4523    2.4315 I   0  0  0  0  0  0  0  0  0  0  0  0
   -0.8020   -2.6885    3.1400 I   0  0  0  0  0  0  0  0  0  0  0  0
    4.7312    0.8009   -3.1857 I   0  0  0  0  0  0  0  0  0  0  0  0
   -1.0273    0.9229   -0.2059 H   0  0  0  0  0  0  0  0  0  0  0  0
    0.2961   -0.3898   -1.3642 H   0  0  0  0  0  0  0  0  0  0  0  0
   -1.2106   -1.1382   -2.1096 H   0  0  0  0  0  0  0  0  0  0  0  0
   -1.1506   -2.7593   -0.0835 H   0  0  0  0  0  0  0  0  0  0  0  0
    1.0726   -2.5960    1.1433 H   0  0  0  0  0  0  0  0  0  0  0  0
    0.2192   -0.3631    2.2983 H   0  0  0  0  0  0  0  0  0  0  0  0
   -1.9333    0.2667    1.8051 H   0  0  0  0  0  0  0  0  0  0  0  0
   -2.3736   -1.3527    1.2151 H   0  0  0  0  0  0  0  0  0  0  0  0
   -3.3384   -0.8053   -1.2242 H   0  0  0  0  0  0  0  0  0  0  0  0
   -2.6318    0.6908   -1.8595 H   0  0  0  0  0  0  0  0  0  0  0  0
   -3.4596    1.9448    0.1326 H   0  0  0  0  0  0  0  0  0  0  0  0
   -5.4554    0.0752   -1.2563 H   0  0  0  0  0  0  0  0  0  0  0  0
    2.9969   -1.8882    0.7834 H   0  0  0  0  0  0  0  0  0  0  0  0
    3.3587   -0.3402    2.3295 H   0  0  0  0  0  0  0  0  0  0  0  0
    2.3919    0.9028    1.5224 H   0  0  0  0  0  0  0  0  0  0  0  0
    5.3177    0.2668    1.0465 H   0  0  0  0  0  0  0  0  0  0  0  0
    3.7275    2.5435   -0.2747 H   0  0  0  0  0  0  0  0  0  0  0  0
    2.5483    1.0865   -1.6045 H   0  0  0  0  0  0  0  0  0  0  0  0
    4.6807   -0.8216   -0.5488 H   0  0  0  0  0  0  0  0  0  0  0  0
    3.4863   -1.4228   -1.6824 H   0  0  0  0  0  0  0  0  0  0  0  0
   -4.6472   -0.7114    0.7189 H   0  0  0  0  0  0  0  0  0  0  0  0
   -4.8711    0.7652    1.6011 H   0  0  0  0  0  0  0  0  0  0  0  0
    6.2503    1.7736   -0.0849 H   0  0  0  0  0  0  0  0  0  0  0  0
   -6.9442    1.2656   -0.2238 H   0  0  0  0  0  0  0  0  0  0  0  0
   -5.0602    2.7515   -1.9171 H   0  0  0  0  0  0  0  0  0  0  0  0
  1  2  1  0
  2  3  1  0
  3  4  1  0
  4  5  1  0
  1  6  1  0
  5  6  1  0
  1  7  1  0
  7  8  1  0
  8  9  1  0
 10 11  1  0
 11 12  1  0
 12 13  1  0
 13 14  1  0
 10 15  1  0
 14 15  1  0
  8 16  1  0
  4 17  1  0
 10 17  1  0
 13 18  1  0
  9 19  1  0
  9 20  1  0
  3 21  1  0
 12 22  1  0
  5 23  1  0
 14 24  1  0
  1 25  1  1
  2 26  1  0
  2 27  1  0
  3 28  1  1
  4 29  1  0
  5 30  1  0
  6 31  1  0
  6 32  1  0
  7 33  1  0
  7 34  1  0
  8 35  1  1
  9 36  1  0
 10 37  1  0
 11 38  1  0
 11 39  1  0
 12 40  1  0
 13 41  1  0
 14 42  1  0
 15 43  1  0
 15 44  1  0
 16 45  1  0
 16 46  1  0
 18 47  1  0
 19 48  1  0
 20 49  1  0
M  END
>  <PDBID>  (1) 
1Y0X

>  <PDB ID>  (1) 
1Y0X

>  <Generic Name>  (1) 
Dextrothyroxine

>  <Brand Name>  (1) 
Choloxin - Tab 4mg#Choloxin Tab 2mg#Choloxin Tablet 4mg#Choloxin#Dynothel#Eulipos#Lisolipin

>  <DrugBank ID>  (1) 
DB00509

>  <ATC Codes>  (1) 
C10AX01

>  <Ligand ID>  (1) 
T44

>  <Target Name>  (1) 
Thyroid hormone receptor beta

>  <UniProt ID>  (1) 
P10828

>  <PDB ID.1>  (1) 
1Y0X

>  <Seq. Identity>  (1) 
100%

$$$$
