PDB_DB01601_04
     RDKit          3D

118121  0  0  0  0  0  0  0  0999 V2000
   -6.9105   -4.8670    0.8118 C   0  0  0  0  0  0  0  0  0  0  0  0
   -4.9888   -3.6140    1.7626 C   0  0  0  0  0  0  0  0  0  0  0  0
   -5.5508   -2.4713    1.1797 N   0  0  0  0  0  0  0  0  0  0  0  0
   -6.6254   -2.5900    0.2896 C   0  0  0  0  0  0  0  0  0  0  0  0
   -6.6744   -3.9523   -0.2839 N   0  0  0  0  0  0  0  0  0  0  0  0
    0.7112    3.7370    0.5581 C   0  0  0  0  0  0  0  0  0  0  0  0
    0.2361    4.7838    1.5751 C   0  0  0  0  0  0  0  0  0  0  0  0
    0.0434    6.1401    1.0223 C   0  0  0  0  0  0  0  0  0  0  0  0
    1.2959    6.6363    0.3145 C   0  0  0  0  0  0  0  0  0  0  0  0
    1.4861    5.7103   -0.8520 C   0  0  0  0  0  0  0  0  0  0  0  0
    1.7111    4.3064   -0.3902 C   0  0  0  0  0  0  0  0  0  0  0  0
   -7.8287   -2.5145    1.0402 O   0  0  0  0  0  0  0  0  0  0  0  0
   -4.7811   -1.2548    1.1826 C   0  0  2  0  0  0  0  0  0  0  0  0
   -3.4857   -1.4849    0.3875 C   0  0  0  0  0  0  0  0  0  0  0  0
   -2.6193   -0.4016    0.6000 N   0  0  0  0  0  0  0  0  0  0  0  0
   -1.4080   -0.3639   -0.2184 C   0  0  1  0  0  0  0  0  0  0  0  0
   -4.5572   -0.7532    2.5842 C   0  0  0  0  0  0  0  0  0  0  0  0
   -6.0145   -0.5916    3.1350 C   0  0  0  0  0  0  0  0  0  0  0  0
   -4.0212    0.6607    2.6680 C   0  0  0  0  0  0  0  0  0  0  0  0
   -3.8466   -1.7940   -0.8994 O   0  0  0  0  0  0  0  0  0  0  0  0
   -2.4265    3.2582   -2.9833 C   0  0  0  0  0  0  0  0  0  0  0  0
   -1.7127    3.0208   -4.2976 C   0  0  0  0  0  0  0  0  0  0  0  0
   -1.3149    1.5390   -4.3408 C   0  0  0  0  0  0  0  0  0  0  0  0
   -2.4609    0.7659   -3.7344 C   0  0  0  0  0  0  0  0  0  0  0  0
   -2.4059    0.8947   -2.1967 C   0  0  0  0  0  0  0  0  0  0  0  0
   -1.8938    2.2666   -1.9271 C   0  0  0  0  0  0  0  0  0  0  0  0
   -1.6217   -0.2316   -1.6560 C   0  0  0  0  0  0  0  0  0  0  0  0
   -0.4242    0.4784    0.5134 C   0  0  0  0  0  0  0  0  0  0  0  0
    0.9399    0.5965   -0.1519 C   0  0  1  0  0  0  0  0  0  0  0  0
    1.8309    1.4112    0.7033 C   0  0  1  0  0  0  0  0  0  0  0  0
    3.1630    1.6320    0.3726 N   0  0  0  0  0  0  0  0  0  0  0  0
    4.1992    0.7315    0.4687 C   0  0  0  0  0  0  0  0  0  0  0  0
    4.3180   -0.5394   -0.2569 C   0  0  0  0  0  0  0  0  0  0  0  0
    5.6220   -1.0574    0.1204 O   0  0  0  0  0  0  0  0  0  0  0  0
    5.7328   -2.2657   -0.5535 C   0  0  0  0  0  0  0  0  0  0  0  0
    1.4460   -0.6771   -0.3470 O   0  0  0  0  0  0  0  0  0  0  0  0
    1.2693    2.6162    1.3660 C   0  0  0  0  0  0  0  0  0  0  0  0
    4.5342    0.4577    1.8426 O   0  0  0  0  0  0  0  0  0  0  0  0
    6.9341   -2.1120   -1.4773 C   0  0  0  0  0  0  0  0  0  0  0  0
    8.1603   -1.8880   -0.6532 C   0  0  0  0  0  0  0  0  0  0  0  0
    8.3792   -3.0831    0.2697 C   0  0  0  0  0  0  0  0  0  0  0  0
    7.2297   -3.1102    1.2302 C   0  0  0  0  0  0  0  0  0  0  0  0
    5.9570   -3.3545    0.4585 C   0  0  0  0  0  0  0  0  0  0  0  0
    4.7935   -3.3838    1.4146 C   0  0  0  0  0  0  0  0  0  0  0  0
    7.0913   -3.2805   -2.4062 C   0  0  0  0  0  0  0  0  0  0  0  0
   -6.0905   -4.6198    2.0276 C   0  0  0  0  0  0  0  0  0  0  0  0
   -8.0218   -4.8109    1.0273 H   0  0  0  0  0  0  0  0  0  0  0  0
   -6.7733   -5.9317    0.4736 H   0  0  0  0  0  0  0  0  0  0  0  0
   -4.2139   -4.1269    1.1473 H   0  0  0  0  0  0  0  0  0  0  0  0
   -4.5769   -3.3525    2.7655 H   0  0  0  0  0  0  0  0  0  0  0  0
   -6.7072   -1.8413   -0.5012 H   0  0  0  0  0  0  0  0  0  0  0  0
   -7.5070   -3.9991   -0.9123 H   0  0  0  0  0  0  0  0  0  0  0  0
   -0.2332    3.4548    0.0297 H   0  0  0  0  0  0  0  0  0  0  0  0
   -0.7307    4.4399    2.0286 H   0  0  0  0  0  0  0  0  0  0  0  0
    0.9765    4.8324    2.4039 H   0  0  0  0  0  0  0  0  0  0  0  0
   -0.1359    6.8311    1.8708 H   0  0  0  0  0  0  0  0  0  0  0  0
   -0.8254    6.2313    0.3401 H   0  0  0  0  0  0  0  0  0  0  0  0
    2.1470    6.6034    1.0224 H   0  0  0  0  0  0  0  0  0  0  0  0
    1.1098    7.6737   -0.0068 H   0  0  0  0  0  0  0  0  0  0  0  0
    0.5973    5.7845   -1.5104 H   0  0  0  0  0  0  0  0  0  0  0  0
    2.4224    6.0347   -1.3595 H   0  0  0  0  0  0  0  0  0  0  0  0
    2.7155    4.2713    0.0678 H   0  0  0  0  0  0  0  0  0  0  0  0
    1.7601    3.6249   -1.2954 H   0  0  0  0  0  0  0  0  0  0  0  0
   -8.1216   -1.5926    1.1677 H   0  0  0  0  0  0  0  0  0  0  0  0
   -5.3435   -0.4823    0.6289 H   0  0  0  0  0  0  0  0  0  0  0  0
   -3.0067   -2.4495    0.7828 H   0  0  0  0  0  0  0  0  0  0  0  0
   -2.1958   -0.5744    1.5840 H   0  0  0  0  0  0  0  0  0  0  0  0
   -1.0256   -1.4729   -0.0963 H   0  0  0  0  0  0  0  0  0  0  0  0
   -4.0601   -1.4485    3.2580 H   0  0  0  0  0  0  0  0  0  0  0  0
   -6.5116    0.0922    2.4185 H   0  0  0  0  0  0  0  0  0  0  0  0
   -5.9070   -0.0501    4.0902 H   0  0  0  0  0  0  0  0  0  0  0  0
   -6.4970   -1.5616    3.2412 H   0  0  0  0  0  0  0  0  0  0  0  0
   -3.0675    0.7473    3.2280 H   0  0  0  0  0  0  0  0  0  0  0  0
   -4.7127    1.3346    3.2843 H   0  0  0  0  0  0  0  0  0  0  0  0
   -3.9577    1.0891    1.6728 H   0  0  0  0  0  0  0  0  0  0  0  0
   -4.5355   -1.1928   -1.2294 H   0  0  0  0  0  0  0  0  0  0  0  0
   -3.5193    3.1886   -3.0963 H   0  0  0  0  0  0  0  0  0  0  0  0
   -2.1735    4.2572   -2.6213 H   0  0  0  0  0  0  0  0  0  0  0  0
   -0.8296    3.6706   -4.4228 H   0  0  0  0  0  0  0  0  0  0  0  0
   -2.4686    3.1479   -5.1100 H   0  0  0  0  0  0  0  0  0  0  0  0
   -1.1372    1.2292   -5.4048 H   0  0  0  0  0  0  0  0  0  0  0  0
   -0.3706    1.4323   -3.8061 H   0  0  0  0  0  0  0  0  0  0  0  0
   -3.4270    1.1732   -4.1032 H   0  0  0  0  0  0  0  0  0  0  0  0
   -2.3792   -0.3011   -4.0181 H   0  0  0  0  0  0  0  0  0  0  0  0
   -3.4723    0.8539   -1.8283 H   0  0  0  0  0  0  0  0  0  0  0  0
   -2.2338    2.6697   -0.9449 H   0  0  0  0  0  0  0  0  0  0  0  0
   -0.8079    2.3139   -2.0427 H   0  0  0  0  0  0  0  0  0  0  0  0
   -1.9653   -1.2288   -2.0827 H   0  0  0  0  0  0  0  0  0  0  0  0
   -0.5825   -0.1525   -2.1428 H   0  0  0  0  0  0  0  0  0  0  0  0
   -0.8965    1.4209    0.7707 H   0  0  0  0  0  0  0  0  0  0  0  0
   -0.1997   -0.1051    1.4695 H   0  0  0  0  0  0  0  0  0  0  0  0
    0.8563    1.0687   -1.1363 H   0  0  0  0  0  0  0  0  0  0  0  0
    1.9237    0.6765    1.6621 H   0  0  0  0  0  0  0  0  0  0  0  0
    3.1931    2.0601   -0.6024 H   0  0  0  0  0  0  0  0  0  0  0  0
    5.1631    1.3207    0.1655 H   0  0  0  0  0  0  0  0  0  0  0  0
    4.2379   -0.4724   -1.3461 H   0  0  0  0  0  0  0  0  0  0  0  0
    3.6872   -1.3889    0.0870 H   0  0  0  0  0  0  0  0  0  0  0  0
    4.8295   -2.4736   -1.1436 H   0  0  0  0  0  0  0  0  0  0  0  0
    0.9917   -1.3684    0.1802 H   0  0  0  0  0  0  0  0  0  0  0  0
    2.1188    3.0135    2.0163 H   0  0  0  0  0  0  0  0  0  0  0  0
    0.5129    2.3327    2.1752 H   0  0  0  0  0  0  0  0  0  0  0  0
    3.8157   -0.1437    2.1496 H   0  0  0  0  0  0  0  0  0  0  0  0
    6.7287   -1.1575   -2.0483 H   0  0  0  0  0  0  0  0  0  0  0  0
    8.0717   -1.0079   -0.0031 H   0  0  0  0  0  0  0  0  0  0  0  0
    9.0280   -1.7560   -1.3382 H   0  0  0  0  0  0  0  0  0  0  0  0
    8.4461   -4.0217   -0.3013 H   0  0  0  0  0  0  0  0  0  0  0  0
    9.2918   -2.8547    0.8592 H   0  0  0  0  0  0  0  0  0  0  0  0
    7.3208   -3.9155    1.9841 H   0  0  0  0  0  0  0  0  0  0  0  0
    7.1949   -2.1260    1.7392 H   0  0  0  0  0  0  0  0  0  0  0  0
    6.0066   -4.3304   -0.0514 H   0  0  0  0  0  0  0  0  0  0  0  0
    4.6731   -2.4354    1.9801 H   0  0  0  0  0  0  0  0  0  0  0  0
    3.8705   -3.6262    0.8598 H   0  0  0  0  0  0  0  0  0  0  0  0
    5.0410   -4.1808    2.1651 H   0  0  0  0  0  0  0  0  0  0  0  0
    6.2888   -3.2481   -3.1716 H   0  0  0  0  0  0  0  0  0  0  0  0
    7.0504   -4.2091   -1.7986 H   0  0  0  0  0  0  0  0  0  0  0  0
    8.0957   -3.1997   -2.8771 H   0  0  0  0  0  0  0  0  0  0  0  0
   -6.7606   -4.1227    2.7902 H   0  0  0  0  0  0  0  0  0  0  0  0
   -5.6960   -5.5483    2.4928 H   0  0  0  0  0  0  0  0  0  0  0  0
  2  3  1  0
  3  4  1  0
  1  5  1  0
  4  5  1  0
  6  7  1  0
  7  8  1  0
  8  9  1  0
  9 10  1  0
  6 11  1  0
 10 11  1  0
  4 12  1  0
  3 13  1  0
 13 14  1  0
 14 15  1  0
 15 16  1  0
 13 17  1  0
 17 18  1  0
 17 19  1  0
 14 20  1  0
 21 22  1  0
 22 23  1  0
 23 24  1  0
 24 25  1  0
 21 26  1  0
 25 26  1  0
 16 27  1  0
 25 27  1  0
 16 28  1  0
 28 29  1  0
 29 30  1  0
 30 31  1  0
 31 32  1  0
 32 33  1  0
 33 34  1  0
 34 35  1  0
 29 36  1  0
  6 37  1  0
 30 37  1  0
 32 38  1  0
 35 39  1  0
 39 40  1  0
 40 41  1  0
 41 42  1  0
 35 43  1  0
 42 43  1  0
 43 44  1  0
 39 45  1  0
  1 46  1  0
  2 46  1  0
  1 47  1  0
  1 48  1  0
  2 49  1  0
  2 50  1  0
  4 51  1  0
  5 52  1  0
  6 53  1  0
  7 54  1  0
  7 55  1  0
  8 56  1  0
  8 57  1  0
  9 58  1  0
  9 59  1  0
 10 60  1  0
 10 61  1  0
 11 62  1  0
 11 63  1  0
 12 64  1  0
 13 65  1  6
 14 66  1  0
 15 67  1  0
 16 68  1  6
 17 69  1  0
 18 70  1  0
 18 71  1  0
 18 72  1  0
 19 73  1  0
 19 74  1  0
 19 75  1  0
 20 76  1  0
 21 77  1  0
 21 78  1  0
 22 79  1  0
 22 80  1  0
 23 81  1  0
 23 82  1  0
 24 83  1  0
 24 84  1  0
 25 85  1  0
 26 86  1  0
 26 87  1  0
 27 88  1  0
 27 89  1  0
 28 90  1  0
 28 91  1  0
 29 92  1  6
 30 93  1  1
 31 94  1  0
 32 95  1  0
 33 96  1  0
 33 97  1  0
 35 98  1  0
 36 99  1  0
 37100  1  0
 37101  1  0
 38102  1  0
 39103  1  0
 40104  1  0
 40105  1  0
 41106  1  0
 41107  1  0
 42108  1  0
 42109  1  0
 43110  1  0
 44111  1  0
 44112  1  0
 44113  1  0
 45114  1  0
 45115  1  0
 45116  1  0
 46117  1  0
 46118  1  0
M  END
>  <PDBID>  (1) 
1MUI

>  <PDB ID>  (1) 
1MUI

>  <Generic Name>  (1) 
Lopinavir

>  <Brand Name>  (1) 
Kaletra#Lopinavir-ritonavir#Aluviran#Koletra

>  <DrugBank ID>  (1) 
DB01601

>  <ATC Codes>  (1) 
J05AR10

>  <Ligand ID>  (1) 
AB1

>  <Target Name>  (1) 
Pol polyprotein

>  <UniProt ID>  (1) 
Q72874

>  <PDB ID.1>  (1) 
1MUI

>  <Seq. Identity>  (1) 
99%

$$$$
