PDB_DB01157_02
     RDKit          3D

264272  0  0  0  0  0  0  0  0999 V2000
    5.2368    1.0119    1.0459 N   0  0  0  0  0  0  0  0  0  0  0  0
    6.0998    0.3986    0.0535 C   0  0  1  0  0  0  0  0  0  0  0  0
    5.5356    0.4751   -1.2718 N   0  0  0  0  0  0  0  0  0  0  0  0
    4.2742   -0.1948   -1.3495 C   0  0  2  0  0  0  0  0  0  0  0  0
    3.9155    0.4177    1.0758 C   0  0  0  0  0  0  0  0  0  0  0  0
    3.7552   -0.6008    0.0054 C   0  0  0  0  0  0  0  0  0  0  0  0
    2.3833   -1.1462   -0.1456 C   0  0  0  0  0  0  0  0  0  0  0  0
    1.2563   -0.2941    0.3099 C   0  0  0  0  0  0  0  0  0  0  0  0
    1.5563    1.1468    0.5404 C   0  0  0  0  0  0  0  0  0  0  0  0
    2.8742    1.4787    1.1280 C   0  0  0  0  0  0  0  0  0  0  0  0
    0.1562   -0.3168   -0.7706 C   0  0  0  0  0  0  0  0  0  0  0  0
   -0.9803    0.4664   -0.4347 N   0  0  0  0  0  0  0  0  0  0  0  0
   -1.7930   -0.0417    0.6461 C   0  0  0  0  0  0  0  0  0  0  0  0
   -2.7086    1.0506    1.1036 C   0  0  0  0  0  0  0  0  0  0  0  0
   -4.1299    0.6036    1.3570 C   0  0  0  0  0  0  0  0  0  0  0  0
   -4.7403    0.0537    0.1069 C   0  0  0  0  0  0  0  0  0  0  0  0
   -3.7586   -0.7702   -0.7037 C   0  0  0  0  0  0  0  0  0  0  0  0
   -2.6518   -1.2044    0.1963 C   0  0  0  0  0  0  0  0  0  0  0  0
    2.2382   -2.4931    0.5820 C   0  0  0  0  0  0  0  0  0  0  0  0
   -4.2559   -0.1991    2.4715 O   0  0  0  0  0  0  0  0  0  0  0  0
   -5.0978    1.1423   -0.6971 O   0  0  0  0  0  0  0  0  0  0  0  0
   -3.2571   -0.0193   -1.7757 O   0  0  0  0  0  0  0  0  0  0  0  0
   -4.9903    0.3726    3.4911 C   0  0  0  0  0  0  0  0  0  0  0  0
   -6.4585    1.0672   -1.0354 C   0  0  0  0  0  0  0  0  0  0  0  0
   -3.5272   -0.6075   -2.9976 C   0  0  0  0  0  0  0  0  0  0  0  0
    7.3448    1.1422    0.0359 N   0  0  0  0  0  0  0  0  0  0  0  0
    4.4275   -1.4529   -2.1051 N   0  0  0  0  0  0  0  0  0  0  0  0
    5.3506    1.2021    0.5324 N   0  0  0  0  0  0  0  0  0  0  0  0
    6.1331    0.3200   -0.2248 C   0  0  1  0  0  0  0  0  0  0  0  0
    5.4607   -0.4765   -1.2045 N   0  0  0  0  0  0  0  0  0  0  0  0
    4.0215   -0.3846   -1.1337 C   0  0  0  0  0  0  0  0  0  0  0  0
    4.0719    0.7243    0.9988 C   0  0  0  0  0  0  0  0  0  0  0  0
    3.6630   -0.5525    0.3204 C   0  0  0  0  0  0  0  0  0  0  0  0
    2.2141   -0.8161    0.5617 C   0  0  1  0  0  0  0  0  0  0  0  0
    1.4179    0.2784   -0.0399 C   0  0  0  0  0  0  0  0  0  0  0  0
    1.6770    1.5214    0.7921 C   0  0  0  0  0  0  0  0  0  0  0  0
    3.1223    1.8699    0.8218 C   0  0  0  0  0  0  0  0  0  0  0  0
   -0.0757    0.0491   -0.1037 C   0  0  0  0  0  0  0  0  0  0  0  0
   -0.6247   -0.1358    1.1480 N   0  0  0  0  0  0  0  0  0  0  0  0
   -1.9924   -0.3178    1.3421 C   0  0  0  0  0  0  0  0  0  0  0  0
   -2.6679    0.9816    0.8659 C   0  0  0  0  0  0  0  0  0  0  0  0
   -4.1757    0.8674    1.0437 C   0  0  0  0  0  0  0  0  0  0  0  0
   -4.6411   -0.0499   -0.0682 C   0  0  0  0  0  0  0  0  0  0  0  0
   -3.6251   -1.1125   -0.4137 C   0  0  0  0  0  0  0  0  0  0  0  0
   -2.7007   -1.4468    0.7404 C   0  0  0  0  0  0  0  0  0  0  0  0
    1.7974   -2.1997    0.1354 C   0  0  0  0  0  0  0  0  0  0  0  0
   -4.4102    0.3967    2.3087 O   0  0  0  0  0  0  0  0  0  0  0  0
   -4.7450    0.7789   -1.2078 O   0  0  0  0  0  0  0  0  0  0  0  0
   -2.8971   -0.8304   -1.5615 O   0  0  0  0  0  0  0  0  0  0  0  0
   -5.0888    1.3038    3.1174 C   0  0  0  0  0  0  0  0  0  0  0  0
   -6.0621    0.8247   -1.6558 C   0  0  0  0  0  0  0  0  0  0  0  0
   -3.1420   -1.8029   -2.5160 C   0  0  0  0  0  0  0  0  0  0  0  0
    7.1423    1.1119   -0.9485 N   0  0  0  0  0  0  0  0  0  0  0  0
    3.4105   -1.3809   -1.9768 N   0  0  0  0  0  0  0  0  0  0  0  0
    5.3365    1.4553    0.1839 N   0  0  0  0  0  0  0  0  0  0  0  0
    6.1703    0.2881    0.3344 C   0  0  0  0  0  0  0  0  0  0  0  0
    5.8055   -0.7819   -0.5531 N   0  0  0  0  0  0  0  0  0  0  0  0
    4.3458   -0.8706   -0.7418 C   0  0  2  0  0  0  0  0  0  0  0  0
    3.9402    1.2306    0.4164 C   0  0  0  0  0  0  0  0  0  0  0  0
    3.7428   -0.2790    0.4880 C   0  0  0  0  0  0  0  0  0  0  0  0
    2.2984   -0.5358    0.7063 C   0  0  1  0  0  0  0  0  0  0  0  0
    1.5242   -0.0230   -0.4787 C   0  0  0  0  0  0  0  0  0  0  0  0
    1.6574    1.4383   -0.6195 C   0  0  0  0  0  0  0  0  0  0  0  0
    3.0935    1.9158   -0.5918 C   0  0  0  0  0  0  0  0  0  0  0  0
    0.0959   -0.4869   -0.4743 C   0  0  0  0  0  0  0  0  0  0  0  0
   -0.5954   -0.1010    0.6936 N   0  0  0  0  0  0  0  0  0  0  0  0
   -1.9209   -0.4926    0.8634 C   0  0  0  0  0  0  0  0  0  0  0  0
   -2.7537    0.7596    1.1842 C   0  0  0  0  0  0  0  0  0  0  0  0
   -4.1707    0.3764    1.4424 C   0  0  0  0  0  0  0  0  0  0  0  0
   -4.7840    0.0674    0.0711 C   0  0  0  0  0  0  0  0  0  0  0  0
   -3.7746   -0.4844   -0.8700 C   0  0  0  0  0  0  0  0  0  0  0  0
   -2.6101   -1.2001   -0.2233 C   0  0  0  0  0  0  0  0  0  0  0  0
    1.9222   -1.9005    1.1729 C   0  0  0  0  0  0  0  0  0  0  0  0
   -4.2233   -0.7378    2.2594 O   0  0  0  0  0  0  0  0  0  0  0  0
   -5.1922    1.3279   -0.4326 O   0  0  0  0  0  0  0  0  0  0  0  0
   -3.2841    0.4623   -1.7819 O   0  0  0  0  0  0  0  0  0  0  0  0
   -5.0379   -0.6162    3.3644 C   0  0  0  0  0  0  0  0  0  0  0  0
   -6.5745    1.4140   -0.5217 C   0  0  0  0  0  0  0  0  0  0  0  0
   -3.6168    0.0700   -3.0761 C   0  0  0  0  0  0  0  0  0  0  0  0
    7.5352    0.6686    0.0196 N   0  0  0  0  0  0  0  0  0  0  0  0
    4.0217   -2.2360   -0.9753 N   0  0  0  0  0  0  0  0  0  0  0  0
    5.3365    1.4553    0.1839 N   0  0  0  0  0  0  0  0  0  0  0  0
    6.1703    0.2881    0.3344 C   0  0  0  0  0  0  0  0  0  0  0  0
    5.8055   -0.7819   -0.5531 N   0  0  0  0  0  0  0  0  0  0  0  0
    4.3458   -0.8706   -0.7418 C   0  0  2  0  0  0  0  0  0  0  0  0
    3.9402    1.2306    0.4164 C   0  0  0  0  0  0  0  0  0  0  0  0
    3.7428   -0.2790    0.4880 C   0  0  0  0  0  0  0  0  0  0  0  0
    2.2984   -0.5358    0.7063 C   0  0  1  0  0  0  0  0  0  0  0  0
    1.5242   -0.0230   -0.4787 C   0  0  0  0  0  0  0  0  0  0  0  0
    1.6574    1.4383   -0.6195 C   0  0  0  0  0  0  0  0  0  0  0  0
    3.0935    1.9158   -0.5918 C   0  0  0  0  0  0  0  0  0  0  0  0
    0.0959   -0.4869   -0.4743 C   0  0  0  0  0  0  0  0  0  0  0  0
   -0.5954   -0.1010    0.6936 N   0  0  0  0  0  0  0  0  0  0  0  0
   -1.9209   -0.4926    0.8634 C   0  0  0  0  0  0  0  0  0  0  0  0
   -2.7537    0.7596    1.1842 C   0  0  0  0  0  0  0  0  0  0  0  0
   -4.1707    0.3764    1.4424 C   0  0  0  0  0  0  0  0  0  0  0  0
   -4.7840    0.0674    0.0711 C   0  0  0  0  0  0  0  0  0  0  0  0
   -3.7746   -0.4844   -0.8700 C   0  0  0  0  0  0  0  0  0  0  0  0
   -2.6101   -1.2001   -0.2233 C   0  0  0  0  0  0  0  0  0  0  0  0
    1.9222   -1.9005    1.1729 C   0  0  0  0  0  0  0  0  0  0  0  0
   -4.2233   -0.7378    2.2594 O   0  0  0  0  0  0  0  0  0  0  0  0
   -5.1922    1.3279   -0.4326 O   0  0  0  0  0  0  0  0  0  0  0  0
   -3.2841    0.4623   -1.7819 O   0  0  0  0  0  0  0  0  0  0  0  0
   -5.0379   -0.6162    3.3644 C   0  0  0  0  0  0  0  0  0  0  0  0
   -6.5745    1.4140   -0.5217 C   0  0  0  0  0  0  0  0  0  0  0  0
   -3.6168    0.0700   -3.0761 C   0  0  0  0  0  0  0  0  0  0  0  0
    7.5352    0.6686    0.0196 N   0  0  0  0  0  0  0  0  0  0  0  0
    4.0217   -2.2360   -0.9753 N   0  0  0  0  0  0  0  0  0  0  0  0
    5.1436    2.0390    0.8825 H   0  0  0  0  0  0  0  0  0  0  0  0
    6.2971   -0.6606    0.2843 H   0  0  0  0  0  0  0  0  0  0  0  0
    5.5060    1.4400   -1.6426 H   0  0  0  0  0  0  0  0  0  0  0  0
    3.5686    0.4100   -1.9374 H   0  0  0  0  0  0  0  0  0  0  0  0
    3.8765   -0.1395    2.0583 H   0  0  0  0  0  0  0  0  0  0  0  0
    4.4129   -1.4761    0.3123 H   0  0  0  0  0  0  0  0  0  0  0  0
    2.2218   -1.4256   -1.2286 H   0  0  0  0  0  0  0  0  0  0  0  0
    0.7843   -0.7040    1.2441 H   0  0  0  0  0  0  0  0  0  0  0  0
    0.7737    1.5371    1.2620 H   0  0  0  0  0  0  0  0  0  0  0  0
    1.3441    1.7688   -0.3847 H   0  0  0  0  0  0  0  0  0  0  0  0
    2.7996    1.8267    2.1813 H   0  0  0  0  0  0  0  0  0  0  0  0
    3.2748    2.3834    0.5722 H   0  0  0  0  0  0  0  0  0  0  0  0
    0.5979    0.1283   -1.6961 H   0  0  0  0  0  0  0  0  0  0  0  0
   -0.0377   -1.3651   -0.9826 H   0  0  0  0  0  0  0  0  0  0  0  0
   -0.6784    1.4279   -0.1707 H   0  0  0  0  0  0  0  0  0  0  0  0
   -1.1828   -0.3756    1.4999 H   0  0  0  0  0  0  0  0  0  0  0  0
   -2.3510    1.5349    2.0385 H   0  0  0  0  0  0  0  0  0  0  0  0
   -2.7678    1.8720    0.3582 H   0  0  0  0  0  0  0  0  0  0  0  0
   -4.6942    1.5558    1.5942 H   0  0  0  0  0  0  0  0  0  0  0  0
   -5.6173   -0.5679    0.2699 H   0  0  0  0  0  0  0  0  0  0  0  0
   -4.2397   -1.6681   -1.1402 H   0  0  0  0  0  0  0  0  0  0  0  0
   -2.0863   -1.9913   -0.3256 H   0  0  0  0  0  0  0  0  0  0  0  0
   -3.0764   -1.6688    1.1094 H   0  0  0  0  0  0  0  0  0  0  0  0
    1.2084   -2.6308    0.9682 H   0  0  0  0  0  0  0  0  0  0  0  0
    2.4755   -3.3492   -0.0792 H   0  0  0  0  0  0  0  0  0  0  0  0
    2.9721   -2.5058    1.4151 H   0  0  0  0  0  0  0  0  0  0  0  0
   -5.0244   -0.3682    4.3418 H   0  0  0  0  0  0  0  0  0  0  0  0
   -4.5708    1.2966    3.9003 H   0  0  0  0  0  0  0  0  0  0  0  0
   -6.0598    0.5474    3.2322 H   0  0  0  0  0  0  0  0  0  0  0  0
   -6.7291    1.9365   -1.6763 H   0  0  0  0  0  0  0  0  0  0  0  0
   -6.5569    0.1778   -1.7257 H   0  0  0  0  0  0  0  0  0  0  0  0
   -7.0606    0.9649   -0.1323 H   0  0  0  0  0  0  0  0  0  0  0  0
   -3.1007    0.0496   -3.7937 H   0  0  0  0  0  0  0  0  0  0  0  0
   -4.6162   -0.7202   -3.2034 H   0  0  0  0  0  0  0  0  0  0  0  0
   -3.0444   -1.5980   -3.1140 H   0  0  0  0  0  0  0  0  0  0  0  0
    8.0072    0.6411   -0.6293 H   0  0  0  0  0  0  0  0  0  0  0  0
    7.1695    2.0800   -0.4365 H   0  0  0  0  0  0  0  0  0  0  0  0
    3.6233   -1.6568   -2.7051 H   0  0  0  0  0  0  0  0  0  0  0  0
    4.7331   -2.2329   -1.4815 H   0  0  0  0  0  0  0  0  0  0  0  0
    5.8912    1.5234    1.3630 H   0  0  0  0  0  0  0  0  0  0  0  0
    6.7068   -0.3487    0.4588 H   0  0  0  0  0  0  0  0  0  0  0  0
    5.7889   -0.3531   -2.1751 H   0  0  0  0  0  0  0  0  0  0  0  0
    3.7427    0.6111   -1.5341 H   0  0  0  0  0  0  0  0  0  0  0  0
    4.0992    0.4982    2.1037 H   0  0  0  0  0  0  0  0  0  0  0  0
    4.3047   -1.3568    0.7642 H   0  0  0  0  0  0  0  0  0  0  0  0
    2.0772   -0.7721    1.6823 H   0  0  0  0  0  0  0  0  0  0  0  0
    1.7332    0.5239   -1.0797 H   0  0  0  0  0  0  0  0  0  0  0  0
    1.2295    1.4348    1.8034 H   0  0  0  0  0  0  0  0  0  0  0  0
    1.1232    2.3397    0.2847 H   0  0  0  0  0  0  0  0  0  0  0  0
    3.2843    2.5540    1.7078 H   0  0  0  0  0  0  0  0  0  0  0  0
    3.4109    2.5266   -0.0523 H   0  0  0  0  0  0  0  0  0  0  0  0
   -0.4929    0.9891   -0.5741 H   0  0  0  0  0  0  0  0  0  0  0  0
   -0.2309   -0.7416   -0.8632 H   0  0  0  0  0  0  0  0  0  0  0  0
   -0.0703   -0.4951    1.9188 H   0  0  0  0  0  0  0  0  0  0  0  0
   -2.1813   -0.3038    2.4576 H   0  0  0  0  0  0  0  0  0  0  0  0
   -2.2726    1.8423    1.4058 H   0  0  0  0  0  0  0  0  0  0  0  0
   -2.4936    1.0425   -0.2258 H   0  0  0  0  0  0  0  0  0  0  0  0
   -4.5657    1.8968    0.8803 H   0  0  0  0  0  0  0  0  0  0  0  0
   -5.6514   -0.4400    0.1392 H   0  0  0  0  0  0  0  0  0  0  0  0
   -4.2244   -2.0588   -0.5757 H   0  0  0  0  0  0  0  0  0  0  0  0
   -2.0712   -2.2837    0.3779 H   0  0  0  0  0  0  0  0  0  0  0  0
   -3.3736   -1.9427    1.5060 H   0  0  0  0  0  0  0  0  0  0  0  0
    1.1934   -2.6958    0.9312 H   0  0  0  0  0  0  0  0  0  0  0  0
    2.6834   -2.8865   -0.0075 H   0  0  0  0  0  0  0  0  0  0  0  0
    1.1792   -2.2242   -0.7758 H   0  0  0  0  0  0  0  0  0  0  0  0
   -5.2160    0.8111    4.1114 H   0  0  0  0  0  0  0  0  0  0  0  0
   -4.4591    2.2031    3.3072 H   0  0  0  0  0  0  0  0  0  0  0  0
   -6.0921    1.5300    2.7360 H   0  0  0  0  0  0  0  0  0  0  0  0
   -6.0739    1.4944   -2.5562 H   0  0  0  0  0  0  0  0  0  0  0  0
   -6.4323   -0.1546   -2.0017 H   0  0  0  0  0  0  0  0  0  0  0  0
   -6.7169    1.2722   -0.8509 H   0  0  0  0  0  0  0  0  0  0  0  0
   -2.5424   -1.5385   -3.4105 H   0  0  0  0  0  0  0  0  0  0  0  0
   -4.2092   -1.8608   -2.8250 H   0  0  0  0  0  0  0  0  0  0  0  0
   -2.8311   -2.7900   -2.1181 H   0  0  0  0  0  0  0  0  0  0  0  0
    7.4512    0.6071   -1.8348 H   0  0  0  0  0  0  0  0  0  0  0  0
    6.7129    1.9971   -1.3160 H   0  0  0  0  0  0  0  0  0  0  0  0
    2.9263   -0.9923   -2.8014 H   0  0  0  0  0  0  0  0  0  0  0  0
    4.0290   -2.1818   -2.1332 H   0  0  0  0  0  0  0  0  0  0  0  0
    5.5827    2.0604   -0.6033 H   0  0  0  0  0  0  0  0  0  0  0  0
    6.2160   -0.0367    1.4079 H   0  0  0  0  0  0  0  0  0  0  0  0
    6.2820   -0.7426   -1.4835 H   0  0  0  0  0  0  0  0  0  0  0  0
    4.1130   -0.2421   -1.6162 H   0  0  0  0  0  0  0  0  0  0  0  0
    3.6457    1.6084    1.4211 H   0  0  0  0  0  0  0  0  0  0  0  0
    4.2702   -0.5878    1.4218 H   0  0  0  0  0  0  0  0  0  0  0  0
    2.0094    0.1577    1.5638 H   0  0  0  0  0  0  0  0  0  0  0  0
    1.9730   -0.5069   -1.4136 H   0  0  0  0  0  0  0  0  0  0  0  0
    0.9925    1.9951    0.0634 H   0  0  0  0  0  0  0  0  0  0  0  0
    1.2991    1.6952   -1.6633 H   0  0  0  0  0  0  0  0  0  0  0  0
    3.0646    2.9994   -0.3572 H   0  0  0  0  0  0  0  0  0  0  0  0
    3.5490    1.8448   -1.6231 H   0  0  0  0  0  0  0  0  0  0  0  0
   -0.3980    0.0025   -1.3424 H   0  0  0  0  0  0  0  0  0  0  0  0
    0.0944   -1.5659   -0.6957 H   0  0  0  0  0  0  0  0  0  0  0  0
   -0.4543    0.8822    0.9907 H   0  0  0  0  0  0  0  0  0  0  0  0
   -1.9868   -1.0936    1.8205 H   0  0  0  0  0  0  0  0  0  0  0  0
   -2.7104    1.3945    0.2829 H   0  0  0  0  0  0  0  0  0  0  0  0
   -2.2909    1.3123    2.0375 H   0  0  0  0  0  0  0  0  0  0  0  0
   -4.7325    1.2391    1.8167 H   0  0  0  0  0  0  0  0  0  0  0  0
   -5.7087   -0.5216    0.1973 H   0  0  0  0  0  0  0  0  0  0  0  0
   -4.3111   -1.2974   -1.4539 H   0  0  0  0  0  0  0  0  0  0  0  0
   -1.9610   -1.5279   -1.0626 H   0  0  0  0  0  0  0  0  0  0  0  0
   -3.0286   -2.1653    0.1744 H   0  0  0  0  0  0  0  0  0  0  0  0
    2.1978   -1.9781    2.2663 H   0  0  0  0  0  0  0  0  0  0  0  0
    2.3869   -2.7394    0.6753 H   0  0  0  0  0  0  0  0  0  0  0  0
    0.8189   -1.9593    1.1765 H   0  0  0  0  0  0  0  0  0  0  0  0
   -4.9491   -1.5835    3.9472 H   0  0  0  0  0  0  0  0  0  0  0  0
   -4.8216    0.2100    4.0508 H   0  0  0  0  0  0  0  0  0  0  0  0
   -6.1317   -0.6118    3.0504 H   0  0  0  0  0  0  0  0  0  0  0  0
   -6.8195    2.4299   -0.9402 H   0  0  0  0  0  0  0  0  0  0  0  0
   -7.0571    0.6570   -1.1355 H   0  0  0  0  0  0  0  0  0  0  0  0
   -6.9665    1.4433    0.5223 H   0  0  0  0  0  0  0  0  0  0  0  0
   -3.1990    0.8719   -3.7595 H   0  0  0  0  0  0  0  0  0  0  0  0
   -4.6954   -0.0305   -3.2474 H   0  0  0  0  0  0  0  0  0  0  0  0
   -3.1110   -0.9050   -3.3327 H   0  0  0  0  0  0  0  0  0  0  0  0
    7.8881    0.3017   -0.8771 H   0  0  0  0  0  0  0  0  0  0  0  0
    7.7168    1.6871    0.1064 H   0  0  0  0  0  0  0  0  0  0  0  0
    3.7609   -2.4953   -1.9298 H   0  0  0  0  0  0  0  0  0  0  0  0
    4.5209   -2.9304   -0.4143 H   0  0  0  0  0  0  0  0  0  0  0  0
    5.5827    2.0604   -0.6033 H   0  0  0  0  0  0  0  0  0  0  0  0
    6.2160   -0.0367    1.4079 H   0  0  0  0  0  0  0  0  0  0  0  0
    6.2820   -0.7426   -1.4835 H   0  0  0  0  0  0  0  0  0  0  0  0
    4.1130   -0.2421   -1.6162 H   0  0  0  0  0  0  0  0  0  0  0  0
    3.6457    1.6084    1.4211 H   0  0  0  0  0  0  0  0  0  0  0  0
    4.2702   -0.5878    1.4218 H   0  0  0  0  0  0  0  0  0  0  0  0
    2.0094    0.1577    1.5638 H   0  0  0  0  0  0  0  0  0  0  0  0
    1.9730   -0.5069   -1.4136 H   0  0  0  0  0  0  0  0  0  0  0  0
    0.9925    1.9951    0.0634 H   0  0  0  0  0  0  0  0  0  0  0  0
    1.2991    1.6952   -1.6633 H   0  0  0  0  0  0  0  0  0  0  0  0
    3.0646    2.9994   -0.3572 H   0  0  0  0  0  0  0  0  0  0  0  0
    3.5490    1.8448   -1.6231 H   0  0  0  0  0  0  0  0  0  0  0  0
   -0.3980    0.0025   -1.3424 H   0  0  0  0  0  0  0  0  0  0  0  0
    0.0944   -1.5659   -0.6957 H   0  0  0  0  0  0  0  0  0  0  0  0
   -0.4543    0.8822    0.9907 H   0  0  0  0  0  0  0  0  0  0  0  0
   -1.9868   -1.0936    1.8205 H   0  0  0  0  0  0  0  0  0  0  0  0
   -2.7104    1.3945    0.2829 H   0  0  0  0  0  0  0  0  0  0  0  0
   -2.2909    1.3123    2.0375 H   0  0  0  0  0  0  0  0  0  0  0  0
   -4.7325    1.2391    1.8167 H   0  0  0  0  0  0  0  0  0  0  0  0
   -5.7087   -0.5216    0.1973 H   0  0  0  0  0  0  0  0  0  0  0  0
   -4.3111   -1.2974   -1.4539 H   0  0  0  0  0  0  0  0  0  0  0  0
   -1.9610   -1.5279   -1.0626 H   0  0  0  0  0  0  0  0  0  0  0  0
   -3.0286   -2.1653    0.1744 H   0  0  0  0  0  0  0  0  0  0  0  0
    2.1978   -1.9781    2.2663 H   0  0  0  0  0  0  0  0  0  0  0  0
    2.3869   -2.7394    0.6753 H   0  0  0  0  0  0  0  0  0  0  0  0
    0.8189   -1.9593    1.1765 H   0  0  0  0  0  0  0  0  0  0  0  0
   -4.9491   -1.5835    3.9472 H   0  0  0  0  0  0  0  0  0  0  0  0
   -4.8216    0.2100    4.0508 H   0  0  0  0  0  0  0  0  0  0  0  0
   -6.1317   -0.6118    3.0504 H   0  0  0  0  0  0  0  0  0  0  0  0
   -6.8195    2.4299   -0.9402 H   0  0  0  0  0  0  0  0  0  0  0  0
   -7.0571    0.6570   -1.1355 H   0  0  0  0  0  0  0  0  0  0  0  0
   -6.9665    1.4433    0.5223 H   0  0  0  0  0  0  0  0  0  0  0  0
   -3.1990    0.8719   -3.7595 H   0  0  0  0  0  0  0  0  0  0  0  0
   -4.6954   -0.0305   -3.2474 H   0  0  0  0  0  0  0  0  0  0  0  0
   -3.1110   -0.9050   -3.3327 H   0  0  0  0  0  0  0  0  0  0  0  0
    7.8881    0.3017   -0.8771 H   0  0  0  0  0  0  0  0  0  0  0  0
    7.7168    1.6871    0.1064 H   0  0  0  0  0  0  0  0  0  0  0  0
    3.7609   -2.4953   -1.9298 H   0  0  0  0  0  0  0  0  0  0  0  0
    4.5209   -2.9304   -0.4143 H   0  0  0  0  0  0  0  0  0  0  0  0
  1  2  1  0
  2  3  1  0
  3  4  1  0
  1  5  1  0
  4  6  1  0
  5  6  1  0
  6  7  1  0
  7  8  1  0
  8  9  1  0
  5 10  1  0
  9 10  1  0
  8 11  1  0
 11 12  1  0
 12 13  1  0
 13 14  1  0
 14 15  1  0
 15 16  1  0
 16 17  1  0
 13 18  1  0
 17 18  1  0
  7 19  1  0
 15 20  1  0
 16 21  1  0
 17 22  1  0
 20 23  1  0
 21 24  1  0
 22 25  1  0
  2 26  1  0
  4 27  1  0
 28 29  1  0
 29 30  1  0
 30 31  1  0
 28 32  1  0
 31 33  1  0
 32 33  1  0
 33 34  1  0
 34 35  1  0
 35 36  1  0
 32 37  1  0
 36 37  1  0
 35 38  1  0
 38 39  1  0
 39 40  1  0
 40 41  1  0
 41 42  1  0
 42 43  1  0
 43 44  1  0
 40 45  1  0
 44 45  1  0
 34 46  1  0
 42 47  1  0
 43 48  1  0
 44 49  1  0
 47 50  1  0
 48 51  1  0
 49 52  1  0
 29 53  1  0
 31 54  1  0
 55 56  1  0
 56 57  1  0
 57 58  1  0
 55 59  1  0
 58 60  1  0
 59 60  1  0
 60 61  1  0
 61 62  1  0
 62 63  1  0
 59 64  1  0
 63 64  1  0
 62 65  1  0
 65 66  1  0
 66 67  1  0
 67 68  1  0
 68 69  1  0
 69 70  1  0
 70 71  1  0
 67 72  1  0
 71 72  1  0
 61 73  1  0
 69 74  1  0
 70 75  1  0
 71 76  1  0
 74 77  1  0
 75 78  1  0
 76 79  1  0
 56 80  1  0
 58 81  1  0
 82 83  1  0
 83 84  1  0
 84 85  1  0
 82 86  1  0
 85 87  1  0
 86 87  1  0
 87 88  1  0
 88 89  1  0
 89 90  1  0
 86 91  1  0
 90 91  1  0
 89 92  1  0
 92 93  1  0
 93 94  1  0
 94 95  1  0
 95 96  1  0
 96 97  1  0
 97 98  1  0
 94 99  1  0
 98 99  1  0
 88100  1  0
 96101  1  0
 97102  1  0
 98103  1  0
101104  1  0
102105  1  0
103106  1  0
 83107  1  0
 85108  1  0
  1109  1  0
  2110  1  1
  3111  1  0
  4112  1  6
  5113  1  0
  6114  1  0
  7115  1  0
  8116  1  0
  9117  1  0
  9118  1  0
 10119  1  0
 10120  1  0
 11121  1  0
 11122  1  0
 12123  1  0
 13124  1  0
 14125  1  0
 14126  1  0
 15127  1  0
 16128  1  0
 17129  1  0
 18130  1  0
 18131  1  0
 19132  1  0
 19133  1  0
 19134  1  0
 23135  1  0
 23136  1  0
 23137  1  0
 24138  1  0
 24139  1  0
 24140  1  0
 25141  1  0
 25142  1  0
 25143  1  0
 26144  1  0
 26145  1  0
 27146  1  0
 27147  1  0
 28148  1  0
 29149  1  1
 30150  1  0
 31151  1  0
 32152  1  0
 33153  1  0
 34154  1  1
 35155  1  0
 36156  1  0
 36157  1  0
 37158  1  0
 37159  1  0
 38160  1  0
 38161  1  0
 39162  1  0
 40163  1  0
 41164  1  0
 41165  1  0
 42166  1  0
 43167  1  0
 44168  1  0
 45169  1  0
 45170  1  0
 46171  1  0
 46172  1  0
 46173  1  0
 50174  1  0
 50175  1  0
 50176  1  0
 51177  1  0
 51178  1  0
 51179  1  0
 52180  1  0
 52181  1  0
 52182  1  0
 53183  1  0
 53184  1  0
 54185  1  0
 54186  1  0
 55187  1  0
 56188  1  0
 57189  1  0
 58190  1  6
 59191  1  0
 60192  1  0
 61193  1  1
 62194  1  0
 63195  1  0
 63196  1  0
 64197  1  0
 64198  1  0
 65199  1  0
 65200  1  0
 66201  1  0
 67202  1  0
 68203  1  0
 68204  1  0
 69205  1  0
 70206  1  0
 71207  1  0
 72208  1  0
 72209  1  0
 73210  1  0
 73211  1  0
 73212  1  0
 77213  1  0
 77214  1  0
 77215  1  0
 78216  1  0
 78217  1  0
 78218  1  0
 79219  1  0
 79220  1  0
 79221  1  0
 80222  1  0
 80223  1  0
 81224  1  0
 81225  1  0
 82226  1  0
 83227  1  0
 84228  1  0
 85229  1  6
 86230  1  0
 87231  1  0
 88232  1  1
 89233  1  0
 90234  1  0
 90235  1  0
 91236  1  0
 91237  1  0
 92238  1  0
 92239  1  0
 93240  1  0
 94241  1  0
 95242  1  0
 95243  1  0
 96244  1  0
 97245  1  0
 98246  1  0
 99247  1  0
 99248  1  0
100249  1  0
100250  1  0
100251  1  0
104252  1  0
104253  1  0
104254  1  0
105255  1  0
105256  1  0
105257  1  0
106258  1  0
106259  1  0
106260  1  0
107261  1  0
107262  1  0
108263  1  0
108264  1  0
M  END
>  <PDBID>  (1) 
4M2X

>  <PDB ID>  (1) 
4M2X

>  <Generic Name>  (1) 
Trimetrexate

>  <Brand Name>  (1) 
Neutrexin Pws IV 25mg/vial#Neutrexin

>  <DrugBank ID>  (1) 
DB01157

>  <ATC Codes>  (1) 
P01AX07

>  <Ligand ID>  (1) 
TMQ

>  <Target Name>  (1) 
Dihydrofolate reductase

>  <UniProt ID>  (1) 
P00374

>  <PDB ID.1>  (1) 
4M2X

>  <Seq. Identity>  (1) 
31%

$$$$
