PDB_DB09078_05
     RDKit          3D

 69 72  0  0  0  0  0  0  0  0999 V2000
   -4.8351   -2.7120    1.0401 C   0  0  0  0  0  0  0  0  0  0  0  0
   -4.0350   -1.7733    0.3774 O   0  0  0  0  0  0  0  0  0  0  0  0
   -4.7533   -0.6574   -0.0064 C   0  0  0  0  0  0  0  0  0  0  0  0
   -4.6539   -0.5204   -1.5076 C   0  0  0  0  0  0  0  0  0  0  0  0
   -3.7898    0.6541   -1.9026 C   0  0  0  0  0  0  0  0  0  0  0  0
   -3.6094    0.6859   -3.3049 N   0  0  0  0  0  0  0  0  0  0  0  0
   -2.2101    0.6191   -3.6406 C   0  0  0  0  0  0  0  0  0  0  0  0
   -1.5654   -0.5844   -2.9590 C   0  0  0  0  0  0  0  0  0  0  0  0
   -1.4621   -0.2754   -1.4978 C   0  0  2  0  0  0  0  0  0  0  0  0
   -2.5204    0.7408   -1.1470 C   0  0  0  0  0  0  0  0  0  0  0  0
   -2.7140    0.6402    0.3548 C   0  0  0  0  0  0  0  0  0  0  0  0
   -4.1754    0.5520    0.6576 C   0  0  2  0  0  0  0  0  0  0  0  0
   -4.3898    0.4734    2.1672 C   0  0  2  0  0  0  0  0  0  0  0  0
   -5.7696    0.4141    2.3639 O   0  0  0  0  0  0  0  0  0  0  0  0
   -3.9127    1.7036    2.7357 N   0  0  0  0  0  0  0  0  0  0  0  0
   -0.2505    0.2633   -1.1370 O   0  0  0  0  0  0  0  0  0  0  0  0
    0.4946   -0.3949   -0.1969 C   0  0  1  0  0  0  0  0  0  0  0  0
    1.7879   -0.9582   -0.7290 C   0  0  0  0  0  0  0  0  0  0  0  0
    3.0205   -0.4253   -0.0300 C   0  0  1  0  0  0  0  0  0  0  0  0
    2.9747   -0.5824    1.4500 C   0  0  2  0  0  0  0  0  0  0  0  0
    1.5480   -0.5533    1.9852 C   0  0  0  0  0  0  0  0  0  0  0  0
    0.7933    0.3828    1.0573 C   0  0  0  0  0  0  0  0  0  0  0  0
    3.6880    0.4926    2.0721 N   0  0  0  0  0  0  0  0  0  0  0  0
    5.0780    0.5865    1.7998 C   0  0  0  0  0  0  0  0  0  0  0  0
    5.7992   -0.5500    2.1340 O   0  0  0  0  0  0  0  0  0  0  0  0
    5.4471    1.0073    0.4859 N   0  0  0  0  0  0  0  0  0  0  0  0
    6.9069    1.0253    0.3703 C   0  0  0  0  0  0  0  0  0  0  0  0
    7.6898   -0.2260    0.5173 C   0  0  0  0  0  0  0  0  0  0  0  0
    7.5750    0.4979   -0.8420 C   0  0  0  0  0  0  0  0  0  0  0  0
    4.3863   -1.4091   -0.6524 Cl  0  0  0  0  0  0  0  0  0  0  0  0
   -5.6324   -2.9973    0.3053 H   0  0  0  0  0  0  0  0  0  0  0  0
   -5.2440   -2.2435    1.9353 H   0  0  0  0  0  0  0  0  0  0  0  0
   -4.2754   -3.6260    1.2857 H   0  0  0  0  0  0  0  0  0  0  0  0
   -5.8242   -0.7523    0.3046 H   0  0  0  0  0  0  0  0  0  0  0  0
   -4.3094   -1.4571   -1.9862 H   0  0  0  0  0  0  0  0  0  0  0  0
   -5.6734   -0.3251   -1.8990 H   0  0  0  0  0  0  0  0  0  0  0  0
   -4.4083    1.5710   -1.6175 H   0  0  0  0  0  0  0  0  0  0  0  0
   -3.9974    1.5235   -3.7858 H   0  0  0  0  0  0  0  0  0  0  0  0
   -2.0462    0.5688   -4.7435 H   0  0  0  0  0  0  0  0  0  0  0  0
   -1.6767    1.5271   -3.3126 H   0  0  0  0  0  0  0  0  0  0  0  0
   -0.5731   -0.6901   -3.4471 H   0  0  0  0  0  0  0  0  0  0  0  0
   -2.2322   -1.4417   -3.1632 H   0  0  0  0  0  0  0  0  0  0  0  0
   -1.7143   -1.2040   -0.9544 H   0  0  0  0  0  0  0  0  0  0  0  0
   -2.0565    1.7604   -1.3395 H   0  0  0  0  0  0  0  0  0  0  0  0
   -2.2262    1.5137    0.8421 H   0  0  0  0  0  0  0  0  0  0  0  0
   -2.2438   -0.3219    0.7037 H   0  0  0  0  0  0  0  0  0  0  0  0
   -4.6568    1.5021    0.3327 H   0  0  0  0  0  0  0  0  0  0  0  0
   -3.8482   -0.3641    2.6037 H   0  0  0  0  0  0  0  0  0  0  0  0
   -6.1516    1.3421    2.3338 H   0  0  0  0  0  0  0  0  0  0  0  0
   -3.1540    1.5721    3.4510 H   0  0  0  0  0  0  0  0  0  0  0  0
   -3.6816    2.4388    2.0375 H   0  0  0  0  0  0  0  0  0  0  0  0
   -0.1045   -1.2814    0.1162 H   0  0  0  0  0  0  0  0  0  0  0  0
    1.8368   -2.0630   -0.6468 H   0  0  0  0  0  0  0  0  0  0  0  0
    1.9339   -0.7306   -1.8150 H   0  0  0  0  0  0  0  0  0  0  0  0
    3.1930    0.6055   -0.3534 H   0  0  0  0  0  0  0  0  0  0  0  0
    3.4610   -1.5529    1.7234 H   0  0  0  0  0  0  0  0  0  0  0  0
    1.4634   -0.1540    2.9934 H   0  0  0  0  0  0  0  0  0  0  0  0
    1.1560   -1.5801    1.8631 H   0  0  0  0  0  0  0  0  0  0  0  0
   -0.1131    0.7187    1.6002 H   0  0  0  0  0  0  0  0  0  0  0  0
    1.4950    1.2310    0.8677 H   0  0  0  0  0  0  0  0  0  0  0  0
    3.2434    1.4071    1.8788 H   0  0  0  0  0  0  0  0  0  0  0  0
    5.4620    1.3736    2.5297 H   0  0  0  0  0  0  0  0  0  0  0  0
    6.1805   -0.5267    3.0443 H   0  0  0  0  0  0  0  0  0  0  0  0
    5.0543    1.9472    0.2274 H   0  0  0  0  0  0  0  0  0  0  0  0
    7.3405    1.9200    0.8808 H   0  0  0  0  0  0  0  0  0  0  0  0
    7.2733   -1.2304    0.4765 H   0  0  0  0  0  0  0  0  0  0  0  0
    8.7014   -0.1781    1.0161 H   0  0  0  0  0  0  0  0  0  0  0  0
    6.9912    0.0286   -1.6418 H   0  0  0  0  0  0  0  0  0  0  0  0
    8.5149    1.0523   -1.1351 H   0  0  0  0  0  0  0  0  0  0  0  0
  1  2  1  0
  2  3  1  0
  3  4  1  0
  4  5  1  0
  5  6  1  0
  6  7  1  0
  7  8  1  0
  8  9  1  0
  5 10  1  0
  9 10  1  0
 10 11  1  0
  3 12  1  0
 11 12  1  0
 12 13  1  0
 13 14  1  0
 13 15  1  0
  9 16  1  0
 16 17  1  0
 17 18  1  0
 18 19  1  0
 19 20  1  0
 20 21  1  0
 17 22  1  0
 21 22  1  0
 20 23  1  0
 23 24  1  0
 24 25  1  0
 24 26  1  0
 26 27  1  0
 27 28  1  0
 27 29  1  0
 28 29  1  0
 19 30  1  0
  1 31  1  0
  1 32  1  0
  1 33  1  0
  3 34  1  0
  4 35  1  0
  4 36  1  0
  5 37  1  0
  6 38  1  0
  7 39  1  0
  7 40  1  0
  8 41  1  0
  8 42  1  0
  9 43  1  1
 10 44  1  0
 11 45  1  0
 11 46  1  0
 12 47  1  6
 13 48  1  1
 14 49  1  0
 15 50  1  0
 15 51  1  0
 17 52  1  1
 18 53  1  0
 18 54  1  0
 19 55  1  1
 20 56  1  6
 21 57  1  0
 21 58  1  0
 22 59  1  0
 22 60  1  0
 23 61  1  0
 24 62  1  0
 25 63  1  0
 26 64  1  0
 27 65  1  0
 28 66  1  0
 28 67  1  0
 29 68  1  0
 29 69  1  0
M  END
>  <PDBID>  (1) 
3WZD

>  <PDB ID>  (1) 
3WZD

>  <Generic Name>  (1) 
Lenvatinib

>  <Brand Name>  (1) 
Lenvima

>  <DrugBank ID>  (1) 
DB09078

>  <ATC Codes>  (1) 
L01XE29

>  <Ligand ID>  (1) 
LEV

>  <Target Name>  (1) 
Vascular endothelial growth factor receptor 3

>  <UniProt ID>  (1) 
P35916

>  <PDB ID.1>  (1) 
3WZD

>  <Seq. Identity>  (1) 
67%

$$$$
