PDB_DB00299_04
     RDKit          3D

 82 84  0  0  0  0  0  0  0  0999 V2000
   -3.1579   -1.1225    1.1078 C   0  0  0  0  0  0  0  0  0  0  0  0
   -1.1171   -0.3803    0.2075 C   0  0  0  0  0  0  0  0  0  0  0  0
   -1.6289    0.9642    0.6063 C   0  0  0  0  0  0  0  0  0  0  0  0
    3.9679    1.0424    0.2353 C   0  0  0  0  0  0  0  0  0  0  0  0
    5.3250    0.7938    0.1455 O   0  0  0  0  0  0  0  0  0  0  0  0
    3.5019   -1.3469    0.0493 C   0  0  0  0  0  0  0  0  0  0  0  0
    2.9026   -2.4236   -0.5427 O   0  0  0  0  0  0  0  0  0  0  0  0
    3.1793   -0.0267   -0.5537 C   0  0  0  0  0  0  0  0  0  0  0  0
    1.7247    0.2731   -0.4930 C   0  0  0  0  0  0  0  0  0  0  0  0
    0.8257   -0.6623   -1.2121 C   0  0  0  0  0  0  0  0  0  0  0  0
   -0.5777   -0.2574   -1.1228 N   0  0  0  0  0  0  0  0  0  0  0  0
   -2.0839   -1.4368    0.2173 N   0  0  0  0  0  0  0  0  0  0  0  0
   -4.0662   -2.2634    1.1190 N   0  0  0  0  0  0  0  0  0  0  0  0
   -3.8855   -0.0081    0.5286 N   0  0  0  0  0  0  0  0  0  0  0  0
   -3.0849    1.1868    0.4569 C   0  0  0  0  0  0  0  0  0  0  0  0
   -3.4431    1.8679   -0.7026 O   0  0  0  0  0  0  0  0  0  0  0  0
   -0.8461    1.8488   -0.2672 N   0  0  0  0  0  0  0  0  0  0  0  0
   -0.7587    1.1233   -1.5259 C   0  0  0  0  0  0  0  0  0  0  0  0
   -3.1579   -1.1225    1.1078 C   0  0  0  0  0  0  0  0  0  0  0  0
   -1.1171   -0.3803    0.2075 C   0  0  0  0  0  0  0  0  0  0  0  0
   -1.6289    0.9642    0.6063 C   0  0  0  0  0  0  0  0  0  0  0  0
    3.9679    1.0424    0.2353 C   0  0  0  0  0  0  0  0  0  0  0  0
    5.3250    0.7938    0.1455 O   0  0  0  0  0  0  0  0  0  0  0  0
    3.5019   -1.3469    0.0493 C   0  0  0  0  0  0  0  0  0  0  0  0
    2.9026   -2.4236   -0.5427 O   0  0  0  0  0  0  0  0  0  0  0  0
    3.1793   -0.0267   -0.5537 C   0  0  0  0  0  0  0  0  0  0  0  0
    1.7247    0.2731   -0.4930 C   0  0  0  0  0  0  0  0  0  0  0  0
    0.8257   -0.6623   -1.2121 C   0  0  0  0  0  0  0  0  0  0  0  0
   -0.5777   -0.2574   -1.1228 N   0  0  0  0  0  0  0  0  0  0  0  0
   -2.0839   -1.4368    0.2173 N   0  0  0  0  0  0  0  0  0  0  0  0
   -4.0662   -2.2634    1.1190 N   0  0  0  0  0  0  0  0  0  0  0  0
   -3.8855   -0.0081    0.5286 N   0  0  0  0  0  0  0  0  0  0  0  0
   -3.0849    1.1868    0.4569 C   0  0  0  0  0  0  0  0  0  0  0  0
   -3.4431    1.8679   -0.7026 O   0  0  0  0  0  0  0  0  0  0  0  0
   -0.8461    1.8488   -0.2672 N   0  0  0  0  0  0  0  0  0  0  0  0
   -0.7587    1.1233   -1.5259 C   0  0  0  0  0  0  0  0  0  0  0  0
   -2.8550   -0.8522    2.1262 H   0  0  0  0  0  0  0  0  0  0  0  0
   -0.2859   -0.7092    0.8886 H   0  0  0  0  0  0  0  0  0  0  0  0
   -1.3152    1.1404    1.6672 H   0  0  0  0  0  0  0  0  0  0  0  0
    3.5975    0.9674    1.2832 H   0  0  0  0  0  0  0  0  0  0  0  0
    3.7277    2.0218   -0.2013 H   0  0  0  0  0  0  0  0  0  0  0  0
    5.7929    1.1653    0.9207 H   0  0  0  0  0  0  0  0  0  0  0  0
    4.6181   -1.4822   -0.0770 H   0  0  0  0  0  0  0  0  0  0  0  0
    3.3404   -1.3368    1.1511 H   0  0  0  0  0  0  0  0  0  0  0  0
    3.1886   -2.5015   -1.4810 H   0  0  0  0  0  0  0  0  0  0  0  0
    3.5421   -0.0096   -1.6058 H   0  0  0  0  0  0  0  0  0  0  0  0
    1.4452    0.3004    0.6035 H   0  0  0  0  0  0  0  0  0  0  0  0
    1.5964    1.3347   -0.8109 H   0  0  0  0  0  0  0  0  0  0  0  0
    1.0913   -0.7564   -2.2762 H   0  0  0  0  0  0  0  0  0  0  0  0
    0.8356   -1.6718   -0.7446 H   0  0  0  0  0  0  0  0  0  0  0  0
   -2.4622   -1.6613   -0.7073 H   0  0  0  0  0  0  0  0  0  0  0  0
   -3.4656   -3.1378    1.0589 H   0  0  0  0  0  0  0  0  0  0  0  0
   -4.6183   -2.2562    0.2397 H   0  0  0  0  0  0  0  0  0  0  0  0
   -4.8180    0.1100    0.9423 H   0  0  0  0  0  0  0  0  0  0  0  0
   -3.4261    1.8424    1.3066 H   0  0  0  0  0  0  0  0  0  0  0  0
   -3.3544    2.8620   -0.5864 H   0  0  0  0  0  0  0  0  0  0  0  0
   -1.3204    2.7729   -0.3857 H   0  0  0  0  0  0  0  0  0  0  0  0
    0.0618    1.4738   -2.1475 H   0  0  0  0  0  0  0  0  0  0  0  0
   -1.6935    1.2114   -2.1022 H   0  0  0  0  0  0  0  0  0  0  0  0
   -2.8550   -0.8522    2.1262 H   0  0  0  0  0  0  0  0  0  0  0  0
   -0.2859   -0.7092    0.8886 H   0  0  0  0  0  0  0  0  0  0  0  0
   -1.3152    1.1404    1.6672 H   0  0  0  0  0  0  0  0  0  0  0  0
    3.5975    0.9674    1.2832 H   0  0  0  0  0  0  0  0  0  0  0  0
    3.7277    2.0218   -0.2013 H   0  0  0  0  0  0  0  0  0  0  0  0
    5.7929    1.1653    0.9207 H   0  0  0  0  0  0  0  0  0  0  0  0
    4.6181   -1.4822   -0.0770 H   0  0  0  0  0  0  0  0  0  0  0  0
    3.3404   -1.3368    1.1511 H   0  0  0  0  0  0  0  0  0  0  0  0
    3.1886   -2.5015   -1.4810 H   0  0  0  0  0  0  0  0  0  0  0  0
    3.5421   -0.0096   -1.6058 H   0  0  0  0  0  0  0  0  0  0  0  0
    1.4452    0.3004    0.6035 H   0  0  0  0  0  0  0  0  0  0  0  0
    1.5964    1.3347   -0.8109 H   0  0  0  0  0  0  0  0  0  0  0  0
    1.0913   -0.7564   -2.2762 H   0  0  0  0  0  0  0  0  0  0  0  0
    0.8356   -1.6718   -0.7446 H   0  0  0  0  0  0  0  0  0  0  0  0
   -2.4622   -1.6613   -0.7073 H   0  0  0  0  0  0  0  0  0  0  0  0
   -3.4656   -3.1378    1.0589 H   0  0  0  0  0  0  0  0  0  0  0  0
   -4.6183   -2.2562    0.2397 H   0  0  0  0  0  0  0  0  0  0  0  0
   -4.8180    0.1100    0.9423 H   0  0  0  0  0  0  0  0  0  0  0  0
   -3.4261    1.8424    1.3066 H   0  0  0  0  0  0  0  0  0  0  0  0
   -3.3544    2.8620   -0.5864 H   0  0  0  0  0  0  0  0  0  0  0  0
   -1.3204    2.7729   -0.3857 H   0  0  0  0  0  0  0  0  0  0  0  0
    0.0618    1.4738   -2.1475 H   0  0  0  0  0  0  0  0  0  0  0  0
   -1.6935    1.2114   -2.1022 H   0  0  0  0  0  0  0  0  0  0  0  0
  2  3  1  0
  4  5  1  0
  6  7  1  0
  4  8  1  0
  6  8  1  0
  8  9  1  0
  9 10  1  0
  2 11  1  0
 10 11  1  0
  1 12  1  0
  2 12  1  0
  1 13  1  0
  1 14  1  0
  3 15  1  0
 14 15  1  0
 15 16  1  0
  3 17  1  0
 11 18  1  0
 17 18  1  0
 20 21  1  0
 22 23  1  0
 24 25  1  0
 22 26  1  0
 24 26  1  0
 26 27  1  0
 27 28  1  0
 20 29  1  0
 28 29  1  0
 19 30  1  0
 20 30  1  0
 19 31  1  0
 19 32  1  0
 21 33  1  0
 32 33  1  0
 33 34  1  0
 21 35  1  0
 29 36  1  0
 35 36  1  0
  1 37  1  0
  2 38  1  0
  3 39  1  0
  4 40  1  0
  4 41  1  0
  5 42  1  0
  6 43  1  0
  6 44  1  0
  7 45  1  0
  8 46  1  0
  9 47  1  0
  9 48  1  0
 10 49  1  0
 10 50  1  0
 12 51  1  0
 13 52  1  0
 13 53  1  0
 14 54  1  0
 15 55  1  0
 16 56  1  0
 17 57  1  0
 18 58  1  0
 18 59  1  0
 19 60  1  0
 20 61  1  0
 21 62  1  0
 22 63  1  0
 22 64  1  0
 23 65  1  0
 24 66  1  0
 24 67  1  0
 25 68  1  0
 26 69  1  0
 27 70  1  0
 27 71  1  0
 28 72  1  0
 28 73  1  0
 30 74  1  0
 31 75  1  0
 31 76  1  0
 32 77  1  0
 33 78  1  0
 34 79  1  0
 35 80  1  0
 36 81  1  0
 36 82  1  0
M  END
>  <PDBID>  (1) 
1KI3

>  <PDB ID>  (1) 
1KI3

>  <Generic Name>  (1) 
Penciclovir

>  <Brand Name>  (1) 
Denavir#Penciclovir

>  <DrugBank ID>  (1) 
DB00299

>  <ATC Codes>  (1) 
D06BB06#J05AB13

>  <Ligand ID>  (1) 
PE2

>  <Target Name>  (1) 
Thymidine kinase

>  <UniProt ID>  (1) 
P06478

>  <PDB ID.1>  (1) 
1KI3

>  <Seq. Identity>  (1) 
98%

$$$$
