PDB_DB00476_01
     RDKit          3D

 54 56  0  0  0  0  0  0  0  0999 V2000
   -5.1873    1.7299   -1.9879 C   0  0  0  0  0  0  0  0  0  0  0  0
   -4.1028    0.9231   -1.4651 N   0  0  0  0  0  0  0  0  0  0  0  0
   -2.9884    0.8518   -2.3511 C   0  0  0  0  0  0  0  0  0  0  0  0
   -1.8200    0.0420   -1.8986 C   0  0  0  0  0  0  0  0  0  0  0  0
   -1.1128    0.4638   -0.6761 C   0  0  1  0  0  0  0  0  0  0  0  0
   -2.0236    0.4475    0.5055 C   0  0  0  0  0  0  0  0  0  0  0  0
   -1.1713    0.9562    2.0609 S   0  0  0  0  0  0  0  0  0  0  0  0
   -2.0877   -0.1739    3.1873 C   0  0  0  0  0  0  0  0  0  0  0  0
   -3.1850   -0.6496    2.2274 C   0  0  0  0  0  0  0  0  0  0  0  0
   -2.4772   -0.9259    0.9141 C   0  0  0  0  0  0  0  0  0  0  0  0
    0.1133   -0.0742   -0.4617 O   0  0  0  0  0  0  0  0  0  0  0  0
    1.2229    0.6713   -0.5216 C   0  0  0  0  0  0  0  0  0  0  0  0
    2.3685    0.3287    0.3811 C   0  0  0  0  0  0  0  0  0  0  0  0
    2.2562    0.7592    1.7961 C   0  0  0  0  0  0  0  0  0  0  0  0
    3.6124    0.7587    2.4395 C   0  0  0  0  0  0  0  0  0  0  0  0
    4.5772   -0.2020    1.8225 C   0  0  0  0  0  0  0  0  0  0  0  0
    4.0000   -1.3397    1.0773 C   0  0  0  0  0  0  0  0  0  0  0  0
    2.6999   -1.1436    0.3940 C   0  0  0  0  0  0  0  0  0  0  0  0
    2.7272   -1.7630   -0.9590 C   0  0  0  0  0  0  0  0  0  0  0  0
    1.7406   -1.2329   -1.9407 C   0  0  0  0  0  0  0  0  0  0  0  0
    1.8237    0.2767   -1.9299 C   0  0  0  0  0  0  0  0  0  0  0  0
   -5.4630    1.2845   -2.9844 H   0  0  0  0  0  0  0  0  0  0  0  0
   -4.8022    2.7550   -2.1295 H   0  0  0  0  0  0  0  0  0  0  0  0
   -6.0227    1.6641   -1.2792 H   0  0  0  0  0  0  0  0  0  0  0  0
   -4.4968    0.0112   -1.2076 H   0  0  0  0  0  0  0  0  0  0  0  0
   -3.4004    0.4668   -3.3335 H   0  0  0  0  0  0  0  0  0  0  0  0
   -2.6077    1.8881   -2.6128 H   0  0  0  0  0  0  0  0  0  0  0  0
   -1.1743   -0.0785   -2.7970 H   0  0  0  0  0  0  0  0  0  0  0  0
   -2.2384   -1.0128   -1.7818 H   0  0  0  0  0  0  0  0  0  0  0  0
   -0.8895    1.5725   -0.8470 H   0  0  0  0  0  0  0  0  0  0  0  0
   -2.9261    1.0850    0.4042 H   0  0  0  0  0  0  0  0  0  0  0  0
   -2.5801    0.4111    3.9641 H   0  0  0  0  0  0  0  0  0  0  0  0
   -1.4524   -0.9921    3.5292 H   0  0  0  0  0  0  0  0  0  0  0  0
   -3.9125    0.2019    2.1344 H   0  0  0  0  0  0  0  0  0  0  0  0
   -3.6707   -1.5676    2.5837 H   0  0  0  0  0  0  0  0  0  0  0  0
   -1.6132   -1.5788    1.1657 H   0  0  0  0  0  0  0  0  0  0  0  0
   -3.1973   -1.3894    0.2439 H   0  0  0  0  0  0  0  0  0  0  0  0
    1.1315    1.7579   -0.6812 H   0  0  0  0  0  0  0  0  0  0  0  0
    3.2796    0.8319   -0.0644 H   0  0  0  0  0  0  0  0  0  0  0  0
    1.7492    1.7254    1.9684 H   0  0  0  0  0  0  0  0  0  0  0  0
    1.6206   -0.0169    2.3184 H   0  0  0  0  0  0  0  0  0  0  0  0
    3.4684    0.5655    3.5232 H   0  0  0  0  0  0  0  0  0  0  0  0
    4.0460    1.7779    2.3613 H   0  0  0  0  0  0  0  0  0  0  0  0
    5.3010    0.3479    1.1544 H   0  0  0  0  0  0  0  0  0  0  0  0
    5.2120   -0.6039    2.6461 H   0  0  0  0  0  0  0  0  0  0  0  0
    3.9169   -2.2574    1.7324 H   0  0  0  0  0  0  0  0  0  0  0  0
    4.7533   -1.6716    0.3006 H   0  0  0  0  0  0  0  0  0  0  0  0
    1.8964   -1.6289    1.0238 H   0  0  0  0  0  0  0  0  0  0  0  0
    3.7519   -1.5835   -1.3888 H   0  0  0  0  0  0  0  0  0  0  0  0
    2.6269   -2.8645   -0.8586 H   0  0  0  0  0  0  0  0  0  0  0  0
    0.7176   -1.5370   -1.6496 H   0  0  0  0  0  0  0  0  0  0  0  0
    2.0032   -1.6309   -2.9401 H   0  0  0  0  0  0  0  0  0  0  0  0
    1.1515    0.6908   -2.6860 H   0  0  0  0  0  0  0  0  0  0  0  0
    2.8353    0.6721   -1.9417 H   0  0  0  0  0  0  0  0  0  0  0  0
  1  2  1  0
  2  3  1  0
  3  4  1  0
  4  5  1  0
  5  6  1  0
  6  7  1  0
  7  8  1  0
  8  9  1  0
  6 10  1  0
  9 10  1  0
  5 11  1  0
 11 12  1  0
 12 13  1  0
 13 14  1  0
 14 15  1  0
 15 16  1  0
 16 17  1  0
 13 18  1  0
 17 18  1  0
 18 19  1  0
 19 20  1  0
 12 21  1  0
 20 21  1  0
  1 22  1  0
  1 23  1  0
  1 24  1  0
  2 25  1  0
  3 26  1  0
  3 27  1  0
  4 28  1  0
  4 29  1  0
  5 30  1  6
  6 31  1  0
  8 32  1  0
  8 33  1  0
  9 34  1  0
  9 35  1  0
 10 36  1  0
 10 37  1  0
 12 38  1  0
 13 39  1  0
 14 40  1  0
 14 41  1  0
 15 42  1  0
 15 43  1  0
 16 44  1  0
 16 45  1  0
 17 46  1  0
 17 47  1  0
 18 48  1  0
 19 49  1  0
 19 50  1  0
 20 51  1  0
 20 52  1  0
 21 53  1  0
 21 54  1  0
M  END
>  <PDBID>  (1) 
4MM6

>  <PDB ID>  (1) 
4MM6

>  <Generic Name>  (1) 
Duloxetine

>  <Brand Name>  (1) 
Act Duloxetine#Apo-duloxetine#Auro-duloxetine#Cymbalta#Dom-duloxetine#Duloxetine#Duloxetine Delayed-release#Duloxetine Dr#Duloxetine Hydrochloride#Duloxetine Hydrochloride 20 mg#Duloxetine Hydrochloride 30 mg#Duloxetine Hydrochloride 60 mg#Ipg-duloxetine#Irenka#Jamp-duloxetine#Mar-duloxetine#Mint-duloxetine#Mylan-duloxetine#PMS-duloxetine#Ran-duloxetine#Riva-duloxetine#Sandoz Duloxetine#Taro-duloxetine#Teva-duloxetine Dr#Torrent-duloxetine#Ariclaim#Dulane#Duzela#Xeristar#Yentreve

>  <DrugBank ID>  (1) 
DB00476

>  <ATC Codes>  (1) 
N06AX21

>  <Ligand ID>  (1) 
29E

>  <Target Name>  (1) 
Sodium-dependent noradrenaline transporter

>  <UniProt ID>  (1) 
P23975

>  <PDB ID.1>  (1) 
4MM6

>  <Seq. Identity>  (1) 
30%

$$$$
