PDB_DB00703_00
     RDKit          3D

 30 30  0  0  0  0  0  0  0  0999 V2000
   -2.3852   -1.5358   -1.2493 N   0  0  0  0  0  0  0  0  0  0  0  0
   -2.8335   -0.5941   -0.0605 S   0  0  0  0  0  0  0  0  0  0  0  0
   -2.5924   -2.0226    1.3136 O   0  0  0  0  0  0  0  0  0  0  0  0
   -4.3059   -0.3244    0.2241 O   0  0  0  0  0  0  0  0  0  0  0  0
   -1.7030    0.3593    0.6486 C   0  0  1  0  0  0  0  0  0  0  0  0
   -0.2204   -0.5815    1.2194 S   0  0  0  0  0  0  0  0  0  0  0  0
    0.9761    0.7647    0.8684 C   0  0  2  0  0  0  0  0  0  0  0  0
    0.0200    1.8220    0.6010 N   0  0  0  0  0  0  0  0  0  0  0  0
    0.5952    3.0511    0.1978 C   0  0  0  0  0  0  0  0  0  0  0  0
   -0.9772    1.3117   -0.2032 N   0  0  0  0  0  0  0  0  0  0  0  0
    1.7379    0.4926   -0.2925 N   0  0  0  0  0  0  0  0  0  0  0  0
    2.5650   -0.6651   -0.2760 C   0  0  0  0  0  0  0  0  0  0  0  0
    3.5982   -0.5950    0.6580 O   0  0  0  0  0  0  0  0  0  0  0  0
    1.8391   -1.9789   -0.1370 C   0  0  0  0  0  0  0  0  0  0  0  0
   -1.9635   -2.4588   -1.1196 H   0  0  0  0  0  0  0  0  0  0  0  0
   -2.3854   -1.1413   -2.1864 H   0  0  0  0  0  0  0  0  0  0  0  0
   -3.2420   -2.6007    0.8921 H   0  0  0  0  0  0  0  0  0  0  0  0
   -4.5624   -0.0462    1.1309 H   0  0  0  0  0  0  0  0  0  0  0  0
   -2.1076    0.9850    1.4718 H   0  0  0  0  0  0  0  0  0  0  0  0
    1.5722    0.9983    1.7697 H   0  0  0  0  0  0  0  0  0  0  0  0
   -0.0151    3.8747    0.6757 H   0  0  0  0  0  0  0  0  0  0  0  0
    0.5987    3.2416   -0.8765 H   0  0  0  0  0  0  0  0  0  0  0  0
    1.6098    3.1575    0.6574 H   0  0  0  0  0  0  0  0  0  0  0  0
   -0.6013    0.8094   -1.0377 H   0  0  0  0  0  0  0  0  0  0  0  0
    2.3193    1.3101   -0.5244 H   0  0  0  0  0  0  0  0  0  0  0  0
    3.0867   -0.6996   -1.2731 H   0  0  0  0  0  0  0  0  0  0  0  0
    4.2075    0.1365    0.3851 H   0  0  0  0  0  0  0  0  0  0  0  0
    2.5711   -2.7546   -0.5263 H   0  0  0  0  0  0  0  0  0  0  0  0
    0.9605   -2.0512   -0.7910 H   0  0  0  0  0  0  0  0  0  0  0  0
    1.6376   -2.2647    0.9181 H   0  0  0  0  0  0  0  0  0  0  0  0
  1  2  1  0
  2  3  1  0
  2  4  1  0
  2  5  1  0
  5  6  1  0
  6  7  1  0
  7  8  1  0
  8  9  1  0
  5 10  1  0
  8 10  1  0
  7 11  1  0
 11 12  1  0
 12 13  1  0
 12 14  1  0
  1 15  1  0
  1 16  1  0
  3 17  1  0
  4 18  1  0
  5 19  1  1
  7 20  1  1
  9 21  1  0
  9 22  1  0
  9 23  1  0
 10 24  1  0
 11 25  1  0
 12 26  1  0
 13 27  1  0
 14 28  1  0
 14 29  1  0
 14 30  1  0
M  END
>  <PDBID>  (1) 
1BZM

>  <PDB ID>  (1) 
1BZM

>  <Generic Name>  (1) 
Methazolamide

>  <Brand Name>  (1) 
Methazolamide#Neptazane#Neptazane Tablets 25mg#Neptazane Tablets 25mg USP#Neptazane Tablets 50mg#Naptazane

>  <DrugBank ID>  (1) 
DB00703

>  <ATC Codes>  (1) 
S01EC05

>  <Ligand ID>  (1) 
MZM

>  <Target Name>  (1) 
Carbonic anhydrase 1

>  <UniProt ID>  (1) 
P00915

>  <PDB ID.1>  (1) 
1BZM

>  <Seq. Identity>  (1) 
100%

$$$$
