PDB_DB00552_06
     RDKit          3D

164172  0  0  0  0  0  0  0  0999 V2000
   -1.9095    1.3417   -1.5491 N   0  0  0  0  0  0  0  0  0  0  0  0
   -0.4380    1.4148   -1.6991 C   0  0  0  0  0  0  0  0  0  0  0  0
    0.0573    0.6681   -0.6038 N   0  0  0  0  0  0  0  0  0  0  0  0
   -1.9739   -0.0725   -1.1790 C   0  0  1  0  0  0  0  0  0  0  0  0
   -1.0458   -0.0881   -0.0188 C   0  0  2  0  0  0  0  0  0  0  0  0
   -1.4096    0.6762    1.1173 N   0  0  0  0  0  0  0  0  0  0  0  0
   -2.7002    0.5504    1.6439 C   0  0  0  0  0  0  0  0  0  0  0  0
   -3.2099   -0.7844    1.3823 N   0  0  0  0  0  0  0  0  0  0  0  0
   -4.0138   -0.6596    0.1945 C   0  0  0  0  0  0  0  0  0  0  0  0
   -3.2750   -0.6848   -1.0857 C   0  0  1  0  0  0  0  0  0  0  0  0
   -4.1302   -0.1271   -2.0677 O   0  0  0  0  0  0  0  0  0  0  0  0
    2.3898    0.9649   -0.9631 C   0  0  0  0  0  0  0  0  0  0  0  0
    3.5489    0.4277   -0.1134 C   0  0  2  0  0  0  0  0  0  0  0  0
    4.6984    0.3643   -0.8637 O   0  0  0  0  0  0  0  0  0  0  0  0
    4.9633   -1.6892    1.4337 O   0  0  0  0  0  0  0  0  0  0  0  0
    3.6209   -1.3333    1.5848 C   0  0  0  0  0  0  0  0  0  0  0  0
    3.0021   -0.9202    0.2807 C   0  0  1  0  0  0  0  0  0  0  0  0
    1.6441   -0.5737    0.4870 O   0  0  0  0  0  0  0  0  0  0  0  0
    1.2656   -0.0215   -0.7330 C   0  0  1  0  0  0  0  0  0  0  0  0
   -1.7227    1.1418   -2.0635 N   0  0  0  0  0  0  0  0  0  0  0  0
   -0.2517    1.1630   -1.9970 C   0  0  0  0  0  0  0  0  0  0  0  0
    0.0770    0.6344   -0.7233 N   0  0  0  0  0  0  0  0  0  0  0  0
   -2.0108   -0.0635   -1.3275 C   0  0  0  0  0  0  0  0  0  0  0  0
   -1.0940    0.0070   -0.1551 C   0  0  2  0  0  0  0  0  0  0  0  0
   -1.5445    0.9115    0.8824 N   0  0  0  0  0  0  0  0  0  0  0  0
   -2.6960    0.4715    1.5887 C   0  0  0  0  0  0  0  0  0  0  0  0
   -3.0882   -0.8728    1.3064 N   0  0  0  0  0  0  0  0  0  0  0  0
   -3.8206   -1.0656    0.1057 C   0  0  0  0  0  0  0  0  0  0  0  0
   -3.4570   -0.1358   -1.0225 C   0  0  1  0  0  0  0  0  0  0  0  0
   -4.0451    1.1314   -0.8758 O   0  0  0  0  0  0  0  0  0  0  0  0
    2.4275    0.8156   -1.0252 C   0  0  0  0  0  0  0  0  0  0  0  0
    3.5426    0.3975   -0.0796 C   0  0  2  0  0  0  0  0  0  0  0  0
    4.7304    0.2206   -0.7510 O   0  0  0  0  0  0  0  0  0  0  0  0
    4.9433   -1.4752    1.7356 O   0  0  0  0  0  0  0  0  0  0  0  0
    3.5947   -1.1584    1.7991 C   0  0  0  0  0  0  0  0  0  0  0  0
    2.9864   -0.9081    0.4576 C   0  0  1  0  0  0  0  0  0  0  0  0
    1.6189   -0.5859    0.5720 O   0  0  0  0  0  0  0  0  0  0  0  0
    1.2761   -0.1119   -0.6826 C   0  0  1  0  0  0  0  0  0  0  0  0
   -1.9095    1.3417   -1.5491 N   0  0  0  0  0  0  0  0  0  0  0  0
   -0.4380    1.4148   -1.6991 C   0  0  0  0  0  0  0  0  0  0  0  0
    0.0573    0.6681   -0.6038 N   0  0  0  0  0  0  0  0  0  0  0  0
   -1.9739   -0.0725   -1.1790 C   0  0  1  0  0  0  0  0  0  0  0  0
   -1.0458   -0.0881   -0.0188 C   0  0  2  0  0  0  0  0  0  0  0  0
   -1.4096    0.6762    1.1173 N   0  0  0  0  0  0  0  0  0  0  0  0
   -2.7002    0.5504    1.6439 C   0  0  0  0  0  0  0  0  0  0  0  0
   -3.2099   -0.7844    1.3823 N   0  0  0  0  0  0  0  0  0  0  0  0
   -4.0138   -0.6596    0.1945 C   0  0  0  0  0  0  0  0  0  0  0  0
   -3.2750   -0.6848   -1.0857 C   0  0  1  0  0  0  0  0  0  0  0  0
   -4.1302   -0.1271   -2.0677 O   0  0  0  0  0  0  0  0  0  0  0  0
    2.3898    0.9649   -0.9631 C   0  0  0  0  0  0  0  0  0  0  0  0
    3.5489    0.4277   -0.1134 C   0  0  2  0  0  0  0  0  0  0  0  0
    4.6984    0.3643   -0.8637 O   0  0  0  0  0  0  0  0  0  0  0  0
    4.9633   -1.6892    1.4337 O   0  0  0  0  0  0  0  0  0  0  0  0
    3.6209   -1.3333    1.5848 C   0  0  0  0  0  0  0  0  0  0  0  0
    3.0021   -0.9202    0.2807 C   0  0  1  0  0  0  0  0  0  0  0  0
    1.6441   -0.5737    0.4870 O   0  0  0  0  0  0  0  0  0  0  0  0
    1.2656   -0.0215   -0.7330 C   0  0  1  0  0  0  0  0  0  0  0  0
   -1.9095    1.3417   -1.5491 N   0  0  0  0  0  0  0  0  0  0  0  0
   -0.4380    1.4148   -1.6991 C   0  0  0  0  0  0  0  0  0  0  0  0
    0.0573    0.6681   -0.6038 N   0  0  0  0  0  0  0  0  0  0  0  0
   -1.9739   -0.0725   -1.1790 C   0  0  1  0  0  0  0  0  0  0  0  0
   -1.0458   -0.0881   -0.0188 C   0  0  2  0  0  0  0  0  0  0  0  0
   -1.4096    0.6762    1.1173 N   0  0  0  0  0  0  0  0  0  0  0  0
   -2.7002    0.5504    1.6439 C   0  0  0  0  0  0  0  0  0  0  0  0
   -3.2099   -0.7844    1.3823 N   0  0  0  0  0  0  0  0  0  0  0  0
   -4.0138   -0.6596    0.1945 C   0  0  0  0  0  0  0  0  0  0  0  0
   -3.2750   -0.6848   -1.0857 C   0  0  1  0  0  0  0  0  0  0  0  0
   -4.1302   -0.1271   -2.0677 O   0  0  0  0  0  0  0  0  0  0  0  0
    2.3898    0.9649   -0.9631 C   0  0  0  0  0  0  0  0  0  0  0  0
    3.5489    0.4277   -0.1134 C   0  0  2  0  0  0  0  0  0  0  0  0
    4.6984    0.3643   -0.8637 O   0  0  0  0  0  0  0  0  0  0  0  0
    4.9633   -1.6892    1.4337 O   0  0  0  0  0  0  0  0  0  0  0  0
    3.6209   -1.3333    1.5848 C   0  0  0  0  0  0  0  0  0  0  0  0
    3.0021   -0.9202    0.2807 C   0  0  1  0  0  0  0  0  0  0  0  0
    1.6441   -0.5737    0.4870 O   0  0  0  0  0  0  0  0  0  0  0  0
    1.2656   -0.0215   -0.7330 C   0  0  1  0  0  0  0  0  0  0  0  0
   -2.0986    1.9337   -0.6893 H   0  0  0  0  0  0  0  0  0  0  0  0
   -0.1090    2.4560   -1.7711 H   0  0  0  0  0  0  0  0  0  0  0  0
   -0.2325    0.8538   -2.6554 H   0  0  0  0  0  0  0  0  0  0  0  0
   -1.4080   -0.5834   -2.0227 H   0  0  0  0  0  0  0  0  0  0  0  0
   -0.7285   -1.1190    0.1763 H   0  0  0  0  0  0  0  0  0  0  0  0
   -0.6892    0.4792    1.8626 H   0  0  0  0  0  0  0  0  0  0  0  0
   -3.4014    1.3349    1.2391 H   0  0  0  0  0  0  0  0  0  0  0  0
   -2.6739    0.7175    2.7407 H   0  0  0  0  0  0  0  0  0  0  0  0
   -2.4480   -1.4637    1.2149 H   0  0  0  0  0  0  0  0  0  0  0  0
   -4.5877    0.2900    0.2635 H   0  0  0  0  0  0  0  0  0  0  0  0
   -4.7708   -1.4852    0.2206 H   0  0  0  0  0  0  0  0  0  0  0  0
   -3.2118   -1.7720   -1.3956 H   0  0  0  0  0  0  0  0  0  0  0  0
   -4.3645    0.7728   -1.6994 H   0  0  0  0  0  0  0  0  0  0  0  0
    2.1406    1.9637   -0.5316 H   0  0  0  0  0  0  0  0  0  0  0  0
    2.6639    1.0211   -2.0195 H   0  0  0  0  0  0  0  0  0  0  0  0
    3.6529    1.0130    0.8360 H   0  0  0  0  0  0  0  0  0  0  0  0
    4.9741    1.3139   -1.0295 H   0  0  0  0  0  0  0  0  0  0  0  0
    5.1559   -2.0302    0.5105 H   0  0  0  0  0  0  0  0  0  0  0  0
    3.0992   -2.1857    2.0677 H   0  0  0  0  0  0  0  0  0  0  0  0
    3.5900   -0.4689    2.2962 H   0  0  0  0  0  0  0  0  0  0  0  0
    3.1231   -1.6830   -0.4979 H   0  0  0  0  0  0  0  0  0  0  0  0
    1.2399   -0.8121   -1.5089 H   0  0  0  0  0  0  0  0  0  0  0  0
   -2.0662    1.9859   -1.5752 H   0  0  0  0  0  0  0  0  0  0  0  0
    0.0379    2.2266   -2.0436 H   0  0  0  0  0  0  0  0  0  0  0  0
    0.1423    0.5993   -2.8669 H   0  0  0  0  0  0  0  0  0  0  0  0
   -1.7209   -0.9297   -1.9452 H   0  0  0  0  0  0  0  0  0  0  0  0
   -0.8099   -0.9878    0.2078 H   0  0  0  0  0  0  0  0  0  0  0  0
   -0.7239    1.0226    1.5418 H   0  0  0  0  0  0  0  0  0  0  0  0
   -3.5604    1.1779    1.4395 H   0  0  0  0  0  0  0  0  0  0  0  0
   -2.4898    0.5336    2.6955 H   0  0  0  0  0  0  0  0  0  0  0  0
   -2.3116   -1.5161    1.4866 H   0  0  0  0  0  0  0  0  0  0  0  0
   -4.9140   -0.8900    0.3170 H   0  0  0  0  0  0  0  0  0  0  0  0
   -3.7360   -2.1144   -0.2084 H   0  0  0  0  0  0  0  0  0  0  0  0
   -3.9668   -0.5649   -1.9378 H   0  0  0  0  0  0  0  0  0  0  0  0
   -5.0429    0.9978   -0.9125 H   0  0  0  0  0  0  0  0  0  0  0  0
    2.1586    1.8735   -0.7287 H   0  0  0  0  0  0  0  0  0  0  0  0
    2.7220    0.7501   -2.0736 H   0  0  0  0  0  0  0  0  0  0  0  0
    3.6754    1.1108    0.7591 H   0  0  0  0  0  0  0  0  0  0  0  0
    5.0708    1.1128   -1.0052 H   0  0  0  0  0  0  0  0  0  0  0  0
    5.0921   -1.8179    0.7967 H   0  0  0  0  0  0  0  0  0  0  0  0
    3.0671   -2.0275    2.2608 H   0  0  0  0  0  0  0  0  0  0  0  0
    3.4695   -0.3237    2.5047 H   0  0  0  0  0  0  0  0  0  0  0  0
    3.1344   -1.7532   -0.2294 H   0  0  0  0  0  0  0  0  0  0  0  0
    1.3060   -0.9829   -1.3726 H   0  0  0  0  0  0  0  0  0  0  0  0
   -2.0986    1.9337   -0.6893 H   0  0  0  0  0  0  0  0  0  0  0  0
   -0.1090    2.4560   -1.7711 H   0  0  0  0  0  0  0  0  0  0  0  0
   -0.2325    0.8538   -2.6554 H   0  0  0  0  0  0  0  0  0  0  0  0
   -1.4080   -0.5834   -2.0227 H   0  0  0  0  0  0  0  0  0  0  0  0
   -0.7285   -1.1190    0.1763 H   0  0  0  0  0  0  0  0  0  0  0  0
   -0.6892    0.4792    1.8626 H   0  0  0  0  0  0  0  0  0  0  0  0
   -3.4014    1.3349    1.2391 H   0  0  0  0  0  0  0  0  0  0  0  0
   -2.6739    0.7175    2.7407 H   0  0  0  0  0  0  0  0  0  0  0  0
   -2.4480   -1.4637    1.2149 H   0  0  0  0  0  0  0  0  0  0  0  0
   -4.5877    0.2900    0.2635 H   0  0  0  0  0  0  0  0  0  0  0  0
   -4.7708   -1.4852    0.2206 H   0  0  0  0  0  0  0  0  0  0  0  0
   -3.2118   -1.7720   -1.3956 H   0  0  0  0  0  0  0  0  0  0  0  0
   -4.3645    0.7728   -1.6994 H   0  0  0  0  0  0  0  0  0  0  0  0
    2.1406    1.9637   -0.5316 H   0  0  0  0  0  0  0  0  0  0  0  0
    2.6639    1.0211   -2.0195 H   0  0  0  0  0  0  0  0  0  0  0  0
    3.6529    1.0130    0.8360 H   0  0  0  0  0  0  0  0  0  0  0  0
    4.9741    1.3139   -1.0295 H   0  0  0  0  0  0  0  0  0  0  0  0
    5.1559   -2.0302    0.5105 H   0  0  0  0  0  0  0  0  0  0  0  0
    3.0992   -2.1857    2.0677 H   0  0  0  0  0  0  0  0  0  0  0  0
    3.5900   -0.4689    2.2962 H   0  0  0  0  0  0  0  0  0  0  0  0
    3.1231   -1.6830   -0.4979 H   0  0  0  0  0  0  0  0  0  0  0  0
    1.2399   -0.8121   -1.5089 H   0  0  0  0  0  0  0  0  0  0  0  0
   -2.0986    1.9337   -0.6893 H   0  0  0  0  0  0  0  0  0  0  0  0
   -0.1090    2.4560   -1.7711 H   0  0  0  0  0  0  0  0  0  0  0  0
   -0.2325    0.8538   -2.6554 H   0  0  0  0  0  0  0  0  0  0  0  0
   -1.4080   -0.5834   -2.0227 H   0  0  0  0  0  0  0  0  0  0  0  0
   -0.7285   -1.1190    0.1763 H   0  0  0  0  0  0  0  0  0  0  0  0
   -0.6892    0.4792    1.8626 H   0  0  0  0  0  0  0  0  0  0  0  0
   -3.4014    1.3349    1.2391 H   0  0  0  0  0  0  0  0  0  0  0  0
   -2.6739    0.7175    2.7407 H   0  0  0  0  0  0  0  0  0  0  0  0
   -2.4480   -1.4637    1.2149 H   0  0  0  0  0  0  0  0  0  0  0  0
   -4.5877    0.2900    0.2635 H   0  0  0  0  0  0  0  0  0  0  0  0
   -4.7708   -1.4852    0.2206 H   0  0  0  0  0  0  0  0  0  0  0  0
   -3.2118   -1.7720   -1.3956 H   0  0  0  0  0  0  0  0  0  0  0  0
   -4.3645    0.7728   -1.6994 H   0  0  0  0  0  0  0  0  0  0  0  0
    2.1406    1.9637   -0.5316 H   0  0  0  0  0  0  0  0  0  0  0  0
    2.6639    1.0211   -2.0195 H   0  0  0  0  0  0  0  0  0  0  0  0
    3.6529    1.0130    0.8360 H   0  0  0  0  0  0  0  0  0  0  0  0
    4.9741    1.3139   -1.0295 H   0  0  0  0  0  0  0  0  0  0  0  0
    5.1559   -2.0302    0.5105 H   0  0  0  0  0  0  0  0  0  0  0  0
    3.0992   -2.1857    2.0677 H   0  0  0  0  0  0  0  0  0  0  0  0
    3.5900   -0.4689    2.2962 H   0  0  0  0  0  0  0  0  0  0  0  0
    3.1231   -1.6830   -0.4979 H   0  0  0  0  0  0  0  0  0  0  0  0
    1.2399   -0.8121   -1.5089 H   0  0  0  0  0  0  0  0  0  0  0  0
  1  2  1  0
  2  3  1  0
  1  4  1  0
  3  5  1  0
  4  5  1  0
  5  6  1  0
  6  7  1  0
  7  8  1  0
  8  9  1  0
  4 10  1  0
  9 10  1  0
 10 11  1  0
 12 13  1  0
 13 14  1  0
 15 16  1  0
 13 17  1  0
 16 17  1  0
 17 18  1  0
  3 19  1  0
 12 19  1  0
 18 19  1  0
 20 21  1  0
 21 22  1  0
 20 23  1  0
 22 24  1  0
 23 24  1  0
 24 25  1  0
 25 26  1  0
 26 27  1  0
 27 28  1  0
 23 29  1  0
 28 29  1  0
 29 30  1  0
 31 32  1  0
 32 33  1  0
 34 35  1  0
 32 36  1  0
 35 36  1  0
 36 37  1  0
 22 38  1  0
 31 38  1  0
 37 38  1  0
 39 40  1  0
 40 41  1  0
 39 42  1  0
 41 43  1  0
 42 43  1  0
 43 44  1  0
 44 45  1  0
 45 46  1  0
 46 47  1  0
 42 48  1  0
 47 48  1  0
 48 49  1  0
 50 51  1  0
 51 52  1  0
 53 54  1  0
 51 55  1  0
 54 55  1  0
 55 56  1  0
 41 57  1  0
 50 57  1  0
 56 57  1  0
 58 59  1  0
 59 60  1  0
 58 61  1  0
 60 62  1  0
 61 62  1  0
 62 63  1  0
 63 64  1  0
 64 65  1  0
 65 66  1  0
 61 67  1  0
 66 67  1  0
 67 68  1  0
 69 70  1  0
 70 71  1  0
 72 73  1  0
 70 74  1  0
 73 74  1  0
 74 75  1  0
 60 76  1  0
 69 76  1  0
 75 76  1  0
  1 77  1  0
  2 78  1  0
  2 79  1  0
  4 80  1  6
  5 81  1  1
  6 82  1  0
  7 83  1  0
  7 84  1  0
  8 85  1  0
  9 86  1  0
  9 87  1  0
 10 88  1  6
 11 89  1  0
 12 90  1  0
 12 91  1  0
 13 92  1  1
 14 93  1  0
 15 94  1  0
 16 95  1  0
 16 96  1  0
 17 97  1  6
 19 98  1  6
 20 99  1  0
 21100  1  0
 21101  1  0
 23102  1  0
 24103  1  1
 25104  1  0
 26105  1  0
 26106  1  0
 27107  1  0
 28108  1  0
 28109  1  0
 29110  1  6
 30111  1  0
 31112  1  0
 31113  1  0
 32114  1  1
 33115  1  0
 34116  1  0
 35117  1  0
 35118  1  0
 36119  1  6
 38120  1  6
 39121  1  0
 40122  1  0
 40123  1  0
 42124  1  6
 43125  1  1
 44126  1  0
 45127  1  0
 45128  1  0
 46129  1  0
 47130  1  0
 47131  1  0
 48132  1  6
 49133  1  0
 50134  1  0
 50135  1  0
 51136  1  1
 52137  1  0
 53138  1  0
 54139  1  0
 54140  1  0
 55141  1  6
 57142  1  6
 58143  1  0
 59144  1  0
 59145  1  0
 61146  1  6
 62147  1  1
 63148  1  0
 64149  1  0
 64150  1  0
 65151  1  0
 66152  1  0
 66153  1  0
 67154  1  6
 68155  1  0
 69156  1  0
 69157  1  0
 70158  1  1
 71159  1  0
 72160  1  0
 73161  1  0
 73162  1  0
 74163  1  6
 76164  1  6
M  END
>  <PDBID>  (1) 
1A4L

>  <PDB ID>  (1) 
1A4L

>  <Generic Name>  (1) 
Pentostatin

>  <Brand Name>  (1) 
Nipent#Nipent Pws 10mg/vial

>  <DrugBank ID>  (1) 
DB00552

>  <ATC Codes>  (1) 
L01XX08

>  <Ligand ID>  (1) 
DCF

>  <Target Name>  (1) 
Adenosine deaminase

>  <UniProt ID>  (1) 
P00813

>  <PDB ID.1>  (1) 
1A4L

>  <Seq. Identity>  (1) 
83%

$$$$
