PDB_DB00966_06
     RDKit          3D

 99104  0  0  0  0  0  0  0  0999 V2000
   -1.6953   -1.0637   -0.6407 C   0  0  0  0  0  0  0  0  0  0  0  0
   -0.3381   -0.8681   -0.1688 N   0  0  0  0  0  0  0  0  0  0  0  0
   -2.0467   -2.5031   -0.5195 C   0  0  0  0  0  0  0  0  0  0  0  0
   -2.7314   -0.2550    0.1000 C   0  0  0  0  0  0  0  0  0  0  0  0
    0.2017   -2.1395    0.0151 C   0  0  0  0  0  0  0  0  0  0  0  0
    0.2418    0.0969   -0.9977 C   0  0  0  0  0  0  0  0  0  0  0  0
   -0.7837   -3.1396   -0.3714 N   0  0  0  0  0  0  0  0  0  0  0  0
   -3.0432   -2.8286    0.5593 C   0  0  0  0  0  0  0  0  0  0  0  0
   -4.0639   -0.7472   -0.3882 C   0  0  0  0  0  0  0  0  0  0  0  0
    0.4719   -2.4723    1.5001 C   0  0  0  0  0  0  0  0  0  0  0  0
    1.6255    0.5459   -0.8464 C   0  0  0  0  0  0  0  0  0  0  0  0
   -4.3483   -2.0937    0.2282 C   0  0  0  0  0  0  0  0  0  0  0  0
   -3.3598   -4.3112    0.4376 C   0  0  0  0  0  0  0  0  0  0  0  0
   -5.1864    0.2108   -0.2484 C   0  0  0  0  0  0  0  0  0  0  0  0
    1.0582   -3.8673    1.6137 C   0  0  0  0  0  0  0  0  0  0  0  0
    2.0073    1.1272    0.4810 C   0  0  0  0  0  0  0  0  0  0  0  0
    2.6348   -0.3842   -1.4503 C   0  0  0  0  0  0  0  0  0  0  0  0
   -4.9451    1.4505   -1.0084 N   0  0  0  0  0  0  0  0  0  0  0  0
   -5.5243    0.6067    1.0706 N   0  0  0  0  0  0  0  0  0  0  0  0
    1.2907   -4.1103    3.0946 C   0  0  0  0  0  0  0  0  0  0  0  0
    3.4845    1.3809    0.5485 C   0  0  0  0  0  0  0  0  0  0  0  0
    3.5781   -0.9215   -0.3915 C   0  0  0  0  0  0  0  0  0  0  0  0
   -6.0890    2.2101   -0.5441 C   0  0  0  0  0  0  0  0  0  0  0  0
   -4.9818    1.2140   -2.4303 C   0  0  0  0  0  0  0  0  0  0  0  0
   -5.9281    1.9902    0.9688 C   0  0  0  0  0  0  0  0  0  0  0  0
    4.3562    0.2415    0.1572 C   0  0  0  0  0  0  0  0  0  0  0  0
   -5.9820    3.6722   -0.7808 C   0  0  0  0  0  0  0  0  0  0  0  0
   -7.2366    2.3088    1.5945 C   0  0  0  0  0  0  0  0  0  0  0  0
    5.4770    0.7022   -0.7192 C   0  0  1  0  0  0  0  0  0  0  0  0
   -6.9784    4.3496    0.1515 C   0  0  0  0  0  0  0  0  0  0  0  0
   -7.9572    3.3234    0.7263 C   0  0  0  0  0  0  0  0  0  0  0  0
    6.3486    1.6943   -0.0304 C   0  0  0  0  0  0  0  0  0  0  0  0
    6.2235   -0.4072   -1.4133 C   0  0  0  0  0  0  0  0  0  0  0  0
    7.4020    2.2532   -0.9537 C   0  0  0  0  0  0  0  0  0  0  0  0
    6.9269    1.2279    1.2769 C   0  0  0  0  0  0  0  0  0  0  0  0
    7.3416    0.1627   -2.2236 C   0  0  0  0  0  0  0  0  0  0  0  0
    8.2172    1.1306   -1.5085 C   0  0  0  0  0  0  0  0  0  0  0  0
    7.7147    2.2987    1.7612 O   0  0  0  0  0  0  0  0  0  0  0  0
    7.7368    0.1307    1.1860 O   0  0  0  0  0  0  0  0  0  0  0  0
   -1.7960   -0.7556   -1.7157 H   0  0  0  0  0  0  0  0  0  0  0  0
   -2.5020   -2.9155   -1.4703 H   0  0  0  0  0  0  0  0  0  0  0  0
   -2.5333    0.8017   -0.0967 H   0  0  0  0  0  0  0  0  0  0  0  0
   -2.6852   -0.5073    1.2004 H   0  0  0  0  0  0  0  0  0  0  0  0
    1.1226   -2.4115   -0.4973 H   0  0  0  0  0  0  0  0  0  0  0  0
    0.1233   -0.2730   -2.0726 H   0  0  0  0  0  0  0  0  0  0  0  0
   -0.4447    1.0120   -1.0185 H   0  0  0  0  0  0  0  0  0  0  0  0
   -0.4875   -3.6888   -1.1908 H   0  0  0  0  0  0  0  0  0  0  0  0
   -2.7441   -2.5753    1.5727 H   0  0  0  0  0  0  0  0  0  0  0  0
   -3.9443   -0.9300   -1.4984 H   0  0  0  0  0  0  0  0  0  0  0  0
   -0.4334   -2.3541    2.1125 H   0  0  0  0  0  0  0  0  0  0  0  0
    1.2212   -1.7683    1.9071 H   0  0  0  0  0  0  0  0  0  0  0  0
    1.6889    1.4817   -1.5422 H   0  0  0  0  0  0  0  0  0  0  0  0
   -4.9540   -2.6668   -0.5070 H   0  0  0  0  0  0  0  0  0  0  0  0
   -4.9131   -1.9412    1.1835 H   0  0  0  0  0  0  0  0  0  0  0  0
   -2.4554   -4.9322    0.3805 H   0  0  0  0  0  0  0  0  0  0  0  0
   -3.8882   -4.6069    1.3848 H   0  0  0  0  0  0  0  0  0  0  0  0
   -4.0804   -4.4762   -0.3793 H   0  0  0  0  0  0  0  0  0  0  0  0
   -6.0823   -0.2477   -0.7172 H   0  0  0  0  0  0  0  0  0  0  0  0
    0.3857   -4.6278    1.1958 H   0  0  0  0  0  0  0  0  0  0  0  0
    2.0300   -3.9540    1.1144 H   0  0  0  0  0  0  0  0  0  0  0  0
    1.4956    2.1060    0.5901 H   0  0  0  0  0  0  0  0  0  0  0  0
    1.6573    0.5197    1.3399 H   0  0  0  0  0  0  0  0  0  0  0  0
    3.3383    0.1790   -2.1573 H   0  0  0  0  0  0  0  0  0  0  0  0
    2.2046   -1.1548   -2.1060 H   0  0  0  0  0  0  0  0  0  0  0  0
   -4.7705    0.5435    1.7665 H   0  0  0  0  0  0  0  0  0  0  0  0
    0.6557   -3.4174    3.7186 H   0  0  0  0  0  0  0  0  0  0  0  0
    1.1084   -5.1791    3.3637 H   0  0  0  0  0  0  0  0  0  0  0  0
    2.3456   -3.8717    3.3450 H   0  0  0  0  0  0  0  0  0  0  0  0
    3.6944    1.7358    1.5998 H   0  0  0  0  0  0  0  0  0  0  0  0
    3.6959    2.2949   -0.0754 H   0  0  0  0  0  0  0  0  0  0  0  0
    4.2219   -1.6877   -0.8382 H   0  0  0  0  0  0  0  0  0  0  0  0
    3.0678   -1.3976    0.4601 H   0  0  0  0  0  0  0  0  0  0  0  0
   -6.9846    1.7245   -0.9321 H   0  0  0  0  0  0  0  0  0  0  0  0
   -5.4170    0.2028   -2.6429 H   0  0  0  0  0  0  0  0  0  0  0  0
   -4.0028    1.3140   -2.9190 H   0  0  0  0  0  0  0  0  0  0  0  0
   -5.6818    1.9589   -2.8683 H   0  0  0  0  0  0  0  0  0  0  0  0
   -5.1649    2.6997    1.3321 H   0  0  0  0  0  0  0  0  0  0  0  0
    4.8314   -0.1461    1.1073 H   0  0  0  0  0  0  0  0  0  0  0  0
   -6.1332    3.9651   -1.8386 H   0  0  0  0  0  0  0  0  0  0  0  0
   -4.9587    3.9923   -0.4558 H   0  0  0  0  0  0  0  0  0  0  0  0
   -7.8631    1.3875    1.6019 H   0  0  0  0  0  0  0  0  0  0  0  0
   -7.1509    2.7667    2.6036 H   0  0  0  0  0  0  0  0  0  0  0  0
    4.9767    1.2760   -1.5597 H   0  0  0  0  0  0  0  0  0  0  0  0
   -6.4957    4.8770    0.9828 H   0  0  0  0  0  0  0  0  0  0  0  0
   -7.5905    5.0217   -0.4808 H   0  0  0  0  0  0  0  0  0  0  0  0
   -8.7163    3.8997    1.2874 H   0  0  0  0  0  0  0  0  0  0  0  0
   -8.5014    2.8173   -0.0975 H   0  0  0  0  0  0  0  0  0  0  0  0
    5.6880    2.5746    0.2267 H   0  0  0  0  0  0  0  0  0  0  0  0
    5.5062   -0.8502   -2.1682 H   0  0  0  0  0  0  0  0  0  0  0  0
    6.5039   -1.2398   -0.7584 H   0  0  0  0  0  0  0  0  0  0  0  0
    8.0090    3.0221   -0.4362 H   0  0  0  0  0  0  0  0  0  0  0  0
    6.8767    2.7408   -1.8089 H   0  0  0  0  0  0  0  0  0  0  0  0
    6.1658    1.0592    2.0507 H   0  0  0  0  0  0  0  0  0  0  0  0
    7.9818   -0.6639   -2.6236 H   0  0  0  0  0  0  0  0  0  0  0  0
    6.8896    0.6539   -3.1205 H   0  0  0  0  0  0  0  0  0  0  0  0
    8.8947    1.5832   -2.2848 H   0  0  0  0  0  0  0  0  0  0  0  0
    8.8812    0.6430   -0.7828 H   0  0  0  0  0  0  0  0  0  0  0  0
    8.4089    1.9874    2.3719 H   0  0  0  0  0  0  0  0  0  0  0  0
    8.5847    0.1824    1.7073 H   0  0  0  0  0  0  0  0  0  0  0  0
  1  2  1  0
  1  3  1  0
  1  4  1  0
  2  5  1  0
  2  6  1  0
  3  7  1  0
  5  7  1  0
  3  8  1  0
  4  9  1  0
  5 10  1  0
  6 11  1  0
  8 12  1  0
  9 12  1  0
  8 13  1  0
  9 14  1  0
 10 15  1  0
 11 16  1  0
 11 17  1  0
 14 18  1  0
 14 19  1  0
 15 20  1  0
 16 21  1  0
 17 22  1  0
 18 23  1  0
 18 24  1  0
 19 25  1  0
 23 25  1  0
 21 26  1  0
 22 26  1  0
 23 27  1  0
 25 28  1  0
 26 29  1  0
 27 30  1  0
 28 31  1  0
 30 31  1  0
 29 32  1  0
 29 33  1  0
 32 34  1  0
 32 35  1  0
 33 36  1  0
 34 37  1  0
 36 37  1  0
 35 38  1  0
 35 39  1  0
  1 40  1  0
  3 41  1  0
  4 42  1  0
  4 43  1  0
  5 44  1  0
  6 45  1  0
  6 46  1  0
  7 47  1  0
  8 48  1  0
  9 49  1  0
 10 50  1  0
 10 51  1  0
 11 52  1  0
 12 53  1  0
 12 54  1  0
 13 55  1  0
 13 56  1  0
 13 57  1  0
 14 58  1  0
 15 59  1  0
 15 60  1  0
 16 61  1  0
 16 62  1  0
 17 63  1  0
 17 64  1  0
 19 65  1  0
 20 66  1  0
 20 67  1  0
 20 68  1  0
 21 69  1  0
 21 70  1  0
 22 71  1  0
 22 72  1  0
 23 73  1  0
 24 74  1  0
 24 75  1  0
 24 76  1  0
 25 77  1  0
 26 78  1  0
 27 79  1  0
 27 80  1  0
 28 81  1  0
 28 82  1  0
 29 83  1  6
 30 84  1  0
 30 85  1  0
 31 86  1  0
 31 87  1  0
 32 88  1  0
 33 89  1  0
 33 90  1  0
 34 91  1  0
 34 92  1  0
 35 93  1  0
 36 94  1  0
 36 95  1  0
 37 96  1  0
 37 97  1  0
 38 98  1  0
 39 99  1  0
M  END
>  <PDBID>  (1) 
3VN2

>  <PDB ID>  (1) 
3VN2

>  <Generic Name>  (1) 
Telmisartan

>  <Brand Name>  (1) 
Ach-telmisartan Hctz#Act Telmisartan#Act Telmisartan/hct#Apo-telmisartan#Apo-telmisartan/hctz#Auro-telmisartan#Auro-telmisartan Hctz#Mar-telmisartan#Micardis#Micardis 40mg Tab#Micardis 80mg Tab#Micardis Hct#Micardis Plus#Mylan-telmisartan#Mylan-telmisartan Hctz#Ntp-telmisartan#Ntp-telmisartan Hctz#PMS-telmisartan#PMS-telmisartan-hctz#Pendo-telmisartan#Pendo-telmisartan-hctz#Ran-telmisartan#Ran-telmisartan Hctz#Sandoz Telmisartan#Sandoz Telmisartan Hct#Septa-telmisartan#Telmisartan#Telmisartan Hctz#Telmisartan Tablets#Telmisartan and Amlodipine#Telmisartan and Hydrochlorothiazide#Telmisartan and Hydrochlorothiazide 40 Mg/12.5 mg#Telmisartan and Hydrochlorothiazide 80 Mg/12.5 mg#Telmisartan and Hydrochlorothiazide 80 Mg/25 mg#Telmisartan and Hydrochlorthiazide#Telmisartan-hctz#Telmisartan/hctz#Teva-telmisartan#Teva-telmisartan Hctz#Torrent-telmisartan#Torrent-telmisartan and Hydrochlorothiazide#Twynsta#Van-telmisartan#Van-telmisartan-hctz#Zinda-telmisartan#Zinda-telmisartan/ Hctz#Pritor

>  <DrugBank ID>  (1) 
DB00966

>  <ATC Codes>  (1) 
C09DB04#C09DA07#C09CA07

>  <Ligand ID>  (1) 
TLS

>  <Target Name>  (1) 
Peroxisome proliferator-activated receptor gamma

>  <UniProt ID>  (1) 
P37231

>  <PDB ID.1>  (1) 
3VN2

>  <Seq. Identity>  (1) 
95%

$$$$
