PDB_DB00668_00
     RDKit          3D

 32 32  0  0  0  0  0  0  0  0999 V2000
    0.1263   -0.4316    0.2770 C   0  0  0  0  0  0  0  0  0  0  0  0
    0.6607    0.8430   -0.2806 C   0  0  0  0  0  0  0  0  0  0  0  0
    1.9537    0.6946   -1.0406 C   0  0  0  0  0  0  0  0  0  0  0  0
    2.9824   -0.1340   -0.3483 C   0  0  0  0  0  0  0  0  0  0  0  0
    2.4064   -1.2447    0.5017 C   0  0  0  0  0  0  0  0  0  0  0  0
    1.0137   -1.6185    0.0044 C   0  0  0  0  0  0  0  0  0  0  0  0
    2.4686    1.9749   -1.2278 O   0  0  0  0  0  0  0  0  0  0  0  0
    3.7147    0.7124    0.5139 O   0  0  0  0  0  0  0  0  0  0  0  0
   -1.8188   -1.8400    0.3774 O   0  0  0  0  0  0  0  0  0  0  0  0
   -3.8030    0.6682   -1.3159 C   0  0  0  0  0  0  0  0  0  0  0  0
   -3.5013    0.4743    0.0642 N   0  0  0  0  0  0  0  0  0  0  0  0
   -2.1213    0.5274    0.4193 C   0  0  0  0  0  0  0  0  0  0  0  0
   -1.3086   -0.6397   -0.1280 C   0  0  1  0  0  0  0  0  0  0  0  0
    0.1195   -0.3147    1.3975 H   0  0  0  0  0  0  0  0  0  0  0  0
    0.8169    1.6435    0.4738 H   0  0  0  0  0  0  0  0  0  0  0  0
   -0.0709    1.2496   -1.0408 H   0  0  0  0  0  0  0  0  0  0  0  0
    1.7337    0.3035   -2.0710 H   0  0  0  0  0  0  0  0  0  0  0  0
    3.6730   -0.5909   -1.1196 H   0  0  0  0  0  0  0  0  0  0  0  0
    3.0953   -2.1067    0.4624 H   0  0  0  0  0  0  0  0  0  0  0  0
    2.2599   -0.9240    1.5684 H   0  0  0  0  0  0  0  0  0  0  0  0
    1.0412   -1.9236   -1.0556 H   0  0  0  0  0  0  0  0  0  0  0  0
    0.7023   -2.4876    0.6106 H   0  0  0  0  0  0  0  0  0  0  0  0
    2.3810    2.5329   -0.4232 H   0  0  0  0  0  0  0  0  0  0  0  0
    4.1752    1.3931   -0.0372 H   0  0  0  0  0  0  0  0  0  0  0  0
   -1.6923   -1.9085    1.3381 H   0  0  0  0  0  0  0  0  0  0  0  0
   -4.1868   -0.3053   -1.7359 H   0  0  0  0  0  0  0  0  0  0  0  0
   -4.6888    1.3557   -1.3640 H   0  0  0  0  0  0  0  0  0  0  0  0
   -2.9648    1.0185   -1.9346 H   0  0  0  0  0  0  0  0  0  0  0  0
   -4.0634   -0.2224    0.5480 H   0  0  0  0  0  0  0  0  0  0  0  0
   -1.6497    1.4885    0.1673 H   0  0  0  0  0  0  0  0  0  0  0  0
   -2.0979    0.4783    1.5503 H   0  0  0  0  0  0  0  0  0  0  0  0
   -1.3568   -0.6661   -1.2260 H   0  0  0  0  0  0  0  0  0  0  0  0
  1  2  1  0
  2  3  1  0
  3  4  1  0
  4  5  1  0
  1  6  1  0
  5  6  1  0
  3  7  1  0
  4  8  1  0
 10 11  1  0
 11 12  1  0
  1 13  1  0
  9 13  1  0
 12 13  1  0
  1 14  1  0
  2 15  1  0
  2 16  1  0
  3 17  1  0
  4 18  1  0
  5 19  1  0
  5 20  1  0
  6 21  1  0
  6 22  1  0
  7 23  1  0
  8 24  1  0
  9 25  1  0
 10 26  1  0
 10 27  1  0
 10 28  1  0
 11 29  1  0
 12 30  1  0
 12 31  1  0
 13 32  1  6
M  END
>  <PDBID>  (1) 
4LDO

>  <PDB ID>  (1) 
4LDO

>  <Generic Name>  (1) 
Epinephrine

>  <Brand Name>  (1) 
2% Lidocaine and Epinephrine 1:100,000 Injection USP#4% Astracaine Dental With Epinephrine 1:200,000 (0.005mg/ml)#4% Astracaine Dental With Epinephrine Forte 1:100,000 (0.01mg/ml)#4% Citanest Forte Dental With Epinephrine 1:200,000#Adrenaclick#Adrenaclick 0.15mg Auto-injector#Adrenaclick 0.30mg Auto-injector#Adrenalin#Adrenalin Chloride Sol 1:1000#Adrenalin Chloride Sol 1:1000 Amp#Adyphren Amp II Kit#Adyphren Amp Kit#Adyphren II Kit#Allerject#Ana-kit#Ana-kit (2mg/tab Orl, 1mg/ml Liq Sc Im)#Anakit Insect Sting Treatment Kit#Anapen#Anapen Junior#Articadent#Articaine#Articaine HCl and Epinephrine#Articaine Hydrochloride and Epinephrine#Auvi-Q#Bronkaid Mistometer Aem 0.5%#Bupivacaine HCl 0.5% and Epinephrine 1:200,000 Injection#Bupivacaine Hydrochloride and Epinephrine#Citanest Forte#Dentsply 2% Lidocaine With Epinephrine 1:100,000#Dentsply 2% Lidocaine With Epinephrine 1:50,000#Dentsply 4% Prilocaine and Epinephrine Injection 1:200,000#Dysne Inhal#E-pilo 1 Ophthalmic Solution#E-pilo 2 Ophthalmic Solution#E-pilo 4 Ophthalmic Solution#E-pilo 6 Ophthalmic Solution#E-pilo-1 Oph Soln#E-pilo-2 Oph Soln#E-pilo-4 Oph Soln#E-pilo-6 Oph Soln#Ephinephrine#Epi E-Z Pen  -  Liquid - 0.3mg/0.3ml#Epinephrine#Epinephrine 1:1000 Inj 1mg/ml USP#Epinephrine Inj 0.1mg/ml USP#Epinephrine Inj 1mg/ml USP#Epinephrine Injection#Epinephrine Injection USP#Epinephrine Injection USP 1 mg/ml#Epipen#Epipen Jr#Episnap Epinephrine Convenience Kit#Gingi Pak Cord No 1#Karticaine#Karticaine Forte#Lidocaine#Lidocaine 2% and Epinephrine 1:100 000#Lidocaine 2% and Epinephrine 1:100,000#Lidocaine 2% and Epinephrine 1:100,000 Injection#Lidocaine 2% and Epinephrine 1:50 000#Lidocaine 2% and Epinephrine 1:50,000#Lidocaine HCl#Lidocaine Hydrochloride 0.5% and Epinephrine 1:200000 Injection USP#Lidocaine Hydrochloride 1% and Epinephrine 1:100 000 Injection USP#Lidocaine Hydrochloride 1.5% and Epinephrine 1:200000 Injection USP#Lidocaine Hydrochloride 1.5% and Epinephrine 1:200000 Injection USP Test Dose#Lidocaine Hydrochloride 2% and Epinephrine 1:100 000 Injection USP#Lidocaine Hydrochloride 2% and Epinephrine 1:200000 Injection USP#Lidocaine Hydrochloride and Epinephrine#Lidocaine Hydrochloride and Epinephrine Bitartrate#Lidocaine and Epinephrine Inj.usp 2% 1:100000#Lignospan Forte#Lignospan Speciale Inj#Lignospan Standard#Marcaine#Marcaine 0.5% and Epinephrine 1:200,000 Liq#Marcaine E 0.25% Liq Prt#Marcaine E 2.5 mg/ml#Marcaine E 5.0 mg/ml#Marcaine E Liq Prt 0.50%#Marcaine With Epinephrine#Numbing Hemorrhoidal Label#Numquick Analgesic#Numquick Topical Analgesic#Octocaine 100#Octocaine 100 Needleject Inj#Octocaine 50#Octocaine HCl 2% Epinephrine 1:100000#Octocaine HCl 2% Epinephrine 1:50000#Orabloc#Orabloc 1:100,000#Orabloc 1:200,000#Posicaine N#Posicaine Sp#Prilocaine HCl 4% Epineph 1:200000inj#Prilocaine Hydrochloride With Epinephrine#Prime Asthma Relief#Scandonest 2% Special Inj#Sensorcaine#Sensorcaine 0.25% With Epinephrine#Sensorcaine 0.5% With Epinephrine#Sensorcaine Forte#Sensorcaine Mpf#Septanest N#Septanest Sp#Septocaine and Epinephrine#Taro-epinephrine Auto-injector#Twinject 0.15mg Auto-injector#Twinject 0.3mg Auto-injector#Ultracaine D-S Forte Injection#Ultracaine D-S Injection#Ultracaine DS Forte Inj#Ultracaine DS Inj#Vivacaine#Xylocaine#Xylocaine 0.5% W Epinephrine 1:100000#Xylocaine 0.5% W Epinephrine 1:200000#Xylocaine 1% W Epinephrine 1:100000#Xylocaine 1% W Epinephrine 1:200000#Xylocaine 1.5% W Epinephrine 1:200000#Xylocaine 1.5% W Epinephrine 1:200000 Test Dose#Xylocaine 2% W Epinephrine 1:100000#Xylocaine 2% W Epinephrine 1:200000#Xylocaine Dental Lidocaine HCl 2% and Epinephrine 1:100,000#Xylocaine Dental Lidocaine Hydrochloride 2% and Epinephrine 1:50,000#Xylocaine Mpf#Xylocaine Mpf 1.5% With Epinephrine#Zorcaine#Epi EZ Pen JR#Medihaler-Epi#Twinject

>  <DrugBank ID>  (1) 
DB00668

>  <ATC Codes>  (1) 
R03AK01#R01AA14#S01EA51#C01CA24#R03AA01#S01EA01#A01AD01#B02BC09

>  <Ligand ID>  (1) 
ALE

>  <Target Name>  (1) 
Beta-1 adrenergic receptor

>  <UniProt ID>  (1) 
P08588

>  <PDB ID.1>  (1) 
4LDO

>  <Seq. Identity>  (1) 
54%

$$$$
