PDB_DB01197_04
     RDKit          3D

 33 33  0  0  0  0  0  0  0  0999 V2000
    0.2946   -1.5410   -0.6241 O   0  0  0  0  0  0  0  0  0  0  0  0
    0.4762   -0.2079   -0.3951 C   0  0  0  0  0  0  0  0  0  0  0  0
    1.9379   -0.0636    0.0414 C   0  0  1  0  0  0  0  0  0  0  0  0
    2.2200   -0.8654    1.2996 C   0  0  0  0  0  0  0  0  0  0  0  0
    3.9640   -0.6218    1.7191 S   0  0  0  0  0  0  0  0  0  0  0  0
    2.8923   -0.5288   -1.0201 C   0  0  0  0  0  0  0  0  0  0  0  0
   -0.3221    0.3589    0.6216 N   0  0  0  0  0  0  0  0  0  0  0  0
   -1.6402   -0.0172    0.8231 C   0  0  2  0  0  0  0  0  0  0  0  0
   -2.2527   -1.1286    0.0754 C   0  0  0  0  0  0  0  0  0  0  0  0
   -2.2467   -0.9581   -1.3045 O   0  0  0  0  0  0  0  0  0  0  0  0
   -1.8897   -2.4117    0.4811 O   0  0  0  0  0  0  0  0  0  0  0  0
   -0.2323    1.8048    0.6252 C   0  0  0  0  0  0  0  0  0  0  0  0
   -1.5228    2.1936   -0.0869 C   0  0  0  0  0  0  0  0  0  0  0  0
   -2.4898    1.2358    0.5785 C   0  0  0  0  0  0  0  0  0  0  0  0
    0.5610   -1.8716   -1.4952 H   0  0  0  0  0  0  0  0  0  0  0  0
    0.4162    0.3292   -1.3706 H   0  0  0  0  0  0  0  0  0  0  0  0
    2.1814    0.9914    0.2814 H   0  0  0  0  0  0  0  0  0  0  0  0
    1.9841   -1.9393    1.1748 H   0  0  0  0  0  0  0  0  0  0  0  0
    1.6087   -0.4177    2.1095 H   0  0  0  0  0  0  0  0  0  0  0  0
    4.2728    0.7397    1.6601 H   0  0  0  0  0  0  0  0  0  0  0  0
    3.8378    0.0867   -0.9492 H   0  0  0  0  0  0  0  0  0  0  0  0
    3.2045   -1.5890   -0.8420 H   0  0  0  0  0  0  0  0  0  0  0  0
    2.5309   -0.3997   -2.0483 H   0  0  0  0  0  0  0  0  0  0  0  0
   -1.8001   -0.2441    1.9249 H   0  0  0  0  0  0  0  0  0  0  0  0
   -3.3630   -1.0919    0.3399 H   0  0  0  0  0  0  0  0  0  0  0  0
   -3.0992   -1.2038   -1.7391 H   0  0  0  0  0  0  0  0  0  0  0  0
   -2.4850   -3.0385   -0.0058 H   0  0  0  0  0  0  0  0  0  0  0  0
    0.5855    2.2152    0.0269 H   0  0  0  0  0  0  0  0  0  0  0  0
   -0.3067    2.2522    1.6356 H   0  0  0  0  0  0  0  0  0  0  0  0
   -1.7962    3.2366    0.0671 H   0  0  0  0  0  0  0  0  0  0  0  0
   -1.3895    1.9508   -1.1612 H   0  0  0  0  0  0  0  0  0  0  0  0
   -3.3199    1.0354   -0.1264 H   0  0  0  0  0  0  0  0  0  0  0  0
   -2.8123    1.7094    1.5131 H   0  0  0  0  0  0  0  0  0  0  0  0
  1  2  1  0
  2  3  1  0
  3  4  1  0
  4  5  1  0
  3  6  1  0
  2  7  1  0
  7  8  1  0
  8  9  1  0
  9 10  1  0
  9 11  1  0
  7 12  1  0
 12 13  1  0
  8 14  1  0
 13 14  1  0
  1 15  1  0
  2 16  1  0
  3 17  1  1
  4 18  1  0
  4 19  1  0
  5 20  1  0
  6 21  1  0
  6 22  1  0
  6 23  1  0
  8 24  1  1
  9 25  1  0
 10 26  1  0
 11 27  1  0
 12 28  1  0
 12 29  1  0
 13 30  1  0
 13 31  1  0
 14 32  1  0
 14 33  1  0
M  END
>  <PDBID>  (1) 
4C2P

>  <PDB ID>  (1) 
4C2P

>  <Generic Name>  (1) 
Captopril

>  <Brand Name>  (1) 
Apo-capto Tab 100mg#Apo-capto Tab 12.5mg#Apo-capto Tab 25mg#Apo-capto Tab 50mg#Apo-capto Tab 6.25mg#Bci Captopril Tablets#Capoten Tab 100mg#Capoten Tab 12.5mg#Capoten Tab 25mg#Capoten Tab 50mg#Captopril#Captopril Tablets#Captopril and Hydrochlorothiazide#Captopril-100 Tab 100mg#Captopril-12.5 Tab 12.5mg#Captopril-25 Tab 25mg#Captopril-50 Tab 50mg#Captril#Dom-captopril#Ftp-captopril#Med Captopril - Tab  12.5mg#Med Captopril - Tab 100mg#Med Captopril - Tab 25mg#Med Captopril - Tab 50mg#Mylan-captopril#Novo-captoril#Nu-capto Tab 100mg#Nu-capto Tab 12.5mg#Nu-capto Tab 25mg#Nu-capto Tab 50mg#Orb-captopril#PMS-captopril - Tab  12.5mg#PMS-captopril - Tab  25mg#PMS-captopril - Tab  50mg#PMS-captopril - Tab 100mg#Penta-captopril Tablets#Ratio-captopril Tab 100mg#Ratio-captopril Tab 12.5mg#Ratio-captopril Tab 25mg#Ratio-captopril Tab 50mg#Teva-captopril#Tria-captopril 100mg Tablet#Tria-captopril 12.5mg Tablet#Tria-captopril 25mg Tablet#Tria-captopril 50mg Tablet#Acepress#Acepril#Alopresin#Apopril#Capoten#Captolane#Captoril#Cesplon#Dilabar#Garranil#Hipertil#Hypertil#Lopirin#Lopril#Tenosbon#Tensoprel

>  <DrugBank ID>  (1) 
DB01197

>  <ATC Codes>  (1) 
C09AA01#C09BA01

>  <Ligand ID>  (1) 
X8Z

>  <Target Name>  (1) 
Angiotensin-converting enzyme

>  <UniProt ID>  (1) 
P12821

>  <PDB ID.1>  (1) 
4C2P

>  <Seq. Identity>  (1) 
100%

$$$$
