PDB_DB03849_07
     RDKit          3D

124128  0  0  0  0  0  0  0  0999 V2000
    5.9159    2.5518    0.9341 O   0  0  0  0  0  0  0  0  0  0  0  0
    5.4241    1.9719   -0.2413 C   0  0  0  0  0  0  0  0  0  0  0  0
    5.8574    2.6675   -1.3651 O   0  0  0  0  0  0  0  0  0  0  0  0
    3.8924    1.8957   -0.1942 C   0  0  0  0  0  0  0  0  0  0  0  0
    3.3926    1.2788   -1.4479 C   0  0  0  0  0  0  0  0  0  0  0  0
    2.0309    0.6417   -1.3234 C   0  0  0  0  0  0  0  0  0  0  0  0
    3.5180    1.2115    1.0651 C   0  0  0  0  0  0  0  0  0  0  0  0
    2.1719    0.5801    1.0894 C   0  0  0  0  0  0  0  0  0  0  0  0
    1.9973   -0.2965   -0.1325 C   0  0  0  0  0  0  0  0  0  0  0  0
    3.1588   -1.2404   -0.2483 C   0  0  0  0  0  0  0  0  0  0  0  0
    3.2282   -2.1840    0.8362 N   0  0  0  0  0  0  0  0  0  0  0  0
    0.7044   -1.0381   -0.0291 C   0  0  0  0  0  0  0  0  0  0  0  0
    0.3960   -1.8875   -1.2243 C   0  0  0  0  0  0  0  0  0  0  0  0
   -0.6534   -2.8925   -0.7771 C   0  0  0  0  0  0  0  0  0  0  0  0
   -1.8899   -2.2123   -0.2609 C   0  0  0  0  0  0  0  0  0  0  0  0
   -3.0288   -2.5321   -0.9852 O   0  0  0  0  0  0  0  0  0  0  0  0
   -3.9813   -3.2141   -0.2590 C   0  0  0  0  0  0  0  0  0  0  0  0
   -1.7850   -0.7328   -0.2037 C   0  0  0  0  0  0  0  0  0  0  0  0
   -0.4783   -0.1962    0.2866 C   0  0  0  0  0  0  0  0  0  0  0  0
   -2.7804   -0.2302    0.6319 O   0  0  0  0  0  0  0  0  0  0  0  0
   -3.6703    0.5869   -0.0124 C   0  0  0  0  0  0  0  0  0  0  0  0
   -5.1140    0.2836    0.2139 C   0  0  0  0  0  0  0  0  0  0  0  0
   -5.7817    1.5647    0.7038 C   0  0  0  0  0  0  0  0  0  0  0  0
   -4.8176    2.6200    0.2093 C   0  0  0  0  0  0  0  0  0  0  0  0
   -3.4744    1.9946    0.5754 C   0  0  0  0  0  0  0  0  0  0  0  0
    5.9159    2.5518    0.9341 O   0  0  0  0  0  0  0  0  0  0  0  0
    5.4241    1.9719   -0.2413 C   0  0  0  0  0  0  0  0  0  0  0  0
    5.8574    2.6675   -1.3651 O   0  0  0  0  0  0  0  0  0  0  0  0
    3.8924    1.8957   -0.1942 C   0  0  0  0  0  0  0  0  0  0  0  0
    3.3926    1.2788   -1.4479 C   0  0  0  0  0  0  0  0  0  0  0  0
    2.0309    0.6417   -1.3234 C   0  0  0  0  0  0  0  0  0  0  0  0
    3.5180    1.2115    1.0651 C   0  0  0  0  0  0  0  0  0  0  0  0
    2.1719    0.5801    1.0894 C   0  0  0  0  0  0  0  0  0  0  0  0
    1.9973   -0.2965   -0.1325 C   0  0  0  0  0  0  0  0  0  0  0  0
    3.1588   -1.2404   -0.2483 C   0  0  0  0  0  0  0  0  0  0  0  0
    3.2282   -2.1840    0.8362 N   0  0  0  0  0  0  0  0  0  0  0  0
    0.7044   -1.0381   -0.0291 C   0  0  0  0  0  0  0  0  0  0  0  0
    0.3960   -1.8875   -1.2243 C   0  0  0  0  0  0  0  0  0  0  0  0
   -0.6534   -2.8925   -0.7771 C   0  0  0  0  0  0  0  0  0  0  0  0
   -1.8899   -2.2123   -0.2609 C   0  0  0  0  0  0  0  0  0  0  0  0
   -3.0288   -2.5321   -0.9852 O   0  0  0  0  0  0  0  0  0  0  0  0
   -3.9813   -3.2141   -0.2590 C   0  0  0  0  0  0  0  0  0  0  0  0
   -1.7850   -0.7328   -0.2037 C   0  0  0  0  0  0  0  0  0  0  0  0
   -0.4783   -0.1962    0.2866 C   0  0  0  0  0  0  0  0  0  0  0  0
   -2.7804   -0.2302    0.6319 O   0  0  0  0  0  0  0  0  0  0  0  0
   -3.6703    0.5869   -0.0124 C   0  0  0  0  0  0  0  0  0  0  0  0
   -5.1140    0.2836    0.2139 C   0  0  0  0  0  0  0  0  0  0  0  0
   -5.7817    1.5647    0.7038 C   0  0  0  0  0  0  0  0  0  0  0  0
   -4.8176    2.6200    0.2093 C   0  0  0  0  0  0  0  0  0  0  0  0
   -3.4744    1.9946    0.5754 C   0  0  0  0  0  0  0  0  0  0  0  0
    5.1619    3.1191    1.2770 H   0  0  0  0  0  0  0  0  0  0  0  0
    5.8719    0.9582   -0.2947 H   0  0  0  0  0  0  0  0  0  0  0  0
    6.2006    2.0534   -2.0533 H   0  0  0  0  0  0  0  0  0  0  0  0
    3.5640    2.9737   -0.1423 H   0  0  0  0  0  0  0  0  0  0  0  0
    3.2822    2.0952   -2.2083 H   0  0  0  0  0  0  0  0  0  0  0  0
    4.1179    0.5615   -1.9110 H   0  0  0  0  0  0  0  0  0  0  0  0
    1.8324    0.1167   -2.2782 H   0  0  0  0  0  0  0  0  0  0  0  0
    1.3142    1.4645   -1.1245 H   0  0  0  0  0  0  0  0  0  0  0  0
    3.5282    1.9901    1.8851 H   0  0  0  0  0  0  0  0  0  0  0  0
    4.2788    0.4582    1.4189 H   0  0  0  0  0  0  0  0  0  0  0  0
    2.0525    0.0293    2.0315 H   0  0  0  0  0  0  0  0  0  0  0  0
    1.4086    1.3870    1.0206 H   0  0  0  0  0  0  0  0  0  0  0  0
    3.1209   -1.7590   -1.2503 H   0  0  0  0  0  0  0  0  0  0  0  0
    4.1180   -0.6820   -0.2625 H   0  0  0  0  0  0  0  0  0  0  0  0
    2.9829   -3.1605    0.5582 H   0  0  0  0  0  0  0  0  0  0  0  0
    2.7132   -1.8735    1.6874 H   0  0  0  0  0  0  0  0  0  0  0  0
    0.8300   -1.7573    0.8359 H   0  0  0  0  0  0  0  0  0  0  0  0
    1.2442   -2.4743   -1.6001 H   0  0  0  0  0  0  0  0  0  0  0  0
   -0.0576   -1.2621   -2.0170 H   0  0  0  0  0  0  0  0  0  0  0  0
   -0.1616   -3.5261   -0.0098 H   0  0  0  0  0  0  0  0  0  0  0  0
   -0.8424   -3.5491   -1.6454 H   0  0  0  0  0  0  0  0  0  0  0  0
   -2.0533   -2.5965    0.7684 H   0  0  0  0  0  0  0  0  0  0  0  0
   -4.3697   -2.6905    0.6214 H   0  0  0  0  0  0  0  0  0  0  0  0
   -3.6484   -4.2645   -0.0105 H   0  0  0  0  0  0  0  0  0  0  0  0
   -4.8540   -3.3630   -0.9435 H   0  0  0  0  0  0  0  0  0  0  0  0
   -2.0086   -0.3088   -1.2266 H   0  0  0  0  0  0  0  0  0  0  0  0
   -0.3525    0.8147   -0.1517 H   0  0  0  0  0  0  0  0  0  0  0  0
   -0.5143   -0.0222    1.4016 H   0  0  0  0  0  0  0  0  0  0  0  0
   -3.4632    0.7114   -1.0957 H   0  0  0  0  0  0  0  0  0  0  0  0
   -5.6620    0.0029   -0.7226 H   0  0  0  0  0  0  0  0  0  0  0  0
   -5.2987   -0.5169    0.9624 H   0  0  0  0  0  0  0  0  0  0  0  0
   -6.7834    1.7008    0.2668 H   0  0  0  0  0  0  0  0  0  0  0  0
   -5.8340    1.5467    1.8116 H   0  0  0  0  0  0  0  0  0  0  0  0
   -4.9666    3.5892    0.7074 H   0  0  0  0  0  0  0  0  0  0  0  0
   -4.9147    2.6543   -0.8891 H   0  0  0  0  0  0  0  0  0  0  0  0
   -2.6291    2.5110    0.1218 H   0  0  0  0  0  0  0  0  0  0  0  0
   -3.4413    1.8761    1.6605 H   0  0  0  0  0  0  0  0  0  0  0  0
    5.1619    3.1191    1.2770 H   0  0  0  0  0  0  0  0  0  0  0  0
    5.8719    0.9582   -0.2947 H   0  0  0  0  0  0  0  0  0  0  0  0
    6.2006    2.0534   -2.0533 H   0  0  0  0  0  0  0  0  0  0  0  0
    3.5640    2.9737   -0.1423 H   0  0  0  0  0  0  0  0  0  0  0  0
    3.2822    2.0952   -2.2083 H   0  0  0  0  0  0  0  0  0  0  0  0
    4.1179    0.5615   -1.9110 H   0  0  0  0  0  0  0  0  0  0  0  0
    1.8324    0.1167   -2.2782 H   0  0  0  0  0  0  0  0  0  0  0  0
    1.3142    1.4645   -1.1245 H   0  0  0  0  0  0  0  0  0  0  0  0
    3.5282    1.9901    1.8851 H   0  0  0  0  0  0  0  0  0  0  0  0
    4.2788    0.4582    1.4189 H   0  0  0  0  0  0  0  0  0  0  0  0
    2.0525    0.0293    2.0315 H   0  0  0  0  0  0  0  0  0  0  0  0
    1.4086    1.3870    1.0206 H   0  0  0  0  0  0  0  0  0  0  0  0
    3.1209   -1.7590   -1.2503 H   0  0  0  0  0  0  0  0  0  0  0  0
    4.1180   -0.6820   -0.2625 H   0  0  0  0  0  0  0  0  0  0  0  0
    2.9829   -3.1605    0.5582 H   0  0  0  0  0  0  0  0  0  0  0  0
    2.7132   -1.8735    1.6874 H   0  0  0  0  0  0  0  0  0  0  0  0
    0.8300   -1.7573    0.8359 H   0  0  0  0  0  0  0  0  0  0  0  0
    1.2442   -2.4743   -1.6001 H   0  0  0  0  0  0  0  0  0  0  0  0
   -0.0576   -1.2621   -2.0170 H   0  0  0  0  0  0  0  0  0  0  0  0
   -0.1616   -3.5261   -0.0098 H   0  0  0  0  0  0  0  0  0  0  0  0
   -0.8424   -3.5491   -1.6454 H   0  0  0  0  0  0  0  0  0  0  0  0
   -2.0533   -2.5965    0.7684 H   0  0  0  0  0  0  0  0  0  0  0  0
   -4.3697   -2.6905    0.6214 H   0  0  0  0  0  0  0  0  0  0  0  0
   -3.6484   -4.2645   -0.0105 H   0  0  0  0  0  0  0  0  0  0  0  0
   -4.8540   -3.3630   -0.9435 H   0  0  0  0  0  0  0  0  0  0  0  0
   -2.0086   -0.3088   -1.2266 H   0  0  0  0  0  0  0  0  0  0  0  0
   -0.3525    0.8147   -0.1517 H   0  0  0  0  0  0  0  0  0  0  0  0
   -0.5143   -0.0222    1.4016 H   0  0  0  0  0  0  0  0  0  0  0  0
   -3.4632    0.7114   -1.0957 H   0  0  0  0  0  0  0  0  0  0  0  0
   -5.6620    0.0029   -0.7226 H   0  0  0  0  0  0  0  0  0  0  0  0
   -5.2987   -0.5169    0.9624 H   0  0  0  0  0  0  0  0  0  0  0  0
   -6.7834    1.7008    0.2668 H   0  0  0  0  0  0  0  0  0  0  0  0
   -5.8340    1.5467    1.8116 H   0  0  0  0  0  0  0  0  0  0  0  0
   -4.9666    3.5892    0.7074 H   0  0  0  0  0  0  0  0  0  0  0  0
   -4.9147    2.6543   -0.8891 H   0  0  0  0  0  0  0  0  0  0  0  0
   -2.6291    2.5110    0.1218 H   0  0  0  0  0  0  0  0  0  0  0  0
   -3.4413    1.8761    1.6605 H   0  0  0  0  0  0  0  0  0  0  0  0
  1  2  1  0
  2  3  1  0
  2  4  1  0
  4  5  1  0
  5  6  1  0
  4  7  1  0
  7  8  1  0
  6  9  1  0
  8  9  1  0
  9 10  1  0
 10 11  1  0
  9 12  1  0
 12 13  1  0
 13 14  1  0
 14 15  1  0
 15 16  1  0
 16 17  1  0
 15 18  1  0
 12 19  1  0
 18 19  1  0
 18 20  1  0
 20 21  1  0
 21 22  1  0
 22 23  1  0
 23 24  1  0
 21 25  1  0
 24 25  1  0
 26 27  1  0
 27 28  1  0
 27 29  1  0
 29 30  1  0
 30 31  1  0
 29 32  1  0
 32 33  1  0
 31 34  1  0
 33 34  1  0
 34 35  1  0
 35 36  1  0
 34 37  1  0
 37 38  1  0
 38 39  1  0
 39 40  1  0
 40 41  1  0
 41 42  1  0
 40 43  1  0
 37 44  1  0
 43 44  1  0
 43 45  1  0
 45 46  1  0
 46 47  1  0
 47 48  1  0
 48 49  1  0
 46 50  1  0
 49 50  1  0
  1 51  1  0
  2 52  1  0
  3 53  1  0
  4 54  1  0
  5 55  1  0
  5 56  1  0
  6 57  1  0
  6 58  1  0
  7 59  1  0
  7 60  1  0
  8 61  1  0
  8 62  1  0
 10 63  1  0
 10 64  1  0
 11 65  1  0
 11 66  1  0
 12 67  1  0
 13 68  1  0
 13 69  1  0
 14 70  1  0
 14 71  1  0
 15 72  1  0
 17 73  1  0
 17 74  1  0
 17 75  1  0
 18 76  1  0
 19 77  1  0
 19 78  1  0
 21 79  1  0
 22 80  1  0
 22 81  1  0
 23 82  1  0
 23 83  1  0
 24 84  1  0
 24 85  1  0
 25 86  1  0
 25 87  1  0
 26 88  1  0
 27 89  1  0
 28 90  1  0
 29 91  1  0
 30 92  1  0
 30 93  1  0
 31 94  1  0
 31 95  1  0
 32 96  1  0
 32 97  1  0
 33 98  1  0
 33 99  1  0
 35100  1  0
 35101  1  0
 36102  1  0
 36103  1  0
 37104  1  0
 38105  1  0
 38106  1  0
 39107  1  0
 39108  1  0
 40109  1  0
 42110  1  0
 42111  1  0
 42112  1  0
 43113  1  0
 44114  1  0
 44115  1  0
 46116  1  0
 47117  1  0
 47118  1  0
 48119  1  0
 48120  1  0
 49121  1  0
 49122  1  0
 50123  1  0
 50124  1  0
M  END
>  <PDBID>  (1) 
1XLX

>  <PDB ID>  (1) 
1XLX

>  <Generic Name>  (1) 
Cilomilast

>  <Brand Name>  (1) 
nan

>  <DrugBank ID>  (1) 
DB03849

>  <ATC Codes>  (1) 
nan

>  <Ligand ID>  (1) 
CIO

>  <Target Name>  (1) 
cAMP-specific 3',5'-cyclic phosphodiesterase 4B

>  <UniProt ID>  (1) 
Q07343

>  <PDB ID.1>  (1) 
1XLX

>  <Seq. Identity>  (1) 
97%

$$$$
