PDB_DB01024_05
     RDKit          3D

110112  0  0  0  0  0  0  0  0999 V2000
   -2.7359   -2.4666   -1.1987 C   0  0  0  0  0  0  0  0  0  0  0  0
    1.6458    0.0836    0.6467 C   0  0  0  0  0  0  0  0  0  0  0  0
    2.8236    1.0331    0.7434 C   0  0  0  0  0  0  0  0  0  0  0  0
    4.1475    0.3168    0.6805 C   0  0  0  0  0  0  0  0  0  0  0  0
    4.3320   -0.4521   -0.6023 C   0  0  0  0  0  0  0  0  0  0  0  0
    5.7007   -1.1204   -0.5312 C   0  0  0  0  0  0  0  0  0  0  0  0
   -4.5108    0.9327    0.5800 C   0  0  0  0  0  0  0  0  0  0  0  0
   -2.1773    3.0632   -0.4525 C   0  0  0  0  0  0  0  0  0  0  0  0
    2.7323    2.1255   -0.3167 C   0  0  0  0  0  0  0  0  0  0  0  0
   -4.3259   -1.8880    0.2832 C   0  0  0  0  0  0  0  0  0  0  0  0
   -3.0895   -1.1276    0.6608 C   0  0  0  0  0  0  0  0  0  0  0  0
   -3.3074    0.2552    1.1395 C   0  0  0  0  0  0  0  0  0  0  0  0
   -2.0645    1.0654    0.7273 C   0  0  0  0  0  0  0  0  0  0  0  0
   -0.8716    0.1409    0.6410 C   0  0  1  0  0  0  0  0  0  0  0  0
   -0.9585   -0.8100   -0.5177 C   0  0  0  0  0  0  0  0  0  0  0  0
   -2.4254   -1.0949   -0.7263 C   0  0  0  0  0  0  0  0  0  0  0  0
    0.3942    0.9161    0.7214 C   0  0  0  0  0  0  0  0  0  0  0  0
   -3.1528   -2.4921   -2.5339 O   0  0  0  0  0  0  0  0  0  0  0  0
   -3.7911   -2.9584   -0.4351 O   0  0  0  0  0  0  0  0  0  0  0  0
   -2.2704    1.6940   -0.4748 O   0  0  0  0  0  0  0  0  0  0  0  0
   -0.3357   -2.0315   -0.2507 O   0  0  0  0  0  0  0  0  0  0  0  0
    5.9232   -1.8490   -1.7000 O   0  0  0  0  0  0  0  0  0  0  0  0
    5.7240   -2.0171    0.5344 O   0  0  0  0  0  0  0  0  0  0  0  0
   -2.7425   -2.7792   -0.9686 C   0  0  2  0  0  0  0  0  0  0  0  0
    1.5361    0.2364    0.4042 C   0  0  0  0  0  0  0  0  0  0  0  0
    2.6843    1.2187    0.2748 C   0  0  0  0  0  0  0  0  0  0  0  0
    4.0272    0.5498    0.4562 C   0  0  0  0  0  0  0  0  0  0  0  0
    4.2729   -0.5307   -0.5587 C   0  0  0  0  0  0  0  0  0  0  0  0
    5.6553   -1.1108   -0.2537 C   0  0  0  0  0  0  0  0  0  0  0  0
   -4.0302    0.9449    1.7169 C   0  0  0  0  0  0  0  0  0  0  0  0
   -1.9015    3.4274    0.3542 C   0  0  0  0  0  0  0  0  0  0  0  0
    2.6129    1.9766   -1.0344 C   0  0  0  0  0  0  0  0  0  0  0  0
   -4.4673   -1.8339    0.1246 C   0  0  0  0  0  0  0  0  0  0  0  0
   -3.2638   -0.9873    0.4037 C   0  0  0  0  0  0  0  0  0  0  0  0
   -3.4837    0.4741    0.4028 C   0  0  2  0  0  0  0  0  0  0  0  0
   -2.1538    1.1511    0.0744 C   0  0  2  0  0  0  0  0  0  0  0  0
   -0.9790    0.2220    0.2964 C   0  0  1  0  0  0  0  0  0  0  0  0
   -1.0036   -0.9982   -0.5495 C   0  0  2  0  0  0  0  0  0  0  0  0
   -2.4444   -1.3274   -0.8520 C   0  0  0  0  0  0  0  0  0  0  0  0
    0.2703    1.0368    0.2021 C   0  0  0  0  0  0  0  0  0  0  0  0
   -3.0197   -3.0705   -2.3067 O   0  0  0  0  0  0  0  0  0  0  0  0
   -3.8906   -3.0499   -0.2411 O   0  0  0  0  0  0  0  0  0  0  0  0
   -2.0062    2.1988    0.9979 O   0  0  0  0  0  0  0  0  0  0  0  0
   -0.4376   -2.0990    0.0996 O   0  0  0  0  0  0  0  0  0  0  0  0
    5.6806   -1.6355    1.0363 O   0  0  0  0  0  0  0  0  0  0  0  0
    6.0258   -2.0601   -1.1788 O   0  0  0  0  0  0  0  0  0  0  0  0
   -1.8394   -3.1146   -1.0833 H   0  0  0  0  0  0  0  0  0  0  0  0
    1.7086   -0.6172    1.4902 H   0  0  0  0  0  0  0  0  0  0  0  0
    1.7475   -0.4666   -0.2979 H   0  0  0  0  0  0  0  0  0  0  0  0
    2.8180    1.5832    1.7224 H   0  0  0  0  0  0  0  0  0  0  0  0
    4.2147   -0.3255    1.5729 H   0  0  0  0  0  0  0  0  0  0  0  0
    4.9355    1.0887    0.7721 H   0  0  0  0  0  0  0  0  0  0  0  0
    4.2166    0.1518   -1.4970 H   0  0  0  0  0  0  0  0  0  0  0  0
    3.5888   -1.2821   -0.6169 H   0  0  0  0  0  0  0  0  0  0  0  0
    6.4902   -0.3644   -0.3429 H   0  0  0  0  0  0  0  0  0  0  0  0
   -5.4252    0.3430    0.6372 H   0  0  0  0  0  0  0  0  0  0  0  0
   -4.6931    1.8515    1.2097 H   0  0  0  0  0  0  0  0  0  0  0  0
   -4.2908    1.3252   -0.4339 H   0  0  0  0  0  0  0  0  0  0  0  0
   -2.3596    3.4501   -1.4704 H   0  0  0  0  0  0  0  0  0  0  0  0
   -2.9473    3.5359    0.1978 H   0  0  0  0  0  0  0  0  0  0  0  0
   -1.1797    3.3743   -0.1355 H   0  0  0  0  0  0  0  0  0  0  0  0
    2.0663    2.9128    0.0641 H   0  0  0  0  0  0  0  0  0  0  0  0
    2.4321    1.7141   -1.2986 H   0  0  0  0  0  0  0  0  0  0  0  0
    3.7398    2.5741   -0.4593 H   0  0  0  0  0  0  0  0  0  0  0  0
   -4.9507   -1.3153   -0.4520 H   0  0  0  0  0  0  0  0  0  0  0  0
   -4.9008   -2.2568    1.1326 H   0  0  0  0  0  0  0  0  0  0  0  0
   -2.5149   -1.7560    1.3651 H   0  0  0  0  0  0  0  0  0  0  0  0
   -3.3067    0.2826    2.2686 H   0  0  0  0  0  0  0  0  0  0  0  0
   -1.8404    1.8205    1.5147 H   0  0  0  0  0  0  0  0  0  0  0  0
   -0.9224   -0.4996    1.5719 H   0  0  0  0  0  0  0  0  0  0  0  0
   -0.5642   -0.4182   -1.4571 H   0  0  0  0  0  0  0  0  0  0  0  0
   -2.9438   -0.3672   -1.3455 H   0  0  0  0  0  0  0  0  0  0  0  0
    0.4421    1.4998    1.6621 H   0  0  0  0  0  0  0  0  0  0  0  0
    0.4700    1.6517   -0.1070 H   0  0  0  0  0  0  0  0  0  0  0  0
   -4.0038   -1.9966   -2.6208 H   0  0  0  0  0  0  0  0  0  0  0  0
    0.1842   -2.3586   -1.0373 H   0  0  0  0  0  0  0  0  0  0  0  0
    5.6169   -1.3280   -2.5014 H   0  0  0  0  0  0  0  0  0  0  0  0
    6.6047   -2.0111    1.0102 H   0  0  0  0  0  0  0  0  0  0  0  0
   -1.8918   -3.4181   -0.6087 H   0  0  0  0  0  0  0  0  0  0  0  0
    1.5870   -0.2407    1.3863 H   0  0  0  0  0  0  0  0  0  0  0  0
    1.6877   -0.5007   -0.4343 H   0  0  0  0  0  0  0  0  0  0  0  0
    2.6249    2.0045    1.0802 H   0  0  0  0  0  0  0  0  0  0  0  0
    4.7920    1.3487    0.3623 H   0  0  0  0  0  0  0  0  0  0  0  0
    4.0965    0.1798    1.4975 H   0  0  0  0  0  0  0  0  0  0  0  0
    4.2305   -0.1042   -1.5607 H   0  0  0  0  0  0  0  0  0  0  0  0
    3.5429   -1.3452   -0.3704 H   0  0  0  0  0  0  0  0  0  0  0  0
    6.3511   -0.2322   -0.2458 H   0  0  0  0  0  0  0  0  0  0  0  0
   -4.9342    0.3574    1.9370 H   0  0  0  0  0  0  0  0  0  0  0  0
   -3.2319    0.8240    2.4862 H   0  0  0  0  0  0  0  0  0  0  0  0
   -4.2825    2.0377    1.5944 H   0  0  0  0  0  0  0  0  0  0  0  0
   -2.7977    3.6191   -0.2388 H   0  0  0  0  0  0  0  0  0  0  0  0
   -1.7073    4.1820    1.1474 H   0  0  0  0  0  0  0  0  0  0  0  0
   -1.0136    3.4673   -0.3277 H   0  0  0  0  0  0  0  0  0  0  0  0
    2.1624    1.2659   -1.7751 H   0  0  0  0  0  0  0  0  0  0  0  0
    3.6151    2.2376   -1.4207 H   0  0  0  0  0  0  0  0  0  0  0  0
    1.9404    2.8390   -0.9668 H   0  0  0  0  0  0  0  0  0  0  0  0
   -5.1253   -1.9762    0.9894 H   0  0  0  0  0  0  0  0  0  0  0  0
   -5.0336   -1.4410   -0.7700 H   0  0  0  0  0  0  0  0  0  0  0  0
   -2.7792   -1.3834    1.3162 H   0  0  0  0  0  0  0  0  0  0  0  0
   -4.2121    0.7343   -0.3932 H   0  0  0  0  0  0  0  0  0  0  0  0
   -2.1492    1.5759   -0.9475 H   0  0  0  0  0  0  0  0  0  0  0  0
   -1.0637   -0.1150    1.3715 H   0  0  0  0  0  0  0  0  0  0  0  0
   -0.4973   -0.8898   -1.5287 H   0  0  0  0  0  0  0  0  0  0  0  0
   -2.8697   -0.7341   -1.6637 H   0  0  0  0  0  0  0  0  0  0  0  0
    0.2802    1.8385    0.9692 H   0  0  0  0  0  0  0  0  0  0  0  0
    0.3743    1.5453   -0.7796 H   0  0  0  0  0  0  0  0  0  0  0  0
   -3.9153   -2.7093   -2.5345 H   0  0  0  0  0  0  0  0  0  0  0  0
    0.1674   -2.6104   -0.4964 H   0  0  0  0  0  0  0  0  0  0  0  0
    6.6046   -1.5199    1.3972 H   0  0  0  0  0  0  0  0  0  0  0  0
    6.5057   -2.7904   -0.7198 H   0  0  0  0  0  0  0  0  0  0  0  0
  2  3  1  0
  3  4  1  0
  4  5  1  0
  5  6  1  0
  3  9  1  0
 10 11  1  0
  7 12  1  0
 11 12  1  0
 12 13  1  0
 13 14  1  0
 14 15  1  0
  1 16  1  0
 11 16  1  0
 15 16  1  0
  2 17  1  0
 14 17  1  0
  1 18  1  0
  1 19  1  0
 10 19  1  0
  8 20  1  0
 13 20  1  0
 15 21  1  0
  6 22  1  0
  6 23  1  0
 25 26  1  0
 26 27  1  0
 27 28  1  0
 28 29  1  0
 26 32  1  0
 33 34  1  0
 30 35  1  0
 34 35  1  0
 35 36  1  0
 36 37  1  0
 37 38  1  0
 24 39  1  0
 34 39  1  0
 38 39  1  0
 25 40  1  0
 37 40  1  0
 24 41  1  0
 24 42  1  0
 33 42  1  0
 31 43  1  0
 36 43  1  0
 38 44  1  0
 29 45  1  0
 29 46  1  0
  1 47  1  0
  2 48  1  0
  2 49  1  0
  3 50  1  0
  4 51  1  0
  4 52  1  0
  5 53  1  0
  5 54  1  0
  6 55  1  0
  7 56  1  0
  7 57  1  0
  7 58  1  0
  8 59  1  0
  8 60  1  0
  8 61  1  0
  9 62  1  0
  9 63  1  0
  9 64  1  0
 10 65  1  0
 10 66  1  0
 11 67  1  0
 12 68  1  0
 13 69  1  0
 14 70  1  1
 15 71  1  0
 16 72  1  0
 17 73  1  0
 17 74  1  0
 18 75  1  0
 21 76  1  0
 22 77  1  0
 23 78  1  0
 24 79  1  1
 25 80  1  0
 25 81  1  0
 26 82  1  0
 27 83  1  0
 27 84  1  0
 28 85  1  0
 28 86  1  0
 29 87  1  0
 30 88  1  0
 30 89  1  0
 30 90  1  0
 31 91  1  0
 31 92  1  0
 31 93  1  0
 32 94  1  0
 32 95  1  0
 32 96  1  0
 33 97  1  0
 33 98  1  0
 34 99  1  0
 35100  1  6
 36101  1  6
 37102  1  1
 38103  1  6
 39104  1  0
 40105  1  0
 40106  1  0
 41107  1  0
 44108  1  0
 45109  1  0
 46110  1  0
M  END
>  <PDBID>  (1) 
1JR1

>  <PDB ID>  (1) 
1JR1

>  <Generic Name>  (1) 
Mycophenolic acid

>  <Brand Name>  (1) 
Apo-mycophenolic Acid#Mycophenolic Acid#Myfortic#Melbex

>  <DrugBank ID>  (1) 
DB01024

>  <ATC Codes>  (1) 
L04AA06

>  <Ligand ID>  (1) 
MOA

>  <Target Name>  (1) 
Inosine-5'-monophosphate dehydrogenase 2

>  <UniProt ID>  (1) 
P12268

>  <PDB ID.1>  (1) 
1JR1

>  <Seq. Identity>  (1) 
99%

$$$$
