PDB_DB00476_08
     RDKit          3D

 54 56  0  0  0  0  0  0  0  0999 V2000
    2.1027    3.5213    2.5973 C   0  0  0  0  0  0  0  0  0  0  0  0
    2.5733    2.1712    2.4891 N   0  0  0  0  0  0  0  0  0  0  0  0
    1.8661    1.4629    1.4242 C   0  0  0  0  0  0  0  0  0  0  0  0
    2.3893    0.0620    1.3488 C   0  0  0  0  0  0  0  0  0  0  0  0
    1.6818   -0.6976    0.2313 C   0  0  1  0  0  0  0  0  0  0  0  0
    2.2896   -2.1092    0.2032 C   0  0  0  0  0  0  0  0  0  0  0  0
    4.0976   -1.9784   -0.1189 S   0  0  0  0  0  0  0  0  0  0  0  0
    4.2441   -3.3768   -1.2997 C   0  0  0  0  0  0  0  0  0  0  0  0
    2.8987   -4.0348   -1.0721 C   0  0  0  0  0  0  0  0  0  0  0  0
    1.8833   -2.8911   -1.0178 C   0  0  0  0  0  0  0  0  0  0  0  0
    0.3458   -0.8772    0.4127 O   0  0  0  0  0  0  0  0  0  0  0  0
   -0.5284   -0.4134   -0.5170 C   0  0  0  0  0  0  0  0  0  0  0  0
   -1.5088    0.5271    0.1342 C   0  0  0  0  0  0  0  0  0  0  0  0
   -1.4539    1.8596   -0.5027 C   0  0  0  0  0  0  0  0  0  0  0  0
   -2.5006    2.8271   -0.1004 C   0  0  0  0  0  0  0  0  0  0  0  0
   -3.8448    2.2407    0.2017 C   0  0  0  0  0  0  0  0  0  0  0  0
   -3.8084    0.8899    0.8188 C   0  0  0  0  0  0  0  0  0  0  0  0
   -2.9171   -0.0362    0.0641 C   0  0  0  0  0  0  0  0  0  0  0  0
   -3.3247   -0.0818   -1.3690 C   0  0  0  0  0  0  0  0  0  0  0  0
   -2.3795   -0.9416   -2.1461 C   0  0  0  0  0  0  0  0  0  0  0  0
   -1.2397   -1.4861   -1.3231 C   0  0  0  0  0  0  0  0  0  0  0  0
    2.9844    4.2007    2.5209 H   0  0  0  0  0  0  0  0  0  0  0  0
    1.6312    3.6547    3.6011 H   0  0  0  0  0  0  0  0  0  0  0  0
    1.3579    3.7458    1.8348 H   0  0  0  0  0  0  0  0  0  0  0  0
    3.5800    2.0824    2.3022 H   0  0  0  0  0  0  0  0  0  0  0  0
    2.1258    1.9879    0.4789 H   0  0  0  0  0  0  0  0  0  0  0  0
    0.7901    1.5012    1.5574 H   0  0  0  0  0  0  0  0  0  0  0  0
    2.3199   -0.4811    2.3116 H   0  0  0  0  0  0  0  0  0  0  0  0
    3.4649    0.1243    1.0142 H   0  0  0  0  0  0  0  0  0  0  0  0
    2.0019   -0.2029   -0.6848 H   0  0  0  0  0  0  0  0  0  0  0  0
    2.1175   -2.6529    1.1307 H   0  0  0  0  0  0  0  0  0  0  0  0
    4.3429   -3.0362   -2.3281 H   0  0  0  0  0  0  0  0  0  0  0  0
    5.0414   -4.0773   -0.9716 H   0  0  0  0  0  0  0  0  0  0  0  0
    2.8658   -4.5440   -0.0967 H   0  0  0  0  0  0  0  0  0  0  0  0
    2.6367   -4.7104   -1.9112 H   0  0  0  0  0  0  0  0  0  0  0  0
    0.9003   -3.3858   -0.8941 H   0  0  0  0  0  0  0  0  0  0  0  0
    1.9168   -2.2690   -1.9116 H   0  0  0  0  0  0  0  0  0  0  0  0
    0.0829    0.1422   -1.2881 H   0  0  0  0  0  0  0  0  0  0  0  0
   -1.3283    0.6535    1.2414 H   0  0  0  0  0  0  0  0  0  0  0  0
   -0.4607    2.3145   -0.3079 H   0  0  0  0  0  0  0  0  0  0  0  0
   -1.4652    1.7004   -1.6217 H   0  0  0  0  0  0  0  0  0  0  0  0
   -2.1507    3.4741    0.7330 H   0  0  0  0  0  0  0  0  0  0  0  0
   -2.6522    3.5347   -0.9684 H   0  0  0  0  0  0  0  0  0  0  0  0
   -4.5362    2.2531   -0.6813 H   0  0  0  0  0  0  0  0  0  0  0  0
   -4.3396    2.9325    0.9405 H   0  0  0  0  0  0  0  0  0  0  0  0
   -4.8478    0.4668    0.7658 H   0  0  0  0  0  0  0  0  0  0  0  0
   -3.5271    0.9555    1.8905 H   0  0  0  0  0  0  0  0  0  0  0  0
   -2.9246   -1.0673    0.4720 H   0  0  0  0  0  0  0  0  0  0  0  0
   -3.3332    0.9200   -1.8445 H   0  0  0  0  0  0  0  0  0  0  0  0
   -4.3674   -0.4857   -1.4046 H   0  0  0  0  0  0  0  0  0  0  0  0
   -2.9401   -1.8176   -2.5322 H   0  0  0  0  0  0  0  0  0  0  0  0
   -1.9566   -0.4204   -3.0333 H   0  0  0  0  0  0  0  0  0  0  0  0
   -0.5503   -1.9126   -2.0905 H   0  0  0  0  0  0  0  0  0  0  0  0
   -1.6469   -2.2186   -0.6170 H   0  0  0  0  0  0  0  0  0  0  0  0
  1  2  1  0
  2  3  1  0
  3  4  1  0
  4  5  1  0
  5  6  1  0
  6  7  1  0
  7  8  1  0
  8  9  1  0
  6 10  1  0
  9 10  1  0
  5 11  1  0
 11 12  1  0
 12 13  1  0
 13 14  1  0
 14 15  1  0
 15 16  1  0
 16 17  1  0
 13 18  1  0
 17 18  1  0
 18 19  1  0
 19 20  1  0
 12 21  1  0
 20 21  1  0
  1 22  1  0
  1 23  1  0
  1 24  1  0
  2 25  1  0
  3 26  1  0
  3 27  1  0
  4 28  1  0
  4 29  1  0
  5 30  1  6
  6 31  1  0
  8 32  1  0
  8 33  1  0
  9 34  1  0
  9 35  1  0
 10 36  1  0
 10 37  1  0
 12 38  1  0
 13 39  1  0
 14 40  1  0
 14 41  1  0
 15 42  1  0
 15 43  1  0
 16 44  1  0
 16 45  1  0
 17 46  1  0
 17 47  1  0
 18 48  1  0
 19 49  1  0
 19 50  1  0
 20 51  1  0
 20 52  1  0
 21 53  1  0
 21 54  1  0
M  END
>  <PDBID>  (1) 
4MM6

>  <PDB ID>  (1) 
4MM6

>  <Generic Name>  (1) 
Duloxetine

>  <Brand Name>  (1) 
Act Duloxetine#Apo-duloxetine#Auro-duloxetine#Cymbalta#Dom-duloxetine#Duloxetine#Duloxetine Delayed-release#Duloxetine Dr#Duloxetine Hydrochloride#Duloxetine Hydrochloride 20 mg#Duloxetine Hydrochloride 30 mg#Duloxetine Hydrochloride 60 mg#Ipg-duloxetine#Irenka#Jamp-duloxetine#Mar-duloxetine#Mint-duloxetine#Mylan-duloxetine#PMS-duloxetine#Ran-duloxetine#Riva-duloxetine#Sandoz Duloxetine#Taro-duloxetine#Teva-duloxetine Dr#Torrent-duloxetine#Ariclaim#Dulane#Duzela#Xeristar#Yentreve

>  <DrugBank ID>  (1) 
DB00476

>  <ATC Codes>  (1) 
N06AX21

>  <Ligand ID>  (1) 
29E

>  <Target Name>  (1) 
Sodium-dependent noradrenaline transporter

>  <UniProt ID>  (1) 
P23975

>  <PDB ID.1>  (1) 
4MM6

>  <Seq. Identity>  (1) 
30%

$$$$
