PDB_DB04573_08
     RDKit          3D

102108  0  0  0  0  0  0  0  0999 V2000
    0.2030   -0.7864    0.5073 C   0  0  1  0  0  0  0  0  0  0  0  0
   -0.4494   -0.8320    1.8349 C   0  0  0  0  0  0  0  0  0  0  0  0
   -1.8953   -0.4907    1.8844 C   0  0  0  0  0  0  0  0  0  0  0  0
   -2.3927    0.4462    0.8556 C   0  0  2  0  0  0  0  0  0  0  0  0
   -2.2423    1.9032    1.2031 C   0  0  0  0  0  0  0  0  0  0  0  0
   -3.8505    0.2341    0.4816 C   0  0  1  0  0  0  0  0  0  0  0  0
   -4.6684    1.0217    1.2810 O   0  0  0  0  0  0  0  0  0  0  0  0
   -3.9657    0.7315   -0.9508 C   0  0  2  0  0  0  0  0  0  0  0  0
   -4.4685   -0.2873   -1.7438 O   0  0  0  0  0  0  0  0  0  0  0  0
   -2.5265    0.9679   -1.4182 C   0  0  0  0  0  0  0  0  0  0  0  0
   -1.7544    0.1230   -0.5020 C   0  0  1  0  0  0  0  0  0  0  0  0
   -0.3091    0.3673   -0.3691 C   0  0  2  0  0  0  0  0  0  0  0  0
    0.4720    0.3883   -1.6369 C   0  0  0  0  0  0  0  0  0  0  0  0
    1.9086    0.7354   -1.3378 C   0  0  0  0  0  0  0  0  0  0  0  0
    2.2773    0.5030    0.1073 C   0  0  0  0  0  0  0  0  0  0  0  0
    3.7633    0.5172    0.2791 C   0  0  0  0  0  0  0  0  0  0  0  0
    4.4657   -0.6637   -0.2980 C   0  0  0  0  0  0  0  0  0  0  0  0
    4.7578   -0.5165   -1.6625 O   0  0  0  0  0  0  0  0  0  0  0  0
    3.7830   -1.9668   -0.0486 C   0  0  0  0  0  0  0  0  0  0  0  0
    2.2996   -1.9187   -0.1592 C   0  0  0  0  0  0  0  0  0  0  0  0
    1.6914   -0.7803    0.6299 C   0  0  2  0  0  0  0  0  0  0  0  0
    0.4743    0.1482    0.5375 C   0  0  1  0  0  0  0  0  0  0  0  0
    0.1351    1.5799    0.7619 C   0  0  0  0  0  0  0  0  0  0  0  0
   -1.2927    1.6068    1.3361 C   0  0  0  0  0  0  0  0  0  0  0  0
   -2.1659    1.1242    0.2475 C   0  0  2  0  0  0  0  0  0  0  0  0
   -1.9735    1.9308   -0.9856 C   0  0  0  0  0  0  0  0  0  0  0  0
   -3.6408    1.1008    0.5660 C   0  0  1  0  0  0  0  0  0  0  0  0
   -4.2336    2.3447    0.4843 O   0  0  0  0  0  0  0  0  0  0  0  0
   -4.1545    0.1628   -0.5337 C   0  0  2  0  0  0  0  0  0  0  0  0
   -5.1362   -0.6941   -0.0470 O   0  0  0  0  0  0  0  0  0  0  0  0
   -2.9476   -0.6658   -0.9729 C   0  0  0  0  0  0  0  0  0  0  0  0
   -1.9211   -0.3601    0.0547 C   0  0  1  0  0  0  0  0  0  0  0  0
   -0.5134   -0.5918   -0.3341 C   0  0  2  0  0  0  0  0  0  0  0  0
   -0.0967   -2.0194   -0.4084 C   0  0  0  0  0  0  0  0  0  0  0  0
    1.0839   -2.3991    0.3970 C   0  0  0  0  0  0  0  0  0  0  0  0
    2.2272   -1.4745    0.3959 C   0  0  1  0  0  0  0  0  0  0  0  0
    3.4471   -1.9226   -0.3296 C   0  0  0  0  0  0  0  0  0  0  0  0
    4.5378   -0.8822   -0.0385 C   0  0  0  0  0  0  0  0  0  0  0  0
    4.5918   -0.7240    1.3457 O   0  0  0  0  0  0  0  0  0  0  0  0
    4.0859    0.4703   -0.5991 C   0  0  0  0  0  0  0  0  0  0  0  0
    2.8396    0.9379    0.1683 C   0  0  0  0  0  0  0  0  0  0  0  0
    1.7980   -0.0913   -0.1101 C   0  0  2  0  0  0  0  0  0  0  0  0
   -0.1094   -1.7148   -0.0566 H   0  0  0  0  0  0  0  0  0  0  0  0
    0.1602   -0.2068    2.5450 H   0  0  0  0  0  0  0  0  0  0  0  0
   -0.3423   -1.8806    2.2332 H   0  0  0  0  0  0  0  0  0  0  0  0
   -2.5485   -1.4113    1.8714 H   0  0  0  0  0  0  0  0  0  0  0  0
   -2.0924   -0.0305    2.8935 H   0  0  0  0  0  0  0  0  0  0  0  0
   -3.2414    2.4103    1.3466 H   0  0  0  0  0  0  0  0  0  0  0  0
   -1.7419    2.0100    2.2014 H   0  0  0  0  0  0  0  0  0  0  0  0
   -1.7065    2.4944    0.4652 H   0  0  0  0  0  0  0  0  0  0  0  0
   -4.0964   -0.8437    0.5623 H   0  0  0  0  0  0  0  0  0  0  0  0
   -4.9194    0.5997    2.1269 H   0  0  0  0  0  0  0  0  0  0  0  0
   -4.5232    1.6669   -1.0245 H   0  0  0  0  0  0  0  0  0  0  0  0
   -5.3737   -0.5721   -1.5148 H   0  0  0  0  0  0  0  0  0  0  0  0
   -2.2882    2.0277   -1.4336 H   0  0  0  0  0  0  0  0  0  0  0  0
   -2.3971    0.5983   -2.4753 H   0  0  0  0  0  0  0  0  0  0  0  0
   -1.9761   -0.9421   -0.6969 H   0  0  0  0  0  0  0  0  0  0  0  0
   -0.0857    1.2855    0.1954 H   0  0  0  0  0  0  0  0  0  0  0  0
    0.0752    1.2372   -2.2672 H   0  0  0  0  0  0  0  0  0  0  0  0
    0.3547   -0.5126   -2.2566 H   0  0  0  0  0  0  0  0  0  0  0  0
    2.5460    0.1619   -2.0228 H   0  0  0  0  0  0  0  0  0  0  0  0
    2.1275    1.8232   -1.5394 H   0  0  0  0  0  0  0  0  0  0  0  0
    1.8826    1.3620    0.7257 H   0  0  0  0  0  0  0  0  0  0  0  0
    3.9772    0.5346    1.3829 H   0  0  0  0  0  0  0  0  0  0  0  0
    4.1746    1.4487   -0.1342 H   0  0  0  0  0  0  0  0  0  0  0  0
    5.4748   -0.7231    0.2050 H   0  0  0  0  0  0  0  0  0  0  0  0
    5.3434    0.2443   -1.8374 H   0  0  0  0  0  0  0  0  0  0  0  0
    4.1510   -2.6848   -0.8366 H   0  0  0  0  0  0  0  0  0  0  0  0
    4.1414   -2.4023    0.9235 H   0  0  0  0  0  0  0  0  0  0  0  0
    1.9038   -2.8811    0.2772 H   0  0  0  0  0  0  0  0  0  0  0  0
    2.0234   -1.8944   -1.2233 H   0  0  0  0  0  0  0  0  0  0  0  0
    2.0070   -0.9010    1.6772 H   0  0  0  0  0  0  0  0  0  0  0  0
    0.4177   -0.3572    1.5477 H   0  0  0  0  0  0  0  0  0  0  0  0
    0.2385    2.2290   -0.1107 H   0  0  0  0  0  0  0  0  0  0  0  0
    0.7766    1.9417    1.6091 H   0  0  0  0  0  0  0  0  0  0  0  0
   -1.2827    0.8236    2.1479 H   0  0  0  0  0  0  0  0  0  0  0  0
   -1.5371    2.5841    1.7534 H   0  0  0  0  0  0  0  0  0  0  0  0
   -2.8726    1.8757   -1.6422 H   0  0  0  0  0  0  0  0  0  0  0  0
   -1.8949    3.0097   -0.6599 H   0  0  0  0  0  0  0  0  0  0  0  0
   -1.0881    1.7268   -1.5751 H   0  0  0  0  0  0  0  0  0  0  0  0
   -3.8116    0.5745    1.5136 H   0  0  0  0  0  0  0  0  0  0  0  0
   -4.4767    2.7234    1.3616 H   0  0  0  0  0  0  0  0  0  0  0  0
   -4.5564    0.7502   -1.3977 H   0  0  0  0  0  0  0  0  0  0  0  0
   -6.0085   -0.4702   -0.4998 H   0  0  0  0  0  0  0  0  0  0  0  0
   -2.5950   -0.2524   -1.9571 H   0  0  0  0  0  0  0  0  0  0  0  0
   -3.1832   -1.7212   -1.1031 H   0  0  0  0  0  0  0  0  0  0  0  0
   -2.2098   -0.8526    0.9999 H   0  0  0  0  0  0  0  0  0  0  0  0
   -0.3742   -0.1685   -1.3732 H   0  0  0  0  0  0  0  0  0  0  0  0
    0.0744   -2.3808   -1.4615 H   0  0  0  0  0  0  0  0  0  0  0  0
   -0.9699   -2.6392   -0.0498 H   0  0  0  0  0  0  0  0  0  0  0  0
    0.7224   -2.6327    1.4416 H   0  0  0  0  0  0  0  0  0  0  0  0
    1.4433   -3.4007    0.0177 H   0  0  0  0  0  0  0  0  0  0  0  0
    2.5330   -1.2905    1.4682 H   0  0  0  0  0  0  0  0  0  0  0  0
    3.3181   -2.0715   -1.4015 H   0  0  0  0  0  0  0  0  0  0  0  0
    3.8134   -2.8633    0.1726 H   0  0  0  0  0  0  0  0  0  0  0  0
    5.4976   -1.1519   -0.4734 H   0  0  0  0  0  0  0  0  0  0  0  0
    4.9259    0.2055    1.5101 H   0  0  0  0  0  0  0  0  0  0  0  0
    4.8945    1.1910   -0.5617 H   0  0  0  0  0  0  0  0  0  0  0  0
    3.7434    0.2687   -1.6414 H   0  0  0  0  0  0  0  0  0  0  0  0
    2.5295    1.8772   -0.3340 H   0  0  0  0  0  0  0  0  0  0  0  0
    3.0583    1.0911    1.2315 H   0  0  0  0  0  0  0  0  0  0  0  0
    1.7291   -0.2009   -1.2181 H   0  0  0  0  0  0  0  0  0  0  0  0
  1  2  1  0
  2  3  1  0
  3  4  1  0
  4  5  1  1
  4  6  1  0
  6  7  1  0
  6  8  1  0
  8  9  1  0
  8 10  1  0
  4 11  1  0
 10 11  1  0
  1 12  1  0
 11 12  1  0
 12 13  1  0
 13 14  1  0
 14 15  1  0
 15 16  1  0
 16 17  1  0
 17 18  1  0
 17 19  1  0
 19 20  1  0
  1 21  1  0
 15 21  1  0
 20 21  1  0
 22 23  1  0
 23 24  1  0
 24 25  1  0
 25 26  1  6
 25 27  1  0
 27 28  1  0
 27 29  1  0
 29 30  1  0
 29 31  1  0
 25 32  1  0
 31 32  1  0
 22 33  1  0
 32 33  1  0
 33 34  1  0
 34 35  1  0
 35 36  1  0
 36 37  1  0
 37 38  1  0
 38 39  1  0
 38 40  1  0
 40 41  1  0
 22 42  1  0
 36 42  1  0
 41 42  1  0
  1 43  1  6
  2 44  1  0
  2 45  1  0
  3 46  1  0
  3 47  1  0
  5 48  1  0
  5 49  1  0
  5 50  1  0
  6 51  1  6
  7 52  1  0
  8 53  1  1
  9 54  1  0
 10 55  1  0
 10 56  1  0
 11 57  1  6
 12 58  1  1
 13 59  1  0
 13 60  1  0
 14 61  1  0
 14 62  1  0
 15 63  1  0
 16 64  1  0
 16 65  1  0
 17 66  1  0
 18 67  1  0
 19 68  1  0
 19 69  1  0
 20 70  1  0
 20 71  1  0
 21 72  1  1
 22 73  1  1
 23 74  1  0
 23 75  1  0
 24 76  1  0
 24 77  1  0
 26 78  1  0
 26 79  1  0
 26 80  1  0
 27 81  1  1
 28 82  1  0
 29 83  1  6
 30 84  1  0
 31 85  1  0
 31 86  1  0
 32 87  1  1
 33 88  1  6
 34 89  1  0
 34 90  1  0
 35 91  1  0
 35 92  1  0
 36 93  1  1
 37 94  1  0
 37 95  1  0
 38 96  1  0
 39 97  1  0
 40 98  1  0
 40 99  1  0
 41100  1  0
 41101  1  0
 42102  1  6
M  END
>  <PDBID>  (1) 
3Q95

>  <PDB ID>  (1) 
3Q95

>  <Generic Name>  (1) 
Estriol

>  <Brand Name>  (1) 
Aacifemine#Colpoestriol#Ovestin#Synapause E

>  <DrugBank ID>  (1) 
DB04573

>  <ATC Codes>  (1) 
G03CC06#G03CA04

>  <Ligand ID>  (1) 
ESL

>  <Target Name>  (1) 
Estrogen receptor

>  <UniProt ID>  (1) 
P03372

>  <PDB ID.1>  (1) 
3Q95

>  <Seq. Identity>  (1) 
93%

$$$$
