PDB_DB04743_02
     RDKit          3D

 96 98  0  0  0  0  0  0  0  0999 V2000
   -3.5225    1.5396   -2.2890 O   0  0  0  0  0  0  0  0  0  0  0  0
   -2.5379    2.4616   -2.3495 N   0  0  0  0  0  0  0  0  0  0  0  0
   -3.0777    3.6831   -2.1459 O   0  0  0  0  0  0  0  0  0  0  0  0
   -1.5613    2.1907   -1.3151 C   0  0  0  0  0  0  0  0  0  0  0  0
   -2.1360    2.2316    0.0673 C   0  0  0  0  0  0  0  0  0  0  0  0
   -2.2387    0.8297    0.6283 C   0  0  0  0  0  0  0  0  0  0  0  0
   -0.9175    0.1347    0.7038 C   0  0  0  0  0  0  0  0  0  0  0  0
   -1.0876   -1.2850    0.5989 N   0  0  0  0  0  0  0  0  0  0  0  0
   -2.0437   -1.8437    1.8452 S   0  0  0  0  0  0  0  0  0  0  0  0
   -1.8895   -0.7304    3.1365 O   0  0  0  0  0  0  0  0  0  0  0  0
   -1.5408   -3.2284    2.3449 O   0  0  0  0  0  0  0  0  0  0  0  0
   -3.6851   -1.8408    1.4172 C   0  0  0  0  0  0  0  0  0  0  0  0
   -0.7916    0.9141   -1.5995 C   0  0  0  0  0  0  0  0  0  0  0  0
    0.0407    0.6230   -0.3856 C   0  0  0  0  0  0  0  0  0  0  0  0
    1.0826   -0.2189   -0.5670 O   0  0  0  0  0  0  0  0  0  0  0  0
    2.3349    0.2983   -0.2572 C   0  0  0  0  0  0  0  0  0  0  0  0
    2.8949   -0.4490    0.8893 C   0  0  0  0  0  0  0  0  0  0  0  0
    3.8573   -1.5315    0.5830 C   0  0  0  0  0  0  0  0  0  0  0  0
    3.9408   -1.8573   -0.9097 C   0  0  0  0  0  0  0  0  0  0  0  0
    4.3595   -0.5146   -1.5221 C   0  0  0  0  0  0  0  0  0  0  0  0
    3.1454    0.3669   -1.4914 C   0  0  0  0  0  0  0  0  0  0  0  0
   -3.5225    1.5396   -2.2890 O   0  0  0  0  0  0  0  0  0  0  0  0
   -2.5379    2.4616   -2.3495 N   0  0  0  0  0  0  0  0  0  0  0  0
   -3.0777    3.6831   -2.1459 O   0  0  0  0  0  0  0  0  0  0  0  0
   -1.5613    2.1907   -1.3151 C   0  0  0  0  0  0  0  0  0  0  0  0
   -2.1360    2.2316    0.0673 C   0  0  0  0  0  0  0  0  0  0  0  0
   -2.2387    0.8297    0.6283 C   0  0  0  0  0  0  0  0  0  0  0  0
   -0.9175    0.1347    0.7038 C   0  0  0  0  0  0  0  0  0  0  0  0
   -1.0876   -1.2850    0.5989 N   0  0  0  0  0  0  0  0  0  0  0  0
   -2.0437   -1.8437    1.8452 S   0  0  0  0  0  0  0  0  0  0  0  0
   -1.8895   -0.7304    3.1365 O   0  0  0  0  0  0  0  0  0  0  0  0
   -1.5408   -3.2284    2.3449 O   0  0  0  0  0  0  0  0  0  0  0  0
   -3.6851   -1.8408    1.4172 C   0  0  0  0  0  0  0  0  0  0  0  0
   -0.7916    0.9141   -1.5995 C   0  0  0  0  0  0  0  0  0  0  0  0
    0.0407    0.6230   -0.3856 C   0  0  0  0  0  0  0  0  0  0  0  0
    1.0826   -0.2189   -0.5670 O   0  0  0  0  0  0  0  0  0  0  0  0
    2.3349    0.2983   -0.2572 C   0  0  0  0  0  0  0  0  0  0  0  0
    2.8949   -0.4490    0.8893 C   0  0  0  0  0  0  0  0  0  0  0  0
    3.8573   -1.5315    0.5830 C   0  0  0  0  0  0  0  0  0  0  0  0
    3.9408   -1.8573   -0.9097 C   0  0  0  0  0  0  0  0  0  0  0  0
    4.3595   -0.5146   -1.5221 C   0  0  0  0  0  0  0  0  0  0  0  0
    3.1454    0.3669   -1.4914 C   0  0  0  0  0  0  0  0  0  0  0  0
   -2.7019    4.0845   -1.3073 H   0  0  0  0  0  0  0  0  0  0  0  0
   -0.7966    3.0176   -1.3761 H   0  0  0  0  0  0  0  0  0  0  0  0
   -3.1613    2.6631    0.0928 H   0  0  0  0  0  0  0  0  0  0  0  0
   -1.5306    2.8177    0.7773 H   0  0  0  0  0  0  0  0  0  0  0  0
   -2.9964    0.2569    0.0358 H   0  0  0  0  0  0  0  0  0  0  0  0
   -2.6485    0.9093    1.6569 H   0  0  0  0  0  0  0  0  0  0  0  0
   -0.4579    0.3747    1.7016 H   0  0  0  0  0  0  0  0  0  0  0  0
   -1.4354   -1.5276   -0.3407 H   0  0  0  0  0  0  0  0  0  0  0  0
   -2.7917   -0.6297    3.5464 H   0  0  0  0  0  0  0  0  0  0  0  0
   -2.1992   -3.8170    2.7512 H   0  0  0  0  0  0  0  0  0  0  0  0
   -4.2090   -2.6827    1.9178 H   0  0  0  0  0  0  0  0  0  0  0  0
   -4.1992   -0.9193    1.7463 H   0  0  0  0  0  0  0  0  0  0  0  0
   -3.8699   -1.9589    0.3236 H   0  0  0  0  0  0  0  0  0  0  0  0
   -0.2230    1.0857   -2.5140 H   0  0  0  0  0  0  0  0  0  0  0  0
   -1.5587    0.1087   -1.6905 H   0  0  0  0  0  0  0  0  0  0  0  0
    0.4300    1.6013   -0.0073 H   0  0  0  0  0  0  0  0  0  0  0  0
    2.1464    1.3572    0.0886 H   0  0  0  0  0  0  0  0  0  0  0  0
    3.3845    0.2389    1.6233 H   0  0  0  0  0  0  0  0  0  0  0  0
    2.0477   -0.9141    1.4769 H   0  0  0  0  0  0  0  0  0  0  0  0
    3.6464   -2.4873    1.1248 H   0  0  0  0  0  0  0  0  0  0  0  0
    4.8972   -1.2561    0.8778 H   0  0  0  0  0  0  0  0  0  0  0  0
    4.7171   -2.6202   -1.0132 H   0  0  0  0  0  0  0  0  0  0  0  0
    2.9552   -2.1686   -1.2936 H   0  0  0  0  0  0  0  0  0  0  0  0
    4.6896   -0.6617   -2.5499 H   0  0  0  0  0  0  0  0  0  0  0  0
    5.1802   -0.1435   -0.8962 H   0  0  0  0  0  0  0  0  0  0  0  0
    2.5454    0.0901   -2.4078 H   0  0  0  0  0  0  0  0  0  0  0  0
    3.5135    1.4073   -1.7270 H   0  0  0  0  0  0  0  0  0  0  0  0
   -2.7019    4.0845   -1.3073 H   0  0  0  0  0  0  0  0  0  0  0  0
   -0.7966    3.0176   -1.3761 H   0  0  0  0  0  0  0  0  0  0  0  0
   -3.1613    2.6631    0.0928 H   0  0  0  0  0  0  0  0  0  0  0  0
   -1.5306    2.8177    0.7773 H   0  0  0  0  0  0  0  0  0  0  0  0
   -2.9964    0.2569    0.0358 H   0  0  0  0  0  0  0  0  0  0  0  0
   -2.6485    0.9093    1.6569 H   0  0  0  0  0  0  0  0  0  0  0  0
   -0.4579    0.3747    1.7016 H   0  0  0  0  0  0  0  0  0  0  0  0
   -1.4354   -1.5276   -0.3407 H   0  0  0  0  0  0  0  0  0  0  0  0
   -2.7917   -0.6297    3.5464 H   0  0  0  0  0  0  0  0  0  0  0  0
   -2.1992   -3.8170    2.7512 H   0  0  0  0  0  0  0  0  0  0  0  0
   -4.2090   -2.6827    1.9178 H   0  0  0  0  0  0  0  0  0  0  0  0
   -4.1992   -0.9193    1.7463 H   0  0  0  0  0  0  0  0  0  0  0  0
   -3.8699   -1.9589    0.3236 H   0  0  0  0  0  0  0  0  0  0  0  0
   -0.2230    1.0857   -2.5140 H   0  0  0  0  0  0  0  0  0  0  0  0
   -1.5587    0.1087   -1.6905 H   0  0  0  0  0  0  0  0  0  0  0  0
    0.4300    1.6013   -0.0073 H   0  0  0  0  0  0  0  0  0  0  0  0
    2.1464    1.3572    0.0886 H   0  0  0  0  0  0  0  0  0  0  0  0
    3.3845    0.2389    1.6233 H   0  0  0  0  0  0  0  0  0  0  0  0
    2.0477   -0.9141    1.4769 H   0  0  0  0  0  0  0  0  0  0  0  0
    3.6464   -2.4873    1.1248 H   0  0  0  0  0  0  0  0  0  0  0  0
    4.8972   -1.2561    0.8778 H   0  0  0  0  0  0  0  0  0  0  0  0
    4.7171   -2.6202   -1.0132 H   0  0  0  0  0  0  0  0  0  0  0  0
    2.9552   -2.1686   -1.2936 H   0  0  0  0  0  0  0  0  0  0  0  0
    4.6896   -0.6617   -2.5499 H   0  0  0  0  0  0  0  0  0  0  0  0
    5.1802   -0.1435   -0.8962 H   0  0  0  0  0  0  0  0  0  0  0  0
    2.5454    0.0901   -2.4078 H   0  0  0  0  0  0  0  0  0  0  0  0
    3.5135    1.4073   -1.7270 H   0  0  0  0  0  0  0  0  0  0  0  0
  1  2  1  0
  2  3  1  0
  2  4  1  0
  4  5  1  0
  5  6  1  0
  6  7  1  0
  7  8  1  0
  8  9  1  0
  9 10  1  0
  9 11  1  0
  9 12  1  0
  4 13  1  0
  7 14  1  0
 13 14  1  0
 14 15  1  0
 15 16  1  0
 16 17  1  0
 17 18  1  0
 18 19  1  0
 19 20  1  0
 16 21  1  0
 20 21  1  0
 22 23  1  0
 23 24  1  0
 23 25  1  0
 25 26  1  0
 26 27  1  0
 27 28  1  0
 28 29  1  0
 29 30  1  0
 30 31  1  0
 30 32  1  0
 30 33  1  0
 25 34  1  0
 28 35  1  0
 34 35  1  0
 35 36  1  0
 36 37  1  0
 37 38  1  0
 38 39  1  0
 39 40  1  0
 40 41  1  0
 37 42  1  0
 41 42  1  0
  3 43  1  0
  4 44  1  0
  5 45  1  0
  5 46  1  0
  6 47  1  0
  6 48  1  0
  7 49  1  0
  8 50  1  0
 10 51  1  0
 11 52  1  0
 12 53  1  0
 12 54  1  0
 12 55  1  0
 13 56  1  0
 13 57  1  0
 14 58  1  0
 16 59  1  0
 17 60  1  0
 17 61  1  0
 18 62  1  0
 18 63  1  0
 19 64  1  0
 19 65  1  0
 20 66  1  0
 20 67  1  0
 21 68  1  0
 21 69  1  0
 24 70  1  0
 25 71  1  0
 26 72  1  0
 26 73  1  0
 27 74  1  0
 27 75  1  0
 28 76  1  0
 29 77  1  0
 31 78  1  0
 32 79  1  0
 33 80  1  0
 33 81  1  0
 33 82  1  0
 34 83  1  0
 34 84  1  0
 35 85  1  0
 37 86  1  0
 38 87  1  0
 38 88  1  0
 39 89  1  0
 39 90  1  0
 40 91  1  0
 40 92  1  0
 41 93  1  0
 41 94  1  0
 42 95  1  0
 42 96  1  0
M  CHG  2   1  -1  22  -1
M  END
>  <PDBID>  (1) 
3N8X

>  <PDB ID>  (1) 
3N8X

>  <Generic Name>  (1) 
Nimesulide

>  <Brand Name>  (1) 
Ainex#Aulin#Coxtal#Eskaflam#Mesulid#Nilsid#Nimalox#Nimside#Nise#Octaprin#Sintalgin#Sulide

>  <DrugBank ID>  (1) 
DB04743

>  <ATC Codes>  (1) 
M02AA26#M01AX17

>  <Ligand ID>  (1) 
NIM

>  <Target Name>  (1) 
Prostaglandin G/H synthase 2

>  <UniProt ID>  (1) 
P35354

>  <PDB ID.1>  (1) 
3N8X

>  <Seq. Identity>  (1) 
61%

$$$$
