PDB_DB00278_05
     RDKit          3D

170174  0  0  0  0  0  0  0  0999 V2000
    1.3035   -0.3490   -1.1339 S   0  0  0  0  0  0  0  0  0  0  0  0
    1.5837   -2.0463   -1.3201 O   0  0  0  0  0  0  0  0  0  0  0  0
    0.8030    0.0855   -2.5750 O   0  0  0  0  0  0  0  0  0  0  0  0
    5.2165    0.6674    1.8985 C   0  0  0  0  0  0  0  0  0  0  0  0
    6.2973   -0.2709    1.3401 C   0  0  2  0  0  0  0  0  0  0  0  0
    5.5462   -1.5469    1.0010 C   0  0  0  0  0  0  0  0  0  0  0  0
    4.5407   -1.3037   -0.0681 C   0  0  0  0  0  0  0  0  0  0  0  0
    5.2454   -1.3089   -1.3889 C   0  0  0  0  0  0  0  0  0  0  0  0
    4.3933   -0.8517   -2.5273 C   0  0  0  0  0  0  0  0  0  0  0  0
    3.6527    0.4030   -2.2484 C   0  0  0  0  0  0  0  0  0  0  0  0
    2.8721    0.3758   -0.9356 C   0  0  0  0  0  0  0  0  0  0  0  0
    3.6792   -0.1147    0.1965 C   0  0  0  0  0  0  0  0  0  0  0  0
    7.4130   -0.4963    2.3021 C   0  0  0  0  0  0  0  0  0  0  0  0
    4.3825    1.0159    0.7809 N   0  0  0  0  0  0  0  0  0  0  0  0
    0.4478   -0.1251    0.0948 N   0  0  0  0  0  0  0  0  0  0  0  0
   -0.8115    0.5883    0.1158 C   0  0  2  0  0  0  0  0  0  0  0  0
   -1.9256   -0.0592   -0.6191 C   0  0  0  0  0  0  0  0  0  0  0  0
   -1.7041   -0.2384   -1.9733 O   0  0  0  0  0  0  0  0  0  0  0  0
   -0.6197    1.9884   -0.4666 C   0  0  0  0  0  0  0  0  0  0  0  0
   -1.8971    2.7977   -0.4682 C   0  0  0  0  0  0  0  0  0  0  0  0
   -2.4594    2.9958    0.8959 C   0  0  0  0  0  0  0  0  0  0  0  0
   -3.6811    3.7275    0.8579 N   0  0  0  0  0  0  0  0  0  0  0  0
   -3.6338    5.0901    0.5039 C   0  0  0  0  0  0  0  0  0  0  0  0
   -3.1813    5.4136   -0.8095 N   0  0  0  0  0  0  0  0  0  0  0  0
   -5.0033    5.6322    0.6031 N   0  0  0  0  0  0  0  0  0  0  0  0
   -2.3114   -1.3522   -0.0678 N   0  0  0  0  0  0  0  0  0  0  0  0
   -3.4943   -1.7907   -0.7680 C   0  0  2  0  0  0  0  0  0  0  0  0
   -4.5880   -2.2875    0.1394 C   0  0  0  0  0  0  0  0  0  0  0  0
   -4.1456   -3.2107    1.2181 C   0  0  1  0  0  0  0  0  0  0  0  0
   -2.8045   -2.8004    1.7545 C   0  0  0  0  0  0  0  0  0  0  0  0
   -2.5892   -1.3382    1.3321 C   0  0  0  0  0  0  0  0  0  0  0  0
   -3.1775   -2.8037   -1.8469 C   0  0  0  0  0  0  0  0  0  0  0  0
   -2.5771   -3.9509   -1.3754 O   0  0  0  0  0  0  0  0  0  0  0  0
   -4.3575   -3.2006   -2.5134 O   0  0  0  0  0  0  0  0  0  0  0  0
   -5.1323   -3.0471    2.3804 C   0  0  0  0  0  0  0  0  0  0  0  0
    1.3035   -0.3490   -1.1339 S   0  0  0  0  0  0  0  0  0  0  0  0
    1.5837   -2.0463   -1.3201 O   0  0  0  0  0  0  0  0  0  0  0  0
    0.8030    0.0855   -2.5750 O   0  0  0  0  0  0  0  0  0  0  0  0
    5.2165    0.6674    1.8985 C   0  0  0  0  0  0  0  0  0  0  0  0
    6.2973   -0.2709    1.3401 C   0  0  2  0  0  0  0  0  0  0  0  0
    5.5462   -1.5469    1.0010 C   0  0  0  0  0  0  0  0  0  0  0  0
    4.5407   -1.3037   -0.0681 C   0  0  0  0  0  0  0  0  0  0  0  0
    5.2454   -1.3089   -1.3889 C   0  0  0  0  0  0  0  0  0  0  0  0
    4.3933   -0.8517   -2.5273 C   0  0  0  0  0  0  0  0  0  0  0  0
    3.6527    0.4030   -2.2484 C   0  0  0  0  0  0  0  0  0  0  0  0
    2.8721    0.3758   -0.9356 C   0  0  0  0  0  0  0  0  0  0  0  0
    3.6792   -0.1147    0.1965 C   0  0  0  0  0  0  0  0  0  0  0  0
    7.4130   -0.4963    2.3021 C   0  0  0  0  0  0  0  0  0  0  0  0
    4.3825    1.0159    0.7809 N   0  0  0  0  0  0  0  0  0  0  0  0
    0.4478   -0.1251    0.0948 N   0  0  0  0  0  0  0  0  0  0  0  0
   -0.8115    0.5883    0.1158 C   0  0  2  0  0  0  0  0  0  0  0  0
   -1.9256   -0.0592   -0.6191 C   0  0  0  0  0  0  0  0  0  0  0  0
   -1.7041   -0.2384   -1.9733 O   0  0  0  0  0  0  0  0  0  0  0  0
   -0.6197    1.9884   -0.4666 C   0  0  0  0  0  0  0  0  0  0  0  0
   -1.8971    2.7977   -0.4682 C   0  0  0  0  0  0  0  0  0  0  0  0
   -2.4594    2.9958    0.8959 C   0  0  0  0  0  0  0  0  0  0  0  0
   -3.6811    3.7275    0.8579 N   0  0  0  0  0  0  0  0  0  0  0  0
   -3.6338    5.0901    0.5039 C   0  0  0  0  0  0  0  0  0  0  0  0
   -3.1813    5.4136   -0.8095 N   0  0  0  0  0  0  0  0  0  0  0  0
   -5.0033    5.6322    0.6031 N   0  0  0  0  0  0  0  0  0  0  0  0
   -2.3114   -1.3522   -0.0678 N   0  0  0  0  0  0  0  0  0  0  0  0
   -3.4943   -1.7907   -0.7680 C   0  0  2  0  0  0  0  0  0  0  0  0
   -4.5880   -2.2875    0.1394 C   0  0  0  0  0  0  0  0  0  0  0  0
   -4.1456   -3.2107    1.2181 C   0  0  1  0  0  0  0  0  0  0  0  0
   -2.8045   -2.8004    1.7545 C   0  0  0  0  0  0  0  0  0  0  0  0
   -2.5892   -1.3382    1.3321 C   0  0  0  0  0  0  0  0  0  0  0  0
   -3.1775   -2.8037   -1.8469 C   0  0  0  0  0  0  0  0  0  0  0  0
   -2.5771   -3.9509   -1.3754 O   0  0  0  0  0  0  0  0  0  0  0  0
   -4.3575   -3.2006   -2.5134 O   0  0  0  0  0  0  0  0  0  0  0  0
   -5.1323   -3.0471    2.3804 C   0  0  0  0  0  0  0  0  0  0  0  0
    0.8232   -2.5408   -0.8966 H   0  0  0  0  0  0  0  0  0  0  0  0
    1.1588   -0.4093   -3.3558 H   0  0  0  0  0  0  0  0  0  0  0  0
    5.7184    1.5686    2.2545 H   0  0  0  0  0  0  0  0  0  0  0  0
    4.5794    0.1646    2.6408 H   0  0  0  0  0  0  0  0  0  0  0  0
    6.6897    0.2361    0.4296 H   0  0  0  0  0  0  0  0  0  0  0  0
    6.2463   -2.3425    0.7398 H   0  0  0  0  0  0  0  0  0  0  0  0
    5.0088   -1.8483    1.9417 H   0  0  0  0  0  0  0  0  0  0  0  0
    3.8598   -2.2075   -0.0757 H   0  0  0  0  0  0  0  0  0  0  0  0
    5.5328   -2.3680   -1.6112 H   0  0  0  0  0  0  0  0  0  0  0  0
    6.2172   -0.7510   -1.3892 H   0  0  0  0  0  0  0  0  0  0  0  0
    5.1111   -0.6128   -3.3681 H   0  0  0  0  0  0  0  0  0  0  0  0
    3.7879   -1.6917   -2.9049 H   0  0  0  0  0  0  0  0  0  0  0  0
    4.3807    1.2477   -2.2140 H   0  0  0  0  0  0  0  0  0  0  0  0
    2.9594    0.6302   -3.0853 H   0  0  0  0  0  0  0  0  0  0  0  0
    2.6484    1.4754   -0.7618 H   0  0  0  0  0  0  0  0  0  0  0  0
    2.9541   -0.4323    1.0064 H   0  0  0  0  0  0  0  0  0  0  0  0
    7.5009    0.4187    2.9330 H   0  0  0  0  0  0  0  0  0  0  0  0
    7.3276   -1.4169    2.8915 H   0  0  0  0  0  0  0  0  0  0  0  0
    8.3759   -0.5191    1.7190 H   0  0  0  0  0  0  0  0  0  0  0  0
    4.8297    1.6261    0.0813 H   0  0  0  0  0  0  0  0  0  0  0  0
    0.9092   -0.0550    1.0297 H   0  0  0  0  0  0  0  0  0  0  0  0
   -1.1060    0.7282    1.1693 H   0  0  0  0  0  0  0  0  0  0  0  0
   -2.8354    0.5630   -0.5221 H   0  0  0  0  0  0  0  0  0  0  0  0
   -2.3474    0.2289   -2.5298 H   0  0  0  0  0  0  0  0  0  0  0  0
    0.1281    2.5644    0.1004 H   0  0  0  0  0  0  0  0  0  0  0  0
   -0.3333    1.8607   -1.5404 H   0  0  0  0  0  0  0  0  0  0  0  0
   -2.6732    2.4370   -1.1431 H   0  0  0  0  0  0  0  0  0  0  0  0
   -1.5841    3.7968   -0.9112 H   0  0  0  0  0  0  0  0  0  0  0  0
   -1.6650    3.5090    1.4954 H   0  0  0  0  0  0  0  0  0  0  0  0
   -2.6969    1.9968    1.3464 H   0  0  0  0  0  0  0  0  0  0  0  0
   -4.3868    3.4706    1.5693 H   0  0  0  0  0  0  0  0  0  0  0  0
   -3.0238    5.6191    1.2800 H   0  0  0  0  0  0  0  0  0  0  0  0
   -2.5640    6.2635   -0.8590 H   0  0  0  0  0  0  0  0  0  0  0  0
   -3.9464    5.4521   -1.5275 H   0  0  0  0  0  0  0  0  0  0  0  0
   -5.2145    5.9089    1.5794 H   0  0  0  0  0  0  0  0  0  0  0  0
   -5.0833    6.4716   -0.0347 H   0  0  0  0  0  0  0  0  0  0  0  0
   -3.9610   -0.9223   -1.3261 H   0  0  0  0  0  0  0  0  0  0  0  0
   -5.1930   -1.4236    0.5136 H   0  0  0  0  0  0  0  0  0  0  0  0
   -5.2941   -2.8632   -0.5276 H   0  0  0  0  0  0  0  0  0  0  0  0
   -4.1897   -4.2859    0.9495 H   0  0  0  0  0  0  0  0  0  0  0  0
   -2.0076   -3.3898    1.2505 H   0  0  0  0  0  0  0  0  0  0  0  0
   -2.7448   -2.8889    2.8580 H   0  0  0  0  0  0  0  0  0  0  0  0
   -3.4886   -0.7151    1.6064 H   0  0  0  0  0  0  0  0  0  0  0  0
   -1.7748   -0.9849    1.9824 H   0  0  0  0  0  0  0  0  0  0  0  0
   -2.5613   -2.2995   -2.6294 H   0  0  0  0  0  0  0  0  0  0  0  0
   -3.2524   -4.6770   -1.2253 H   0  0  0  0  0  0  0  0  0  0  0  0
   -4.0768   -3.8793   -3.1780 H   0  0  0  0  0  0  0  0  0  0  0  0
   -4.6335   -3.3361    3.3305 H   0  0  0  0  0  0  0  0  0  0  0  0
   -5.3758   -1.9868    2.4625 H   0  0  0  0  0  0  0  0  0  0  0  0
   -6.0167   -3.6785    2.1468 H   0  0  0  0  0  0  0  0  0  0  0  0
    0.8232   -2.5408   -0.8966 H   0  0  0  0  0  0  0  0  0  0  0  0
    1.1588   -0.4093   -3.3558 H   0  0  0  0  0  0  0  0  0  0  0  0
    5.7184    1.5686    2.2545 H   0  0  0  0  0  0  0  0  0  0  0  0
    4.5794    0.1646    2.6408 H   0  0  0  0  0  0  0  0  0  0  0  0
    6.6897    0.2361    0.4296 H   0  0  0  0  0  0  0  0  0  0  0  0
    6.2463   -2.3425    0.7398 H   0  0  0  0  0  0  0  0  0  0  0  0
    5.0088   -1.8483    1.9417 H   0  0  0  0  0  0  0  0  0  0  0  0
    3.8598   -2.2075   -0.0757 H   0  0  0  0  0  0  0  0  0  0  0  0
    5.5328   -2.3680   -1.6112 H   0  0  0  0  0  0  0  0  0  0  0  0
    6.2172   -0.7510   -1.3892 H   0  0  0  0  0  0  0  0  0  0  0  0
    5.1111   -0.6128   -3.3681 H   0  0  0  0  0  0  0  0  0  0  0  0
    3.7879   -1.6917   -2.9049 H   0  0  0  0  0  0  0  0  0  0  0  0
    4.3807    1.2477   -2.2140 H   0  0  0  0  0  0  0  0  0  0  0  0
    2.9594    0.6302   -3.0853 H   0  0  0  0  0  0  0  0  0  0  0  0
    2.6484    1.4754   -0.7618 H   0  0  0  0  0  0  0  0  0  0  0  0
    2.9541   -0.4323    1.0064 H   0  0  0  0  0  0  0  0  0  0  0  0
    7.5009    0.4187    2.9330 H   0  0  0  0  0  0  0  0  0  0  0  0
    7.3276   -1.4169    2.8915 H   0  0  0  0  0  0  0  0  0  0  0  0
    8.3759   -0.5191    1.7190 H   0  0  0  0  0  0  0  0  0  0  0  0
    4.8297    1.6261    0.0813 H   0  0  0  0  0  0  0  0  0  0  0  0
    0.9092   -0.0550    1.0297 H   0  0  0  0  0  0  0  0  0  0  0  0
   -1.1060    0.7282    1.1693 H   0  0  0  0  0  0  0  0  0  0  0  0
   -2.8354    0.5630   -0.5221 H   0  0  0  0  0  0  0  0  0  0  0  0
   -2.3474    0.2289   -2.5298 H   0  0  0  0  0  0  0  0  0  0  0  0
    0.1281    2.5644    0.1004 H   0  0  0  0  0  0  0  0  0  0  0  0
   -0.3333    1.8607   -1.5404 H   0  0  0  0  0  0  0  0  0  0  0  0
   -2.6732    2.4370   -1.1431 H   0  0  0  0  0  0  0  0  0  0  0  0
   -1.5841    3.7968   -0.9112 H   0  0  0  0  0  0  0  0  0  0  0  0
   -1.6650    3.5090    1.4954 H   0  0  0  0  0  0  0  0  0  0  0  0
   -2.6969    1.9968    1.3464 H   0  0  0  0  0  0  0  0  0  0  0  0
   -4.3868    3.4706    1.5693 H   0  0  0  0  0  0  0  0  0  0  0  0
   -3.0238    5.6191    1.2800 H   0  0  0  0  0  0  0  0  0  0  0  0
   -2.5640    6.2635   -0.8590 H   0  0  0  0  0  0  0  0  0  0  0  0
   -3.9464    5.4521   -1.5275 H   0  0  0  0  0  0  0  0  0  0  0  0
   -5.2145    5.9089    1.5794 H   0  0  0  0  0  0  0  0  0  0  0  0
   -5.0833    6.4716   -0.0347 H   0  0  0  0  0  0  0  0  0  0  0  0
   -3.9610   -0.9223   -1.3261 H   0  0  0  0  0  0  0  0  0  0  0  0
   -5.1930   -1.4236    0.5136 H   0  0  0  0  0  0  0  0  0  0  0  0
   -5.2941   -2.8632   -0.5276 H   0  0  0  0  0  0  0  0  0  0  0  0
   -4.1897   -4.2859    0.9495 H   0  0  0  0  0  0  0  0  0  0  0  0
   -2.0076   -3.3898    1.2505 H   0  0  0  0  0  0  0  0  0  0  0  0
   -2.7448   -2.8889    2.8580 H   0  0  0  0  0  0  0  0  0  0  0  0
   -3.4886   -0.7151    1.6064 H   0  0  0  0  0  0  0  0  0  0  0  0
   -1.7748   -0.9849    1.9824 H   0  0  0  0  0  0  0  0  0  0  0  0
   -2.5613   -2.2995   -2.6294 H   0  0  0  0  0  0  0  0  0  0  0  0
   -3.2524   -4.6770   -1.2253 H   0  0  0  0  0  0  0  0  0  0  0  0
   -4.0768   -3.8793   -3.1780 H   0  0  0  0  0  0  0  0  0  0  0  0
   -4.6335   -3.3361    3.3305 H   0  0  0  0  0  0  0  0  0  0  0  0
   -5.3758   -1.9868    2.4625 H   0  0  0  0  0  0  0  0  0  0  0  0
   -6.0167   -3.6785    2.1468 H   0  0  0  0  0  0  0  0  0  0  0  0
  1  2  1  0
  1  3  1  0
  4  5  1  0
  5  6  1  0
  6  7  1  0
  7  8  1  0
  8  9  1  0
  9 10  1  0
  1 11  1  0
 10 11  1  0
  7 12  1  0
 11 12  1  0
  5 13  1  0
  4 14  1  0
 12 14  1  0
  1 15  1  0
 15 16  1  0
 16 17  1  0
 17 18  1  0
 16 19  1  0
 19 20  1  0
 20 21  1  0
 21 22  1  0
 22 23  1  0
 23 24  1  0
 23 25  1  0
 17 26  1  0
 26 27  1  0
 27 28  1  0
 28 29  1  0
 29 30  1  0
 26 31  1  0
 30 31  1  0
 27 32  1  0
 32 33  1  0
 32 34  1  0
 29 35  1  0
 36 37  1  0
 36 38  1  0
 39 40  1  0
 40 41  1  0
 41 42  1  0
 42 43  1  0
 43 44  1  0
 44 45  1  0
 36 46  1  0
 45 46  1  0
 42 47  1  0
 46 47  1  0
 40 48  1  0
 39 49  1  0
 47 49  1  0
 36 50  1  0
 50 51  1  0
 51 52  1  0
 52 53  1  0
 51 54  1  0
 54 55  1  0
 55 56  1  0
 56 57  1  0
 57 58  1  0
 58 59  1  0
 58 60  1  0
 52 61  1  0
 61 62  1  0
 62 63  1  0
 63 64  1  0
 64 65  1  0
 61 66  1  0
 65 66  1  0
 62 67  1  0
 67 68  1  0
 67 69  1  0
 64 70  1  0
  2 71  1  0
  3 72  1  0
  4 73  1  0
  4 74  1  0
  5 75  1  6
  6 76  1  0
  6 77  1  0
  7 78  1  0
  8 79  1  0
  8 80  1  0
  9 81  1  0
  9 82  1  0
 10 83  1  0
 10 84  1  0
 11 85  1  0
 12 86  1  0
 13 87  1  0
 13 88  1  0
 13 89  1  0
 14 90  1  0
 15 91  1  0
 16 92  1  1
 17 93  1  0
 18 94  1  0
 19 95  1  0
 19 96  1  0
 20 97  1  0
 20 98  1  0
 21 99  1  0
 21100  1  0
 22101  1  0
 23102  1  0
 24103  1  0
 24104  1  0
 25105  1  0
 25106  1  0
 27107  1  6
 28108  1  0
 28109  1  0
 29110  1  6
 30111  1  0
 30112  1  0
 31113  1  0
 31114  1  0
 32115  1  0
 33116  1  0
 34117  1  0
 35118  1  0
 35119  1  0
 35120  1  0
 37121  1  0
 38122  1  0
 39123  1  0
 39124  1  0
 40125  1  6
 41126  1  0
 41127  1  0
 42128  1  0
 43129  1  0
 43130  1  0
 44131  1  0
 44132  1  0
 45133  1  0
 45134  1  0
 46135  1  0
 47136  1  0
 48137  1  0
 48138  1  0
 48139  1  0
 49140  1  0
 50141  1  0
 51142  1  1
 52143  1  0
 53144  1  0
 54145  1  0
 54146  1  0
 55147  1  0
 55148  1  0
 56149  1  0
 56150  1  0
 57151  1  0
 58152  1  0
 59153  1  0
 59154  1  0
 60155  1  0
 60156  1  0
 62157  1  6
 63158  1  0
 63159  1  0
 64160  1  6
 65161  1  0
 65162  1  0
 66163  1  0
 66164  1  0
 67165  1  0
 68166  1  0
 69167  1  0
 70168  1  0
 70169  1  0
 70170  1  0
M  END
>  <PDBID>  (1) 
4HFP

>  <PDB ID>  (1) 
4HFP

>  <Generic Name>  (1) 
Argatroban

>  <Brand Name>  (1) 
Argatroban

>  <DrugBank ID>  (1) 
DB00278

>  <ATC Codes>  (1) 
B01AE03

>  <Ligand ID>  (1) 
15U,MIT

>  <Target Name>  (1) 
Prothrombin

>  <UniProt ID>  (1) 
P00734

>  <PDB ID.1>  (1) 
4HFP

>  <Seq. Identity>  (1) 
100%

$$$$
