PDB_DB01051_01
     RDKit          3D

408420  0  0  0  0  0  0  0  0999 V2000
   -9.8338    0.0112    1.8305 C   0  0  0  0  0  0  0  0  0  0  0  0
   -8.4690   -0.1319    1.6522 O   0  0  0  0  0  0  0  0  0  0  0  0
  -10.1515   -2.4767   -1.2679 N   0  0  0  0  0  0  0  0  0  0  0  0
   -8.7246   -2.5161   -1.2739 C   0  0  0  0  0  0  0  0  0  0  0  0
   -8.2239   -3.3836   -2.2561 O   0  0  0  0  0  0  0  0  0  0  0  0
   -8.2282   -1.2359   -1.4295 O   0  0  0  0  0  0  0  0  0  0  0  0
   -8.0501    0.2764    0.3629 C   0  0  2  0  0  0  0  0  0  0  0  0
   -7.4193   -0.8584   -0.3411 C   0  0  2  0  0  0  0  0  0  0  0  0
   -6.0011   -0.6775   -0.7934 C   0  0  1  0  0  0  0  0  0  0  0  0
   -6.0045   -0.5369   -2.1777 O   0  0  0  0  0  0  0  0  0  0  0  0
   -5.2616    0.4636   -0.1931 C   0  0  1  0  0  0  0  0  0  0  0  0
   -5.9175    0.9356    0.9888 O   0  0  0  0  0  0  0  0  0  0  0  0
   -7.1253    1.4570    0.6192 C   0  0  0  0  0  0  0  0  0  0  0  0
   -7.0885    2.3484   -0.6051 C   0  0  0  0  0  0  0  0  0  0  0  0
   -7.7065    2.3089    1.7318 C   0  0  0  0  0  0  0  0  0  0  0  0
   -4.0435    0.0557    0.2221 O   0  0  0  0  0  0  0  0  0  0  0  0
   -2.9223    0.7435   -0.1153 C   0  0  0  0  0  0  0  0  0  0  0  0
   -1.9517    0.0645   -1.0064 C   0  0  1  0  0  0  0  0  0  0  0  0
   -2.0667    0.5179   -2.4583 C   0  0  0  0  0  0  0  0  0  0  0  0
   -0.5760    0.5084   -0.5514 C   0  0  0  0  0  0  0  0  0  0  0  0
   -0.3129   -0.2179    0.7401 C   0  0  0  0  0  0  0  0  0  0  0  0
   -1.2306    0.4287    1.7510 C   0  0  0  0  0  0  0  0  0  0  0  0
   -2.2831    1.2841    1.1285 C   0  0  0  0  0  0  0  0  0  0  0  0
    0.4416    0.2455   -1.4286 O   0  0  0  0  0  0  0  0  0  0  0  0
    1.4819    1.1177   -1.0795 C   0  0  0  0  0  0  0  0  0  0  0  0
    2.5153    0.9686   -1.9843 O   0  0  0  0  0  0  0  0  0  0  0  0
    1.8906    0.9336    0.3644 C   0  0  1  0  0  0  0  0  0  0  0  0
    1.1408   -0.1386    1.0576 C   0  0  0  0  0  0  0  0  0  0  0  0
    1.7599   -1.3786    0.7807 O   0  0  0  0  0  0  0  0  0  0  0  0
    3.3094    0.7395    0.3672 N   0  0  0  0  0  0  0  0  0  0  0  0
    3.8979    0.1827    1.5351 C   0  0  0  0  0  0  0  0  0  0  0  0
    4.5819    1.2161    2.2308 O   0  0  0  0  0  0  0  0  0  0  0  0
    4.9440   -0.7966    1.1120 C   0  0  1  0  0  0  0  0  0  0  0  0
    6.0662   -0.1353    0.2846 C   0  0  0  0  0  0  0  0  0  0  0  0
    6.5637   -1.1982   -0.6350 C   0  0  0  0  0  0  0  0  0  0  0  0
    6.8793   -2.4226    0.2227 C   0  0  1  0  0  0  0  0  0  0  0  0
    8.0580   -3.0335   -0.1489 O   0  0  0  0  0  0  0  0  0  0  0  0
    6.9761   -2.0726    1.7019 C   0  0  0  0  0  0  0  0  0  0  0  0
    5.6550   -1.5069    2.2302 C   0  0  0  0  0  0  0  0  0  0  0  0
    7.6346   -0.8761   -1.5844 C   0  0  0  0  0  0  0  0  0  0  0  0
    8.9694   -0.4708   -1.1487 C   0  0  0  0  0  0  0  0  0  0  0  0
    9.1810    0.7173   -0.3036 C   0  0  0  0  0  0  0  0  0  0  0  0
    8.6896    2.0217   -0.8687 C   0  0  0  0  0  0  0  0  0  0  0  0
   10.7423    0.9112   -0.2724 C   0  0  0  0  0  0  0  0  0  0  0  0
   -9.6712    0.0312    1.8569 C   0  0  0  0  0  0  0  0  0  0  0  0
   -8.2898   -0.0991    1.8387 O   0  0  0  0  0  0  0  0  0  0  0  0
   -9.6698   -2.6176   -1.4923 N   0  0  0  0  0  0  0  0  0  0  0  0
   -8.2664   -2.6182   -1.2235 C   0  0  0  0  0  0  0  0  0  0  0  0
   -7.5487   -3.4526   -2.0821 O   0  0  0  0  0  0  0  0  0  0  0  0
   -7.7095   -1.3667   -1.2724 O   0  0  0  0  0  0  0  0  0  0  0  0
   -7.7532    0.1847    0.5870 C   0  0  2  0  0  0  0  0  0  0  0  0
   -7.0959   -0.9812   -0.0583 C   0  0  2  0  0  0  0  0  0  0  0  0
   -5.6078   -0.8938   -0.2476 C   0  0  1  0  0  0  0  0  0  0  0  0
   -5.3177   -1.1265   -1.5907 O   0  0  0  0  0  0  0  0  0  0  0  0
   -4.9527    0.3367    0.2395 C   0  0  1  0  0  0  0  0  0  0  0  0
   -5.6763    0.9557    1.2795 O   0  0  0  0  0  0  0  0  0  0  0  0
   -6.8726    1.4063    0.7307 C   0  0  0  0  0  0  0  0  0  0  0  0
   -6.7476    2.0221   -0.6323 C   0  0  0  0  0  0  0  0  0  0  0  0
   -7.5737    2.3947    1.6169 C   0  0  0  0  0  0  0  0  0  0  0  0
   -3.6673    0.0093    0.6822 O   0  0  0  0  0  0  0  0  0  0  0  0
   -2.7151    0.8896    0.2001 C   0  0  0  0  0  0  0  0  0  0  0  0
   -1.8545    0.3140   -0.9287 C   0  0  0  0  0  0  0  0  0  0  0  0
   -2.2510    0.8149   -2.2773 C   0  0  0  0  0  0  0  0  0  0  0  0
   -0.4583    0.7515   -0.6104 C   0  0  0  0  0  0  0  0  0  0  0  0
   -0.0671   -0.1224    0.5905 C   0  0  0  0  0  0  0  0  0  0  0  0
   -0.7384    0.4836    1.7531 C   0  0  0  0  0  0  0  0  0  0  0  0
   -1.9053    1.3803    1.3425 C   0  0  0  0  0  0  0  0  0  0  0  0
    0.5057    0.6655   -1.5481 O   0  0  0  0  0  0  0  0  0  0  0  0
    1.5684    1.5025   -1.1494 C   0  0  0  0  0  0  0  0  0  0  0  0
    2.6414    1.2588   -1.9774 O   0  0  0  0  0  0  0  0  0  0  0  0
    1.9993    1.1113    0.2830 C   0  0  1  0  0  0  0  0  0  0  0  0
    1.4407   -0.2420    0.6025 C   0  0  0  0  0  0  0  0  0  0  0  0
    1.7898   -1.1497   -0.4397 O   0  0  0  0  0  0  0  0  0  0  0  0
    3.3224    1.4188    0.4623 N   0  0  0  0  0  0  0  0  0  0  0  0
    4.3370    0.8482    1.1651 C   0  0  0  0  0  0  0  0  0  0  0  0
    5.3604    1.8657    1.3365 O   0  0  0  0  0  0  0  0  0  0  0  0
    4.9941   -0.4334    0.9504 C   0  0  0  0  0  0  0  0  0  0  0  0
    5.6429   -0.6715   -0.3957 C   0  0  0  0  0  0  0  0  0  0  0  0
    6.6317   -1.7572   -0.2978 C   0  0  0  0  0  0  0  0  0  0  0  0
    6.7903   -2.3797    1.0814 C   0  0  0  0  0  0  0  0  0  0  0  0
    7.3749   -3.6471    0.8252 O   0  0  0  0  0  0  0  0  0  0  0  0
    5.5126   -2.6521    1.7616 C   0  0  0  0  0  0  0  0  0  0  0  0
    4.3779   -1.6901    1.4299 C   0  0  0  0  0  0  0  0  0  0  0  0
    7.9455   -1.4881   -0.9034 C   0  0  0  0  0  0  0  0  0  0  0  0
    8.8311   -0.4172   -0.4699 C   0  0  0  0  0  0  0  0  0  0  0  0
    8.4886    1.0106   -0.6164 C   0  0  0  0  0  0  0  0  0  0  0  0
    8.2692    1.4355   -2.0553 C   0  0  0  0  0  0  0  0  0  0  0  0
    9.8217    1.7614   -0.2438 C   0  0  0  0  0  0  0  0  0  0  0  0
  -10.0085   -0.2015    1.8129 C   0  0  0  0  0  0  0  0  0  0  0  0
   -8.6254   -0.2389    1.7119 O   0  0  0  0  0  0  0  0  0  0  0  0
   -9.8316   -2.6742   -1.7436 N   0  0  0  0  0  0  0  0  0  0  0  0
   -8.4281   -2.5702   -1.4620 C   0  0  0  0  0  0  0  0  0  0  0  0
   -7.7456   -3.4691   -2.2578 O   0  0  0  0  0  0  0  0  0  0  0  0
   -7.9155   -1.3065   -1.4478 O   0  0  0  0  0  0  0  0  0  0  0  0
   -8.1713    0.1575    0.4562 C   0  0  2  0  0  0  0  0  0  0  0  0
   -7.3663   -0.8783   -0.2549 C   0  0  2  0  0  0  0  0  0  0  0  0
   -5.9205   -0.6457   -0.4221 C   0  0  1  0  0  0  0  0  0  0  0  0
   -5.4872   -0.7513   -1.7537 O   0  0  0  0  0  0  0  0  0  0  0  0
   -5.3261    0.6077    0.1167 C   0  0  1  0  0  0  0  0  0  0  0  0
   -6.0810    1.0242    1.2413 O   0  0  0  0  0  0  0  0  0  0  0  0
   -7.3207    1.3879    0.7078 C   0  0  0  0  0  0  0  0  0  0  0  0
   -7.2146    2.1691   -0.5921 C   0  0  0  0  0  0  0  0  0  0  0  0
   -7.9733    2.3438    1.6930 C   0  0  0  0  0  0  0  0  0  0  0  0
   -4.0126    0.3205    0.4828 O   0  0  0  0  0  0  0  0  0  0  0  0
   -3.0952    1.3205    0.2152 C   0  0  0  0  0  0  0  0  0  0  0  0
   -2.1381    1.0345   -0.9223 C   0  0  0  0  0  0  0  0  0  0  0  0
   -2.1169    2.1482   -1.9131 C   0  0  0  0  0  0  0  0  0  0  0  0
   -0.7652    0.8967   -0.3048 C   0  0  0  0  0  0  0  0  0  0  0  0
   -0.9345   -0.2982    0.6512 C   0  0  0  0  0  0  0  0  0  0  0  0
   -1.4931    0.3535    1.9038 C   0  0  0  0  0  0  0  0  0  0  0  0
   -2.3615    1.5575    1.5148 C   0  0  0  0  0  0  0  0  0  0  0  0
    0.2703    0.6505   -1.1434 O   0  0  0  0  0  0  0  0  0  0  0  0
    1.4699    0.8108   -0.3940 C   0  0  0  0  0  0  0  0  0  0  0  0
    2.5294    0.7067   -1.2888 O   0  0  0  0  0  0  0  0  0  0  0  0
    1.5539   -0.1979    0.6904 C   0  0  1  0  0  0  0  0  0  0  0  0
    0.3081   -1.0665    0.8001 C   0  0  0  0  0  0  0  0  0  0  0  0
    0.4173   -2.0645   -0.1691 O   0  0  0  0  0  0  0  0  0  0  0  0
    2.7310   -0.9615    0.6751 N   0  0  0  0  0  0  0  0  0  0  0  0
    3.9787   -0.3874    0.9876 C   0  0  0  0  0  0  0  0  0  0  0  0
    3.9925    1.0013    0.8565 O   0  0  0  0  0  0  0  0  0  0  0  0
    5.0695   -1.0154    0.1115 C   0  0  1  0  0  0  0  0  0  0  0  0
    6.4043   -0.4630    0.4701 C   0  0  0  0  0  0  0  0  0  0  0  0
    7.5425   -1.0742   -0.2427 C   0  0  2  0  0  0  0  0  0  0  0  0
    7.4397   -2.5910   -0.2660 C   0  0  0  0  0  0  0  0  0  0  0  0
    8.3640   -3.0450   -1.2303 O   0  0  0  0  0  0  0  0  0  0  0  0
    6.0892   -3.0821   -0.6512 C   0  0  0  0  0  0  0  0  0  0  0  0
    5.0321   -2.5085    0.2926 C   0  0  0  0  0  0  0  0  0  0  0  0
    8.8712   -0.7624    0.4790 C   0  0  0  0  0  0  0  0  0  0  0  0
    9.1827    0.6777    0.5990 C   0  0  0  0  0  0  0  0  0  0  0  0
    9.3747    1.4385   -0.6655 C   0  0  0  0  0  0  0  0  0  0  0  0
   10.5133    0.9442   -1.5235 C   0  0  0  0  0  0  0  0  0  0  0  0
    9.6826    2.8840   -0.2851 C   0  0  0  0  0  0  0  0  0  0  0  0
  -10.2437    1.1706    0.2736 C   0  0  0  0  0  0  0  0  0  0  0  0
   -9.1013    0.7541    0.9080 O   0  0  0  0  0  0  0  0  0  0  0  0
   -7.4071   -3.3292   -1.7974 N   0  0  0  0  0  0  0  0  0  0  0  0
   -8.3281   -2.2499   -1.3732 C   0  0  0  0  0  0  0  0  0  0  0  0
   -9.3138   -2.1934   -2.3453 O   0  0  0  0  0  0  0  0  0  0  0  0
   -7.5772   -1.1176   -1.3273 O   0  0  0  0  0  0  0  0  0  0  0  0
   -7.9502    0.7945    0.0814 C   0  0  2  0  0  0  0  0  0  0  0  0
   -7.3830   -0.5598   -0.0582 C   0  0  2  0  0  0  0  0  0  0  0  0
   -5.9329   -0.7464    0.2775 C   0  0  1  0  0  0  0  0  0  0  0  0
   -5.2546   -1.4751   -0.6925 O   0  0  0  0  0  0  0  0  0  0  0  0
   -5.2348    0.5903    0.5124 C   0  0  1  0  0  0  0  0  0  0  0  0
   -6.0519    1.3472    1.3800 O   0  0  0  0  0  0  0  0  0  0  0  0
   -7.0819    1.8708    0.6177 C   0  0  0  0  0  0  0  0  0  0  0  0
   -6.5564    2.7703   -0.4936 C   0  0  0  0  0  0  0  0  0  0  0  0
   -7.8769    2.8028    1.5504 C   0  0  0  0  0  0  0  0  0  0  0  0
   -3.9742    0.3458    0.9619 O   0  0  0  0  0  0  0  0  0  0  0  0
   -2.9707    0.8944    0.1766 C   0  0  0  0  0  0  0  0  0  0  0  0
   -2.1787   -0.1306   -0.5923 C   0  0  1  0  0  0  0  0  0  0  0  0
   -2.6351   -0.2078   -2.0042 C   0  0  0  0  0  0  0  0  0  0  0  0
   -0.7526    0.3585   -0.5925 C   0  0  0  0  0  0  0  0  0  0  0  0
   -0.2514    0.0513    0.8194 C   0  0  0  0  0  0  0  0  0  0  0  0
   -0.9277    1.0662    1.6902 C   0  0  0  0  0  0  0  0  0  0  0  0
   -2.0959    1.7568    1.0083 C   0  0  0  0  0  0  0  0  0  0  0  0
    0.0824   -0.2530   -1.4815 O   0  0  0  0  0  0  0  0  0  0  0  0
    1.2073    0.5710   -1.6127 C   0  0  0  0  0  0  0  0  0  0  0  0
    2.0117    0.0635   -2.6028 O   0  0  0  0  0  0  0  0  0  0  0  0
    1.8973    0.7662   -0.2751 C   0  0  1  0  0  0  0  0  0  0  0  0
    1.2237    0.0241    0.8320 C   0  0  0  0  0  0  0  0  0  0  0  0
    1.5980   -1.3406    0.8478 O   0  0  0  0  0  0  0  0  0  0  0  0
    3.2688    0.5365   -0.4711 N   0  0  0  0  0  0  0  0  0  0  0  0
    4.0882    0.0271    0.5499 C   0  0  2  0  0  0  0  0  0  0  0  0
    4.4627    1.0213    1.4874 O   0  0  0  0  0  0  0  0  0  0  0  0
    5.4473   -0.4527   -0.0299 C   0  0  1  0  0  0  0  0  0  0  0  0
    6.2194   -0.9838    1.1578 C   0  0  0  0  0  0  0  0  0  0  0  0
    7.3302   -1.8748    0.7973 C   0  0  0  0  0  0  0  0  0  0  0  0
    6.7269   -3.0604    0.0336 C   0  0  0  0  0  0  0  0  0  0  0  0
    5.7495   -3.6808    0.7702 O   0  0  0  0  0  0  0  0  0  0  0  0
    6.1779   -2.5360   -1.2513 C   0  0  0  0  0  0  0  0  0  0  0  0
    5.1563   -1.4616   -1.0833 C   0  0  0  0  0  0  0  0  0  0  0  0
    8.5254   -1.4043    0.1124 C   0  0  0  0  0  0  0  0  0  0  0  0
    9.4267   -0.4276    0.7149 C   0  0  0  0  0  0  0  0  0  0  0  0
    8.9582    0.9386    1.0682 C   0  0  0  0  0  0  0  0  0  0  0  0
    8.4257    1.7219   -0.0851 C   0  0  0  0  0  0  0  0  0  0  0  0
   10.1947    1.7714    1.5551 C   0  0  0  0  0  0  0  0  0  0  0  0
  -10.3188   -0.6278    1.0580 H   0  0  0  0  0  0  0  0  0  0  0  0
  -10.1685    1.0699    1.7524 H   0  0  0  0  0  0  0  0  0  0  0  0
  -10.0585   -0.3410    2.8558 H   0  0  0  0  0  0  0  0  0  0  0  0
  -10.5977   -1.9369   -2.0145 H   0  0  0  0  0  0  0  0  0  0  0  0
  -10.6205   -2.5326   -0.3622 H   0  0  0  0  0  0  0  0  0  0  0  0
   -8.3758   -2.9507   -0.3103 H   0  0  0  0  0  0  0  0  0  0  0  0
   -8.7001   -3.2502   -3.0937 H   0  0  0  0  0  0  0  0  0  0  0  0
   -8.9597    0.6164   -0.1930 H   0  0  0  0  0  0  0  0  0  0  0  0
   -7.4257   -1.7528    0.3537 H   0  0  0  0  0  0  0  0  0  0  0  0
   -5.4319   -1.6422   -0.6109 H   0  0  0  0  0  0  0  0  0  0  0  0
   -5.5138   -1.2567   -2.6176 H   0  0  0  0  0  0  0  0  0  0  0  0
   -5.2990    1.3318   -0.8551 H   0  0  0  0  0  0  0  0  0  0  0  0
   -6.2737    3.0776   -0.5521 H   0  0  0  0  0  0  0  0  0  0  0  0
   -8.0300    2.9750   -0.5586 H   0  0  0  0  0  0  0  0  0  0  0  0
   -7.1755    1.8066   -1.5571 H   0  0  0  0  0  0  0  0  0  0  0  0
   -7.8532    1.7248    2.6472 H   0  0  0  0  0  0  0  0  0  0  0  0
   -8.6123    2.8375    1.3689 H   0  0  0  0  0  0  0  0  0  0  0  0
   -6.9441    3.1171    1.9273 H   0  0  0  0  0  0  0  0  0  0  0  0
   -3.2805    1.6423   -0.7093 H   0  0  0  0  0  0  0  0  0  0  0  0
   -1.9632   -1.0437   -0.9312 H   0  0  0  0  0  0  0  0  0  0  0  0
   -2.7429    1.3873   -2.5627 H   0  0  0  0  0  0  0  0  0  0  0  0
   -1.0788    0.8882   -2.8604 H   0  0  0  0  0  0  0  0  0  0  0  0
   -2.3412   -0.3406   -3.0982 H   0  0  0  0  0  0  0  0  0  0  0  0
   -0.5874    1.6100   -0.2831 H   0  0  0  0  0  0  0  0  0  0  0  0
   -0.5875   -1.2955    0.6172 H   0  0  0  0  0  0  0  0  0  0  0  0
   -0.6647    1.0537    2.4722 H   0  0  0  0  0  0  0  0  0  0  0  0
   -1.7162   -0.3726    2.3318 H   0  0  0  0  0  0  0  0  0  0  0  0
   -3.0906    1.3738    1.9301 H   0  0  0  0  0  0  0  0  0  0  0  0
   -1.9020    2.3170    1.0422 H   0  0  0  0  0  0  0  0  0  0  0  0
    1.0819    2.1467   -1.1820 H   0  0  0  0  0  0  0  0  0  0  0  0
    2.5798    1.7667   -2.5981 H   0  0  0  0  0  0  0  0  0  0  0  0
    1.7113    1.8865    0.9468 H   0  0  0  0  0  0  0  0  0  0  0  0
    1.2037   -0.0271    2.1768 H   0  0  0  0  0  0  0  0  0  0  0  0
    1.3499   -1.7397   -0.0454 H   0  0  0  0  0  0  0  0  0  0  0  0
    3.6534    0.2835   -0.5117 H   0  0  0  0  0  0  0  0  0  0  0  0
    3.1835   -0.2306    2.2562 H   0  0  0  0  0  0  0  0  0  0  0  0
    5.2277    1.6578    1.6307 H   0  0  0  0  0  0  0  0  0  0  0  0
    4.5250   -1.5970    0.4550 H   0  0  0  0  0  0  0  0  0  0  0  0
    6.7899    0.2028    1.0387 H   0  0  0  0  0  0  0  0  0  0  0  0
    5.5885    0.7176   -0.2496 H   0  0  0  0  0  0  0  0  0  0  0  0
    5.6521   -1.5104   -1.2535 H   0  0  0  0  0  0  0  0  0  0  0  0
    6.0771   -3.1799    0.1512 H   0  0  0  0  0  0  0  0  0  0  0  0
    7.9609   -4.0154   -0.2948 H   0  0  0  0  0  0  0  0  0  0  0  0
    7.1374   -3.0338    2.2268 H   0  0  0  0  0  0  0  0  0  0  0  0
    7.8363   -1.4348    1.9228 H   0  0  0  0  0  0  0  0  0  0  0  0
    5.0581   -2.3282    2.6705 H   0  0  0  0  0  0  0  0  0  0  0  0
    5.9158   -0.8153    3.0605 H   0  0  0  0  0  0  0  0  0  0  0  0
    7.2118   -0.0972   -2.3002 H   0  0  0  0  0  0  0  0  0  0  0  0
    7.7164   -1.7764   -2.2858 H   0  0  0  0  0  0  0  0  0  0  0  0
    9.5441   -1.3241   -0.6661 H   0  0  0  0  0  0  0  0  0  0  0  0
    9.5810   -0.2928   -2.1063 H   0  0  0  0  0  0  0  0  0  0  0  0
    8.9435    0.6628    0.7541 H   0  0  0  0  0  0  0  0  0  0  0  0
    9.0046    2.2178   -1.9004 H   0  0  0  0  0  0  0  0  0  0  0  0
    7.5938    2.1628   -0.6940 H   0  0  0  0  0  0  0  0  0  0  0  0
    9.1715    2.8236   -0.2341 H   0  0  0  0  0  0  0  0  0  0  0  0
   11.1300    0.9506   -1.2978 H   0  0  0  0  0  0  0  0  0  0  0  0
   11.1786    0.1451    0.3663 H   0  0  0  0  0  0  0  0  0  0  0  0
   10.9201    1.8995    0.1856 H   0  0  0  0  0  0  0  0  0  0  0  0
  -10.1792   -0.6694    1.1330 H   0  0  0  0  0  0  0  0  0  0  0  0
  -10.0025    1.0503    1.4948 H   0  0  0  0  0  0  0  0  0  0  0  0
  -10.1145   -0.1335    2.8398 H   0  0  0  0  0  0  0  0  0  0  0  0
   -9.8155   -2.2009   -2.4355 H   0  0  0  0  0  0  0  0  0  0  0  0
  -10.1302   -1.9689   -0.8205 H   0  0  0  0  0  0  0  0  0  0  0  0
   -8.1034   -3.0712   -0.2004 H   0  0  0  0  0  0  0  0  0  0  0  0
   -8.0047   -4.3109   -2.2671 H   0  0  0  0  0  0  0  0  0  0  0  0
   -8.6319    0.4575   -0.0707 H   0  0  0  0  0  0  0  0  0  0  0  0
   -7.2759   -1.8672    0.6245 H   0  0  0  0  0  0  0  0  0  0  0  0
   -5.1155   -1.7702    0.3051 H   0  0  0  0  0  0  0  0  0  0  0  0
   -4.9129   -1.9921   -1.7586 H   0  0  0  0  0  0  0  0  0  0  0  0
   -4.9023    1.1195   -0.5353 H   0  0  0  0  0  0  0  0  0  0  0  0
   -5.9657    2.7852   -0.6905 H   0  0  0  0  0  0  0  0  0  0  0  0
   -7.7575    2.5131   -0.8300 H   0  0  0  0  0  0  0  0  0  0  0  0
   -6.6544    1.3008   -1.4639 H   0  0  0  0  0  0  0  0  0  0  0  0
   -8.0257    1.9192    2.5017 H   0  0  0  0  0  0  0  0  0  0  0  0
   -8.4157    2.8162    1.0086 H   0  0  0  0  0  0  0  0  0  0  0  0
   -6.9205    3.2593    1.8668 H   0  0  0  0  0  0  0  0  0  0  0  0
   -3.2301    1.7751   -0.3015 H   0  0  0  0  0  0  0  0  0  0  0  0
   -1.8435   -0.8003   -0.9034 H   0  0  0  0  0  0  0  0  0  0  0  0
   -2.7825    1.8099   -2.2371 H   0  0  0  0  0  0  0  0  0  0  0  0
   -1.4256    0.9379   -2.9982 H   0  0  0  0  0  0  0  0  0  0  0  0
   -2.9857    0.1093   -2.7688 H   0  0  0  0  0  0  0  0  0  0  0  0
   -0.5229    1.8216   -0.2903 H   0  0  0  0  0  0  0  0  0  0  0  0
   -0.4369   -1.1552    0.3330 H   0  0  0  0  0  0  0  0  0  0  0  0
   -0.0747    1.1269    2.3711 H   0  0  0  0  0  0  0  0  0  0  0  0
   -1.1907   -0.3558    2.3535 H   0  0  0  0  0  0  0  0  0  0  0  0
   -2.5642    1.3802    2.2720 H   0  0  0  0  0  0  0  0  0  0  0  0
   -1.6047    2.4508    1.2661 H   0  0  0  0  0  0  0  0  0  0  0  0
    1.2817    2.5550   -1.1210 H   0  0  0  0  0  0  0  0  0  0  0  0
    2.4636    1.5990   -2.9010 H   0  0  0  0  0  0  0  0  0  0  0  0
    1.4045    1.8118    0.9982 H   0  0  0  0  0  0  0  0  0  0  0  0
    1.7460   -0.6179    1.5493 H   0  0  0  0  0  0  0  0  0  0  0  0
    1.1015   -1.8657   -0.4642 H   0  0  0  0  0  0  0  0  0  0  0  0
    3.6198    2.3057   -0.0924 H   0  0  0  0  0  0  0  0  0  0  0  0
    3.9787    0.7983    2.2855 H   0  0  0  0  0  0  0  0  0  0  0  0
    4.9733    2.7513    1.1998 H   0  0  0  0  0  0  0  0  0  0  0  0
    5.9698   -0.3624    1.6318 H   0  0  0  0  0  0  0  0  0  0  0  0
    4.7584   -1.0260   -1.0460 H   0  0  0  0  0  0  0  0  0  0  0  0
    6.0070    0.2750   -0.7621 H   0  0  0  0  0  0  0  0  0  0  0  0
    6.2167   -2.6509   -0.9093 H   0  0  0  0  0  0  0  0  0  0  0  0
    7.4681   -1.7942    1.7152 H   0  0  0  0  0  0  0  0  0  0  0  0
    6.7538   -4.1174    0.2065 H   0  0  0  0  0  0  0  0  0  0  0  0
    5.1414   -3.6942    1.5709 H   0  0  0  0  0  0  0  0  0  0  0  0
    5.6752   -2.6196    2.8779 H   0  0  0  0  0  0  0  0  0  0  0  0
    3.7962   -2.1902    0.6188 H   0  0  0  0  0  0  0  0  0  0  0  0
    3.7760   -1.5586    2.3678 H   0  0  0  0  0  0  0  0  0  0  0  0
    7.7944   -1.3306   -2.0389 H   0  0  0  0  0  0  0  0  0  0  0  0
    8.5824   -2.4428   -0.9379 H   0  0  0  0  0  0  0  0  0  0  0  0
    9.2066   -0.5532    0.5964 H   0  0  0  0  0  0  0  0  0  0  0  0
    9.8091   -0.5548   -1.0462 H   0  0  0  0  0  0  0  0  0  0  0  0
    7.7105    1.4312    0.0063 H   0  0  0  0  0  0  0  0  0  0  0  0
    9.1168    1.0544   -2.6636 H   0  0  0  0  0  0  0  0  0  0  0  0
    7.2905    1.2248   -2.4632 H   0  0  0  0  0  0  0  0  0  0  0  0
    8.3937    2.5600   -2.0873 H   0  0  0  0  0  0  0  0  0  0  0  0
   10.4872    1.5647   -1.1043 H   0  0  0  0  0  0  0  0  0  0  0  0
   10.1990    1.2325    0.6314 H   0  0  0  0  0  0  0  0  0  0  0  0
    9.6315    2.8308   -0.1197 H   0  0  0  0  0  0  0  0  0  0  0  0
  -10.3846   -0.5052    2.7917 H   0  0  0  0  0  0  0  0  0  0  0  0
  -10.4367   -0.7550    0.9448 H   0  0  0  0  0  0  0  0  0  0  0  0
  -10.2851    0.8639    1.6733 H   0  0  0  0  0  0  0  0  0  0  0  0
  -10.0477   -2.1786   -2.6425 H   0  0  0  0  0  0  0  0  0  0  0  0
  -10.4546   -2.3193   -0.9833 H   0  0  0  0  0  0  0  0  0  0  0  0
   -8.2903   -2.9782   -0.4131 H   0  0  0  0  0  0  0  0  0  0  0  0
   -7.1257   -4.0708   -1.7427 H   0  0  0  0  0  0  0  0  0  0  0  0
   -9.0662    0.4150   -0.1224 H   0  0  0  0  0  0  0  0  0  0  0  0
   -7.4765   -1.7972    0.4171 H   0  0  0  0  0  0  0  0  0  0  0  0
   -5.3876   -1.5475    0.0671 H   0  0  0  0  0  0  0  0  0  0  0  0
   -4.5209   -0.9221   -1.7282 H   0  0  0  0  0  0  0  0  0  0  0  0
   -5.3221    1.4799   -0.5196 H   0  0  0  0  0  0  0  0  0  0  0  0
   -6.5085    3.0201   -0.5410 H   0  0  0  0  0  0  0  0  0  0  0  0
   -8.2267    2.6866   -0.6876 H   0  0  0  0  0  0  0  0  0  0  0  0
   -7.1555    1.5488   -1.4876 H   0  0  0  0  0  0  0  0  0  0  0  0
   -8.2763    1.8950    2.6350 H   0  0  0  0  0  0  0  0  0  0  0  0
   -8.7899    2.9158    1.1977 H   0  0  0  0  0  0  0  0  0  0  0  0
   -7.1730    3.1049    1.9307 H   0  0  0  0  0  0  0  0  0  0  0  0
   -3.6541    2.2212   -0.1012 H   0  0  0  0  0  0  0  0  0  0  0  0
   -2.3558    0.0358   -1.3930 H   0  0  0  0  0  0  0  0  0  0  0  0
   -2.9107    2.8730   -1.6532 H   0  0  0  0  0  0  0  0  0  0  0  0
   -1.1745    2.7308   -1.9307 H   0  0  0  0  0  0  0  0  0  0  0  0
   -2.3416    1.8051   -2.9449 H   0  0  0  0  0  0  0  0  0  0  0  0
   -0.4990    1.8107    0.2851 H   0  0  0  0  0  0  0  0  0  0  0  0
   -1.7490   -0.9372    0.2026 H   0  0  0  0  0  0  0  0  0  0  0  0
   -0.6640    0.7460    2.4883 H   0  0  0  0  0  0  0  0  0  0  0  0
   -2.1213   -0.3634    2.4245 H   0  0  0  0  0  0  0  0  0  0  0  0
   -3.1535    1.5976    2.3281 H   0  0  0  0  0  0  0  0  0  0  0  0
   -1.8455    2.5095    1.5816 H   0  0  0  0  0  0  0  0  0  0  0  0
    1.3886    1.8294    0.0396 H   0  0  0  0  0  0  0  0  0  0  0  0
    2.4260    1.3205   -2.0636 H   0  0  0  0  0  0  0  0  0  0  0  0
    1.5439    0.3691    1.6894 H   0  0  0  0  0  0  0  0  0  0  0  0
    0.3129   -1.5162    1.8230 H   0  0  0  0  0  0  0  0  0  0  0  0
    0.5459   -1.6413   -1.0470 H   0  0  0  0  0  0  0  0  0  0  0  0
    2.8078   -1.4022   -0.2970 H   0  0  0  0  0  0  0  0  0  0  0  0
    4.3014   -0.5688    2.0500 H   0  0  0  0  0  0  0  0  0  0  0  0
    3.5162    1.4172    1.6346 H   0  0  0  0  0  0  0  0  0  0  0  0
    4.8321   -0.8336   -0.9720 H   0  0  0  0  0  0  0  0  0  0  0  0
    6.4999   -0.5945    1.5943 H   0  0  0  0  0  0  0  0  0  0  0  0
    6.3509    0.6404    0.2476 H   0  0  0  0  0  0  0  0  0  0  0  0
    7.5875   -0.7122   -1.2829 H   0  0  0  0  0  0  0  0  0  0  0  0
    7.7874   -3.0197    0.7046 H   0  0  0  0  0  0  0  0  0  0  0  0
    8.4598   -4.0218   -1.1118 H   0  0  0  0  0  0  0  0  0  0  0  0
    5.8514   -2.7532   -1.6745 H   0  0  0  0  0  0  0  0  0  0  0  0
    6.0346   -4.1559   -0.6136 H   0  0  0  0  0  0  0  0  0  0  0  0
    4.0660   -2.9364   -0.0201 H   0  0  0  0  0  0  0  0  0  0  0  0
    5.2612   -2.7772    1.3326 H   0  0  0  0  0  0  0  0  0  0  0  0
    9.6339   -1.3168   -0.1253 H   0  0  0  0  0  0  0  0  0  0  0  0
    8.8413   -1.2582    1.4655 H   0  0  0  0  0  0  0  0  0  0  0  0
    8.4339    1.2444    1.2030 H   0  0  0  0  0  0  0  0  0  0  0  0
   10.1334    0.7805    1.2085 H   0  0  0  0  0  0  0  0  0  0  0  0
    8.4542    1.4454   -1.2779 H   0  0  0  0  0  0  0  0  0  0  0  0
   11.1300    0.1816   -0.9806 H   0  0  0  0  0  0  0  0  0  0  0  0
   10.1490    0.6013   -2.4945 H   0  0  0  0  0  0  0  0  0  0  0  0
   11.2331    1.7841   -1.7270 H   0  0  0  0  0  0  0  0  0  0  0  0
   10.7426    3.1596   -0.4971 H   0  0  0  0  0  0  0  0  0  0  0  0
    9.5398    3.0581    0.8031 H   0  0  0  0  0  0  0  0  0  0  0  0
    9.0481    3.6090   -0.8231 H   0  0  0  0  0  0  0  0  0  0  0  0
  -10.4825    0.5267   -0.6256 H   0  0  0  0  0  0  0  0  0  0  0  0
  -10.2471    2.2432   -0.0015 H   0  0  0  0  0  0  0  0  0  0  0  0
  -11.0874    1.0143    0.9774 H   0  0  0  0  0  0  0  0  0  0  0  0
   -7.8896   -4.0752   -2.3099 H   0  0  0  0  0  0  0  0  0  0  0  0
   -6.9592   -3.7614   -0.9530 H   0  0  0  0  0  0  0  0  0  0  0  0
   -8.7289   -2.6069   -0.4114 H   0  0  0  0  0  0  0  0  0  0  0  0
   -9.1198   -2.7925   -3.1219 H   0  0  0  0  0  0  0  0  0  0  0  0
   -8.3673    1.1886   -0.8924 H   0  0  0  0  0  0  0  0  0  0  0  0
   -7.9628   -1.2519    0.6137 H   0  0  0  0  0  0  0  0  0  0  0  0
   -5.8914   -1.3634    1.2162 H   0  0  0  0  0  0  0  0  0  0  0  0
   -4.9744   -2.3285   -0.3066 H   0  0  0  0  0  0  0  0  0  0  0  0
   -5.2780    1.1475   -0.4407 H   0  0  0  0  0  0  0  0  0  0  0  0
   -5.5719    3.1769   -0.2324 H   0  0  0  0  0  0  0  0  0  0  0  0
   -7.2548    3.6252   -0.5905 H   0  0  0  0  0  0  0  0  0  0  0  0
   -6.5837    2.2605   -1.4834 H   0  0  0  0  0  0  0  0  0  0  0  0
   -8.6360    2.2699    2.1203 H   0  0  0  0  0  0  0  0  0  0  0  0
   -8.3950    3.5160    0.8675 H   0  0  0  0  0  0  0  0  0  0  0  0
   -7.1712    3.3827    2.1618 H   0  0  0  0  0  0  0  0  0  0  0  0
   -3.4527    1.5358   -0.6236 H   0  0  0  0  0  0  0  0  0  0  0  0
   -2.1572   -1.1159   -0.0666 H   0  0  0  0  0  0  0  0  0  0  0  0
   -3.5830    0.3892   -2.1427 H   0  0  0  0  0  0  0  0  0  0  0  0
   -1.9140    0.2434   -2.7362 H   0  0  0  0  0  0  0  0  0  0  0  0
   -2.7950   -1.2506   -2.3810 H   0  0  0  0  0  0  0  0  0  0  0  0
   -0.7490    1.4600   -0.7738 H   0  0  0  0  0  0  0  0  0  0  0  0
   -0.6829   -0.9835    1.0365 H   0  0  0  0  0  0  0  0  0  0  0  0
   -0.2488    1.8444    2.0723 H   0  0  0  0  0  0  0  0  0  0  0  0
   -1.3455    0.5233    2.5681 H   0  0  0  0  0  0  0  0  0  0  0  0
   -2.6986    2.1827    1.8758 H   0  0  0  0  0  0  0  0  0  0  0  0
   -1.7558    2.6808    0.4784 H   0  0  0  0  0  0  0  0  0  0  0  0
    0.8206    1.5526   -1.9432 H   0  0  0  0  0  0  0  0  0  0  0  0
    2.3636    0.8050   -3.1971 H   0  0  0  0  0  0  0  0  0  0  0  0
    1.7847    1.8689   -0.0169 H   0  0  0  0  0  0  0  0  0  0  0  0
    1.5559    0.5049    1.7975 H   0  0  0  0  0  0  0  0  0  0  0  0
    1.3624   -1.7852    0.0152 H   0  0  0  0  0  0  0  0  0  0  0  0
    3.4838    0.2402   -1.4245 H   0  0  0  0  0  0  0  0  0  0  0  0
    3.7510   -0.8142    1.1449 H   0  0  0  0  0  0  0  0  0  0  0  0
    3.7117    1.5265    1.8354 H   0  0  0  0  0  0  0  0  0  0  0  0
    5.9109    0.4586   -0.4380 H   0  0  0  0  0  0  0  0  0  0  0  0
    5.4437   -1.6777    1.6659 H   0  0  0  0  0  0  0  0  0  0  0  0
    6.3581   -0.2017    1.8821 H   0  0  0  0  0  0  0  0  0  0  0  0
    7.6729   -2.3586    1.7697 H   0  0  0  0  0  0  0  0  0  0  0  0
    7.5416   -3.7492   -0.1815 H   0  0  0  0  0  0  0  0  0  0  0  0
    5.1990   -4.2182    0.1612 H   0  0  0  0  0  0  0  0  0  0  0  0
    6.9803   -2.2359   -1.9758 H   0  0  0  0  0  0  0  0  0  0  0  0
    5.6613   -3.3968   -1.7504 H   0  0  0  0  0  0  0  0  0  0  0  0
    4.1277   -1.8663   -0.9535 H   0  0  0  0  0  0  0  0  0  0  0  0
    5.1132   -0.8919   -2.0603 H   0  0  0  0  0  0  0  0  0  0  0  0
    8.3030   -1.0643   -0.9569 H   0  0  0  0  0  0  0  0  0  0  0  0
    9.1490   -2.3508   -0.1141 H   0  0  0  0  0  0  0  0  0  0  0  0
    9.9644   -0.8792    1.6132 H   0  0  0  0  0  0  0  0  0  0  0  0
   10.3230   -0.2540    0.0151 H   0  0  0  0  0  0  0  0  0  0  0  0
    8.2420    0.9023    1.8871 H   0  0  0  0  0  0  0  0  0  0  0  0
    9.0553    2.5837   -0.3970 H   0  0  0  0  0  0  0  0  0  0  0  0
    8.1525    1.0748   -0.9654 H   0  0  0  0  0  0  0  0  0  0  0  0
    7.4503    2.1967    0.2282 H   0  0  0  0  0  0  0  0  0  0  0  0
   10.9554    1.6118    0.7800 H   0  0  0  0  0  0  0  0  0  0  0  0
   10.5697    1.3800    2.4971 H   0  0  0  0  0  0  0  0  0  0  0  0
    9.8786    2.8273    1.5729 H   0  0  0  0  0  0  0  0  0  0  0  0
  1  2  1  0
  3  4  1  0
  4  5  1  0
  4  6  1  0
  2  7  1  0
  6  8  1  0
  7  8  1  0
  8  9  1  0
  9 10  1  0
  9 11  1  0
 11 12  1  0
  7 13  1  0
 12 13  1  0
 13 14  1  0
 13 15  1  0
 11 16  1  0
 16 17  1  0
 17 18  1  0
 18 19  1  0
 18 20  1  0
 20 21  1  0
 21 22  1  0
 17 23  1  0
 22 23  1  0
 20 24  1  0
 24 25  1  0
 25 26  1  0
 25 27  1  0
 21 28  1  0
 27 28  1  0
 28 29  1  0
 27 30  1  0
 30 31  1  0
 31 32  1  0
 31 33  1  0
 33 34  1  0
 34 35  1  0
 35 36  1  0
 36 37  1  0
 36 38  1  0
 33 39  1  0
 38 39  1  0
 35 40  1  0
 40 41  1  0
 41 42  1  0
 42 43  1  0
 42 44  1  0
 45 46  1  0
 47 48  1  0
 48 49  1  0
 48 50  1  0
 46 51  1  0
 50 52  1  0
 51 52  1  0
 52 53  1  0
 53 54  1  0
 53 55  1  0
 55 56  1  0
 51 57  1  0
 56 57  1  0
 57 58  1  0
 57 59  1  0
 55 60  1  0
 60 61  1  0
 61 62  1  0
 62 63  1  0
 62 64  1  0
 64 65  1  0
 65 66  1  0
 61 67  1  0
 66 67  1  0
 64 68  1  0
 68 69  1  0
 69 70  1  0
 69 71  1  0
 65 72  1  0
 71 72  1  0
 72 73  1  0
 71 74  1  0
 74 75  1  0
 75 76  1  0
 75 77  1  0
 77 78  1  0
 78 79  1  0
 79 80  1  0
 80 81  1  0
 80 82  1  0
 77 83  1  0
 82 83  1  0
 79 84  1  0
 84 85  1  0
 85 86  1  0
 86 87  1  0
 86 88  1  0
 89 90  1  0
 91 92  1  0
 92 93  1  0
 92 94  1  0
 90 95  1  0
 94 96  1  0
 95 96  1  0
 96 97  1  0
 97 98  1  0
 97 99  1  0
 99100  1  0
 95101  1  0
100101  1  0
101102  1  0
101103  1  0
 99104  1  0
104105  1  0
105106  1  0
106107  1  0
106108  1  0
108109  1  0
109110  1  0
105111  1  0
110111  1  0
108112  1  0
112113  1  0
113114  1  0
113115  1  0
109116  1  0
115116  1  0
116117  1  0
115118  1  0
118119  1  0
119120  1  0
119121  1  0
121122  1  0
122123  1  0
123124  1  0
124125  1  0
124126  1  0
121127  1  0
126127  1  0
123128  1  0
128129  1  0
129130  1  0
130131  1  0
130132  1  0
133134  1  0
135136  1  0
136137  1  0
136138  1  0
134139  1  0
138140  1  0
139140  1  0
140141  1  0
141142  1  0
141143  1  0
143144  1  0
139145  1  0
144145  1  0
145146  1  0
145147  1  0
143148  1  0
148149  1  0
149150  1  0
150151  1  0
150152  1  0
152153  1  0
153154  1  0
149155  1  0
154155  1  0
152156  1  0
156157  1  0
157158  1  0
157159  1  0
153160  1  0
159160  1  0
160161  1  0
159162  1  0
162163  1  0
163164  1  0
163165  1  0
165166  1  0
166167  1  0
167168  1  0
168169  1  0
168170  1  0
165171  1  0
170171  1  0
167172  1  0
172173  1  0
173174  1  0
174175  1  0
174176  1  0
  1177  1  0
  1178  1  0
  1179  1  0
  3180  1  0
  3181  1  0
  4182  1  0
  5183  1  0
  7184  1  6
  8185  1  1
  9186  1  6
 10187  1  0
 11188  1  6
 14189  1  0
 14190  1  0
 14191  1  0
 15192  1  0
 15193  1  0
 15194  1  0
 17195  1  0
 18196  1  6
 19197  1  0
 19198  1  0
 19199  1  0
 20200  1  0
 21201  1  0
 22202  1  0
 22203  1  0
 23204  1  0
 23205  1  0
 25206  1  0
 26207  1  0
 27208  1  1
 28209  1  0
 29210  1  0
 30211  1  0
 31212  1  0
 32213  1  0
 33214  1  6
 34215  1  0
 34216  1  0
 35217  1  0
 36218  1  1
 37219  1  0
 38220  1  0
 38221  1  0
 39222  1  0
 39223  1  0
 40224  1  0
 40225  1  0
 41226  1  0
 41227  1  0
 42228  1  0
 43229  1  0
 43230  1  0
 43231  1  0
 44232  1  0
 44233  1  0
 44234  1  0
 45235  1  0
 45236  1  0
 45237  1  0
 47238  1  0
 47239  1  0
 48240  1  0
 49241  1  0
 51242  1  6
 52243  1  1
 53244  1  1
 54245  1  0
 55246  1  6
 58247  1  0
 58248  1  0
 58249  1  0
 59250  1  0
 59251  1  0
 59252  1  0
 61253  1  0
 62254  1  0
 63255  1  0
 63256  1  0
 63257  1  0
 64258  1  0
 65259  1  0
 66260  1  0
 66261  1  0
 67262  1  0
 67263  1  0
 69264  1  0
 70265  1  0
 71266  1  1
 72267  1  0
 73268  1  0
 74269  1  0
 75270  1  0
 76271  1  0
 77272  1  0
 78273  1  0
 78274  1  0
 79275  1  0
 80276  1  0
 81277  1  0
 82278  1  0
 82279  1  0
 83280  1  0
 83281  1  0
 84282  1  0
 84283  1  0
 85284  1  0
 85285  1  0
 86286  1  0
 87287  1  0
 87288  1  0
 87289  1  0
 88290  1  0
 88291  1  0
 88292  1  0
 89293  1  0
 89294  1  0
 89295  1  0
 91296  1  0
 91297  1  0
 92298  1  0
 93299  1  0
 95300  1  6
 96301  1  1
 97302  1  1
 98303  1  0
 99304  1  6
102305  1  0
102306  1  0
102307  1  0
103308  1  0
103309  1  0
103310  1  0
105311  1  0
106312  1  0
107313  1  0
107314  1  0
107315  1  0
108316  1  0
109317  1  0
110318  1  0
110319  1  0
111320  1  0
111321  1  0
113322  1  0
114323  1  0
115324  1  1
116325  1  0
117326  1  0
118327  1  0
119328  1  0
120329  1  0
121330  1  6
122331  1  0
122332  1  0
123333  1  6
124334  1  0
125335  1  0
126336  1  0
126337  1  0
127338  1  0
127339  1  0
128340  1  0
128341  1  0
129342  1  0
129343  1  0
130344  1  0
131345  1  0
131346  1  0
131347  1  0
132348  1  0
132349  1  0
132350  1  0
133351  1  0
133352  1  0
133353  1  0
135354  1  0
135355  1  0
136356  1  0
137357  1  0
139358  1  6
140359  1  1
141360  1  1
142361  1  0
143362  1  6
146363  1  0
146364  1  0
146365  1  0
147366  1  0
147367  1  0
147368  1  0
149369  1  0
150370  1  1
151371  1  0
151372  1  0
151373  1  0
152374  1  0
153375  1  0
154376  1  0
154377  1  0
155378  1  0
155379  1  0
157380  1  0
158381  1  0
159382  1  1
160383  1  0
161384  1  0
162385  1  0
163386  1  1
164387  1  0
165388  1  6
166389  1  0
166390  1  0
167391  1  0
168392  1  0
169393  1  0
170394  1  0
170395  1  0
171396  1  0
171397  1  0
172398  1  0
172399  1  0
173400  1  0
173401  1  0
174402  1  0
175403  1  0
175404  1  0
175405  1  0
176406  1  0
176407  1  0
176408  1  0
M  END
>  <PDBID>  (1) 
4URO

>  <PDB ID>  (1) 
4URO

>  <Generic Name>  (1) 
Novobiocin

>  <Brand Name>  (1) 
Albamycin

>  <DrugBank ID>  (1) 
DB01051

>  <ATC Codes>  (1) 
nan

>  <Ligand ID>  (1) 
NOV

>  <Target Name>  (1) 
DNA gyrase subunit B

>  <UniProt ID>  (1) 
P0A0K8

>  <PDB ID.1>  (1) 
4URO

>  <Seq. Identity>  (1) 
84%

$$$$
