PDB_DB00328_04
     RDKit          3D

236244  0  0  0  0  0  0  0  0999 V2000
   -0.3438   -0.4909   -0.7094 C   0  0  0  0  0  0  0  0  0  0  0  0
   -1.7627   -0.0081   -0.9427 C   0  0  0  0  0  0  0  0  0  0  0  0
   -2.8537   -0.9238   -0.6237 C   0  0  0  0  0  0  0  0  0  0  0  0
   -2.5353   -2.1401    0.1820 C   0  0  0  0  0  0  0  0  0  0  0  0
   -1.4602   -1.7865    1.1554 C   0  0  0  0  0  0  0  0  0  0  0  0
   -0.2043   -1.4867    0.3605 C   0  0  0  0  0  0  0  0  0  0  0  0
   -3.9885   -3.8219    0.6415 C   0  0  0  0  0  0  0  0  0  0  0  0
   -1.8174    1.2756   -0.1421 C   0  0  1  0  0  0  0  0  0  0  0  0
   -0.3763    1.7097    0.0091 C   0  0  0  0  0  0  0  0  0  0  0  0
    1.6480    0.9179   -1.0945 C   0  0  0  0  0  0  0  0  0  0  0  0
    2.8832    0.1753   -0.7254 C   0  0  0  0  0  0  0  0  0  0  0  0
    3.1988    0.3919    0.7308 C   0  0  0  0  0  0  0  0  0  0  0  0
    4.4374   -0.3119    1.1988 C   0  0  0  0  0  0  0  0  0  0  0  0
    5.0375   -1.1807    0.0903 C   0  0  0  0  0  0  0  0  0  0  0  0
    3.8823   -2.0858   -0.3480 C   0  0  0  0  0  0  0  0  0  0  0  0
    2.9881   -1.2085   -1.2121 C   0  0  0  0  0  0  0  0  0  0  0  0
   -0.1454    1.8792    1.5206 C   0  0  0  0  0  0  0  0  0  0  0  0
   -2.6145    2.3358   -0.8798 C   0  0  0  0  0  0  0  0  0  0  0  0
   -2.6921    3.6163   -0.1072 C   0  0  0  0  0  0  0  0  0  0  0  0
    0.4306    0.6665   -0.5194 N   0  0  0  0  0  0  0  0  0  0  0  0
   -3.6597   -2.5080    0.9256 O   0  0  0  0  0  0  0  0  0  0  0  0
    1.9403    2.3364   -1.1013 O   0  0  0  0  0  0  0  0  0  0  0  0
   -3.3050    3.4793    1.1365 O   0  0  0  0  0  0  0  0  0  0  0  0
   -3.5026    4.5005   -0.8508 O   0  0  0  0  0  0  0  0  0  0  0  0
    6.3479   -2.1469    0.7955 Cl  0  0  0  0  0  0  0  0  0  0  0  0
   -0.3438   -0.4909   -0.7094 C   0  0  0  0  0  0  0  0  0  0  0  0
   -1.7627   -0.0081   -0.9427 C   0  0  0  0  0  0  0  0  0  0  0  0
   -2.8537   -0.9238   -0.6237 C   0  0  0  0  0  0  0  0  0  0  0  0
   -2.5353   -2.1401    0.1820 C   0  0  0  0  0  0  0  0  0  0  0  0
   -1.4602   -1.7865    1.1554 C   0  0  0  0  0  0  0  0  0  0  0  0
   -0.2043   -1.4867    0.3605 C   0  0  0  0  0  0  0  0  0  0  0  0
   -3.9885   -3.8219    0.6415 C   0  0  0  0  0  0  0  0  0  0  0  0
   -1.8174    1.2756   -0.1421 C   0  0  1  0  0  0  0  0  0  0  0  0
   -0.3763    1.7097    0.0091 C   0  0  0  0  0  0  0  0  0  0  0  0
    1.6480    0.9179   -1.0945 C   0  0  0  0  0  0  0  0  0  0  0  0
    2.8832    0.1753   -0.7254 C   0  0  0  0  0  0  0  0  0  0  0  0
    3.1988    0.3919    0.7308 C   0  0  0  0  0  0  0  0  0  0  0  0
    4.4374   -0.3119    1.1988 C   0  0  0  0  0  0  0  0  0  0  0  0
    5.0375   -1.1807    0.0903 C   0  0  0  0  0  0  0  0  0  0  0  0
    3.8823   -2.0858   -0.3480 C   0  0  0  0  0  0  0  0  0  0  0  0
    2.9881   -1.2085   -1.2121 C   0  0  0  0  0  0  0  0  0  0  0  0
   -0.1454    1.8792    1.5206 C   0  0  0  0  0  0  0  0  0  0  0  0
   -2.6145    2.3358   -0.8798 C   0  0  0  0  0  0  0  0  0  0  0  0
   -2.6921    3.6163   -0.1072 C   0  0  0  0  0  0  0  0  0  0  0  0
    0.4306    0.6665   -0.5194 N   0  0  0  0  0  0  0  0  0  0  0  0
   -3.6597   -2.5080    0.9256 O   0  0  0  0  0  0  0  0  0  0  0  0
    1.9403    2.3364   -1.1013 O   0  0  0  0  0  0  0  0  0  0  0  0
   -3.3050    3.4793    1.1365 O   0  0  0  0  0  0  0  0  0  0  0  0
   -3.5026    4.5005   -0.8508 O   0  0  0  0  0  0  0  0  0  0  0  0
    6.3479   -2.1469    0.7955 Cl  0  0  0  0  0  0  0  0  0  0  0  0
   -0.3104   -0.5487   -0.6000 C   0  0  0  0  0  0  0  0  0  0  0  0
   -1.7091   -0.0524   -0.9019 C   0  0  0  0  0  0  0  0  0  0  0  0
   -2.8364   -0.9154   -0.5809 C   0  0  0  0  0  0  0  0  0  0  0  0
   -2.5767   -2.1729    0.1767 C   0  0  0  0  0  0  0  0  0  0  0  0
   -1.5147   -1.8814    1.1883 C   0  0  0  0  0  0  0  0  0  0  0  0
   -0.2321   -1.5368    0.4867 C   0  0  0  0  0  0  0  0  0  0  0  0
   -4.2042   -3.7437    0.5300 C   0  0  0  0  0  0  0  0  0  0  0  0
   -1.7977    1.2640   -0.1343 C   0  0  0  0  0  0  0  0  0  0  0  0
   -0.3570    1.6576    0.0968 C   0  0  0  0  0  0  0  0  0  0  0  0
    1.6493    0.9117   -1.0320 C   0  0  0  0  0  0  0  0  0  0  0  0
    2.9082    0.1828   -0.6829 C   0  0  0  0  0  0  0  0  0  0  0  0
    3.2152    0.3792    0.7853 C   0  0  0  0  0  0  0  0  0  0  0  0
    4.4247   -0.3999    1.2214 C   0  0  0  0  0  0  0  0  0  0  0  0
    5.1265   -1.0362    0.0174 C   0  0  0  0  0  0  0  0  0  0  0  0
    4.1316   -1.9900   -0.5910 C   0  0  0  0  0  0  0  0  0  0  0  0
    2.9755   -1.1917   -1.1854 C   0  0  0  0  0  0  0  0  0  0  0  0
   -0.1785    1.8220    1.6084 C   0  0  0  0  0  0  0  0  0  0  0  0
   -2.5418    2.2856   -0.9537 C   0  0  0  0  0  0  0  0  0  0  0  0
   -2.6421    3.5992   -0.2119 C   0  0  0  0  0  0  0  0  0  0  0  0
    0.4530    0.6249   -0.4359 N   0  0  0  0  0  0  0  0  0  0  0  0
   -3.7419   -2.4950    0.8826 O   0  0  0  0  0  0  0  0  0  0  0  0
    1.9386    2.3284   -0.9585 O   0  0  0  0  0  0  0  0  0  0  0  0
   -3.3223    3.4535    0.9972 O   0  0  0  0  0  0  0  0  0  0  0  0
   -3.4004    4.4883   -0.9885 O   0  0  0  0  0  0  0  0  0  0  0  0
    6.5386   -1.8887    0.6721 Cl  0  0  0  0  0  0  0  0  0  0  0  0
   -0.3438   -0.4909   -0.7094 C   0  0  0  0  0  0  0  0  0  0  0  0
   -1.7627   -0.0081   -0.9427 C   0  0  0  0  0  0  0  0  0  0  0  0
   -2.8537   -0.9238   -0.6237 C   0  0  0  0  0  0  0  0  0  0  0  0
   -2.5353   -2.1401    0.1820 C   0  0  0  0  0  0  0  0  0  0  0  0
   -1.4602   -1.7865    1.1554 C   0  0  0  0  0  0  0  0  0  0  0  0
   -0.2043   -1.4867    0.3605 C   0  0  0  0  0  0  0  0  0  0  0  0
   -3.9885   -3.8219    0.6415 C   0  0  0  0  0  0  0  0  0  0  0  0
   -1.8174    1.2756   -0.1421 C   0  0  1  0  0  0  0  0  0  0  0  0
   -0.3763    1.7097    0.0091 C   0  0  0  0  0  0  0  0  0  0  0  0
    1.6480    0.9179   -1.0945 C   0  0  0  0  0  0  0  0  0  0  0  0
    2.8832    0.1753   -0.7254 C   0  0  0  0  0  0  0  0  0  0  0  0
    3.1988    0.3919    0.7308 C   0  0  0  0  0  0  0  0  0  0  0  0
    4.4374   -0.3119    1.1988 C   0  0  0  0  0  0  0  0  0  0  0  0
    5.0375   -1.1807    0.0903 C   0  0  0  0  0  0  0  0  0  0  0  0
    3.8823   -2.0858   -0.3480 C   0  0  0  0  0  0  0  0  0  0  0  0
    2.9881   -1.2085   -1.2121 C   0  0  0  0  0  0  0  0  0  0  0  0
   -0.1454    1.8792    1.5206 C   0  0  0  0  0  0  0  0  0  0  0  0
   -2.6145    2.3358   -0.8798 C   0  0  0  0  0  0  0  0  0  0  0  0
   -2.6921    3.6163   -0.1072 C   0  0  0  0  0  0  0  0  0  0  0  0
    0.4306    0.6665   -0.5194 N   0  0  0  0  0  0  0  0  0  0  0  0
   -3.6597   -2.5080    0.9256 O   0  0  0  0  0  0  0  0  0  0  0  0
    1.9403    2.3364   -1.1013 O   0  0  0  0  0  0  0  0  0  0  0  0
   -3.3050    3.4793    1.1365 O   0  0  0  0  0  0  0  0  0  0  0  0
   -3.5026    4.5005   -0.8508 O   0  0  0  0  0  0  0  0  0  0  0  0
    6.3479   -2.1469    0.7955 Cl  0  0  0  0  0  0  0  0  0  0  0  0
   -0.0631   -0.9771   -1.6931 H   0  0  0  0  0  0  0  0  0  0  0  0
   -1.8482    0.3129   -2.0025 H   0  0  0  0  0  0  0  0  0  0  0  0
   -3.4302   -1.2784   -1.5309 H   0  0  0  0  0  0  0  0  0  0  0  0
   -3.6454   -0.3600   -0.0459 H   0  0  0  0  0  0  0  0  0  0  0  0
   -2.2086   -2.9847   -0.4304 H   0  0  0  0  0  0  0  0  0  0  0  0
   -1.7135   -1.0006    1.8696 H   0  0  0  0  0  0  0  0  0  0  0  0
   -1.2413   -2.7222    1.7393 H   0  0  0  0  0  0  0  0  0  0  0  0
    0.5735   -1.2782    1.1164 H   0  0  0  0  0  0  0  0  0  0  0  0
    0.0970   -2.5038   -0.0515 H   0  0  0  0  0  0  0  0  0  0  0  0
   -3.1728   -4.5187    0.8840 H   0  0  0  0  0  0  0  0  0  0  0  0
   -4.8718   -4.1584    1.2356 H   0  0  0  0  0  0  0  0  0  0  0  0
   -4.2164   -3.8852   -0.4377 H   0  0  0  0  0  0  0  0  0  0  0  0
   -2.3261    1.0578    0.8121 H   0  0  0  0  0  0  0  0  0  0  0  0
   -0.2548    2.6773   -0.5115 H   0  0  0  0  0  0  0  0  0  0  0  0
    1.5207    0.7593   -2.2345 H   0  0  0  0  0  0  0  0  0  0  0  0
    3.7284    0.7566   -1.2631 H   0  0  0  0  0  0  0  0  0  0  0  0
    3.4240    1.5015    0.8184 H   0  0  0  0  0  0  0  0  0  0  0  0
    2.3531    0.1258    1.3632 H   0  0  0  0  0  0  0  0  0  0  0  0
    4.2469   -1.0014    2.0487 H   0  0  0  0  0  0  0  0  0  0  0  0
    5.2392    0.3704    1.5175 H   0  0  0  0  0  0  0  0  0  0  0  0
    5.3750   -0.5549   -0.7592 H   0  0  0  0  0  0  0  0  0  0  0  0
    3.3524   -2.3780    0.5951 H   0  0  0  0  0  0  0  0  0  0  0  0
    4.2401   -2.9388   -0.9186 H   0  0  0  0  0  0  0  0  0  0  0  0
    2.0562   -1.7490   -1.3446 H   0  0  0  0  0  0  0  0  0  0  0  0
    3.4871   -1.2435   -2.2299 H   0  0  0  0  0  0  0  0  0  0  0  0
   -0.1779    0.8420    1.9361 H   0  0  0  0  0  0  0  0  0  0  0  0
    0.8647    2.3026    1.7168 H   0  0  0  0  0  0  0  0  0  0  0  0
   -0.9522    2.4328    2.0099 H   0  0  0  0  0  0  0  0  0  0  0  0
   -3.6603    1.9955   -1.0500 H   0  0  0  0  0  0  0  0  0  0  0  0
   -2.1170    2.5552   -1.8389 H   0  0  0  0  0  0  0  0  0  0  0  0
   -1.7027    4.1212   -0.0061 H   0  0  0  0  0  0  0  0  0  0  0  0
    2.7246    2.4350   -1.7164 H   0  0  0  0  0  0  0  0  0  0  0  0
   -2.7763    3.9753    1.8259 H   0  0  0  0  0  0  0  0  0  0  0  0
   -4.4368    4.1277   -0.9142 H   0  0  0  0  0  0  0  0  0  0  0  0
   -0.0631   -0.9771   -1.6931 H   0  0  0  0  0  0  0  0  0  0  0  0
   -1.8482    0.3129   -2.0025 H   0  0  0  0  0  0  0  0  0  0  0  0
   -3.4302   -1.2784   -1.5309 H   0  0  0  0  0  0  0  0  0  0  0  0
   -3.6454   -0.3600   -0.0459 H   0  0  0  0  0  0  0  0  0  0  0  0
   -2.2086   -2.9847   -0.4304 H   0  0  0  0  0  0  0  0  0  0  0  0
   -1.7135   -1.0006    1.8696 H   0  0  0  0  0  0  0  0  0  0  0  0
   -1.2413   -2.7222    1.7393 H   0  0  0  0  0  0  0  0  0  0  0  0
    0.5735   -1.2782    1.1164 H   0  0  0  0  0  0  0  0  0  0  0  0
    0.0970   -2.5038   -0.0515 H   0  0  0  0  0  0  0  0  0  0  0  0
   -3.1728   -4.5187    0.8840 H   0  0  0  0  0  0  0  0  0  0  0  0
   -4.8718   -4.1584    1.2356 H   0  0  0  0  0  0  0  0  0  0  0  0
   -4.2164   -3.8852   -0.4377 H   0  0  0  0  0  0  0  0  0  0  0  0
   -2.3261    1.0578    0.8121 H   0  0  0  0  0  0  0  0  0  0  0  0
   -0.2548    2.6773   -0.5115 H   0  0  0  0  0  0  0  0  0  0  0  0
    1.5207    0.7593   -2.2345 H   0  0  0  0  0  0  0  0  0  0  0  0
    3.7284    0.7566   -1.2631 H   0  0  0  0  0  0  0  0  0  0  0  0
    3.4240    1.5015    0.8184 H   0  0  0  0  0  0  0  0  0  0  0  0
    2.3531    0.1258    1.3632 H   0  0  0  0  0  0  0  0  0  0  0  0
    4.2469   -1.0014    2.0487 H   0  0  0  0  0  0  0  0  0  0  0  0
    5.2392    0.3704    1.5175 H   0  0  0  0  0  0  0  0  0  0  0  0
    5.3750   -0.5549   -0.7592 H   0  0  0  0  0  0  0  0  0  0  0  0
    3.3524   -2.3780    0.5951 H   0  0  0  0  0  0  0  0  0  0  0  0
    4.2401   -2.9388   -0.9186 H   0  0  0  0  0  0  0  0  0  0  0  0
    2.0562   -1.7490   -1.3446 H   0  0  0  0  0  0  0  0  0  0  0  0
    3.4871   -1.2435   -2.2299 H   0  0  0  0  0  0  0  0  0  0  0  0
   -0.1779    0.8420    1.9361 H   0  0  0  0  0  0  0  0  0  0  0  0
    0.8647    2.3026    1.7168 H   0  0  0  0  0  0  0  0  0  0  0  0
   -0.9522    2.4328    2.0099 H   0  0  0  0  0  0  0  0  0  0  0  0
   -3.6603    1.9955   -1.0500 H   0  0  0  0  0  0  0  0  0  0  0  0
   -2.1170    2.5552   -1.8389 H   0  0  0  0  0  0  0  0  0  0  0  0
   -1.7027    4.1212   -0.0061 H   0  0  0  0  0  0  0  0  0  0  0  0
    2.7246    2.4350   -1.7164 H   0  0  0  0  0  0  0  0  0  0  0  0
   -2.7763    3.9753    1.8259 H   0  0  0  0  0  0  0  0  0  0  0  0
   -4.4368    4.1277   -0.9142 H   0  0  0  0  0  0  0  0  0  0  0  0
    0.0037   -1.0578   -1.5604 H   0  0  0  0  0  0  0  0  0  0  0  0
   -1.7507    0.2410   -1.9712 H   0  0  0  0  0  0  0  0  0  0  0  0
   -3.4075   -1.2254   -1.5092 H   0  0  0  0  0  0  0  0  0  0  0  0
   -3.6223   -0.3448    0.0009 H   0  0  0  0  0  0  0  0  0  0  0  0
   -2.3375   -3.0389   -0.4772 H   0  0  0  0  0  0  0  0  0  0  0  0
   -1.8495   -1.1083    1.8767 H   0  0  0  0  0  0  0  0  0  0  0  0
   -1.3385   -2.8365    1.7638 H   0  0  0  0  0  0  0  0  0  0  0  0
    0.4722   -1.2120    1.2749 H   0  0  0  0  0  0  0  0  0  0  0  0
    0.1912   -2.5288    0.1337 H   0  0  0  0  0  0  0  0  0  0  0  0
   -3.4654   -4.5469    0.7323 H   0  0  0  0  0  0  0  0  0  0  0  0
   -5.1499   -4.0135    1.0401 H   0  0  0  0  0  0  0  0  0  0  0  0
   -4.3632   -3.7355   -0.5868 H   0  0  0  0  0  0  0  0  0  0  0  0
   -2.3624    1.0883    0.7937 H   0  0  0  0  0  0  0  0  0  0  0  0
   -0.1399    2.6402   -0.3499 H   0  0  0  0  0  0  0  0  0  0  0  0
    1.5182    0.8218   -2.1845 H   0  0  0  0  0  0  0  0  0  0  0  0
    3.7719    0.7654   -1.2004 H   0  0  0  0  0  0  0  0  0  0  0  0
    3.4898    1.4760    0.8974 H   0  0  0  0  0  0  0  0  0  0  0  0
    2.3505    0.1494    1.3901 H   0  0  0  0  0  0  0  0  0  0  0  0
    4.1435   -1.2359    1.8904 H   0  0  0  0  0  0  0  0  0  0  0  0
    5.1554    0.2315    1.7979 H   0  0  0  0  0  0  0  0  0  0  0  0
    5.4726   -0.2566   -0.6905 H   0  0  0  0  0  0  0  0  0  0  0  0
    3.7078   -2.5830    0.2592 H   0  0  0  0  0  0  0  0  0  0  0  0
    4.6149   -2.6560   -1.3002 H   0  0  0  0  0  0  0  0  0  0  0  0
    2.0975   -1.8272   -1.1191 H   0  0  0  0  0  0  0  0  0  0  0  0
    3.2199   -1.1297   -2.2919 H   0  0  0  0  0  0  0  0  0  0  0  0
   -0.4911    0.8597    2.0492 H   0  0  0  0  0  0  0  0  0  0  0  0
    0.8803    2.0754    1.8547 H   0  0  0  0  0  0  0  0  0  0  0  0
   -0.8844    2.6174    1.9176 H   0  0  0  0  0  0  0  0  0  0  0  0
   -3.5793    1.8904   -1.0664 H   0  0  0  0  0  0  0  0  0  0  0  0
   -2.0614    2.4636   -1.9249 H   0  0  0  0  0  0  0  0  0  0  0  0
   -1.6444    4.0539   -0.0599 H   0  0  0  0  0  0  0  0  0  0  0  0
    2.6262    2.5100   -1.6232 H   0  0  0  0  0  0  0  0  0  0  0  0
   -2.8774    3.9897    1.7162 H   0  0  0  0  0  0  0  0  0  0  0  0
   -4.3865    4.3184   -0.8792 H   0  0  0  0  0  0  0  0  0  0  0  0
   -0.0631   -0.9771   -1.6931 H   0  0  0  0  0  0  0  0  0  0  0  0
   -1.8482    0.3129   -2.0025 H   0  0  0  0  0  0  0  0  0  0  0  0
   -3.4302   -1.2784   -1.5309 H   0  0  0  0  0  0  0  0  0  0  0  0
   -3.6454   -0.3600   -0.0459 H   0  0  0  0  0  0  0  0  0  0  0  0
   -2.2086   -2.9847   -0.4304 H   0  0  0  0  0  0  0  0  0  0  0  0
   -1.7135   -1.0006    1.8696 H   0  0  0  0  0  0  0  0  0  0  0  0
   -1.2413   -2.7222    1.7393 H   0  0  0  0  0  0  0  0  0  0  0  0
    0.5735   -1.2782    1.1164 H   0  0  0  0  0  0  0  0  0  0  0  0
    0.0970   -2.5038   -0.0515 H   0  0  0  0  0  0  0  0  0  0  0  0
   -3.1728   -4.5187    0.8840 H   0  0  0  0  0  0  0  0  0  0  0  0
   -4.8718   -4.1584    1.2356 H   0  0  0  0  0  0  0  0  0  0  0  0
   -4.2164   -3.8852   -0.4377 H   0  0  0  0  0  0  0  0  0  0  0  0
   -2.3261    1.0578    0.8121 H   0  0  0  0  0  0  0  0  0  0  0  0
   -0.2548    2.6773   -0.5115 H   0  0  0  0  0  0  0  0  0  0  0  0
    1.5207    0.7593   -2.2345 H   0  0  0  0  0  0  0  0  0  0  0  0
    3.7284    0.7566   -1.2631 H   0  0  0  0  0  0  0  0  0  0  0  0
    3.4240    1.5015    0.8184 H   0  0  0  0  0  0  0  0  0  0  0  0
    2.3531    0.1258    1.3632 H   0  0  0  0  0  0  0  0  0  0  0  0
    4.2469   -1.0014    2.0487 H   0  0  0  0  0  0  0  0  0  0  0  0
    5.2392    0.3704    1.5175 H   0  0  0  0  0  0  0  0  0  0  0  0
    5.3750   -0.5549   -0.7592 H   0  0  0  0  0  0  0  0  0  0  0  0
    3.3524   -2.3780    0.5951 H   0  0  0  0  0  0  0  0  0  0  0  0
    4.2401   -2.9388   -0.9186 H   0  0  0  0  0  0  0  0  0  0  0  0
    2.0562   -1.7490   -1.3446 H   0  0  0  0  0  0  0  0  0  0  0  0
    3.4871   -1.2435   -2.2299 H   0  0  0  0  0  0  0  0  0  0  0  0
   -0.1779    0.8420    1.9361 H   0  0  0  0  0  0  0  0  0  0  0  0
    0.8647    2.3026    1.7168 H   0  0  0  0  0  0  0  0  0  0  0  0
   -0.9522    2.4328    2.0099 H   0  0  0  0  0  0  0  0  0  0  0  0
   -3.6603    1.9955   -1.0500 H   0  0  0  0  0  0  0  0  0  0  0  0
   -2.1170    2.5552   -1.8389 H   0  0  0  0  0  0  0  0  0  0  0  0
   -1.7027    4.1212   -0.0061 H   0  0  0  0  0  0  0  0  0  0  0  0
    2.7246    2.4350   -1.7164 H   0  0  0  0  0  0  0  0  0  0  0  0
   -2.7763    3.9753    1.8259 H   0  0  0  0  0  0  0  0  0  0  0  0
   -4.4368    4.1277   -0.9142 H   0  0  0  0  0  0  0  0  0  0  0  0
  1  2  1  0
  2  3  1  0
  3  4  1  0
  4  5  1  0
  1  6  1  0
  5  6  1  0
  2  8  1  0
  8  9  1  0
 10 11  1  0
 11 12  1  0
 12 13  1  0
 13 14  1  0
 14 15  1  0
 11 16  1  0
 15 16  1  0
  9 17  1  0
  8 18  1  0
 18 19  1  0
  1 20  1  0
  9 20  1  0
 10 20  1  0
  4 21  1  0
  7 21  1  0
 10 22  1  0
 19 23  1  0
 19 24  1  0
 14 25  1  0
 26 27  1  0
 27 28  1  0
 28 29  1  0
 29 30  1  0
 26 31  1  0
 30 31  1  0
 27 33  1  0
 33 34  1  0
 35 36  1  0
 36 37  1  0
 37 38  1  0
 38 39  1  0
 39 40  1  0
 36 41  1  0
 40 41  1  0
 34 42  1  0
 33 43  1  0
 43 44  1  0
 26 45  1  0
 34 45  1  0
 35 45  1  0
 29 46  1  0
 32 46  1  0
 35 47  1  0
 44 48  1  0
 44 49  1  0
 39 50  1  0
 51 52  1  0
 52 53  1  0
 53 54  1  0
 54 55  1  0
 51 56  1  0
 55 56  1  0
 52 58  1  0
 58 59  1  0
 60 61  1  0
 61 62  1  0
 62 63  1  0
 63 64  1  0
 64 65  1  0
 61 66  1  0
 65 66  1  0
 59 67  1  0
 58 68  1  0
 68 69  1  0
 51 70  1  0
 59 70  1  0
 60 70  1  0
 54 71  1  0
 57 71  1  0
 60 72  1  0
 69 73  1  0
 69 74  1  0
 64 75  1  0
 76 77  1  0
 77 78  1  0
 78 79  1  0
 79 80  1  0
 76 81  1  0
 80 81  1  0
 77 83  1  0
 83 84  1  0
 85 86  1  0
 86 87  1  0
 87 88  1  0
 88 89  1  0
 89 90  1  0
 86 91  1  0
 90 91  1  0
 84 92  1  0
 83 93  1  0
 93 94  1  0
 76 95  1  0
 84 95  1  0
 85 95  1  0
 79 96  1  0
 82 96  1  0
 85 97  1  0
 94 98  1  0
 94 99  1  0
 89100  1  0
  1101  1  0
  2102  1  0
  3103  1  0
  3104  1  0
  4105  1  0
  5106  1  0
  5107  1  0
  6108  1  0
  6109  1  0
  7110  1  0
  7111  1  0
  7112  1  0
  8113  1  1
  9114  1  0
 10115  1  0
 11116  1  0
 12117  1  0
 12118  1  0
 13119  1  0
 13120  1  0
 14121  1  0
 15122  1  0
 15123  1  0
 16124  1  0
 16125  1  0
 17126  1  0
 17127  1  0
 17128  1  0
 18129  1  0
 18130  1  0
 19131  1  0
 22132  1  0
 23133  1  0
 24134  1  0
 26135  1  0
 27136  1  0
 28137  1  0
 28138  1  0
 29139  1  0
 30140  1  0
 30141  1  0
 31142  1  0
 31143  1  0
 32144  1  0
 32145  1  0
 32146  1  0
 33147  1  1
 34148  1  0
 35149  1  0
 36150  1  0
 37151  1  0
 37152  1  0
 38153  1  0
 38154  1  0
 39155  1  0
 40156  1  0
 40157  1  0
 41158  1  0
 41159  1  0
 42160  1  0
 42161  1  0
 42162  1  0
 43163  1  0
 43164  1  0
 44165  1  0
 47166  1  0
 48167  1  0
 49168  1  0
 51169  1  0
 52170  1  0
 53171  1  0
 53172  1  0
 54173  1  0
 55174  1  0
 55175  1  0
 56176  1  0
 56177  1  0
 57178  1  0
 57179  1  0
 57180  1  0
 58181  1  0
 59182  1  0
 60183  1  0
 61184  1  0
 62185  1  0
 62186  1  0
 63187  1  0
 63188  1  0
 64189  1  0
 65190  1  0
 65191  1  0
 66192  1  0
 66193  1  0
 67194  1  0
 67195  1  0
 67196  1  0
 68197  1  0
 68198  1  0
 69199  1  0
 72200  1  0
 73201  1  0
 74202  1  0
 76203  1  0
 77204  1  0
 78205  1  0
 78206  1  0
 79207  1  0
 80208  1  0
 80209  1  0
 81210  1  0
 81211  1  0
 82212  1  0
 82213  1  0
 82214  1  0
 83215  1  1
 84216  1  0
 85217  1  0
 86218  1  0
 87219  1  0
 87220  1  0
 88221  1  0
 88222  1  0
 89223  1  0
 90224  1  0
 90225  1  0
 91226  1  0
 91227  1  0
 92228  1  0
 92229  1  0
 92230  1  0
 93231  1  0
 93232  1  0
 94233  1  0
 97234  1  0
 98235  1  0
 99236  1  0
M  END
>  <PDBID>  (1) 
4COX

>  <PDB ID>  (1) 
4COX

>  <Generic Name>  (1) 
Indomethacin

>  <Brand Name>  (1) 
Apo Indomethacin Cap 25mg#Apo Indomethacin Cap 50mg#Ftp-indomethacin#Indocid Cap 25mg#Indocid Cap 50mg#Indocid SR 75mg#Indocid Sterile Oph Susp 1%#Indocid Sup 100mg#Indocid Sup 50mg#Indocin#Indocollyre#Indomethacin#Indomethacin ER#Indomethacin Extended-release#Mint-indomethacin#Novo-methacin - 100mg Sup#Novo-methacin - Sup 50mg#Ntp-indomethacin#Nu-indo Cap 25mg#Nu-indo Cap 50mg#Pro-indo 25 Cap 25mg#Pro-indo 50 Cap 50mg#Ratio-indomethacin#Rhodacine - Cap 25mg#Rhodacine - Cap 50mg#Rhodacine - Sup 100mg#Rhodacine - Sup 50mg#Sandoz Indomethacin#Teva-indomethacin#Tivorbex#Arthrexin#Elmetacin#Indaflex#Indocid#Indolar SR#Indomed#Indoxen#Metindol#Mikametan#Nu-Indo#Reumacide

>  <DrugBank ID>  (1) 
DB00328

>  <ATC Codes>  (1) 
S01CC02#M02AA23#M01AB01#M01AB51#S01BC01#C01EB03

>  <Ligand ID>  (1) 
IMN

>  <Target Name>  (1) 
Prostaglandin G/H synthase 2

>  <UniProt ID>  (1) 
P35354

>  <PDB ID.1>  (1) 
4COX

>  <Seq. Identity>  (1) 
84%

$$$$
