PDB_DB00814_05
     RDKit          3D

104109  0  0  0  0  0  0  0  0999 V2000
    6.1555    1.1924    0.7020 C   0  0  0  0  0  0  0  0  0  0  0  0
    5.0128    0.8364   -0.1974 C   0  0  0  0  0  0  0  0  0  0  0  0
    3.4640    1.3444    0.6567 S   0  0  0  0  0  0  0  0  0  0  0  0
    4.7590   -0.6195   -0.3440 C   0  0  0  0  0  0  0  0  0  0  0  0
    4.0841   -1.1481    0.7904 N   0  0  0  0  0  0  0  0  0  0  0  0
    2.9776   -0.3412    1.1554 C   0  0  0  0  0  0  0  0  0  0  0  0
    1.6877   -0.7295    0.7602 N   0  0  0  0  0  0  0  0  0  0  0  0
    1.3504   -0.6351   -0.6198 C   0  0  1  0  0  0  0  0  0  0  0  0
    1.4827   -1.9277   -1.1729 O   0  0  0  0  0  0  0  0  0  0  0  0
   -0.1000   -0.1680   -0.8188 C   0  0  1  0  0  0  0  0  0  0  0  0
   -0.9921   -1.2302   -0.2488 C   0  0  2  0  0  0  0  0  0  0  0  0
   -0.8671   -2.3810   -1.0280 O   0  0  0  0  0  0  0  0  0  0  0  0
   -2.4392   -0.8114   -0.3009 C   0  0  1  0  0  0  0  0  0  0  0  0
   -3.3963   -1.9023    0.0371 C   0  0  0  0  0  0  0  0  0  0  0  0
   -4.7961   -1.4081   -0.2728 C   0  0  0  0  0  0  0  0  0  0  0  0
   -5.0093    0.0171    0.1182 C   0  0  0  0  0  0  0  0  0  0  0  0
   -4.0148    0.5573    1.0870 C   0  0  0  0  0  0  0  0  0  0  0  0
   -2.5818    0.2555    0.7709 C   0  0  2  0  0  0  0  0  0  0  0  0
   -1.7003    1.6437    0.2125 S   0  0  0  0  0  0  0  0  0  0  0  0
   -2.6735    2.4003   -1.2015 O   0  0  0  0  0  0  0  0  0  0  0  0
   -1.6532    2.9551    1.4209 O   0  0  0  0  0  0  0  0  0  0  0  0
   -0.2462    1.1297   -0.2844 N   0  0  0  0  0  0  0  0  0  0  0  0
    0.2756    2.0704   -1.2845 C   0  0  0  0  0  0  0  0  0  0  0  0
    6.3622    0.4237    0.3836 C   0  0  0  0  0  0  0  0  0  0  0  0
    5.1230   -0.4149    0.3105 C   0  0  0  0  0  0  0  0  0  0  0  0
    3.7847    0.2976    1.3583 S   0  0  0  0  0  0  0  0  0  0  0  0
    4.4591   -0.3173   -1.0355 C   0  0  0  0  0  0  0  0  0  0  0  0
    3.5892    0.7563   -1.1354 N   0  0  0  0  0  0  0  0  0  0  0  0
    2.9534    1.1712    0.0442 C   0  0  1  0  0  0  0  0  0  0  0  0
    1.5257    1.1470    0.0473 N   0  0  0  0  0  0  0  0  0  0  0  0
    0.8767   -0.0972   -0.0733 C   0  0  1  0  0  0  0  0  0  0  0  0
    1.7593   -1.1940    0.1115 O   0  0  0  0  0  0  0  0  0  0  0  0
   -0.4179   -0.2880    0.6600 C   0  0  2  0  0  0  0  0  0  0  0  0
   -1.3082   -1.3030   -0.0078 C   0  0  2  0  0  0  0  0  0  0  0  0
   -0.6572   -2.1294   -0.8818 O   0  0  0  0  0  0  0  0  0  0  0  0
   -2.1715   -0.2588   -0.6961 C   0  0  1  0  0  0  0  0  0  0  0  0
   -3.2705   -0.8083   -1.5090 C   0  0  0  0  0  0  0  0  0  0  0  0
   -4.5554   -1.0902   -0.7980 C   0  0  0  0  0  0  0  0  0  0  0  0
   -5.0279    0.1827   -0.1156 C   0  0  0  0  0  0  0  0  0  0  0  0
   -3.9359    1.0692    0.2785 C   0  0  0  0  0  0  0  0  0  0  0  0
   -2.7104    0.3294    0.6396 C   0  0  2  0  0  0  0  0  0  0  0  0
   -1.2700    1.0153    1.2679 S   0  0  0  0  0  0  0  0  0  0  0  0
   -1.2891    2.5187    0.3834 O   0  0  0  0  0  0  0  0  0  0  0  0
   -0.3064    2.0697    2.5287 O   0  0  0  0  0  0  0  0  0  0  0  0
   -0.1717   -0.4081    1.9495 N   0  0  0  0  0  0  0  0  0  0  0  0
   -0.6761   -1.4075    2.6602 C   0  0  0  0  0  0  0  0  0  0  0  0
    6.0570    0.7362    1.6860 H   0  0  0  0  0  0  0  0  0  0  0  0
    6.0958    2.3078    0.8696 H   0  0  0  0  0  0  0  0  0  0  0  0
    7.1444    1.0172    0.2502 H   0  0  0  0  0  0  0  0  0  0  0  0
    5.0975    1.3168   -1.1837 H   0  0  0  0  0  0  0  0  0  0  0  0
    5.7554   -1.1406   -0.3840 H   0  0  0  0  0  0  0  0  0  0  0  0
    4.2477   -0.8520   -1.3013 H   0  0  0  0  0  0  0  0  0  0  0  0
    4.7195   -1.3858    1.5907 H   0  0  0  0  0  0  0  0  0  0  0  0
    2.9816   -0.2986    2.2918 H   0  0  0  0  0  0  0  0  0  0  0  0
    0.9472   -0.4545    1.4217 H   0  0  0  0  0  0  0  0  0  0  0  0
    2.0421    0.0032   -1.2181 H   0  0  0  0  0  0  0  0  0  0  0  0
    1.8578   -2.5797   -0.5303 H   0  0  0  0  0  0  0  0  0  0  0  0
   -0.2474   -0.1563   -1.9207 H   0  0  0  0  0  0  0  0  0  0  0  0
   -0.7067   -1.4844    0.7805 H   0  0  0  0  0  0  0  0  0  0  0  0
   -1.1924   -3.1957   -0.5404 H   0  0  0  0  0  0  0  0  0  0  0  0
   -2.6979   -0.4241   -1.3077 H   0  0  0  0  0  0  0  0  0  0  0  0
   -3.3698   -2.0227    1.1578 H   0  0  0  0  0  0  0  0  0  0  0  0
   -3.2324   -2.8497   -0.4876 H   0  0  0  0  0  0  0  0  0  0  0  0
   -4.9279   -1.4787   -1.3844 H   0  0  0  0  0  0  0  0  0  0  0  0
   -5.5556   -2.0958    0.1531 H   0  0  0  0  0  0  0  0  0  0  0  0
   -6.0140    0.0639    0.6285 H   0  0  0  0  0  0  0  0  0  0  0  0
   -5.1423    0.6903   -0.7785 H   0  0  0  0  0  0  0  0  0  0  0  0
   -4.2191    1.6448    1.2097 H   0  0  0  0  0  0  0  0  0  0  0  0
   -4.2331    0.1034    2.0763 H   0  0  0  0  0  0  0  0  0  0  0  0
   -2.0415   -0.1421    1.6645 H   0  0  0  0  0  0  0  0  0  0  0  0
   -2.6414    1.6406   -1.8211 H   0  0  0  0  0  0  0  0  0  0  0  0
   -2.5976    3.0477    1.7120 H   0  0  0  0  0  0  0  0  0  0  0  0
   -0.0345    1.6574   -2.2776 H   0  0  0  0  0  0  0  0  0  0  0  0
   -0.2369    3.0484   -1.1528 H   0  0  0  0  0  0  0  0  0  0  0  0
    1.3653    2.1828   -1.2017 H   0  0  0  0  0  0  0  0  0  0  0  0
    6.2851    1.3988   -0.1309 H   0  0  0  0  0  0  0  0  0  0  0  0
    7.2020   -0.1852   -0.0371 H   0  0  0  0  0  0  0  0  0  0  0  0
    6.6144    0.6072    1.4521 H   0  0  0  0  0  0  0  0  0  0  0  0
    5.3594   -1.4296    0.6218 H   0  0  0  0  0  0  0  0  0  0  0  0
    4.0623   -1.3191   -1.3825 H   0  0  0  0  0  0  0  0  0  0  0  0
    5.3008   -0.1461   -1.7742 H   0  0  0  0  0  0  0  0  0  0  0  0
    3.5649    1.3413   -1.9641 H   0  0  0  0  0  0  0  0  0  0  0  0
    3.2205    2.2721    0.1727 H   0  0  0  0  0  0  0  0  0  0  0  0
    1.2673    1.8022   -0.7599 H   0  0  0  0  0  0  0  0  0  0  0  0
    0.6497   -0.2075   -1.1809 H   0  0  0  0  0  0  0  0  0  0  0  0
    1.8593   -1.3335    1.0758 H   0  0  0  0  0  0  0  0  0  0  0  0
   -1.9433   -1.8648    0.7116 H   0  0  0  0  0  0  0  0  0  0  0  0
   -0.7297   -1.8501   -1.8121 H   0  0  0  0  0  0  0  0  0  0  0  0
   -1.5610    0.5238   -1.1881 H   0  0  0  0  0  0  0  0  0  0  0  0
   -3.4991   -0.1486   -2.3824 H   0  0  0  0  0  0  0  0  0  0  0  0
   -2.8993   -1.7653   -1.9819 H   0  0  0  0  0  0  0  0  0  0  0  0
   -4.4917   -1.9487   -0.1269 H   0  0  0  0  0  0  0  0  0  0  0  0
   -5.3089   -1.3449   -1.5997 H   0  0  0  0  0  0  0  0  0  0  0  0
   -5.6425   -0.0921    0.7696 H   0  0  0  0  0  0  0  0  0  0  0  0
   -5.7156    0.7337   -0.8197 H   0  0  0  0  0  0  0  0  0  0  0  0
   -3.7040    1.7522   -0.5848 H   0  0  0  0  0  0  0  0  0  0  0  0
   -4.3082    1.7378    1.1049 H   0  0  0  0  0  0  0  0  0  0  0  0
   -3.1040   -0.6283    1.0628 H   0  0  0  0  0  0  0  0  0  0  0  0
   -2.2154    1.2962    2.8957 H   0  0  0  0  0  0  0  0  0  0  0  0
   -0.9093    2.5748   -0.4381 H   0  0  0  0  0  0  0  0  0  0  0  0
    0.5381    2.2677    2.2501 H   0  0  0  0  0  0  0  0  0  0  0  0
   -1.7967   -1.4112    2.8259 H   0  0  0  0  0  0  0  0  0  0  0  0
   -0.2697   -1.4811    3.7129 H   0  0  0  0  0  0  0  0  0  0  0  0
   -0.4904   -2.4152    2.1728 H   0  0  0  0  0  0  0  0  0  0  0  0
  1  2  1  0
  2  3  1  0
  2  4  1  0
  4  5  1  0
  3  6  1  0
  5  6  1  0
  6  7  1  0
  7  8  1  0
  8  9  1  0
  8 10  1  0
 10 11  1  0
 11 12  1  0
 11 13  1  0
 13 14  1  0
 14 15  1  0
 15 16  1  0
 16 17  1  0
 13 18  1  0
 17 18  1  0
 18 19  1  0
 19 20  1  0
 19 21  1  0
 10 22  1  0
 19 22  1  0
 22 23  1  0
 24 25  1  0
 25 26  1  0
 25 27  1  0
 27 28  1  0
 26 29  1  0
 28 29  1  0
 29 30  1  0
 30 31  1  0
 31 32  1  0
 31 33  1  0
 33 34  1  0
 34 35  1  0
 34 36  1  0
 36 37  1  0
 37 38  1  0
 38 39  1  0
 39 40  1  0
 36 41  1  0
 40 41  1  0
 41 42  1  0
 42 33  1  0
 42 43  1  0
 42 44  1  0
 33 45  1  1
 42 45  1  0
 45 46  1  0
  1 47  1  0
  1 48  1  0
  1 49  1  0
  2 50  1  0
  4 51  1  0
  4 52  1  0
  5 53  1  0
  6 54  1  0
  7 55  1  0
  8 56  1  6
  9 57  1  0
 10 58  1  6
 11 59  1  1
 12 60  1  0
 13 61  1  6
 14 62  1  0
 14 63  1  0
 15 64  1  0
 15 65  1  0
 16 66  1  0
 16 67  1  0
 17 68  1  0
 17 69  1  0
 18 70  1  1
 20 71  1  0
 21 72  1  0
 23 73  1  0
 23 74  1  0
 23 75  1  0
 24 76  1  0
 24 77  1  0
 24 78  1  0
 25 79  1  0
 27 80  1  0
 27 81  1  0
 28 82  1  0
 29 83  1  1
 30 84  1  0
 31 85  1  6
 32 86  1  0
 34 87  1  1
 35 88  1  0
 36 89  1  6
 37 90  1  0
 37 91  1  0
 38 92  1  0
 38 93  1  0
 39 94  1  0
 39 95  1  0
 40 96  1  0
 40 97  1  0
 41 98  1  1
 42 99  1  0
 43100  1  0
 44101  1  0
 46102  1  0
 46103  1  0
 46104  1  0
M  END
>  <PDBID>  (1) 
4O1Z

>  <PDB ID>  (1) 
4O1Z

>  <Generic Name>  (1) 
Meloxicam

>  <Brand Name>  (1) 
Act Meloxicam#Apo-meloxicam#Auro-meloxicam#Ava-meloxicam#Comfort Pac With Meloxicam#Dom-meloxicam#Meloxicam#Mobic#Mobicox#Mylan-meloxicam#Nu-meloxicam#PHL-meloxicam#PMS-meloxicam#Ratio-meloxicam#Teva-meloxicam#Trepoxicam-7.5#Vivlodex#Achefree#Acticam#Aflamid#Afloxx#Aglan#Ainecox#Aldoron#Alentum#Algiflex#Aliviodol#Anaxicam#Anposel#Antrend#Aponip#Areloger#Aremil#Armex#Arrox#Arsitec#Artex#Arthrobic#Arthrox#Articam#Artipro#Artriclox#Artrifilm#Artriflam#Artrilom#Artrilox#Artrox#Aspicam#Atiflam#Atrozan#Auroxicam#Axius

>  <DrugBank ID>  (1) 
DB00814

>  <ATC Codes>  (1) 
M01AC56#M01AC06

>  <Ligand ID>  (1) 
MXM

>  <Target Name>  (1) 
Prostaglandin G/H synthase 2

>  <UniProt ID>  (1) 
P35354

>  <PDB ID.1>  (1) 
4O1Z

>  <Seq. Identity>  (1) 
61%

$$$$
