PDB_DB00503_03
     RDKit          3D

124127  0  0  0  0  0  0  0  0999 V2000
   -4.2402    4.3814    1.7004 C   0  0  0  0  0  0  0  0  0  0  0  0
   -2.9766    3.6631    1.2590 C   0  0  0  0  0  0  0  0  0  0  0  0
   -1.7646    5.0248    1.4978 S   0  0  0  0  0  0  0  0  0  0  0  0
   -2.9123    6.1978    2.3296 C   0  0  0  0  0  0  0  0  0  0  0  0
   -3.8871    5.2234    2.8274 N   0  0  0  0  0  0  0  0  0  0  0  0
   -2.5887    2.5245    2.1339 C   0  0  0  0  0  0  0  0  0  0  0  0
   -3.5168    1.5049    2.2297 O   0  0  0  0  0  0  0  0  0  0  0  0
   -3.7641    0.9074    0.9677 C   0  0  0  0  0  0  0  0  0  0  0  0
   -5.0797    1.2519    0.6605 O   0  0  0  0  0  0  0  0  0  0  0  0
   -3.5424   -0.4879    1.0546 N   0  0  0  0  0  0  0  0  0  0  0  0
   -3.7652   -1.2821   -0.0904 C   0  0  2  0  0  0  0  0  0  0  0  0
   -2.8872   -0.9966   -1.2892 C   0  0  2  0  0  0  0  0  0  0  0  0
   -1.4826   -1.3484   -0.9411 C   0  0  0  0  0  0  0  0  0  0  0  0
   -0.4422   -1.1501   -1.9816 C   0  0  2  0  0  0  0  0  0  0  0  0
   -5.2100   -1.4923   -0.4730 C   0  0  0  0  0  0  0  0  0  0  0  0
   -6.0510   -2.1757    0.5394 C   0  0  0  0  0  0  0  0  0  0  0  0
   -7.4612   -2.2750   -0.0612 C   0  0  0  0  0  0  0  0  0  0  0  0
   -8.4957   -2.5821    0.9699 C   0  0  0  0  0  0  0  0  0  0  0  0
   -7.8488   -3.4217    2.0466 C   0  0  0  0  0  0  0  0  0  0  0  0
   -6.8849   -2.5401    2.7871 C   0  0  0  0  0  0  0  0  0  0  0  0
   -6.2017   -1.5284    1.8634 C   0  0  0  0  0  0  0  0  0  0  0  0
   -3.0427    0.3184   -1.7059 O   0  0  0  0  0  0  0  0  0  0  0  0
   -0.5397   -1.8447   -3.2570 C   0  0  0  0  0  0  0  0  0  0  0  0
   -0.5622   -3.2903   -3.4259 C   0  0  0  0  0  0  0  0  0  0  0  0
   -1.5968   -4.1463   -2.8464 C   0  0  0  0  0  0  0  0  0  0  0  0
   -1.0444   -5.4268   -2.1962 C   0  0  0  0  0  0  0  0  0  0  0  0
   -0.3080   -6.1721   -3.2893 C   0  0  0  0  0  0  0  0  0  0  0  0
    0.7854   -5.2783   -3.8049 C   0  0  0  0  0  0  0  0  0  0  0  0
    0.7992   -3.9378   -3.0998 C   0  0  0  0  0  0  0  0  0  0  0  0
    0.9137   -1.1539   -1.3926 N   0  0  0  0  0  0  0  0  0  0  0  0
    2.7514    0.8132    1.1674 N   0  0  0  0  0  0  0  0  0  0  0  0
    2.5939    0.0502   -0.0109 C   0  0  2  0  0  0  0  0  0  0  0  0
    1.1689   -0.0876   -0.4933 C   0  0  1  0  0  0  0  0  0  0  0  0
    0.7022    1.1512   -0.8409 O   0  0  0  0  0  0  0  0  0  0  0  0
    3.3016   -1.2839    0.2104 C   0  0  0  0  0  0  0  0  0  0  0  0
    4.7765   -0.9264    0.5552 C   0  0  0  0  0  0  0  0  0  0  0  0
    3.4392   -2.0854   -1.0706 C   0  0  0  0  0  0  0  0  0  0  0  0
    2.4512    2.1797    1.2326 C   0  0  1  0  0  0  0  0  0  0  0  0
    3.1663    2.9659    0.3339 N   0  0  0  0  0  0  0  0  0  0  0  0
    4.5325    3.0292    0.2062 C   0  0  0  0  0  0  0  0  0  0  0  0
    1.0629    2.4809    1.2387 O   0  0  0  0  0  0  0  0  0  0  0  0
    5.4590    3.6226    1.1728 C   0  0  0  0  0  0  0  0  0  0  0  0
    5.5899    3.0805    2.5468 C   0  0  0  0  0  0  0  0  0  0  0  0
    6.8628    1.7670    2.2428 S   0  0  0  0  0  0  0  0  0  0  0  0
    7.2896    2.2901    0.5328 C   0  0  0  0  0  0  0  0  0  0  0  0
    6.7902    3.6308    0.5564 N   0  0  0  0  0  0  0  0  0  0  0  0
    8.8208    2.3031    0.5074 C   0  0  0  0  0  0  0  0  0  0  0  0
    9.2798    0.9035    0.8282 C   0  0  0  0  0  0  0  0  0  0  0  0
    9.2415    3.2183    1.6482 C   0  0  0  0  0  0  0  0  0  0  0  0
    2.4313    4.1068   -0.1902 C   0  0  0  0  0  0  0  0  0  0  0  0
   -4.6163    4.9930    0.8806 H   0  0  0  0  0  0  0  0  0  0  0  0
   -4.9954    3.6700    2.0919 H   0  0  0  0  0  0  0  0  0  0  0  0
   -2.9742    3.4606    0.1762 H   0  0  0  0  0  0  0  0  0  0  0  0
   -3.3349    6.8489    1.5612 H   0  0  0  0  0  0  0  0  0  0  0  0
   -2.4299    6.6936    3.1718 H   0  0  0  0  0  0  0  0  0  0  0  0
   -3.3980    4.6540    3.5554 H   0  0  0  0  0  0  0  0  0  0  0  0
   -1.5970    2.1678    1.7809 H   0  0  0  0  0  0  0  0  0  0  0  0
   -2.4176    2.9028    3.1546 H   0  0  0  0  0  0  0  0  0  0  0  0
   -3.1200    1.4404    0.2724 H   0  0  0  0  0  0  0  0  0  0  0  0
   -5.1182    1.9954    0.0184 H   0  0  0  0  0  0  0  0  0  0  0  0
   -2.6147   -0.6827    1.4700 H   0  0  0  0  0  0  0  0  0  0  0  0
   -3.4244   -2.3394    0.2141 H   0  0  0  0  0  0  0  0  0  0  0  0
   -3.3153   -1.6099   -2.1127 H   0  0  0  0  0  0  0  0  0  0  0  0
   -1.2732   -0.7103   -0.0182 H   0  0  0  0  0  0  0  0  0  0  0  0
   -1.3745   -2.3683   -0.5204 H   0  0  0  0  0  0  0  0  0  0  0  0
   -0.5432   -0.0395   -2.2477 H   0  0  0  0  0  0  0  0  0  0  0  0
   -5.1767   -2.1768   -1.3735 H   0  0  0  0  0  0  0  0  0  0  0  0
   -5.7198   -0.5825   -0.8198 H   0  0  0  0  0  0  0  0  0  0  0  0
   -5.7267   -3.2474    0.6270 H   0  0  0  0  0  0  0  0  0  0  0  0
   -7.7345   -1.2841   -0.5277 H   0  0  0  0  0  0  0  0  0  0  0  0
   -7.5067   -3.0310   -0.8574 H   0  0  0  0  0  0  0  0  0  0  0  0
   -9.2870   -3.2002    0.5016 H   0  0  0  0  0  0  0  0  0  0  0  0
   -8.9887   -1.6795    1.3825 H   0  0  0  0  0  0  0  0  0  0  0  0
   -8.5744   -3.8223    2.7742 H   0  0  0  0  0  0  0  0  0  0  0  0
   -7.2737   -4.2213    1.5446 H   0  0  0  0  0  0  0  0  0  0  0  0
   -7.3888   -1.9451    3.5811 H   0  0  0  0  0  0  0  0  0  0  0  0
   -6.0728   -3.1232    3.2709 H   0  0  0  0  0  0  0  0  0  0  0  0
   -6.8389   -0.6262    1.7336 H   0  0  0  0  0  0  0  0  0  0  0  0
   -5.3049   -1.2160    2.3860 H   0  0  0  0  0  0  0  0  0  0  0  0
   -3.2108    0.4071   -2.6722 H   0  0  0  0  0  0  0  0  0  0  0  0
    0.3496   -1.4841   -3.8854 H   0  0  0  0  0  0  0  0  0  0  0  0
   -1.3805   -1.3315   -3.8405 H   0  0  0  0  0  0  0  0  0  0  0  0
   -0.5918   -3.4517   -4.5648 H   0  0  0  0  0  0  0  0  0  0  0  0
   -2.3076   -3.7454   -2.1398 H   0  0  0  0  0  0  0  0  0  0  0  0
   -2.2615   -4.5853   -3.6671 H   0  0  0  0  0  0  0  0  0  0  0  0
   -0.4639   -5.2412   -1.2989 H   0  0  0  0  0  0  0  0  0  0  0  0
   -1.9781   -6.0202   -1.9621 H   0  0  0  0  0  0  0  0  0  0  0  0
   -1.0779   -6.3697   -4.0923 H   0  0  0  0  0  0  0  0  0  0  0  0
    0.0447   -7.1667   -2.9562 H   0  0  0  0  0  0  0  0  0  0  0  0
    1.7471   -5.8065   -3.7189 H   0  0  0  0  0  0  0  0  0  0  0  0
    0.5996   -5.0854   -4.8788 H   0  0  0  0  0  0  0  0  0  0  0  0
    1.5569   -3.3218   -3.6249 H   0  0  0  0  0  0  0  0  0  0  0  0
    0.9770   -4.0244   -2.0307 H   0  0  0  0  0  0  0  0  0  0  0  0
    0.8640   -2.0344   -0.7695 H   0  0  0  0  0  0  0  0  0  0  0  0
    2.2349    0.3043    1.9479 H   0  0  0  0  0  0  0  0  0  0  0  0
    3.2239    0.5439   -0.8203 H   0  0  0  0  0  0  0  0  0  0  0  0
    0.6020   -0.3057    0.4945 H   0  0  0  0  0  0  0  0  0  0  0  0
   -0.2717    1.2914   -0.7903 H   0  0  0  0  0  0  0  0  0  0  0  0
    2.8246   -1.7964    1.0288 H   0  0  0  0  0  0  0  0  0  0  0  0
    4.7552   -0.1213    1.2865 H   0  0  0  0  0  0  0  0  0  0  0  0
    5.2462   -1.8578    0.9044 H   0  0  0  0  0  0  0  0  0  0  0  0
    5.2266   -0.5418   -0.3807 H   0  0  0  0  0  0  0  0  0  0  0  0
    3.1299   -1.4349   -1.9069 H   0  0  0  0  0  0  0  0  0  0  0  0
    4.5397   -2.2920   -1.3052 H   0  0  0  0  0  0  0  0  0  0  0  0
    2.9173   -3.0625   -1.0368 H   0  0  0  0  0  0  0  0  0  0  0  0
    2.7211    2.5102    2.2920 H   0  0  0  0  0  0  0  0  0  0  0  0
    4.7623    3.5282   -0.7948 H   0  0  0  0  0  0  0  0  0  0  0  0
    4.9011    1.9376    0.0705 H   0  0  0  0  0  0  0  0  0  0  0  0
    0.8765    3.3413    1.6627 H   0  0  0  0  0  0  0  0  0  0  0  0
    5.2615    4.7470    1.3010 H   0  0  0  0  0  0  0  0  0  0  0  0
    6.0798    3.8739    3.1838 H   0  0  0  0  0  0  0  0  0  0  0  0
    4.7236    2.6584    3.0081 H   0  0  0  0  0  0  0  0  0  0  0  0
    6.8850    1.6280   -0.2272 H   0  0  0  0  0  0  0  0  0  0  0  0
    6.6467    3.9605   -0.4121 H   0  0  0  0  0  0  0  0  0  0  0  0
    9.1744    2.6648   -0.4734 H   0  0  0  0  0  0  0  0  0  0  0  0
    8.7254    0.1146    0.3180 H   0  0  0  0  0  0  0  0  0  0  0  0
   10.3799    0.7902    0.6904 H   0  0  0  0  0  0  0  0  0  0  0  0
    9.1095    0.7678    1.9324 H   0  0  0  0  0  0  0  0  0  0  0  0
   10.2905    3.0812    1.9085 H   0  0  0  0  0  0  0  0  0  0  0  0
    8.5458    3.0242    2.4944 H   0  0  0  0  0  0  0  0  0  0  0  0
    9.0010    4.2483    1.3024 H   0  0  0  0  0  0  0  0  0  0  0  0
    2.3448    4.9215    0.5339 H   0  0  0  0  0  0  0  0  0  0  0  0
    2.8976    4.3790   -1.1474 H   0  0  0  0  0  0  0  0  0  0  0  0
    1.4058    3.7597   -0.4217 H   0  0  0  0  0  0  0  0  0  0  0  0
  1  2  1  0
  2  3  1  0
  3  4  1  0
  1  5  1  0
  4  5  1  0
  2  6  1  0
  6  7  1  0
  7  8  1  0
  8  9  1  0
  8 10  1  0
 10 11  1  0
 11 12  1  0
 12 13  1  0
 13 14  1  0
 11 15  1  0
 15 16  1  0
 16 17  1  0
 17 18  1  0
 18 19  1  0
 19 20  1  0
 16 21  1  0
 20 21  1  0
 12 22  1  0
 14 23  1  0
 23 24  1  0
 24 25  1  0
 25 26  1  0
 26 27  1  0
 27 28  1  0
 24 29  1  0
 28 29  1  0
 14 30  1  0
 31 32  1  0
 30 33  1  0
 32 33  1  0
 33 34  1  0
 32 35  1  0
 35 36  1  0
 35 37  1  0
 31 38  1  0
 38 39  1  0
 39 40  1  0
 38 41  1  0
 40 42  1  0
 42 43  1  0
 43 44  1  0
 44 45  1  0
 42 46  1  0
 45 46  1  0
 45 47  1  0
 47 48  1  0
 47 49  1  0
 39 50  1  0
  1 51  1  0
  1 52  1  0
  2 53  1  0
  4 54  1  0
  4 55  1  0
  5 56  1  0
  6 57  1  0
  6 58  1  0
  8 59  1  0
  9 60  1  0
 10 61  1  0
 11 62  1  1
 12 63  1  6
 13 64  1  0
 13 65  1  0
 14 66  1  6
 15 67  1  0
 15 68  1  0
 16 69  1  0
 17 70  1  0
 17 71  1  0
 18 72  1  0
 18 73  1  0
 19 74  1  0
 19 75  1  0
 20 76  1  0
 20 77  1  0
 21 78  1  0
 21 79  1  0
 22 80  1  0
 23 81  1  0
 23 82  1  0
 24 83  1  0
 25 84  1  0
 25 85  1  0
 26 86  1  0
 26 87  1  0
 27 88  1  0
 27 89  1  0
 28 90  1  0
 28 91  1  0
 29 92  1  0
 29 93  1  0
 30 94  1  0
 31 95  1  0
 32 96  1  6
 33 97  1  1
 34 98  1  0
 35 99  1  0
 36100  1  0
 36101  1  0
 36102  1  0
 37103  1  0
 37104  1  0
 37105  1  0
 38106  1  1
 40107  1  0
 40108  1  0
 41109  1  0
 42110  1  0
 43111  1  0
 43112  1  0
 45113  1  0
 46114  1  0
 47115  1  0
 48116  1  0
 48117  1  0
 48118  1  0
 49119  1  0
 49120  1  0
 49121  1  0
 50122  1  0
 50123  1  0
 50124  1  0
M  END
>  <PDBID>  (1) 
1HXW

>  <PDB ID>  (1) 
1HXW

>  <Generic Name>  (1) 
Ritonavir

>  <Brand Name>  (1) 
Holkira Pak#Kaletra#Lopinavir-ritonavir#Norvir#Norvir Sec#Technivie#Viekira Pak#Viekira XR#Busvir#Empetus#Normune

>  <DrugBank ID>  (1) 
DB00503

>  <ATC Codes>  (1) 
J05AX67#J05AR10#J05AE03#J05AX66

>  <Ligand ID>  (1) 
RIT

>  <Target Name>  (1) 
Pol polyprotein

>  <UniProt ID>  (1) 
Q72874

>  <PDB ID.1>  (1) 
1HXW

>  <Seq. Identity>  (1) 
98%

$$$$
