PDB_DB00275_01
     RDKit          3D

 81 84  0  0  0  0  0  0  0  0999 V2000
    1.7665    0.4017   -1.3627 C   0  0  0  0  0  0  0  0  0  0  0  0
    0.3228    0.0899   -1.0677 C   0  0  0  0  0  0  0  0  0  0  0  0
   -5.9894    1.3082   -2.4852 O   0  0  0  0  0  0  0  0  0  0  0  0
   -0.0017    0.3814    0.3779 C   0  0  0  0  0  0  0  0  0  0  0  0
   -4.4358    2.3215    1.0857 O   0  0  0  0  0  0  0  0  0  0  0  0
   -1.3317    1.1161    0.4442 C   0  0  0  0  0  0  0  0  0  0  0  0
   -2.8831    3.3544   -0.1400 O   0  0  0  0  0  0  0  0  0  0  0  0
   -4.9207   -2.2014    2.4249 C   0  0  0  0  0  0  0  0  0  0  0  0
   -3.4779   -1.9237    2.6622 C   0  0  0  0  0  0  0  0  0  0  0  0
   -2.9141   -0.7079    1.9849 C   0  0  0  0  0  0  0  0  0  0  0  0
   -2.9658   -0.7046    0.4940 C   0  0  0  0  0  0  0  0  0  0  0  0
   -4.3730   -0.7807    0.0772 N   0  0  0  0  0  0  0  0  0  0  0  0
   -4.4326    0.1172   -1.0940 C   0  0  0  0  0  0  0  0  0  0  0  0
   -5.8107    0.4464   -1.3942 C   0  0  0  0  0  0  0  0  0  0  0  0
   -6.6665    0.8634   -0.2235 C   0  0  0  0  0  0  0  0  0  0  0  0
   -6.4707   -0.8630   -1.9055 C   0  0  0  0  0  0  0  0  0  0  0  0
   -3.4207    1.1640   -0.8003 C   0  0  0  0  0  0  0  0  0  0  0  0
   -3.8938    2.4083   -0.1891 C   0  0  0  0  0  0  0  0  0  0  0  0
   -2.4183    0.4659   -0.0643 N   0  0  0  0  0  0  0  0  0  0  0  0
    1.0331    1.3640    0.9409 C   0  0  0  0  0  0  0  0  0  0  0  0
    2.4179    0.7498    0.9611 C   0  0  0  0  0  0  0  0  0  0  0  0
    2.6238   -0.1037   -0.2226 C   0  0  0  0  0  0  0  0  0  0  0  0
    4.0653   -0.2573   -0.6633 C   0  0  0  0  0  0  0  0  0  0  0  0
    4.0754   -1.2385   -1.7822 C   0  0  0  0  0  0  0  0  0  0  0  0
    5.2692   -2.1683   -1.7641 C   0  0  0  0  0  0  0  0  0  0  0  0
    5.1908   -2.8535   -0.4109 C   0  0  0  0  0  0  0  0  0  0  0  0
    5.5833   -1.8370    0.6134 C   0  0  0  0  0  0  0  0  0  0  0  0
    5.0139   -0.4890    0.4434 C   0  0  0  0  0  0  0  0  0  0  0  0
    6.2092    0.4748    0.3586 C   0  0  0  0  0  0  0  0  0  0  0  0
    7.1329    0.2391    1.4468 N   0  0  0  0  0  0  0  0  0  0  0  0
    7.2596    1.4679    2.0789 N   0  0  0  0  0  0  0  0  0  0  0  0
    6.7170    2.4307    1.2611 N   0  0  0  0  0  0  0  0  0  0  0  0
    5.8173    1.8426    0.3980 N   0  0  0  0  0  0  0  0  0  0  0  0
    1.9458    1.4811   -1.5699 H   0  0  0  0  0  0  0  0  0  0  0  0
    2.0710   -0.1751   -2.2737 H   0  0  0  0  0  0  0  0  0  0  0  0
    0.1818   -1.0000   -1.3166 H   0  0  0  0  0  0  0  0  0  0  0  0
   -0.2944    0.7211   -1.7484 H   0  0  0  0  0  0  0  0  0  0  0  0
   -5.6982    0.8153   -3.2864 H   0  0  0  0  0  0  0  0  0  0  0  0
    0.0587   -0.5116    0.9876 H   0  0  0  0  0  0  0  0  0  0  0  0
   -3.8627    2.6836    1.7885 H   0  0  0  0  0  0  0  0  0  0  0  0
   -1.1226    2.0459   -0.1801 H   0  0  0  0  0  0  0  0  0  0  0  0
   -1.5012    1.4983    1.4720 H   0  0  0  0  0  0  0  0  0  0  0  0
   -2.9823    3.9663    0.6573 H   0  0  0  0  0  0  0  0  0  0  0  0
   -5.4400   -1.2899    2.0961 H   0  0  0  0  0  0  0  0  0  0  0  0
   -5.0674   -3.0526    1.6999 H   0  0  0  0  0  0  0  0  0  0  0  0
   -5.4162   -2.5869    3.3693 H   0  0  0  0  0  0  0  0  0  0  0  0
   -3.2170   -1.8594    3.7440 H   0  0  0  0  0  0  0  0  0  0  0  0
   -2.8673   -2.7908    2.2597 H   0  0  0  0  0  0  0  0  0  0  0  0
   -1.8801   -0.5935    2.3864 H   0  0  0  0  0  0  0  0  0  0  0  0
   -3.4661    0.1794    2.4166 H   0  0  0  0  0  0  0  0  0  0  0  0
   -2.5291   -1.6491    0.0638 H   0  0  0  0  0  0  0  0  0  0  0  0
   -4.6507   -1.7472   -0.2158 H   0  0  0  0  0  0  0  0  0  0  0  0
   -3.9920   -0.5268   -1.9157 H   0  0  0  0  0  0  0  0  0  0  0  0
   -6.3482    0.4288    0.7388 H   0  0  0  0  0  0  0  0  0  0  0  0
   -7.7295    0.4815   -0.3449 H   0  0  0  0  0  0  0  0  0  0  0  0
   -6.8203    1.9763   -0.1809 H   0  0  0  0  0  0  0  0  0  0  0  0
   -7.4953   -0.6132   -2.2334 H   0  0  0  0  0  0  0  0  0  0  0  0
   -5.8530   -1.3265   -2.6839 H   0  0  0  0  0  0  0  0  0  0  0  0
   -6.5389   -1.5320   -1.0267 H   0  0  0  0  0  0  0  0  0  0  0  0
   -2.9184    1.4644   -1.7747 H   0  0  0  0  0  0  0  0  0  0  0  0
   -4.6632    2.9120   -0.8849 H   0  0  0  0  0  0  0  0  0  0  0  0
    1.0012    2.3232    0.4128 H   0  0  0  0  0  0  0  0  0  0  0  0
    0.6979    1.5611    1.9870 H   0  0  0  0  0  0  0  0  0  0  0  0
    2.4598    0.1402    1.9060 H   0  0  0  0  0  0  0  0  0  0  0  0
    3.1250    1.5771    1.0998 H   0  0  0  0  0  0  0  0  0  0  0  0
    2.2161   -1.1298    0.0231 H   0  0  0  0  0  0  0  0  0  0  0  0
    4.3233    0.7473   -1.1186 H   0  0  0  0  0  0  0  0  0  0  0  0
    3.9668   -0.7276   -2.7621 H   0  0  0  0  0  0  0  0  0  0  0  0
    3.1883   -1.8992   -1.6908 H   0  0  0  0  0  0  0  0  0  0  0  0
    5.1069   -2.9007   -2.5856 H   0  0  0  0  0  0  0  0  0  0  0  0
    6.1998   -1.6179   -1.8872 H   0  0  0  0  0  0  0  0  0  0  0  0
    5.9331   -3.6683   -0.4073 H   0  0  0  0  0  0  0  0  0  0  0  0
    4.1723   -3.2612   -0.2568 H   0  0  0  0  0  0  0  0  0  0  0  0
    6.7135   -1.8500    0.6572 H   0  0  0  0  0  0  0  0  0  0  0  0
    5.2986   -2.2851    1.6126 H   0  0  0  0  0  0  0  0  0  0  0  0
    4.4745   -0.2159    1.3999 H   0  0  0  0  0  0  0  0  0  0  0  0
    6.7751    0.3061   -0.5810 H   0  0  0  0  0  0  0  0  0  0  0  0
    6.7862   -0.4542    2.1428 H   0  0  0  0  0  0  0  0  0  0  0  0
    8.3010    1.6489    2.1792 H   0  0  0  0  0  0  0  0  0  0  0  0
    7.3758    3.0928    0.8393 H   0  0  0  0  0  0  0  0  0  0  0  0
    5.8905    2.3350   -0.5279 H   0  0  0  0  0  0  0  0  0  0  0  0
  1  2  1  0
  2  4  1  0
  4  6  1  0
  8  9  1  0
  9 10  1  0
 10 11  1  0
 11 12  1  0
 12 13  1  0
 14  3  1  0
 13 14  1  0
 14 15  1  0
 14 16  1  0
 13 17  1  0
  5 18  1  0
  7 18  1  0
 17 18  1  0
  6 19  1  0
 11 19  1  0
 17 19  1  0
  4 20  1  0
 20 21  1  0
  1 22  1  0
 21 22  1  0
 22 23  1  0
 23 24  1  0
 24 25  1  0
 25 26  1  0
 26 27  1  0
 23 28  1  0
 27 28  1  0
 28 29  1  0
 29 30  1  0
 30 31  1  0
 31 32  1  0
 29 33  1  0
 32 33  1  0
  1 34  1  0
  1 35  1  0
  2 36  1  0
  2 37  1  0
  3 38  1  0
  4 39  1  0
  5 40  1  0
  6 41  1  0
  6 42  1  0
  7 43  1  0
  8 44  1  0
  8 45  1  0
  8 46  1  0
  9 47  1  0
  9 48  1  0
 10 49  1  0
 10 50  1  0
 11 51  1  0
 12 52  1  0
 13 53  1  0
 15 54  1  0
 15 55  1  0
 15 56  1  0
 16 57  1  0
 16 58  1  0
 16 59  1  0
 17 60  1  0
 18 61  1  0
 20 62  1  0
 20 63  1  0
 21 64  1  0
 21 65  1  0
 22 66  1  0
 23 67  1  0
 24 68  1  0
 24 69  1  0
 25 70  1  0
 25 71  1  0
 26 72  1  0
 26 73  1  0
 27 74  1  0
 27 75  1  0
 28 76  1  0
 29 77  1  0
 30 78  1  0
 31 79  1  0
 32 80  1  0
 33 81  1  0
M  END
>  <PDBID>  (1) 
4ZUD

>  <PDB ID>  (1) 
4ZUD

>  <Generic Name>  (1) 
Olmesartan

>  <Brand Name>  (1) 
Amlodipine Besylate and Olmesartan Medoxomil#Amlodipine and Olmesartan Medoxomil#Azor#Benicar#Benicar Hct#Olmesartan Medoxmil and Hydrochlorothiazide#Olmesartan Medoxomil#Olmesartan Medoxomil / Amlodipine Besylate / Hydrochlorothiazide#Olmesartan Medoxomil and Hydrochlorothiazide#Olmesartan Medoxomil, Amlodipine and Hydrochlorothiazide#Olmesartan Medoxomil, Amlodipine and Hydrochlorothiazide 20/5/12.5 mg#Olmesartan Medoxomil, Amlodipine and Hydrochlorothiazide 40/10/12.5 mg#Olmesartan Medoxomil, Amlodipine and Hydrochlorothiazide 40/10/25 mg#Olmesartan Medoxomil, Amlodipine and Hydrochlorothiazide 40/5/12.5 mg#Olmesartan Medoxomil, Amlodipine and Hydrochlorothiazide 40/5/25 mg#Olmetec#Olmetec Plus#Tribenzor#Erastapex#Golme#Olmetec#WinBP

>  <DrugBank ID>  (1) 
DB00275

>  <ATC Codes>  (1) 
C09DA08#C09CA08#C09DX03#C09DB02

>  <Ligand ID>  (1) 
OLM

>  <Target Name>  (1) 
Type-1 angiotensin II receptor

>  <UniProt ID>  (1) 
P30556

>  <PDB ID.1>  (1) 
4ZUD

>  <Seq. Identity>  (1) 
87%

$$$$
