PDB_DB00398_09
     RDKit          3D

 70 72  0  0  0  0  0  0  0  0999 V2000
    5.3587    0.1642   -0.8500 C   0  0  0  0  0  0  0  0  0  0  0  0
    4.8843    1.4897   -0.3720 C   0  0  2  0  0  0  0  0  0  0  0  0
    5.0095    1.6925    1.1158 C   0  0  0  0  0  0  0  0  0  0  0  0
    6.3475    1.3270    1.6610 C   0  0  0  0  0  0  0  0  0  0  0  0
    3.1283    1.5478   -2.0477 C   0  0  0  0  0  0  0  0  0  0  0  0
    0.9790    0.4079   -1.8102 C   0  0  0  0  0  0  0  0  0  0  0  0
    0.8446    0.1573   -0.3603 C   0  0  0  0  0  0  0  0  0  0  0  0
   -0.5290    0.5207    0.1869 C   0  0  0  0  0  0  0  0  0  0  0  0
   -1.6655   -0.1390   -0.5038 C   0  0  0  0  0  0  0  0  0  0  0  0
   -1.1329   -0.7871   -1.7746 C   0  0  0  0  0  0  0  0  0  0  0  0
   -0.3627    0.2791   -2.5405 C   0  0  0  0  0  0  0  0  0  0  0  0
   -2.2473   -1.1164    0.2529 O   0  0  0  0  0  0  0  0  0  0  0  0
   -4.3903   -2.0816   -0.2579 C   0  0  0  0  0  0  0  0  0  0  0  0
   -5.0934   -3.0279    0.6314 C   0  0  0  0  0  0  0  0  0  0  0  0
   -5.4239   -1.1397    2.1055 C   0  0  0  0  0  0  0  0  0  0  0  0
   -4.0525   -0.6436    1.7948 C   0  0  0  0  0  0  0  0  0  0  0  0
   -6.5966    0.9881    1.7882 N   0  0  0  0  0  0  0  0  0  0  0  0
   -7.7295    1.6185    1.1102 C   0  0  0  0  0  0  0  0  0  0  0  0
    7.2161    0.5929    0.6663 C   0  0  0  0  0  0  0  0  0  0  0  0
    6.3790   -0.4999    0.0505 C   0  0  0  0  0  0  0  0  0  0  0  0
    7.2190   -1.4555   -0.7705 C   0  0  0  0  0  0  0  0  0  0  0  0
    8.1242   -2.0350    0.0928 F   0  0  0  0  0  0  0  0  0  0  0  0
    7.8498   -0.7332   -1.7665 F   0  0  0  0  0  0  0  0  0  0  0  0
    6.3964   -2.4023   -1.3022 F   0  0  0  0  0  0  0  0  0  0  0  0
    8.5973   -0.1263    1.5515 Cl  0  0  0  0  0  0  0  0  0  0  0  0
    3.4451    1.5819   -0.6685 N   0  0  0  0  0  0  0  0  0  0  0  0
    1.7184    1.5189   -2.2702 N   0  0  0  0  0  0  0  0  0  0  0  0
    3.7236    0.5170   -2.7766 O   0  0  0  0  0  0  0  0  0  0  0  0
   -3.6480   -0.9661    0.3952 C   0  0  0  0  0  0  0  0  0  0  0  0
   -5.4379   -2.5638    1.9231 N   0  0  0  0  0  0  0  0  0  0  0  0
   -6.5412   -0.4365    1.4149 C   0  0  0  0  0  0  0  0  0  0  0  0
   -7.7388   -0.9667    1.9509 O   0  0  0  0  0  0  0  0  0  0  0  0
    4.5275   -0.5916   -0.9348 H   0  0  0  0  0  0  0  0  0  0  0  0
    5.8230    0.2211   -1.8535 H   0  0  0  0  0  0  0  0  0  0  0  0
    5.3758    2.3135   -0.9032 H   0  0  0  0  0  0  0  0  0  0  0  0
    4.8315    2.7674    1.3215 H   0  0  0  0  0  0  0  0  0  0  0  0
    4.1685    1.1461    1.6188 H   0  0  0  0  0  0  0  0  0  0  0  0
    6.1785    0.5983    2.5014 H   0  0  0  0  0  0  0  0  0  0  0  0
    6.9183    2.1566    2.0909 H   0  0  0  0  0  0  0  0  0  0  0  0
    3.4997    2.5221   -2.4914 H   0  0  0  0  0  0  0  0  0  0  0  0
    1.5477   -0.5132   -2.2137 H   0  0  0  0  0  0  0  0  0  0  0  0
    1.5563    0.7406    0.2372 H   0  0  0  0  0  0  0  0  0  0  0  0
    1.0167   -0.9241   -0.0810 H   0  0  0  0  0  0  0  0  0  0  0  0
   -0.5948    1.6232    0.2298 H   0  0  0  0  0  0  0  0  0  0  0  0
   -0.5069    0.1937    1.2682 H   0  0  0  0  0  0  0  0  0  0  0  0
   -2.3737    0.6357   -0.8644 H   0  0  0  0  0  0  0  0  0  0  0  0
   -1.9298   -1.1893   -2.4131 H   0  0  0  0  0  0  0  0  0  0  0  0
   -0.3949   -1.5407   -1.4551 H   0  0  0  0  0  0  0  0  0  0  0  0
   -0.2518   -0.0719   -3.5787 H   0  0  0  0  0  0  0  0  0  0  0  0
   -0.8815    1.2388   -2.5458 H   0  0  0  0  0  0  0  0  0  0  0  0
   -3.6253   -2.6782   -0.8449 H   0  0  0  0  0  0  0  0  0  0  0  0
   -5.0799   -1.7224   -1.0795 H   0  0  0  0  0  0  0  0  0  0  0  0
   -6.0543   -3.3431    0.1232 H   0  0  0  0  0  0  0  0  0  0  0  0
   -4.5416   -4.0137    0.7085 H   0  0  0  0  0  0  0  0  0  0  0  0
   -5.5932   -0.9778    3.2125 H   0  0  0  0  0  0  0  0  0  0  0  0
   -3.3657   -1.0634    2.5605 H   0  0  0  0  0  0  0  0  0  0  0  0
   -4.0136    0.4666    1.9810 H   0  0  0  0  0  0  0  0  0  0  0  0
   -5.7114    1.4239    1.4174 H   0  0  0  0  0  0  0  0  0  0  0  0
   -8.0402    1.0599    0.2136 H   0  0  0  0  0  0  0  0  0  0  0  0
   -7.4135    2.6193    0.7600 H   0  0  0  0  0  0  0  0  0  0  0  0
   -8.6076    1.7321    1.7540 H   0  0  0  0  0  0  0  0  0  0  0  0
    7.5892    1.2972   -0.0953 H   0  0  0  0  0  0  0  0  0  0  0  0
    5.8373   -1.0097    0.8543 H   0  0  0  0  0  0  0  0  0  0  0  0
    3.0645    2.4638   -0.2192 H   0  0  0  0  0  0  0  0  0  0  0  0
    1.2976    2.4507   -2.0478 H   0  0  0  0  0  0  0  0  0  0  0  0
    4.1960    0.8646   -3.5803 H   0  0  0  0  0  0  0  0  0  0  0  0
   -3.8764   -0.0334   -0.2051 H   0  0  0  0  0  0  0  0  0  0  0  0
   -4.8078   -2.9699    2.6495 H   0  0  0  0  0  0  0  0  0  0  0  0
   -6.5382   -0.4537    0.3283 H   0  0  0  0  0  0  0  0  0  0  0  0
   -7.8576   -0.7221    2.8886 H   0  0  0  0  0  0  0  0  0  0  0  0
  1  2  1  0
  2  3  1  0
  3  4  1  0
  6  7  1  0
  7  8  1  0
  8  9  1  0
  9 10  1  0
  6 11  1  0
 10 11  1  0
  9 12  1  0
 13 14  1  0
 15 16  1  0
 17 18  1  0
  4 19  1  0
  1 20  1  0
 19 20  1  0
 20 21  1  0
 21 22  1  0
 21 23  1  0
 21 24  1  0
 19 25  1  0
  2 26  1  0
  5 26  1  0
  5 27  1  0
  6 27  1  0
  5 28  1  0
 12 29  1  0
 13 29  1  0
 16 29  1  0
 14 30  1  0
 15 30  1  0
 15 31  1  0
 17 31  1  0
 31 32  1  0
  1 33  1  0
  1 34  1  0
  2 35  1  6
  3 36  1  0
  3 37  1  0
  4 38  1  0
  4 39  1  0
  5 40  1  0
  6 41  1  0
  7 42  1  0
  7 43  1  0
  8 44  1  0
  8 45  1  0
  9 46  1  0
 10 47  1  0
 10 48  1  0
 11 49  1  0
 11 50  1  0
 13 51  1  0
 13 52  1  0
 14 53  1  0
 14 54  1  0
 15 55  1  0
 16 56  1  0
 16 57  1  0
 17 58  1  0
 18 59  1  0
 18 60  1  0
 18 61  1  0
 19 62  1  0
 20 63  1  0
 26 64  1  0
 27 65  1  0
 28 66  1  0
 29 67  1  0
 30 68  1  0
 31 69  1  0
 32 70  1  0
M  END
>  <PDBID>  (1) 
3WZE

>  <PDB ID>  (1) 
3WZE

>  <Generic Name>  (1) 
Sorafenib

>  <Brand Name>  (1) 
Nexavar

>  <DrugBank ID>  (1) 
DB00398

>  <ATC Codes>  (1) 
L01XE05

>  <Ligand ID>  (1) 
BAX

>  <Target Name>  (1) 
Vascular endothelial growth factor receptor 3

>  <UniProt ID>  (1) 
P35916

>  <PDB ID.1>  (1) 
3WZE

>  <Seq. Identity>  (1) 
67%

$$$$
