PDB_DB00523_06
     RDKit          3D

 62 62  0  0  0  0  0  0  0  0999 V2000
   -3.3508    0.8097    0.3664 C   0  0  0  0  0  0  0  0  0  0  0  0
   -4.4929    1.1150    1.3465 C   0  0  0  0  0  0  0  0  0  0  0  0
   -5.6270    0.1855    0.9777 C   0  0  0  0  0  0  0  0  0  0  0  0
   -5.1354   -1.1640    1.5240 C   0  0  0  0  0  0  0  0  0  0  0  0
   -4.0251   -1.6316    0.6675 C   0  0  2  0  0  0  0  0  0  0  0  0
   -2.9787   -0.6137    0.3088 C   0  0  1  0  0  0  0  0  0  0  0  0
   -2.3861   -1.1047   -0.9826 C   0  0  0  0  0  0  0  0  0  0  0  0
   -1.1333   -0.5028   -1.4488 C   0  0  0  0  0  0  0  0  0  0  0  0
    0.0724   -0.6580   -0.5634 C   0  0  0  0  0  0  0  0  0  0  0  0
    1.2748    0.0579   -1.2080 C   0  0  0  0  0  0  0  0  0  0  0  0
    2.4589   -0.1218   -0.2687 C   0  0  0  0  0  0  0  0  0  0  0  0
    3.6225    0.5701   -0.8934 C   0  0  0  0  0  0  0  0  0  0  0  0
    4.8790    0.4542   -0.0753 C   0  0  0  0  0  0  0  0  0  0  0  0
    6.0043    1.1648   -0.7731 C   0  0  0  0  0  0  0  0  0  0  0  0
    7.3133    1.1053   -0.0469 C   0  0  0  0  0  0  0  0  0  0  0  0
   -3.8073    1.4031   -0.9607 C   0  0  0  0  0  0  0  0  0  0  0  0
   -2.1980    1.6660    0.8799 C   0  0  0  0  0  0  0  0  0  0  0  0
   -4.6648   -2.2605   -0.5815 C   0  0  0  0  0  0  0  0  0  0  0  0
    0.5013   -2.1083   -0.3831 C   0  0  0  0  0  0  0  0  0  0  0  0
    4.7518    0.9884    1.3197 C   0  0  0  0  0  0  0  0  0  0  0  0
    7.2845    1.6742    1.2060 O   0  0  0  0  0  0  0  0  0  0  0  0
    7.7300   -0.2418    0.0479 O   0  0  0  0  0  0  0  0  0  0  0  0
   -4.7382    2.1754    1.2080 H   0  0  0  0  0  0  0  0  0  0  0  0
   -4.0911    0.8879    2.3651 H   0  0  0  0  0  0  0  0  0  0  0  0
   -5.7260    0.1531   -0.1258 H   0  0  0  0  0  0  0  0  0  0  0  0
   -6.5530    0.5094    1.4882 H   0  0  0  0  0  0  0  0  0  0  0  0
   -5.9864   -1.8481    1.4330 H   0  0  0  0  0  0  0  0  0  0  0  0
   -4.8645   -0.9874    2.5792 H   0  0  0  0  0  0  0  0  0  0  0  0
   -3.5462   -2.5051    1.1861 H   0  0  0  0  0  0  0  0  0  0  0  0
   -2.1505   -0.7513    1.0732 H   0  0  0  0  0  0  0  0  0  0  0  0
   -3.1471   -1.0986   -1.8136 H   0  0  0  0  0  0  0  0  0  0  0  0
   -2.2130   -2.1947   -0.8222 H   0  0  0  0  0  0  0  0  0  0  0  0
   -0.8591   -1.0378   -2.4122 H   0  0  0  0  0  0  0  0  0  0  0  0
   -1.1819    0.5557   -1.7557 H   0  0  0  0  0  0  0  0  0  0  0  0
   -0.1581   -0.2559    0.4302 H   0  0  0  0  0  0  0  0  0  0  0  0
    1.4334   -0.4338   -2.1858 H   0  0  0  0  0  0  0  0  0  0  0  0
    0.9834    1.1120   -1.2909 H   0  0  0  0  0  0  0  0  0  0  0  0
    2.6235   -1.1652   -0.0105 H   0  0  0  0  0  0  0  0  0  0  0  0
    2.1748    0.4207    0.6697 H   0  0  0  0  0  0  0  0  0  0  0  0
    3.3540    1.6534   -0.9829 H   0  0  0  0  0  0  0  0  0  0  0  0
    3.8586    0.2170   -1.9107 H   0  0  0  0  0  0  0  0  0  0  0  0
    5.1607   -0.6208    0.0135 H   0  0  0  0  0  0  0  0  0  0  0  0
    6.1502    0.7705   -1.8075 H   0  0  0  0  0  0  0  0  0  0  0  0
    5.7548    2.2535   -0.9189 H   0  0  0  0  0  0  0  0  0  0  0  0
    8.1142    1.6044   -0.6684 H   0  0  0  0  0  0  0  0  0  0  0  0
   -4.1416    0.6674   -1.6884 H   0  0  0  0  0  0  0  0  0  0  0  0
   -4.6724    2.1160   -0.8274 H   0  0  0  0  0  0  0  0  0  0  0  0
   -3.0126    2.0552   -1.4133 H   0  0  0  0  0  0  0  0  0  0  0  0
   -1.5410    2.0351    0.0877 H   0  0  0  0  0  0  0  0  0  0  0  0
   -2.5856    2.5946    1.3957 H   0  0  0  0  0  0  0  0  0  0  0  0
   -1.6472    1.1271    1.7012 H   0  0  0  0  0  0  0  0  0  0  0  0
   -5.0667   -1.5040   -1.2623 H   0  0  0  0  0  0  0  0  0  0  0  0
   -4.0469   -3.0346   -1.0339 H   0  0  0  0  0  0  0  0  0  0  0  0
   -5.5697   -2.8091   -0.1810 H   0  0  0  0  0  0  0  0  0  0  0  0
   -0.3307   -2.7448   -0.7310 H   0  0  0  0  0  0  0  0  0  0  0  0
    0.6814   -2.3441    0.6813 H   0  0  0  0  0  0  0  0  0  0  0  0
    1.3662   -2.3526   -1.0406 H   0  0  0  0  0  0  0  0  0  0  0  0
    5.5058    0.4513    1.9576 H   0  0  0  0  0  0  0  0  0  0  0  0
    3.7408    0.8373    1.7762 H   0  0  0  0  0  0  0  0  0  0  0  0
    5.0176    2.0717    1.3523 H   0  0  0  0  0  0  0  0  0  0  0  0
    7.8508    1.1478    1.8350 H   0  0  0  0  0  0  0  0  0  0  0  0
    7.9660   -0.5155   -0.8732 H   0  0  0  0  0  0  0  0  0  0  0  0
  1  2  1  0
  2  3  1  0
  3  4  1  0
  4  5  1  0
  1  6  1  0
  5  6  1  0
  6  7  1  0
  7  8  1  0
  8  9  1  0
  9 10  1  0
 10 11  1  0
 11 12  1  0
 12 13  1  0
 13 14  1  0
 14 15  1  0
  1 16  1  0
  1 17  1  0
  5 18  1  0
  9 19  1  0
 13 20  1  0
 15 21  1  0
 15 22  1  0
  2 23  1  0
  2 24  1  0
  3 25  1  0
  3 26  1  0
  4 27  1  0
  4 28  1  0
  5 29  1  1
  6 30  1  1
  7 31  1  0
  7 32  1  0
  8 33  1  0
  8 34  1  0
  9 35  1  0
 10 36  1  0
 10 37  1  0
 11 38  1  0
 11 39  1  0
 12 40  1  0
 12 41  1  0
 13 42  1  0
 14 43  1  0
 14 44  1  0
 15 45  1  0
 16 46  1  0
 16 47  1  0
 16 48  1  0
 17 49  1  0
 17 50  1  0
 17 51  1  0
 18 52  1  0
 18 53  1  0
 18 54  1  0
 19 55  1  0
 19 56  1  0
 19 57  1  0
 20 58  1  0
 20 59  1  0
 20 60  1  0
 21 61  1  0
 22 62  1  0
M  END
>  <PDBID>  (1) 
3OAP

>  <PDB ID>  (1) 
3OAP

>  <Generic Name>  (1) 
Alitretinoin

>  <Brand Name>  (1) 
Panretin#Toctino

>  <DrugBank ID>  (1) 
DB00523

>  <ATC Codes>  (1) 
D11AH04#L01XX22

>  <Ligand ID>  (1) 
9CR

>  <Target Name>  (1) 
Retinoic acid receptor RXR-beta

>  <UniProt ID>  (1) 
P28702

>  <PDB ID.1>  (1) 
3OAP

>  <Seq. Identity>  (1) 
87%

$$$$
