PDB_DB00869_04
     RDKit          3D

 43 44  0  0  0  0  0  0  0  0999 V2000
    2.2165   -1.8051   -0.1644 S   0  0  0  0  0  0  0  0  0  0  0  0
    2.6693   -0.1115   -0.7068 C   0  0  0  0  0  0  0  0  0  0  0  0
    1.3553    0.6367   -0.7920 C   0  0  0  0  0  0  0  0  0  0  0  0
    0.3356   -0.1350   -0.0147 C   0  0  0  0  0  0  0  0  0  0  0  0
   -1.0583    0.3692   -0.1803 C   0  0  2  0  0  0  0  0  0  0  0  0
   -1.9776   -0.5506   -0.9218 C   0  0  0  0  0  0  0  0  0  0  0  0
   -2.1610   -1.8945   -0.3108 C   0  0  1  0  0  0  0  0  0  0  0  0
   -0.6213   -2.5083    0.3800 S   0  0  0  0  0  0  0  0  0  0  0  0
    0.4499   -1.5932   -0.4551 C   0  0  2  0  0  0  0  0  0  0  0  0
    3.8675    0.5849    0.2136 S   0  0  0  0  0  0  0  0  0  0  0  0
    5.3012    0.6689   -1.0309 O   0  0  0  0  0  0  0  0  0  0  0  0
    4.5024   -0.3948    1.2216 O   0  0  0  0  0  0  0  0  0  0  0  0
    3.7720    2.0652    0.5880 N   0  0  0  0  0  0  0  0  0  0  0  0
   -0.9855    1.6729   -0.7579 N   0  0  0  0  0  0  0  0  0  0  0  0
   -3.2685   -2.0028    0.6848 C   0  0  0  0  0  0  0  0  0  0  0  0
   -0.5981   -2.0638    2.2123 O   0  0  0  0  0  0  0  0  0  0  0  0
   -0.4233   -4.2534    0.3844 O   0  0  0  0  0  0  0  0  0  0  0  0
   -2.2231    2.3854   -0.8649 C   0  0  0  0  0  0  0  0  0  0  0  0
   -2.7101    2.8641    0.4962 C   0  0  0  0  0  0  0  0  0  0  0  0
    2.9927   -0.2586   -1.7699 H   0  0  0  0  0  0  0  0  0  0  0  0
    1.0558    0.8782   -1.8224 H   0  0  0  0  0  0  0  0  0  0  0  0
    1.5195    1.5966   -0.2711 H   0  0  0  0  0  0  0  0  0  0  0  0
    0.6678   -0.1310    1.0542 H   0  0  0  0  0  0  0  0  0  0  0  0
   -1.4893    0.4871    0.8468 H   0  0  0  0  0  0  0  0  0  0  0  0
   -2.9870   -0.0660   -0.9148 H   0  0  0  0  0  0  0  0  0  0  0  0
   -1.6214   -0.5914   -1.9823 H   0  0  0  0  0  0  0  0  0  0  0  0
   -2.3904   -2.6140   -1.1372 H   0  0  0  0  0  0  0  0  0  0  0  0
    0.2777   -1.5873   -1.5411 H   0  0  0  0  0  0  0  0  0  0  0  0
    5.1881   -0.2219   -1.4231 H   0  0  0  0  0  0  0  0  0  0  0  0
    4.5889   -0.2119    2.1935 H   0  0  0  0  0  0  0  0  0  0  0  0
    3.0995    2.7673    0.2400 H   0  0  0  0  0  0  0  0  0  0  0  0
    4.2615    2.4074    1.4315 H   0  0  0  0  0  0  0  0  0  0  0  0
   -0.3893    2.2574   -0.1116 H   0  0  0  0  0  0  0  0  0  0  0  0
   -3.4879   -3.0941    0.8077 H   0  0  0  0  0  0  0  0  0  0  0  0
   -4.1655   -1.5638    0.2307 H   0  0  0  0  0  0  0  0  0  0  0  0
   -3.0550   -1.5227    1.6583 H   0  0  0  0  0  0  0  0  0  0  0  0
    0.3165   -2.3447    2.4220 H   0  0  0  0  0  0  0  0  0  0  0  0
    0.5453   -4.3816    0.5720 H   0  0  0  0  0  0  0  0  0  0  0  0
   -1.9850    3.3279   -1.4238 H   0  0  0  0  0  0  0  0  0  0  0  0
   -3.0040    1.8886   -1.4499 H   0  0  0  0  0  0  0  0  0  0  0  0
   -3.4977    3.6202    0.2944 H   0  0  0  0  0  0  0  0  0  0  0  0
   -3.0422    2.0397    1.1417 H   0  0  0  0  0  0  0  0  0  0  0  0
   -1.8416    3.3841    0.9732 H   0  0  0  0  0  0  0  0  0  0  0  0
  1  2  1  0
  2  3  1  0
  3  4  1  0
  4  5  1  0
  5  6  1  0
  6  7  1  0
  7  8  1  0
  1  9  1  0
  4  9  1  0
  8  9  1  0
  2 10  1  0
 10 11  1  0
 10 12  1  0
 10 13  1  0
  5 14  1  0
  7 15  1  0
  8 16  1  0
  8 17  1  0
 14 18  1  0
 18 19  1  0
  2 20  1  0
  3 21  1  0
  3 22  1  0
  4 23  1  0
  5 24  1  1
  6 25  1  0
  6 26  1  0
  7 27  1  6
  9 28  1  6
 11 29  1  0
 12 30  1  0
 13 31  1  0
 13 32  1  0
 14 33  1  0
 15 34  1  0
 15 35  1  0
 15 36  1  0
 16 37  1  0
 17 38  1  0
 18 39  1  0
 18 40  1  0
 19 41  1  0
 19 42  1  0
 19 43  1  0
M  END
>  <PDBID>  (1) 
1CIL

>  <PDB ID>  (1) 
1CIL

>  <Generic Name>  (1) 
Dorzolamide

>  <Brand Name>  (1) 
Act Dorzotimolol#Apo-dorzo-timop#Apo-dorzolamide#Cosopt#Cosopt PF#Dorzolamide#Dorzolamide HCl#Dorzolamide HCl /timolol Maleate#Dorzolamide HCl and Timolol Maleate#Dorzolamide Hydrochloride#Dorzolamide Hydrochloride Ophthalmic Solution#Dorzolamide Hydrochloride Ophthalmic Solution 2%, 10ml Ophthalmic Solution 2%, 10ml#Dorzolamide Hydrochloride and Timolol Maleate#Dorzolamide Hydrochloride and Timolol Maleate Ophthalmic Solution#Dorzolamide Hydrochloride-timolol Maleate#Dorzolamide Hydrochloride-timolol Maleate Ophthalmic Solution Sterile Ophthalmic Solution#Jamp-dorzolamide#Jamp-dorzolamide/timolol#Med-dorzolamide#Med-dorzolamide-timolol#Mint-dorzolamide/timolol#Mylan-dorzolamide/timolol#PMS-dorzolamide-timolol#Riva-dorzolamide#Riva-dorzolamide/timolol#Sandoz Dorzolamide#Sandoz Dorzolamide/timolol#Teva-dorzotimol#Trusopt#Van-dorzolamide-timolol

>  <DrugBank ID>  (1) 
DB00869

>  <ATC Codes>  (1) 
S01EC03

>  <Ligand ID>  (1) 
ETS

>  <Target Name>  (1) 
Carbonic anhydrase 2

>  <UniProt ID>  (1) 
P00918

>  <PDB ID.1>  (1) 
1CIL

>  <Seq. Identity>  (1) 
100%

$$$$
