PDB_DB00869_06
     RDKit          3D

 43 44  0  0  0  0  0  0  0  0999 V2000
    2.3888   -1.2140   -0.0604 S   0  0  0  0  0  0  0  0  0  0  0  0
    2.5530    0.5972   -0.0503 C   0  0  0  0  0  0  0  0  0  0  0  0
    1.1359    0.9301    0.4584 C   0  0  0  0  0  0  0  0  0  0  0  0
    0.1568    0.1654   -0.3435 C   0  0  0  0  0  0  0  0  0  0  0  0
   -1.1721    0.1058    0.2886 C   0  0  2  0  0  0  0  0  0  0  0  0
   -2.1005   -0.6522   -0.6818 C   0  0  0  0  0  0  0  0  0  0  0  0
   -1.9123   -2.1242   -0.5421 C   0  0  1  0  0  0  0  0  0  0  0  0
   -0.2943   -2.4680    0.1333 S   0  0  0  0  0  0  0  0  0  0  0  0
    0.6380   -1.2374   -0.5723 C   0  0  2  0  0  0  0  0  0  0  0  0
    3.8017    1.2216    0.7572 S   0  0  0  0  0  0  0  0  0  0  0  0
    3.8462    2.7683    0.9126 O   0  0  0  0  0  0  0  0  0  0  0  0
    4.4520    0.3238    1.8608 O   0  0  0  0  0  0  0  0  0  0  0  0
    5.1062    1.0819   -0.6390 N   0  0  0  0  0  0  0  0  0  0  0  0
   -1.7989    1.3361    0.6705 N   0  0  0  0  0  0  0  0  0  0  0  0
   -2.9582   -2.7714    0.3257 C   0  0  0  0  0  0  0  0  0  0  0  0
   -0.3014   -2.5883    1.8920 O   0  0  0  0  0  0  0  0  0  0  0  0
    0.2569   -4.1111   -0.4531 O   0  0  0  0  0  0  0  0  0  0  0  0
   -2.0781    2.2108   -0.4240 C   0  0  0  0  0  0  0  0  0  0  0  0
   -3.0407    3.2868    0.0891 C   0  0  0  0  0  0  0  0  0  0  0  0
    2.4874    0.9186   -1.1317 H   0  0  0  0  0  0  0  0  0  0  0  0
    1.0252    2.0234    0.1926 H   0  0  0  0  0  0  0  0  0  0  0  0
    1.0515    0.7868    1.5527 H   0  0  0  0  0  0  0  0  0  0  0  0
    0.0284    0.7088   -1.3275 H   0  0  0  0  0  0  0  0  0  0  0  0
   -1.1288   -0.5241    1.2065 H   0  0  0  0  0  0  0  0  0  0  0  0
   -3.1580   -0.3689   -0.4851 H   0  0  0  0  0  0  0  0  0  0  0  0
   -1.8532   -0.2811   -1.6928 H   0  0  0  0  0  0  0  0  0  0  0  0
   -2.0176   -2.5709   -1.5587 H   0  0  0  0  0  0  0  0  0  0  0  0
    0.6724   -1.4030   -1.6730 H   0  0  0  0  0  0  0  0  0  0  0  0
    4.5013    3.1604    1.5296 H   0  0  0  0  0  0  0  0  0  0  0  0
    4.5250   -0.6424    1.5766 H   0  0  0  0  0  0  0  0  0  0  0  0
    4.9230    0.1345   -0.9701 H   0  0  0  0  0  0  0  0  0  0  0  0
    5.9651    1.0992   -0.0749 H   0  0  0  0  0  0  0  0  0  0  0  0
   -2.6657    1.1149    1.1978 H   0  0  0  0  0  0  0  0  0  0  0  0
   -3.0249   -2.2588    1.2934 H   0  0  0  0  0  0  0  0  0  0  0  0
   -3.9379   -2.7615   -0.1925 H   0  0  0  0  0  0  0  0  0  0  0  0
   -2.6844   -3.8172    0.4762 H   0  0  0  0  0  0  0  0  0  0  0  0
    0.6550   -2.6863    2.0888 H   0  0  0  0  0  0  0  0  0  0  0  0
   -0.5307   -4.6816   -0.2420 H   0  0  0  0  0  0  0  0  0  0  0  0
   -2.4918    1.7714   -1.3223 H   0  0  0  0  0  0  0  0  0  0  0  0
   -1.1335    2.7879   -0.6627 H   0  0  0  0  0  0  0  0  0  0  0  0
   -3.1158    4.1416   -0.5887 H   0  0  0  0  0  0  0  0  0  0  0  0
   -2.7071    3.6442    1.0777 H   0  0  0  0  0  0  0  0  0  0  0  0
   -4.0642    2.8430    0.2160 H   0  0  0  0  0  0  0  0  0  0  0  0
  1  2  1  0
  2  3  1  0
  3  4  1  0
  4  5  1  0
  5  6  1  0
  6  7  1  0
  7  8  1  0
  1  9  1  0
  4  9  1  0
  8  9  1  0
  2 10  1  0
 10 11  1  0
 10 12  1  0
 10 13  1  0
  5 14  1  0
  7 15  1  0
  8 16  1  0
  8 17  1  0
 14 18  1  0
 18 19  1  0
  2 20  1  0
  3 21  1  0
  3 22  1  0
  4 23  1  0
  5 24  1  1
  6 25  1  0
  6 26  1  0
  7 27  1  6
  9 28  1  6
 11 29  1  0
 12 30  1  0
 13 31  1  0
 13 32  1  0
 14 33  1  0
 15 34  1  0
 15 35  1  0
 15 36  1  0
 16 37  1  0
 17 38  1  0
 18 39  1  0
 18 40  1  0
 19 41  1  0
 19 42  1  0
 19 43  1  0
M  END
>  <PDBID>  (1) 
1CIL

>  <PDB ID>  (1) 
1CIL

>  <Generic Name>  (1) 
Dorzolamide

>  <Brand Name>  (1) 
Act Dorzotimolol#Apo-dorzo-timop#Apo-dorzolamide#Cosopt#Cosopt PF#Dorzolamide#Dorzolamide HCl#Dorzolamide HCl /timolol Maleate#Dorzolamide HCl and Timolol Maleate#Dorzolamide Hydrochloride#Dorzolamide Hydrochloride Ophthalmic Solution#Dorzolamide Hydrochloride Ophthalmic Solution 2%, 10ml Ophthalmic Solution 2%, 10ml#Dorzolamide Hydrochloride and Timolol Maleate#Dorzolamide Hydrochloride and Timolol Maleate Ophthalmic Solution#Dorzolamide Hydrochloride-timolol Maleate#Dorzolamide Hydrochloride-timolol Maleate Ophthalmic Solution Sterile Ophthalmic Solution#Jamp-dorzolamide#Jamp-dorzolamide/timolol#Med-dorzolamide#Med-dorzolamide-timolol#Mint-dorzolamide/timolol#Mylan-dorzolamide/timolol#PMS-dorzolamide-timolol#Riva-dorzolamide#Riva-dorzolamide/timolol#Sandoz Dorzolamide#Sandoz Dorzolamide/timolol#Teva-dorzotimol#Trusopt#Van-dorzolamide-timolol

>  <DrugBank ID>  (1) 
DB00869

>  <ATC Codes>  (1) 
S01EC03

>  <Ligand ID>  (1) 
ETS

>  <Target Name>  (1) 
Carbonic anhydrase 2

>  <UniProt ID>  (1) 
P00918

>  <PDB ID.1>  (1) 
1CIL

>  <Seq. Identity>  (1) 
100%

$$$$
