PDB_DB00819_02
     RDKit          3D

 27 27  0  0  0  0  0  0  0  0999 V2000
   -1.6423    0.8214   -0.0829 C   0  0  2  0  0  0  0  0  0  0  0  0
    0.5770   -0.7500    0.1318 C   0  0  2  0  0  0  0  0  0  0  0  0
    2.7435   -0.1859   -0.7053 C   0  0  0  0  0  0  0  0  0  0  0  0
    3.9974    0.5814   -0.4146 C   0  0  0  0  0  0  0  0  0  0  0  0
   -4.0308    1.0166    1.2248 N   0  0  0  0  0  0  0  0  0  0  0  0
   -0.3685   -0.5788    1.2340 N   0  0  0  0  0  0  0  0  0  0  0  0
   -0.8907    0.6910    1.1792 N   0  0  0  0  0  0  0  0  0  0  0  0
    1.8016   -0.0336    0.3594 N   0  0  0  0  0  0  0  0  0  0  0  0
   -2.8849   -1.3828    0.9791 O   0  0  0  0  0  0  0  0  0  0  0  0
   -3.9251   -0.2282   -1.1365 O   0  0  0  0  0  0  0  0  0  0  0  0
    3.0833   -1.4939   -0.9838 O   0  0  0  0  0  0  0  0  0  0  0  0
   -3.1152    0.1833   -0.0210 S   0  0  0  0  0  0  0  0  0  0  0  0
   -0.4248    0.0451   -1.1961 S   0  0  0  0  0  0  0  0  0  0  0  0
   -1.6191    1.9031   -0.3177 H   0  0  0  0  0  0  0  0  0  0  0  0
    0.7232   -1.7965   -0.1241 H   0  0  0  0  0  0  0  0  0  0  0  0
    2.2905    0.2555   -1.6217 H   0  0  0  0  0  0  0  0  0  0  0  0
    3.9444    1.6431   -0.6598 H   0  0  0  0  0  0  0  0  0  0  0  0
    4.8040    0.1384   -1.0660 H   0  0  0  0  0  0  0  0  0  0  0  0
    4.3429    0.4024    0.6419 H   0  0  0  0  0  0  0  0  0  0  0  0
   -3.4290    1.7902    1.5572 H   0  0  0  0  0  0  0  0  0  0  0  0
   -4.8549    1.4055    0.7202 H   0  0  0  0  0  0  0  0  0  0  0  0
    0.1245   -0.6893    2.1209 H   0  0  0  0  0  0  0  0  0  0  0  0
   -0.1900    1.4583    1.2669 H   0  0  0  0  0  0  0  0  0  0  0  0
    2.1753   -0.1273    1.3075 H   0  0  0  0  0  0  0  0  0  0  0  0
   -2.2717   -1.8034    0.3278 H   0  0  0  0  0  0  0  0  0  0  0  0
   -4.1000   -1.1805   -1.3767 H   0  0  0  0  0  0  0  0  0  0  0  0
    3.1392   -2.0849   -0.2166 H   0  0  0  0  0  0  0  0  0  0  0  0
  3  4  1  0
  2  6  1  0
  1  7  1  0
  6  7  1  0
  2  8  1  0
  3  8  1  0
  3 11  1  0
  1 12  1  0
  5 12  1  0
 12  9  1  0
 10 12  1  0
  1 13  1  0
  2 13  1  0
  1 14  1  6
  2 15  1  6
  3 16  1  0
  4 17  1  0
  4 18  1  0
  4 19  1  0
  5 20  1  0
  5 21  1  0
  6 22  1  0
  7 23  1  0
  8 24  1  0
  9 25  1  0
 10 26  1  0
 11 27  1  0
M  END
>  <PDBID>  (1) 
1AZM

>  <PDB ID>  (1) 
1AZM

>  <Generic Name>  (1) 
Acetazolamide

>  <Brand Name>  (1) 
Acetazolam#Acetazolamide#Acetazolamide for Injection, USP#Diamox IV 500mg#Diamox Pws 500mg/vial#Diamox Sequels#Diamox Src 500mg#Diamox Tab 250mg#Diamox Tablets 250mg#Novo-zolamide Tab 250mg#Acemit#Acemox#Acetak#Acetamide#Acetazolamax#Azm#Azol#Azomid#Carbinib#Defiltran#Diabo#Diacarb#Diamox#Diamox Depot#Diazomid#Diluran#Diuramid#Défiltran#Edemox#Glaumox#Glaupax#Glupax#Huma-Zolamide#Iopar-SR#Medene#Oculten#Uramox#Zolmide#Ödemin

>  <DrugBank ID>  (1) 
DB00819

>  <ATC Codes>  (1) 
S01EC01

>  <Ligand ID>  (1) 
AZM

>  <Target Name>  (1) 
Carbonic anhydrase 1

>  <UniProt ID>  (1) 
P00915

>  <PDB ID.1>  (1) 
1AZM

>  <Seq. Identity>  (1) 
100%

$$$$
